AV-unprocessed.smi:671|AV-procd|sdf|3282|dock8
  -GOLD-   22720 0243D 1   1.00000     0.00000
 Structure written by MMmdl.
 50 51  0  0  0  0  0  0  0  0  2 V2000
  147.9748  141.3807  153.8447 C   0  0  0  0  0  0  0  0  0  0  0  0
  149.1606  141.3006  154.7465 C   0  0  0  0  0  0  0  0  0  0  0  0
  149.6384  142.3428  155.4780 N   0  3  0  0  0  0  0  0  0  0  0  0
  150.7171  141.9623  156.1778 N   0  0  0  0  0  0  0  0  0  0  0  0
  151.3938  142.9374  157.0332 C   0  0  0  0  0  0  0  0  0  0  0  0
  150.9945  140.6498  155.9386 C   0  0  0  0  0  0  0  0  0  0  0  0
  152.1366  139.9028  156.5471 C   0  0  0  0  0  0  0  0  0  0  0  0
  150.0096  140.2259  155.0371 C   0  0  0  0  0  0  0  0  0  0  0  0
  149.8910  138.8412  154.4651 C   0  0  0  0  0  0  0  0  0  0  0  0
  148.7408  138.0167  155.0876 C   0  0  1  0  0  0  0  0  0  0  0  0
  147.5551  138.8897  155.5272 C   0  0  0  0  0  0  0  0  0  0  0  0
  148.2610  137.0158  154.1317 N   0  0  0  0  0  0  0  0  0  0  0  0
  147.2542  136.1351  154.2819 C   0  0  0  0  0  0  0  0  0  0  0  0
  146.5878  136.0814  155.3131 O   0  0  0  0  0  0  0  0  0  0  0  0
  147.0474  135.3369  153.2214 N   0  0  0  0  0  0  0  0  0  0  0  0
  145.9948  134.3327  153.1047 C   0  0  2  0  0  0  0  0  0  0  0  0
  146.6093  132.9579  152.7812 C   0  0  0  0  0  0  0  0  0  0  0  0
  146.2370  132.6590  151.3294 C   0  0  0  0  0  0  0  0  0  0  0  0
  144.8956  133.3590  151.1423 C   0  0  0  0  0  0  0  0  0  0  0  0
  145.0345  134.6616  151.9375 C   0  0  1  0  0  0  0  0  0  0  0  0
  143.6866  135.2431  152.3868 C   0  0  0  0  0  0  0  0  0  0  0  0
  148.2777  141.2120  152.8110 H   0  0  0  0  0  0  0  0  0  0  0  0
  147.5045  142.3621  153.9132 H   0  0  0  0  0  0  0  0  0  0  0  0
  147.2387  140.6255  154.1194 H   0  0  0  0  0  0  0  0  0  0  0  0
  152.4597  142.9347  156.8032 H   0  0  0  0  0  0  0  0  0  0  0  0
  151.2444  142.6587  158.0766 H   0  0  0  0  0  0  0  0  0  0  0  0
  150.9898  143.9361  156.8612 H   0  0  0  0  0  0  0  0  0  0  0  0
  151.9996  138.8275  156.4409 H   0  0  0  0  0  0  0  0  0  0  0  0
  152.2188  140.1334  157.6094 H   0  0  0  0  0  0  0  0  0  0  0  0
  153.0693  140.1812  156.0566 H   0  0  0  0  0  0  0  0  0  0  0  0
  149.7562  138.8900  153.3839 H   0  0  0  0  0  0  0  0  0  0  0  0
  150.8380  138.3201  154.6089 H   0  0  0  0  0  0  0  0  0  0  0  0
  149.1061  137.5049  155.9792 H   0  0  0  0  0  0  0  0  0  0  0  0
  147.8497  139.6071  156.2930 H   0  0  0  0  0  0  0  0  0  0  0  0
  146.7554  138.2794  155.9483 H   0  0  0  0  0  0  0  0  0  0  0  0
  147.1395  139.4480  154.6879 H   0  0  0  0  0  0  0  0  0  0  0  0
  148.7678  136.9672  153.2592 H   0  0  0  0  0  0  0  0  0  0  0  0
  147.6541  135.4490  152.4230 H   0  0  0  0  0  0  0  0  0  0  0  0
  145.4508  134.2535  154.0480 H   0  0  0  0  0  0  0  0  0  0  0  0
  147.6871  132.9131  152.9451 H   0  0  0  0  0  0  0  0  0  0  0  0
  146.1579  132.2043  153.4281 H   0  0  0  0  0  0  0  0  0  0  0  0
  146.9773  133.0965  150.6589 H   0  0  0  0  0  0  0  0  0  0  0  0
  146.1870  131.5901  151.1202 H   0  0  0  0  0  0  0  0  0  0  0  0
  144.6565  133.5328  150.0927 H   0  0  0  0  0  0  0  0  0  0  0  0
  144.1026  132.7405  151.5654 H   0  0  0  0  0  0  0  0  0  0  0  0
  145.5142  135.3875  151.2778 H   0  0  0  0  0  0  0  0  0  0  0  0
  143.1533  134.5516  153.0398 H   0  0  0  0  0  0  0  0  0  0  0  0
  143.0468  135.4535  151.5296 H   0  0  0  0  0  0  0  0  0  0  0  0
  143.8254  136.1763  152.9325 H   0  0  0  0  0  0  0  0  0  0  0  0
  149.2875  143.2908  155.5312 H   0  0  0  0  0  0  0  0  0  0  0  0
  1  2  1  0  0  0  0
  1 22  1  0  0  0  0
  1 23  1  0  0  0  0
  1 24  1  0  0  0  0
  2  8  1  0  0  0  0
  2  3  2  0  0  0  0
  3  4  1  0  0  0  0
  3 50  1  0  0  0  0
  4  5  1  0  0  0  0
  4  6  1  0  0  0  0
  5 25  1  0  0  0  0
  5 26  1  0  0  0  0
  5 27  1  0  0  0  0
  6  7  1  0  0  0  0
  6  8  2  0  0  0  0
  7 28  1  0  0  0  0
  7 29  1  0  0  0  0
  7 30  1  0  0  0  0
  8  9  1  0  0  0  0
  9 10  1  0  0  0  0
  9 31  1  0  0  0  0
  9 32  1  0  0  0  0
 10 11  1  0  0  0  0
 10 12  1  0  0  0  0
 10 33  1  0  0  0  0
 11 34  1  0  0  0  0
 11 35  1  0  0  0  0
 11 36  1  0  0  0  0
 12 13  1  0  0  0  0
 12 37  1  0  0  0  0
 13 14  2  0  0  0  0
 13 15  1  0  0  0  0
 15 16  1  0  0  0  0
 15 38  1  0  0  0  0
 16 20  1  0  0  0  0
 16 17  1  0  0  0  0
 16 39  1  0  0  0  0
 17 18  1  0  0  0  0
 17 40  1  0  0  0  0
 17 41  1  0  0  0  0
 18 19  1  0  0  0  0
 18 42  1  0  0  0  0
 18 43  1  0  0  0  0
 19 20  1  0  0  0  0
 19 44  1  0  0  0  0
 19 45  1  0  0  0  0
 20 21  1  0  0  0  0
 20 46  1  0  0  0  0
 21 47  1  0  0  0  0
 21 48  1  0  0  0  0
 21 49  1  0  0  0  0
M  CHG  1   3   1
M  END
> <s_m_source_file>
AV-unprocessed.smi

> <i_m_source_file_index>
671

> <i_lp_mmshare_version>
43012

> <i_f3d_flags>
0

> <s_epik_input>
W0NIM11jMW5uKFtDSDNdKWMoW0NIM10pYzFbQ0gyXVtDQEhdKFtDSDNdKVtOSF1DKD1PKVtOSF1bQ0BASF0yW0NIMl1bQ0gyXVtDSDJdW0NASF0yW0NIM10=

> <s_epik_cmdline>
J2VwaWtfcHl0aG9uJywgJy1waCcsICc3LjAnLCAnLXRuJywgJzgnLCAnLW1hJywgJzIwMCcsICctbWV0YWxfYmluZGluZycsICctaW1hZScsICc8aW5maWxlLm1hZT4nLCAnLW9tYWUnLCAnPG91dGZpbGUubWFlPic=

> <r_lp_tautomer_probability>
1

> <r_epik_Ionization_Penalty>
2.28705

> <r_epik_Ionization_Penalty_Charging>
2.28698

> <r_epik_Ionization_Penalty_Neutral>
6.23157e-05

> <r_epik_State_Penalty>
2.43671

> <r_epik_Charging_Adjusted_Penalty>
4.72369

> <i_epik_Tot_Q>
1

> <i_epik_Tot_abs_Q>
1

> <r_epik_Metal_State_Penalty>
2.44911

> <b_epik_Metal_Only>
0

> <s_lp_Force_Field>
OPLS_2005

> <r_lp_Energy>
34.579

> <b_lp_Chiralities_Consistent>
1

> <s_lp_Variant>
AV-unprocessed.smi:671-10

> <Gold.Version>
5.8.1

> <Gold.Id.Protein>
6NUR|6NUR_protein|mol2

> <Gold.PLP.Fitness>
45.2567

> <Gold.PLP.PLP>
-34.4874

> <Gold.PLP.part.hbond>
-3.0000

> <Gold.PLP.part.metal>
0.0000

> <Gold.PLP.part.buried>
-4.5475

> <Gold.PLP.part.nonpolar>
-28.0970

> <Gold.PLP.part.repulsive>
0.2206

> <Gold.PLP.ligand.clash>
0.0013

> <Gold.PLP.ligand.torsion>
0.5574

> <Gold.PLP.Chemscore.Hbond>
3.9520

> <Gold.PLP.Chemscore.CHOScore>
0.0000

> <Gold.PLP.Chemscore.Metal>
0.0000

> <Gold.Chemscore.Hbonds>
donor molecule, donor type, donor heavy atom, donor atom, acceptor molecule, acceptor atom, score
      L1  H     3    50       P1  8028  1.79
      L1  H    12    37       P1  7948  0.96
      L1  H    15    38       P1  7948  0.91

> <Gold.PLP.Chemscore.Internal.Correction>
0.0294

> <Gold.Rescore>
     Score         DG    S(hbond)    S(metal)    S(lipo)     H(rot)  DE(clash)    DE(int)     intcor
     19.11     -20.70       2.84        0.00      82.02       1.51       0.22       1.37       ----

> <Gold.Chemscore.Fitness>
19.1140

> <Gold.Chemscore.DG>
-20.7040

> <Gold.Chemscore.ZeroCoef>
-5.4800

> <Gold.Chemscore.Hbond>
2.8391

> <Gold.Chemscore.Metal>
0.0000

> <Gold.Chemscore.Lipo>
82.0173

> <Gold.Chemscore.Internal_Hbond>
0.0000

> <Gold.Chemscore.DEClash>
0.2240

> <Gold.Chemscore.DEInternal>
1.3660

> <Gold.Chemscore.Rot>
1.5057

> <Gold.Chemscore.Internal.Correction>
   9.000000E+99

> <Gold.Chemscore.Hbonds>
donor molecule, donor type, donor heavy atom, donor atom, acceptor molecule, acceptor atom, score
      L1  H     3    50       P1  8028  0.86
      L1  H    12    37       P1  7948  0.90
      L1  H    15    38       P1  7948  0.88

> <Gold.Chemscore.Hbond.Weighted>
-9.4827

> <Gold.Chemscore.Metal.Weighted>
-0.0000

> <Gold.Chemscore.Lipo.Weighted>
-9.5960

> <Gold.Chemscore.Internal_Hbond.Weighted>
0.0000

> <Gold.Chemscore.DEClash.Weighted>
0.2240

> <Gold.Chemscore.DEInternal.Weighted>
1.3660

> <Gold.Chemscore.Rot.Weighted>
3.8547

> <Gold.Chemscore.Internal.Correction.Weighted>
   9.000000E+99

> <Gold.Protein.RotatedTorsions>
[ 6907 6896 6895 6894 ] final   76.36 input  -60.11 | X-H torsion
[ 7974 7965 7964 7962 ] final  125.00 input  175.53 | X-H torsion
[ 8008 7997 7996 7995 ] final   -1.45 input   59.86 | X-H torsion
[ 10167 10162 10161 10158 ] final   81.05 input  -65.29 | X-H torsion
[ 10718 10713 10712 10709 ] final   53.92 input   66.30 | X-H torsion
[ 10763 10752 10751 10750 ] final  -85.70 input  -60.55 | X-H torsion
[ 11005 11000 10999 10996 ] final    3.78 input  -57.11 | X-H torsion

> <Gold.Protein.ActiveResidues>
 VAL166  LYS551  ARG553  GLY616  TRP617  ASP618  TYR619  PRO620  LYS621  CYS622 
 ASP623  PHE694  ASN695  SER759  ASP760  ASP761  ALA762  ILE779  LEU786  VAL792 
 PHE793  MET794  SER795  GLU796  ALA797  LYS798  CYS799  TRP800  GLU811  SER814 

> <Gold.Protein.RotatedAtoms>
  152.5069  134.3981  159.9406 H   0  0  0  0  0  0  0  0  0  0  0  0  # atno 6907 bound_to 6896
  151.3943  133.3772  159.2732 H   0  0  0  0  0  0  0  0  0  0  0  0  # atno 6908 bound_to 6896
  150.9409  134.8839  159.7670 H   0  0  0  0  0  0  0  0  0  0  0  0  # atno 6909 bound_to 6896
  145.0780  139.3679  143.4924 H   0  0  0  0  0  0  0  0  0  0  0  0  # atno 7974 bound_to 7965
  154.6466  140.2559  155.7261 H   0  0  0  0  0  0  0  0  0  0  0  0  # atno 8008 bound_to 7997
  156.2555  140.2876  156.0803 H   0  0  0  0  0  0  0  0  0  0  0  0  # atno 8009 bound_to 7997
  155.1514  140.0382  157.2812 H   0  0  0  0  0  0  0  0  0  0  0  0  # atno 8010 bound_to 7997
  139.9433  144.6075  150.8230 H   0  0  0  0  0  0  0  0  0  0  0  0  # atno 10167 bound_to 10162
  157.5210  130.8565  149.8559 H   0  0  0  0  0  0  0  0  0  0  0  0  # atno 10718 bound_to 10713
  154.6140  135.5476  153.7504 H   0  0  0  0  0  0  0  0  0  0  0  0  # atno 10763 bound_to 10752
  153.0208  135.6396  154.1537 H   0  0  0  0  0  0  0  0  0  0  0  0  # atno 10764 bound_to 10752
  154.1473  135.2905  155.3125 H   0  0  0  0  0  0  0  0  0  0  0  0  # atno 10765 bound_to 10752
  140.5893  133.9939  155.8081 H   0  0  0  0  0  0  0  0  0  0  0  0  # atno 11005 bound_to 11000
  146.3530  140.0556  142.8633 LP  0  0  0  0  0  0  0  0  0  0  0  0  # atno 17320 bound_to 7965
  145.1213  140.9464  143.4599 LP  0  0  0  0  0  0  0  0  0  0  0  0  # atno 17321 bound_to 7965
  140.7604  143.3151  151.2752 LP  0  0  0  0  0  0  0  0  0  0  0  0  # atno 17342 bound_to 10162
  139.6687  144.0059  152.2739 LP  0  0  0  0  0  0  0  0  0  0  0  0  # atno 17343 bound_to 10162
  156.0353  130.3753  150.1576 LP  0  0  0  0  0  0  0  0  0  0  0  0  # atno 17370 bound_to 10713
  156.9764  130.9850  151.3447 LP  0  0  0  0  0  0  0  0  0  0  0  0  # atno 17371 bound_to 10713
  141.0945  133.9864  157.3182 LP  0  0  0  0  0  0  0  0  0  0  0  0  # atno 17394 bound_to 11000
  139.9281  135.0201  156.8307 LP  0  0  0  0  0  0  0  0  0  0  0  0  # atno 17395 bound_to 11000

$$$$
