AV-unprocessed.smi:194|AV-procd|sdf|1523|dock1
  -GOLD-   2262019363D 1   1.00000     0.00000
 Structure written by MMmdl.
 53 55  0  0  0  0  0  0  0  0  1 V2000
  153.4973  141.4745  160.2380 C   0  0  0  0  0  0  0  0  0  0  0  0
  153.0433  140.7463  158.9508 C   0  0  1  0  0  0  0  0  0  0  0  0
  152.5499  139.3174  159.2826 C   0  0  0  0  0  0  0  0  0  0  0  0
  153.9889  138.1493  159.4390 S   0  0  2  0  0  0  0  0  0  0  0  0
  153.9178  137.9757  161.2831 C   0  0  0  0  0  0  0  0  0  0  0  0
  155.2580  138.9437  159.1250 O   0  0  0  0  0  0  0  0  0  0  0  0
  152.0635  141.5119  158.1627 N   0  0  0  0  0  0  0  0  0  0  0  0
  150.9438  142.1112  158.8829 C   0  0  0  0  0  0  0  0  0  0  0  0
  151.6222  140.9157  157.0325 C   0  0  0  0  0  0  0  0  0  0  0  0
  152.4072  139.9538  156.4888 N   0  0  0  0  0  0  0  0  0  0  0  0
  152.0174  139.3267  155.3749 C   0  0  0  0  0  0  0  0  0  0  0  0
  150.9054  139.5094  154.6590 N   0  0  0  0  0  0  0  0  0  0  0  0
  150.1212  140.4876  155.1968 C   0  0  0  0  0  0  0  0  0  0  0  0
  150.4007  141.2347  156.3752 C   0  0  0  0  0  0  0  0  0  0  0  0
  149.3718  142.1342  156.6235 N   0  0  0  0  0  0  0  0  0  0  0  0
  148.5263  141.9233  155.6522 C   0  0  0  0  0  0  0  0  0  0  0  0
  148.9044  140.9647  154.7384 N   0  0  0  0  0  0  0  0  0  0  0  0
  148.1486  140.5286  153.5728 C   0  0  0  0  0  0  0  0  0  0  0  0
  147.2427  139.2761  153.7772 C   0  0  0  0  0  0  0  0  0  0  0  0
  146.6416  138.7970  152.4218 C   0  0  0  0  0  0  0  0  0  0  0  0
  147.6143  138.4442  151.4591 O   0  0  0  0  0  0  0  0  0  0  0  0
  148.0113  138.1405  154.5003 C   0  0  0  0  0  0  0  0  0  0  0  0
  147.0817  137.0235  155.0036 C   0  0  0  0  0  0  0  0  0  0  0  0
  146.1127  137.5696  155.8887 O   0  0  0  0  0  0  0  0  0  0  0  0
  145.2634  138.5202  155.2597 C   0  0  0  0  0  0  0  0  0  0  0  0
  146.0910  139.7046  154.7226 C   0  0  0  0  0  0  0  0  0  0  0  0
  154.1645  140.8453  160.8277 H   0  0  0  0  0  0  0  0  0  0  0  0
  152.6513  141.7449  160.8703 H   0  0  0  0  0  0  0  0  0  0  0  0
  154.0465  142.3898  160.0169 H   0  0  0  0  0  0  0  0  0  0  0  0
  153.9273  140.6242  158.3245 H   0  0  0  0  0  0  0  0  0  0  0  0
  151.9620  139.2964  160.1998 H   0  0  0  0  0  0  0  0  0  0  0  0
  151.8941  138.9604  158.4880 H   0  0  0  0  0  0  0  0  0  0  0  0
  152.9498  137.5815  161.5925 H   0  0  0  0  0  0  0  0  0  0  0  0
  154.0704  138.9427  161.7627 H   0  0  0  0  0  0  0  0  0  0  0  0
  154.6948  137.2927  161.6259 H   0  0  0  0  0  0  0  0  0  0  0  0
  150.1730  142.4770  158.2023 H   0  0  0  0  0  0  0  0  0  0  0  0
  151.2802  142.9626  159.4738 H   0  0  0  0  0  0  0  0  0  0  0  0
  150.4857  141.3868  159.5571 H   0  0  0  0  0  0  0  0  0  0  0  0
  152.6928  138.5698  155.0044 H   0  0  0  0  0  0  0  0  0  0  0  0
  147.6006  142.4737  155.5676 H   0  0  0  0  0  0  0  0  0  0  0  0
  147.5456  141.3768  153.2453 H   0  0  0  0  0  0  0  0  0  0  0  0
  148.8577  140.3449  152.7645 H   0  0  0  0  0  0  0  0  0  0  0  0
  146.0105  137.9200  152.5525 H   0  0  0  0  0  0  0  0  0  0  0  0
  145.9990  139.5698  151.9989 H   0  0  0  0  0  0  0  0  0  0  0  0
  148.3919  138.9581  151.6146 H   0  0  0  0  0  0  0  0  0  0  0  0
  148.7836  137.7144  153.8600 H   0  0  0  0  0  0  0  0  0  0  0  0
  148.5342  138.5544  155.3630 H   0  0  0  0  0  0  0  0  0  0  0  0
  146.5939  136.5050  154.1773 H   0  0  0  0  0  0  0  0  0  0  0  0
  147.6614  136.2750  155.5438 H   0  0  0  0  0  0  0  0  0  0  0  0
  144.6810  138.0407  154.4732 H   0  0  0  0  0  0  0  0  0  0  0  0
  144.5441  138.8793  155.9961 H   0  0  0  0  0  0  0  0  0  0  0  0
  146.5040  140.2331  155.5831 H   0  0  0  0  0  0  0  0  0  0  0  0
  145.4340  140.4168  154.2221 H   0  0  0  0  0  0  0  0  0  0  0  0
  1  2  1  0  0  0  0
  1 27  1  0  0  0  0
  1 28  1  0  0  0  0
  1 29  1  0  0  0  0
  2  3  1  0  0  0  0
  2  7  1  0  0  0  0
  2 30  1  0  0  0  0
  3  4  1  0  0  0  0
  3 31  1  0  0  0  0
  3 32  1  0  0  0  0
  4  5  1  0  0  0  0
  4  6  2  0  0  0  0
  5 33  1  0  0  0  0
  5 34  1  0  0  0  0
  5 35  1  0  0  0  0
  7  8  1  0  0  0  0
  7  9  1  0  0  0  0
  8 36  1  0  0  0  0
  8 37  1  0  0  0  0
  8 38  1  0  0  0  0
  9 14  1  0  0  0  0
  9 10  2  0  0  0  0
 10 11  1  0  0  0  0
 11 12  2  0  0  0  0
 11 39  1  0  0  0  0
 12 13  1  0  0  0  0
 13 17  1  0  0  0  0
 13 14  2  0  0  0  0
 14 15  1  0  0  0  0
 15 16  2  0  0  0  0
 16 17  1  0  0  0  0
 16 40  1  0  0  0  0
 17 18  1  0  0  0  0
 18 19  1  0  0  0  0
 18 41  1  0  0  0  0
 18 42  1  0  0  0  0
 19 26  1  0  0  0  0
 19 20  1  0  0  0  0
 19 22  1  0  0  0  0
 20 21  1  0  0  0  0
 20 43  1  0  0  0  0
 20 44  1  0  0  0  0
 21 45  1  0  0  0  0
 22 23  1  0  0  0  0
 22 46  1  0  0  0  0
 22 47  1  0  0  0  0
 23 24  1  0  0  0  0
 23 48  1  0  0  0  0
 23 49  1  0  0  0  0
 24 25  1  0  0  0  0
 25 26  1  0  0  0  0
 25 50  1  0  0  0  0
 25 51  1  0  0  0  0
 26 52  1  0  0  0  0
 26 53  1  0  0  0  0
M  END
> <s_m_source_file>
AV-unprocessed.smi

> <i_m_source_file_index>
194

> <i_lp_mmshare_version>
43012

> <i_f3d_flags>
0

> <s_epik_input>
W0NIM11bU0BAXSg9TylbQ0gyXVtDQEBIXShbQ0gzXSlOKFtDSDNdKWMobltjSF1uMSljKGMxMiluW2NIXW4yW0NIMl1DMyhbQ0gyXVtPSF0pW0NIMl1bQ0gyXU9bQ0gyXVtDSDJdMw==

> <s_epik_cmdline>
J2VwaWtfcHl0aG9uJywgJy1waCcsICc3LjAnLCAnLXRuJywgJzgnLCAnLW1hJywgJzIwMCcsICctbWV0YWxfYmluZGluZycsICctaW1hZScsICc8aW5maWxlLm1hZT4nLCAnLW9tYWUnLCAnPG91dGZpbGUubWFlPic=

> <r_lp_tautomer_probability>
1

> <r_epik_Ionization_Penalty>
0.00101625

> <r_epik_Ionization_Penalty_Charging>
0

> <r_epik_Ionization_Penalty_Neutral>
0.00101625

> <r_epik_State_Penalty>
0.000568005

> <r_epik_Charging_Adjusted_Penalty>
0.000568005

> <i_epik_Tot_Q>
0

> <i_epik_Tot_abs_Q>
0

> <r_epik_Metal_State_Penalty>
-0

> <b_epik_Metal_Only>
0

> <s_lp_Force_Field>
OPLS_2005

> <r_lp_Energy>
31.3732

> <b_lp_Chiralities_Consistent>
1

> <s_lp_Variant>
AV-unprocessed.smi:194-4

> <Gold.Version>
5.8.1

> <Gold.Id.Protein>
6NUR|6NUR_protein|mol2

> <Gold.PLP.Fitness>
44.4635

> <Gold.PLP.PLP>
-35.0501

> <Gold.PLP.part.hbond>
-5.6510

> <Gold.PLP.part.metal>
0.0000

> <Gold.PLP.part.buried>
3.0166

> <Gold.PLP.part.nonpolar>
-31.5063

> <Gold.PLP.part.repulsive>
1.8460

> <Gold.PLP.ligand.clash>
1.3928

> <Gold.PLP.ligand.torsion>
1.5734

> <Gold.PLP.Chemscore.Hbond>
4.2560

> <Gold.PLP.Chemscore.CHOScore>
0.1667

> <Gold.PLP.Chemscore.Metal>
0.0000

> <Gold.Chemscore.Hbonds>
donor molecule, donor type, donor heavy atom, donor atom, acceptor molecule, acceptor atom, score
      L1  H    21    45       P1  7957  1.00
      P1  H  7954  7966       L1    21  0.65
      P1  H  7989  7998       L1    12  0.32
      P1  H  7997  8009       L1     6  0.69
      P1  H  7997  8010       L1    10  1.00
      L1  C    16    40       P1  8028  0.22

> <Gold.PLP.Chemscore.Internal.Correction>
0.6849

> <Gold.Rescore>
     Score         DG    S(hbond)    S(metal)    S(lipo)     H(rot)  DE(clash)    DE(int)     intcor
      5.64     -11.39       2.01        0.00      65.45       3.31       0.86       4.89       ----

> <Gold.Chemscore.Fitness>
5.6362

> <Gold.Chemscore.DG>
-11.3943

> <Gold.Chemscore.ZeroCoef>
-5.4800

> <Gold.Chemscore.Hbond>
2.0150

> <Gold.Chemscore.Metal>
0.0000

> <Gold.Chemscore.Lipo>
65.4468

> <Gold.Chemscore.Internal_Hbond>
0.0000

> <Gold.Chemscore.DEClash>
0.8643

> <Gold.Chemscore.DEInternal>
4.8937

> <Gold.Chemscore.Rot>
3.3098

> <Gold.Chemscore.Internal.Correction>
   9.000000E+99

> <Gold.Chemscore.Hbonds>
donor molecule, donor type, donor heavy atom, donor atom, acceptor molecule, acceptor atom, score
      L1  H    21    45       P1  7957  0.71
      P1  H  7954  7966       L1    21  0.05
      P1  H  7997  8009       L1     6  0.65
      P1  H  7997  8010       L1    10  0.33

> <Gold.Chemscore.Hbond.Weighted>
-6.7300

> <Gold.Chemscore.Metal.Weighted>
-0.0000

> <Gold.Chemscore.Lipo.Weighted>
-7.6573

> <Gold.Chemscore.Internal_Hbond.Weighted>
0.0000

> <Gold.Chemscore.DEClash.Weighted>
0.8643

> <Gold.Chemscore.DEInternal.Weighted>
4.8937

> <Gold.Chemscore.Rot.Weighted>
8.4730

> <Gold.Chemscore.Internal.Correction.Weighted>
   9.000000E+99

> <Gold.Protein.RotatedTorsions>
[ 6907 6896 6895 6894 ] final  -73.92 input  -60.11 | X-H torsion
[ 7974 7965 7964 7962 ] final -143.47 input  175.53 | X-H torsion
[ 8008 7997 7996 7995 ] final   87.13 input   59.86 | X-H torsion
[ 10167 10162 10161 10158 ] final  177.00 input  -65.29 | X-H torsion
[ 10718 10713 10712 10709 ] final -168.85 input   66.30 | X-H torsion
[ 10763 10752 10751 10750 ] final  134.14 input  -60.55 | X-H torsion
[ 11005 11000 10999 10996 ] final  -52.40 input  -57.11 | X-H torsion

> <Gold.Protein.ActiveResidues>
 VAL166  LYS551  ARG553  GLY616  TRP617  ASP618  TYR619  PRO620  LYS621  CYS622 
 ASP623  PHE694  ASN695  SER759  ASP760  ASP761  ALA762  ILE779  LEU786  VAL792 
 PHE793  MET794  SER795  GLU796  ALA797  LYS798  CYS799  TRP800  GLU811  SER814 

> <Gold.Protein.RotatedAtoms>
  150.7112  134.4946  159.5531 H   0  0  0  0  0  0  0  0  0  0  0  0  # atno 6907 bound_to 6896
  152.2556  134.8084  160.0448 H   0  0  0  0  0  0  0  0  0  0  0  0  # atno 6908 bound_to 6896
  151.8816  133.3461  159.3805 H   0  0  0  0  0  0  0  0  0  0  0  0  # atno 6909 bound_to 6896
  144.8367  140.5831  143.5479 H   0  0  0  0  0  0  0  0  0  0  0  0  # atno 7974 bound_to 7965
  155.9715  140.3385  155.6580 H   0  0  0  0  0  0  0  0  0  0  0  0  # atno 8008 bound_to 7997
  155.6669  140.0722  157.2552 H   0  0  0  0  0  0  0  0  0  0  0  0  # atno 8009 bound_to 7997
  154.4167  140.1698  156.1824 H   0  0  0  0  0  0  0  0  0  0  0  0  # atno 8010 bound_to 7997
  139.5236  144.2850  152.0514 H   0  0  0  0  0  0  0  0  0  0  0  0  # atno 10167 bound_to 10162
  156.7030  130.9204  151.3082 H   0  0  0  0  0  0  0  0  0  0  0  0  # atno 10718 bound_to 10713
  153.8187  135.3119  155.3408 H   0  0  0  0  0  0  0  0  0  0  0  0  # atno 10763 bound_to 10752
  154.8022  135.4720  154.0306 H   0  0  0  0  0  0  0  0  0  0  0  0  # atno 10764 bound_to 10752
  153.1707  135.6877  153.8701 H   0  0  0  0  0  0  0  0  0  0  0  0  # atno 10765 bound_to 10752
  141.0922  133.6630  156.4019 H   0  0  0  0  0  0  0  0  0  0  0  0  # atno 11005 bound_to 11000
  145.4779  139.1498  143.3778 LP  0  0  0  0  0  0  0  0  0  0  0  0  # atno 17320 bound_to 7965
  146.2665  140.4914  142.8832 LP  0  0  0  0  0  0  0  0  0  0  0  0  # atno 17321 bound_to 7965
  140.2303  144.4375  150.6303 LP  0  0  0  0  0  0  0  0  0  0  0  0  # atno 17342 bound_to 10162
  140.6359  143.2195  151.6395 LP  0  0  0  0  0  0  0  0  0  0  0  0  # atno 17343 bound_to 10162
  157.6966  130.9288  150.0661 LP  0  0  0  0  0  0  0  0  0  0  0  0  # atno 17370 bound_to 10713
  156.1715  130.3646  149.9159 LP  0  0  0  0  0  0  0  0  0  0  0  0  # atno 17371 bound_to 10713
  140.5224  134.6291  157.5323 LP  0  0  0  0  0  0  0  0  0  0  0  0  # atno 17394 bound_to 11000
  139.9751  134.7229  155.9966 LP  0  0  0  0  0  0  0  0  0  0  0  0  # atno 17395 bound_to 11000

$$$$
