AV-unprocessed.smi:287|AV-procd|sdf|2189|dock7
  -GOLD-   2262021583D 1   1.00000     0.00000
 Structure written by MMmdl.
 55 58  0  0  0  0  0  0  0  0  1 V2000
  153.3109  142.9469  162.4942 C   0  0  0  0  0  0  0  0  0  0  0  0
  152.7443  142.7192  161.1350 C   0  0  0  0  0  0  0  0  0  0  0  0
  151.8617  143.4053  160.3529 C   0  0  0  0  0  0  0  0  0  0  0  0
  151.7016  142.6677  159.1419 C   0  0  0  0  0  0  0  0  0  0  0  0
  150.8009  143.0514  157.9751 C   0  0  1  0  0  0  0  0  0  0  0  0
  149.3269  142.8639  158.3710 C   0  0  0  0  0  0  0  0  0  0  0  0
  150.9214  144.4132  157.6117 O   0  0  0  0  0  0  0  0  0  0  0  0
  151.1151  142.2394  156.6970 C   0  0  0  0  0  0  0  0  0  0  0  0
  150.0374  142.2877  155.7137 N   0  0  0  0  0  0  0  0  0  0  0  0
  149.6420  141.1609  155.0860 C   0  0  0  0  0  0  0  0  0  0  0  0
  150.5433  140.2175  154.7102 N   0  0  0  0  0  0  0  0  0  0  0  0
  150.1271  139.1121  154.0878 C   0  0  0  0  0  0  0  0  0  0  0  0
  148.8838  138.7637  153.7511 N   0  0  0  0  0  0  0  0  0  0  0  0
  147.9686  139.7059  154.1240 C   0  0  0  0  0  0  0  0  0  0  0  0
  148.2735  140.9241  154.7962 C   0  0  0  0  0  0  0  0  0  0  0  0
  147.1096  141.6416  155.0273 N   0  0  0  0  0  0  0  0  0  0  0  0
  146.1722  140.8872  154.5230 C   0  0  0  0  0  0  0  0  0  0  0  0
  146.5941  139.7096  153.9437 N   0  0  0  0  0  0  0  0  0  0  0  0
  145.7031  138.6689  153.3207 C   0  0  2  0  0  0  0  0  0  0  0  0
  144.9575  138.0671  154.3304 O   0  0  0  0  0  0  0  0  0  0  0  0
  145.5702  136.8452  154.7073 C   0  0  1  0  0  0  0  0  0  0  0  0
  144.5496  135.9202  155.3940 C   0  0  0  0  0  0  0  0  0  0  0  0
  145.0994  134.6534  155.6940 O   0  0  0  0  0  0  0  0  0  0  0  0
  146.2427  136.3104  153.4312 C   0  0  2  0  0  0  0  0  0  0  0  0
  147.4703  135.6890  153.7548 O   0  0  0  0  0  0  0  0  0  0  0  0
  146.4742  137.5612  152.5748 C   0  0  1  0  0  0  0  0  0  0  0  0
  145.9467  137.3650  151.2782 O   0  0  0  0  0  0  0  0  0  0  0  0
  152.5300  141.5800  159.2822 C   0  0  0  0  0  0  0  0  0  0  0  0
  152.8692  140.4141  158.4131 C   0  0  0  0  0  0  0  0  0  0  0  0
  153.1625  141.6022  160.4888 O   0  0  0  0  0  0  0  0  0  0  0  0
  145.0484  139.2489  152.6685 H   0  0  0  0  0  0  0  0  0  0  0  0
  146.3281  137.1038  155.4465 H   0  0  0  0  0  0  0  0  0  0  0  0
  145.6049  135.5962  152.9096 H   0  0  0  0  0  0  0  0  0  0  0  0
  147.5261  137.8275  152.4713 H   0  0  0  0  0  0  0  0  0  0  0  0
  152.8580  143.8206  162.9631 H   0  0  0  0  0  0  0  0  0  0  0  0
  154.3873  143.1107  162.4417 H   0  0  0  0  0  0  0  0  0  0  0  0
  153.1289  142.0864  163.1382 H   0  0  0  0  0  0  0  0  0  0  0  0
  151.3751  144.3309  160.6227 H   0  0  0  0  0  0  0  0  0  0  0  0
  149.1184  141.8273  158.6384 H   0  0  0  0  0  0  0  0  0  0  0  0
  148.6556  143.1313  157.5541 H   0  0  0  0  0  0  0  0  0  0  0  0
  149.0649  143.4825  159.2305 H   0  0  0  0  0  0  0  0  0  0  0  0
  150.5100  144.5357  156.7699 H   0  0  0  0  0  0  0  0  0  0  0  0
  151.9994  142.6699  156.2246 H   0  0  0  0  0  0  0  0  0  0  0  0
  151.3641  141.2051  156.9401 H   0  0  0  0  0  0  0  0  0  0  0  0
  149.7192  143.2107  155.4531 H   0  0  0  0  0  0  0  0  0  0  0  0
  150.9002  138.4074  153.8190 H   0  0  0  0  0  0  0  0  0  0  0  0
  145.1314  141.1753  154.5591 H   0  0  0  0  0  0  0  0  0  0  0  0
  144.2170  136.3717  156.3287 H   0  0  0  0  0  0  0  0  0  0  0  0
  143.6660  135.7942  154.7682 H   0  0  0  0  0  0  0  0  0  0  0  0
  144.5986  133.9933  155.2395 H   0  0  0  0  0  0  0  0  0  0  0  0
  148.0495  135.7693  153.0115 H   0  0  0  0  0  0  0  0  0  0  0  0
  145.3773  138.0915  151.0742 H   0  0  0  0  0  0  0  0  0  0  0  0
  153.2002  140.7483  157.4295 H   0  0  0  0  0  0  0  0  0  0  0  0
  152.0015  139.7679  158.2785 H   0  0  0  0  0  0  0  0  0  0  0  0
  153.6694  139.8153  158.8494 H   0  0  0  0  0  0  0  0  0  0  0  0
  1  2  1  0  0  0  0
  1 35  1  0  0  0  0
  1 36  1  0  0  0  0
  1 37  1  0  0  0  0
  2 30  1  0  0  0  0
  2  3  2  0  0  0  0
  3  4  1  0  0  0  0
  3 38  1  0  0  0  0
  4  5  1  0  0  0  0
  4 28  2  0  0  0  0
  5  6  1  0  0  0  0
  5  7  1  0  0  0  0
  5  8  1  0  0  0  0
  6 39  1  0  0  0  0
  6 40  1  0  0  0  0
  6 41  1  0  0  0  0
  7 42  1  0  0  0  0
  8  9  1  0  0  0  0
  8 43  1  0  0  0  0
  8 44  1  0  0  0  0
  9 10  1  0  0  0  0
  9 45  1  0  0  0  0
 10 15  1  0  0  0  0
 10 11  2  0  0  0  0
 11 12  1  0  0  0  0
 12 13  2  0  0  0  0
 12 46  1  0  0  0  0
 13 14  1  0  0  0  0
 14 18  1  0  0  0  0
 14 15  2  0  0  0  0
 15 16  1  0  0  0  0
 16 17  2  0  0  0  0
 17 18  1  0  0  0  0
 17 47  1  0  0  0  0
 18 19  1  0  0  0  0
 19 31  1  0  0  0  0
 19 26  1  0  0  0  0
 19 20  1  0  0  0  0
 20 21  1  0  0  0  0
 21 32  1  0  0  0  0
 21 22  1  0  0  0  0
 21 24  1  0  0  0  0
 22 23  1  0  0  0  0
 22 48  1  0  0  0  0
 22 49  1  0  0  0  0
 23 50  1  0  0  0  0
 24 33  1  0  0  0  0
 24 25  1  0  0  0  0
 24 26  1  0  0  0  0
 25 51  1  0  0  0  0
 26 34  1  0  0  0  0
 26 27  1  0  0  0  0
 27 52  1  0  0  0  0
 28 29  1  0  0  0  0
 28 30  1  0  0  0  0
 29 53  1  0  0  0  0
 29 54  1  0  0  0  0
 29 55  1  0  0  0  0
M  END
> <s_m_source_file>
AV-unprocessed.smi

> <i_m_source_file_index>
287

> <i_lp_mmshare_version>
43012

> <i_f3d_flags>
0

> <s_epik_input>
W0NIM11jMVtjSF1jKGMobzEpW0NIM10pW0NAQF0oW0NIM10pKFtPSF0pW0NIMl1bTkhdYyhuW2NIXW4yKWMoYzIzKW5bY0hdbjNbQ0BASF00T1tDQEhdKFtDSDJdW09IXSlbQ0BASF0oW09IXSlbQ0BIXTRbT0hd

> <s_epik_cmdline>
J2VwaWtfcHl0aG9uJywgJy1waCcsICc3LjAnLCAnLXRuJywgJzgnLCAnLW1hJywgJzIwMCcsICctbWV0YWxfYmluZGluZycsICctaW1hZScsICc8aW5maWxlLm1hZT4nLCAnLW9tYWUnLCAnPG91dGZpbGUubWFlPic=

> <r_lp_tautomer_probability>
1

> <r_epik_Ionization_Penalty>
0.000992612

> <r_epik_Ionization_Penalty_Charging>
0

> <r_epik_Ionization_Penalty_Neutral>
0.000992612

> <r_epik_State_Penalty>
-0

> <r_epik_Charging_Adjusted_Penalty>
0

> <i_epik_Tot_Q>
0

> <i_epik_Tot_abs_Q>
0

> <r_epik_Metal_State_Penalty>
-0

> <b_epik_Metal_Only>
0

> <s_epik_Chemistry_Notes>
This compound contains an acetal/aminal-like group ( X-CH(R)-Y where X, Y are N, S, or O) that may be acid/base labile, releasing an aldehyde.

> <s_lp_Force_Field>
OPLS_2005

> <r_lp_Energy>
40.6201

> <b_lp_Chiralities_Consistent>
1

> <s_lp_Variant>
AV-unprocessed.smi:287-13

> <Gold.Version>
5.8.1

> <Gold.Id.Protein>
6NUR|6NUR_protein|mol2

> <Gold.PLP.Fitness>
54.8063

> <Gold.PLP.PLP>
-40.5060

> <Gold.PLP.part.hbond>
-5.4695

> <Gold.PLP.part.metal>
0.0000

> <Gold.PLP.part.buried>
-2.6341

> <Gold.PLP.part.nonpolar>
-34.2474

> <Gold.PLP.part.repulsive>
1.3015

> <Gold.PLP.ligand.clash>
0.0000

> <Gold.PLP.ligand.torsion>
1.2238

> <Gold.PLP.Chemscore.Hbond>
4.8028

> <Gold.PLP.Chemscore.CHOScore>
0.7400

> <Gold.PLP.Chemscore.Metal>
0.0000

> <Gold.Chemscore.Hbonds>
donor molecule, donor type, donor heavy atom, donor atom, acceptor molecule, acceptor atom, score
      L1  H     7    42       P1  8028  1.00
      L1  H     9    45       P1  8028  1.00
      L1  H    25    51       P1  7948  0.99
      L1  H    27    52       P1 10171  0.82
      P1  H  7989  7998       L1    11  1.00
      L1  C    17    47       P1 10175  0.58

> <Gold.PLP.Chemscore.Internal.Correction>
0.1198

> <Gold.Rescore>
     Score         DG    S(hbond)    S(metal)    S(lipo)     H(rot)  DE(clash)    DE(int)     intcor
     12.21     -16.14       3.98        0.00      92.76       5.27       0.61       3.32       ----

> <Gold.Chemscore.Fitness>
12.2124

> <Gold.Chemscore.DG>
-16.1432

> <Gold.Chemscore.ZeroCoef>
-5.4800

> <Gold.Chemscore.Hbond>
3.9802

> <Gold.Chemscore.Metal>
0.0000

> <Gold.Chemscore.Lipo>
92.7631

> <Gold.Chemscore.Internal_Hbond>
0.0000

> <Gold.Chemscore.DEClash>
0.6089

> <Gold.Chemscore.DEInternal>
3.3220

> <Gold.Chemscore.Rot>
5.2672

> <Gold.Chemscore.Internal.Correction>
   9.000000E+99

> <Gold.Chemscore.Hbonds>
donor molecule, donor type, donor heavy atom, donor atom, acceptor molecule, acceptor atom, score
      L1  H     7    42       P1  8028  0.88
      L1  H     9    45       P1  8028  0.99
      L1  H    25    51       P1  7948  0.92
      L1  H    27    52       P1 10171  0.77
      P1  H  7989  7998       L1    11  0.19

> <Gold.Chemscore.Hbond.Weighted>
-13.2938

> <Gold.Chemscore.Metal.Weighted>
-0.0000

> <Gold.Chemscore.Lipo.Weighted>
-10.8533

> <Gold.Chemscore.Internal_Hbond.Weighted>
0.0000

> <Gold.Chemscore.DEClash.Weighted>
0.6089

> <Gold.Chemscore.DEInternal.Weighted>
3.3220

> <Gold.Chemscore.Rot.Weighted>
13.4839

> <Gold.Chemscore.Internal.Correction.Weighted>
   9.000000E+99

> <Gold.Protein.RotatedTorsions>
[ 6907 6896 6895 6894 ] final  -86.58 input  -60.11 | X-H torsion
[ 7974 7965 7964 7962 ] final   64.12 input  175.53 | X-H torsion
[ 8008 7997 7996 7995 ] final   47.03 input   59.86 | X-H torsion
[ 10167 10162 10161 10158 ] final  -47.41 input  -65.29 | X-H torsion
[ 10718 10713 10712 10709 ] final  155.89 input   66.30 | X-H torsion
[ 10763 10752 10751 10750 ] final -157.56 input  -60.55 | X-H torsion
[ 11005 11000 10999 10996 ] final   32.74 input  -57.11 | X-H torsion

> <Gold.Protein.ActiveResidues>
 VAL166  LYS551  ARG553  GLY616  TRP617  ASP618  TYR619  PRO620  LYS621  CYS622 
 ASP623  PHE694  ASN695  SER759  ASP760  ASP761  ALA762  ILE779  LEU786  VAL792 
 PHE793  MET794  SER795  GLU796  ALA797  LYS798  CYS799  TRP800  GLU811  SER814 

> <Gold.Protein.RotatedAtoms>
  150.6867  134.3028  159.4713 H   0  0  0  0  0  0  0  0  0  0  0  0  # atno 6907 bound_to 6896
  152.0922  134.9397  160.0581 H   0  0  0  0  0  0  0  0  0  0  0  0  # atno 6908 bound_to 6896
  152.0708  133.4071  159.4495 H   0  0  0  0  0  0  0  0  0  0  0  0  # atno 6909 bound_to 6896
  145.8539  139.3271  143.0859 H   0  0  0  0  0  0  0  0  0  0  0  0  # atno 7974 bound_to 7965
  155.3624  140.3419  155.4241 H   0  0  0  0  0  0  0  0  0  0  0  0  # atno 8008 bound_to 7997
  156.1707  140.1631  156.8487 H   0  0  0  0  0  0  0  0  0  0  0  0  # atno 8009 bound_to 7997
  154.5230  140.0762  156.8189 H   0  0  0  0  0  0  0  0  0  0  0  0  # atno 8010 bound_to 7997
  140.6776  143.2785  151.3923 H   0  0  0  0  0  0  0  0  0  0  0  0  # atno 10167 bound_to 10162
  157.2122  131.0700  151.1962 H   0  0  0  0  0  0  0  0  0  0  0  0  # atno 10718 bound_to 10713
  154.7626  135.3122  154.8349 H   0  0  0  0  0  0  0  0  0  0  0  0  # atno 10763 bound_to 10752
  153.9105  135.6806  153.4755 H   0  0  0  0  0  0  0  0  0  0  0  0  # atno 10764 bound_to 10752
  153.1228  135.4815  154.9155 H   0  0  0  0  0  0  0  0  0  0  0  0  # atno 10765 bound_to 10752
  140.2703  134.3089  155.7830 H   0  0  0  0  0  0  0  0  0  0  0  0  # atno 11005 bound_to 11000
  145.9326  140.9038  143.0348 LP  0  0  0  0  0  0  0  0  0  0  0  0  # atno 17320 bound_to 7965
  144.6728  140.1439  143.7435 LP  0  0  0  0  0  0  0  0  0  0  0  0  # atno 17321 bound_to 7965
  139.6078  144.1162  152.2267 LP  0  0  0  0  0  0  0  0  0  0  0  0  # atno 17342 bound_to 10162
  140.0566  144.5890  150.7295 LP  0  0  0  0  0  0  0  0  0  0  0  0  # atno 17343 bound_to 10162
  157.3660  130.7156  149.6533 LP  0  0  0  0  0  0  0  0  0  0  0  0  # atno 17370 bound_to 10713
  155.9689  130.4212  150.4458 LP  0  0  0  0  0  0  0  0  0  0  0  0  # atno 17371 bound_to 10713
  141.2178  133.7463  156.9325 LP  0  0  0  0  0  0  0  0  0  0  0  0  # atno 17394 bound_to 11000
  140.1379  134.9313  157.2427 LP  0  0  0  0  0  0  0  0  0  0  0  0  # atno 17395 bound_to 11000

$$$$
