AV-unprocessed.smi:153|AV-procd|sdf|1255|dock9
  -GOLD-   2262018493D 1   1.00000     0.00000
 Structure written by MMmdl.
 60 63  0  0  0  0  0  0  0  0  2 V2000
  152.0218  140.8716  159.0358 C   0  0  0  0  0  0  0  0  0  0  0  0
  151.6861  140.7037  157.5448 C   0  0  1  0  0  0  0  0  0  0  0  0
  152.7436  139.9655  156.9360 O   0  0  0  0  0  0  0  0  0  0  0  0
  152.2074  139.1372  155.9196 C   0  0  0  0  0  0  0  0  0  0  0  0
  150.9001  138.6695  156.5364 C   0  0  0  0  0  0  0  0  0  0  0  0
  150.3758  139.9370  157.2112 C   0  0  1  0  0  0  0  0  0  0  0  0
  149.6542  139.5581  158.3707 O   0  0  0  0  0  0  0  0  0  0  0  0
  149.4441  140.7923  156.3101 C   0  0  0  0  0  0  0  0  0  0  0  0
  148.5723  140.0175  155.4385 N   0  0  0  0  0  0  0  0  0  0  0  0
  148.8154  139.6785  154.1282 C   0  0  0  0  0  0  0  0  0  0  0  0
  147.8844  138.9650  153.5589 N   0  0  0  0  0  0  0  0  0  0  0  0
  146.9073  138.8163  154.5385 C   0  0  0  0  0  0  0  0  0  0  0  0
  145.6422  138.1533  154.6063 C   0  0  0  0  0  0  0  0  0  0  0  0
  145.0672  137.4456  153.5924 N   0  0  0  0  0  0  0  0  0  0  0  0
  143.6819  137.0058  153.7081 C   0  0  0  0  0  0  0  0  0  0  0  0
  145.6598  137.5067  152.2541 C   0  0  0  0  0  0  0  0  0  0  0  0
  145.1294  136.3993  151.3202 C   0  0  1  0  0  0  0  0  0  0  0  0
  145.4739  136.7336  149.9897 O   0  0  0  0  0  0  0  0  0  0  0  0
  145.7766  135.0361  151.6374 C   0  0  0  0  0  0  0  0  0  0  0  0
  145.4016  133.9802  150.6617 N   0  3  0  0  0  0  0  0  0  0  0  0
  146.0282  132.6732  150.9727 C   0  0  0  0  0  0  0  0  0  0  0  0
  145.6658  131.6333  149.8990 C   0  0  0  0  0  0  0  0  0  0  0  0
  144.2515  131.5174  149.8061 O   0  0  0  0  0  0  0  0  0  0  0  0
  143.6415  132.7437  149.4242 C   0  0  0  0  0  0  0  0  0  0  0  0
  143.9369  133.8211  150.4817 C   0  0  0  0  0  0  0  0  0  0  0  0
  144.9703  138.2356  155.7857 N   0  0  0  0  0  0  0  0  0  0  0  0
  145.4787  138.9091  156.8202 C   0  0  0  0  0  0  0  0  0  0  0  0
  146.6370  139.5623  156.8984 N   0  0  0  0  0  0  0  0  0  0  0  0
  147.3276  139.4848  155.7263 C   0  0  0  0  0  0  0  0  0  0  0  0
  151.2545  141.4495  159.5515 H   0  0  0  0  0  0  0  0  0  0  0  0
  152.9690  141.3963  159.1622 H   0  0  0  0  0  0  0  0  0  0  0  0
  152.1116  139.9055  159.5339 H   0  0  0  0  0  0  0  0  0  0  0  0
  151.6685  141.6913  157.0812 H   0  0  0  0  0  0  0  0  0  0  0  0
  152.0315  139.7219  155.0155 H   0  0  0  0  0  0  0  0  0  0  0  0
  152.8783  138.3131  155.6765 H   0  0  0  0  0  0  0  0  0  0  0  0
  150.2241  138.2210  155.8103 H   0  0  0  0  0  0  0  0  0  0  0  0
  151.1249  137.9049  157.2822 H   0  0  0  0  0  0  0  0  0  0  0  0
  149.5543  140.3173  158.9244 H   0  0  0  0  0  0  0  0  0  0  0  0
  148.8205  141.4422  156.9257 H   0  0  0  0  0  0  0  0  0  0  0  0
  150.0384  141.4552  155.6798 H   0  0  0  0  0  0  0  0  0  0  0  0
  149.7182  139.9661  153.6087 H   0  0  0  0  0  0  0  0  0  0  0  0
  143.5077  136.5150  154.6660 H   0  0  0  0  0  0  0  0  0  0  0  0
  143.4365  136.2870  152.9262 H   0  0  0  0  0  0  0  0  0  0  0  0
  142.9981  137.8497  153.6129 H   0  0  0  0  0  0  0  0  0  0  0  0
  145.5575  138.4928  151.7992 H   0  0  0  0  0  0  0  0  0  0  0  0
  146.7340  137.3717  152.3838 H   0  0  0  0  0  0  0  0  0  0  0  0
  144.0455  136.3332  151.4081 H   0  0  0  0  0  0  0  0  0  0  0  0
  144.9220  137.4478  149.7072 H   0  0  0  0  0  0  0  0  0  0  0  0
  146.8611  135.1603  151.6410 H   0  0  0  0  0  0  0  0  0  0  0  0
  145.5052  134.7070  152.6419 H   0  0  0  0  0  0  0  0  0  0  0  0
  147.1122  132.7831  151.0226 H   0  0  0  0  0  0  0  0  0  0  0  0
  145.6939  132.3309  151.9534 H   0  0  0  0  0  0  0  0  0  0  0  0
  146.0858  131.9091  148.9304 H   0  0  0  0  0  0  0  0  0  0  0  0
  146.0833  130.6613  150.1618 H   0  0  0  0  0  0  0  0  0  0  0  0
  144.0019  133.0532  148.4416 H   0  0  0  0  0  0  0  0  0  0  0  0
  142.5660  132.5905  149.3344 H   0  0  0  0  0  0  0  0  0  0  0  0
  143.4779  133.5441  151.4322 H   0  0  0  0  0  0  0  0  0  0  0  0
  143.4828  134.7606  150.1696 H   0  0  0  0  0  0  0  0  0  0  0  0
  144.8725  138.9227  157.7141 H   0  0  0  0  0  0  0  0  0  0  0  0
  145.7810  134.2716  149.7717 H   0  0  0  0  0  0  0  0  0  0  0  0
  1  2  1  0  0  0  0
  1 30  1  0  0  0  0
  1 31  1  0  0  0  0
  1 32  1  0  0  0  0
  2  6  1  0  0  0  0
  2  3  1  0  0  0  0
  2 33  1  0  0  0  0
  3  4  1  0  0  0  0
  4  5  1  0  0  0  0
  4 34  1  0  0  0  0
  4 35  1  0  0  0  0
  5  6  1  0  0  0  0
  5 36  1  0  0  0  0
  5 37  1  0  0  0  0
  6  7  1  0  0  0  0
  6  8  1  0  0  0  0
  7 38  1  0  0  0  0
  8  9  1  0  0  0  0
  8 39  1  0  0  0  0
  8 40  1  0  0  0  0
  9 29  1  0  0  0  0
  9 10  1  0  0  0  0
 10 11  2  0  0  0  0
 10 41  1  0  0  0  0
 11 12  1  0  0  0  0
 12 29  2  0  0  0  0
 12 13  1  0  0  0  0
 13 14  1  0  0  0  0
 13 26  2  0  0  0  0
 14 15  1  0  0  0  0
 14 16  1  0  0  0  0
 15 42  1  0  0  0  0
 15 43  1  0  0  0  0
 15 44  1  0  0  0  0
 16 17  1  0  0  0  0
 16 45  1  0  0  0  0
 16 46  1  0  0  0  0
 17 18  1  0  0  0  0
 17 19  1  0  0  0  0
 17 47  1  0  0  0  0
 18 48  1  0  0  0  0
 19 20  1  0  0  0  0
 19 49  1  0  0  0  0
 19 50  1  0  0  0  0
 20 25  1  0  0  0  0
 20 21  1  0  0  0  0
 20 60  1  0  0  0  0
 21 22  1  0  0  0  0
 21 51  1  0  0  0  0
 21 52  1  0  0  0  0
 22 23  1  0  0  0  0
 22 53  1  0  0  0  0
 22 54  1  0  0  0  0
 23 24  1  0  0  0  0
 24 25  1  0  0  0  0
 24 55  1  0  0  0  0
 24 56  1  0  0  0  0
 25 57  1  0  0  0  0
 25 58  1  0  0  0  0
 26 27  1  0  0  0  0
 27 28  2  0  0  0  0
 27 59  1  0  0  0  0
 28 29  1  0  0  0  0
M  CHG  1  20   1
M  END
> <s_m_source_file>
AV-unprocessed.smi

> <i_m_source_file_index>
153

> <i_lp_mmshare_version>
43012

> <i_f3d_flags>
0

> <s_epik_input>
W0NIMl0xW0NIMl1PW0NAQEhdKFtDSDNdKVtDQEBdMShbT0hdKVtDSDJdbihbY0hdbjIpYyhjMjMpbltjSF1uYzNOKFtDSDNdKVtDSDJdW0NASF0oW09IXSlbQ0gyXU40W0NIMl1bQ0gyXU9bQ0gyXVtDSDJdNA==

> <s_epik_cmdline>
J2VwaWtfcHl0aG9uJywgJy1waCcsICc3LjAnLCAnLXRuJywgJzgnLCAnLW1hJywgJzIwMCcsICctbWV0YWxfYmluZGluZycsICctaW1hZScsICc8aW5maWxlLm1hZT4nLCAnLW9tYWUnLCAnPG91dGZpbGUubWFlPic=

> <r_lp_tautomer_probability>
1

> <r_epik_Ionization_Penalty>
0.403509

> <r_epik_Ionization_Penalty_Charging>
0.40072

> <r_epik_Ionization_Penalty_Neutral>
0.00278876

> <r_epik_State_Penalty>
0.400058

> <r_epik_Charging_Adjusted_Penalty>
0.800778

> <i_epik_Tot_Q>
1

> <i_epik_Tot_abs_Q>
1

> <r_epik_Metal_State_Penalty>
0.400321

> <b_epik_Metal_Only>
0

> <s_lp_Force_Field>
OPLS_2005

> <r_lp_Energy>
46.896

> <b_lp_Chiralities_Consistent>
1

> <s_lp_Variant>
AV-unprocessed.smi:153-6

> <Gold.Version>
5.8.1

> <Gold.Id.Protein>
6NUR|6NUR_protein|mol2

> <Gold.PLP.Fitness>
44.9464

> <Gold.PLP.PLP>
-34.7658

> <Gold.PLP.part.hbond>
-4.8362

> <Gold.PLP.part.metal>
0.0000

> <Gold.PLP.part.buried>
0.5079

> <Gold.PLP.part.nonpolar>
-32.0034

> <Gold.PLP.part.repulsive>
1.1942

> <Gold.PLP.ligand.clash>
0.0000

> <Gold.PLP.ligand.torsion>
1.2442

> <Gold.PLP.Chemscore.Hbond>
3.4067

> <Gold.PLP.Chemscore.CHOScore>
0.6588

> <Gold.PLP.Chemscore.Metal>
0.0000

> <Gold.Chemscore.Hbonds>
donor molecule, donor type, donor heavy atom, donor atom, acceptor molecule, acceptor atom, score
      L1  H    18    48       P1 10171  0.99
      L1  H    20    60       P1  7921  0.50
      P1  H  7997  8010       L1     3  1.00
      P1  H 10785 10796       L1    23  0.58
      L1  C    10    41       P1  7957  0.74

> <Gold.PLP.Chemscore.Internal.Correction>
0.4726

> <Gold.Rescore>
     Score         DG    S(hbond)    S(metal)    S(lipo)     H(rot)  DE(clash)    DE(int)     intcor
     13.16     -17.26       2.97        0.00      95.03       3.62       1.69       2.41       ----

> <Gold.Chemscore.Fitness>
13.1568

> <Gold.Chemscore.DG>
-17.2635

> <Gold.Chemscore.ZeroCoef>
-5.4800

> <Gold.Chemscore.Hbond>
2.9724

> <Gold.Chemscore.Metal>
0.0000

> <Gold.Chemscore.Lipo>
95.0272

> <Gold.Chemscore.Internal_Hbond>
0.0000

> <Gold.Chemscore.DEClash>
1.6939

> <Gold.Chemscore.DEInternal>
2.4128

> <Gold.Chemscore.Rot>
3.6182

> <Gold.Chemscore.Internal.Correction>
   9.000000E+99

> <Gold.Chemscore.Hbonds>
donor molecule, donor type, donor heavy atom, donor atom, acceptor molecule, acceptor atom, score
      L1  H    18    48       P1 10171  0.93
      L1  H    20    60       P1  7921  0.30
      P1  H  7997  8010       L1     3  0.65
      P1  H 10785 10796       L1    23  0.24

> <Gold.Chemscore.Hbond.Weighted>
-9.9278

> <Gold.Chemscore.Metal.Weighted>
-0.0000

> <Gold.Chemscore.Lipo.Weighted>
-11.1182

> <Gold.Chemscore.Internal_Hbond.Weighted>
0.0000

> <Gold.Chemscore.DEClash.Weighted>
1.6939

> <Gold.Chemscore.DEInternal.Weighted>
2.4128

> <Gold.Chemscore.Rot.Weighted>
9.2625

> <Gold.Chemscore.Internal.Correction.Weighted>
   9.000000E+99

> <Gold.Protein.RotatedTorsions>
[ 6907 6896 6895 6894 ] final   55.69 input  -60.11 | X-H torsion
[ 7974 7965 7964 7962 ] final  -10.84 input  175.53 | X-H torsion
[ 8008 7997 7996 7995 ] final   56.67 input   59.86 | X-H torsion
[ 10167 10162 10161 10158 ] final   99.93 input  -65.29 | X-H torsion
[ 10718 10713 10712 10709 ] final  -14.85 input   66.30 | X-H torsion
[ 10763 10752 10751 10750 ] final -149.56 input  -60.55 | X-H torsion
[ 11005 11000 10999 10996 ] final  148.68 input  -57.11 | X-H torsion

> <Gold.Protein.ActiveResidues>
 VAL166  LYS551  ARG553  GLY616  TRP617  ASP618  TYR619  PRO620  LYS621  CYS622 
 ASP623  PHE694  ASN695  SER759  ASP760  ASP761  ALA762  ILE779  LEU786  VAL792 
 PHE793  MET794  SER795  GLU796  ALA797  LYS798  CYS799  TRP800  GLU811  SER814 

> <Gold.Protein.RotatedAtoms>
  152.3563  134.6935  160.0220 H   0  0  0  0  0  0  0  0  0  0  0  0  # atno 6907 bound_to 6896
  151.7273  133.3311  159.3339 H   0  0  0  0  0  0  0  0  0  0  0  0  # atno 6908 bound_to 6896
  150.7574  134.6329  159.6240 H   0  0  0  0  0  0  0  0  0  0  0  0  # atno 6909 bound_to 6896
  146.2207  140.2824  142.8363 H   0  0  0  0  0  0  0  0  0  0  0  0  # atno 7974 bound_to 7965
  155.5213  140.3480  155.4407 H   0  0  0  0  0  0  0  0  0  0  0  0  # atno 8008 bound_to 7997
  156.0782  140.1380  156.9772 H   0  0  0  0  0  0  0  0  0  0  0  0  # atno 8009 bound_to 7997
  154.4565  140.0951  156.6748 H   0  0  0  0  0  0  0  0  0  0  0  0  # atno 8010 bound_to 7997
  139.7572  144.6965  151.0344 H   0  0  0  0  0  0  0  0  0  0  0  0  # atno 10167 bound_to 10162
  156.6101  130.4847  149.6205 H   0  0  0  0  0  0  0  0  0  0  0  0  # atno 10718 bound_to 10713
  154.8170  135.3306  154.7147 H   0  0  0  0  0  0  0  0  0  0  0  0  # atno 10763 bound_to 10752
  153.7786  135.6920  153.4897 H   0  0  0  0  0  0  0  0  0  0  0  0  # atno 10764 bound_to 10752
  153.1995  135.4521  155.0197 H   0  0  0  0  0  0  0  0  0  0  0  0  # atno 10765 bound_to 10752
  140.0980  134.9001  157.1753 H   0  0  0  0  0  0  0  0  0  0  0  0  # atno 11005 bound_to 11000
  144.9187  140.7843  143.5761 LP  0  0  0  0  0  0  0  0  0  0  0  0  # atno 17320 bound_to 7965
  145.2759  139.1937  143.4817 LP  0  0  0  0  0  0  0  0  0  0  0  0  # atno 17321 bound_to 7965
  140.7804  143.4739  151.0109 LP  0  0  0  0  0  0  0  0  0  0  0  0  # atno 17342 bound_to 10162
  139.8425  143.7544  152.3180 LP  0  0  0  0  0  0  0  0  0  0  0  0  # atno 17343 bound_to 10162
  156.2397  130.6844  151.1544 LP  0  0  0  0  0  0  0  0  0  0  0  0  # atno 17370 bound_to 10713
  157.7256  131.0652  150.5944 LP  0  0  0  0  0  0  0  0  0  0  0  0  # atno 17371 bound_to 10713
  140.3259  134.2864  155.7237 LP  0  0  0  0  0  0  0  0  0  0  0  0  # atno 17394 bound_to 11000
  141.2097  133.7739  156.9976 LP  0  0  0  0  0  0  0  0  0  0  0  0  # atno 17395 bound_to 11000

$$$$
