AV-unprocessed.smi:2815|AV-procd|sdf|10841|dock2
  -GOLD-   2272015283D 1   1.00000     0.00000
 Structure written by MMmdl.
 47 48  0  0  0  0  0  0  0  0  1 V2000
  152.2623  143.8364  158.4686 C   0  0  0  0  0  0  0  0  0  0  0  0
  151.0401  143.1253  158.5592 O   0  0  0  0  0  0  0  0  0  0  0  0
  151.0433  141.9413  157.7796 C   0  0  0  0  0  0  0  0  0  0  0  0
  150.6395  142.2898  156.3418 C   0  0  0  0  0  0  0  0  0  0  0  0
  150.4011  141.0954  155.5481 N   0  0  0  0  0  0  0  0  0  0  0  0
  151.3818  140.1631  155.4717 N   0  0  0  0  0  0  0  0  0  0  0  0
  150.8978  139.2059  154.6983 C   0  0  0  0  0  0  0  0  0  0  0  0
  151.7408  138.0034  154.3844 C   0  0  0  0  0  0  0  0  0  0  0  0
  149.5685  139.5048  154.2981 C   0  0  0  0  0  0  0  0  0  0  0  0
  148.7805  138.6785  153.4580 N   0  0  0  0  0  0  0  0  0  0  0  0
  147.4402  138.6277  153.4127 C   0  0  0  0  0  0  0  0  0  0  0  0
  146.6859  139.3283  154.0877 O   0  0  0  0  0  0  0  0  0  0  0  0
  147.0152  137.6952  152.5481 N   0  0  0  0  0  0  0  0  0  0  0  0
  145.6172  137.3786  152.2703 C   0  0  0  0  0  0  0  0  0  0  0  0
  144.8241  137.2094  153.5831 C   0  0  0  0  0  0  0  0  0  0  0  0
  143.3678  136.7983  153.3118 C   0  0  0  0  0  0  0  0  0  0  0  0
  143.2962  135.5244  152.4559 C   0  0  0  0  0  0  0  0  0  0  0  0
  144.0800  135.6932  151.1453 C   0  0  0  0  0  0  0  0  0  0  0  0
  145.5377  136.0991  151.4162 C   0  0  0  0  0  0  0  0  0  0  0  0
  149.2760  140.7385  154.8184 C   0  0  0  0  0  0  0  0  0  0  0  0
  148.0735  141.6242  154.7018 C   0  0  0  0  0  0  0  0  0  0  0  0
  152.2092  144.7358  159.0820 H   0  0  0  0  0  0  0  0  0  0  0  0
  152.4667  144.1411  157.4415 H   0  0  0  0  0  0  0  0  0  0  0  0
  153.0969  143.2331  158.8278 H   0  0  0  0  0  0  0  0  0  0  0  0
  152.0365  141.4896  157.7907 H   0  0  0  0  0  0  0  0  0  0  0  0
  150.3463  141.2161  158.2025 H   0  0  0  0  0  0  0  0  0  0  0  0
  149.7421  142.9083  156.3328 H   0  0  0  0  0  0  0  0  0  0  0  0
  151.4244  142.8823  155.8688 H   0  0  0  0  0  0  0  0  0  0  0  0
  151.3569  137.4638  153.5186 H   0  0  0  0  0  0  0  0  0  0  0  0
  151.7596  137.3107  155.2256 H   0  0  0  0  0  0  0  0  0  0  0  0
  152.7698  138.2883  154.1638 H   0  0  0  0  0  0  0  0  0  0  0  0
  149.2788  137.9693  152.9407 H   0  0  0  0  0  0  0  0  0  0  0  0
  147.7091  137.1646  152.0424 H   0  0  0  0  0  0  0  0  0  0  0  0
  145.1776  138.1961  151.6955 H   0  0  0  0  0  0  0  0  0  0  0  0
  145.3021  136.4540  154.2084 H   0  0  0  0  0  0  0  0  0  0  0  0
  144.8385  138.1374  154.1557 H   0  0  0  0  0  0  0  0  0  0  0  0
  142.8444  136.6418  154.2552 H   0  0  0  0  0  0  0  0  0  0  0  0
  142.8491  137.6105  152.8015 H   0  0  0  0  0  0  0  0  0  0  0  0
  143.7013  134.6826  153.0188 H   0  0  0  0  0  0  0  0  0  0  0  0
  142.2560  135.2803  152.2392 H   0  0  0  0  0  0  0  0  0  0  0  0
  144.0525  134.7651  150.5737 H   0  0  0  0  0  0  0  0  0  0  0  0
  143.5987  136.4517  150.5265 H   0  0  0  0  0  0  0  0  0  0  0  0
  146.0579  136.2483  150.4693 H   0  0  0  0  0  0  0  0  0  0  0  0
  146.0505  135.2816  151.9251 H   0  0  0  0  0  0  0  0  0  0  0  0
  147.5268  141.4223  153.7812 H   0  0  0  0  0  0  0  0  0  0  0  0
  148.3492  142.6775  154.6826 H   0  0  0  0  0  0  0  0  0  0  0  0
  147.3951  141.4671  155.5403 H   0  0  0  0  0  0  0  0  0  0  0  0
  1  2  1  0  0  0  0
  1 22  1  0  0  0  0
  1 23  1  0  0  0  0
  1 24  1  0  0  0  0
  2  3  1  0  0  0  0
  3  4  1  0  0  0  0
  3 25  1  0  0  0  0
  3 26  1  0  0  0  0
  4  5  1  0  0  0  0
  4 27  1  0  0  0  0
  4 28  1  0  0  0  0
  5 20  1  0  0  0  0
  5  6  1  0  0  0  0
  6  7  2  0  0  0  0
  7  8  1  0  0  0  0
  7  9  1  0  0  0  0
  8 29  1  0  0  0  0
  8 30  1  0  0  0  0
  8 31  1  0  0  0  0
  9 10  1  0  0  0  0
  9 20  2  0  0  0  0
 10 11  1  0  0  0  0
 10 32  1  0  0  0  0
 11 12  2  0  0  0  0
 11 13  1  0  0  0  0
 13 14  1  0  0  0  0
 13 33  1  0  0  0  0
 14 19  1  0  0  0  0
 14 15  1  0  0  0  0
 14 34  1  0  0  0  0
 15 16  1  0  0  0  0
 15 35  1  0  0  0  0
 15 36  1  0  0  0  0
 16 17  1  0  0  0  0
 16 37  1  0  0  0  0
 16 38  1  0  0  0  0
 17 18  1  0  0  0  0
 17 39  1  0  0  0  0
 17 40  1  0  0  0  0
 18 19  1  0  0  0  0
 18 41  1  0  0  0  0
 18 42  1  0  0  0  0
 19 43  1  0  0  0  0
 19 44  1  0  0  0  0
 20 21  1  0  0  0  0
 21 45  1  0  0  0  0
 21 46  1  0  0  0  0
 21 47  1  0  0  0  0
M  END
> <s_m_source_file>
AV-unprocessed.smi

> <i_m_source_file_index>
2815

> <i_lp_mmshare_version>
43012

> <i_f3d_flags>
0

> <s_epik_input>
W0NIM11PW0NIMl1bQ0gyXW4xbmMoW0NIM10pYyhjMVtDSDNdKVtOSF1DKD1PKVtOSF1bQ0hdMltDSDJdW0NIMl1bQ0gyXVtDSDJdW0NIMl0y

> <s_epik_cmdline>
J2VwaWtfcHl0aG9uJywgJy1waCcsICc3LjAnLCAnLXRuJywgJzgnLCAnLW1hJywgJzIwMCcsICctbWV0YWxfYmluZGluZycsICctaW1hZScsICc8aW5maWxlLm1hZT4nLCAnLW9tYWUnLCAnPG91dGZpbGUubWFlPic=

> <r_lp_tautomer_probability>
1

> <r_epik_Ionization_Penalty>
0.00692603

> <r_epik_Ionization_Penalty_Charging>
0

> <r_epik_Ionization_Penalty_Neutral>
0.00692603

> <r_epik_State_Penalty>
0.00511675

> <r_epik_Charging_Adjusted_Penalty>
0.00511675

> <i_epik_Tot_Q>
0

> <i_epik_Tot_abs_Q>
0

> <r_epik_Metal_State_Penalty>
-0

> <b_epik_Metal_Only>
0

> <s_lp_Force_Field>
OPLS_2005

> <r_lp_Energy>
15.031

> <b_lp_Chiralities_Consistent>
1

> <s_lp_Variant>
AV-unprocessed.smi:2815-1

> <Gold.Version>
5.8.1

> <Gold.Id.Protein>
6NUR|6NUR_protein|mol2

> <Gold.PLP.Fitness>
47.1476

> <Gold.PLP.PLP>
-42.1139

> <Gold.PLP.part.hbond>
-3.9528

> <Gold.PLP.part.metal>
0.0000

> <Gold.PLP.part.buried>
-2.8103

> <Gold.PLP.part.nonpolar>
-36.5255

> <Gold.PLP.part.repulsive>
0.3625

> <Gold.PLP.ligand.clash>
0.0000

> <Gold.PLP.ligand.torsion>
0.4619

> <Gold.PLP.Chemscore.Hbond>
1.8564

> <Gold.PLP.Chemscore.CHOScore>
0.0000

> <Gold.PLP.Chemscore.Metal>
0.0000

> <Gold.Chemscore.Hbonds>
donor molecule, donor type, donor heavy atom, donor atom, acceptor molecule, acceptor atom, score
      L1  H    10    32       P1  7948  0.84
      L1  H    13    33       P1  7948  1.00

> <Gold.PLP.Chemscore.Internal.Correction>
0.3881

> <Gold.Rescore>
     Score         DG    S(hbond)    S(metal)    S(lipo)     H(rot)  DE(clash)    DE(int)     intcor
     14.64     -18.73       1.89        0.00      92.25       1.50       0.06       4.03       ----

> <Gold.Chemscore.Fitness>
14.6382

> <Gold.Chemscore.DG>
-18.7320

> <Gold.Chemscore.ZeroCoef>
-5.4800

> <Gold.Chemscore.Hbond>
1.8859

> <Gold.Chemscore.Metal>
0.0000

> <Gold.Chemscore.Lipo>
92.2506

> <Gold.Chemscore.Internal_Hbond>
0.0000

> <Gold.Chemscore.DEClash>
0.0616

> <Gold.Chemscore.DEInternal>
4.0322

> <Gold.Chemscore.Rot>
1.5002

> <Gold.Chemscore.Internal.Correction>
   9.000000E+99

> <Gold.Chemscore.Hbonds>
donor molecule, donor type, donor heavy atom, donor atom, acceptor molecule, acceptor atom, score
      L1  H    10    32       P1  7948  0.76
      L1  H    13    33       P1  7948  0.94

> <Gold.Chemscore.Hbond.Weighted>
-6.2990

> <Gold.Chemscore.Metal.Weighted>
-0.0000

> <Gold.Chemscore.Lipo.Weighted>
-10.7933

> <Gold.Chemscore.Internal_Hbond.Weighted>
0.0000

> <Gold.Chemscore.DEClash.Weighted>
0.0616

> <Gold.Chemscore.DEInternal.Weighted>
4.0322

> <Gold.Chemscore.Rot.Weighted>
3.8404

> <Gold.Chemscore.Internal.Correction.Weighted>
   9.000000E+99

> <Gold.Protein.RotatedTorsions>
[ 6907 6896 6895 6894 ] final  170.72 input  -60.11 | X-H torsion
[ 7974 7965 7964 7962 ] final   56.83 input  175.53 | X-H torsion
[ 8008 7997 7996 7995 ] final   10.45 input   59.86 | X-H torsion
[ 10167 10162 10161 10158 ] final -155.61 input  -65.29 | X-H torsion
[ 10718 10713 10712 10709 ] final  163.52 input   66.30 | X-H torsion
[ 10763 10752 10751 10750 ] final  138.97 input  -60.55 | X-H torsion
[ 11005 11000 10999 10996 ] final  149.84 input  -57.11 | X-H torsion

> <Gold.Protein.ActiveResidues>
 VAL166  LYS551  ARG553  GLY616  TRP617  ASP618  TYR619  PRO620  LYS621  CYS622 
 ASP623  PHE694  ASN695  SER759  ASP760  ASP761  ALA762  ILE779  LEU786  VAL792 
 PHE793  MET794  SER795  GLU796  ALA797  LYS798  CYS799  TRP800  GLU811  SER814 

> <Gold.Protein.RotatedAtoms>
  151.8116  133.3382  159.3556 H   0  0  0  0  0  0  0  0  0  0  0  0  # atno 6907 bound_to 6896
  150.7324  134.5659  159.5875 H   0  0  0  0  0  0  0  0  0  0  0  0  # atno 6908 bound_to 6896
  152.3071  134.7543  160.0396 H   0  0  0  0  0  0  0  0  0  0  0  0  # atno 6909 bound_to 6896
  145.9356  139.3844  143.0395 H   0  0  0  0  0  0  0  0  0  0  0  0  # atno 7974 bound_to 7965
  154.7936  140.2840  155.5973 H   0  0  0  0  0  0  0  0  0  0  0  0  # atno 8008 bound_to 7997
  156.2968  140.2600  156.2717 H   0  0  0  0  0  0  0  0  0  0  0  0  # atno 8009 bound_to 7997
  154.9641  140.0377  157.2193 H   0  0  0  0  0  0  0  0  0  0  0  0  # atno 8010 bound_to 7997
  139.6917  143.9410  152.2388 H   0  0  0  0  0  0  0  0  0  0  0  0  # atno 10167 bound_to 10162
  157.1073  131.0458  151.2472 H   0  0  0  0  0  0  0  0  0  0  0  0  # atno 10718 bound_to 10713
  153.8984  135.3025  155.3448 H   0  0  0  0  0  0  0  0  0  0  0  0  # atno 10763 bound_to 10752
  154.7682  135.4899  153.9600 H   0  0  0  0  0  0  0  0  0  0  0  0  # atno 10764 bound_to 10752
  153.1259  135.6793  153.9358 H   0  0  0  0  0  0  0  0  0  0  0  0  # atno 10765 bound_to 10752
  140.1080  134.8942  157.1894 H   0  0  0  0  0  0  0  0  0  0  0  0  # atno 11005 bound_to 11000
  145.8368  140.9602  143.0820 LP  0  0  0  0  0  0  0  0  0  0  0  0  # atno 17320 bound_to 7965
  144.6771  140.0233  143.7483 LP  0  0  0  0  0  0  0  0  0  0  0  0  # atno 17321 bound_to 7965
  139.9228  144.6789  150.8444 LP  0  0  0  0  0  0  0  0  0  0  0  0  # atno 17342 bound_to 10162
  140.7684  143.3363  151.2302 LP  0  0  0  0  0  0  0  0  0  0  0  0  # atno 17343 bound_to 10162
  157.4590  130.7642  149.7218 LP  0  0  0  0  0  0  0  0  0  0  0  0  # atno 17370 bound_to 10713
  155.9859  130.3979  150.3239 LP  0  0  0  0  0  0  0  0  0  0  0  0  # atno 17371 bound_to 10713
  140.3130  134.3002  155.7262 LP  0  0  0  0  0  0  0  0  0  0  0  0  # atno 17394 bound_to 11000
  141.2123  133.7662  156.9803 LP  0  0  0  0  0  0  0  0  0  0  0  0  # atno 17395 bound_to 11000

$$$$
