AV-unprocessed.smi:2945|AV-procd|sdf|11277|dock8
  -GOLD-   2272016173D 1   1.00000     0.00000
 Structure written by MMmdl.
 36 37  0  0  0  0  0  0  0  0  1 V2000
  150.7160  141.9762  156.1976 C   0  0  0  0  0  0  0  0  0  0  0  0
  150.4528  140.7207  155.4389 C   0  0  0  0  0  0  0  0  0  0  0  0
  149.3037  140.0744  155.0793 C   0  0  0  0  0  0  0  0  0  0  0  0
  149.7829  138.9382  154.3746 C   0  0  0  0  0  0  0  0  0  0  0  0
  148.8820  137.9893  153.8282 N   0  0  0  0  0  0  0  0  0  0  0  0
  147.6291  137.7197  154.2318 C   0  0  0  0  0  0  0  0  0  0  0  0
  147.0573  138.2608  155.1786 O   0  0  0  0  0  0  0  0  0  0  0  0
  147.0708  136.7705  153.4659 N   0  0  0  0  0  0  0  0  0  0  0  0
  145.7158  136.2320  153.6034 C   0  0  1  0  0  0  0  0  0  0  0  0
  144.8367  136.7309  152.4387 C   0  0  0  0  0  0  0  0  0  0  0  0
  145.2379  136.0980  151.0950 C   0  0  0  0  0  0  0  0  0  0  0  0
  145.2268  134.5643  151.1775 C   0  0  0  0  0  0  0  0  0  0  0  0
  146.1187  134.0582  152.3227 C   0  0  0  0  0  0  0  0  0  0  0  0
  145.7164  134.6834  153.6748 C   0  0  1  0  0  0  0  0  0  0  0  0
  146.5712  134.1337  154.8295 C   0  0  0  0  0  0  0  0  0  0  0  0
  151.1046  138.8956  154.3079 N   0  0  0  0  0  0  0  0  0  0  0  0
  151.5408  140.0381  154.9893 O   0  0  0  0  0  0  0  0  0  0  0  0
  149.7899  142.3947  156.5923 H   0  0  0  0  0  0  0  0  0  0  0  0
  151.1791  142.7255  155.5553 H   0  0  0  0  0  0  0  0  0  0  0  0
  151.3856  141.7883  157.0369 H   0  0  0  0  0  0  0  0  0  0  0  0
  148.2862  140.3683  155.2900 H   0  0  0  0  0  0  0  0  0  0  0  0
  149.2258  137.4646  153.0379 H   0  0  0  0  0  0  0  0  0  0  0  0
  147.6271  136.3869  152.7161 H   0  0  0  0  0  0  0  0  0  0  0  0
  145.2707  136.6104  154.5252 H   0  0  0  0  0  0  0  0  0  0  0  0
  143.7945  136.4871  152.6484 H   0  0  0  0  0  0  0  0  0  0  0  0
  144.8840  137.8183  152.3689 H   0  0  0  0  0  0  0  0  0  0  0  0
  144.5579  136.4319  150.3110 H   0  0  0  0  0  0  0  0  0  0  0  0
  146.2314  136.4418  150.8052 H   0  0  0  0  0  0  0  0  0  0  0  0
  144.2047  134.2149  151.3292 H   0  0  0  0  0  0  0  0  0  0  0  0
  145.5607  134.1393  150.2306 H   0  0  0  0  0  0  0  0  0  0  0  0
  146.0500  132.9715  152.3809 H   0  0  0  0  0  0  0  0  0  0  0  0
  147.1620  134.2863  152.1013 H   0  0  0  0  0  0  0  0  0  0  0  0
  144.6891  134.3756  153.8765 H   0  0  0  0  0  0  0  0  0  0  0  0
  147.6315  134.3402  154.6824 H   0  0  0  0  0  0  0  0  0  0  0  0
  146.4572  133.0531  154.9190 H   0  0  0  0  0  0  0  0  0  0  0  0
  146.2742  134.5756  155.7808 H   0  0  0  0  0  0  0  0  0  0  0  0
  1  2  1  0  0  0  0
  1 18  1  0  0  0  0
  1 19  1  0  0  0  0
  1 20  1  0  0  0  0
  2 17  1  0  0  0  0
  2  3  2  0  0  0  0
  3  4  1  0  0  0  0
  3 21  1  0  0  0  0
  4  5  1  0  0  0  0
  4 16  2  0  0  0  0
  5  6  1  0  0  0  0
  5 22  1  0  0  0  0
  6  7  2  0  0  0  0
  6  8  1  0  0  0  0
  8  9  1  0  0  0  0
  8 23  1  0  0  0  0
  9 14  1  0  0  0  0
  9 10  1  0  0  0  0
  9 24  1  0  0  0  0
 10 11  1  0  0  0  0
 10 25  1  0  0  0  0
 10 26  1  0  0  0  0
 11 12  1  0  0  0  0
 11 27  1  0  0  0  0
 11 28  1  0  0  0  0
 12 13  1  0  0  0  0
 12 29  1  0  0  0  0
 12 30  1  0  0  0  0
 13 14  1  0  0  0  0
 13 31  1  0  0  0  0
 13 32  1  0  0  0  0
 14 15  1  0  0  0  0
 14 33  1  0  0  0  0
 15 34  1  0  0  0  0
 15 35  1  0  0  0  0
 15 36  1  0  0  0  0
 16 17  1  0  0  0  0
M  END
> <s_m_source_file>
AV-unprocessed.smi

> <i_m_source_file_index>
2945

> <i_lp_mmshare_version>
43012

> <i_f3d_flags>
0

> <s_epik_input>
W0NIM11jMVtjSF1jKG5vMSlbTkhdQyg9TylbTkhdW0NAQEhdMltDSDJdW0NIMl1bQ0gyXVtDSDJdW0NASF0yW0NIM10=

> <s_epik_cmdline>
J2VwaWtfcHl0aG9uJywgJy1waCcsICc3LjAnLCAnLXRuJywgJzgnLCAnLW1hJywgJzIwMCcsICctbWV0YWxfYmluZGluZycsICctaW1hZScsICc8aW5maWxlLm1hZT4nLCAnLW9tYWUnLCAnPG91dGZpbGUubWFlPic=

> <r_lp_tautomer_probability>
1

> <r_epik_Ionization_Penalty>
2.357e-05

> <r_epik_Ionization_Penalty_Charging>
0

> <r_epik_Ionization_Penalty_Neutral>
2.357e-05

> <r_epik_State_Penalty>
-0

> <r_epik_Charging_Adjusted_Penalty>
0

> <i_epik_Tot_Q>
0

> <i_epik_Tot_abs_Q>
0

> <r_epik_Metal_State_Penalty>
-0

> <b_epik_Metal_Only>
0

> <s_lp_Force_Field>
OPLS_2005

> <r_lp_Energy>
7.46694

> <b_lp_Chiralities_Consistent>
1

> <s_lp_Variant>
AV-unprocessed.smi:2945-2

> <Gold.Version>
5.8.1

> <Gold.Id.Protein>
6NUR|6NUR_protein|mol2

> <Gold.PLP.Fitness>
30.2076

> <Gold.PLP.PLP>
-23.3277

> <Gold.PLP.part.hbond>
-3.4452

> <Gold.PLP.part.metal>
0.0000

> <Gold.PLP.part.buried>
-2.4356

> <Gold.PLP.part.nonpolar>
-17.8317

> <Gold.PLP.part.repulsive>
0.2616

> <Gold.PLP.ligand.clash>
0.0000

> <Gold.PLP.ligand.torsion>
0.2265

> <Gold.PLP.Chemscore.Hbond>
2.4420

> <Gold.PLP.Chemscore.CHOScore>
0.0000

> <Gold.PLP.Chemscore.Metal>
0.0000

> <Gold.Chemscore.Hbonds>
donor molecule, donor type, donor heavy atom, donor atom, acceptor molecule, acceptor atom, score
      L1  H     5    22       P1  7948  1.00
      L1  H     8    23       P1  7948  1.00
      P1  H  7989  7998       L1    17  0.40

> <Gold.PLP.Chemscore.Internal.Correction>
0.0068

> <Gold.Rescore>
     Score         DG    S(hbond)    S(metal)    S(lipo)     H(rot)  DE(clash)    DE(int)     intcor
     13.08     -14.62       1.95        0.00      44.47       1.00       0.03       1.51       ----

> <Gold.Chemscore.Fitness>
13.0838

> <Gold.Chemscore.DG>
-14.6247

> <Gold.Chemscore.ZeroCoef>
-5.4800

> <Gold.Chemscore.Hbond>
1.9465

> <Gold.Chemscore.Metal>
0.0000

> <Gold.Chemscore.Lipo>
44.4724

> <Gold.Chemscore.Internal_Hbond>
0.0000

> <Gold.Chemscore.DEClash>
0.0348

> <Gold.Chemscore.DEInternal>
1.5062

> <Gold.Chemscore.Rot>
1.0000

> <Gold.Chemscore.Internal.Correction>
   9.000000E+99

> <Gold.Chemscore.Hbonds>
donor molecule, donor type, donor heavy atom, donor atom, acceptor molecule, acceptor atom, score
      L1  H     5    22       P1  7948  0.93
      L1  H     8    23       P1  7948  0.96

> <Gold.Chemscore.Hbond.Weighted>
-6.5015

> <Gold.Chemscore.Metal.Weighted>
-0.0000

> <Gold.Chemscore.Lipo.Weighted>
-5.2033

> <Gold.Chemscore.Internal_Hbond.Weighted>
0.0000

> <Gold.Chemscore.DEClash.Weighted>
0.0348

> <Gold.Chemscore.DEInternal.Weighted>
1.5062

> <Gold.Chemscore.Rot.Weighted>
2.5600

> <Gold.Chemscore.Internal.Correction.Weighted>
   9.000000E+99

> <Gold.Protein.RotatedTorsions>
[ 6907 6896 6895 6894 ] final   82.72 input  -60.11 | X-H torsion
[ 7974 7965 7964 7962 ] final  106.75 input  175.53 | X-H torsion
[ 8008 7997 7996 7995 ] final   55.64 input   59.86 | X-H torsion
[ 10167 10162 10161 10158 ] final -176.55 input  -65.29 | X-H torsion
[ 10718 10713 10712 10709 ] final   89.30 input   66.30 | X-H torsion
[ 10763 10752 10751 10750 ] final   51.01 input  -60.55 | X-H torsion
[ 11005 11000 10999 10996 ] final  -34.97 input  -57.11 | X-H torsion

> <Gold.Protein.ActiveResidues>
 VAL166  LYS551  ARG553  GLY616  TRP617  ASP618  TYR619  PRO620  LYS621  CYS622 
 ASP623  PHE694  ASN695  SER759  ASP760  ASP761  ALA762  ILE779  LEU786  VAL792 
 PHE793  MET794  SER795  GLU796  ALA797  LYS798  CYS799  TRP800  GLU811  SER814 

> <Gold.Protein.RotatedAtoms>
  152.5307  134.3006  159.9076 H   0  0  0  0  0  0  0  0  0  0  0  0  # atno 6907 bound_to 6896
  151.2957  133.4139  159.2644 H   0  0  0  0  0  0  0  0  0  0  0  0  # atno 6908 bound_to 6896
  151.0162  134.9451  159.8092 H   0  0  0  0  0  0  0  0  0  0  0  0  # atno 6909 bound_to 6896
  145.3025  139.2565  143.3806 H   0  0  0  0  0  0  0  0  0  0  0  0  # atno 7974 bound_to 7965
  155.5044  140.3475  155.4377 H   0  0  0  0  0  0  0  0  0  0  0  0  # atno 8008 bound_to 7997
  156.0892  140.1406  156.9642 H   0  0  0  0  0  0  0  0  0  0  0  0  # atno 8009 bound_to 7997
  154.4624  140.0930  156.6907 H   0  0  0  0  0  0  0  0  0  0  0  0  # atno 8010 bound_to 7997
  139.5524  144.2075  152.1100 H   0  0  0  0  0  0  0  0  0  0  0  0  # atno 10167 bound_to 10162
  157.6954  131.0328  150.3405 H   0  0  0  0  0  0  0  0  0  0  0  0  # atno 10718 bound_to 10713
  152.9785  135.5860  154.4345 H   0  0  0  0  0  0  0  0  0  0  0  0  # atno 10763 bound_to 10752
  154.3954  135.2768  155.2131 H   0  0  0  0  0  0  0  0  0  0  0  0  # atno 10764 bound_to 10752
  154.3985  135.6109  153.5938 H   0  0  0  0  0  0  0  0  0  0  0  0  # atno 10765 bound_to 10752
  140.9758  133.7083  156.1601 H   0  0  0  0  0  0  0  0  0  0  0  0  # atno 11005 bound_to 11000
  146.3147  140.3542  142.8659 LP  0  0  0  0  0  0  0  0  0  0  0  0  # atno 17320 bound_to 7965
  144.9082  140.7725  143.5824 LP  0  0  0  0  0  0  0  0  0  0  0  0  # atno 17321 bound_to 7965
  140.1573  144.5058  150.6652 LP  0  0  0  0  0  0  0  0  0  0  0  0  # atno 17342 bound_to 10162
  140.6789  143.2318  151.5434 LP  0  0  0  0  0  0  0  0  0  0  0  0  # atno 17343 bound_to 10162
  156.3867  130.3890  149.7061 LP  0  0  0  0  0  0  0  0  0  0  0  0  # atno 17370 bound_to 10713
  156.4424  130.7867  151.2889 LP  0  0  0  0  0  0  0  0  0  0  0  0  # atno 17371 bound_to 10713
  140.7260  134.4306  157.5570 LP  0  0  0  0  0  0  0  0  0  0  0  0  # atno 17394 bound_to 11000
  139.8930  134.8741  156.2243 LP  0  0  0  0  0  0  0  0  0  0  0  0  # atno 17395 bound_to 11000

$$$$
