AV-unprocessed.smi:1880|AV-procd|sdf|7638|dock4
  -GOLD-   22720 9363D 1   1.00000     0.00000
 Structure written by MMmdl.
 37 39  0  0  0  0  0  0  0  0  2 V2000
  151.5439  136.5360  157.2546 O   0  0  0  0  0  0  0  0  0  0  0  0
  151.0024  137.8209  157.4909 C   0  0  1  0  0  0  0  0  0  0  0  0
  150.8578  138.0164  159.0078 C   0  0  0  0  0  0  0  0  0  0  0  0
  150.5845  136.7592  159.6028 O   0  0  0  0  0  0  0  0  0  0  0  0
  149.2402  136.3429  159.4222 C   0  0  0  0  0  0  0  0  0  0  0  0
  148.7117  135.9200  160.7556 C   0  0  0  0  0  0  0  0  0  0  0  0
  148.4301  134.6973  161.3007 C   0  0  0  0  0  0  0  0  0  0  0  0
  147.9627  134.9421  162.6216 C   0  0  0  0  0  0  0  0  0  0  0  0
  148.0011  136.2968  162.7893 C   0  0  0  0  0  0  0  0  0  0  0  0
  148.4586  136.9080  161.6629 O   0  0  0  0  0  0  0  0  0  0  0  0
  151.9309  138.8755  156.8570 C   0  0  0  0  0  0  0  0  0  0  0  0
  151.3432  140.2219  156.8557 N   0  0  0  0  0  0  0  0  0  0  0  0
  150.4275  140.7754  156.0149 C   0  0  0  0  0  0  0  0  0  0  0  0
  150.1977  142.0492  156.4393 N   0  3  0  0  0  0  0  0  0  0  0  0
  150.9780  142.3127  157.5676 C   0  0  0  0  0  0  0  0  0  0  0  0
  151.0913  143.4556  158.3527 C   0  0  0  0  0  0  0  0  0  0  0  0
  151.9844  143.3918  159.4426 C   0  0  0  0  0  0  0  0  0  0  0  0
  152.1328  144.4766  160.2390 F   0  0  0  0  0  0  0  0  0  0  0  0
  152.7240  142.2220  159.7182 C   0  0  0  0  0  0  0  0  0  0  0  0
  153.5698  142.2031  160.7753 F   0  0  0  0  0  0  0  0  0  0  0  0
  152.6007  141.0689  158.9150 C   0  0  0  0  0  0  0  0  0  0  0  0
  151.7164  141.1423  157.8401 C   0  0  0  0  0  0  0  0  0  0  0  0
  151.4968  136.0410  158.0589 H   0  0  0  0  0  0  0  0  0  0  0  0
  150.0198  137.8805  157.0213 H   0  0  0  0  0  0  0  0  0  0  0  0
  151.7512  138.4767  159.4342 H   0  0  0  0  0  0  0  0  0  0  0  0
  150.0188  138.6824  159.2162 H   0  0  0  0  0  0  0  0  0  0  0  0
  148.6389  137.1601  159.0216 H   0  0  0  0  0  0  0  0  0  0  0  0
  149.1883  135.5102  158.7197 H   0  0  0  0  0  0  0  0  0  0  0  0
  148.5443  133.7431  160.8076 H   0  0  0  0  0  0  0  0  0  0  0  0
  147.6420  134.2188  163.3567 H   0  0  0  0  0  0  0  0  0  0  0  0
  147.7533  136.9597  163.6052 H   0  0  0  0  0  0  0  0  0  0  0  0
  152.8891  138.9183  157.3763 H   0  0  0  0  0  0  0  0  0  0  0  0
  152.1516  138.6135  155.8211 H   0  0  0  0  0  0  0  0  0  0  0  0
  149.9627  140.2892  155.1692 H   0  0  0  0  0  0  0  0  0  0  0  0
  150.5265  144.3527  158.1461 H   0  0  0  0  0  0  0  0  0  0  0  0
  153.1697  140.1779  159.1350 H   0  0  0  0  0  0  0  0  0  0  0  0
  149.5526  142.6872  155.9909 H   0  0  0  0  0  0  0  0  0  0  0  0
  1  2  1  0  0  0  0
  1 23  1  0  0  0  0
  2  3  1  0  0  0  0
  2 11  1  0  0  0  0
  2 24  1  0  0  0  0
  3  4  1  0  0  0  0
  3 25  1  0  0  0  0
  3 26  1  0  0  0  0
  4  5  1  0  0  0  0
  5  6  1  0  0  0  0
  5 27  1  0  0  0  0
  5 28  1  0  0  0  0
  6 10  1  0  0  0  0
  6  7  2  0  0  0  0
  7  8  1  0  0  0  0
  7 29  1  0  0  0  0
  8  9  2  0  0  0  0
  8 30  1  0  0  0  0
  9 10  1  0  0  0  0
  9 31  1  0  0  0  0
 11 12  1  0  0  0  0
 11 32  1  0  0  0  0
 11 33  1  0  0  0  0
 12 22  1  0  0  0  0
 12 13  1  0  0  0  0
 13 14  2  0  0  0  0
 13 34  1  0  0  0  0
 14 15  1  0  0  0  0
 14 37  1  0  0  0  0
 15 22  2  0  0  0  0
 15 16  1  0  0  0  0
 16 17  2  0  0  0  0
 16 35  1  0  0  0  0
 17 18  1  0  0  0  0
 17 19  1  0  0  0  0
 19 20  1  0  0  0  0
 19 21  2  0  0  0  0
 21 22  1  0  0  0  0
 21 36  1  0  0  0  0
M  CHG  1  14   1
M  END
> <s_m_source_file>
AV-unprocessed.smi

> <i_m_source_file_index>
1880

> <i_lp_mmshare_version>
43012

> <i_f3d_flags>
0

> <s_epik_input>
W2NIXTFjKEYpYyhGKVtjSF1jKGMxMiluKFtjSF1uMilbQ0gyXVtDQEhdKFtPSF0pW0NIMl1PW0NIMl1jM1tjSF1bY0hdW2NIXW8z

> <s_epik_cmdline>
J2VwaWtfcHl0aG9uJywgJy1waCcsICc3LjAnLCAnLXRuJywgJzgnLCAnLW1hJywgJzIwMCcsICctbWV0YWxfYmluZGluZycsICctaW1hZScsICc8aW5maWxlLm1hZT4nLCAnLW9tYWUnLCAnPG91dGZpbGUubWFlPic=

> <r_epik_Ionization_Penalty>
2.17656

> <r_epik_Ionization_Penalty_Charging>
2.17656

> <r_epik_Ionization_Penalty_Neutral>
9.34185e-07

> <r_epik_State_Penalty>
2.31826

> <r_epik_Charging_Adjusted_Penalty>
4.49482

> <i_epik_Tot_Q>
1

> <i_epik_Tot_abs_Q>
1

> <r_epik_Metal_State_Penalty>
6.39906

> <b_epik_Metal_Only>
0

> <s_lp_Force_Field>
OPLS_2005

> <r_lp_Energy>
11.8532

> <b_lp_Chiralities_Consistent>
1

> <s_lp_Variant>
AV-unprocessed.smi:1880-4

> <Gold.Version>
5.8.1

> <Gold.Id.Protein>
6NUR|6NUR_protein|mol2

> <Gold.PLP.Fitness>
61.0923

> <Gold.PLP.PLP>
-49.7935

> <Gold.PLP.part.hbond>
-3.7814

> <Gold.PLP.part.metal>
0.0000

> <Gold.PLP.part.buried>
-6.1935

> <Gold.PLP.part.nonpolar>
-40.3697

> <Gold.PLP.part.repulsive>
0.0867

> <Gold.PLP.ligand.clash>
0.0000

> <Gold.PLP.ligand.torsion>
1.2280

> <Gold.PLP.Chemscore.Hbond>
4.5652

> <Gold.PLP.Chemscore.CHOScore>
0.0000

> <Gold.PLP.Chemscore.Metal>
0.0000

> <Gold.Chemscore.Hbonds>
donor molecule, donor type, donor heavy atom, donor atom, acceptor molecule, acceptor atom, score
      L1  H    14    37       P1  8028  1.30
      P1  H  6896  6908       L1     4  0.45
      P1  H  6931  6943       L1    10  0.86

> <Gold.PLP.Chemscore.Internal.Correction>
0.0591

> <Gold.Rescore>
     Score         DG    S(hbond)    S(metal)    S(lipo)     H(rot)  DE(clash)    DE(int)     intcor
     17.94     -19.08       2.76        0.00     101.68       2.94       0.00       1.14       ----

> <Gold.Chemscore.Fitness>
17.9399

> <Gold.Chemscore.DG>
-19.0776

> <Gold.Chemscore.ZeroCoef>
-5.4800

> <Gold.Chemscore.Hbond>
2.7603

> <Gold.Chemscore.Metal>
0.0000

> <Gold.Chemscore.Lipo>
101.6824

> <Gold.Chemscore.Internal_Hbond>
0.0000

> <Gold.Chemscore.DEClash>
0.0000

> <Gold.Chemscore.DEInternal>
1.1377

> <Gold.Chemscore.Rot>
2.9369

> <Gold.Chemscore.Internal.Correction>
   9.000000E+99

> <Gold.Chemscore.Hbonds>
donor molecule, donor type, donor heavy atom, donor atom, acceptor molecule, acceptor atom, score
      L1  H    14    37       P1  8028  0.62
      P1  H  6896  6908       L1     4  0.02
      P1  H  6931  6943       L1    10  0.72

> <Gold.Chemscore.Hbond.Weighted>
-9.2193

> <Gold.Chemscore.Metal.Weighted>
-0.0000

> <Gold.Chemscore.Lipo.Weighted>
-11.8968

> <Gold.Chemscore.Internal_Hbond.Weighted>
0.0000

> <Gold.Chemscore.DEClash.Weighted>
0.0000

> <Gold.Chemscore.DEInternal.Weighted>
1.1377

> <Gold.Chemscore.Rot.Weighted>
7.5185

> <Gold.Chemscore.Internal.Correction.Weighted>
   9.000000E+99

> <Gold.Protein.RotatedTorsions>
[ 6907 6896 6895 6894 ] final -153.29 input  -60.11 | X-H torsion
[ 7974 7965 7964 7962 ] final -154.62 input  175.53 | X-H torsion
[ 8008 7997 7996 7995 ] final    1.03 input   59.86 | X-H torsion
[ 10167 10162 10161 10158 ] final  -18.07 input  -65.29 | X-H torsion
[ 10718 10713 10712 10709 ] final   17.97 input   66.30 | X-H torsion
[ 10763 10752 10751 10750 ] final -179.66 input  -60.55 | X-H torsion
[ 11005 11000 10999 10996 ] final  -55.29 input  -57.11 | X-H torsion

> <Gold.Protein.ActiveResidues>
 VAL166  LYS551  ARG553  GLY616  TRP617  ASP618  TYR619  PRO620  LYS621  CYS622 
 ASP623  PHE694  ASN695  SER759  ASP760  ASP761  ALA762  ILE779  LEU786  VAL792 
 PHE793  MET794  SER795  GLU796  ALA797  LYS798  CYS799  TRP800  GLU811  SER814 

> <Gold.Protein.RotatedAtoms>
  151.2404  133.4402  159.2606 H   0  0  0  0  0  0  0  0  0  0  0  0  # atno 6907 bound_to 6896
  151.0711  134.9799  159.8319 H   0  0  0  0  0  0  0  0  0  0  0  0  # atno 6908 bound_to 6896
  152.5412  134.2349  159.8892 H   0  0  0  0  0  0  0  0  0  0  0  0  # atno 6909 bound_to 6896
  144.7680  140.4363  143.5927 H   0  0  0  0  0  0  0  0  0  0  0  0  # atno 7974 bound_to 7965
  154.6750  140.2620  155.6967 H   0  0  0  0  0  0  0  0  0  0  0  0  # atno 8008 bound_to 7997
  156.2674  140.2821  156.1195 H   0  0  0  0  0  0  0  0  0  0  0  0  # atno 8009 bound_to 7997
  155.1113  140.0375  157.2715 H   0  0  0  0  0  0  0  0  0  0  0  0  # atno 8010 bound_to 7997
  140.7254  143.4952  150.9939 H   0  0  0  0  0  0  0  0  0  0  0  0  # atno 10167 bound_to 10162
  157.0897  130.6422  149.5846 H   0  0  0  0  0  0  0  0  0  0  0  0  # atno 10718 bound_to 10713
  154.5322  135.2800  155.1170 H   0  0  0  0  0  0  0  0  0  0  0  0  # atno 10763 bound_to 10752
  154.2685  135.6308  153.5305 H   0  0  0  0  0  0  0  0  0  0  0  0  # atno 10764 bound_to 10752
  152.9959  135.5622  154.5839 H   0  0  0  0  0  0  0  0  0  0  0  0  # atno 10765 bound_to 10752
  141.1067  133.6613  156.4448 H   0  0  0  0  0  0  0  0  0  0  0  0  # atno 11005 bound_to 11000
  145.6409  139.1550  143.2916 LP  0  0  0  0  0  0  0  0  0  0  0  0  # atno 17320 bound_to 7965
  146.1804  140.6506  142.9192 LP  0  0  0  0  0  0  0  0  0  0  0  0  # atno 17321 bound_to 7965
  139.8659  143.7255  152.3170 LP  0  0  0  0  0  0  0  0  0  0  0  0  # atno 17342 bound_to 10162
  139.7486  144.7540  151.0541 LP  0  0  0  0  0  0  0  0  0  0  0  0  # atno 17343 bound_to 10162
  155.9901  130.4951  150.7244 LP  0  0  0  0  0  0  0  0  0  0  0  0  # atno 17370 bound_to 10713
  157.4732  131.0895  151.0620 LP  0  0  0  0  0  0  0  0  0  0  0  0  # atno 17371 bound_to 10713
  140.4884  134.6599  157.5200 LP  0  0  0  0  0  0  0  0  0  0  0  0  # atno 17394 bound_to 11000
  139.9940  134.6940  155.9641 LP  0  0  0  0  0  0  0  0  0  0  0  0  # atno 17395 bound_to 11000

$$$$
