AV-unprocessed.smi:109|AV-procd|sdf|1046|dock8
  -GOLD-   2262018 83D 1   1.00000     0.00000
 Structure written by MMmdl.
 58 61  0  0  0  0  0  0  0  0  1 V2000
  150.7640  136.2830  158.3901 O   0  0  0  0  0  0  0  0  0  0  0  0
  149.5950  136.9824  158.7577 C   0  0  0  0  0  0  0  0  0  0  0  0
  148.3754  136.3749  158.0462 C   0  0  0  0  0  0  0  0  0  0  0  0
  147.9605  135.0067  158.6312 C   0  0  1  0  0  0  0  0  0  0  0  0
  148.8974  133.9756  158.1861 N   0  0  0  0  0  0  0  0  0  0  0  0
  149.0470  133.6670  156.8792 C   0  0  0  0  0  0  0  0  0  0  0  0
  150.2705  133.6566  156.2890 N   0  0  0  0  0  0  0  0  0  0  0  0
  150.3869  133.3343  154.9976 C   0  0  0  0  0  0  0  0  0  0  0  0
  149.4283  132.9935  154.1341 N   0  0  0  0  0  0  0  0  0  0  0  0
  148.1957  133.0049  154.7206 C   0  0  0  0  0  0  0  0  0  0  0  0
  147.9253  133.3298  156.0790 C   0  0  0  0  0  0  0  0  0  0  0  0
  146.5622  133.2325  156.3251 N   0  0  0  0  0  0  0  0  0  0  0  0
  146.0596  132.8657  155.1770 C   0  0  0  0  0  0  0  0  0  0  0  0
  146.9715  132.6989  154.1587 N   0  0  0  0  0  0  0  0  0  0  0  0
  146.6918  132.2667  152.7527 C   0  0  1  0  0  0  0  0  0  0  0  0
  145.3219  132.0786  152.5874 O   0  0  0  0  0  0  0  0  0  0  0  0
  144.9076  132.4940  151.2862 C   0  0  1  0  0  0  0  0  0  0  0  0
  143.8070  133.5538  151.4621 C   0  0  0  0  0  0  0  0  0  0  0  0
  143.5502  134.2045  150.2355 O   0  0  0  0  0  0  0  0  0  0  0  0
  146.1663  133.0294  150.5780 C   0  0  2  0  0  0  0  0  0  0  0  0
  146.6769  132.0310  149.7153 O   0  0  0  0  0  0  0  0  0  0  0  0
  147.1450  133.2953  151.7093 C   0  0  1  0  0  0  0  0  0  0  0  0
  147.0556  134.6362  152.1569 O   0  0  0  0  0  0  0  0  0  0  0  0
  147.8206  134.9909  160.1783 C   0  0  0  0  0  0  0  0  0  0  0  0
  147.0521  133.7564  160.6976 C   0  0  0  0  0  0  0  0  0  0  0  0
  147.0244  133.7186  162.2343 C   0  0  0  0  0  0  0  0  0  0  0  0
  146.4247  135.0107  162.8105 C   0  0  0  0  0  0  0  0  0  0  0  0
  147.1791  136.2476  162.2990 C   0  0  0  0  0  0  0  0  0  0  0  0
  147.2110  136.2857  160.7623 C   0  0  0  0  0  0  0  0  0  0  0  0
  147.1993  131.3074  152.6424 H   0  0  0  0  0  0  0  0  0  0  0  0
  144.4922  131.6304  150.7640 H   0  0  0  0  0  0  0  0  0  0  0  0
  145.9711  133.9193  149.9779 H   0  0  0  0  0  0  0  0  0  0  0  0
  148.1814  133.1028  151.4287 H   0  0  0  0  0  0  0  0  0  0  0  0
  151.4129  136.4080  159.0658 H   0  0  0  0  0  0  0  0  0  0  0  0
  149.4754  136.9278  159.8401 H   0  0  0  0  0  0  0  0  0  0  0  0
  149.7185  138.0335  158.4954 H   0  0  0  0  0  0  0  0  0  0  0  0
  147.5392  137.0735  158.0964 H   0  0  0  0  0  0  0  0  0  0  0  0
  148.6213  136.2697  156.9903 H   0  0  0  0  0  0  0  0  0  0  0  0
  146.9789  134.7815  158.2130 H   0  0  0  0  0  0  0  0  0  0  0  0
  149.3894  133.4879  158.9210 H   0  0  0  0  0  0  0  0  0  0  0  0
  151.3911  133.3485  154.6003 H   0  0  0  0  0  0  0  0  0  0  0  0
  145.0012  132.6965  155.0420 H   0  0  0  0  0  0  0  0  0  0  0  0
  142.8822  133.0821  151.7956 H   0  0  0  0  0  0  0  0  0  0  0  0
  144.0832  134.2892  152.2179 H   0  0  0  0  0  0  0  0  0  0  0  0
  142.6832  133.9653  149.9450 H   0  0  0  0  0  0  0  0  0  0  0  0
  147.4334  131.6407  150.1261 H   0  0  0  0  0  0  0  0  0  0  0  0
  147.9000  135.0453  152.0434 H   0  0  0  0  0  0  0  0  0  0  0  0
  148.8290  134.9053  160.5860 H   0  0  0  0  0  0  0  0  0  0  0  0
  146.0266  133.7596  160.3290 H   0  0  0  0  0  0  0  0  0  0  0  0
  147.5133  132.8434  160.3195 H   0  0  0  0  0  0  0  0  0  0  0  0
  146.4481  132.8577  162.5744 H   0  0  0  0  0  0  0  0  0  0  0  0
  148.0370  133.5828  162.6162 H   0  0  0  0  0  0  0  0  0  0  0  0
  145.3730  135.0818  162.5297 H   0  0  0  0  0  0  0  0  0  0  0  0
  146.4529  134.9809  163.9000 H   0  0  0  0  0  0  0  0  0  0  0  0
  146.7105  137.1540  162.6834 H   0  0  0  0  0  0  0  0  0  0  0  0
  148.1993  136.2393  162.6851 H   0  0  0  0  0  0  0  0  0  0  0  0
  147.7831  137.1548  160.4363 H   0  0  0  0  0  0  0  0  0  0  0  0
  146.1958  136.4257  160.3904 H   0  0  0  0  0  0  0  0  0  0  0  0
  1  2  1  0  0  0  0
  1 34  1  0  0  0  0
  2  3  1  0  0  0  0
  2 35  1  0  0  0  0
  2 36  1  0  0  0  0
  3  4  1  0  0  0  0
  3 37  1  0  0  0  0
  3 38  1  0  0  0  0
  4  5  1  0  0  0  0
  4 24  1  0  0  0  0
  4 39  1  0  0  0  0
  5  6  1  0  0  0  0
  5 40  1  0  0  0  0
  6 11  1  0  0  0  0
  6  7  2  0  0  0  0
  7  8  1  0  0  0  0
  8  9  2  0  0  0  0
  8 41  1  0  0  0  0
  9 10  1  0  0  0  0
 10 14  1  0  0  0  0
 10 11  2  0  0  0  0
 11 12  1  0  0  0  0
 12 13  2  0  0  0  0
 13 14  1  0  0  0  0
 13 42  1  0  0  0  0
 14 15  1  0  0  0  0
 15 30  1  0  0  0  0
 15 22  1  0  0  0  0
 15 16  1  0  0  0  0
 16 17  1  0  0  0  0
 17 31  1  0  0  0  0
 17 18  1  0  0  0  0
 17 20  1  0  0  0  0
 18 19  1  0  0  0  0
 18 43  1  0  0  0  0
 18 44  1  0  0  0  0
 19 45  1  0  0  0  0
 20 32  1  0  0  0  0
 20 21  1  0  0  0  0
 20 22  1  0  0  0  0
 21 46  1  0  0  0  0
 22 33  1  0  0  0  0
 22 23  1  0  0  0  0
 23 47  1  0  0  0  0
 24 29  1  0  0  0  0
 24 25  1  0  0  0  0
 24 48  1  0  0  0  0
 25 26  1  0  0  0  0
 25 49  1  0  0  0  0
 25 50  1  0  0  0  0
 26 27  1  0  0  0  0
 26 51  1  0  0  0  0
 26 52  1  0  0  0  0
 27 28  1  0  0  0  0
 27 53  1  0  0  0  0
 27 54  1  0  0  0  0
 28 29  1  0  0  0  0
 28 55  1  0  0  0  0
 28 56  1  0  0  0  0
 29 57  1  0  0  0  0
 29 58  1  0  0  0  0
M  END
> <s_m_source_file>
AV-unprocessed.smi

> <i_m_source_file_index>
109

> <i_lp_mmshare_version>
43012

> <i_f3d_flags>
0

> <s_epik_input>
W0NIMl0xW0NIMl1bQ0gyXVtDSDJdW0NIMl1bQ0hdMVtDQEhdKFtDSDJdW0NIMl1bT0hdKVtOSF1jKG5bY0hdbjIpYyhjMjMpbltjSF1uM1tDQEBIXTRPW0NASF0oW0NIMl1bT0hdKVtDQEBIXShbT0hdKVtDQEhdNFtPSF0=

> <s_epik_cmdline>
J2VwaWtfcHl0aG9uJywgJy1waCcsICc3LjAnLCAnLXRuJywgJzgnLCAnLW1hJywgJzIwMCcsICctbWV0YWxfYmluZGluZycsICctaW1hZScsICc8aW5maWxlLm1hZT4nLCAnLW9tYWUnLCAnPG91dGZpbGUubWFlPic=

> <r_lp_tautomer_probability>
1

> <r_epik_Ionization_Penalty>
0.000793976

> <r_epik_Ionization_Penalty_Charging>
0

> <r_epik_Ionization_Penalty_Neutral>
0.000793976

> <r_epik_State_Penalty>
-0

> <r_epik_Charging_Adjusted_Penalty>
0

> <i_epik_Tot_Q>
0

> <i_epik_Tot_abs_Q>
0

> <r_epik_Metal_State_Penalty>
-0

> <b_epik_Metal_Only>
0

> <s_epik_Chemistry_Notes>
This compound contains an acetal/aminal-like group ( X-CH(R)-Y where X, Y are N, S, or O) that may be acid/base labile, releasing an aldehyde.

> <s_lp_Force_Field>
OPLS_2005

> <r_lp_Energy>
52.4563

> <b_lp_Chiralities_Consistent>
1

> <s_lp_Variant>
AV-unprocessed.smi:109-16

> <Gold.Version>
5.8.1

> <Gold.Id.Protein>
6NUR|6NUR_protein|mol2

> <Gold.PLP.Fitness>
51.2208

> <Gold.PLP.PLP>
-41.0354

> <Gold.PLP.part.hbond>
-3.7392

> <Gold.PLP.part.metal>
0.0000

> <Gold.PLP.part.buried>
-8.1935

> <Gold.PLP.part.nonpolar>
-29.0365

> <Gold.PLP.part.repulsive>
0.6042

> <Gold.PLP.ligand.clash>
0.0000

> <Gold.PLP.ligand.torsion>
0.9868

> <Gold.PLP.Chemscore.Hbond>
3.0000

> <Gold.PLP.Chemscore.CHOScore>
1.0000

> <Gold.PLP.Chemscore.Metal>
0.0000

> <Gold.Chemscore.Hbonds>
donor molecule, donor type, donor heavy atom, donor atom, acceptor molecule, acceptor atom, score
      L1  H    19    45       P1 10186  0.99
      L1  H    21    46       P1 10747  1.00
      L1  H    23    47       P1  7948  1.00
      L1  C    13    42       P1 10957  1.00

> <Gold.PLP.Chemscore.Internal.Correction>
0.1591

> <Gold.Rescore>
     Score         DG    S(hbond)    S(metal)    S(lipo)     H(rot)  DE(clash)    DE(int)     intcor
      9.79     -10.69       2.89        0.00      81.73       5.47       0.01       0.89       ----

> <Gold.Chemscore.Fitness>
9.7907

> <Gold.Chemscore.DG>
-10.6916

> <Gold.Chemscore.ZeroCoef>
-5.4800

> <Gold.Chemscore.Hbond>
2.8872

> <Gold.Chemscore.Metal>
0.0000

> <Gold.Chemscore.Lipo>
81.7255

> <Gold.Chemscore.Internal_Hbond>
0.0000

> <Gold.Chemscore.DEClash>
0.0121

> <Gold.Chemscore.DEInternal>
0.8887

> <Gold.Chemscore.Rot>
5.4662

> <Gold.Chemscore.Internal.Correction>
   9.000000E+99

> <Gold.Chemscore.Hbonds>
donor molecule, donor type, donor heavy atom, donor atom, acceptor molecule, acceptor atom, score
      L1  H    19    45       P1 10186  0.94
      L1  H    21    46       P1 10747  0.99
      L1  H    23    47       P1  7948  0.70

> <Gold.Chemscore.Hbond.Weighted>
-9.6432

> <Gold.Chemscore.Metal.Weighted>
-0.0000

> <Gold.Chemscore.Lipo.Weighted>
-9.5619

> <Gold.Chemscore.Internal_Hbond.Weighted>
0.0000

> <Gold.Chemscore.DEClash.Weighted>
0.0121

> <Gold.Chemscore.DEInternal.Weighted>
0.8887

> <Gold.Chemscore.Rot.Weighted>
13.9935

> <Gold.Chemscore.Internal.Correction.Weighted>
   9.000000E+99

> <Gold.Protein.RotatedTorsions>
[ 6907 6896 6895 6894 ] final   69.73 input  -60.11 | X-H torsion
[ 7974 7965 7964 7962 ] final  -95.88 input  175.53 | X-H torsion
[ 8008 7997 7996 7995 ] final   67.67 input   59.86 | X-H torsion
[ 10167 10162 10161 10158 ] final   76.94 input  -65.29 | X-H torsion
[ 10718 10713 10712 10709 ] final  -20.98 input   66.30 | X-H torsion
[ 10763 10752 10751 10750 ] final   32.25 input  -60.55 | X-H torsion
[ 11005 11000 10999 10996 ] final  -83.09 input  -57.11 | X-H torsion

> <Gold.Protein.ActiveResidues>
 VAL166  LYS551  ARG553  GLY616  TRP617  ASP618  TYR619  PRO620  LYS621  CYS622 
 ASP623  PHE694  ASN695  SER759  ASP760  ASP761  ALA762  ILE779  LEU786  VAL792 
 PHE793  MET794  SER795  GLU796  ALA797  LYS798  CYS799  TRP800  GLU811  SER814 

> <Gold.Protein.RotatedAtoms>
  152.4705  134.4972  159.9713 H   0  0  0  0  0  0  0  0  0  0  0  0  # atno 6907 bound_to 6896
  151.5000  133.3500  159.2875 H   0  0  0  0  0  0  0  0  0  0  0  0  # atno 6908 bound_to 6896
  150.8712  134.8114  159.7218 H   0  0  0  0  0  0  0  0  0  0  0  0  # atno 6909 bound_to 6896
  145.3542  140.9481  143.2537 H   0  0  0  0  0  0  0  0  0  0  0  0  # atno 7974 bound_to 7965
  155.6964  140.3495  155.4915 H   0  0  0  0  0  0  0  0  0  0  0  0  # atno 8008 bound_to 7997
  155.9479  140.1113  157.1024 H   0  0  0  0  0  0  0  0  0  0  0  0  # atno 8009 bound_to 7997
  154.4116  140.1200  156.4999 H   0  0  0  0  0  0  0  0  0  0  0  0  # atno 8010 bound_to 7997
  139.9868  144.5786  150.7852 H   0  0  0  0  0  0  0  0  0  0  0  0  # atno 10167 bound_to 10162
  156.5245  130.4640  149.6579 H   0  0  0  0  0  0  0  0  0  0  0  0  # atno 10718 bound_to 10713
  153.0272  135.6418  154.1326 H   0  0  0  0  0  0  0  0  0  0  0  0  # atno 10763 bound_to 10752
  154.1053  135.2856  155.3244 H   0  0  0  0  0  0  0  0  0  0  0  0  # atno 10764 bound_to 10752
  154.6370  135.5473  153.7808 H   0  0  0  0  0  0  0  0  0  0  0  0  # atno 10765 bound_to 10752
  141.1660  133.7277  156.8668 H   0  0  0  0  0  0  0  0  0  0  0  0  # atno 11005 bound_to 11000
  144.8695  139.5059  143.6774 LP  0  0  0  0  0  0  0  0  0  0  0  0  # atno 17320 bound_to 7965
  146.2955  139.7265  142.9130 LP  0  0  0  0  0  0  0  0  0  0  0  0  # atno 17321 bound_to 7965
  140.7469  143.2898  151.3362 LP  0  0  0  0  0  0  0  0  0  0  0  0  # atno 17342 bound_to 10162
  139.6369  144.0614  152.2523 LP  0  0  0  0  0  0  0  0  0  0  0  0  # atno 17343 bound_to 10162
  156.3118  130.7233  151.2127 LP  0  0  0  0  0  0  0  0  0  0  0  0  # atno 17370 bound_to 10713
  157.7431  131.0479  150.4968 LP  0  0  0  0  0  0  0  0  0  0  0  0  # atno 17371 bound_to 10713
  140.1809  134.9034  157.2947 LP  0  0  0  0  0  0  0  0  0  0  0  0  # atno 17394 bound_to 11000
  140.2396  134.3812  155.7486 LP  0  0  0  0  0  0  0  0  0  0  0  0  # atno 17395 bound_to 11000

$$$$
