AV-unprocessed.smi:912|AV-procd|sdf|4144|dock7
  -GOLD-   22720 2 53D 1   1.00000     0.00000
 Structure written by MMmdl.
 27 27  0  0  0  0  0  0  0  0  2 V2000
  154.0927  137.4578  156.8426 C   0  0  0  0  0  0  0  0  0  0  0  0
  153.2853  138.6500  156.5885 N   0  0  0  0  0  0  0  0  0  0  0  0
  152.2589  138.5791  155.5306 C   0  0  1  0  0  0  0  0  0  0  0  0
  153.0526  138.5447  154.1975 C   0  0  0  0  0  0  0  0  0  0  0  0
  151.3492  137.3278  155.6741 C   0  0  0  0  0  0  0  0  0  0  0  0
  150.6108  137.2251  156.7850 N   0  0  0  0  0  0  0  0  0  0  0  0
  151.3065  136.4668  154.7968 O   0  0  0  0  0  0  0  0  0  0  0  0
  151.3378  139.8175  155.5497 C   0  0  0  0  0  0  0  0  0  0  0  0
  150.2166  139.9386  154.6864 C   0  0  0  0  0  0  0  0  0  0  0  0
  149.4096  141.0932  154.7410 C   0  0  0  0  0  0  0  0  0  0  0  0
  149.7057  142.0824  155.6093 N   0  3  0  0  0  0  0  0  0  0  0  0
  150.7619  142.0231  156.4463 C   0  0  0  0  0  0  0  0  0  0  0  0
  151.6036  140.8930  156.4356 C   0  0  0  0  0  0  0  0  0  0  0  0
  154.8811  137.7096  157.5517 H   0  0  0  0  0  0  0  0  0  0  0  0
  154.5735  137.0873  155.9376 H   0  0  0  0  0  0  0  0  0  0  0  0
  153.5128  136.6496  157.2878 H   0  0  0  0  0  0  0  0  0  0  0  0
  153.9383  139.3710  156.3162 H   0  0  0  0  0  0  0  0  0  0  0  0
  152.4012  138.4786  153.3261 H   0  0  0  0  0  0  0  0  0  0  0  0
  153.7292  137.6919  154.1377 H   0  0  0  0  0  0  0  0  0  0  0  0
  153.6565  139.4450  154.0761 H   0  0  0  0  0  0  0  0  0  0  0  0
  149.9908  136.4375  156.9063 H   0  0  0  0  0  0  0  0  0  0  0  0
  150.6610  137.9476  157.4888 H   0  0  0  0  0  0  0  0  0  0  0  0
  149.9603  139.1656  153.9775 H   0  0  0  0  0  0  0  0  0  0  0  0
  148.5422  141.2539  154.1176 H   0  0  0  0  0  0  0  0  0  0  0  0
  150.9037  142.8766  157.0931 H   0  0  0  0  0  0  0  0  0  0  0  0
  152.4523  140.8628  157.1028 H   0  0  0  0  0  0  0  0  0  0  0  0
  149.1088  142.9098  155.6314 H   0  0  0  0  0  0  0  0  0  0  0  0
  1  2  1  0  0  0  0
  1 14  1  0  0  0  0
  1 15  1  0  0  0  0
  1 16  1  0  0  0  0
  2  3  1  0  0  0  0
  2 17  1  0  0  0  0
  3  4  1  0  0  0  0
  3  5  1  0  0  0  0
  3  8  1  0  0  0  0
  4 18  1  0  0  0  0
  4 19  1  0  0  0  0
  4 20  1  0  0  0  0
  5  6  1  0  0  0  0
  5  7  2  0  0  0  0
  6 21  1  0  0  0  0
  6 22  1  0  0  0  0
  8 13  1  0  0  0  0
  8  9  2  0  0  0  0
  9 10  1  0  0  0  0
  9 23  1  0  0  0  0
 10 11  2  0  0  0  0
 10 24  1  0  0  0  0
 11 12  1  0  0  0  0
 11 27  1  0  0  0  0
 12 13  2  0  0  0  0
 12 25  1  0  0  0  0
 13 26  1  0  0  0  0
M  CHG  1  11   1
M  END
> <s_m_source_file>
AV-unprocessed.smi

> <i_m_source_file_index>
912

> <i_lp_mmshare_version>
43012

> <i_f3d_flags>
0

> <s_epik_input>
W0NIM11bTkhdW0NAQF0oW0NIM10pKEMoPU8pW05IMl0pYzFbY0hdW2NIXW5bY0hdW2NIXTE=

> <s_epik_cmdline>
J2VwaWtfcHl0aG9uJywgJy1waCcsICc3LjAnLCAnLXRuJywgJzgnLCAnLW1hJywgJzIwMCcsICctbWV0YWxfYmluZGluZycsICctaW1hZScsICc8aW5maWxlLm1hZT4nLCAnLW9tYWUnLCAnPG91dGZpbGUubWFlPic=

> <r_epik_Ionization_Penalty>
0.562542

> <r_epik_Ionization_Penalty_Charging>
0.554844

> <r_epik_Ionization_Penalty_Neutral>
0.00769834

> <r_epik_State_Penalty>
1.39075

> <r_epik_Charging_Adjusted_Penalty>
1.94559

> <i_epik_Tot_Q>
1

> <i_epik_Tot_abs_Q>
1

> <r_epik_Metal_State_Penalty>
1.55563

> <b_epik_Metal_Only>
0

> <s_lp_Force_Field>
OPLS_2005

> <r_lp_Energy>
17.994

> <b_lp_Chiralities_Consistent>
1

> <s_lp_Variant>
AV-unprocessed.smi:912-5

> <Gold.Version>
5.8.1

> <Gold.Id.Protein>
6NUR|6NUR_protein|mol2

> <Gold.PLP.Fitness>
32.3873

> <Gold.PLP.PLP>
-23.8436

> <Gold.PLP.part.hbond>
-3.0000

> <Gold.PLP.part.metal>
0.0000

> <Gold.PLP.part.buried>
-1.2516

> <Gold.PLP.part.nonpolar>
-19.3252

> <Gold.PLP.part.repulsive>
0.3589

> <Gold.PLP.ligand.clash>
0.0000

> <Gold.PLP.ligand.torsion>
0.2439

> <Gold.PLP.Chemscore.Hbond>
3.0000

> <Gold.PLP.Chemscore.CHOScore>
0.0000

> <Gold.PLP.Chemscore.Metal>
0.0000

> <Gold.Chemscore.Hbonds>
donor molecule, donor type, donor heavy atom, donor atom, acceptor molecule, acceptor atom, score
      L1  H    11    27       P1  8028  2.00
      P1  H 10752 10765       L1     7  1.00

> <Gold.PLP.Chemscore.Internal.Correction>
0.0313

> <Gold.Rescore>
     Score         DG    S(hbond)    S(metal)    S(lipo)     H(rot)  DE(clash)    DE(int)     intcor
     13.59     -14.13       1.97        0.00      57.61       1.82       0.03       0.51       ----

> <Gold.Chemscore.Fitness>
13.5936

> <Gold.Chemscore.DG>
-14.1288

> <Gold.Chemscore.ZeroCoef>
-5.4800

> <Gold.Chemscore.Hbond>
1.9682

> <Gold.Chemscore.Metal>
0.0000

> <Gold.Chemscore.Lipo>
57.6127

> <Gold.Chemscore.Internal_Hbond>
0.0000

> <Gold.Chemscore.DEClash>
0.0300

> <Gold.Chemscore.DEInternal>
0.5052

> <Gold.Chemscore.Rot>
1.8226

> <Gold.Chemscore.Internal.Correction>
   9.000000E+99

> <Gold.Chemscore.Hbonds>
donor molecule, donor type, donor heavy atom, donor atom, acceptor molecule, acceptor atom, score
      L1  H    11    27       P1  8028  0.96
      P1  H 10752 10765       L1     7  0.94

> <Gold.Chemscore.Hbond.Weighted>
-6.5739

> <Gold.Chemscore.Metal.Weighted>
-0.0000

> <Gold.Chemscore.Lipo.Weighted>
-6.7407

> <Gold.Chemscore.Internal_Hbond.Weighted>
0.0000

> <Gold.Chemscore.DEClash.Weighted>
0.0300

> <Gold.Chemscore.DEInternal.Weighted>
0.5052

> <Gold.Chemscore.Rot.Weighted>
4.6659

> <Gold.Chemscore.Internal.Correction.Weighted>
   9.000000E+99

> <Gold.Protein.RotatedTorsions>
[ 6907 6896 6895 6894 ] final  167.92 input  -60.11 | X-H torsion
[ 7974 7965 7964 7962 ] final -154.92 input  175.53 | X-H torsion
[ 8008 7997 7996 7995 ] final  -34.10 input   59.86 | X-H torsion
[ 10167 10162 10161 10158 ] final -179.43 input  -65.29 | X-H torsion
[ 10718 10713 10712 10709 ] final  118.00 input   66.30 | X-H torsion
[ 10763 10752 10751 10750 ] final  164.11 input  -60.55 | X-H torsion
[ 11005 11000 10999 10996 ] final    7.90 input  -57.11 | X-H torsion

> <Gold.Protein.ActiveResidues>
 VAL166  LYS551  ARG553  GLY616  TRP617  ASP618  TYR619  PRO620  LYS621  CYS622 
 ASP623  PHE694  ASN695  SER759  ASP760  ASP761  ALA762  ILE779  LEU786  VAL792 
 PHE793  MET794  SER795  GLU796  ALA797  LYS798  CYS799  TRP800  GLU811  SER814 

> <Gold.Protein.RotatedAtoms>
  151.8558  133.3448  159.3687 H   0  0  0  0  0  0  0  0  0  0  0  0  # atno 6907 bound_to 6896
  150.7193  134.5254  159.5683 H   0  0  0  0  0  0  0  0  0  0  0  0  # atno 6908 bound_to 6896
  152.2758  134.7884  160.0457 H   0  0  0  0  0  0  0  0  0  0  0  0  # atno 6909 bound_to 6896
  144.7665  140.4321  143.5938 H   0  0  0  0  0  0  0  0  0  0  0  0  # atno 7974 bound_to 7965
  154.4130  140.1693  156.1994 H   0  0  0  0  0  0  0  0  0  0  0  0  # atno 8008 bound_to 7997
  155.9536  140.3399  155.6406 H   0  0  0  0  0  0  0  0  0  0  0  0  # atno 8009 bound_to 7997
  155.6838  140.0725  157.2465 H   0  0  0  0  0  0  0  0  0  0  0  0  # atno 8010 bound_to 7997
  139.5387  144.2425  152.0849 H   0  0  0  0  0  0  0  0  0  0  0  0  # atno 10167 bound_to 10162
  157.6059  131.1043  150.7695 H   0  0  0  0  0  0  0  0  0  0  0  0  # atno 10718 bound_to 10713
  154.3040  135.2758  155.2598 H   0  0  0  0  0  0  0  0  0  0  0  0  # atno 10763 bound_to 10752
  154.5022  135.5805  153.6543 H   0  0  0  0  0  0  0  0  0  0  0  0  # atno 10764 bound_to 10752
  152.9897  135.6160  154.3212 H   0  0  0  0  0  0  0  0  0  0  0  0  # atno 10765 bound_to 10752
  140.5430  134.0356  155.7910 H   0  0  0  0  0  0  0  0  0  0  0  0  # atno 11005 bound_to 11000
  145.6454  139.1556  143.2892 LP  0  0  0  0  0  0  0  0  0  0  0  0  # atno 17320 bound_to 7965
  146.1777  140.6547  142.9204 LP  0  0  0  0  0  0  0  0  0  0  0  0  # atno 17321 bound_to 7965
  140.1899  144.4762  150.6484 LP  0  0  0  0  0  0  0  0  0  0  0  0  # atno 17342 bound_to 10162
  140.6606  143.2251  151.5864 LP  0  0  0  0  0  0  0  0  0  0  0  0  # atno 17343 bound_to 10162
  156.8083  130.4944  149.5359 LP  0  0  0  0  0  0  0  0  0  0  0  0  # atno 17370 bound_to 10713
  156.1145  130.6065  151.0100 LP  0  0  0  0  0  0  0  0  0  0  0  0  # atno 17371 bound_to 10713
  141.1216  133.9452  157.2719 LP  0  0  0  0  0  0  0  0  0  0  0  0  # atno 17394 bound_to 11000
  139.9494  135.0178  156.8949 LP  0  0  0  0  0  0  0  0  0  0  0  0  # atno 17395 bound_to 11000

$$$$
