AV-unprocessed.smi:2355|AV-procd|sdf|9392|dock7
  -GOLD-   2272013 23D 1   1.00000     0.00000
 Structure written by MMmdl.
 49 50  0  0  0  0  0  0  0  0  2 V2000
  151.8404  145.9640  160.5403 C   0  0  0  0  0  0  0  0  0  0  0  0
  151.9235  144.5976  159.8938 C   0  0  0  0  0  0  0  0  0  0  0  0
  152.7482  143.5929  160.4346 C   0  0  0  0  0  0  0  0  0  0  0  0
  152.7868  142.3433  159.7857 C   0  0  0  0  0  0  0  0  0  0  0  0
  153.6511  141.2175  160.3131 C   0  0  0  0  0  0  0  0  0  0  0  0
  152.0745  142.0697  158.6717 N   0  0  0  0  0  0  0  0  0  0  0  0
  151.2749  143.0293  158.1431 C   0  0  0  0  0  0  0  0  0  0  0  0
  150.4887  142.8421  156.9751 N   0  0  0  0  0  0  0  0  0  0  0  0
  150.1668  141.6843  156.3725 C   0  0  0  0  0  0  0  0  0  0  0  0
  150.4748  140.5621  156.7761 O   0  0  0  0  0  0  0  0  0  0  0  0
  149.4710  141.8958  155.2446 N   0  0  0  0  0  0  0  0  0  0  0  0
  148.9802  140.8583  154.3342 C   0  0  1  0  0  0  0  0  0  0  0  0
  150.0563  139.7712  154.1763 C   0  0  0  0  0  0  0  0  0  0  0  0
  147.5931  140.3007  154.7770 C   0  0  1  0  0  0  0  0  0  0  0  0
  146.5251  141.4211  154.8430 C   0  0  0  0  0  0  0  0  0  0  0  0
  147.2001  139.1382  153.9136 N   0  3  0  0  0  0  0  0  0  0  0  0
  146.0409  138.3828  154.4564 C   0  0  0  0  0  0  0  0  0  0  0  0
  145.7967  137.1053  153.6375 C   0  0  0  0  0  0  0  0  0  0  0  0
  145.5711  137.4528  152.2786 O   0  0  0  0  0  0  0  0  0  0  0  0
  146.6986  138.1036  151.7094 C   0  0  0  0  0  0  0  0  0  0  0  0
  146.9883  139.4111  152.4669 C   0  0  0  0  0  0  0  0  0  0  0  0
  151.1782  144.3095  158.7326 C   0  0  0  0  0  0  0  0  0  0  0  0
  152.2216  145.9392  161.5613 H   0  0  0  0  0  0  0  0  0  0  0  0
  150.8069  146.3101  160.5727 H   0  0  0  0  0  0  0  0  0  0  0  0
  152.4274  146.6853  159.9715 H   0  0  0  0  0  0  0  0  0  0  0  0
  153.3358  143.7752  161.3228 H   0  0  0  0  0  0  0  0  0  0  0  0
  154.0759  141.4678  161.2854 H   0  0  0  0  0  0  0  0  0  0  0  0
  154.4712  141.0162  159.6237 H   0  0  0  0  0  0  0  0  0  0  0  0
  153.0634  140.3058  160.4249 H   0  0  0  0  0  0  0  0  0  0  0  0
  150.1535  143.6879  156.5380 H   0  0  0  0  0  0  0  0  0  0  0  0
  149.2632  142.8513  154.9915 H   0  0  0  0  0  0  0  0  0  0  0  0
  148.8795  141.2994  153.3423 H   0  0  0  0  0  0  0  0  0  0  0  0
  149.7111  138.9683  153.5245 H   0  0  0  0  0  0  0  0  0  0  0  0
  150.3414  139.3300  155.1313 H   0  0  0  0  0  0  0  0  0  0  0  0
  150.9617  140.1851  153.7306 H   0  0  0  0  0  0  0  0  0  0  0  0
  147.6918  139.9217  155.7958 H   0  0  0  0  0  0  0  0  0  0  0  0
  146.8381  142.2355  155.4947 H   0  0  0  0  0  0  0  0  0  0  0  0
  145.5841  141.0600  155.2581 H   0  0  0  0  0  0  0  0  0  0  0  0
  146.3206  141.8489  153.8611 H   0  0  0  0  0  0  0  0  0  0  0  0
  146.2086  138.1086  155.4969 H   0  0  0  0  0  0  0  0  0  0  0  0
  145.1508  139.0132  154.4351 H   0  0  0  0  0  0  0  0  0  0  0  0
  146.6423  136.4203  153.7189 H   0  0  0  0  0  0  0  0  0  0  0  0
  144.9210  136.5781  154.0164 H   0  0  0  0  0  0  0  0  0  0  0  0
  147.5658  137.4414  151.7335 H   0  0  0  0  0  0  0  0  0  0  0  0
  146.4911  138.3157  150.6607 H   0  0  0  0  0  0  0  0  0  0  0  0
  146.1618  140.1119  152.3393 H   0  0  0  0  0  0  0  0  0  0  0  0
  147.8754  139.8596  152.0208 H   0  0  0  0  0  0  0  0  0  0  0  0
  150.5398  145.0664  158.3001 H   0  0  0  0  0  0  0  0  0  0  0  0
  147.9875  138.5056  153.9490 H   0  0  0  0  0  0  0  0  0  0  0  0
  1  2  1  0  0  0  0
  1 23  1  0  0  0  0
  1 24  1  0  0  0  0
  1 25  1  0  0  0  0
  2 22  1  0  0  0  0
  2  3  2  0  0  0  0
  3  4  1  0  0  0  0
  3 26  1  0  0  0  0
  4  5  1  0  0  0  0
  4  6  2  0  0  0  0
  5 27  1  0  0  0  0
  5 28  1  0  0  0  0
  5 29  1  0  0  0  0
  6  7  1  0  0  0  0
  7  8  1  0  0  0  0
  7 22  2  0  0  0  0
  8  9  1  0  0  0  0
  8 30  1  0  0  0  0
  9 10  2  0  0  0  0
  9 11  1  0  0  0  0
 11 12  1  0  0  0  0
 11 31  1  0  0  0  0
 12 13  1  0  0  0  0
 12 14  1  0  0  0  0
 12 32  1  0  0  0  0
 13 33  1  0  0  0  0
 13 34  1  0  0  0  0
 13 35  1  0  0  0  0
 14 15  1  0  0  0  0
 14 16  1  0  0  0  0
 14 36  1  0  0  0  0
 15 37  1  0  0  0  0
 15 38  1  0  0  0  0
 15 39  1  0  0  0  0
 16 21  1  0  0  0  0
 16 17  1  0  0  0  0
 16 49  1  0  0  0  0
 17 18  1  0  0  0  0
 17 40  1  0  0  0  0
 17 41  1  0  0  0  0
 18 19  1  0  0  0  0
 18 42  1  0  0  0  0
 18 43  1  0  0  0  0
 19 20  1  0  0  0  0
 20 21  1  0  0  0  0
 20 44  1  0  0  0  0
 20 45  1  0  0  0  0
 21 46  1  0  0  0  0
 21 47  1  0  0  0  0
 22 48  1  0  0  0  0
M  CHG  1  16   1
M  END
> <s_m_source_file>
AV-unprocessed.smi

> <i_m_source_file_index>
2355

> <i_lp_mmshare_version>
43012

> <i_f3d_flags>
0

> <s_epik_input>
W0NIM11jMVtjSF1jKFtDSDNdKW5jKFtjSF0xKVtOSF1DKD1PKVtOSF1bQ0BIXShbQ0gzXSlbQ0BIXShbQ0gzXSlOMltDSDJdW0NIMl1PW0NIMl1bQ0gyXTI=

> <s_epik_cmdline>
J2VwaWtfcHl0aG9uJywgJy1waCcsICc3LjAnLCAnLXRuJywgJzgnLCAnLW1hJywgJzIwMCcsICctbWV0YWxfYmluZGluZycsICctaW1hZScsICc8aW5maWxlLm1hZT4nLCAnLW9tYWUnLCAnPG91dGZpbGUubWFlPic=

> <r_epik_Ionization_Penalty>
0.602711

> <r_epik_Ionization_Penalty_Charging>
0.602531

> <r_epik_Ionization_Penalty_Neutral>
0.000180055

> <r_epik_State_Penalty>
0.617039

> <r_epik_Charging_Adjusted_Penalty>
1.21957

> <i_epik_Tot_Q>
1

> <i_epik_Tot_abs_Q>
1

> <r_epik_Metal_State_Penalty>
0.617075

> <b_epik_Metal_Only>
0

> <s_lp_Force_Field>
OPLS_2005

> <r_lp_Energy>
30.3549

> <b_lp_Chiralities_Consistent>
1

> <s_lp_Variant>
AV-unprocessed.smi:2355-8

> <Gold.Version>
5.8.1

> <Gold.Id.Protein>
6NUR|6NUR_protein|mol2

> <Gold.PLP.Fitness>
47.3389

> <Gold.PLP.PLP>
-42.5695

> <Gold.PLP.part.hbond>
-2.0000

> <Gold.PLP.part.metal>
0.0000

> <Gold.PLP.part.buried>
-2.9308

> <Gold.PLP.part.nonpolar>
-39.9820

> <Gold.PLP.part.repulsive>
0.6641

> <Gold.PLP.ligand.clash>
0.0180

> <Gold.PLP.ligand.torsion>
0.4587

> <Gold.PLP.Chemscore.Hbond>
1.8560

> <Gold.PLP.Chemscore.CHOScore>
0.0000

> <Gold.PLP.Chemscore.Metal>
0.0000

> <Gold.Chemscore.Hbonds>
donor molecule, donor type, donor heavy atom, donor atom, acceptor molecule, acceptor atom, score
      L1  H     8    30       P1  8028  1.00
      L1  H    11    31       P1  8028  0.94

> <Gold.PLP.Chemscore.Internal.Correction>
0.1367

> <Gold.Rescore>
     Score         DG    S(hbond)    S(metal)    S(lipo)     H(rot)  DE(clash)    DE(int)     intcor
     17.51     -21.35       1.86        0.00     114.31       1.45       0.66       3.18       ----

> <Gold.Chemscore.Fitness>
17.5119

> <Gold.Chemscore.DG>
-21.3549

> <Gold.Chemscore.ZeroCoef>
-5.4800

> <Gold.Chemscore.Hbond>
1.8571

> <Gold.Chemscore.Metal>
0.0000

> <Gold.Chemscore.Lipo>
114.3110

> <Gold.Chemscore.Internal_Hbond>
0.0000

> <Gold.Chemscore.DEClash>
0.6648

> <Gold.Chemscore.DEInternal>
3.1782

> <Gold.Chemscore.Rot>
1.4462

> <Gold.Chemscore.Internal.Correction>
   9.000000E+99

> <Gold.Chemscore.Hbonds>
donor molecule, donor type, donor heavy atom, donor atom, acceptor molecule, acceptor atom, score
      L1  H     8    30       P1  8028  0.98
      L1  H    11    31       P1  8028  0.87

> <Gold.Chemscore.Hbond.Weighted>
-6.2028

> <Gold.Chemscore.Metal.Weighted>
-0.0000

> <Gold.Chemscore.Lipo.Weighted>
-13.3744

> <Gold.Chemscore.Internal_Hbond.Weighted>
0.0000

> <Gold.Chemscore.DEClash.Weighted>
0.6648

> <Gold.Chemscore.DEInternal.Weighted>
3.1782

> <Gold.Chemscore.Rot.Weighted>
3.7023

> <Gold.Chemscore.Internal.Correction.Weighted>
   9.000000E+99

> <Gold.Protein.RotatedTorsions>
[ 6907 6896 6895 6894 ] final    0.60 input  -60.11 | X-H torsion
[ 7974 7965 7964 7962 ] final   27.96 input  175.53 | X-H torsion
[ 8008 7997 7996 7995 ] final   39.58 input   59.86 | X-H torsion
[ 10167 10162 10161 10158 ] final  165.38 input  -65.29 | X-H torsion
[ 10718 10713 10712 10709 ] final   72.73 input   66.30 | X-H torsion
[ 10763 10752 10751 10750 ] final  -51.24 input  -60.55 | X-H torsion
[ 11005 11000 10999 10996 ] final -101.46 input  -57.11 | X-H torsion

> <Gold.Protein.ActiveResidues>
 VAL166  LYS551  ARG553  GLY616  TRP617  ASP618  TYR619  PRO620  LYS621  CYS622 
 ASP623  PHE694  ASN695  SER759  ASP760  ASP761  ALA762  ILE779  LEU786  VAL792 
 PHE793  MET794  SER795  GLU796  ALA797  LYS798  CYS799  TRP800  GLU811  SER814 

> <Gold.Protein.RotatedAtoms>
  151.5791  135.1059  160.0012 H   0  0  0  0  0  0  0  0  0  0  0  0  # atno 6907 bound_to 6896
  152.4363  133.7363  159.6626 H   0  0  0  0  0  0  0  0  0  0  0  0  # atno 6908 bound_to 6896
  150.8261  133.8099  159.3141 H   0  0  0  0  0  0  0  0  0  0  0  0  # atno 6909 bound_to 6896
  146.1755  139.7120  142.8937 H   0  0  0  0  0  0  0  0  0  0  0  0  # atno 7974 bound_to 7965
  155.2390  140.3344  155.4294 H   0  0  0  0  0  0  0  0  0  0  0  0  # atno 8008 bound_to 7997
  156.2264  140.1831  156.7398 H   0  0  0  0  0  0  0  0  0  0  0  0  # atno 8009 bound_to 7997
  154.5905  140.0639  156.9217 H   0  0  0  0  0  0  0  0  0  0  0  0  # atno 8010 bound_to 7997
  139.4905  144.4138  151.9268 H   0  0  0  0  0  0  0  0  0  0  0  0  # atno 10167 bound_to 10162
  157.6515  130.9593  150.0970 H   0  0  0  0  0  0  0  0  0  0  0  0  # atno 10718 bound_to 10713
  154.1234  135.6531  153.4907 H   0  0  0  0  0  0  0  0  0  0  0  0  # atno 10763 bound_to 10752
  153.0218  135.5275  154.7074 H   0  0  0  0  0  0  0  0  0  0  0  0  # atno 10764 bound_to 10752
  154.6288  135.2973  155.0211 H   0  0  0  0  0  0  0  0  0  0  0  0  # atno 10765 bound_to 10752
  141.1230  133.8480  157.1235 H   0  0  0  0  0  0  0  0  0  0  0  0  # atno 11005 bound_to 11000
  145.4223  141.0407  143.2957 LP  0  0  0  0  0  0  0  0  0  0  0  0  # atno 17320 bound_to 7965
  144.8230  139.5759  143.6978 LP  0  0  0  0  0  0  0  0  0  0  0  0  # atno 17321 bound_to 7965
  140.3580  144.3008  150.5938 LP  0  0  0  0  0  0  0  0  0  0  0  0  # atno 17342 bound_to 10162
  140.5428  143.2220  151.8057 LP  0  0  0  0  0  0  0  0  0  0  0  0  # atno 17343 bound_to 10162
  156.1903  130.3654  149.8918 LP  0  0  0  0  0  0  0  0  0  0  0  0  # atno 17370 bound_to 10713
  156.6848  130.8872  151.3580 LP  0  0  0  0  0  0  0  0  0  0  0  0  # atno 17371 bound_to 10713
  140.0203  134.9949  157.0577 LP  0  0  0  0  0  0  0  0  0  0  0  0  # atno 17394 bound_to 11000
  140.4451  134.1640  155.7177 LP  0  0  0  0  0  0  0  0  0  0  0  0  # atno 17395 bound_to 11000

$$$$
