AV-unprocessed.smi:72|AV-procd|sdf|740|dock2
  -GOLD-   2262017 73D 1   1.00000     0.00000
 Structure written by MMmdl.
 28 29  0  0  0  0  0  0  0  0  2 V2000
  153.8040  137.7739  155.7654 N   0  0  0  0  0  0  0  0  0  0  0  0
  152.7735  138.3854  155.3732 C   0  0  0  0  0  0  0  0  0  0  0  0
  151.9471  137.8162  154.3317 N   0  0  0  0  0  0  0  0  0  0  0  0
  150.8774  138.4640  153.9854 C   0  0  0  0  0  0  0  0  0  0  0  0
  150.4926  139.7177  154.6260 N   0  0  0  0  0  0  0  0  0  0  0  0
  149.2410  140.4903  154.2347 C   0  0  1  0  0  0  0  0  0  0  0  0
  148.6042  139.8588  153.1600 O   0  0  0  0  0  0  0  0  0  0  0  0
  147.5363  139.0471  153.6405 C   0  0  2  0  0  0  0  0  0  0  0  0
  146.5605  138.6825  152.5085 C   0  0  0  0  0  0  0  0  0  0  0  0
  147.2775  138.1893  151.3970 O   0  0  0  0  0  0  0  0  0  0  0  0
  146.9617  139.9145  154.7640 C   0  0  2  0  0  0  0  0  0  0  0  0
  146.0960  140.9056  154.2339 O   0  0  0  0  0  0  0  0  0  0  0  0
  148.2207  140.5091  155.3950 C   0  0  2  0  0  0  0  0  0  0  0  0
  148.0003  141.8009  155.9303 O   0  0  0  0  0  0  0  0  0  0  0  0
  151.3521  140.2744  155.6119 C   0  0  0  0  0  0  0  0  0  0  0  0
  151.0413  141.3582  156.1071 O   0  0  0  0  0  0  0  0  0  0  0  0
  152.4767  139.5923  155.9656 N   0  5  0  0  0  0  0  0  0  0  0  0
  149.5952  141.4742  153.9219 H   0  0  0  0  0  0  0  0  0  0  0  0
  147.9414  138.1382  154.0893 H   0  0  0  0  0  0  0  0  0  0  0  0
  146.3962  139.3216  155.4835 H   0  0  0  0  0  0  0  0  0  0  0  0
  148.5663  139.8475  156.1911 H   0  0  0  0  0  0  0  0  0  0  0  0
  154.2985  138.2689  156.4931 H   0  0  0  0  0  0  0  0  0  0  0  0
  150.2125  138.1067  153.1995 H   0  0  0  0  0  0  0  0  0  0  0  0
  145.8817  137.8947  152.8365 H   0  0  0  0  0  0  0  0  0  0  0  0
  145.9513  139.5381  152.2148 H   0  0  0  0  0  0  0  0  0  0  0  0
  147.7333  137.4045  151.6613 H   0  0  0  0  0  0  0  0  0  0  0  0
  145.3961  140.4681  153.7731 H   0  0  0  0  0  0  0  0  0  0  0  0
  148.6340  142.3897  155.5472 H   0  0  0  0  0  0  0  0  0  0  0  0
  1  2  2  0  0  0  0
  1 22  1  0  0  0  0
  2 17  1  0  0  0  0
  2  3  1  0  0  0  0
  3  4  2  0  0  0  0
  4  5  1  0  0  0  0
  4 23  1  0  0  0  0
  5  6  1  0  0  0  0
  5 15  1  0  0  0  0
  6 18  1  0  0  0  0
  6 13  1  0  0  0  0
  6  7  1  0  0  0  0
  7  8  1  0  0  0  0
  8 19  1  0  0  0  0
  8  9  1  0  0  0  0
  8 11  1  0  0  0  0
  9 10  1  0  0  0  0
  9 24  1  0  0  0  0
  9 25  1  0  0  0  0
 10 26  1  0  0  0  0
 11 20  1  0  0  0  0
 11 12  1  0  0  0  0
 11 13  1  0  0  0  0
 12 27  1  0  0  0  0
 13 21  1  0  0  0  0
 13 14  1  0  0  0  0
 14 28  1  0  0  0  0
 15 16  2  0  0  0  0
 15 17  1  0  0  0  0
M  CHG  1  17  -1
M  END
> <s_m_source_file>
AV-unprocessed.smi

> <i_m_source_file_index>
72

> <i_lp_mmshare_version>
43012

> <i_f3d_flags>
0

> <s_epik_input>
W05IMl1jMW5bY0hdbihjKD1PKW4xKVtDQEBIXTJPW0NASF0oW0NIMl1bT0hdKVtDQEBIXShbT0hdKVtDQEhdMltPSF0=

> <s_epik_cmdline>
J2VwaWtfcHl0aG9uJywgJy1waCcsICc3LjAnLCAnLXRuJywgJzgnLCAnLW1hJywgJzIwMCcsICctbWV0YWxfYmluZGluZycsICctaW1hZScsICc8aW5maWxlLm1hZT4nLCAnLW9tYWUnLCAnPG91dGZpbGUubWFlPic=

> <r_lp_tautomer_probability>
7.17554e-07

> <r_epik_Ionization_Penalty>
12.8705

> <r_epik_Ionization_Penalty_Charging>
5.64144

> <r_epik_Ionization_Penalty_Neutral>
7.22905

> <r_epik_State_Penalty>
3.30104

> <r_epik_Charging_Adjusted_Penalty>
8.94249

> <i_epik_Tot_Q>
-1

> <i_epik_Tot_abs_Q>
1

> <r_epik_Metal_State_Penalty>
0.529074

> <b_epik_Metal_Only>
1

> <s_epik_Chemistry_Notes>
This compound contains an acetal/aminal-like group ( X-CH(R)-Y where X, Y are N, S, or O) that may be acid/base labile, releasing an aldehyde.

> <s_lp_Force_Field>
OPLS_2005

> <r_lp_Energy>
36.2844

> <b_lp_Chiralities_Consistent>
1

> <s_lp_Variant>
AV-unprocessed.smi:72-78

> <Gold.Version>
5.8.1

> <Gold.Id.Protein>
6NUR|6NUR_protein|mol2

> <Gold.PLP.Fitness>
40.8138

> <Gold.PLP.PLP>
-23.4297

> <Gold.PLP.part.hbond>
-7.2882

> <Gold.PLP.part.metal>
0.0000

> <Gold.PLP.part.buried>
-3.0251

> <Gold.PLP.part.nonpolar>
-19.2392

> <Gold.PLP.part.repulsive>
5.8931

> <Gold.PLP.ligand.clash>
0.0000

> <Gold.PLP.ligand.torsion>
0.1611

> <Gold.PLP.Chemscore.Hbond>
4.8747

> <Gold.PLP.Chemscore.CHOScore>
1.0202

> <Gold.PLP.Chemscore.Metal>
0.0000

> <Gold.Chemscore.Hbonds>
donor molecule, donor type, donor heavy atom, donor atom, acceptor molecule, acceptor atom, score
      L1  H    10    26       P1  7948  1.00
      L1  H    12    27       P1 10175  0.71
      L1  H    14    28       P1  8028  0.15
      P1  H  7954  7966       L1    10  0.05
      P1  H  7997  8008       L1    17  1.70
      P1  H 10752 10764       L1     3  0.11
      L1  C     4    23       P1  7948  0.89
      L1  C     4    23       P1  7949  0.03
      L1  C     4    23       P1  7957  0.14

> <Gold.PLP.Chemscore.Internal.Correction>
0.0214

> <Gold.Rescore>
     Score         DG    S(hbond)    S(metal)    S(lipo)     H(rot)  DE(clash)    DE(int)     intcor
      3.32      -5.78       2.45        0.00      21.15       4.04       1.98       0.48       ----

> <Gold.Chemscore.Fitness>
3.3241

> <Gold.Chemscore.DG>
-5.7849

> <Gold.Chemscore.ZeroCoef>
-5.4800

> <Gold.Chemscore.Hbond>
2.4473

> <Gold.Chemscore.Metal>
0.0000

> <Gold.Chemscore.Lipo>
21.1469

> <Gold.Chemscore.Internal_Hbond>
0.0000

> <Gold.Chemscore.DEClash>
1.9844

> <Gold.Chemscore.DEInternal>
0.4765

> <Gold.Chemscore.Rot>
4.0403

> <Gold.Chemscore.Internal.Correction>
   9.000000E+99

> <Gold.Chemscore.Hbonds>
donor molecule, donor type, donor heavy atom, donor atom, acceptor molecule, acceptor atom, score
      L1  H    10    26       P1  7948  0.99
      L1  H    12    27       P1 10175  0.67
      L1  H    14    28       P1  8028  0.15
      P1  H  7997  8008       L1    17  0.14
      P1  H 10752 10764       L1     3  0.02

> <Gold.Chemscore.Hbond.Weighted>
-8.1738

> <Gold.Chemscore.Metal.Weighted>
-0.0000

> <Gold.Chemscore.Lipo.Weighted>
-2.4742

> <Gold.Chemscore.Internal_Hbond.Weighted>
0.0000

> <Gold.Chemscore.DEClash.Weighted>
1.9844

> <Gold.Chemscore.DEInternal.Weighted>
0.4765

> <Gold.Chemscore.Rot.Weighted>
10.3431

> <Gold.Chemscore.Internal.Correction.Weighted>
   9.000000E+99

> <Gold.Protein.RotatedTorsions>
[ 6907 6896 6895 6894 ] final -174.98 input  -60.11 | X-H torsion
[ 7974 7965 7964 7962 ] final   36.05 input  175.53 | X-H torsion
[ 8008 7997 7996 7995 ] final  -49.77 input   59.86 | X-H torsion
[ 10167 10162 10161 10158 ] final -164.41 input  -65.29 | X-H torsion
[ 10718 10713 10712 10709 ] final  -70.89 input   66.30 | X-H torsion
[ 10763 10752 10751 10750 ] final  -76.89 input  -60.55 | X-H torsion
[ 11005 11000 10999 10996 ] final   -9.22 input  -57.11 | X-H torsion

> <Gold.Protein.ActiveResidues>
 VAL166  LYS551  ARG553  GLY616  TRP617  ASP618  TYR619  PRO620  LYS621  CYS622 
 ASP623  PHE694  ASN695  SER759  ASP760  ASP761  ALA762  ILE779  LEU786  VAL792 
 PHE793  MET794  SER795  GLU796  ALA797  LYS798  CYS799  TRP800  GLU811  SER814 

> <Gold.Protein.RotatedAtoms>
  151.5812  133.3377  159.3008 H   0  0  0  0  0  0  0  0  0  0  0  0  # atno 6907 bound_to 6896
  150.8312  134.7569  159.6866 H   0  0  0  0  0  0  0  0  0  0  0  0  # atno 6908 bound_to 6896
  152.4395  134.5625  159.9950 H   0  0  0  0  0  0  0  0  0  0  0  0  # atno 6909 bound_to 6896
  146.1239  139.6066  142.9271 H   0  0  0  0  0  0  0  0  0  0  0  0  # atno 7974 bound_to 7965
  154.4050  140.1288  156.4556 H   0  0  0  0  0  0  0  0  0  0  0  0  # atno 8008 bound_to 7997
  155.7323  140.3491  155.5045 H   0  0  0  0  0  0  0  0  0  0  0  0  # atno 8009 bound_to 7997
  155.9116  140.1037  157.1265 H   0  0  0  0  0  0  0  0  0  0  0  0  # atno 8010 bound_to 7997
  139.6252  144.0546  152.1968 H   0  0  0  0  0  0  0  0  0  0  0  0  # atno 10167 bound_to 10162
  156.0387  130.4340  150.2362 H   0  0  0  0  0  0  0  0  0  0  0  0  # atno 10718 bound_to 10713
  154.5058  135.5782  153.6566 H   0  0  0  0  0  0  0  0  0  0  0  0  # atno 10763 bound_to 10752
  152.9887  135.6146  154.2944 H   0  0  0  0  0  0  0  0  0  0  0  0  # atno 10764 bound_to 10752
  154.2855  135.2850  155.2658 H   0  0  0  0  0  0  0  0  0  0  0  0  # atno 10765 bound_to 10752
  140.7318  133.8743  155.8899 H   0  0  0  0  0  0  0  0  0  0  0  0  # atno 11005 bound_to 11000
  145.5407  141.0421  143.2332 LP  0  0  0  0  0  0  0  0  0  0  0  0  # atno 17320 bound_to 7965
  144.7623  139.6926  143.7229 LP  0  0  0  0  0  0  0  0  0  0  0  0  # atno 17321 bound_to 7965
  140.0198  144.6162  150.7576 LP  0  0  0  0  0  0  0  0  0  0  0  0  # atno 17342 bound_to 10162
  140.7407  143.2807  151.3606 LP  0  0  0  0  0  0  0  0  0  0  0  0  # atno 17343 bound_to 10162
  157.0459  131.0049  151.3269 LP  0  0  0  0  0  0  0  0  0  0  0  0  # atno 17370 bound_to 10713
  157.5175  130.7977  149.7773 LP  0  0  0  0  0  0  0  0  0  0  0  0  # atno 17371 bound_to 10713
  140.9914  134.1273  157.4404 LP  0  0  0  0  0  0  0  0  0  0  0  0  # atno 17394 bound_to 11000
  139.8824  135.0041  156.6231 LP  0  0  0  0  0  0  0  0  0  0  0  0  # atno 17395 bound_to 11000

$$$$
