AV-unprocessed.smi:183|AV-procd|sdf|1460|dock8
  -GOLD-   2262019273D 1   1.00000     0.00000
 Structure written by MMmdl.
 55 57  0  0  0  0  0  0  0  0  1 V2000
  147.1729  134.8529  161.6759 C   0  0  0  0  0  0  0  0  0  0  0  0
  147.4579  136.1397  160.9095 C   0  0  0  0  0  0  0  0  0  0  0  0
  147.5881  137.2035  161.5152 O   0  0  0  0  0  0  0  0  0  0  0  0
  147.5543  136.0287  159.5753 N   0  0  0  0  0  0  0  0  0  0  0  0
  147.8184  137.1411  158.6720 C   0  0  0  0  0  0  0  0  0  0  0  0
  146.5820  137.4678  157.8091 C   0  0  0  0  0  0  0  0  0  0  0  0
  146.8635  137.5002  156.3706 N   0  0  0  0  0  0  0  0  0  0  0  0
  146.3746  136.3961  155.7522 C   0  0  0  0  0  0  0  0  0  0  0  0
  146.6733  135.1954  156.3096 N   0  0  0  0  0  0  0  0  0  0  0  0
  146.2566  134.0649  155.7328 C   0  0  0  0  0  0  0  0  0  0  0  0
  145.5531  133.9112  154.6098 N   0  0  0  0  0  0  0  0  0  0  0  0
  145.2596  135.1146  154.0394 C   0  0  0  0  0  0  0  0  0  0  0  0
  145.6177  136.3967  154.5445 C   0  0  0  0  0  0  0  0  0  0  0  0
  145.1367  137.3879  153.6965 N   0  0  0  0  0  0  0  0  0  0  0  0
  144.5341  136.7302  152.7447 C   0  0  0  0  0  0  0  0  0  0  0  0
  144.5771  135.3594  152.8608 N   0  0  0  0  0  0  0  0  0  0  0  0
  144.0103  134.3906  151.9364 C   0  0  0  0  0  0  0  0  0  0  0  0
  144.8408  134.1979  150.6365 C   0  0  2  0  0  0  0  0  0  0  0  0
  145.2215  135.4602  150.1228 O   0  0  0  0  0  0  0  0  0  0  0  0
  144.1140  133.4214  149.5445 C   0  0  0  0  0  0  0  0  0  0  0  0
  144.3542  131.9712  149.9528 C   0  0  0  0  0  0  0  0  0  0  0  0
  145.6090  131.9635  150.6278 O   0  0  0  0  0  0  0  0  0  0  0  0
  146.0784  133.2971  150.8110 C   0  0  2  0  0  0  0  0  0  0  0  0
  146.8479  133.4280  152.1338 C   0  0  0  0  0  0  0  0  0  0  0  0
  148.1305  138.0704  155.8822 C   0  0  0  0  0  0  0  0  0  0  0  0
  148.0363  138.4790  154.3995 C   0  0  0  0  0  0  0  0  0  0  0  0
  149.3206  137.1004  156.0505 C   0  0  0  0  0  0  0  0  0  0  0  0
  147.9975  134.1496  161.5572 H   0  0  0  0  0  0  0  0  0  0  0  0
  146.2603  134.3830  161.3082 H   0  0  0  0  0  0  0  0  0  0  0  0
  147.0471  135.0558  162.7401 H   0  0  0  0  0  0  0  0  0  0  0  0
  147.4356  135.1159  159.1599 H   0  0  0  0  0  0  0  0  0  0  0  0
  148.1123  138.0120  159.2578 H   0  0  0  0  0  0  0  0  0  0  0  0
  148.6790  136.8874  158.0535 H   0  0  0  0  0  0  0  0  0  0  0  0
  145.8016  136.7289  157.9994 H   0  0  0  0  0  0  0  0  0  0  0  0
  146.1480  138.4174  158.1212 H   0  0  0  0  0  0  0  0  0  0  0  0
  146.5322  133.1523  156.2401 H   0  0  0  0  0  0  0  0  0  0  0  0
  144.0524  137.2295  151.9167 H   0  0  0  0  0  0  0  0  0  0  0  0
  143.9082  133.4429  152.4663 H   0  0  0  0  0  0  0  0  0  0  0  0
  142.9968  134.7128  151.6945 H   0  0  0  0  0  0  0  0  0  0  0  0
  145.7653  135.3242  149.3624 H   0  0  0  0  0  0  0  0  0  0  0  0
  143.0593  133.6671  149.4286 H   0  0  0  0  0  0  0  0  0  0  0  0
  144.5898  133.5958  148.5777 H   0  0  0  0  0  0  0  0  0  0  0  0
  143.5825  131.6336  150.6455 H   0  0  0  0  0  0  0  0  0  0  0  0
  144.3588  131.2962  149.0968 H   0  0  0  0  0  0  0  0  0  0  0  0
  146.7710  133.4885  149.9889 H   0  0  0  0  0  0  0  0  0  0  0  0
  147.1809  134.4540  152.2927 H   0  0  0  0  0  0  0  0  0  0  0  0
  147.7314  132.7897  152.1293 H   0  0  0  0  0  0  0  0  0  0  0  0
  146.2383  133.1334  152.9880 H   0  0  0  0  0  0  0  0  0  0  0  0
  148.3416  138.9717  156.4576 H   0  0  0  0  0  0  0  0  0  0  0  0
  148.9905  138.8631  154.0380 H   0  0  0  0  0  0  0  0  0  0  0  0
  147.3018  139.2674  154.2384 H   0  0  0  0  0  0  0  0  0  0  0  0
  147.7626  137.6306  153.7714 H   0  0  0  0  0  0  0  0  0  0  0  0
  150.2355  137.5326  155.6448 H   0  0  0  0  0  0  0  0  0  0  0  0
  149.1402  136.1608  155.5274 H   0  0  0  0  0  0  0  0  0  0  0  0
  149.5255  136.8653  157.0943 H   0  0  0  0  0  0  0  0  0  0  0  0
  1  2  1  0  0  0  0
  1 28  1  0  0  0  0
  1 29  1  0  0  0  0
  1 30  1  0  0  0  0
  2  3  2  0  0  0  0
  2  4  1  0  0  0  0
  4  5  1  0  0  0  0
  4 31  1  0  0  0  0
  5  6  1  0  0  0  0
  5 32  1  0  0  0  0
  5 33  1  0  0  0  0
  6  7  1  0  0  0  0
  6 34  1  0  0  0  0
  6 35  1  0  0  0  0
  7  8  1  0  0  0  0
  7 25  1  0  0  0  0
  8 13  1  0  0  0  0
  8  9  2  0  0  0  0
  9 10  1  0  0  0  0
 10 11  2  0  0  0  0
 10 36  1  0  0  0  0
 11 12  1  0  0  0  0
 12 16  1  0  0  0  0
 12 13  2  0  0  0  0
 13 14  1  0  0  0  0
 14 15  2  0  0  0  0
 15 16  1  0  0  0  0
 15 37  1  0  0  0  0
 16 17  1  0  0  0  0
 17 18  1  0  0  0  0
 17 38  1  0  0  0  0
 17 39  1  0  0  0  0
 18 23  1  0  0  0  0
 18 19  1  0  0  0  0
 18 20  1  0  0  0  0
 19 40  1  0  0  0  0
 20 21  1  0  0  0  0
 20 41  1  0  0  0  0
 20 42  1  0  0  0  0
 21 22  1  0  0  0  0
 21 43  1  0  0  0  0
 21 44  1  0  0  0  0
 22 23  1  0  0  0  0
 23 24  1  0  0  0  0
 23 45  1  0  0  0  0
 24 46  1  0  0  0  0
 24 47  1  0  0  0  0
 24 48  1  0  0  0  0
 25 26  1  0  0  0  0
 25 27  1  0  0  0  0
 25 49  1  0  0  0  0
 26 50  1  0  0  0  0
 26 51  1  0  0  0  0
 26 52  1  0  0  0  0
 27 53  1  0  0  0  0
 27 54  1  0  0  0  0
 27 55  1  0  0  0  0
M  END
> <s_m_source_file>
AV-unprocessed.smi

> <i_m_source_file_index>
183

> <i_lp_mmshare_version>
43012

> <i_f3d_flags>
0

> <s_epik_input>
W0NIM11DKD1PKVtOSF1bQ0gyXVtDSDJdTihbQ0hdKFtDSDNdKVtDSDNdKWMobltjSF1uMSljKGMxMiluW2NIXW4yW0NIMl1bQ0BAXTMoW09IXSlbQ0gyXVtDSDJdT1tDQEhdM1tDSDNd

> <s_epik_cmdline>
J2VwaWtfcHl0aG9uJywgJy1waCcsICc3LjAnLCAnLXRuJywgJzgnLCAnLW1hJywgJzIwMCcsICctbWV0YWxfYmluZGluZycsICctaW1hZScsICc8aW5maWxlLm1hZT4nLCAnLW9tYWUnLCAnPG91dGZpbGUubWFlPic=

> <r_lp_tautomer_probability>
1

> <r_epik_Ionization_Penalty>
0.00156158

> <r_epik_Ionization_Penalty_Charging>
0

> <r_epik_Ionization_Penalty_Neutral>
0.00156158

> <r_epik_State_Penalty>
0.000865808

> <r_epik_Charging_Adjusted_Penalty>
0.000865808

> <i_epik_Tot_Q>
0

> <i_epik_Tot_abs_Q>
0

> <r_epik_Metal_State_Penalty>
-0

> <b_epik_Metal_Only>
0

> <s_lp_Force_Field>
OPLS_2005

> <r_lp_Energy>
30.6117

> <b_lp_Chiralities_Consistent>
1

> <s_lp_Variant>
AV-unprocessed.smi:183-4

> <Gold.Version>
5.8.1

> <Gold.Id.Protein>
6NUR|6NUR_protein|mol2

> <Gold.PLP.Fitness>
37.6858

> <Gold.PLP.PLP>
-29.2351

> <Gold.PLP.part.hbond>
-3.0000

> <Gold.PLP.part.metal>
0.0000

> <Gold.PLP.part.buried>
-4.8105

> <Gold.PLP.part.nonpolar>
-21.4538

> <Gold.PLP.part.repulsive>
0.4395

> <Gold.PLP.ligand.clash>
0.2278

> <Gold.PLP.ligand.torsion>
1.8532

> <Gold.PLP.Chemscore.Hbond>
2.7840

> <Gold.PLP.Chemscore.CHOScore>
1.0000

> <Gold.PLP.Chemscore.Metal>
0.0000

> <Gold.Chemscore.Hbonds>
donor molecule, donor type, donor heavy atom, donor atom, acceptor molecule, acceptor atom, score
      L1  H    19    40       P1  7921  1.00
      P1  H  6931  6943       L1     3  0.96
      P1  H  6934  6947       L1     3  0.82
      L1  C    15    37       P1 10171  1.00

> <Gold.PLP.Chemscore.Internal.Correction>
1.0328

> <Gold.Rescore>
     Score         DG    S(hbond)    S(metal)    S(lipo)     H(rot)  DE(clash)    DE(int)     intcor
      9.96     -13.26       2.76        0.00      63.01       3.45       0.07       3.23       ----

> <Gold.Chemscore.Fitness>
9.9623

> <Gold.Chemscore.DG>
-13.2636

> <Gold.Chemscore.ZeroCoef>
-5.4800

> <Gold.Chemscore.Hbond>
2.7636

> <Gold.Chemscore.Metal>
0.0000

> <Gold.Chemscore.Lipo>
63.0137

> <Gold.Chemscore.Internal_Hbond>
0.0000

> <Gold.Chemscore.DEClash>
0.0730

> <Gold.Chemscore.DEInternal>
3.2283

> <Gold.Chemscore.Rot>
3.4451

> <Gold.Chemscore.Internal.Correction>
   9.000000E+99

> <Gold.Chemscore.Hbonds>
donor molecule, donor type, donor heavy atom, donor atom, acceptor molecule, acceptor atom, score
      L1  H    19    40       P1  7921  0.98
      P1  H  6931  6943       L1     3  0.92
      P1  H  6934  6947       L1     3  0.81

> <Gold.Chemscore.Hbond.Weighted>
-9.2304

> <Gold.Chemscore.Metal.Weighted>
-0.0000

> <Gold.Chemscore.Lipo.Weighted>
-7.3726

> <Gold.Chemscore.Internal_Hbond.Weighted>
0.0000

> <Gold.Chemscore.DEClash.Weighted>
0.0730

> <Gold.Chemscore.DEInternal.Weighted>
3.2283

> <Gold.Chemscore.Rot.Weighted>
8.8194

> <Gold.Chemscore.Internal.Correction.Weighted>
   9.000000E+99

> <Gold.Protein.RotatedTorsions>
[ 6907 6896 6895 6894 ] final   98.89 input  -60.11 | X-H torsion
[ 7974 7965 7964 7962 ] final  -79.10 input  175.53 | X-H torsion
[ 8008 7997 7996 7995 ] final  -88.92 input   59.86 | X-H torsion
[ 10167 10162 10161 10158 ] final  -70.23 input  -65.29 | X-H torsion
[ 10718 10713 10712 10709 ] final   66.68 input   66.30 | X-H torsion
[ 10763 10752 10751 10750 ] final  -16.20 input  -60.55 | X-H torsion
[ 11005 11000 10999 10996 ] final    9.22 input  -57.11 | X-H torsion

> <Gold.Protein.ActiveResidues>
 VAL166  LYS551  ARG553  GLY616  TRP617  ASP618  TYR619  PRO620  LYS621  CYS622 
 ASP623  PHE694  ASN695  SER759  ASP760  ASP761  ALA762  ILE779  LEU786  VAL792 
 PHE793  MET794  SER795  GLU796  ALA797  LYS798  CYS799  TRP800  GLU811  SER814 

> <Gold.Protein.RotatedAtoms>
  152.5401  134.0512  159.8110 H   0  0  0  0  0  0  0  0  0  0  0  0  # atno 6907 bound_to 6896
  151.0653  133.5502  159.2638 H   0  0  0  0  0  0  0  0  0  0  0  0  # atno 6908 bound_to 6896
  151.2386  135.0588  159.9070 H   0  0  0  0  0  0  0  0  0  0  0  0  # atno 6909 bound_to 6896
  145.5777  140.9454  143.1361 H   0  0  0  0  0  0  0  0  0  0  0  0  # atno 7974 bound_to 7965
  154.6804  140.0548  157.0260 H   0  0  0  0  0  0  0  0  0  0  0  0  # atno 8008 bound_to 7997
  155.0959  140.3224  155.4542 H   0  0  0  0  0  0  0  0  0  0  0  0  # atno 8009 bound_to 7997
  156.2692  140.2039  156.6086 H   0  0  0  0  0  0  0  0  0  0  0  0  # atno 8010 bound_to 7997
  140.5368  143.2317  151.7162 H   0  0  0  0  0  0  0  0  0  0  0  0  # atno 10167 bound_to 10162
  157.6184  130.9281  150.0141 H   0  0  0  0  0  0  0  0  0  0  0  0  # atno 10718 bound_to 10713
  153.5550  135.7011  153.5574 H   0  0  0  0  0  0  0  0  0  0  0  0  # atno 10763 bound_to 10752
  153.3481  135.4002  155.1624 H   0  0  0  0  0  0  0  0  0  0  0  0  # atno 10764 bound_to 10752
  154.8656  135.3758  154.5063 H   0  0  0  0  0  0  0  0  0  0  0  0  # atno 10765 bound_to 10752
  140.5282  134.0492  155.7865 H   0  0  0  0  0  0  0  0  0  0  0  0  # atno 11005 bound_to 11000
  144.7408  139.7454  143.7311 LP  0  0  0  0  0  0  0  0  0  0  0  0  # atno 17320 bound_to 7965
  146.1739  139.4901  142.9910 LP  0  0  0  0  0  0  0  0  0  0  0  0  # atno 17321 bound_to 7965
  139.4974  144.4030  152.0161 LP  0  0  0  0  0  0  0  0  0  0  0  0  # atno 17342 bound_to 10162
  140.3136  144.3510  150.6027 LP  0  0  0  0  0  0  0  0  0  0  0  0  # atno 17343 bound_to 10162
  156.1317  130.3643  149.9721 LP  0  0  0  0  0  0  0  0  0  0  0  0  # atno 17370 bound_to 10713
  156.7780  130.9211  151.3645 LP  0  0  0  0  0  0  0  0  0  0  0  0  # atno 17371 bound_to 10713
  141.1296  133.9324  157.2563 LP  0  0  0  0  0  0  0  0  0  0  0  0  # atno 17394 bound_to 11000
  139.9568  135.0163  156.9151 LP  0  0  0  0  0  0  0  0  0  0  0  0  # atno 17395 bound_to 11000

$$$$
