AV-unprocessed.smi:2190|AV-procd|sdf|8889|dock5
  -GOLD-   2272012 93D 1   1.00000     0.00000
 Structure written by MMmdl.
 46 48  0  0  0  0  0  0  0  0  1 V2000
  151.6797  145.4214  159.5716 C   0  0  0  0  0  0  0  0  0  0  0  0
  152.0152  143.9546  159.3951 C   0  0  0  0  0  0  0  0  0  0  0  0
  152.9643  143.3365  160.2320 C   0  0  0  0  0  0  0  0  0  0  0  0
  153.2716  141.9748  160.0600 C   0  0  0  0  0  0  0  0  0  0  0  0
  152.6345  141.2236  159.0507 C   0  0  0  0  0  0  0  0  0  0  0  0
  152.9768  139.7554  158.8789 C   0  0  0  0  0  0  0  0  0  0  0  0
  151.6814  141.8325  158.2018 C   0  0  0  0  0  0  0  0  0  0  0  0
  151.1005  141.0417  157.2326 O   0  0  0  0  0  0  0  0  0  0  0  0
  150.0581  141.5909  156.4365 C   0  0  0  0  0  0  0  0  0  0  0  0
  149.7392  140.6417  155.2694 C   0  0  1  0  0  0  0  0  0  0  0  0
  150.9486  140.1915  154.6919 O   0  0  0  0  0  0  0  0  0  0  0  0
  148.8230  139.4638  155.6611 C   0  0  0  0  0  0  0  0  0  0  0  0
  147.5311  139.9075  156.1678 N   0  0  0  0  0  0  0  0  0  0  0  0
  146.8575  139.4674  157.2611 C   0  0  0  0  0  0  0  0  0  0  0  0
  147.4162  138.3892  158.1467 C   0  0  0  0  0  0  0  0  0  0  0  0
  146.6640  138.1630  159.3218 O   0  0  0  0  0  0  0  0  0  0  0  0
  145.6844  140.0628  157.4921 N   0  0  0  0  0  0  0  0  0  0  0  0
  145.5891  140.9677  156.4536 C   0  0  0  0  0  0  0  0  0  0  0  0
  144.5750  141.8996  156.1369 C   0  0  0  0  0  0  0  0  0  0  0  0
  144.7008  142.7352  155.0075 C   0  0  0  0  0  0  0  0  0  0  0  0
  145.8399  142.6512  154.1807 C   0  0  0  0  0  0  0  0  0  0  0  0
  146.8619  141.7292  154.4786 C   0  0  0  0  0  0  0  0  0  0  0  0
  146.7308  140.8974  155.6068 C   0  0  0  0  0  0  0  0  0  0  0  0
  151.3775  143.2057  158.3856 C   0  0  0  0  0  0  0  0  0  0  0  0
  152.1125  145.8205  160.4895 H   0  0  0  0  0  0  0  0  0  0  0  0
  150.5995  145.5619  159.6178 H   0  0  0  0  0  0  0  0  0  0  0  0
  152.0662  145.9995  158.7319 H   0  0  0  0  0  0  0  0  0  0  0  0
  153.4600  143.9023  161.0073 H   0  0  0  0  0  0  0  0  0  0  0  0
  154.0004  141.5096  160.7075 H   0  0  0  0  0  0  0  0  0  0  0  0
  152.0767  139.1443  158.9517 H   0  0  0  0  0  0  0  0  0  0  0  0
  153.6781  139.4164  159.6419 H   0  0  0  0  0  0  0  0  0  0  0  0
  153.4296  139.5855  157.9017 H   0  0  0  0  0  0  0  0  0  0  0  0
  149.1644  141.7034  157.0525 H   0  0  0  0  0  0  0  0  0  0  0  0
  150.3278  142.5786  156.0581 H   0  0  0  0  0  0  0  0  0  0  0  0
  149.2394  141.2271  154.4967 H   0  0  0  0  0  0  0  0  0  0  0  0
  151.5156  139.8836  155.3824 H   0  0  0  0  0  0  0  0  0  0  0  0
  148.6693  138.7912  154.8173 H   0  0  0  0  0  0  0  0  0  0  0  0
  149.3023  138.8661  156.4374 H   0  0  0  0  0  0  0  0  0  0  0  0
  147.4677  137.4524  157.5922 H   0  0  0  0  0  0  0  0  0  0  0  0
  148.4342  138.6572  158.4306 H   0  0  0  0  0  0  0  0  0  0  0  0
  146.1366  137.3894  159.1961 H   0  0  0  0  0  0  0  0  0  0  0  0
  143.6992  141.9718  156.7647 H   0  0  0  0  0  0  0  0  0  0  0  0
  143.9197  143.4443  154.7752 H   0  0  0  0  0  0  0  0  0  0  0  0
  145.9287  143.2951  153.3181 H   0  0  0  0  0  0  0  0  0  0  0  0
  147.7357  141.6620  153.8479 H   0  0  0  0  0  0  0  0  0  0  0  0
  150.6565  143.7095  157.7599 H   0  0  0  0  0  0  0  0  0  0  0  0
  1  2  1  0  0  0  0
  1 25  1  0  0  0  0
  1 26  1  0  0  0  0
  1 27  1  0  0  0  0
  2 24  1  0  0  0  0
  2  3  2  0  0  0  0
  3  4  1  0  0  0  0
  3 28  1  0  0  0  0
  4  5  2  0  0  0  0
  4 29  1  0  0  0  0
  5  6  1  0  0  0  0
  5  7  1  0  0  0  0
  6 30  1  0  0  0  0
  6 31  1  0  0  0  0
  6 32  1  0  0  0  0
  7  8  1  0  0  0  0
  7 24  2  0  0  0  0
  8  9  1  0  0  0  0
  9 10  1  0  0  0  0
  9 33  1  0  0  0  0
  9 34  1  0  0  0  0
 10 11  1  0  0  0  0
 10 12  1  0  0  0  0
 10 35  1  0  0  0  0
 11 36  1  0  0  0  0
 12 13  1  0  0  0  0
 12 37  1  0  0  0  0
 12 38  1  0  0  0  0
 13 23  1  0  0  0  0
 13 14  1  0  0  0  0
 14 15  1  0  0  0  0
 14 17  2  0  0  0  0
 15 16  1  0  0  0  0
 15 39  1  0  0  0  0
 15 40  1  0  0  0  0
 16 41  1  0  0  0  0
 17 18  1  0  0  0  0
 18 23  2  0  0  0  0
 18 19  1  0  0  0  0
 19 20  2  0  0  0  0
 19 42  1  0  0  0  0
 20 21  1  0  0  0  0
 20 43  1  0  0  0  0
 21 22  2  0  0  0  0
 21 44  1  0  0  0  0
 22 23  1  0  0  0  0
 22 45  1  0  0  0  0
 24 46  1  0  0  0  0
M  END
> <s_m_source_file>
AV-unprocessed.smi

> <i_m_source_file_index>
2190

> <i_lp_mmshare_version>
43012

> <i_f3d_flags>
0

> <s_epik_input>
W0NIM11jMVtjSF1bY0hdYyhbQ0gzXSljKFtjSF0xKU9bQ0gyXVtDQEhdKFtPSF0pW0NIMl1uKGMobjIpW0NIMl1bT0hdKWMoYzIzKVtjSF1bY0hdW2NIXVtjSF0z

> <s_epik_cmdline>
J2VwaWtfcHl0aG9uJywgJy1waCcsICc3LjAnLCAnLXRuJywgJzgnLCAnLW1hJywgJzIwMCcsICctbWV0YWxfYmluZGluZycsICctaW1hZScsICc8aW5maWxlLm1hZT4nLCAnLW9tYWUnLCAnPG91dGZpbGUubWFlPic=

> <r_lp_tautomer_probability>
1

> <r_epik_Ionization_Penalty>
0.0555874

> <r_epik_Ionization_Penalty_Charging>
0

> <r_epik_Ionization_Penalty_Neutral>
0.0555874

> <r_epik_State_Penalty>
0.0478234

> <r_epik_Charging_Adjusted_Penalty>
0.0478234

> <i_epik_Tot_Q>
0

> <i_epik_Tot_abs_Q>
0

> <r_epik_Metal_State_Penalty>
4.98044e-05

> <b_epik_Metal_Only>
0

> <s_lp_Force_Field>
OPLS_2005

> <r_lp_Energy>
17.5395

> <b_lp_Chiralities_Consistent>
1

> <s_lp_Variant>
AV-unprocessed.smi:2190-2

> <Gold.Version>
5.8.1

> <Gold.Id.Protein>
6NUR|6NUR_protein|mol2

> <Gold.PLP.Fitness>
49.7105

> <Gold.PLP.PLP>
-46.9225

> <Gold.PLP.part.hbond>
-1.9799

> <Gold.PLP.part.metal>
0.0000

> <Gold.PLP.part.buried>
-7.4578

> <Gold.PLP.part.nonpolar>
-39.1270

> <Gold.PLP.part.repulsive>
0.0237

> <Gold.PLP.ligand.clash>
0.0000

> <Gold.PLP.ligand.torsion>
0.4483

> <Gold.PLP.Chemscore.Hbond>
1.2153

> <Gold.PLP.Chemscore.CHOScore>
0.0000

> <Gold.PLP.Chemscore.Metal>
0.0000

> <Gold.Chemscore.Hbonds>
donor molecule, donor type, donor heavy atom, donor atom, acceptor molecule, acceptor atom, score
      P1  H  6934  6947       L1    16  0.61
      P1  H  7989  7998       L1    11  1.00

> <Gold.PLP.Chemscore.Internal.Correction>
0.0388

> <Gold.Rescore>
     Score         DG    S(hbond)    S(metal)    S(lipo)     H(rot)  DE(clash)    DE(int)     intcor
     16.59     -17.18       1.34        0.00     126.39       2.96       0.07       0.51       ----

> <Gold.Chemscore.Fitness>
16.5912

> <Gold.Chemscore.DG>
-17.1779

> <Gold.Chemscore.ZeroCoef>
-5.4800

> <Gold.Chemscore.Hbond>
1.3406

> <Gold.Chemscore.Metal>
0.0000

> <Gold.Chemscore.Lipo>
126.3927

> <Gold.Chemscore.Internal_Hbond>
0.0000

> <Gold.Chemscore.DEClash>
0.0718

> <Gold.Chemscore.DEInternal>
0.5148

> <Gold.Chemscore.Rot>
2.9561

> <Gold.Chemscore.Internal.Correction>
   9.000000E+99

> <Gold.Chemscore.Hbonds>
donor molecule, donor type, donor heavy atom, donor atom, acceptor molecule, acceptor atom, score
      P1  H  6934  6947       L1    16  0.57
      P1  H  7989  7998       L1    11  0.86

> <Gold.Chemscore.Hbond.Weighted>
-4.4776

> <Gold.Chemscore.Metal.Weighted>
-0.0000

> <Gold.Chemscore.Lipo.Weighted>
-14.7879

> <Gold.Chemscore.Internal_Hbond.Weighted>
0.0000

> <Gold.Chemscore.DEClash.Weighted>
0.0718

> <Gold.Chemscore.DEInternal.Weighted>
0.5148

> <Gold.Chemscore.Rot.Weighted>
7.5677

> <Gold.Chemscore.Internal.Correction.Weighted>
   9.000000E+99

> <Gold.Protein.RotatedTorsions>
[ 6907 6896 6895 6894 ] final -144.05 input  -60.11 | X-H torsion
[ 7974 7965 7964 7962 ] final  -47.99 input  175.53 | X-H torsion
[ 8008 7997 7996 7995 ] final  -70.60 input   59.86 | X-H torsion
[ 10167 10162 10161 10158 ] final -177.02 input  -65.29 | X-H torsion
[ 10718 10713 10712 10709 ] final   27.82 input   66.30 | X-H torsion
[ 10763 10752 10751 10750 ] final   69.71 input  -60.55 | X-H torsion
[ 11005 11000 10999 10996 ] final  165.14 input  -57.11 | X-H torsion

> <Gold.Protein.ActiveResidues>
 VAL166  LYS551  ARG553  GLY616  TRP617  ASP618  TYR619  PRO620  LYS621  CYS622 
 ASP623  PHE694  ASN695  SER759  ASP760  ASP761  ALA762  ILE779  LEU786  VAL792 
 PHE793  MET794  SER795  GLU796  ALA797  LYS798  CYS799  TRP800  GLU811  SER814 

> <Gold.Protein.RotatedAtoms>
  151.1088  133.5188  159.2606 H   0  0  0  0  0  0  0  0  0  0  0  0  # atno 6907 bound_to 6896
  151.1991  135.0434  159.8874 H   0  0  0  0  0  0  0  0  0  0  0  0  # atno 6908 bound_to 6896
  152.5448  134.0919  159.8334 H   0  0  0  0  0  0  0  0  0  0  0  0  # atno 6909 bound_to 6896
  145.9558  140.7527  142.9482 H   0  0  0  0  0  0  0  0  0  0  0  0  # atno 7974 bound_to 7965
  154.5024  140.0831  156.7826 H   0  0  0  0  0  0  0  0  0  0  0  0  # atno 8008 bound_to 7997
  155.3971  140.3435  155.4236 H   0  0  0  0  0  0  0  0  0  0  0  0  # atno 8009 bound_to 7997
  156.1474  140.1548  156.8813 H   0  0  0  0  0  0  0  0  0  0  0  0  # atno 8010 bound_to 7997
  139.5500  144.2133  152.1060 H   0  0  0  0  0  0  0  0  0  0  0  0  # atno 10167 bound_to 10162
  157.2252  130.6998  149.6288 H   0  0  0  0  0  0  0  0  0  0  0  0  # atno 10718 bound_to 10713
  153.0302  135.5200  154.7330 H   0  0  0  0  0  0  0  0  0  0  0  0  # atno 10763 bound_to 10752
  154.6352  135.2905  155.0171 H   0  0  0  0  0  0  0  0  0  0  0  0  # atno 10764 bound_to 10752
  154.1109  135.6622  153.4937 H   0  0  0  0  0  0  0  0  0  0  0  0  # atno 10765 bound_to 10752
  140.2531  134.7961  157.3520 H   0  0  0  0  0  0  0  0  0  0  0  0  # atno 11005 bound_to 11000
  144.6805  140.2510  143.7331 LP  0  0  0  0  0  0  0  0  0  0  0  0  # atno 17320 bound_to 7965
  145.8108  139.2002  143.1994 LP  0  0  0  0  0  0  0  0  0  0  0  0  # atno 17321 bound_to 7965
  140.1627  144.5011  150.6623 LP  0  0  0  0  0  0  0  0  0  0  0  0  # atno 17342 bound_to 10162
  140.6760  143.2305  151.5505 LP  0  0  0  0  0  0  0  0  0  0  0  0  # atno 17343 bound_to 10162
  155.9679  130.4507  150.5706 LP  0  0  0  0  0  0  0  0  0  0  0  0  # atno 17370 bound_to 10713
  157.3535  131.0737  151.1694 LP  0  0  0  0  0  0  0  0  0  0  0  0  # atno 17371 bound_to 10713
  140.1538  134.4815  155.7942 LP  0  0  0  0  0  0  0  0  0  0  0  0  # atno 17394 bound_to 11000
  141.2199  133.6873  156.7425 LP  0  0  0  0  0  0  0  0  0  0  0  0  # atno 17395 bound_to 11000

$$$$
