AV-unprocessed.smi:332|AV-procd|sdf|2355|dock9
  -GOLD-   2262022263D 1   1.00000     0.00000
 Structure written by MMmdl.
 42 44  0  0  0  0  0  0  0  0  1 V2000
  148.4889  145.5624  160.7784 C   0  0  0  0  0  0  0  0  0  0  0  0
  149.1406  144.4251  159.9735 C   0  0  1  0  0  0  0  0  0  0  0  0
  148.2338  143.9830  158.9196 N   0  0  0  0  0  0  0  0  0  0  0  0
  147.1412  143.2182  159.0832 C   0  0  0  0  0  0  0  0  0  0  0  0
  146.7536  142.8360  160.1867 O   0  0  0  0  0  0  0  0  0  0  0  0
  146.3604  142.7938  157.8272 C   0  0  0  0  0  0  0  0  0  0  0  0
  147.1749  142.1364  156.7890 N   0  0  0  0  0  0  0  0  0  0  0  0
  148.3630  141.5102  157.2157 C   0  0  0  0  0  0  0  0  0  0  0  0
  149.1911  140.8968  156.3559 C   0  0  0  0  0  0  0  0  0  0  0  0
  148.8359  140.8860  154.9568 C   0  0  0  0  0  0  0  0  0  0  0  0
  147.7040  141.4858  154.5371 C   0  0  0  0  0  0  0  0  0  0  0  0
  146.7999  142.1648  155.4726 C   0  0  0  0  0  0  0  0  0  0  0  0
  145.7745  142.7315  155.0949 O   0  0  0  0  0  0  0  0  0  0  0  0
  150.4849  144.8584  159.3427 C   0  0  1  0  0  0  0  0  0  0  0  0
  151.6637  144.9640  160.3361 C   0  0  0  0  0  0  0  0  0  0  0  0
  152.7754  144.1554  159.6412 C   0  0  1  0  0  0  0  0  0  0  0  0
  152.4459  142.6548  159.7452 C   0  0  0  0  0  0  0  0  0  0  0  0
  151.2770  142.4962  158.7560 C   0  0  0  0  0  0  0  0  0  0  0  0
  151.0671  143.9351  158.2417 C   0  0  2  0  0  0  0  0  0  0  0  0
  152.5059  144.4354  158.1671 C   0  0  0  0  0  0  0  0  0  0  0  0
  149.1410  145.9026  161.5830 H   0  0  0  0  0  0  0  0  0  0  0  0
  147.5537  145.2372  161.2350 H   0  0  0  0  0  0  0  0  0  0  0  0
  148.2675  146.4215  160.1444 H   0  0  0  0  0  0  0  0  0  0  0  0
  149.3245  143.5928  160.6547 H   0  0  0  0  0  0  0  0  0  0  0  0
  148.4764  144.2541  157.9778 H   0  0  0  0  0  0  0  0  0  0  0  0
  145.5563  142.1260  158.1398 H   0  0  0  0  0  0  0  0  0  0  0  0
  145.8529  143.6714  157.4232 H   0  0  0  0  0  0  0  0  0  0  0  0
  148.5586  141.5706  158.2768 H   0  0  0  0  0  0  0  0  0  0  0  0
  150.1005  140.4270  156.7009 H   0  0  0  0  0  0  0  0  0  0  0  0
  149.4807  140.3948  154.2431 H   0  0  0  0  0  0  0  0  0  0  0  0
  147.4552  141.4679  153.4862 H   0  0  0  0  0  0  0  0  0  0  0  0
  150.3359  145.8403  158.8891 H   0  0  0  0  0  0  0  0  0  0  0  0
  151.9598  146.0053  160.4671 H   0  0  0  0  0  0  0  0  0  0  0  0
  151.4301  144.5611  161.3222 H   0  0  0  0  0  0  0  0  0  0  0  0
  153.7792  144.4070  159.9842 H   0  0  0  0  0  0  0  0  0  0  0  0
  153.2959  142.0459  159.4344 H   0  0  0  0  0  0  0  0  0  0  0  0
  152.1754  142.3596  160.7598 H   0  0  0  0  0  0  0  0  0  0  0  0
  151.5643  141.8386  157.9347 H   0  0  0  0  0  0  0  0  0  0  0  0
  150.3879  142.0667  159.2163 H   0  0  0  0  0  0  0  0  0  0  0  0
  150.5245  143.9842  157.2968 H   0  0  0  0  0  0  0  0  0  0  0  0
  152.5870  145.4919  157.9047 H   0  0  0  0  0  0  0  0  0  0  0  0
  153.1346  143.8509  157.4931 H   0  0  0  0  0  0  0  0  0  0  0  0
  1  2  1  0  0  0  0
  1 21  1  0  0  0  0
  1 22  1  0  0  0  0
  1 23  1  0  0  0  0
  2  3  1  0  0  0  0
  2 14  1  0  0  0  0
  2 24  1  0  0  0  0
  3  4  1  0  0  0  0
  3 25  1  0  0  0  0
  4  5  2  0  0  0  0
  4  6  1  0  0  0  0
  6  7  1  0  0  0  0
  6 26  1  0  0  0  0
  6 27  1  0  0  0  0
  7 12  1  0  0  0  0
  7  8  1  0  0  0  0
  8  9  2  0  0  0  0
  8 28  1  0  0  0  0
  9 10  1  0  0  0  0
  9 29  1  0  0  0  0
 10 11  2  0  0  0  0
 10 30  1  0  0  0  0
 11 12  1  0  0  0  0
 11 31  1  0  0  0  0
 12 13  2  0  0  0  0
 14 19  1  0  0  0  0
 14 15  1  0  0  0  0
 14 32  1  0  0  0  0
 15 16  1  0  0  0  0
 15 33  1  0  0  0  0
 15 34  1  0  0  0  0
 16 20  1  0  0  0  0
 16 17  1  0  0  0  0
 16 35  1  0  0  0  0
 17 18  1  0  0  0  0
 17 36  1  0  0  0  0
 17 37  1  0  0  0  0
 18 19  1  0  0  0  0
 18 38  1  0  0  0  0
 18 39  1  0  0  0  0
 19 20  1  0  0  0  0
 19 40  1  0  0  0  0
 20 41  1  0  0  0  0
 20 42  1  0  0  0  0
M  END
> <s_m_source_file>
AV-unprocessed.smi

> <i_m_source_file_index>
332

> <i_lp_mmshare_version>
43012

> <i_f3d_flags>
0

> <s_epik_input>
W0NIMl0xW0NIMl1bQ0BIXShbQ0gyXTIpW0NAQEhdKFtDSDJdW0NAQEhdMTIpW0NASF0oW0NIM10pW05IXUMoPU8pW0NIMl1uM1tjSF1bY0hdW2NIXVtjSF1jMz1P

> <s_epik_cmdline>
J2VwaWtfcHl0aG9uJywgJy1waCcsICc3LjAnLCAnLXRuJywgJzgnLCAnLW1hJywgJzIwMCcsICctbWV0YWxfYmluZGluZycsICctaW1hZScsICc8aW5maWxlLm1hZT4nLCAnLW9tYWUnLCAnPG91dGZpbGUubWFlPic=

> <r_lp_tautomer_probability>
1

> <r_epik_Ionization_Penalty>
4.05802e-07

> <r_epik_Ionization_Penalty_Charging>
3.84175e-07

> <r_epik_Ionization_Penalty_Neutral>
2.16269e-08

> <r_epik_State_Penalty>
-0

> <r_epik_Charging_Adjusted_Penalty>
3.84175e-07

> <i_epik_Tot_Q>
0

> <i_epik_Tot_abs_Q>
0

> <r_epik_Metal_State_Penalty>
-0

> <b_epik_Metal_Only>
0

> <s_lp_Force_Field>
OPLS_2005

> <r_lp_Energy>
59.7758

> <b_lp_Chiralities_Consistent>
1

> <s_lp_Variant>
AV-unprocessed.smi:332-4

> <Gold.Version>
5.8.1

> <Gold.Id.Protein>
6NUR|6NUR_protein|mol2

> <Gold.PLP.Fitness>
47.7858

> <Gold.PLP.PLP>
-43.1784

> <Gold.PLP.part.hbond>
-3.0000

> <Gold.PLP.part.metal>
0.0000

> <Gold.PLP.part.buried>
-4.9057

> <Gold.PLP.part.nonpolar>
-35.9156

> <Gold.PLP.part.repulsive>
0.3195

> <Gold.PLP.ligand.clash>
0.0000

> <Gold.PLP.ligand.torsion>
0.8498

> <Gold.PLP.Chemscore.Hbond>
2.0939

> <Gold.PLP.Chemscore.CHOScore>
0.0000

> <Gold.PLP.Chemscore.Metal>
0.0000

> <Gold.Chemscore.Hbonds>
donor molecule, donor type, donor heavy atom, donor atom, acceptor molecule, acceptor atom, score
      L1  H     3    25       P1  8029  0.31
      P1  H  6933  6944       L1     5  0.52
      P1  H  6934  6946       L1     5  0.95

> <Gold.PLP.Chemscore.Internal.Correction>
0.0252

> <Gold.Rescore>
     Score         DG    S(hbond)    S(metal)    S(lipo)     H(rot)  DE(clash)    DE(int)     intcor
     19.43     -20.53       1.68        0.00     114.34       1.54       0.28       0.82       ----

> <Gold.Chemscore.Fitness>
19.4253

> <Gold.Chemscore.DG>
-20.5287

> <Gold.Chemscore.ZeroCoef>
-5.4800

> <Gold.Chemscore.Hbond>
1.6807

> <Gold.Chemscore.Metal>
0.0000

> <Gold.Chemscore.Lipo>
114.3352

> <Gold.Chemscore.Internal_Hbond>
0.0000

> <Gold.Chemscore.DEClash>
0.2805

> <Gold.Chemscore.DEInternal>
0.8229

> <Gold.Chemscore.Rot>
1.5398

> <Gold.Chemscore.Internal.Correction>
   9.000000E+99

> <Gold.Chemscore.Hbonds>
donor molecule, donor type, donor heavy atom, donor atom, acceptor molecule, acceptor atom, score
      L1  H     3    25       P1  8029  0.04
      P1  H  6933  6944       L1     5  0.38
      P1  H  6934  6946       L1     5  0.84

> <Gold.Chemscore.Hbond.Weighted>
-5.6134

> <Gold.Chemscore.Metal.Weighted>
-0.0000

> <Gold.Chemscore.Lipo.Weighted>
-13.3772

> <Gold.Chemscore.Internal_Hbond.Weighted>
0.0000

> <Gold.Chemscore.DEClash.Weighted>
0.2805

> <Gold.Chemscore.DEInternal.Weighted>
0.8229

> <Gold.Chemscore.Rot.Weighted>
3.9419

> <Gold.Chemscore.Internal.Correction.Weighted>
   9.000000E+99

> <Gold.Protein.RotatedTorsions>
[ 6907 6896 6895 6894 ] final  -67.07 input  -60.11 | X-H torsion
[ 7974 7965 7964 7962 ] final  178.47 input  175.53 | X-H torsion
[ 8008 7997 7996 7995 ] final  164.29 input   59.86 | X-H torsion
[ 10167 10162 10161 10158 ] final   11.85 input  -65.29 | X-H torsion
[ 10718 10713 10712 10709 ] final  163.32 input   66.30 | X-H torsion
[ 10763 10752 10751 10750 ] final   14.20 input  -60.55 | X-H torsion
[ 11005 11000 10999 10996 ] final -166.10 input  -57.11 | X-H torsion

> <Gold.Protein.ActiveResidues>
 VAL166  LYS551  ARG553  GLY616  TRP617  ASP618  TYR619  PRO620  LYS621  CYS622 
 ASP623  PHE694  ASN695  SER759  ASP760  ASP761  ALA762  ILE779  LEU786  VAL792 
 PHE793  MET794  SER795  GLU796  ALA797  LYS798  CYS799  TRP800  GLU811  SER814 

> <Gold.Protein.RotatedAtoms>
  150.7430  134.5932  159.5998 H   0  0  0  0  0  0  0  0  0  0  0  0  # atno 6907 bound_to 6896
  152.3314  134.7251  160.0297 H   0  0  0  0  0  0  0  0  0  0  0  0  # atno 6908 bound_to 6896
  151.7733  133.3307  159.3487 H   0  0  0  0  0  0  0  0  0  0  0  0  # atno 6909 bound_to 6896
  144.7156  140.0403  143.6437 H   0  0  0  0  0  0  0  0  0  0  0  0  # atno 7974 bound_to 7965
  156.1891  140.1700  156.8127 H   0  0  0  0  0  0  0  0  0  0  0  0  # atno 8008 bound_to 7997
  154.5450  140.0729  156.8605 H   0  0  0  0  0  0  0  0  0  0  0  0  # atno 8009 bound_to 7997
  155.3141  140.3369  155.4245 H   0  0  0  0  0  0  0  0  0  0  0  0  # atno 8010 bound_to 7997
  140.6106  143.8416  150.7061 H   0  0  0  0  0  0  0  0  0  0  0  0  # atno 10167 bound_to 10162
  157.1101  131.0465  151.2461 H   0  0  0  0  0  0  0  0  0  0  0  0  # atno 10718 bound_to 10713
  153.1645  135.6802  153.8695 H   0  0  0  0  0  0  0  0  0  0  0  0  # atno 10763 bound_to 10752
  153.8079  135.3147  155.3398 H   0  0  0  0  0  0  0  0  0  0  0  0  # atno 10764 bound_to 10752
  154.7956  135.4809  154.0243 H   0  0  0  0  0  0  0  0  0  0  0  0  # atno 10765 bound_to 10752
  140.5683  134.5264  157.5157 H   0  0  0  0  0  0  0  0  0  0  0  0  # atno 11005 bound_to 11000
  146.0029  139.3106  143.0916 LP  0  0  0  0  0  0  0  0  0  0  0  0  # atno 17320 bound_to 7965
  145.8772  140.9385  143.0620 LP  0  0  0  0  0  0  0  0  0  0  0  0  # atno 17321 bound_to 7965
  140.1984  143.3979  152.1810 LP  0  0  0  0  0  0  0  0  0  0  0  0  # atno 17342 bound_to 10162
  139.5358  144.7208  151.4898 LP  0  0  0  0  0  0  0  0  0  0  0  0  # atno 17343 bound_to 10162
  157.4566  130.7629  149.7199 LP  0  0  0  0  0  0  0  0  0  0  0  0  # atno 17370 bound_to 10713
  155.9852  130.3984  150.3271 LP  0  0  0  0  0  0  0  0  0  0  0  0  # atno 17371 bound_to 10713
  139.9374  134.7850  156.0767 LP  0  0  0  0  0  0  0  0  0  0  0  0  # atno 17394 bound_to 11000
  141.1072  133.6656  156.2892 LP  0  0  0  0  0  0  0  0  0  0  0  0  # atno 17395 bound_to 11000

$$$$
