AV-unprocessed.smi:1830|AV-procd|sdf|7441|dock7
  -GOLD-   22720 9133D 1   1.00000     0.00000
 Structure written by MMmdl.
 52 55  0  0  0  0  0  0  0  0  1 V2000
  151.1250  134.8473  155.2355 O   0  0  0  0  0  0  0  0  0  0  0  0
  150.1415  135.3591  154.7003 C   0  0  0  0  0  0  0  0  0  0  0  0
  149.9482  136.6821  154.6184 N   0  0  0  0  0  0  0  0  0  0  0  0
  150.8525  137.6949  155.1505 C   0  0  0  0  0  0  0  0  0  0  0  0
  150.8417  138.9786  154.2926 C   0  0  1  0  0  0  0  0  0  0  0  0
  149.5103  139.7580  154.4027 C   0  0  0  0  0  0  0  0  0  0  0  0
  149.4253  140.4476  155.6765 N   0  0  0  0  0  0  0  0  0  0  0  0
  148.2720  141.2919  155.8836 C   0  0  0  0  0  0  0  0  0  0  0  0
  148.6567  142.1720  157.0851 C   0  0  0  0  0  0  0  0  0  0  0  0
  150.1997  142.1103  157.1288 C   0  0  0  0  0  0  0  0  0  0  0  0
  150.5455  141.3302  155.8588 C   0  0  1  0  0  0  0  0  0  0  0  0
  151.8640  140.5454  155.8483 C   0  0  0  0  0  0  0  0  0  0  0  0
  151.9540  139.8315  154.6110 O   0  0  0  0  0  0  0  0  0  0  0  0
  149.1191  134.6860  154.1470 N   0  0  0  0  0  0  0  0  0  0  0  0
  148.9473  133.2773  154.0269 C   0  0  0  0  0  0  0  0  0  0  0  0
  149.7082  132.3517  154.7822 C   0  0  0  0  0  0  0  0  0  0  0  0
  149.4932  130.9742  154.5994 C   0  0  0  0  0  0  0  0  0  0  0  0
  148.5299  130.5685  153.6599 C   0  0  0  0  0  0  0  0  0  0  0  0
  147.8096  131.4361  152.9208 N   0  0  0  0  0  0  0  0  0  0  0  0
  148.0058  132.7664  153.0928 C   0  0  0  0  0  0  0  0  0  0  0  0
  147.2600  133.6475  152.2820 N   0  0  0  0  0  0  0  0  0  0  0  0
  146.6132  132.9941  151.1476 C   0  0  0  0  0  0  0  0  0  0  0  0
  145.2720  133.7021  150.9484 C   0  0  0  0  0  0  0  0  0  0  0  0
  144.9351  134.1965  152.3494 C   0  0  0  0  0  0  0  0  0  0  0  0
  146.3086  134.5645  152.9085 C   0  0  0  0  0  0  0  0  0  0  0  0
  149.1075  137.0150  154.1694 H   0  0  0  0  0  0  0  0  0  0  0  0
  150.5789  137.9296  156.1806 H   0  0  0  0  0  0  0  0  0  0  0  0
  151.8536  137.2668  155.1975 H   0  0  0  0  0  0  0  0  0  0  0  0
  150.9633  138.6822  153.2501 H   0  0  0  0  0  0  0  0  0  0  0  0
  149.4511  140.4835  153.5901 H   0  0  0  0  0  0  0  0  0  0  0  0
  148.6619  139.0837  154.2810 H   0  0  0  0  0  0  0  0  0  0  0  0
  148.1008  141.9175  155.0059 H   0  0  0  0  0  0  0  0  0  0  0  0
  147.3703  140.7055  156.0632 H   0  0  0  0  0  0  0  0  0  0  0  0
  148.2902  143.1913  156.9595 H   0  0  0  0  0  0  0  0  0  0  0  0
  148.2350  141.7753  158.0095 H   0  0  0  0  0  0  0  0  0  0  0  0
  150.6605  143.0983  157.1427 H   0  0  0  0  0  0  0  0  0  0  0  0
  150.5284  141.5692  158.0171 H   0  0  0  0  0  0  0  0  0  0  0  0
  150.5712  142.0412  155.0302 H   0  0  0  0  0  0  0  0  0  0  0  0
  152.7143  141.2221  155.9325 H   0  0  0  0  0  0  0  0  0  0  0  0
  151.9197  139.8551  156.6907 H   0  0  0  0  0  0  0  0  0  0  0  0
  148.3340  135.2429  153.8431 H   0  0  0  0  0  0  0  0  0  0  0  0
  150.4610  132.6717  155.4857 H   0  0  0  0  0  0  0  0  0  0  0  0
  150.0575  130.2461  155.1631 H   0  0  0  0  0  0  0  0  0  0  0  0
  148.3382  129.5194  153.4905 H   0  0  0  0  0  0  0  0  0  0  0  0
  147.2312  133.0569  150.2518 H   0  0  0  0  0  0  0  0  0  0  0  0
  146.4479  131.9376  151.3661 H   0  0  0  0  0  0  0  0  0  0  0  0
  145.3975  134.5536  150.2782 H   0  0  0  0  0  0  0  0  0  0  0  0
  144.5057  133.0503  150.5278 H   0  0  0  0  0  0  0  0  0  0  0  0
  144.2366  135.0334  152.3532 H   0  0  0  0  0  0  0  0  0  0  0  0
  144.4996  133.3857  152.9349 H   0  0  0  0  0  0  0  0  0  0  0  0
  146.3189  134.5524  153.9984 H   0  0  0  0  0  0  0  0  0  0  0  0
  146.5750  135.5765  152.6022 H   0  0  0  0  0  0  0  0  0  0  0  0
  1  2  2  0  0  0  0
  2  3  1  0  0  0  0
  2 14  1  0  0  0  0
  3  4  1  0  0  0  0
  3 26  1  0  0  0  0
  4  5  1  0  0  0  0
  4 27  1  0  0  0  0
  4 28  1  0  0  0  0
  5 13  1  0  0  0  0
  5  6  1  0  0  0  0
  5 29  1  0  0  0  0
  6  7  1  0  0  0  0
  6 30  1  0  0  0  0
  6 31  1  0  0  0  0
  7 11  1  0  0  0  0
  7  8  1  0  0  0  0
  8  9  1  0  0  0  0
  8 32  1  0  0  0  0
  8 33  1  0  0  0  0
  9 10  1  0  0  0  0
  9 34  1  0  0  0  0
  9 35  1  0  0  0  0
 10 11  1  0  0  0  0
 10 36  1  0  0  0  0
 10 37  1  0  0  0  0
 11 12  1  0  0  0  0
 11 38  1  0  0  0  0
 12 13  1  0  0  0  0
 12 39  1  0  0  0  0
 12 40  1  0  0  0  0
 14 15  1  0  0  0  0
 14 41  1  0  0  0  0
 15 20  1  0  0  0  0
 15 16  2  0  0  0  0
 16 17  1  0  0  0  0
 16 42  1  0  0  0  0
 17 18  2  0  0  0  0
 17 43  1  0  0  0  0
 18 19  1  0  0  0  0
 18 44  1  0  0  0  0
 19 20  2  0  0  0  0
 20 21  1  0  0  0  0
 21 25  1  0  0  0  0
 21 22  1  0  0  0  0
 22 23  1  0  0  0  0
 22 45  1  0  0  0  0
 22 46  1  0  0  0  0
 23 24  1  0  0  0  0
 23 47  1  0  0  0  0
 23 48  1  0  0  0  0
 24 25  1  0  0  0  0
 24 49  1  0  0  0  0
 24 50  1  0  0  0  0
 25 51  1  0  0  0  0
 25 52  1  0  0  0  0
M  END
> <s_m_source_file>
AV-unprocessed.smi

> <i_m_source_file_index>
1830

> <i_lp_mmshare_version>
43012

> <i_f3d_flags>
0

> <s_epik_input>
W0NIMl0xW0NIMl1bQ0gyXVtDQEhdKE4xMilbQ0gyXU9bQ0BASF0oW0NIMl0yKVtDSDJdW05IXUMoPU8pW05IXWMzW2NIXVtjSF1bY0hdbmMzTjRbQ0gyXVtDSDJdW0NIMl1bQ0gyXTQ=

> <s_epik_cmdline>
J2VwaWtfcHl0aG9uJywgJy1waCcsICc3LjAnLCAnLXRuJywgJzgnLCAnLW1hJywgJzIwMCcsICctbWV0YWxfYmluZGluZycsICctaW1hZScsICc8aW5maWxlLm1hZT4nLCAnLW9tYWUnLCAnPG91dGZpbGUubWFlPic=

> <r_lp_tautomer_probability>
1

> <r_epik_Ionization_Penalty>
1.16487

> <r_epik_Ionization_Penalty_Charging>
0

> <r_epik_Ionization_Penalty_Neutral>
1.16487

> <r_epik_State_Penalty>
1.21807

> <r_epik_Charging_Adjusted_Penalty>
1.21807

> <i_epik_Tot_Q>
0

> <i_epik_Tot_abs_Q>
0

> <r_epik_Metal_State_Penalty>
1.19922

> <b_epik_Metal_Only>
0

> <s_lp_Force_Field>
OPLS_2005

> <r_lp_Energy>
78.6276

> <b_lp_Chiralities_Consistent>
1

> <s_lp_Variant>
AV-unprocessed.smi:1830-10

> <Gold.Version>
5.8.1

> <Gold.Id.Protein>
6NUR|6NUR_protein|mol2

> <Gold.PLP.Fitness>
43.0510

> <Gold.PLP.PLP>
-38.7057

> <Gold.PLP.part.hbond>
-3.8611

> <Gold.PLP.part.metal>
0.0000

> <Gold.PLP.part.buried>
-2.5860

> <Gold.PLP.part.nonpolar>
-32.7317

> <Gold.PLP.part.repulsive>
1.9528

> <Gold.PLP.ligand.clash>
0.0000

> <Gold.PLP.ligand.torsion>
0.5188

> <Gold.PLP.Chemscore.Hbond>
1.7517

> <Gold.PLP.Chemscore.CHOScore>
0.0000

> <Gold.PLP.Chemscore.Metal>
0.0000

> <Gold.Chemscore.Hbonds>
donor molecule, donor type, donor heavy atom, donor atom, acceptor molecule, acceptor atom, score
      L1  H    14    41       P1  7948  0.04
      P1  H  7989  7998       L1    13  0.68
      P1  H 10752 10765       L1     1  0.77

> <Gold.PLP.Chemscore.Internal.Correction>
0.1280

> <Gold.Rescore>
     Score         DG    S(hbond)    S(metal)    S(lipo)     H(rot)  DE(clash)    DE(int)     intcor
     13.63     -16.45       1.53        0.00      80.08       1.37       0.20       2.61       ----

> <Gold.Chemscore.Fitness>
13.6324

> <Gold.Chemscore.DG>
-16.4520

> <Gold.Chemscore.ZeroCoef>
-5.4800

> <Gold.Chemscore.Hbond>
1.5335

> <Gold.Chemscore.Metal>
0.0000

> <Gold.Chemscore.Lipo>
80.0774

> <Gold.Chemscore.Internal_Hbond>
0.0000

> <Gold.Chemscore.DEClash>
0.2047

> <Gold.Chemscore.DEInternal>
2.6149

> <Gold.Chemscore.Rot>
1.3746

> <Gold.Chemscore.Internal.Correction>
   9.000000E+99

> <Gold.Chemscore.Hbonds>
donor molecule, donor type, donor heavy atom, donor atom, acceptor molecule, acceptor atom, score
      L1  H     3    26       P1  7948  0.02
      L1  H    14    41       P1  7948  0.05
      P1  H  7989  7998       L1    13  0.04
      P1  H 10752 10765       L1     1  0.67

> <Gold.Chemscore.Hbond.Weighted>
-5.1218

> <Gold.Chemscore.Metal.Weighted>
-0.0000

> <Gold.Chemscore.Lipo.Weighted>
-9.3691

> <Gold.Chemscore.Internal_Hbond.Weighted>
0.0000

> <Gold.Chemscore.DEClash.Weighted>
0.2047

> <Gold.Chemscore.DEInternal.Weighted>
2.6149

> <Gold.Chemscore.Rot.Weighted>
3.5189

> <Gold.Chemscore.Internal.Correction.Weighted>
   9.000000E+99

> <Gold.Protein.RotatedTorsions>
[ 6907 6896 6895 6894 ] final -147.02 input  -60.11 | X-H torsion
[ 7974 7965 7964 7962 ] final -172.55 input  175.53 | X-H torsion
[ 8008 7997 7996 7995 ] final   -2.93 input   59.86 | X-H torsion
[ 10167 10162 10161 10158 ] final   91.20 input  -65.29 | X-H torsion
[ 10718 10713 10712 10709 ] final   63.86 input   66.30 | X-H torsion
[ 10763 10752 10751 10750 ] final -175.14 input  -60.55 | X-H torsion
[ 11005 11000 10999 10996 ] final  154.99 input  -57.11 | X-H torsion

> <Gold.Protein.ActiveResidues>
 VAL166  LYS551  ARG553  GLY616  TRP617  ASP618  TYR619  PRO620  LYS621  CYS622 
 ASP623  PHE694  ASN695  SER759  ASP760  ASP761  ALA762  ILE779  LEU786  VAL792 
 PHE793  MET794  SER795  GLU796  ALA797  LYS798  CYS799  TRP800  GLU811  SER814 

> <Gold.Protein.RotatedAtoms>
  151.1498  133.4915  159.2595 H   0  0  0  0  0  0  0  0  0  0  0  0  # atno 6907 bound_to 6896
  151.1566  135.0253  159.8702 H   0  0  0  0  0  0  0  0  0  0  0  0  # atno 6908 bound_to 6896
  152.5463  134.1376  159.8518 H   0  0  0  0  0  0  0  0  0  0  0  0  # atno 6909 bound_to 6896
  144.7145  140.1755  143.6363 H   0  0  0  0  0  0  0  0  0  0  0  0  # atno 7974 bound_to 7965
  154.6304  140.2522  155.7441 H   0  0  0  0  0  0  0  0  0  0  0  0  # atno 8008 bound_to 7997
  156.2476  140.2908  156.0572 H   0  0  0  0  0  0  0  0  0  0  0  0  # atno 8009 bound_to 7997
  155.1755  140.0387  157.2862 H   0  0  0  0  0  0  0  0  0  0  0  0  # atno 8010 bound_to 7997
  139.8398  144.6647  150.9297 H   0  0  0  0  0  0  0  0  0  0  0  0  # atno 10167 bound_to 10162
  157.6000  130.9128  149.9771 H   0  0  0  0  0  0  0  0  0  0  0  0  # atno 10718 bound_to 10713
  154.5879  135.2842  155.0666 H   0  0  0  0  0  0  0  0  0  0  0  0  # atno 10763 bound_to 10752
  154.1977  135.6430  153.5082 H   0  0  0  0  0  0  0  0  0  0  0  0  # atno 10764 bound_to 10752
  153.0111  135.5461  154.6555 H   0  0  0  0  0  0  0  0  0  0  0  0  # atno 10765 bound_to 10752
  140.1539  134.8655  157.2490 H   0  0  0  0  0  0  0  0  0  0  0  0  # atno 11005 bound_to 11000
  145.8904  139.2373  143.1552 LP  0  0  0  0  0  0  0  0  0  0  0  0  # atno 17320 bound_to 7965
  145.9908  140.8604  143.0067 LP  0  0  0  0  0  0  0  0  0  0  0  0  # atno 17321 bound_to 7965
  140.7799  143.3923  151.1288 LP  0  0  0  0  0  0  0  0  0  0  0  0  # atno 17342 bound_to 10162
  139.7570  143.8692  152.3091 LP  0  0  0  0  0  0  0  0  0  0  0  0  # atno 17343 bound_to 10162
  156.1071  130.3652  150.0114 LP  0  0  0  0  0  0  0  0  0  0  0  0  # atno 17370 bound_to 10713
  156.8219  130.9361  151.3641 LP  0  0  0  0  0  0  0  0  0  0  0  0  # atno 17371 bound_to 10713
  140.2570  134.3615  155.7420 LP  0  0  0  0  0  0  0  0  0  0  0  0  # atno 17394 bound_to 11000
  141.2202  133.7348  156.9023 LP  0  0  0  0  0  0  0  0  0  0  0  0  # atno 17395 bound_to 11000

$$$$
