AV-unprocessed.smi:919|AV-procd|sdf|4166|dock8
  -GOLD-   22720 2 73D 1   1.00000     0.00000
 Structure written by MMmdl.
 43 45  0  0  0  0  0  0  0  0  1 V2000
  152.8767  138.6639  155.1963 C   0  0  0  0  0  0  0  0  0  0  0  0
  151.4012  138.8023  154.9522 C   0  0  0  0  0  0  0  0  0  0  0  0
  150.8817  140.0005  154.7440 N   0  0  0  0  0  0  0  0  0  0  0  0
  149.5115  139.7954  154.5543 O   0  0  0  0  0  0  0  0  0  0  0  0
  149.2572  138.4658  154.6561 C   0  0  0  0  0  0  0  0  0  0  0  0
  147.8371  138.0446  154.4858 C   0  0  0  0  0  0  0  0  0  0  0  0
  150.4132  137.7781  154.9038 C   0  0  0  0  0  0  0  0  0  0  0  0
  150.6127  136.2989  155.0884 C   0  0  0  0  0  0  0  0  0  0  0  0
  149.2819  135.5851  155.3723 C   0  0  0  0  0  0  0  0  0  0  0  0
  148.6397  135.1501  154.1389 N   0  0  0  0  0  0  0  0  0  0  0  0
  147.5146  134.4185  154.0736 C   0  0  0  0  0  0  0  0  0  0  0  0
  146.8827  134.0565  155.0645 O   0  0  0  0  0  0  0  0  0  0  0  0
  147.1224  134.1029  152.8270 N   0  0  0  0  0  0  0  0  0  0  0  0
  145.9486  133.3231  152.4254 C   0  0  2  0  0  0  0  0  0  0  0  0
  145.9538  133.0512  150.9048 C   0  0  0  0  0  0  0  0  0  0  0  0
  144.6209  133.6622  150.4352 C   0  0  2  0  0  0  0  0  0  0  0  0
  144.7070  135.1991  150.4969 C   0  0  0  0  0  0  0  0  0  0  0  0
  144.6461  135.4834  152.0095 C   0  0  0  0  0  0  0  0  0  0  0  0
  144.5994  134.0648  152.6172 C   0  0  1  0  0  0  0  0  0  0  0  0
  143.7056  133.3479  151.6109 C   0  0  0  0  0  0  0  0  0  0  0  0
  153.0818  137.8798  155.9256 H   0  0  0  0  0  0  0  0  0  0  0  0
  153.3099  139.5893  155.5782 H   0  0  0  0  0  0  0  0  0  0  0  0
  153.4001  138.4051  154.2756 H   0  0  0  0  0  0  0  0  0  0  0  0
  147.6840  137.0279  154.8480 H   0  0  0  0  0  0  0  0  0  0  0  0
  147.5487  138.0771  153.4352 H   0  0  0  0  0  0  0  0  0  0  0  0
  147.1687  138.7027  155.0412 H   0  0  0  0  0  0  0  0  0  0  0  0
  151.0764  135.8592  154.2047 H   0  0  0  0  0  0  0  0  0  0  0  0
  151.3089  136.1118  155.9067 H   0  0  0  0  0  0  0  0  0  0  0  0
  149.4374  134.7300  156.0326 H   0  0  0  0  0  0  0  0  0  0  0  0
  148.6007  136.2592  155.8926 H   0  0  0  0  0  0  0  0  0  0  0  0
  149.0897  135.4079  153.2726 H   0  0  0  0  0  0  0  0  0  0  0  0
  147.6882  134.4640  152.0724 H   0  0  0  0  0  0  0  0  0  0  0  0
  145.9358  132.3694  152.9564 H   0  0  0  0  0  0  0  0  0  0  0  0
  146.8078  133.4921  150.3879 H   0  0  0  0  0  0  0  0  0  0  0  0
  145.9735  131.9779  150.7118 H   0  0  0  0  0  0  0  0  0  0  0  0
  144.2821  133.2812  149.4715 H   0  0  0  0  0  0  0  0  0  0  0  0
  145.6215  135.5784  150.0393 H   0  0  0  0  0  0  0  0  0  0  0  0
  143.8604  135.6596  149.9863 H   0  0  0  0  0  0  0  0  0  0  0  0
  145.4857  136.0832  152.3608 H   0  0  0  0  0  0  0  0  0  0  0  0
  143.7345  136.0304  152.2537 H   0  0  0  0  0  0  0  0  0  0  0  0
  144.2317  134.0462  153.6436 H   0  0  0  0  0  0  0  0  0  0  0  0
  142.7124  133.7912  151.5176 H   0  0  0  0  0  0  0  0  0  0  0  0
  143.6032  132.2791  151.8067 H   0  0  0  0  0  0  0  0  0  0  0  0
  1  2  1  0  0  0  0
  1 21  1  0  0  0  0
  1 22  1  0  0  0  0
  1 23  1  0  0  0  0
  2  7  1  0  0  0  0
  2  3  2  0  0  0  0
  3  4  1  0  0  0  0
  4  5  1  0  0  0  0
  5  6  1  0  0  0  0
  5  7  2  0  0  0  0
  6 24  1  0  0  0  0
  6 25  1  0  0  0  0
  6 26  1  0  0  0  0
  7  8  1  0  0  0  0
  8  9  1  0  0  0  0
  8 27  1  0  0  0  0
  8 28  1  0  0  0  0
  9 10  1  0  0  0  0
  9 29  1  0  0  0  0
  9 30  1  0  0  0  0
 10 11  1  0  0  0  0
 10 31  1  0  0  0  0
 11 12  2  0  0  0  0
 11 13  1  0  0  0  0
 13 14  1  0  0  0  0
 13 32  1  0  0  0  0
 14 19  1  0  0  0  0
 14 15  1  0  0  0  0
 14 33  1  0  0  0  0
 15 16  1  0  0  0  0
 15 34  1  0  0  0  0
 15 35  1  0  0  0  0
 16 20  1  0  0  0  0
 16 17  1  0  0  0  0
 16 36  1  0  0  0  0
 17 18  1  0  0  0  0
 17 37  1  0  0  0  0
 17 38  1  0  0  0  0
 18 19  1  0  0  0  0
 18 39  1  0  0  0  0
 18 40  1  0  0  0  0
 19 20  1  0  0  0  0
 19 41  1  0  0  0  0
 20 42  1  0  0  0  0
 20 43  1  0  0  0  0
M  END
> <s_m_source_file>
AV-unprocessed.smi

> <i_m_source_file_index>
919

> <i_lp_mmshare_version>
43012

> <i_f3d_flags>
0

> <s_epik_input>
W0NIM11jMW5vYyhbQ0gzXSljMVtDSDJdW0NIMl1bTkhdQyg9TylbTkhdW0NASF0oW0NIMl1bQ0BASF0yMylbQ0BASF0oW0NIMl0zKVtDSDJdW0NIMl0y

> <s_epik_cmdline>
J2VwaWtfcHl0aG9uJywgJy1waCcsICc3LjAnLCAnLXRuJywgJzgnLCAnLW1hJywgJzIwMCcsICctbWV0YWxfYmluZGluZycsICctaW1hZScsICc8aW5maWxlLm1hZT4nLCAnLW9tYWUnLCAnPG91dGZpbGUubWFlPic=

> <r_lp_tautomer_probability>
1

> <r_epik_Ionization_Penalty>
6.40771e-05

> <r_epik_Ionization_Penalty_Charging>
0

> <r_epik_Ionization_Penalty_Neutral>
6.40771e-05

> <r_epik_State_Penalty>
-0

> <r_epik_Charging_Adjusted_Penalty>
0

> <i_epik_Tot_Q>
0

> <i_epik_Tot_abs_Q>
0

> <r_epik_Metal_State_Penalty>
-0

> <b_epik_Metal_Only>
0

> <s_lp_Force_Field>
OPLS_2005

> <r_lp_Energy>
47.1923

> <b_lp_Chiralities_Consistent>
1

> <s_lp_Variant>
AV-unprocessed.smi:919-3

> <Gold.Version>
5.8.1

> <Gold.Id.Protein>
6NUR|6NUR_protein|mol2

> <Gold.PLP.Fitness>
38.8549

> <Gold.PLP.PLP>
-33.0502

> <Gold.PLP.part.hbond>
-2.7413

> <Gold.PLP.part.metal>
0.0000

> <Gold.PLP.part.buried>
-4.3515

> <Gold.PLP.part.nonpolar>
-26.0092

> <Gold.PLP.part.repulsive>
0.2474

> <Gold.PLP.ligand.clash>
0.4322

> <Gold.PLP.ligand.torsion>
0.5007

> <Gold.PLP.Chemscore.Hbond>
2.4077

> <Gold.PLP.Chemscore.CHOScore>
0.0000

> <Gold.PLP.Chemscore.Metal>
0.0000

> <Gold.Chemscore.Hbonds>
donor molecule, donor type, donor heavy atom, donor atom, acceptor molecule, acceptor atom, score
      L1  H    10    31       P1  7948  0.96
      L1  H    13    32       P1  7948  0.53
      P1  H  7989  7998       L1     3  1.00

> <Gold.PLP.Chemscore.Internal.Correction>
0.0153

> <Gold.Rescore>
     Score         DG    S(hbond)    S(metal)    S(lipo)     H(rot)  DE(clash)    DE(int)     intcor
     16.85     -18.53       2.52        0.00      72.79       1.52       0.04       1.65       ----

> <Gold.Chemscore.Fitness>
16.8453

> <Gold.Chemscore.DG>
-18.5280

> <Gold.Chemscore.ZeroCoef>
-5.4800

> <Gold.Chemscore.Hbond>
2.5189

> <Gold.Chemscore.Metal>
0.0000

> <Gold.Chemscore.Lipo>
72.7887

> <Gold.Chemscore.Internal_Hbond>
0.0000

> <Gold.Chemscore.DEClash>
0.0358

> <Gold.Chemscore.DEInternal>
1.6469

> <Gold.Chemscore.Rot>
1.5161

> <Gold.Chemscore.Internal.Correction>
   9.000000E+99

> <Gold.Chemscore.Hbonds>
donor molecule, donor type, donor heavy atom, donor atom, acceptor molecule, acceptor atom, score
      L1  H    10    31       P1  7948  0.41
      L1  H    13    32       P1  7948  0.21
      P1  H  7989  7998       L1     3  0.78

> <Gold.Chemscore.Hbond.Weighted>
-8.4130

> <Gold.Chemscore.Metal.Weighted>
-0.0000

> <Gold.Chemscore.Lipo.Weighted>
-8.5163

> <Gold.Chemscore.Internal_Hbond.Weighted>
0.0000

> <Gold.Chemscore.DEClash.Weighted>
0.0358

> <Gold.Chemscore.DEInternal.Weighted>
1.6469

> <Gold.Chemscore.Rot.Weighted>
3.8813

> <Gold.Chemscore.Internal.Correction.Weighted>
   9.000000E+99

> <Gold.Protein.RotatedTorsions>
[ 6907 6896 6895 6894 ] final  123.19 input  -60.11 | X-H torsion
[ 7974 7965 7964 7962 ] final  -57.67 input  175.53 | X-H torsion
[ 8008 7997 7996 7995 ] final -141.09 input   59.86 | X-H torsion
[ 10167 10162 10161 10158 ] final   72.34 input  -65.29 | X-H torsion
[ 10718 10713 10712 10709 ] final  120.78 input   66.30 | X-H torsion
[ 10763 10752 10751 10750 ] final   14.58 input  -60.55 | X-H torsion
[ 11005 11000 10999 10996 ] final -117.86 input  -57.11 | X-H torsion

> <Gold.Protein.ActiveResidues>
 VAL166  LYS551  ARG553  GLY616  TRP617  ASP618  TYR619  PRO620  LYS621  CYS622 
 ASP623  PHE694  ASN695  SER759  ASP760  ASP761  ALA762  ILE779  LEU786  VAL792 
 PHE793  MET794  SER795  GLU796  ALA797  LYS798  CYS799  TRP800  GLU811  SER814 

> <Gold.Protein.RotatedAtoms>
  152.4182  133.7072  159.6457 H   0  0  0  0  0  0  0  0  0  0  0  0  # atno 6907 bound_to 6896
  150.8058  133.8502  159.3212 H   0  0  0  0  0  0  0  0  0  0  0  0  # atno 6908 bound_to 6896
  151.6226  135.1032  160.0156 H   0  0  0  0  0  0  0  0  0  0  0  0  # atno 6909 bound_to 6896
  145.8484  140.8369  142.9998 H   0  0  0  0  0  0  0  0  0  0  0  0  # atno 7974 bound_to 7965
  155.4721  140.0554  157.2978 H   0  0  0  0  0  0  0  0  0  0  0  0  # atno 8008 bound_to 7997
  154.4694  140.2033  155.9987 H   0  0  0  0  0  0  0  0  0  0  0  0  # atno 8009 bound_to 7997
  156.1030  140.3216  155.7972 H   0  0  0  0  0  0  0  0  0  0  0  0  # atno 8010 bound_to 7997
  140.0364  144.5425  150.7468 H   0  0  0  0  0  0  0  0  0  0  0  0  # atno 10167 bound_to 10162
  157.5866  131.1069  150.8082 H   0  0  0  0  0  0  0  0  0  0  0  0  # atno 10718 bound_to 10713
  153.1608  135.6795  153.8745 H   0  0  0  0  0  0  0  0  0  0  0  0  # atno 10763 bound_to 10752
  153.8141  135.3139  155.3405 H   0  0  0  0  0  0  0  0  0  0  0  0  # atno 10764 bound_to 10752
  154.7931  135.4823  154.0187 H   0  0  0  0  0  0  0  0  0  0  0  0  # atno 10765 bound_to 10752
  141.0326  133.9958  157.3120 H   0  0  0  0  0  0  0  0  0  0  0  0  # atno 11005 bound_to 11000
  144.6730  140.0916  143.7465 LP  0  0  0  0  0  0  0  0  0  0  0  0  # atno 17320 bound_to 7965
  145.9386  139.2654  143.1282 LP  0  0  0  0  0  0  0  0  0  0  0  0  # atno 17321 bound_to 7965
  140.7280  143.2657  151.4054 LP  0  0  0  0  0  0  0  0  0  0  0  0  # atno 17342 bound_to 10162
  139.6042  144.1231  152.2231 LP  0  0  0  0  0  0  0  0  0  0  0  0  # atno 17343 bound_to 10162
  156.8515  130.5082  149.5311 LP  0  0  0  0  0  0  0  0  0  0  0  0  # atno 17370 bound_to 10713
  156.0916  130.5900  150.9742 LP  0  0  0  0  0  0  0  0  0  0  0  0  # atno 17371 bound_to 10713
  139.9218  135.0200  156.8092 LP  0  0  0  0  0  0  0  0  0  0  0  0  # atno 17394 bound_to 11000
  140.6380  133.9845  155.7693 LP  0  0  0  0  0  0  0  0  0  0  0  0  # atno 17395 bound_to 11000

$$$$
