AV-unprocessed.smi:1429|AV-procd|sdf|5820|dock3
  -GOLD-   22720 5473D 1   1.00000     0.00000
 Structure written by MMmdl.
 29 30  0  0  0  0  0  0  0  0  2 V2000
  148.8658  140.7445  154.5075 C   0  0  0  0  0  0  0  0  0  0  0  0
  149.8221  139.6074  154.6252 C   0  0  0  0  0  0  0  0  0  0  0  0
  151.1426  139.7523  154.5060 N   0  0  0  0  0  0  0  0  0  0  0  0
  151.8135  138.5483  154.6545 N   0  0  0  0  0  0  0  0  0  0  0  0
  150.9992  137.5012  154.8847 C   0  0  0  0  0  0  0  0  0  0  0  0
  151.3773  136.2162  155.0695 N   0  5  0  0  0  0  0  0  0  0  0  0
  150.5382  135.1702  155.2818 C   0  0  0  0  0  0  0  0  0  0  0  0
  150.5530  134.3736  156.2223 O   0  0  0  0  0  0  0  0  0  0  0  0
  149.6083  135.0390  154.3262 N   0  0  0  0  0  0  0  0  0  0  0  0
  148.5773  134.0090  154.2911 C   0  0  0  0  0  0  0  0  0  0  0  0
  149.1485  132.6747  153.7847 C   0  0  2  0  0  0  0  0  0  0  0  0
  148.1091  131.6131  153.4816 C   0  0  0  0  0  0  0  0  0  0  0  0
  148.9483  130.3390  153.4920 C   0  0  0  0  0  0  0  0  0  0  0  0
  150.0062  130.5744  154.4174 O   0  0  0  0  0  0  0  0  0  0  0  0
  150.0210  131.9452  154.8053 C   0  0  0  0  0  0  0  0  0  0  0  0
  149.2975  137.9626  154.9324 S   0  0  0  0  0  0  0  0  0  0  0  0
  149.3973  141.6759  154.3099 H   0  0  0  0  0  0  0  0  0  0  0  0
  148.3015  140.8539  155.4336 H   0  0  0  0  0  0  0  0  0  0  0  0
  148.1679  140.5605  153.6906 H   0  0  0  0  0  0  0  0  0  0  0  0
  149.6190  135.7058  153.5686 H   0  0  0  0  0  0  0  0  0  0  0  0
  148.1676  133.8785  155.2938 H   0  0  0  0  0  0  0  0  0  0  0  0
  147.7577  134.3384  153.6503 H   0  0  0  0  0  0  0  0  0  0  0  0
  149.7412  132.8515  152.8853 H   0  0  0  0  0  0  0  0  0  0  0  0
  147.3614  131.5753  154.2753 H   0  0  0  0  0  0  0  0  0  0  0  0
  147.5934  131.7728  152.5344 H   0  0  0  0  0  0  0  0  0  0  0  0
  148.3656  129.4595  153.7668 H   0  0  0  0  0  0  0  0  0  0  0  0
  149.3831  130.1622  152.5074 H   0  0  0  0  0  0  0  0  0  0  0  0
  151.0374  132.3380  154.8420 H   0  0  0  0  0  0  0  0  0  0  0  0
  149.5930  132.0230  155.8057 H   0  0  0  0  0  0  0  0  0  0  0  0
  1  2  1  0  0  0  0
  1 17  1  0  0  0  0
  1 18  1  0  0  0  0
  1 19  1  0  0  0  0
  2 16  1  0  0  0  0
  2  3  2  0  0  0  0
  3  4  1  0  0  0  0
  4  5  2  0  0  0  0
  5  6  1  0  0  0  0
  5 16  1  0  0  0  0
  6  7  1  0  0  0  0
  7  8  2  0  0  0  0
  7  9  1  0  0  0  0
  9 10  1  0  0  0  0
  9 20  1  0  0  0  0
 10 11  1  0  0  0  0
 10 21  1  0  0  0  0
 10 22  1  0  0  0  0
 11 15  1  0  0  0  0
 11 12  1  0  0  0  0
 11 23  1  0  0  0  0
 12 13  1  0  0  0  0
 12 24  1  0  0  0  0
 12 25  1  0  0  0  0
 13 14  1  0  0  0  0
 13 26  1  0  0  0  0
 13 27  1  0  0  0  0
 14 15  1  0  0  0  0
 15 28  1  0  0  0  0
 15 29  1  0  0  0  0
M  CHG  1   6  -1
M  END
> <s_m_source_file>
AV-unprocessed.smi

> <i_m_source_file_index>
1429

> <i_lp_mmshare_version>
43012

> <i_f3d_flags>
0

> <s_epik_input>
W0NIM11jMW5uYyhzMSlbTkhdQyg9TylbTkhdW0NIMl1bQ0BASF0yW0NIMl1bQ0gyXU9bQ0gyXTI=

> <s_epik_cmdline>
J2VwaWtfcHl0aG9uJywgJy1waCcsICc3LjAnLCAnLXRuJywgJzgnLCAnLW1hJywgJzIwMCcsICctbWV0YWxfYmluZGluZycsICctaW1hZScsICc8aW5maWxlLm1hZT4nLCAnLW9tYWUnLCAnPG91dGZpbGUubWFlPic=

> <r_lp_tautomer_probability>
1

> <r_epik_Ionization_Penalty>
4.4122

> <r_epik_Ionization_Penalty_Charging>
4.26477

> <r_epik_Ionization_Penalty_Neutral>
0.147429

> <r_epik_State_Penalty>
4.26433

> <r_epik_Charging_Adjusted_Penalty>
8.5291

> <i_epik_Tot_Q>
-1

> <i_epik_Tot_abs_Q>
1

> <r_epik_Metal_State_Penalty>
0.713483

> <b_epik_Metal_Only>
1

> <s_lp_Force_Field>
OPLS_2005

> <r_lp_Energy>
20.5351

> <b_lp_Chiralities_Consistent>
1

> <s_lp_Variant>
AV-unprocessed.smi:1429-3

> <Gold.Version>
5.8.1

> <Gold.Id.Protein>
6NUR|6NUR_protein|mol2

> <Gold.PLP.Fitness>
37.1257

> <Gold.PLP.PLP>
-26.8432

> <Gold.PLP.part.hbond>
-3.0000

> <Gold.PLP.part.metal>
0.0000

> <Gold.PLP.part.buried>
-5.1413

> <Gold.PLP.part.nonpolar>
-20.1262

> <Gold.PLP.part.repulsive>
0.4128

> <Gold.PLP.ligand.clash>
0.0000

> <Gold.PLP.ligand.torsion>
0.7176

> <Gold.PLP.Chemscore.Hbond>
3.8928

> <Gold.PLP.Chemscore.CHOScore>
0.0000

> <Gold.PLP.Chemscore.Metal>
0.0000

> <Gold.Chemscore.Hbonds>
donor molecule, donor type, donor heavy atom, donor atom, acceptor molecule, acceptor atom, score
      L1  H     9    20       P1  7948  0.83
      P1  H  7989  7998       L1     3  1.00
      P1  H 10752 10765       L1     6  2.00

> <Gold.PLP.Chemscore.Internal.Correction>
0.0392

> <Gold.Rescore>
     Score         DG    S(hbond)    S(metal)    S(lipo)     H(rot)  DE(clash)    DE(int)     intcor
     12.25     -15.07       2.45        0.00      40.31       1.30       0.00       2.82       ----

> <Gold.Chemscore.Fitness>
12.2491

> <Gold.Chemscore.DG>
-15.0724

> <Gold.Chemscore.ZeroCoef>
-5.4800

> <Gold.Chemscore.Hbond>
2.4547

> <Gold.Chemscore.Metal>
0.0000

> <Gold.Chemscore.Lipo>
40.3120

> <Gold.Chemscore.Internal_Hbond>
0.0000

> <Gold.Chemscore.DEClash>
0.0029

> <Gold.Chemscore.DEInternal>
2.8203

> <Gold.Chemscore.Rot>
1.2980

> <Gold.Chemscore.Internal.Correction>
   9.000000E+99

> <Gold.Chemscore.Hbonds>
donor molecule, donor type, donor heavy atom, donor atom, acceptor molecule, acceptor atom, score
      L1  H     9    20       P1  7948  0.14
      P1  H  7989  7998       L1     3  0.90
      P1  H 10752 10765       L1     6  0.69

> <Gold.Chemscore.Hbond.Weighted>
-8.1987

> <Gold.Chemscore.Metal.Weighted>
-0.0000

> <Gold.Chemscore.Lipo.Weighted>
-4.7165

> <Gold.Chemscore.Internal_Hbond.Weighted>
0.0000

> <Gold.Chemscore.DEClash.Weighted>
0.0029

> <Gold.Chemscore.DEInternal.Weighted>
2.8203

> <Gold.Chemscore.Rot.Weighted>
3.3229

> <Gold.Chemscore.Internal.Correction.Weighted>
   9.000000E+99

> <Gold.Protein.RotatedTorsions>
[ 6907 6896 6895 6894 ] final  147.21 input  -60.11 | X-H torsion
[ 7974 7965 7964 7962 ] final   -1.87 input  175.53 | X-H torsion
[ 8008 7997 7996 7995 ] final  -69.74 input   59.86 | X-H torsion
[ 10167 10162 10161 10158 ] final  -34.59 input  -65.29 | X-H torsion
[ 10718 10713 10712 10709 ] final  -80.52 input   66.30 | X-H torsion
[ 10763 10752 10751 10750 ] final  173.73 input  -60.55 | X-H torsion
[ 11005 11000 10999 10996 ] final   40.27 input  -57.11 | X-H torsion

> <Gold.Protein.ActiveResidues>
 VAL166  LYS551  ARG553  GLY616  TRP617  ASP618  TYR619  PRO620  LYS621  CYS622 
 ASP623  PHE694  ASN695  SER759  ASP760  ASP761  ALA762  ILE779  LEU786  VAL792 
 PHE793  MET794  SER795  GLU796  ALA797  LYS798  CYS799  TRP800  GLU811  SER814 

> <Gold.Protein.RotatedAtoms>
  152.1577  133.4562  159.4845 H   0  0  0  0  0  0  0  0  0  0  0  0  # atno 6907 bound_to 6896
  150.6903  134.2110  159.4368 H   0  0  0  0  0  0  0  0  0  0  0  0  # atno 6908 bound_to 6896
  152.0010  134.9928  160.0615 H   0  0  0  0  0  0  0  0  0  0  0  0  # atno 6909 bound_to 6896
  146.2412  140.1485  142.8334 H   0  0  0  0  0  0  0  0  0  0  0  0  # atno 7974 bound_to 7965
  154.4960  140.0848  156.7698 H   0  0  0  0  0  0  0  0  0  0  0  0  # atno 8008 bound_to 7997
  155.4115  140.3441  155.4246 H   0  0  0  0  0  0  0  0  0  0  0  0  # atno 8009 bound_to 7997
  156.1394  140.1525  156.8931 H   0  0  0  0  0  0  0  0  0  0  0  0  # atno 8010 bound_to 7997
  140.7182  143.3537  151.2103 H   0  0  0  0  0  0  0  0  0  0  0  0  # atno 10167 bound_to 10162
  156.0068  130.4577  150.3813 H   0  0  0  0  0  0  0  0  0  0  0  0  # atno 10718 bound_to 10713
  154.4441  135.2763  155.1827 H   0  0  0  0  0  0  0  0  0  0  0  0  # atno 10763 bound_to 10752
  154.3682  135.6114  153.5729 H   0  0  0  0  0  0  0  0  0  0  0  0  # atno 10764 bound_to 10752
  152.9842  135.5851  154.4773 H   0  0  0  0  0  0  0  0  0  0  0  0  # atno 10765 bound_to 10752
  140.1947  134.3943  155.8127 H   0  0  0  0  0  0  0  0  0  0  0  0  # atno 11005 bound_to 11000
  145.0187  140.8776  143.5180 LP  0  0  0  0  0  0  0  0  0  0  0  0  # atno 17320 bound_to 7965
  145.1530  139.2503  143.5431 LP  0  0  0  0  0  0  0  0  0  0  0  0  # atno 17321 bound_to 7965
  139.7074  143.9433  152.2932 LP  0  0  0  0  0  0  0  0  0  0  0  0  # atno 17342 bound_to 10162
  139.9146  144.6836  150.8525 LP  0  0  0  0  0  0  0  0  0  0  0  0  # atno 17343 bound_to 10162
  157.1892  131.0411  151.2709 LP  0  0  0  0  0  0  0  0  0  0  0  0  # atno 17370 bound_to 10713
  157.4076  130.7367  149.6814 LP  0  0  0  0  0  0  0  0  0  0  0  0  # atno 17371 bound_to 10713
  141.2227  133.7064  156.8156 LP  0  0  0  0  0  0  0  0  0  0  0  0  # atno 17394 bound_to 11000
  140.2120  134.8820  157.3285 LP  0  0  0  0  0  0  0  0  0  0  0  0  # atno 17395 bound_to 11000

$$$$
