AV-unprocessed.smi:1406|AV-procd|sdf|5719|dock5
  -GOLD-   22720 5353D 1   1.00000     0.00000
 Structure written by MMmdl.
 41 43  0  0  0  0  0  0  0  0  2 V2000
  150.3426  138.5097  158.5287 C   0  0  0  0  0  0  0  0  0  0  0  0
  151.6689  138.7054  157.7666 C   0  0  2  0  0  0  0  0  0  0  0  0
  152.4337  139.9571  158.2238 C   0  0  0  0  0  0  0  0  0  0  0  0
  153.5708  139.8658  158.6876 O   0  0  0  0  0  0  0  0  0  0  0  0
  151.7909  141.1283  158.0950 N   0  0  0  0  0  0  0  0  0  0  0  0
  152.3276  142.4181  158.5155 C   0  0  1  0  0  0  0  0  0  0  0  0
  151.5786  143.6346  157.9373 C   0  0  0  0  0  0  0  0  0  0  0  0
  151.5686  144.6827  159.0676 C   0  0  0  0  0  0  0  0  0  0  0  0
  152.3479  144.0801  160.1664 N   0  3  1  0  0  0  0  0  0  0  0  0
  152.0632  144.5565  161.5373 C   0  0  0  0  0  0  0  0  0  0  0  0
  153.0312  143.8720  162.5238 C   0  0  0  0  0  0  0  0  0  0  0  0
  153.0023  142.3356  162.3840 C   0  0  0  0  0  0  0  0  0  0  0  0
  153.2114  141.9044  160.9191 C   0  0  0  0  0  0  0  0  0  0  0  0
  152.1913  142.6250  160.0230 C   0  0  2  0  0  0  0  0  0  0  0  0
  151.4757  138.7387  156.3224 N   0  0  0  0  0  0  0  0  0  0  0  0
  150.8594  139.6451  155.5604 C   0  0  0  0  0  0  0  0  0  0  0  0
  150.8229  139.3322  154.2730 N   0  0  0  0  0  0  0  0  0  0  0  0
  151.4731  138.1315  154.3117 C   0  0  0  0  0  0  0  0  0  0  0  0
  151.8745  137.7238  155.5153 N   0  0  0  0  0  0  0  0  0  0  0  0
  150.5153  138.4258  159.6022 H   0  0  0  0  0  0  0  0  0  0  0  0
  149.8417  137.5962  158.2069 H   0  0  0  0  0  0  0  0  0  0  0  0
  149.6503  139.3374  158.3700 H   0  0  0  0  0  0  0  0  0  0  0  0
  152.2954  137.8387  157.9851 H   0  0  0  0  0  0  0  0  0  0  0  0
  150.8595  141.1203  157.7051 H   0  0  0  0  0  0  0  0  0  0  0  0
  153.3828  142.4815  158.2413 H   0  0  0  0  0  0  0  0  0  0  0  0
  152.0715  144.0088  157.0391 H   0  0  0  0  0  0  0  0  0  0  0  0
  150.5538  143.3776  157.6653 H   0  0  0  0  0  0  0  0  0  0  0  0
  152.0096  145.6310  158.7588 H   0  0  0  0  0  0  0  0  0  0  0  0
  150.5443  144.8738  159.3913 H   0  0  0  0  0  0  0  0  0  0  0  0
  152.1835  145.6395  161.5812 H   0  0  0  0  0  0  0  0  0  0  0  0
  151.0279  144.3351  161.8010 H   0  0  0  0  0  0  0  0  0  0  0  0
  154.0448  144.2298  162.3383 H   0  0  0  0  0  0  0  0  0  0  0  0
  152.7869  144.1592  163.5470 H   0  0  0  0  0  0  0  0  0  0  0  0
  153.7650  141.8866  163.0206 H   0  0  0  0  0  0  0  0  0  0  0  0
  152.0423  141.9584  162.7393 H   0  0  0  0  0  0  0  0  0  0  0  0
  154.2273  142.1450  160.6028 H   0  0  0  0  0  0  0  0  0  0  0  0
  153.1013  140.8234  160.8266 H   0  0  0  0  0  0  0  0  0  0  0  0
  151.1794  142.3526  160.3325 H   0  0  0  0  0  0  0  0  0  0  0  0
  150.4230  140.5502  155.9563 H   0  0  0  0  0  0  0  0  0  0  0  0
  151.6495  137.5367  153.4276 H   0  0  0  0  0  0  0  0  0  0  0  0
  153.3185  144.2821  159.9732 H   0  0  0  0  0  0  0  0  0  0  0  0
  1  2  1  0  0  0  0
  1 20  1  0  0  0  0
  1 21  1  0  0  0  0
  1 22  1  0  0  0  0
  2  3  1  0  0  0  0
  2 15  1  0  0  0  0
  2 23  1  0  0  0  0
  3  4  2  0  0  0  0
  3  5  1  0  0  0  0
  5  6  1  0  0  0  0
  5 24  1  0  0  0  0
  6 14  1  0  0  0  0
  6  7  1  0  0  0  0
  6 25  1  0  0  0  0
  7  8  1  0  0  0  0
  7 26  1  0  0  0  0
  7 27  1  0  0  0  0
  8  9  1  0  0  0  0
  8 28  1  0  0  0  0
  8 29  1  0  0  0  0
  9 14  1  0  0  0  0
  9 10  1  0  0  0  0
  9 41  1  0  0  0  0
 10 11  1  0  0  0  0
 10 30  1  0  0  0  0
 10 31  1  0  0  0  0
 11 12  1  0  0  0  0
 11 32  1  0  0  0  0
 11 33  1  0  0  0  0
 12 13  1  0  0  0  0
 12 34  1  0  0  0  0
 12 35  1  0  0  0  0
 13 14  1  0  0  0  0
 13 36  1  0  0  0  0
 13 37  1  0  0  0  0
 14 38  1  0  0  0  0
 15 19  1  0  0  0  0
 15 16  1  0  0  0  0
 16 17  2  0  0  0  0
 16 39  1  0  0  0  0
 17 18  1  0  0  0  0
 18 19  2  0  0  0  0
 18 40  1  0  0  0  0
M  CHG  1   9   1
M  END
> <s_m_source_file>
AV-unprocessed.smi

> <i_m_source_file_index>
1406

> <i_lp_mmshare_version>
43012

> <i_f3d_flags>
0

> <s_epik_input>
bjFbY0hdbltjSF1uMVtDQEhdKFtDSDNdKUMoPU8pW05IXVtDQEhdKFtDSDJdW0NIMl0yKVtDQEBIXShOMjMpW0NIMl1bQ0gyXVtDSDJdW0NIMl0z

> <s_epik_cmdline>
J2VwaWtfcHl0aG9uJywgJy1waCcsICc3LjAnLCAnLXRuJywgJzgnLCAnLW1hJywgJzIwMCcsICctbWV0YWxfYmluZGluZycsICctaW1hZScsICc8aW5maWxlLm1hZT4nLCAnLW9tYWUnLCAnPG91dGZpbGUubWFlPic=

> <r_lp_tautomer_probability>
1

> <r_epik_Ionization_Penalty>
0.00197066

> <r_epik_Ionization_Penalty_Charging>
0.00196223

> <r_epik_Ionization_Penalty_Neutral>
8.43107e-06

> <r_epik_State_Penalty>
0.00133866

> <r_epik_Charging_Adjusted_Penalty>
0.00330089

> <i_epik_Tot_Q>
1

> <i_epik_Tot_abs_Q>
1

> <r_epik_Metal_State_Penalty>
-0

> <b_epik_Metal_Only>
0

> <s_lp_Force_Field>
OPLS_2005

> <r_lp_Energy>
39.7149

> <b_lp_Chiralities_Consistent>
1

> <s_lp_Variant>
AV-unprocessed.smi:1406-11

> <Gold.Version>
5.8.1

> <Gold.Id.Protein>
6NUR|6NUR_protein|mol2

> <Gold.PLP.Fitness>
47.3981

> <Gold.PLP.PLP>
-39.0392

> <Gold.PLP.part.hbond>
-2.0000

> <Gold.PLP.part.metal>
0.0000

> <Gold.PLP.part.buried>
-5.5573

> <Gold.PLP.part.nonpolar>
-30.8296

> <Gold.PLP.part.repulsive>
0.7466

> <Gold.PLP.ligand.clash>
0.0000

> <Gold.PLP.ligand.torsion>
0.3705

> <Gold.PLP.Chemscore.Hbond>
2.0000

> <Gold.PLP.Chemscore.CHOScore>
1.0000

> <Gold.PLP.Chemscore.Metal>
0.0000

> <Gold.Chemscore.Hbonds>
donor molecule, donor type, donor heavy atom, donor atom, acceptor molecule, acceptor atom, score
      P1  H  7989  7998       L1    17  1.00
      P1  H  7997  8008       L1     4  0.78
      L1  C    18    40       P1  7949  1.00

> <Gold.PLP.Chemscore.Internal.Correction>
0.0999

> <Gold.Rescore>
     Score         DG    S(hbond)    S(metal)    S(lipo)     H(rot)  DE(clash)    DE(int)     intcor
     14.03     -14.83       0.98        0.00      93.10       1.89       0.24       0.56       ----

> <Gold.Chemscore.Fitness>
14.0300

> <Gold.Chemscore.DG>
-14.8313

> <Gold.Chemscore.ZeroCoef>
-5.4800

> <Gold.Chemscore.Hbond>
0.9844

> <Gold.Chemscore.Metal>
0.0000

> <Gold.Chemscore.Lipo>
93.1029

> <Gold.Chemscore.Internal_Hbond>
0.0000

> <Gold.Chemscore.DEClash>
0.2422

> <Gold.Chemscore.DEInternal>
0.5592

> <Gold.Chemscore.Rot>
1.8865

> <Gold.Chemscore.Internal.Correction>
   9.000000E+99

> <Gold.Chemscore.Hbonds>
donor molecule, donor type, donor heavy atom, donor atom, acceptor molecule, acceptor atom, score
      P1  H  7989  7998       L1    17  0.34
      P1  H  7997  8008       L1     4  0.13

> <Gold.Chemscore.Hbond.Weighted>
-3.2878

> <Gold.Chemscore.Metal.Weighted>
-0.0000

> <Gold.Chemscore.Lipo.Weighted>
-10.8930

> <Gold.Chemscore.Internal_Hbond.Weighted>
0.0000

> <Gold.Chemscore.DEClash.Weighted>
0.2422

> <Gold.Chemscore.DEInternal.Weighted>
0.5592

> <Gold.Chemscore.Rot.Weighted>
4.8295

> <Gold.Chemscore.Internal.Correction.Weighted>
   9.000000E+99

> <Gold.Protein.RotatedTorsions>
[ 6907 6896 6895 6894 ] final -136.53 input  -60.11 | X-H torsion
[ 7974 7965 7964 7962 ] final   26.20 input  175.53 | X-H torsion
[ 8008 7997 7996 7995 ] final  -78.82 input   59.86 | X-H torsion
[ 10167 10162 10161 10158 ] final -103.36 input  -65.29 | X-H torsion
[ 10718 10713 10712 10709 ] final  -53.29 input   66.30 | X-H torsion
[ 10763 10752 10751 10750 ] final   27.04 input  -60.55 | X-H torsion
[ 11005 11000 10999 10996 ] final  -27.31 input  -57.11 | X-H torsion

> <Gold.Protein.ActiveResidues>
 VAL166  LYS551  ARG553  GLY616  TRP617  ASP618  TYR619  PRO620  LYS621  CYS622 
 ASP623  PHE694  ASN695  SER759  ASP760  ASP761  ALA762  ILE779  LEU786  VAL792 
 PHE793  MET794  SER795  GLU796  ALA797  LYS798  CYS799  TRP800  GLU811  SER814 

> <Gold.Protein.RotatedAtoms>
  151.0112  133.5963  159.2682 H   0  0  0  0  0  0  0  0  0  0  0  0  # atno 6907 bound_to 6896
  151.3114  135.0794  159.9283 H   0  0  0  0  0  0  0  0  0  0  0  0  # atno 6908 bound_to 6896
  152.5300  133.9776  159.7845 H   0  0  0  0  0  0  0  0  0  0  0  0  # atno 6909 bound_to 6896
  146.1849  139.7360  142.8873 H   0  0  0  0  0  0  0  0  0  0  0  0  # atno 7974 bound_to 7965
  154.5726  140.0688  156.8987 H   0  0  0  0  0  0  0  0  0  0  0  0  # atno 8008 bound_to 7997
  155.2607  140.3358  155.4255 H   0  0  0  0  0  0  0  0  0  0  0  0  # atno 8009 bound_to 7997
  156.2130  140.1767  156.7638 H   0  0  0  0  0  0  0  0  0  0  0  0  # atno 8010 bound_to 7997
  140.2209  143.3677  152.0971 H   0  0  0  0  0  0  0  0  0  0  0  0  # atno 10167 bound_to 10162
  156.1547  130.4150  149.9888 H   0  0  0  0  0  0  0  0  0  0  0  0  # atno 10718 bound_to 10713
  153.0582  135.6546  154.0525 H   0  0  0  0  0  0  0  0  0  0  0  0  # atno 10763 bound_to 10752
  154.0199  135.2921  155.3383 H   0  0  0  0  0  0  0  0  0  0  0  0  # atno 10764 bound_to 10752
  154.6908  135.5283  153.8457 H   0  0  0  0  0  0  0  0  0  0  0  0  # atno 10765 bound_to 10752
  140.9107  133.7462  156.0667 H   0  0  0  0  0  0  0  0  0  0  0  0  # atno 11005 bound_to 11000
  145.3967  141.0380  143.3093 LP  0  0  0  0  0  0  0  0  0  0  0  0  # atno 17320 bound_to 7965
  144.8380  139.5518  143.6913 LP  0  0  0  0  0  0  0  0  0  0  0  0  # atno 17321 bound_to 7965
  139.5145  144.6948  151.5660 LP  0  0  0  0  0  0  0  0  0  0  0  0  # atno 17342 bound_to 10162
  140.6256  143.9175  150.6562 LP  0  0  0  0  0  0  0  0  0  0  0  0  # atno 17343 bound_to 10162
  156.7735  130.9195  151.3645 LP  0  0  0  0  0  0  0  0  0  0  0  0  # atno 17370 bound_to 10713
  157.6685  130.9030  149.9987 LP  0  0  0  0  0  0  0  0  0  0  0  0  # atno 17371 bound_to 10713
  140.8113  134.3396  157.5411 LP  0  0  0  0  0  0  0  0  0  0  0  0  # atno 17394 bound_to 11000
  139.8757  134.9256  156.3378 LP  0  0  0  0  0  0  0  0  0  0  0  0  # atno 17395 bound_to 11000

$$$$
