AV-unprocessed.smi:87|AV-procd|sdf|820|dock8
  -GOLD-   2262017223D 1   1.00000     0.00000
 Structure written by MMmdl.
 58 60  0  0  0  0  0  0  0  0  1 V2000
  147.7672  136.8322  163.3760 C   0  0  0  0  0  0  0  0  0  0  0  0
  147.3365  135.6473  162.4991 C   0  0  0  0  0  0  0  0  0  0  0  0
  147.1724  135.9892  160.9988 C   0  0  0  0  0  0  0  0  0  0  0  0
  146.0517  135.1454  160.3477 C   0  0  0  0  0  0  0  0  0  0  0  0
  144.7090  135.2011  161.0917 C   0  0  0  0  0  0  0  0  0  0  0  0
  148.5065  135.8081  160.2289 C   0  0  0  0  0  0  0  0  0  0  0  0
  148.6078  136.6106  159.0063 N   0  0  0  0  0  0  0  0  0  0  0  0
  147.7641  136.2820  157.8578 C   0  0  0  0  0  0  0  0  0  0  0  0
  148.5668  135.7062  156.6814 C   0  0  0  0  0  0  0  0  0  0  0  0
  149.3235  134.5031  157.0559 C   0  0  0  0  0  0  0  0  0  0  0  0
  149.9192  133.5563  157.3509 N   0  0  0  0  0  0  0  0  0  0  0  0
  149.6645  137.4590  158.8749 C   0  0  0  0  0  0  0  0  0  0  0  0
  150.8552  137.0742  159.4063 N   0  0  0  0  0  0  0  0  0  0  0  0
  151.9312  137.8590  159.3086 C   0  0  0  0  0  0  0  0  0  0  0  0
  152.0403  139.0547  158.7293 N   0  0  0  0  0  0  0  0  0  0  0  0
  150.8542  139.4479  158.1844 C   0  0  0  0  0  0  0  0  0  0  0  0
  149.6285  138.7208  158.2071 C   0  0  0  0  0  0  0  0  0  0  0  0
  148.6510  139.4429  157.5295 N   0  0  0  0  0  0  0  0  0  0  0  0
  149.2570  140.5308  157.1417 C   0  0  0  0  0  0  0  0  0  0  0  0
  150.5833  140.6154  157.4931 N   0  0  0  0  0  0  0  0  0  0  0  0
  151.4936  141.7065  157.1881 C   0  0  0  0  0  0  0  0  0  0  0  0
  150.9949  143.0678  157.7255 C   0  0  2  0  0  0  0  0  0  0  0  0
  151.3343  144.0612  156.7754 O   0  0  0  0  0  0  0  0  0  0  0  0
  151.6293  143.4912  159.0725 C   0  0  2  0  0  0  0  0  0  0  0  0
  153.1521  143.7101  159.0496 C   0  0  0  0  0  0  0  0  0  0  0  0
  153.7051  142.3587  159.4374 C   0  0  0  0  0  0  0  0  0  0  0  0
  152.6856  141.9190  160.4753 C   0  0  0  0  0  0  0  0  0  0  0  0
  151.4419  142.4055  159.9860 O   0  0  0  0  0  0  0  0  0  0  0  0
  147.9547  136.5029  164.3982 H   0  0  0  0  0  0  0  0  0  0  0  0
  147.0042  137.6080  163.4236 H   0  0  0  0  0  0  0  0  0  0  0  0
  148.6864  137.2843  163.0025 H   0  0  0  0  0  0  0  0  0  0  0  0
  148.0987  134.8789  162.6186 H   0  0  0  0  0  0  0  0  0  0  0  0
  146.4131  135.2158  162.8865 H   0  0  0  0  0  0  0  0  0  0  0  0
  146.8724  137.0355  160.9304 H   0  0  0  0  0  0  0  0  0  0  0  0
  145.9100  135.4531  159.3110 H   0  0  0  0  0  0  0  0  0  0  0  0
  146.3493  134.0989  160.3094 H   0  0  0  0  0  0  0  0  0  0  0  0
  143.9923  134.5149  160.6403 H   0  0  0  0  0  0  0  0  0  0  0  0
  144.2645  136.1952  161.0629 H   0  0  0  0  0  0  0  0  0  0  0  0
  144.8267  134.9142  162.1370 H   0  0  0  0  0  0  0  0  0  0  0  0
  149.3380  136.0480  160.8922 H   0  0  0  0  0  0  0  0  0  0  0  0
  148.6555  134.7647  159.9555 H   0  0  0  0  0  0  0  0  0  0  0  0
  146.9755  135.5930  158.1568 H   0  0  0  0  0  0  0  0  0  0  0  0
  147.2512  137.1823  157.5187 H   0  0  0  0  0  0  0  0  0  0  0  0
  147.8984  135.4377  155.8632 H   0  0  0  0  0  0  0  0  0  0  0  0
  149.2806  136.4290  156.2885 H   0  0  0  0  0  0  0  0  0  0  0  0
  152.8338  137.4729  159.7587 H   0  0  0  0  0  0  0  0  0  0  0  0
  148.7517  141.3038  156.5812 H   0  0  0  0  0  0  0  0  0  0  0  0
  152.4601  141.4478  157.6188 H   0  0  0  0  0  0  0  0  0  0  0  0
  151.6348  141.7526  156.1076 H   0  0  0  0  0  0  0  0  0  0  0  0
  149.9087  143.0374  157.8203 H   0  0  0  0  0  0  0  0  0  0  0  0
  150.5542  144.5483  156.5574 H   0  0  0  0  0  0  0  0  0  0  0  0
  151.1390  144.3892  159.4518 H   0  0  0  0  0  0  0  0  0  0  0  0
  153.5546  144.0794  158.1087 H   0  0  0  0  0  0  0  0  0  0  0  0
  153.4216  144.4374  159.8168 H   0  0  0  0  0  0  0  0  0  0  0  0
  153.6947  141.6833  158.5811 H   0  0  0  0  0  0  0  0  0  0  0  0
  154.7211  142.4055  159.8301 H   0  0  0  0  0  0  0  0  0  0  0  0
  152.6666  140.8383  160.6175 H   0  0  0  0  0  0  0  0  0  0  0  0
  152.8936  142.3873  161.4383 H   0  0  0  0  0  0  0  0  0  0  0  0
  1  2  1  0  0  0  0
  1 29  1  0  0  0  0
  1 30  1  0  0  0  0
  1 31  1  0  0  0  0
  2  3  1  0  0  0  0
  2 32  1  0  0  0  0
  2 33  1  0  0  0  0
  3  4  1  0  0  0  0
  3  6  1  0  0  0  0
  3 34  1  0  0  0  0
  4  5  1  0  0  0  0
  4 35  1  0  0  0  0
  4 36  1  0  0  0  0
  5 37  1  0  0  0  0
  5 38  1  0  0  0  0
  5 39  1  0  0  0  0
  6  7  1  0  0  0  0
  6 40  1  0  0  0  0
  6 41  1  0  0  0  0
  7  8  1  0  0  0  0
  7 12  1  0  0  0  0
  8  9  1  0  0  0  0
  8 42  1  0  0  0  0
  8 43  1  0  0  0  0
  9 10  1  0  0  0  0
  9 44  1  0  0  0  0
  9 45  1  0  0  0  0
 10 11  3  0  0  0  0
 12 17  1  0  0  0  0
 12 13  2  0  0  0  0
 13 14  1  0  0  0  0
 14 15  2  0  0  0  0
 14 46  1  0  0  0  0
 15 16  1  0  0  0  0
 16 20  1  0  0  0  0
 16 17  2  0  0  0  0
 17 18  1  0  0  0  0
 18 19  2  0  0  0  0
 19 20  1  0  0  0  0
 19 47  1  0  0  0  0
 20 21  1  0  0  0  0
 21 22  1  0  0  0  0
 21 48  1  0  0  0  0
 21 49  1  0  0  0  0
 22 23  1  0  0  0  0
 22 24  1  0  0  0  0
 22 50  1  0  0  0  0
 23 51  1  0  0  0  0
 24 28  1  0  0  0  0
 24 25  1  0  0  0  0
 24 52  1  0  0  0  0
 25 26  1  0  0  0  0
 25 53  1  0  0  0  0
 25 54  1  0  0  0  0
 26 27  1  0  0  0  0
 26 55  1  0  0  0  0
 26 56  1  0  0  0  0
 27 28  1  0  0  0  0
 27 57  1  0  0  0  0
 27 58  1  0  0  0  0
M  END
> <s_m_source_file>
AV-unprocessed.smi

> <i_m_source_file_index>
87

> <i_lp_mmshare_version>
43012

> <i_f3d_flags>
0

> <s_epik_input>
W0NIM11bQ0gyXVtDSF0oW0NIMl1bQ0gzXSlbQ0gyXU4oW0NIMl1bQ0gyXUMjTiljKG5bY0hdbjEpYyhjMTIpbltjSF1uMltDSDJdW0NASF0oW09IXSlbQ0BASF0zW0NIMl1bQ0gyXVtDSDJdTzM=

> <s_epik_cmdline>
J2VwaWtfcHl0aG9uJywgJy1waCcsICc3LjAnLCAnLXRuJywgJzgnLCAnLW1hJywgJzIwMCcsICctbWV0YWxfYmluZGluZycsICctaW1hZScsICc8aW5maWxlLm1hZT4nLCAnLW9tYWUnLCAnPG91dGZpbGUubWFlPic=

> <r_lp_tautomer_probability>
1

> <r_epik_Ionization_Penalty>
0.000348566

> <r_epik_Ionization_Penalty_Charging>
0

> <r_epik_Ionization_Penalty_Neutral>
0.000348566

> <r_epik_State_Penalty>
-0

> <r_epik_Charging_Adjusted_Penalty>
0

> <i_epik_Tot_Q>
0

> <i_epik_Tot_abs_Q>
0

> <r_epik_Metal_State_Penalty>
-0

> <b_epik_Metal_Only>
0

> <s_lp_Force_Field>
OPLS_2005

> <r_lp_Energy>
36.7846

> <b_lp_Chiralities_Consistent>
1

> <s_lp_Variant>
AV-unprocessed.smi:87-1

> <Gold.Version>
5.8.1

> <Gold.Id.Protein>
6NUR|6NUR_protein|mol2

> <Gold.PLP.Fitness>
52.2482

> <Gold.PLP.PLP>
-46.6689

> <Gold.PLP.part.hbond>
-3.8767

> <Gold.PLP.part.metal>
0.0000

> <Gold.PLP.part.buried>
-7.2162

> <Gold.PLP.part.nonpolar>
-35.2469

> <Gold.PLP.part.repulsive>
0.0158

> <Gold.PLP.ligand.clash>
0.0000

> <Gold.PLP.ligand.torsion>
1.9419

> <Gold.PLP.Chemscore.Hbond>
2.9100

> <Gold.PLP.Chemscore.CHOScore>
0.0000

> <Gold.PLP.Chemscore.Metal>
0.0000

> <Gold.Chemscore.Hbonds>
donor molecule, donor type, donor heavy atom, donor atom, acceptor molecule, acceptor atom, score
      L1  H    23    51       P1  8028  1.00
      P1  H  6896  6908       L1    11  0.75
      P1  H  6896  6909       L1    13  0.98

> <Gold.PLP.Chemscore.Internal.Correction>
0.7331

> <Gold.Rescore>
     Score         DG    S(hbond)    S(metal)    S(lipo)     H(rot)  DE(clash)    DE(int)     intcor
     17.22     -19.21       2.79        0.00     111.47       3.37       0.09       1.91       ----

> <Gold.Chemscore.Fitness>
17.2220

> <Gold.Chemscore.DG>
-19.2138

> <Gold.Chemscore.ZeroCoef>
-5.4800

> <Gold.Chemscore.Hbond>
2.7880

> <Gold.Chemscore.Metal>
0.0000

> <Gold.Chemscore.Lipo>
111.4689

> <Gold.Chemscore.Internal_Hbond>
0.0000

> <Gold.Chemscore.DEClash>
0.0867

> <Gold.Chemscore.DEInternal>
1.9051

> <Gold.Chemscore.Rot>
3.3672

> <Gold.Chemscore.Internal.Correction>
   9.000000E+99

> <Gold.Chemscore.Hbonds>
donor molecule, donor type, donor heavy atom, donor atom, acceptor molecule, acceptor atom, score
      L1  H    23    51       P1  8028  0.95
      P1  H  6896  6908       L1    11  0.67
      P1  H  6896  6909       L1    13  0.77

> <Gold.Chemscore.Hbond.Weighted>
-9.3120

> <Gold.Chemscore.Metal.Weighted>
-0.0000

> <Gold.Chemscore.Lipo.Weighted>
-13.0419

> <Gold.Chemscore.Internal_Hbond.Weighted>
0.0000

> <Gold.Chemscore.DEClash.Weighted>
0.0867

> <Gold.Chemscore.DEInternal.Weighted>
1.9051

> <Gold.Chemscore.Rot.Weighted>
8.6201

> <Gold.Chemscore.Internal.Correction.Weighted>
   9.000000E+99

> <Gold.Protein.RotatedTorsions>
[ 6907 6896 6895 6894 ] final  104.54 input  -60.11 | X-H torsion
[ 7974 7965 7964 7962 ] final -139.54 input  175.53 | X-H torsion
[ 8008 7997 7996 7995 ] final  -94.74 input   59.86 | X-H torsion
[ 10167 10162 10161 10158 ] final -145.07 input  -65.29 | X-H torsion
[ 10718 10713 10712 10709 ] final  -84.46 input   66.30 | X-H torsion
[ 10763 10752 10751 10750 ] final  -97.78 input  -60.55 | X-H torsion
[ 11005 11000 10999 10996 ] final  -17.52 input  -57.11 | X-H torsion

> <Gold.Protein.ActiveResidues>
 VAL166  LYS551  ARG553  GLY616  TRP617  ASP618  TYR619  PRO620  LYS621  CYS622 
 ASP623  PHE694  ASN695  SER759  ASP760  ASP761  ALA762  ILE779  LEU786  VAL792 
 PHE793  MET794  SER795  GLU796  ALA797  LYS798  CYS799  TRP800  GLU811  SER814 

> <Gold.Protein.RotatedAtoms>
  152.5261  133.9661  159.7739 H   0  0  0  0  0  0  0  0  0  0  0  0  # atno 6907 bound_to 6896
  150.9942  133.6111  159.2711 H   0  0  0  0  0  0  0  0  0  0  0  0  # atno 6908 bound_to 6896
  151.3243  135.0832  159.9370 H   0  0  0  0  0  0  0  0  0  0  0  0  # atno 6909 bound_to 6896
  144.8669  140.6307  143.5292 H   0  0  0  0  0  0  0  0  0  0  0  0  # atno 7974 bound_to 7965
  154.7523  140.0486  157.0904 H   0  0  0  0  0  0  0  0  0  0  0  0  # atno 8008 bound_to 7997
  155.0041  140.3128  155.4836 H   0  0  0  0  0  0  0  0  0  0  0  0  # atno 8009 bound_to 7997
  156.2888  140.2196  156.5152 H   0  0  0  0  0  0  0  0  0  0  0  0  # atno 8010 bound_to 7997
  139.7840  143.8060  152.2642 H   0  0  0  0  0  0  0  0  0  0  0  0  # atno 10167 bound_to 10162
  156.0006  130.4699  150.4414 H   0  0  0  0  0  0  0  0  0  0  0  0  # atno 10718 bound_to 10713
  154.7358  135.5034  153.9039 H   0  0  0  0  0  0  0  0  0  0  0  0  # atno 10763 bound_to 10752
  153.0993  135.6681  153.9711 H   0  0  0  0  0  0  0  0  0  0  0  0  # atno 10764 bound_to 10752
  153.9501  135.3058  155.3418 H   0  0  0  0  0  0  0  0  0  0  0  0  # atno 10765 bound_to 10752
  140.8176  133.8092  155.9627 H   0  0  0  0  0  0  0  0  0  0  0  0  # atno 11005 bound_to 11000
  145.4205  139.1565  143.4077 LP  0  0  0  0  0  0  0  0  0  0  0  0  # atno 17320 bound_to 7965
  146.2902  140.4315  142.8742 LP  0  0  0  0  0  0  0  0  0  0  0  0  # atno 17321 bound_to 7965
  139.8131  144.7327  150.9670 LP  0  0  0  0  0  0  0  0  0  0  0  0  # atno 17342 bound_to 10162
  140.7819  143.4231  151.0810 LP  0  0  0  0  0  0  0  0  0  0  0  0  # atno 17343 bound_to 10162
  157.2455  131.0535  151.2411 LP  0  0  0  0  0  0  0  0  0  0  0  0  # atno 17370 bound_to 10713
  157.3579  130.7116  149.6483 LP  0  0  0  0  0  0  0  0  0  0  0  0  # atno 17371 bound_to 10713
  140.9132  134.2234  157.4973 LP  0  0  0  0  0  0  0  0  0  0  0  0  # atno 17394 bound_to 11000
  139.8710  134.9759  156.4902 LP  0  0  0  0  0  0  0  0  0  0  0  0  # atno 17395 bound_to 11000

$$$$
