AV-unprocessed.smi:798|AV-procd|sdf|3778|dock3
  -GOLD-   22720 1213D 1   1.00000     0.00000
 Structure written by MMmdl.
 33 35  0  0  0  0  0  0  0  0  2 V2000
  149.0207  143.2417  159.4049 O   0  0  0  0  0  0  0  0  0  0  0  0
  148.1934  142.9087  158.5534 C   0  0  0  0  0  0  0  0  0  0  0  0
  146.8560  143.0985  158.6180 N   0  5  0  0  0  0  0  0  0  0  0  0
  146.2431  143.1555  159.8118 C   0  0  0  0  0  0  0  0  0  0  0  0
  145.6850  142.0769  160.3847 N   0  0  0  0  0  0  0  0  0  0  0  0
  145.1082  142.3504  161.6176 N   0  0  0  0  0  0  0  0  0  0  0  0
  145.2549  143.6333  161.9484 C   0  0  0  0  0  0  0  0  0  0  0  0
  146.1122  144.6226  160.7858 S   0  0  0  0  0  0  0  0  0  0  0  0
  148.5970  142.3036  157.4271 N   0  0  0  0  0  0  0  0  0  0  0  0
  149.9771  141.9662  157.0725 C   0  0  1  0  0  0  0  0  0  0  0  0
  150.4550  140.7500  157.8952 C   0  0  2  0  0  0  0  0  0  0  0  0
  151.9890  140.6547  157.8082 C   0  0  0  0  0  0  0  0  0  0  0  0
  152.2121  140.1879  156.3569 C   0  0  0  0  0  0  0  0  0  0  0  0
  150.7758  140.0742  155.8075 C   0  0  1  0  0  0  0  0  0  0  0  0
  150.0225  139.5710  157.0321 C   0  0  0  0  0  0  0  0  0  0  0  0
  150.1890  141.4928  155.6016 C   0  0  1  0  0  0  0  0  0  0  0  0
  148.9393  141.5109  154.6914 C   0  0  0  0  0  0  0  0  0  0  0  0
  149.2475  140.9911  153.4148 O   0  0  0  0  0  0  0  0  0  0  0  0
  144.8587  143.9982  162.8843 H   0  0  0  0  0  0  0  0  0  0  0  0
  147.8833  142.0514  156.7594 H   0  0  0  0  0  0  0  0  0  0  0  0
  150.6161  142.8239  157.2911 H   0  0  0  0  0  0  0  0  0  0  0  0
  150.0819  140.7329  158.9201 H   0  0  0  0  0  0  0  0  0  0  0  0
  152.4799  141.6045  158.0231 H   0  0  0  0  0  0  0  0  0  0  0  0
  152.3721  139.9143  158.5115 H   0  0  0  0  0  0  0  0  0  0  0  0
  152.8229  140.8859  155.7830 H   0  0  0  0  0  0  0  0  0  0  0  0
  152.7107  139.2180  156.3403 H   0  0  0  0  0  0  0  0  0  0  0  0
  150.7052  139.4297  154.9310 H   0  0  0  0  0  0  0  0  0  0  0  0
  150.3860  138.6096  157.3993 H   0  0  0  0  0  0  0  0  0  0  0  0
  148.9430  139.5102  156.8881 H   0  0  0  0  0  0  0  0  0  0  0  0
  150.9382  142.1323  155.1322 H   0  0  0  0  0  0  0  0  0  0  0  0
  148.1195  140.9365  155.1231 H   0  0  0  0  0  0  0  0  0  0  0  0
  148.5831  142.5315  154.5518 H   0  0  0  0  0  0  0  0  0  0  0  0
  148.7702  140.1839  153.2993 H   0  0  0  0  0  0  0  0  0  0  0  0
  1  2  2  0  0  0  0
  2  3  1  0  0  0  0
  2  9  1  0  0  0  0
  3  4  1  0  0  0  0
  4  8  1  0  0  0  0
  4  5  2  0  0  0  0
  5  6  1  0  0  0  0
  6  7  2  0  0  0  0
  7  8  1  0  0  0  0
  7 19  1  0  0  0  0
  9 10  1  0  0  0  0
  9 20  1  0  0  0  0
 10 16  1  0  0  0  0
 10 11  1  0  0  0  0
 10 21  1  0  0  0  0
 11 15  1  0  0  0  0
 11 12  1  0  0  0  0
 11 22  1  0  0  0  0
 12 13  1  0  0  0  0
 12 23  1  0  0  0  0
 12 24  1  0  0  0  0
 13 14  1  0  0  0  0
 13 25  1  0  0  0  0
 13 26  1  0  0  0  0
 14 15  1  0  0  0  0
 14 16  1  0  0  0  0
 14 27  1  0  0  0  0
 15 28  1  0  0  0  0
 15 29  1  0  0  0  0
 16 17  1  0  0  0  0
 16 30  1  0  0  0  0
 17 18  1  0  0  0  0
 17 31  1  0  0  0  0
 17 32  1  0  0  0  0
 18 33  1  0  0  0  0
M  CHG  1   3  -1
M  END
> <s_m_source_file>
AV-unprocessed.smi

> <i_m_source_file_index>
798

> <i_lp_mmshare_version>
43012

> <i_f3d_flags>
0

> <s_epik_input>
W0NIMl0xW0NIMl1bQ0BASF0oW0NIMl0yKVtDQEBIXShbQ0gyXVtPSF0pW0NAQEhdKFtDQEhdMTIpW05IXUMoPU8pW05IXWMzbm5bY0hdczM=

> <s_epik_cmdline>
J2VwaWtfcHl0aG9uJywgJy1waCcsICc3LjAnLCAnLXRuJywgJzgnLCAnLW1hJywgJzIwMCcsICctbWV0YWxfYmluZGluZycsICctaW1hZScsICc8aW5maWxlLm1hZT4nLCAnLW9tYWUnLCAnPG91dGZpbGUubWFlPic=

> <r_lp_tautomer_probability>
1

> <r_epik_Ionization_Penalty>
4.53732

> <r_epik_Ionization_Penalty_Charging>
4.48632

> <r_epik_Ionization_Penalty_Neutral>
0.0510007

> <r_epik_State_Penalty>
4.48602

> <r_epik_Charging_Adjusted_Penalty>
8.97234

> <i_epik_Tot_Q>
-1

> <i_epik_Tot_abs_Q>
1

> <r_epik_Metal_State_Penalty>
0.812492

> <b_epik_Metal_Only>
1

> <s_lp_Force_Field>
OPLS_2005

> <r_lp_Energy>
47.4454

> <b_lp_Chiralities_Consistent>
1

> <s_lp_Variant>
AV-unprocessed.smi:798-10

> <Gold.Version>
5.8.1

> <Gold.Id.Protein>
6NUR|6NUR_protein|mol2

> <Gold.PLP.Fitness>
36.6017

> <Gold.PLP.PLP>
-31.9683

> <Gold.PLP.part.hbond>
-6.3563

> <Gold.PLP.part.metal>
0.0000

> <Gold.PLP.part.buried>
-4.6841

> <Gold.PLP.part.nonpolar>
-20.8044

> <Gold.PLP.part.repulsive>
0.3323

> <Gold.PLP.ligand.clash>
0.0000

> <Gold.PLP.ligand.torsion>
1.0502

> <Gold.PLP.Chemscore.Hbond>
2.2363

> <Gold.PLP.Chemscore.CHOScore>
0.0000

> <Gold.PLP.Chemscore.Metal>
0.0000

> <Gold.Chemscore.Hbonds>
donor molecule, donor type, donor heavy atom, donor atom, acceptor molecule, acceptor atom, score
      P1  H  6933  6944       L1     1  0.16
      P1  H  6934  6946       L1     5  1.00
      P1  H  7989  7998       L1    18  0.05
      P1  H  8011  8017       L1    18  1.00

> <Gold.PLP.Chemscore.Internal.Correction>
0.0248

> <Gold.Rescore>
     Score         DG    S(hbond)    S(metal)    S(lipo)     H(rot)  DE(clash)    DE(int)     intcor
     13.77     -14.89       2.34        0.00      55.78       1.92       0.04       1.07       ----

> <Gold.Chemscore.Fitness>
13.7735

> <Gold.Chemscore.DG>
-14.8901

> <Gold.Chemscore.ZeroCoef>
-5.4800

> <Gold.Chemscore.Hbond>
2.3356

> <Gold.Chemscore.Metal>
0.0000

> <Gold.Chemscore.Lipo>
55.7798

> <Gold.Chemscore.Internal_Hbond>
0.0000

> <Gold.Chemscore.DEClash>
0.0436

> <Gold.Chemscore.DEInternal>
1.0731

> <Gold.Chemscore.Rot>
1.9207

> <Gold.Chemscore.Internal.Correction>
   9.000000E+99

> <Gold.Chemscore.Hbonds>
donor molecule, donor type, donor heavy atom, donor atom, acceptor molecule, acceptor atom, score
      P1  H  6933  6944       L1     1  0.13
      P1  H  6934  6946       L1     5  0.35
      P1  H  7989  7998       L1    18  0.02
      P1  H  8011  8017       L1    18  0.64

> <Gold.Chemscore.Hbond.Weighted>
-7.8008

> <Gold.Chemscore.Metal.Weighted>
-0.0000

> <Gold.Chemscore.Lipo.Weighted>
-6.5262

> <Gold.Chemscore.Internal_Hbond.Weighted>
0.0000

> <Gold.Chemscore.DEClash.Weighted>
0.0436

> <Gold.Chemscore.DEInternal.Weighted>
1.0731

> <Gold.Chemscore.Rot.Weighted>
4.9169

> <Gold.Chemscore.Internal.Correction.Weighted>
   9.000000E+99

> <Gold.Protein.RotatedTorsions>
[ 6907 6896 6895 6894 ] final -118.59 input  -60.11 | X-H torsion
[ 7974 7965 7964 7962 ] final  127.13 input  175.53 | X-H torsion
[ 8008 7997 7996 7995 ] final  -49.98 input   59.86 | X-H torsion
[ 10167 10162 10161 10158 ] final -152.52 input  -65.29 | X-H torsion
[ 10718 10713 10712 10709 ] final   86.54 input   66.30 | X-H torsion
[ 10763 10752 10751 10750 ] final  143.55 input  -60.55 | X-H torsion
[ 11005 11000 10999 10996 ] final  174.20 input  -57.11 | X-H torsion

> <Gold.Protein.ActiveResidues>
 VAL166  LYS551  ARG553  GLY616  TRP617  ASP618  TYR619  PRO620  LYS621  CYS622 
 ASP623  PHE694  ASN695  SER759  ASP760  ASP761  ALA762  ILE779  LEU786  VAL792 
 PHE793  MET794  SER795  GLU796  ALA797  LYS798  CYS799  TRP800  GLU811  SER814 

> <Gold.Protein.RotatedAtoms>
  150.8232  133.8216  159.3129 H   0  0  0  0  0  0  0  0  0  0  0  0  # atno 6907 bound_to 6896
  151.5968  135.1048  160.0061 H   0  0  0  0  0  0  0  0  0  0  0  0  # atno 6908 bound_to 6896
  152.4320  133.7253  159.6613 H   0  0  0  0  0  0  0  0  0  0  0  0  # atno 6909 bound_to 6896
  145.0540  139.3860  143.5040 H   0  0  0  0  0  0  0  0  0  0  0  0  # atno 7974 bound_to 7965
  154.4053  140.1283  156.4591 H   0  0  0  0  0  0  0  0  0  0  0  0  # atno 8008 bound_to 7997
  155.7291  140.3491  155.5031 H   0  0  0  0  0  0  0  0  0  0  0  0  # atno 8009 bound_to 7997
  155.9144  140.1041  157.1245 H   0  0  0  0  0  0  0  0  0  0  0  0  # atno 8010 bound_to 7997
  139.7174  143.9011  152.2491 H   0  0  0  0  0  0  0  0  0  0  0  0  # atno 10167 bound_to 10162
  157.6930  131.0220  150.2988 H   0  0  0  0  0  0  0  0  0  0  0  0  # atno 10718 bound_to 10713
  153.9743  135.2947  155.3425 H   0  0  0  0  0  0  0  0  0  0  0  0  # atno 10763 bound_to 10752
  154.7305  135.5070  153.8959 H   0  0  0  0  0  0  0  0  0  0  0  0  # atno 10764 bound_to 10752
  153.0885  135.6700  154.0014 H   0  0  0  0  0  0  0  0  0  0  0  0  # atno 10765 bound_to 10752
  140.3487  134.7213  157.4253 H   0  0  0  0  0  0  0  0  0  0  0  0  # atno 11005 bound_to 11000
  146.3520  140.0204  142.8659 LP  0  0  0  0  0  0  0  0  0  0  0  0  # atno 17320 bound_to 7965
  145.1492  140.9614  143.4443 LP  0  0  0  0  0  0  0  0  0  0  0  0  # atno 17321 bound_to 7965
  139.8897  144.6972  150.8784 LP  0  0  0  0  0  0  0  0  0  0  0  0  # atno 17342 bound_to 10162
  140.7746  143.3596  151.1854 LP  0  0  0  0  0  0  0  0  0  0  0  0  # atno 17343 bound_to 10162
  156.3507  130.3830  149.7331 LP  0  0  0  0  0  0  0  0  0  0  0  0  # atno 17370 bound_to 10713
  156.4810  130.8041  151.3055 LP  0  0  0  0  0  0  0  0  0  0  0  0  # atno 17371 bound_to 10713
  140.0721  134.5848  155.8631 LP  0  0  0  0  0  0  0  0  0  0  0  0  # atno 17394 bound_to 11000
  141.2018  133.6621  156.5971 LP  0  0  0  0  0  0  0  0  0  0  0  0  # atno 17395 bound_to 11000

$$$$
