AV-unprocessed.smi:278|AV-procd|sdf|2087|dock7
  -GOLD-   2262021363D 1   1.00000     0.00000
 Structure written by MMmdl.
 50 54  0  0  0  0  0  0  0  0  1 V2000
  146.2403  137.6561  161.0057 O   0  0  0  0  0  0  0  0  0  0  0  0
  147.0303  136.8763  161.9711 S   0  0  0  0  0  0  0  0  0  0  0  0
  147.6125  137.5195  163.1587 O   0  0  0  0  0  0  0  0  0  0  0  0
  146.0527  135.4179  162.5033 C   0  0  0  0  0  0  0  0  0  0  0  0
  146.9279  134.1891  162.2241 C   0  0  0  0  0  0  0  0  0  0  0  0
  147.8491  134.4873  161.0271 C   0  0  1  0  0  0  0  0  0  0  0  0
  147.1401  134.4421  159.6694 C   0  0  0  0  0  0  0  0  0  0  0  0
  147.8716  135.3795  158.8293 N   0  0  0  0  0  0  0  0  0  0  0  0
  147.4590  135.6701  157.5675 C   0  0  0  0  0  0  0  0  0  0  0  0
  147.7340  136.9020  157.0613 N   0  0  0  0  0  0  0  0  0  0  0  0
  147.3430  137.2341  155.8280 C   0  0  0  0  0  0  0  0  0  0  0  0
  146.6683  136.5012  154.9419 N   0  0  0  0  0  0  0  0  0  0  0  0
  146.3793  135.2662  155.4421 C   0  0  0  0  0  0  0  0  0  0  0  0
  146.7311  134.7713  156.7315 C   0  0  0  0  0  0  0  0  0  0  0  0
  146.2499  133.4737  156.8774 N   0  0  0  0  0  0  0  0  0  0  0  0
  145.6638  133.2142  155.7410 C   0  0  0  0  0  0  0  0  0  0  0  0
  145.6933  134.2369  154.8224 N   0  0  0  0  0  0  0  0  0  0  0  0
  145.1200  134.2206  153.4882 C   0  0  0  0  0  0  0  0  0  0  0  0
  146.1933  134.2909  152.3846 C   0  0  2  0  0  0  0  0  0  0  0  0
  146.4728  135.6342  152.0392 O   0  0  0  0  0  0  0  0  0  0  0  0
  145.8128  133.4765  151.1313 C   0  0  2  0  0  0  0  0  0  0  0  0
  144.5144  133.8747  150.4245 C   0  0  0  0  0  0  0  0  0  0  0  0
  144.1863  132.6015  149.6771 C   0  0  0  0  0  0  0  0  0  0  0  0
  144.6053  131.5315  150.6831 C   0  0  0  0  0  0  0  0  0  0  0  0
  145.6985  132.0835  151.4125 O   0  0  0  0  0  0  0  0  0  0  0  0
  148.5607  136.3676  159.6481 C   0  0  0  0  0  0  0  0  0  0  0  0
  148.3548  135.9295  161.1057 C   0  0  1  0  0  0  0  0  0  0  0  0
  148.6942  133.7979  161.0066 H   0  0  0  0  0  0  0  0  0  0  0  0
  149.2681  136.0117  161.6957 H   0  0  0  0  0  0  0  0  0  0  0  0
  145.7735  135.5134  163.5526 H   0  0  0  0  0  0  0  0  0  0  0  0
  145.1421  135.3887  161.9048 H   0  0  0  0  0  0  0  0  0  0  0  0
  147.5498  133.9987  163.0994 H   0  0  0  0  0  0  0  0  0  0  0  0
  146.3267  133.2936  162.0640 H   0  0  0  0  0  0  0  0  0  0  0  0
  147.1488  133.4358  159.2491 H   0  0  0  0  0  0  0  0  0  0  0  0
  146.1029  134.7692  159.7526 H   0  0  0  0  0  0  0  0  0  0  0  0
  147.6082  138.2302  155.5057 H   0  0  0  0  0  0  0  0  0  0  0  0
  145.1898  132.2642  155.5408 H   0  0  0  0  0  0  0  0  0  0  0  0
  144.5314  133.3088  153.3816 H   0  0  0  0  0  0  0  0  0  0  0  0
  144.4211  135.0532  153.4002 H   0  0  0  0  0  0  0  0  0  0  0  0
  147.1213  133.8767  152.7805 H   0  0  0  0  0  0  0  0  0  0  0  0
  147.4043  135.7742  152.1176 H   0  0  0  0  0  0  0  0  0  0  0  0
  146.6242  133.5670  150.4071 H   0  0  0  0  0  0  0  0  0  0  0  0
  143.7180  134.0947  151.1361 H   0  0  0  0  0  0  0  0  0  0  0  0
  144.6345  134.7377  149.7693 H   0  0  0  0  0  0  0  0  0  0  0  0
  143.1373  132.5291  149.3896 H   0  0  0  0  0  0  0  0  0  0  0  0
  144.7950  132.5292  148.7748 H   0  0  0  0  0  0  0  0  0  0  0  0
  143.7924  131.3291  151.3813 H   0  0  0  0  0  0  0  0  0  0  0  0
  144.8799  130.5924  150.2024 H   0  0  0  0  0  0  0  0  0  0  0  0
  149.6213  136.3433  159.3970 H   0  0  0  0  0  0  0  0  0  0  0  0
  148.1995  137.3803  159.4691 H   0  0  0  0  0  0  0  0  0  0  0  0
  1  2  2  0  0  0  0
  2 27  1  0  0  0  0
  2  3  2  0  0  0  0
  2  4  1  0  0  0  0
  4  5  1  0  0  0  0
  4 30  1  0  0  0  0
  4 31  1  0  0  0  0
  5  6  1  0  0  0  0
  5 32  1  0  0  0  0
  5 33  1  0  0  0  0
  6 28  1  0  0  0  0
  6 27  1  0  0  0  0
  6  7  1  0  0  0  0
  7  8  1  0  0  0  0
  7 34  1  0  0  0  0
  7 35  1  0  0  0  0
  8  9  1  0  0  0  0
  8 26  1  0  0  0  0
  9 14  1  0  0  0  0
  9 10  2  0  0  0  0
 10 11  1  0  0  0  0
 11 12  2  0  0  0  0
 11 36  1  0  0  0  0
 12 13  1  0  0  0  0
 13 17  1  0  0  0  0
 13 14  2  0  0  0  0
 14 15  1  0  0  0  0
 15 16  2  0  0  0  0
 16 17  1  0  0  0  0
 16 37  1  0  0  0  0
 17 18  1  0  0  0  0
 18 19  1  0  0  0  0
 18 38  1  0  0  0  0
 18 39  1  0  0  0  0
 19 20  1  0  0  0  0
 19 21  1  0  0  0  0
 19 40  1  0  0  0  0
 20 41  1  0  0  0  0
 21 25  1  0  0  0  0
 21 22  1  0  0  0  0
 21 42  1  0  0  0  0
 22 23  1  0  0  0  0
 22 43  1  0  0  0  0
 22 44  1  0  0  0  0
 23 24  1  0  0  0  0
 23 45  1  0  0  0  0
 23 46  1  0  0  0  0
 24 25  1  0  0  0  0
 24 47  1  0  0  0  0
 24 48  1  0  0  0  0
 26 27  1  0  0  0  0
 26 49  1  0  0  0  0
 26 50  1  0  0  0  0
 27 29  1  0  0  0  0
M  END
> <s_m_source_file>
AV-unprocessed.smi

> <i_m_source_file_index>
278

> <i_lp_mmshare_version>
43012

> <i_f3d_flags>
0

> <s_epik_input>
W0NIMl0xW0NIMl1TKD1PKSg9TylbQ0BASF0oW0NAQEhdMTIpW0NIMl1OKFtDSDJdMiljKG5bY0hdbjMpYyhjMzQpbltjSF1uNFtDSDJdW0NASF0oW09IXSlbQ0BASF01W0NIMl1bQ0gyXVtDSDJdTzU=

> <s_epik_cmdline>
J2VwaWtfcHl0aG9uJywgJy1waCcsICc3LjAnLCAnLXRuJywgJzgnLCAnLW1hJywgJzIwMCcsICctbWV0YWxfYmluZGluZycsICctaW1hZScsICc8aW5maWxlLm1hZT4nLCAnLW9tYWUnLCAnPG91dGZpbGUubWFlPic=

> <r_lp_tautomer_probability>
1

> <r_epik_Ionization_Penalty>
0.000636766

> <r_epik_Ionization_Penalty_Charging>
0

> <r_epik_Ionization_Penalty_Neutral>
0.000636766

> <r_epik_State_Penalty>
0.000329976

> <r_epik_Charging_Adjusted_Penalty>
0.000329976

> <i_epik_Tot_Q>
0

> <i_epik_Tot_abs_Q>
0

> <r_epik_Metal_State_Penalty>
-0

> <b_epik_Metal_Only>
0

> <s_lp_Force_Field>
OPLS_2005

> <r_lp_Energy>
50.3002

> <b_lp_Chiralities_Consistent>
1

> <s_lp_Variant>
AV-unprocessed.smi:278-1

> <Gold.Version>
5.8.1

> <Gold.Id.Protein>
6NUR|6NUR_protein|mol2

> <Gold.PLP.Fitness>
43.9575

> <Gold.PLP.PLP>
-35.3575

> <Gold.PLP.part.hbond>
-3.4372

> <Gold.PLP.part.metal>
0.0000

> <Gold.PLP.part.buried>
-6.0106

> <Gold.PLP.part.nonpolar>
-25.7723

> <Gold.PLP.part.repulsive>
0.2223

> <Gold.PLP.ligand.clash>
0.0000

> <Gold.PLP.ligand.torsion>
0.6636

> <Gold.PLP.Chemscore.Hbond>
2.2232

> <Gold.PLP.Chemscore.CHOScore>
1.0000

> <Gold.PLP.Chemscore.Metal>
0.0000

> <Gold.Chemscore.Hbonds>
donor molecule, donor type, donor heavy atom, donor atom, acceptor molecule, acceptor atom, score
      L1  H    20    41       P1  7948  1.00
      P1  H  6931  6943       L1     3  0.19
      P1  H  6934  6947       L1     1  1.00
      L1  C    16    37       P1 10957  0.71

> <Gold.PLP.Chemscore.Internal.Correction>
0.2576

> <Gold.Rescore>
     Score         DG    S(hbond)    S(metal)    S(lipo)     H(rot)  DE(clash)    DE(int)     intcor
     14.30     -15.18       1.83        0.00      77.29       2.13       0.24       0.65       ----

> <Gold.Chemscore.Fitness>
14.2960

> <Gold.Chemscore.DG>
-15.1838

> <Gold.Chemscore.ZeroCoef>
-5.4800

> <Gold.Chemscore.Hbond>
1.8338

> <Gold.Chemscore.Metal>
0.0000

> <Gold.Chemscore.Lipo>
77.2938

> <Gold.Chemscore.Internal_Hbond>
0.0000

> <Gold.Chemscore.DEClash>
0.2386

> <Gold.Chemscore.DEInternal>
0.6492

> <Gold.Chemscore.Rot>
2.1346

> <Gold.Chemscore.Internal.Correction>
   9.000000E+99

> <Gold.Chemscore.Hbonds>
donor molecule, donor type, donor heavy atom, donor atom, acceptor molecule, acceptor atom, score
      L1  H    20    41       P1  7948  0.99
      P1  H  6931  6943       L1     3  0.01
      P1  H  6934  6947       L1     1  0.25

> <Gold.Chemscore.Hbond.Weighted>
-6.1250

> <Gold.Chemscore.Metal.Weighted>
-0.0000

> <Gold.Chemscore.Lipo.Weighted>
-9.0434

> <Gold.Chemscore.Internal_Hbond.Weighted>
0.0000

> <Gold.Chemscore.DEClash.Weighted>
0.2386

> <Gold.Chemscore.DEInternal.Weighted>
0.6492

> <Gold.Chemscore.Rot.Weighted>
5.4646

> <Gold.Chemscore.Internal.Correction.Weighted>
   9.000000E+99

> <Gold.Protein.RotatedTorsions>
[ 6907 6896 6895 6894 ] final  -22.66 input  -60.11 | X-H torsion
[ 7974 7965 7964 7962 ] final  124.40 input  175.53 | X-H torsion
[ 8008 7997 7996 7995 ] final  -82.79 input   59.86 | X-H torsion
[ 10167 10162 10161 10158 ] final -125.95 input  -65.29 | X-H torsion
[ 10718 10713 10712 10709 ] final -143.96 input   66.30 | X-H torsion
[ 10763 10752 10751 10750 ] final -111.18 input  -60.55 | X-H torsion
[ 11005 11000 10999 10996 ] final   93.18 input  -57.11 | X-H torsion

> <Gold.Protein.ActiveResidues>
 VAL166  LYS551  ARG553  GLY616  TRP617  ASP618  TYR619  PRO620  LYS621  CYS622 
 ASP623  PHE694  ASN695  SER759  ASP760  ASP761  ALA762  ILE779  LEU786  VAL792 
 PHE793  MET794  SER795  GLU796  ALA797  LYS798  CYS799  TRP800  GLU811  SER814 

> <Gold.Protein.RotatedAtoms>
  151.2154  135.0498  159.8927 H   0  0  0  0  0  0  0  0  0  0  0  0  # atno 6907 bound_to 6896
  152.5420  134.0699  159.8199 H   0  0  0  0  0  0  0  0  0  0  0  0  # atno 6908 bound_to 6896
  151.0858  133.5306  159.2649 H   0  0  0  0  0  0  0  0  0  0  0  0  # atno 6909 bound_to 6896
  145.0849  139.3630  143.4890 H   0  0  0  0  0  0  0  0  0  0  0  0  # atno 7974 bound_to 7965
  154.6123  140.0628  156.9509 H   0  0  0  0  0  0  0  0  0  0  0  0  # atno 8008 bound_to 7997
  155.1953  140.3310  155.4333 H   0  0  0  0  0  0  0  0  0  0  0  0  # atno 8009 bound_to 7997
  156.2384  140.1874  156.7041 H   0  0  0  0  0  0  0  0  0  0  0  0  # atno 8010 bound_to 7997
  139.9767  143.5787  152.2393 H   0  0  0  0  0  0  0  0  0  0  0  0  # atno 10167 bound_to 10162
  156.3643  130.7755  151.1927 H   0  0  0  0  0  0  0  0  0  0  0  0  # atno 10718 bound_to 10713
  154.8287  135.4537  154.1000 H   0  0  0  0  0  0  0  0  0  0  0  0  # atno 10763 bound_to 10752
  153.2292  135.6903  153.7916 H   0  0  0  0  0  0  0  0  0  0  0  0  # atno 10764 bound_to 10752
  153.7305  135.3327  155.3261 H   0  0  0  0  0  0  0  0  0  0  0  0  # atno 10765 bound_to 10752
  139.8813  134.8775  156.3680 H   0  0  0  0  0  0  0  0  0  0  0  0  # atno 11005 bound_to 11000
  146.3531  140.0656  142.8626 LP  0  0  0  0  0  0  0  0  0  0  0  0  # atno 17320 bound_to 7965
  145.1135  140.9419  143.4642 LP  0  0  0  0  0  0  0  0  0  0  0  0  # atno 17321 bound_to 7965
  139.6440  144.7657  151.2280 LP  0  0  0  0  0  0  0  0  0  0  0  0  # atno 17342 bound_to 10162
  140.7503  143.6269  150.8460 LP  0  0  0  0  0  0  0  0  0  0  0  0  # atno 17343 bound_to 10162
  157.7477  131.0391  150.4533 LP  0  0  0  0  0  0  0  0  0  0  0  0  # atno 17370 bound_to 10713
  156.4749  130.4061  149.6496 LP  0  0  0  0  0  0  0  0  0  0  0  0  # atno 17371 bound_to 10713
  140.9484  133.7467  156.0239 LP  0  0  0  0  0  0  0  0  0  0  0  0  # atno 17394 bound_to 11000
  140.8135  134.3371  157.5404 LP  0  0  0  0  0  0  0  0  0  0  0  0  # atno 17395 bound_to 11000

$$$$
