AV-unprocessed.smi:2886|AV-procd|sdf|11087|dock4
  -GOLD-   2272015563D 1   1.00000     0.00000
 Structure written by MMmdl.
 28 30  0  0  0  0  0  0  0  0  1 V2000
  153.3951  136.4561  160.3089 O   0  0  0  0  0  0  0  0  0  0  0  0
  153.6861  137.6411  160.4601 C   0  0  0  0  0  0  0  0  0  0  0  0
  154.7310  138.0188  161.2336 N   0  0  0  0  0  0  0  0  0  0  0  0
  155.1426  139.3057  161.4813 N   0  0  0  0  0  0  0  0  0  0  0  0
  154.4934  140.2742  160.9314 C   0  0  0  0  0  0  0  0  0  0  0  0
  153.3468  140.0614  160.0541 C   0  0  0  0  0  0  0  0  0  0  0  0
  152.6468  141.1055  159.4622 N   0  0  0  0  0  0  0  0  0  0  0  0
  152.8774  142.5392  159.5718 C   0  0  2  0  0  0  0  0  0  0  0  0
  152.7092  143.0521  161.0043 C   0  0  0  0  0  0  0  0  0  0  0  0
  151.6431  144.1404  160.8240 C   0  0  1  0  0  0  0  0  0  0  0  0
  152.1748  145.3541  160.0489 C   0  0  0  0  0  0  0  0  0  0  0  0
  152.2572  144.8047  158.6248 C   0  0  0  0  0  0  0  0  0  0  0  0
  151.8084  143.3504  158.8211 C   0  0  2  0  0  0  0  0  0  0  0  0
  150.8320  143.5323  159.8343 O   0  0  0  0  0  0  0  0  0  0  0  0
  152.9702  138.7687  159.8474 C   0  0  0  0  0  0  0  0  0  0  0  0
  151.6159  138.3994  158.8327 Cl  0  0  0  0  0  0  0  0  0  0  0  0
  155.2836  137.3110  161.6955 H   0  0  0  0  0  0  0  0  0  0  0  0
  154.7784  141.3105  161.1088 H   0  0  0  0  0  0  0  0  0  0  0  0
  151.9606  140.8480  158.7667 H   0  0  0  0  0  0  0  0  0  0  0  0
  153.8595  142.7916  159.1734 H   0  0  0  0  0  0  0  0  0  0  0  0
  152.3415  142.2694  161.6699 H   0  0  0  0  0  0  0  0  0  0  0  0
  153.6376  143.4425  161.4222 H   0  0  0  0  0  0  0  0  0  0  0  0
  151.1145  144.3976  161.7422 H   0  0  0  0  0  0  0  0  0  0  0  0
  151.4718  146.1863  160.0972 H   0  0  0  0  0  0  0  0  0  0  0  0
  153.1381  145.6971  160.4280 H   0  0  0  0  0  0  0  0  0  0  0  0
  151.5659  145.3368  157.9703 H   0  0  0  0  0  0  0  0  0  0  0  0
  153.2574  144.8798  158.1971 H   0  0  0  0  0  0  0  0  0  0  0  0
  151.4384  142.8801  157.9094 H   0  0  0  0  0  0  0  0  0  0  0  0
  1  2  2  0  0  0  0
  2 15  1  0  0  0  0
  2  3  1  0  0  0  0
  3 17  1  0  0  0  0
  3  4  1  0  0  0  0
  4  5  2  0  0  0  0
  5  6  1  0  0  0  0
  5 18  1  0  0  0  0
  6  7  1  0  0  0  0
  6 15  2  0  0  0  0
  7  8  1  0  0  0  0
  7 19  1  0  0  0  0
  8 13  1  0  0  0  0
  8  9  1  0  0  0  0
  8 20  1  0  0  0  0
  9 10  1  0  0  0  0
  9 21  1  0  0  0  0
  9 22  1  0  0  0  0
 10 14  1  0  0  0  0
 10 11  1  0  0  0  0
 10 23  1  0  0  0  0
 11 12  1  0  0  0  0
 11 24  1  0  0  0  0
 11 25  1  0  0  0  0
 12 13  1  0  0  0  0
 12 26  1  0  0  0  0
 12 27  1  0  0  0  0
 13 14  1  0  0  0  0
 13 28  1  0  0  0  0
 15 16  1  0  0  0  0
M  END
> <s_m_source_file>
AV-unprocessed.smi

> <i_m_source_file_index>
2886

> <i_lp_mmshare_version>
43012

> <i_f3d_flags>
0

> <s_epik_input>
Tz1jMVtuSF1uW2NIXWMoYzFDbClbTkhdW0NASF0oW0NIMl1bQ0BASF0yMylbQ0BASF0oTzMpW0NIMl1bQ0gyXTI=

> <s_epik_cmdline>
J2VwaWtfcHl0aG9uJywgJy1waCcsICc3LjAnLCAnLXRuJywgJzgnLCAnLW1hJywgJzIwMCcsICctbWV0YWxfYmluZGluZycsICctaW1hZScsICc8aW5maWxlLm1hZT4nLCAnLW9tYWUnLCAnPG91dGZpbGUubWFlPic=

> <r_lp_tautomer_probability>
0.986175

> <r_epik_Ionization_Penalty>
0.000975594

> <r_epik_Ionization_Penalty_Charging>
0.000940184

> <r_epik_Ionization_Penalty_Neutral>
3.54099e-05

> <r_epik_State_Penalty>
0.00620319

> <r_epik_Charging_Adjusted_Penalty>
0.00714337

> <i_epik_Tot_Q>
0

> <i_epik_Tot_abs_Q>
0

> <r_epik_Metal_State_Penalty>
0.287699

> <b_epik_Metal_Only>
0

> <s_lp_Force_Field>
OPLS_2005

> <r_lp_Energy>
54.6963

> <b_lp_Chiralities_Consistent>
1

> <s_lp_Variant>
AV-unprocessed.smi:2886-1

> <Gold.Version>
5.8.1

> <Gold.Id.Protein>
6NUR|6NUR_protein|mol2

> <Gold.PLP.Fitness>
37.9071

> <Gold.PLP.PLP>
-34.9341

> <Gold.PLP.part.hbond>
-1.4350

> <Gold.PLP.part.metal>
0.0000

> <Gold.PLP.part.buried>
-5.4855

> <Gold.PLP.part.nonpolar>
-28.2622

> <Gold.PLP.part.repulsive>
0.1817

> <Gold.PLP.ligand.clash>
0.0000

> <Gold.PLP.ligand.torsion>
0.0102

> <Gold.PLP.Chemscore.Hbond>
0.9913

> <Gold.PLP.Chemscore.CHOScore>
0.0000

> <Gold.PLP.Chemscore.Metal>
0.0000

> <Gold.Chemscore.Hbonds>
donor molecule, donor type, donor heavy atom, donor atom, acceptor molecule, acceptor atom, score
      P1  H  6896  6908       L1     1  1.00

> <Gold.PLP.Chemscore.Internal.Correction>
0.0196

> <Gold.Rescore>
     Score         DG    S(hbond)    S(metal)    S(lipo)     H(rot)  DE(clash)    DE(int)     intcor
     17.85     -17.88       0.98        0.00      99.78       1.00       0.02       0.01       ----

> <Gold.Chemscore.Fitness>
17.8528

> <Gold.Chemscore.DG>
-17.8786

> <Gold.Chemscore.ZeroCoef>
-5.4800

> <Gold.Chemscore.Hbond>
0.9833

> <Gold.Chemscore.Metal>
0.0000

> <Gold.Chemscore.Lipo>
99.7805

> <Gold.Chemscore.Internal_Hbond>
0.0000

> <Gold.Chemscore.DEClash>
0.0153

> <Gold.Chemscore.DEInternal>
0.0105

> <Gold.Chemscore.Rot>
1.0000

> <Gold.Chemscore.Internal.Correction>
   9.000000E+99

> <Gold.Chemscore.Hbonds>
donor molecule, donor type, donor heavy atom, donor atom, acceptor molecule, acceptor atom, score
      P1  H  6896  6908       L1     1  0.93

> <Gold.Chemscore.Hbond.Weighted>
-3.2842

> <Gold.Chemscore.Metal.Weighted>
-0.0000

> <Gold.Chemscore.Lipo.Weighted>
-11.6743

> <Gold.Chemscore.Internal_Hbond.Weighted>
0.0000

> <Gold.Chemscore.DEClash.Weighted>
0.0153

> <Gold.Chemscore.DEInternal.Weighted>
0.0105

> <Gold.Chemscore.Rot.Weighted>
2.5600

> <Gold.Chemscore.Internal.Correction.Weighted>
   9.000000E+99

> <Gold.Protein.RotatedTorsions>
[ 6907 6896 6895 6894 ] final  -62.78 input  -60.11 | X-H torsion
[ 7974 7965 7964 7962 ] final  121.20 input  175.53 | X-H torsion
[ 8008 7997 7996 7995 ] final  100.95 input   59.86 | X-H torsion
[ 10167 10162 10161 10158 ] final  -38.06 input  -65.29 | X-H torsion
[ 10718 10713 10712 10709 ] final    6.73 input   66.30 | X-H torsion
[ 10763 10752 10751 10750 ] final  141.40 input  -60.55 | X-H torsion
[ 11005 11000 10999 10996 ] final   45.28 input  -57.11 | X-H torsion

> <Gold.Protein.ActiveResidues>
 VAL166  LYS551  ARG553  GLY616  TRP617  ASP618  TYR619  PRO620  LYS621  CYS622 
 ASP623  PHE694  ASN695  SER759  ASP760  ASP761  ALA762  ILE779  LEU786  VAL792 
 PHE793  MET794  SER795  GLU796  ALA797  LYS798  CYS799  TRP800  GLU811  SER814 

> <Gold.Protein.RotatedAtoms>
  150.7693  134.6524  159.6294 H   0  0  0  0  0  0  0  0  0  0  0  0  # atno 6907 bound_to 6896
  152.3738  134.6691  160.0176 H   0  0  0  0  0  0  0  0  0  0  0  0  # atno 6908 bound_to 6896
  151.7042  133.3275  159.3311 H   0  0  0  0  0  0  0  0  0  0  0  0  # atno 6909 bound_to 6896
  145.1221  139.3382  143.4709 H   0  0  0  0  0  0  0  0  0  0  0  0  # atno 7974 bound_to 7965
  156.1253  140.3205  155.8268 H   0  0  0  0  0  0  0  0  0  0  0  0  # atno 8008 bound_to 7997
  155.4431  140.0527  157.3025 H   0  0  0  0  0  0  0  0  0  0  0  0  # atno 8009 bound_to 7997
  154.4858  140.2072  155.9673 H   0  0  0  0  0  0  0  0  0  0  0  0  # atno 8010 bound_to 7997
  140.7102  143.3301  151.2588 H   0  0  0  0  0  0  0  0  0  0  0  0  # atno 10167 bound_to 10162
  156.9265  130.5810  149.5648 H   0  0  0  0  0  0  0  0  0  0  0  0  # atno 10718 bound_to 10713
  153.9386  135.2982  155.3443 H   0  0  0  0  0  0  0  0  0  0  0  0  # atno 10763 bound_to 10752
  154.7489  135.4990  153.9256 H   0  0  0  0  0  0  0  0  0  0  0  0  # atno 10764 bound_to 10752
  153.1054  135.6745  153.9702 H   0  0  0  0  0  0  0  0  0  0  0  0  # atno 10765 bound_to 10752
  140.1474  134.4505  155.8406 H   0  0  0  0  0  0  0  0  0  0  0  0  # atno 11005 bound_to 11000
  146.3520  140.1185  142.8601 LP  0  0  0  0  0  0  0  0  0  0  0  0  # atno 17320 bound_to 7965
  145.0729  140.9168  143.4871 LP  0  0  0  0  0  0  0  0  0  0  0  0  # atno 17321 bound_to 7965
  139.6781  143.9902  152.2793 LP  0  0  0  0  0  0  0  0  0  0  0  0  # atno 17342 bound_to 10162
  139.9523  144.6612  150.8160 LP  0  0  0  0  0  0  0  0  0  0  0  0  # atno 17343 bound_to 10162
  156.0467  130.5542  150.8896 LP  0  0  0  0  0  0  0  0  0  0  0  0  # atno 17370 bound_to 10713
  157.5874  131.0945  150.9174 LP  0  0  0  0  0  0  0  0  0  0  0  0  # atno 17371 bound_to 10713
  141.2194  133.6858  156.7359 LP  0  0  0  0  0  0  0  0  0  0  0  0  # atno 17394 bound_to 11000
  140.2647  134.8439  157.3791 LP  0  0  0  0  0  0  0  0  0  0  0  0  # atno 17395 bound_to 11000

$$$$
