AV-unprocessed.smi:1668|AV-procd|sdf|6682|dock6
  -GOLD-   22720 7403D 1   1.00000     0.00000
 Structure written by MMmdl.
 44 46  0  0  0  0  0  0  0  0  1 V2000
  154.9637  139.1554  161.2632 C   0  0  0  0  0  0  0  0  0  0  0  0
  153.7908  139.2522  160.4683 O   0  0  0  0  0  0  0  0  0  0  0  0
  153.3056  140.5094  160.1785 C   0  0  0  0  0  0  0  0  0  0  0  0
  153.9126  141.7146  160.6027 C   0  0  0  0  0  0  0  0  0  0  0  0
  153.3452  142.9567  160.2637 C   0  0  0  0  0  0  0  0  0  0  0  0
  152.1608  143.0282  159.4888 C   0  0  0  0  0  0  0  0  0  0  0  0
  151.5579  144.2185  159.1359 O   0  0  0  0  0  0  0  0  0  0  0  0
  151.9163  145.3967  159.8422 C   0  0  0  0  0  0  0  0  0  0  0  0
  151.5551  141.8235  159.0547 C   0  0  0  0  0  0  0  0  0  0  0  0
  150.2710  141.8592  158.2286 C   0  0  1  0  0  0  0  0  0  0  0  0
  149.3135  142.7446  158.7781 O   0  0  0  0  0  0  0  0  0  0  0  0
  150.5666  142.2906  156.7781 C   0  0  0  0  0  0  0  0  0  0  0  0
  150.3000  141.2147  155.8252 N   0  0  0  0  0  0  0  0  0  0  0  0
  151.1216  140.1806  155.5261 C   0  0  0  0  0  0  0  0  0  0  0  0
  152.2266  139.9673  156.0245 O   0  0  0  0  0  0  0  0  0  0  0  0
  150.5166  139.4256  154.5790 N   0  0  0  0  0  0  0  0  0  0  0  0
  151.0383  138.2146  153.9569 C   0  0  0  0  0  0  0  0  0  0  0  0
  149.2799  139.9977  154.2553 C   0  0  0  0  0  0  0  0  0  0  0  0
  148.2930  139.6033  153.3358 C   0  0  0  0  0  0  0  0  0  0  0  0
  147.1361  140.4125  153.2438 C   0  0  0  0  0  0  0  0  0  0  0  0
  146.9924  141.5705  154.0518 C   0  0  0  0  0  0  0  0  0  0  0  0
  148.0022  141.9435  154.9694 C   0  0  0  0  0  0  0  0  0  0  0  0
  149.1414  141.1227  155.0403 C   0  0  0  0  0  0  0  0  0  0  0  0
  152.1278  140.5814  159.4109 C   0  0  0  0  0  0  0  0  0  0  0  0
  155.2241  138.1052  161.3934 H   0  0  0  0  0  0  0  0  0  0  0  0
  154.8104  139.5825  162.2551 H   0  0  0  0  0  0  0  0  0  0  0  0
  155.8113  139.6476  160.7844 H   0  0  0  0  0  0  0  0  0  0  0  0
  154.8151  141.7144  161.1948 H   0  0  0  0  0  0  0  0  0  0  0  0
  153.8431  143.8467  160.6167 H   0  0  0  0  0  0  0  0  0  0  0  0
  151.3507  146.2385  159.4427 H   0  0  0  0  0  0  0  0  0  0  0  0
  152.9762  145.6261  159.7242 H   0  0  0  0  0  0  0  0  0  0  0  0
  151.6787  145.3138  160.9034 H   0  0  0  0  0  0  0  0  0  0  0  0
  149.8150  140.8688  158.2360 H   0  0  0  0  0  0  0  0  0  0  0  0
  149.1757  143.4525  158.1675 H   0  0  0  0  0  0  0  0  0  0  0  0
  150.0189  143.1982  156.5185 H   0  0  0  0  0  0  0  0  0  0  0  0
  151.6225  142.5475  156.6822 H   0  0  0  0  0  0  0  0  0  0  0  0
  150.2896  137.4226  153.9817 H   0  0  0  0  0  0  0  0  0  0  0  0
  151.9308  137.8462  154.4641 H   0  0  0  0  0  0  0  0  0  0  0  0
  151.2964  138.4089  152.9157 H   0  0  0  0  0  0  0  0  0  0  0  0
  148.4101  138.7209  152.7241 H   0  0  0  0  0  0  0  0  0  0  0  0
  146.3525  140.1455  152.5501 H   0  0  0  0  0  0  0  0  0  0  0  0
  146.1011  142.1742  153.9663 H   0  0  0  0  0  0  0  0  0  0  0  0
  147.8969  142.8220  155.5877 H   0  0  0  0  0  0  0  0  0  0  0  0
  151.6582  139.6615  159.0947 H   0  0  0  0  0  0  0  0  0  0  0  0
  1  2  1  0  0  0  0
  1 25  1  0  0  0  0
  1 26  1  0  0  0  0
  1 27  1  0  0  0  0
  2  3  1  0  0  0  0
  3 24  1  0  0  0  0
  3  4  2  0  0  0  0
  4  5  1  0  0  0  0
  4 28  1  0  0  0  0
  5  6  2  0  0  0  0
  5 29  1  0  0  0  0
  6  7  1  0  0  0  0
  6  9  1  0  0  0  0
  7  8  1  0  0  0  0
  8 30  1  0  0  0  0
  8 31  1  0  0  0  0
  8 32  1  0  0  0  0
  9 10  1  0  0  0  0
  9 24  2  0  0  0  0
 10 11  1  0  0  0  0
 10 12  1  0  0  0  0
 10 33  1  0  0  0  0
 11 34  1  0  0  0  0
 12 13  1  0  0  0  0
 12 35  1  0  0  0  0
 12 36  1  0  0  0  0
 13 23  1  0  0  0  0
 13 14  1  0  0  0  0
 14 15  2  0  0  0  0
 14 16  1  0  0  0  0
 16 17  1  0  0  0  0
 16 18  1  0  0  0  0
 17 37  1  0  0  0  0
 17 38  1  0  0  0  0
 17 39  1  0  0  0  0
 18 23  2  0  0  0  0
 18 19  1  0  0  0  0
 19 20  2  0  0  0  0
 19 40  1  0  0  0  0
 20 21  1  0  0  0  0
 20 41  1  0  0  0  0
 21 22  2  0  0  0  0
 21 42  1  0  0  0  0
 22 23  1  0  0  0  0
 22 43  1  0  0  0  0
 24 44  1  0  0  0  0
M  END
> <s_m_source_file>
AV-unprocessed.smi

> <i_m_source_file_index>
1668

> <i_lp_mmshare_version>
43012

> <i_f3d_flags>
0

> <s_epik_input>
W0NIM11PYzFbY0hdW2NIXWMoT1tDSDNdKWMoW2NIXTEpW0NASF0oW09IXSlbQ0gyXW4oYyg9TyluMltDSDNdKWMoYzIzKVtjSF1bY0hdW2NIXVtjSF0z

> <s_epik_cmdline>
J2VwaWtfcHl0aG9uJywgJy1waCcsICc3LjAnLCAnLXRuJywgJzgnLCAnLW1hJywgJzIwMCcsICctbWV0YWxfYmluZGluZycsICctaW1hZScsICc8aW5maWxlLm1hZT4nLCAnLW9tYWUnLCAnPG91dGZpbGUubWFlPic=

> <r_lp_tautomer_probability>
1

> <r_epik_Ionization_Penalty>
1.34538e-06

> <r_epik_Ionization_Penalty_Charging>
1.76928e-09

> <r_epik_Ionization_Penalty_Neutral>
1.34362e-06

> <r_epik_State_Penalty>
-0

> <r_epik_Charging_Adjusted_Penalty>
1.76928e-09

> <i_epik_Tot_Q>
0

> <i_epik_Tot_abs_Q>
0

> <r_epik_Metal_State_Penalty>
-0

> <b_epik_Metal_Only>
0

> <s_lp_Force_Field>
OPLS_2005

> <r_lp_Energy>
50.494

> <b_lp_Chiralities_Consistent>
1

> <s_lp_Variant>
AV-unprocessed.smi:1668-2

> <Gold.Version>
5.8.1

> <Gold.Id.Protein>
6NUR|6NUR_protein|mol2

> <Gold.PLP.Fitness>
52.7943

> <Gold.PLP.PLP>
-52.9180

> <Gold.PLP.part.hbond>
-1.5440

> <Gold.PLP.part.metal>
0.0000

> <Gold.PLP.part.buried>
0.1404

> <Gold.PLP.part.nonpolar>
-49.8037

> <Gold.PLP.part.repulsive>
0.0608

> <Gold.PLP.ligand.clash>
0.0000

> <Gold.PLP.ligand.torsion>
1.5737

> <Gold.PLP.Chemscore.Hbond>
1.0000

> <Gold.PLP.Chemscore.CHOScore>
0.0000

> <Gold.PLP.Chemscore.Metal>
0.0000

> <Gold.Chemscore.Hbonds>
donor molecule, donor type, donor heavy atom, donor atom, acceptor molecule, acceptor atom, score
      P1  H  7997  8010       L1    15  0.68

> <Gold.PLP.Chemscore.Internal.Correction>
0.0238

> <Gold.Rescore>
     Score         DG    S(hbond)    S(metal)    S(lipo)     H(rot)  DE(clash)    DE(int)     intcor
     16.26     -19.11       0.97        0.00     137.87       2.24       1.36       1.50       ----

> <Gold.Chemscore.Fitness>
16.2573

> <Gold.Chemscore.DG>
-19.1111

> <Gold.Chemscore.ZeroCoef>
-5.4800

> <Gold.Chemscore.Hbond>
0.9723

> <Gold.Chemscore.Metal>
0.0000

> <Gold.Chemscore.Lipo>
137.8662

> <Gold.Chemscore.Internal_Hbond>
0.0000

> <Gold.Chemscore.DEClash>
1.3581

> <Gold.Chemscore.DEInternal>
1.4956

> <Gold.Chemscore.Rot>
2.2448

> <Gold.Chemscore.Internal.Correction>
   9.000000E+99

> <Gold.Chemscore.Hbonds>
donor molecule, donor type, donor heavy atom, donor atom, acceptor molecule, acceptor atom, score
      P1  H  7997  8010       L1    15  0.68

> <Gold.Chemscore.Hbond.Weighted>
-3.2474

> <Gold.Chemscore.Metal.Weighted>
-0.0000

> <Gold.Chemscore.Lipo.Weighted>
-16.1303

> <Gold.Chemscore.Internal_Hbond.Weighted>
0.0000

> <Gold.Chemscore.DEClash.Weighted>
1.3581

> <Gold.Chemscore.DEInternal.Weighted>
1.4956

> <Gold.Chemscore.Rot.Weighted>
5.7467

> <Gold.Chemscore.Internal.Correction.Weighted>
   9.000000E+99

> <Gold.Protein.RotatedTorsions>
[ 6907 6896 6895 6894 ] final -101.36 input  -60.11 | X-H torsion
[ 7974 7965 7964 7962 ] final  -88.13 input  175.53 | X-H torsion
[ 8008 7997 7996 7995 ] final   70.14 input   59.86 | X-H torsion
[ 10167 10162 10161 10158 ] final  -40.90 input  -65.29 | X-H torsion
[ 10718 10713 10712 10709 ] final -126.59 input   66.30 | X-H torsion
[ 10763 10752 10751 10750 ] final  -93.04 input  -60.55 | X-H torsion
[ 11005 11000 10999 10996 ] final -104.20 input  -57.11 | X-H torsion

> <Gold.Protein.ActiveResidues>
 VAL166  LYS551  ARG553  GLY616  TRP617  ASP618  TYR619  PRO620  LYS621  CYS622 
 ASP623  PHE694  ASN695  SER759  ASP760  ASP761  ALA762  ILE779  LEU786  VAL792 
 PHE793  MET794  SER795  GLU796  ALA797  LYS798  CYS799  TRP800  GLU811  SER814 

> <Gold.Protein.RotatedAtoms>
  150.7151  134.0746  159.3876 H   0  0  0  0  0  0  0  0  0  0  0  0  # atno 6907 bound_to 6896
  151.8729  135.0480  160.0490 H   0  0  0  0  0  0  0  0  0  0  0  0  # atno 6908 bound_to 6896
  152.2629  133.5277  159.5429 H   0  0  0  0  0  0  0  0  0  0  0  0  # atno 6909 bound_to 6896
  145.4573  140.9561  143.1989 H   0  0  0  0  0  0  0  0  0  0  0  0  # atno 7974 bound_to 7965
  155.7343  140.3491  155.5074 H   0  0  0  0  0  0  0  0  0  0  0  0  # atno 8008 bound_to 7997
  155.9153  140.1057  157.1270 H   0  0  0  0  0  0  0  0  0  0  0  0  # atno 8009 bound_to 7997
  154.4062  140.1260  156.4596 H   0  0  0  0  0  0  0  0  0  0  0  0  # atno 8010 bound_to 7997
  140.7020  143.3126  151.2990 H   0  0  0  0  0  0  0  0  0  0  0  0  # atno 10167 bound_to 10162
  156.1779  130.6712  151.0266 H   0  0  0  0  0  0  0  0  0  0  0  0  # atno 10718 bound_to 10713
  154.6920  135.5209  153.8405 H   0  0  0  0  0  0  0  0  0  0  0  0  # atno 10763 bound_to 10752
  153.0639  135.6578  154.0409 H   0  0  0  0  0  0  0  0  0  0  0  0  # atno 10764 bound_to 10752
  154.0281  135.2987  155.3352 H   0  0  0  0  0  0  0  0  0  0  0  0  # atno 10765 bound_to 10752
  141.1111  133.8703  157.1581 H   0  0  0  0  0  0  0  0  0  0  0  0  # atno 11005 bound_to 11000
  144.8024  139.6115  143.7066 LP  0  0  0  0  0  0  0  0  0  0  0  0  # atno 17320 bound_to 7965
  146.2471  139.6120  142.9452 LP  0  0  0  0  0  0  0  0  0  0  0  0  # atno 17321 bound_to 7965
  139.6554  144.0286  152.2655 LP  0  0  0  0  0  0  0  0  0  0  0  0  # atno 17342 bound_to 10162
  139.9836  144.6411  150.7878 LP  0  0  0  0  0  0  0  0  0  0  0  0  # atno 17343 bound_to 10162
  157.6848  131.0828  150.7272 LP  0  0  0  0  0  0  0  0  0  0  0  0  # atno 17370 bound_to 10713
  156.7330  130.4715  149.5495 LP  0  0  0  0  0  0  0  0  0  0  0  0  # atno 17371 bound_to 10713
  140.0006  135.0029  157.0181 LP  0  0  0  0  0  0  0  0  0  0  0  0  # atno 17394 bound_to 11000
  140.4772  134.1326  155.7211 LP  0  0  0  0  0  0  0  0  0  0  0  0  # atno 17395 bound_to 11000

$$$$
