AV-unprocessed.smi:2899|AV-procd|sdf|11144|dock3
  -GOLD-   2272016 23D 1   1.00000     0.00000
 Structure written by MMmdl.
 30 32  0  0  0  0  0  0  0  0  1 V2000
  152.5008  142.8837  161.7771 C   0  0  0  0  0  0  0  0  0  0  0  0
  152.2028  143.0625  160.3037 C   0  0  0  0  0  0  0  0  0  0  0  0
  152.3327  144.3155  159.6696 C   0  0  0  0  0  0  0  0  0  0  0  0
  152.0254  144.3499  158.2943 C   0  0  0  0  0  0  0  0  0  0  0  0
  151.6316  143.2443  157.6249 N   0  0  0  0  0  0  0  0  0  0  0  0
  151.5440  142.1097  158.3236 C   0  0  0  0  0  0  0  0  0  0  0  0
  151.1410  140.9996  157.6044 N   0  0  0  0  0  0  0  0  0  0  0  0
  151.2540  140.8642  156.1565 C   0  0  1  0  0  0  0  0  0  0  0  0
  152.1912  139.7326  155.7283 C   0  0  0  0  0  0  0  0  0  0  0  0
  151.2956  138.9267  154.7760 C   0  0  1  0  0  0  0  0  0  0  0  0
  150.2498  138.1086  155.5446 C   0  0  0  0  0  0  0  0  0  0  0  0
  149.2882  139.1986  156.0143 C   0  0  0  0  0  0  0  0  0  0  0  0
  149.9440  140.4692  155.4469 C   0  0  2  0  0  0  0  0  0  0  0  0
  150.4766  139.9524  154.2388 O   0  0  0  0  0  0  0  0  0  0  0  0
  151.8077  141.9616  159.6278 N   0  0  0  0  0  0  0  0  0  0  0  0
  152.7557  143.8347  162.2457 H   0  0  0  0  0  0  0  0  0  0  0  0
  153.3391  142.2001  161.9137 H   0  0  0  0  0  0  0  0  0  0  0  0
  151.6328  142.4719  162.2926 H   0  0  0  0  0  0  0  0  0  0  0  0
  152.6483  145.2002  160.2025 H   0  0  0  0  0  0  0  0  0  0  0  0
  152.0958  145.2674  157.7292 H   0  0  0  0  0  0  0  0  0  0  0  0
  150.6369  140.2854  158.1090 H   0  0  0  0  0  0  0  0  0  0  0  0
  151.6238  141.8021  155.7394 H   0  0  0  0  0  0  0  0  0  0  0  0
  153.0559  140.1380  155.2018 H   0  0  0  0  0  0  0  0  0  0  0  0
  152.5557  139.1244  156.5575 H   0  0  0  0  0  0  0  0  0  0  0  0
  151.8456  138.3520  154.0304 H   0  0  0  0  0  0  0  0  0  0  0  0
  149.7396  137.4083  154.8825 H   0  0  0  0  0  0  0  0  0  0  0  0
  150.6869  137.5445  156.3693 H   0  0  0  0  0  0  0  0  0  0  0  0
  148.3025  139.0484  155.5727 H   0  0  0  0  0  0  0  0  0  0  0  0
  149.1693  139.2254  157.0976 H   0  0  0  0  0  0  0  0  0  0  0  0
  149.2491  141.2975  155.3058 H   0  0  0  0  0  0  0  0  0  0  0  0
  1  2  1  0  0  0  0
  1 16  1  0  0  0  0
  1 17  1  0  0  0  0
  1 18  1  0  0  0  0
  2 15  1  0  0  0  0
  2  3  2  0  0  0  0
  3  4  1  0  0  0  0
  3 19  1  0  0  0  0
  4  5  2  0  0  0  0
  4 20  1  0  0  0  0
  5  6  1  0  0  0  0
  6  7  1  0  0  0  0
  6 15  2  0  0  0  0
  7  8  1  0  0  0  0
  7 21  1  0  0  0  0
  8 13  1  0  0  0  0
  8  9  1  0  0  0  0
  8 22  1  0  0  0  0
  9 10  1  0  0  0  0
  9 23  1  0  0  0  0
  9 24  1  0  0  0  0
 10 14  1  0  0  0  0
 10 11  1  0  0  0  0
 10 25  1  0  0  0  0
 11 12  1  0  0  0  0
 11 26  1  0  0  0  0
 11 27  1  0  0  0  0
 12 13  1  0  0  0  0
 12 28  1  0  0  0  0
 12 29  1  0  0  0  0
 13 14  1  0  0  0  0
 13 30  1  0  0  0  0
M  END
> <s_m_source_file>
AV-unprocessed.smi

> <i_m_source_file_index>
2899

> <i_lp_mmshare_version>
43012

> <i_f3d_flags>
0

> <s_epik_input>
W0NIM11jMVtjSF1bY0hdbmMobjEpW05IXVtDQEhdKFtDSDJdW0NAQEhdMjMpW0NAQEhdKE8zKVtDSDJdW0NIMl0y

> <s_epik_cmdline>
J2VwaWtfcHl0aG9uJywgJy1waCcsICc3LjAnLCAnLXRuJywgJzgnLCAnLW1hJywgJzIwMCcsICctbWV0YWxfYmluZGluZycsICctaW1hZScsICc8aW5maWxlLm1hZT4nLCAnLW9tYWUnLCAnPG91dGZpbGUubWFlPic=

> <r_lp_tautomer_probability>
1

> <r_epik_Ionization_Penalty>
0.00589655

> <r_epik_Ionization_Penalty_Charging>
0

> <r_epik_Ionization_Penalty_Neutral>
0.00589655

> <r_epik_State_Penalty>
0.00375391

> <r_epik_Charging_Adjusted_Penalty>
0.00375391

> <i_epik_Tot_Q>
0

> <i_epik_Tot_abs_Q>
0

> <r_epik_Metal_State_Penalty>
-0

> <b_epik_Metal_Only>
0

> <s_lp_Force_Field>
OPLS_2005

> <r_lp_Energy>
31.8412

> <b_lp_Chiralities_Consistent>
1

> <s_lp_Variant>
AV-unprocessed.smi:2899-2

> <Gold.Version>
5.8.1

> <Gold.Id.Protein>
6NUR|6NUR_protein|mol2

> <Gold.PLP.Fitness>
36.5096

> <Gold.PLP.PLP>
-33.7804

> <Gold.PLP.part.hbond>
-1.0000

> <Gold.PLP.part.metal>
0.0000

> <Gold.PLP.part.buried>
-4.5307

> <Gold.PLP.part.nonpolar>
-28.7605

> <Gold.PLP.part.repulsive>
0.2817

> <Gold.PLP.ligand.clash>
0.0000

> <Gold.PLP.ligand.torsion>
0.1398

> <Gold.PLP.Chemscore.Hbond>
1.0000

> <Gold.PLP.Chemscore.CHOScore>
0.0000

> <Gold.PLP.Chemscore.Metal>
0.0000

> <Gold.Chemscore.Hbonds>
donor molecule, donor type, donor heavy atom, donor atom, acceptor molecule, acceptor atom, score
      P1  H  7989  7998       L1    14  1.00

> <Gold.PLP.Chemscore.Internal.Correction>
0.0088

> <Gold.Rescore>
     Score         DG    S(hbond)    S(metal)    S(lipo)     H(rot)  DE(clash)    DE(int)     intcor
     15.54     -15.82       0.91        0.00      84.26       1.00       0.07       0.20       ----

> <Gold.Chemscore.Fitness>
15.5448

> <Gold.Chemscore.DG>
-15.8161

> <Gold.Chemscore.ZeroCoef>
-5.4800

> <Gold.Chemscore.Hbond>
0.9095

> <Gold.Chemscore.Metal>
0.0000

> <Gold.Chemscore.Lipo>
84.2591

> <Gold.Chemscore.Internal_Hbond>
0.0000

> <Gold.Chemscore.DEClash>
0.0705

> <Gold.Chemscore.DEInternal>
0.2008

> <Gold.Chemscore.Rot>
1.0000

> <Gold.Chemscore.Internal.Correction>
   9.000000E+99

> <Gold.Chemscore.Hbonds>
donor molecule, donor type, donor heavy atom, donor atom, acceptor molecule, acceptor atom, score
      P1  H  7989  7998       L1    14  0.24

> <Gold.Chemscore.Hbond.Weighted>
-3.0378

> <Gold.Chemscore.Metal.Weighted>
-0.0000

> <Gold.Chemscore.Lipo.Weighted>
-9.8583

> <Gold.Chemscore.Internal_Hbond.Weighted>
0.0000

> <Gold.Chemscore.DEClash.Weighted>
0.0705

> <Gold.Chemscore.DEInternal.Weighted>
0.2008

> <Gold.Chemscore.Rot.Weighted>
2.5600

> <Gold.Chemscore.Internal.Correction.Weighted>
   9.000000E+99

> <Gold.Protein.RotatedTorsions>
[ 6907 6896 6895 6894 ] final   87.12 input  -60.11 | X-H torsion
[ 7974 7965 7964 7962 ] final  -96.98 input  175.53 | X-H torsion
[ 8008 7997 7996 7995 ] final -142.74 input   59.86 | X-H torsion
[ 10167 10162 10161 10158 ] final  100.78 input  -65.29 | X-H torsion
[ 10718 10713 10712 10709 ] final  -78.62 input   66.30 | X-H torsion
[ 10763 10752 10751 10750 ] final   -3.67 input  -60.55 | X-H torsion
[ 11005 11000 10999 10996 ] final  141.24 input  -57.11 | X-H torsion

> <Gold.Protein.ActiveResidues>
 VAL166  LYS551  ARG553  GLY616  TRP617  ASP618  TYR619  PRO620  LYS621  CYS622 
 ASP623  PHE694  ASN695  SER759  ASP760  ASP761  ALA762  ILE779  LEU786  VAL792 
 PHE793  MET794  SER795  GLU796  ALA797  LYS798  CYS799  TRP800  GLU811  SER814 

> <Gold.Protein.RotatedAtoms>
  152.5406  134.2325  159.8830 H   0  0  0  0  0  0  0  0  0  0  0  0  # atno 6907 bound_to 6896
  151.2296  133.4451  159.2611 H   0  0  0  0  0  0  0  0  0  0  0  0  # atno 6908 bound_to 6896
  151.0728  134.9822  159.8373 H   0  0  0  0  0  0  0  0  0  0  0  0  # atno 6909 bound_to 6896
  145.3397  140.9457  143.2615 H   0  0  0  0  0  0  0  0  0  0  0  0  # atno 7974 bound_to 7965
  155.4992  140.0574  157.2942 H   0  0  0  0  0  0  0  0  0  0  0  0  # atno 8008 bound_to 7997
  154.4593  140.1988  156.0239 H   0  0  0  0  0  0  0  0  0  0  0  0  # atno 8009 bound_to 7997
  156.0860  140.3240  155.7759 H   0  0  0  0  0  0  0  0  0  0  0  0  # atno 8010 bound_to 7997
  139.7497  144.6987  151.0451 H   0  0  0  0  0  0  0  0  0  0  0  0  # atno 10167 bound_to 10162
  156.0113  130.4523  150.3524 H   0  0  0  0  0  0  0  0  0  0  0  0  # atno 10718 bound_to 10713
  153.3744  135.6996  153.6613 H   0  0  0  0  0  0  0  0  0  0  0  0  # atno 10763 bound_to 10752
  153.5250  135.3604  155.2650 H   0  0  0  0  0  0  0  0  0  0  0  0  # atno 10764 bound_to 10752
  154.8685  135.4167  154.3029 H   0  0  0  0  0  0  0  0  0  0  0  0  # atno 10765 bound_to 10752
  140.0386  134.9316  157.0801 H   0  0  0  0  0  0  0  0  0  0  0  0  # atno 11005 bound_to 11000
  144.8800  139.4918  143.6727 LP  0  0  0  0  0  0  0  0  0  0  0  0  # atno 17320 bound_to 7965
  146.3012  139.7433  142.9090 LP  0  0  0  0  0  0  0  0  0  0  0  0  # atno 17321 bound_to 7965
  140.7796  143.4824  151.0000 LP  0  0  0  0  0  0  0  0  0  0  0  0  # atno 17342 bound_to 10162
  139.8512  143.7436  152.3178 LP  0  0  0  0  0  0  0  0  0  0  0  0  # atno 17343 bound_to 10162
  157.1616  131.0346  151.2838 LP  0  0  0  0  0  0  0  0  0  0  0  0  # atno 17370 bound_to 10713
  157.4306  130.7488  149.6987 LP  0  0  0  0  0  0  0  0  0  0  0  0  # atno 17371 bound_to 10713
  140.4106  134.1985  155.7163 LP  0  0  0  0  0  0  0  0  0  0  0  0  # atno 17394 bound_to 11000
  141.1871  133.8288  157.1044 LP  0  0  0  0  0  0  0  0  0  0  0  0  # atno 17395 bound_to 11000

$$$$
