AV-unprocessed.smi:1374|AV-procd|sdf|5587|dock3
  -GOLD-   22720 5183D 1   1.00000     0.00000
 Structure written by MMmdl.
 43 44  0  0  0  0  0  0  0  0  1 V2000
  151.5980  144.8411  158.8596 C   0  0  0  0  0  0  0  0  0  0  0  0
  152.5517  144.3387  159.9489 C   0  0  0  0  0  0  0  0  0  0  0  0
  152.4156  142.8313  160.2007 C   0  0  0  0  0  0  0  0  0  0  0  0
  152.7412  141.9969  158.9505 C   0  0  0  0  0  0  0  0  0  0  0  0
  152.8039  140.5769  159.2331 N   0  0  0  0  0  0  0  0  0  0  0  0
  151.9526  139.6342  158.6488 C   0  0  0  0  0  0  0  0  0  0  0  0
  150.9847  140.0923  157.7667 N   0  0  0  0  0  0  0  0  0  0  0  0
  152.0234  138.3066  158.9680 C   0  0  0  0  0  0  0  0  0  0  0  0
  151.1717  137.3546  158.3674 N   0  0  0  0  0  0  0  0  0  0  0  0
  149.7525  137.4288  158.7339 C   0  0  0  0  0  0  0  0  0  0  0  0
  151.5672  136.4285  157.4452 C   0  0  0  0  0  0  0  0  0  0  0  0
  152.7639  136.2057  157.2477 O   0  0  0  0  0  0  0  0  0  0  0  0
  150.5141  135.7516  156.6805 C   0  0  0  0  0  0  0  0  0  0  0  0
  150.4835  134.3990  156.6733 C   0  0  0  0  0  0  0  0  0  0  0  0
  149.5825  133.6576  155.9505 O   0  0  0  0  0  0  0  0  0  0  0  0
  148.8263  134.3989  155.0002 C   0  0  0  0  0  0  0  0  0  0  0  0
  148.4190  135.7589  155.5835 C   0  0  0  0  0  0  0  0  0  0  0  0
  149.5783  136.4801  155.9801 O   0  0  0  0  0  0  0  0  0  0  0  0
  153.0381  137.8217  159.9163 C   0  0  0  0  0  0  0  0  0  0  0  0
  153.2210  136.6479  160.2366 O   0  0  0  0  0  0  0  0  0  0  0  0
  153.8347  138.8138  160.4810 N   0  0  0  0  0  0  0  0  0  0  0  0
  153.7546  140.1728  160.2007 C   0  0  0  0  0  0  0  0  0  0  0  0
  154.4987  140.9556  160.7923 O   0  0  0  0  0  0  0  0  0  0  0  0
  154.5272  138.5220  161.1551 H   0  0  0  0  0  0  0  0  0  0  0  0
  151.7168  145.9135  158.7036 H   0  0  0  0  0  0  0  0  0  0  0  0
  150.5582  144.6578  159.1313 H   0  0  0  0  0  0  0  0  0  0  0  0
  151.7893  144.3436  157.9085 H   0  0  0  0  0  0  0  0  0  0  0  0
  153.5781  144.5707  159.6620 H   0  0  0  0  0  0  0  0  0  0  0  0
  152.3589  144.8826  160.8742 H   0  0  0  0  0  0  0  0  0  0  0  0
  153.0761  142.5407  161.0186 H   0  0  0  0  0  0  0  0  0  0  0  0
  151.3999  142.6096  160.5316 H   0  0  0  0  0  0  0  0  0  0  0  0
  151.9919  142.1331  158.1712 H   0  0  0  0  0  0  0  0  0  0  0  0
  153.6845  142.2956  158.4895 H   0  0  0  0  0  0  0  0  0  0  0  0
  150.8892  141.0735  157.5464 H   0  0  0  0  0  0  0  0  0  0  0  0
  150.3921  139.4582  157.2506 H   0  0  0  0  0  0  0  0  0  0  0  0
  149.4129  136.4833  159.1591 H   0  0  0  0  0  0  0  0  0  0  0  0
  149.1377  137.6540  157.8612 H   0  0  0  0  0  0  0  0  0  0  0  0
  149.5606  138.2095  159.4715 H   0  0  0  0  0  0  0  0  0  0  0  0
  151.1801  133.7665  157.2050 H   0  0  0  0  0  0  0  0  0  0  0  0
  149.4222  134.5360  154.0970 H   0  0  0  0  0  0  0  0  0  0  0  0
  147.9440  133.8239  154.7194 H   0  0  0  0  0  0  0  0  0  0  0  0
  147.8692  136.3454  154.8474 H   0  0  0  0  0  0  0  0  0  0  0  0
  147.7636  135.6278  156.4457 H   0  0  0  0  0  0  0  0  0  0  0  0
  1  2  1  0  0  0  0
  1 25  1  0  0  0  0
  1 26  1  0  0  0  0
  1 27  1  0  0  0  0
  2  3  1  0  0  0  0
  2 28  1  0  0  0  0
  2 29  1  0  0  0  0
  3  4  1  0  0  0  0
  3 30  1  0  0  0  0
  3 31  1  0  0  0  0
  4  5  1  0  0  0  0
  4 32  1  0  0  0  0
  4 33  1  0  0  0  0
  5 22  1  0  0  0  0
  5  6  1  0  0  0  0
  6  7  1  0  0  0  0
  6  8  2  0  0  0  0
  7 34  1  0  0  0  0
  7 35  1  0  0  0  0
  8  9  1  0  0  0  0
  8 19  1  0  0  0  0
  9 10  1  0  0  0  0
  9 11  1  0  0  0  0
 10 36  1  0  0  0  0
 10 37  1  0  0  0  0
 10 38  1  0  0  0  0
 11 12  2  0  0  0  0
 11 13  1  0  0  0  0
 13 18  1  0  0  0  0
 13 14  2  0  0  0  0
 14 15  1  0  0  0  0
 14 39  1  0  0  0  0
 15 16  1  0  0  0  0
 16 17  1  0  0  0  0
 16 40  1  0  0  0  0
 16 41  1  0  0  0  0
 17 18  1  0  0  0  0
 17 42  1  0  0  0  0
 17 43  1  0  0  0  0
 19 20  2  0  0  0  0
 19 21  1  0  0  0  0
 21 24  1  0  0  0  0
 21 22  1  0  0  0  0
 22 23  2  0  0  0  0
M  END
> <s_m_source_file>
AV-unprocessed.smi

> <i_m_source_file_index>
1374

> <i_lp_mmshare_version>
43012

> <i_f3d_flags>
0

> <s_epik_input>
W0NIM11bQ0gyXVtDSDJdW0NIMl1uMWMoW05IMl0pYyhjKD1PKVtuSF1jMT1PKU4oW0NIM10pQyg9TylDMj1bQ0hdT1tDSDJdW0NIMl1PMg==

> <s_epik_cmdline>
J2VwaWtfcHl0aG9uJywgJy1waCcsICc3LjAnLCAnLXRuJywgJzgnLCAnLW1hJywgJzIwMCcsICctbWV0YWxfYmluZGluZycsICctaW1hZScsICc8aW5maWxlLm1hZT4nLCAnLW9tYWUnLCAnPG91dGZpbGUubWFlPic=

> <r_lp_tautomer_probability>
1

> <r_epik_Ionization_Penalty>
3.28524e-05

> <r_epik_Ionization_Penalty_Charging>
2.39265e-05

> <r_epik_Ionization_Penalty_Neutral>
8.92594e-06

> <r_epik_State_Penalty>
-0

> <r_epik_Charging_Adjusted_Penalty>
2.39265e-05

> <i_epik_Tot_Q>
0

> <i_epik_Tot_abs_Q>
0

> <r_epik_Metal_State_Penalty>
0.0232519

> <b_epik_Metal_Only>
0

> <s_epik_Chemistry_Notes>
This compound has an imine and may undergo hydrolysis.

> <s_lp_Force_Field>
OPLS_2005

> <r_lp_Energy>
27.3757

> <b_lp_Chiralities_Consistent>
1

> <s_lp_Variant>
AV-unprocessed.smi:1374-1

> <Gold.Version>
5.8.1

> <Gold.Id.Protein>
6NUR|6NUR_protein|mol2

> <Gold.PLP.Fitness>
41.0195

> <Gold.PLP.PLP>
-36.4568

> <Gold.PLP.part.hbond>
-2.0000

> <Gold.PLP.part.metal>
0.0000

> <Gold.PLP.part.buried>
-6.2910

> <Gold.PLP.part.nonpolar>
-27.8331

> <Gold.PLP.part.repulsive>
0.2047

> <Gold.PLP.ligand.clash>
0.0000

> <Gold.PLP.ligand.torsion>
2.4165

> <Gold.PLP.Chemscore.Hbond>
2.0000

> <Gold.PLP.Chemscore.CHOScore>
0.0000

> <Gold.PLP.Chemscore.Metal>
0.0000

> <Gold.Chemscore.Hbonds>
donor molecule, donor type, donor heavy atom, donor atom, acceptor molecule, acceptor atom, score
      P1  H  6896  6909       L1    20  0.94
      P1  H 10752 10765       L1    12  0.52

> <Gold.PLP.Chemscore.Internal.Correction>
3.3957

> <Gold.Rescore>
     Score         DG    S(hbond)    S(metal)    S(lipo)     H(rot)  DE(clash)    DE(int)     intcor
     11.80     -16.49       2.00        0.00      69.58       1.49       0.01       4.68       ----

> <Gold.Chemscore.Fitness>
11.7994

> <Gold.Chemscore.DG>
-16.4891

> <Gold.Chemscore.ZeroCoef>
-5.4800

> <Gold.Chemscore.Hbond>
1.9990

> <Gold.Chemscore.Metal>
0.0000

> <Gold.Chemscore.Lipo>
69.5775

> <Gold.Chemscore.Internal_Hbond>
0.0000

> <Gold.Chemscore.DEClash>
0.0106

> <Gold.Chemscore.DEInternal>
4.6791

> <Gold.Chemscore.Rot>
1.4875

> <Gold.Chemscore.Internal.Correction>
   9.000000E+99

> <Gold.Chemscore.Hbonds>
donor molecule, donor type, donor heavy atom, donor atom, acceptor molecule, acceptor atom, score
      P1  H  6896  6909       L1    20  0.88
      P1  H 10752 10765       L1    12  0.52

> <Gold.Chemscore.Hbond.Weighted>
-6.6767

> <Gold.Chemscore.Metal.Weighted>
-0.0000

> <Gold.Chemscore.Lipo.Weighted>
-8.1406

> <Gold.Chemscore.Internal_Hbond.Weighted>
0.0000

> <Gold.Chemscore.DEClash.Weighted>
0.0106

> <Gold.Chemscore.DEInternal.Weighted>
4.6791

> <Gold.Chemscore.Rot.Weighted>
3.8081

> <Gold.Chemscore.Internal.Correction.Weighted>
   9.000000E+99

> <Gold.Protein.RotatedTorsions>
[ 6907 6896 6895 6894 ] final  172.73 input  -60.11 | X-H torsion
[ 7974 7965 7964 7962 ] final  111.73 input  175.53 | X-H torsion
[ 8008 7997 7996 7995 ] final   38.78 input   59.86 | X-H torsion
[ 10167 10162 10161 10158 ] final  -41.63 input  -65.29 | X-H torsion
[ 10718 10713 10712 10709 ] final  -40.30 input   66.30 | X-H torsion
[ 10763 10752 10751 10750 ] final -120.16 input  -60.55 | X-H torsion
[ 11005 11000 10999 10996 ] final  -39.61 input  -57.11 | X-H torsion

> <Gold.Protein.ActiveResidues>
 VAL166  LYS551  ARG553  GLY616  TRP617  ASP618  TYR619  PRO620  LYS621  CYS622 
 ASP623  PHE694  ASN695  SER759  ASP760  ASP761  ALA762  ILE779  LEU786  VAL792 
 PHE793  MET794  SER795  GLU796  ALA797  LYS798  CYS799  TRP800  GLU811  SER814 

> <Gold.Protein.RotatedAtoms>
  151.7797  133.3348  159.3467 H   0  0  0  0  0  0  0  0  0  0  0  0  # atno 6907 bound_to 6896
  150.7431  134.5942  159.6013 H   0  0  0  0  0  0  0  0  0  0  0  0  # atno 6908 bound_to 6896
  152.3285  134.7292  160.0347 H   0  0  0  0  0  0  0  0  0  0  0  0  # atno 6909 bound_to 6896
  145.2385  139.2789  143.4130 H   0  0  0  0  0  0  0  0  0  0  0  0  # atno 7974 bound_to 7965
  155.2258  140.3334  155.4309 H   0  0  0  0  0  0  0  0  0  0  0  0  # atno 8008 bound_to 7997
  156.2315  140.1853  156.7277 H   0  0  0  0  0  0  0  0  0  0  0  0  # atno 8009 bound_to 7997
  154.5986  140.0626  156.9322 H   0  0  0  0  0  0  0  0  0  0  0  0  # atno 8010 bound_to 7997
  140.6996  143.3083  151.3094 H   0  0  0  0  0  0  0  0  0  0  0  0  # atno 10167 bound_to 10162
  156.2828  130.4219  149.8319 H   0  0  0  0  0  0  0  0  0  0  0  0  # atno 10718 bound_to 10713
  154.8637  135.4212  154.2415 H   0  0  0  0  0  0  0  0  0  0  0  0  # atno 10763 bound_to 10752
  153.3380  135.6992  153.6897 H   0  0  0  0  0  0  0  0  0  0  0  0  # atno 10764 bound_to 10752
  153.5887  135.3559  155.2875 H   0  0  0  0  0  0  0  0  0  0  0  0  # atno 10765 bound_to 10752
  141.0115  133.6906  156.2210 H   0  0  0  0  0  0  0  0  0  0  0  0  # atno 11005 bound_to 11000
  146.3335  140.2741  142.8607 LP  0  0  0  0  0  0  0  0  0  0  0  0  # atno 17320 bound_to 7965
  144.9611  140.8276  143.5513 LP  0  0  0  0  0  0  0  0  0  0  0  0  # atno 17321 bound_to 7965
  139.6497  144.0385  152.2617 LP  0  0  0  0  0  0  0  0  0  0  0  0  # atno 17342 bound_to 10162
  139.9917  144.6356  150.7808 LP  0  0  0  0  0  0  0  0  0  0  0  0  # atno 17343 bound_to 10162
  156.5760  130.8445  151.3370 LP  0  0  0  0  0  0  0  0  0  0  0  0  # atno 17370 bound_to 10713
  157.7319  130.9708  150.1905 LP  0  0  0  0  0  0  0  0  0  0  0  0  # atno 17371 bound_to 10713
  140.6726  134.4851  157.5587 LP  0  0  0  0  0  0  0  0  0  0  0  0  # atno 17394 bound_to 11000
  139.9092  134.8381  156.1590 LP  0  0  0  0  0  0  0  0  0  0  0  0  # atno 17395 bound_to 11000

$$$$
