AV-unprocessed.smi:2260|AV-procd|sdf|9135|dock2
  -GOLD-   2272012343D 1   1.00000     0.00000
 Structure written by MMmdl.
 42 43  0  0  0  0  0  0  0  0  1 V2000
  151.1749  144.7875  159.1094 C   0  0  0  0  0  0  0  0  0  0  0  0
  151.9466  143.5276  159.4619 C   0  0  0  0  0  0  0  0  0  0  0  0
  152.5861  143.3012  160.6144 C   0  0  0  0  0  0  0  0  0  0  0  0
  153.3328  141.7224  160.6737 S   0  0  0  0  0  0  0  0  0  0  0  0
  152.7201  141.3588  159.0202 C   0  0  0  0  0  0  0  0  0  0  0  0
  152.9293  140.2887  158.4509 O   0  0  0  0  0  0  0  0  0  0  0  0
  152.0118  142.4644  158.5524 N   0  0  0  0  0  0  0  0  0  0  0  0
  151.4045  142.4859  157.2192 C   0  0  0  0  0  0  0  0  0  0  0  0
  150.3070  141.4194  157.0930 C   0  0  0  0  0  0  0  0  0  0  0  0
  149.4532  141.7347  155.9583 N   0  0  0  0  0  0  0  0  0  0  0  0
  148.1814  141.0211  156.0283 C   0  0  1  0  0  0  0  0  0  0  0  0
  147.2584  141.7940  156.9931 C   0  0  0  0  0  0  0  0  0  0  0  0
  145.8914  141.1104  157.1256 C   0  0  0  0  0  0  0  0  0  0  0  0
  145.2300  140.9309  155.7535 C   0  0  0  0  0  0  0  0  0  0  0  0
  146.1530  140.1679  154.7870 C   0  0  0  0  0  0  0  0  0  0  0  0
  147.5498  140.8202  154.6137 C   0  0  0  0  0  0  0  0  0  0  0  0
  147.4146  142.1480  153.8291 C   0  0  0  0  0  0  0  0  0  0  0  0
  148.4169  139.8536  153.7794 C   0  0  0  0  0  0  0  0  0  0  0  0
  150.9345  145.3486  160.0128 H   0  0  0  0  0  0  0  0  0  0  0  0
  150.2349  144.5592  158.6077 H   0  0  0  0  0  0  0  0  0  0  0  0
  151.7723  145.4288  158.4612 H   0  0  0  0  0  0  0  0  0  0  0  0
  152.6556  143.9789  161.4523 H   0  0  0  0  0  0  0  0  0  0  0  0
  151.0069  143.4758  156.9944 H   0  0  0  0  0  0  0  0  0  0  0  0
  152.1753  142.3097  156.4665 H   0  0  0  0  0  0  0  0  0  0  0  0
  150.7545  140.4341  156.9586 H   0  0  0  0  0  0  0  0  0  0  0  0
  149.7053  141.3834  158.0019 H   0  0  0  0  0  0  0  0  0  0  0  0
  149.2807  142.7297  155.9354 H   0  0  0  0  0  0  0  0  0  0  0  0
  148.3404  140.0351  156.4692 H   0  0  0  0  0  0  0  0  0  0  0  0
  147.7223  141.8597  157.9782 H   0  0  0  0  0  0  0  0  0  0  0  0
  147.1217  142.8217  156.6550 H   0  0  0  0  0  0  0  0  0  0  0  0
  146.0150  140.1370  157.6021 H   0  0  0  0  0  0  0  0  0  0  0  0
  145.2434  141.6954  157.7788 H   0  0  0  0  0  0  0  0  0  0  0  0
  144.2901  140.3900  155.8672 H   0  0  0  0  0  0  0  0  0  0  0  0
  144.9691  141.9043  155.3377 H   0  0  0  0  0  0  0  0  0  0  0  0
  146.2744  139.1512  155.1639 H   0  0  0  0  0  0  0  0  0  0  0  0
  145.6607  140.0679  153.8186 H   0  0  0  0  0  0  0  0  0  0  0  0
  146.9238  141.9868  152.8686 H   0  0  0  0  0  0  0  0  0  0  0  0
  148.3875  142.5919  153.6176 H   0  0  0  0  0  0  0  0  0  0  0  0
  146.8307  142.8939  154.3662 H   0  0  0  0  0  0  0  0  0  0  0  0
  147.9478  139.6266  152.8213 H   0  0  0  0  0  0  0  0  0  0  0  0
  148.5738  138.9078  154.2989 H   0  0  0  0  0  0  0  0  0  0  0  0
  149.3989  140.2758  153.5633 H   0  0  0  0  0  0  0  0  0  0  0  0
  1  2  1  0  0  0  0
  1 19  1  0  0  0  0
  1 20  1  0  0  0  0
  1 21  1  0  0  0  0
  2  7  1  0  0  0  0
  2  3  2  0  0  0  0
  3  4  1  0  0  0  0
  3 22  1  0  0  0  0
  4  5  1  0  0  0  0
  5  6  2  0  0  0  0
  5  7  1  0  0  0  0
  7  8  1  0  0  0  0
  8  9  1  0  0  0  0
  8 23  1  0  0  0  0
  8 24  1  0  0  0  0
  9 10  1  0  0  0  0
  9 25  1  0  0  0  0
  9 26  1  0  0  0  0
 10 11  1  0  0  0  0
 10 27  1  0  0  0  0
 11 16  1  0  0  0  0
 11 12  1  0  0  0  0
 11 28  1  0  0  0  0
 12 13  1  0  0  0  0
 12 29  1  0  0  0  0
 12 30  1  0  0  0  0
 13 14  1  0  0  0  0
 13 31  1  0  0  0  0
 13 32  1  0  0  0  0
 14 15  1  0  0  0  0
 14 33  1  0  0  0  0
 14 34  1  0  0  0  0
 15 16  1  0  0  0  0
 15 35  1  0  0  0  0
 15 36  1  0  0  0  0
 16 17  1  0  0  0  0
 16 18  1  0  0  0  0
 17 37  1  0  0  0  0
 17 38  1  0  0  0  0
 17 39  1  0  0  0  0
 18 40  1  0  0  0  0
 18 41  1  0  0  0  0
 18 42  1  0  0  0  0
M  END
> <s_m_source_file>
AV-unprocessed.smi

> <i_m_source_file_index>
2260

> <i_lp_mmshare_version>
43012

> <i_f3d_flags>
0

> <s_epik_input>
W0NIM11jMVtjSF1zYyg9TyluMVtDSDJdW0NIMl1bTkhdW0NAQEhdKEMyKFtDSDNdKVtDSDNdKVtDSDJdW0NIMl1bQ0gyXVtDSDJdMg==

> <s_epik_cmdline>
J2VwaWtfcHl0aG9uJywgJy1waCcsICc3LjAnLCAnLXRuJywgJzgnLCAnLW1hJywgJzIwMCcsICctbWV0YWxfYmluZGluZycsICctaW1hZScsICc8aW5maWxlLm1hZT4nLCAnLW9tYWUnLCAnPG91dGZpbGUubWFlPic=

> <r_epik_Ionization_Penalty>
2.34504

> <r_epik_Ionization_Penalty_Charging>
4.7617e-06

> <r_epik_Ionization_Penalty_Neutral>
2.34504

> <r_epik_State_Penalty>
2.49894

> <r_epik_Charging_Adjusted_Penalty>
2.49895

> <i_epik_Tot_Q>
0

> <i_epik_Tot_abs_Q>
0

> <r_epik_Metal_State_Penalty>
2.49894

> <b_epik_Metal_Only>
0

> <s_lp_Force_Field>
OPLS_2005

> <r_lp_Energy>
26.7026

> <b_lp_Chiralities_Consistent>
1

> <s_lp_Variant>
AV-unprocessed.smi:2260-4

> <Gold.Version>
5.8.1

> <Gold.Id.Protein>
6NUR|6NUR_protein|mol2

> <Gold.PLP.Fitness>
40.0651

> <Gold.PLP.PLP>
-34.9924

> <Gold.PLP.part.hbond>
-2.0000

> <Gold.PLP.part.metal>
0.0000

> <Gold.PLP.part.buried>
-3.7164

> <Gold.PLP.part.nonpolar>
-28.3135

> <Gold.PLP.part.repulsive>
0.0000

> <Gold.PLP.ligand.clash>
0.0000

> <Gold.PLP.ligand.torsion>
0.4115

> <Gold.PLP.Chemscore.Hbond>
1.9600

> <Gold.PLP.Chemscore.CHOScore>
0.0000

> <Gold.PLP.Chemscore.Metal>
0.0000

> <Gold.Chemscore.Hbonds>
donor molecule, donor type, donor heavy atom, donor atom, acceptor molecule, acceptor atom, score
      L1  H    10    27       P1  8028  0.96
      P1  H  7997  8010       L1     6  0.52

> <Gold.PLP.Chemscore.Internal.Correction>
0.0157

> <Gold.Rescore>
     Score         DG    S(hbond)    S(metal)    S(lipo)     H(rot)  DE(clash)    DE(int)     intcor
     17.93     -18.50       1.88        0.00      88.87       1.43       0.08       0.50       ----

> <Gold.Chemscore.Fitness>
17.9266

> <Gold.Chemscore.DG>
-18.5014

> <Gold.Chemscore.ZeroCoef>
-5.4800

> <Gold.Chemscore.Hbond>
1.8804

> <Gold.Chemscore.Metal>
0.0000

> <Gold.Chemscore.Lipo>
88.8691

> <Gold.Chemscore.Internal_Hbond>
0.0000

> <Gold.Chemscore.DEClash>
0.0767

> <Gold.Chemscore.DEInternal>
0.4982

> <Gold.Chemscore.Rot>
1.4285

> <Gold.Chemscore.Internal.Correction>
   9.000000E+99

> <Gold.Chemscore.Hbonds>
donor molecule, donor type, donor heavy atom, donor atom, acceptor molecule, acceptor atom, score
      L1  H    10    27       P1  8028  0.91
      P1  H  7997  8010       L1     6  0.50

> <Gold.Chemscore.Hbond.Weighted>
-6.2806

> <Gold.Chemscore.Metal.Weighted>
-0.0000

> <Gold.Chemscore.Lipo.Weighted>
-10.3977

> <Gold.Chemscore.Internal_Hbond.Weighted>
0.0000

> <Gold.Chemscore.DEClash.Weighted>
0.0767

> <Gold.Chemscore.DEInternal.Weighted>
0.4982

> <Gold.Chemscore.Rot.Weighted>
3.6569

> <Gold.Chemscore.Internal.Correction.Weighted>
   9.000000E+99

> <Gold.Protein.RotatedTorsions>
[ 6907 6896 6895 6894 ] final  -51.86 input  -60.11 | X-H torsion
[ 7974 7965 7964 7962 ] final  -16.37 input  175.53 | X-H torsion
[ 8008 7997 7996 7995 ] final   40.74 input   59.86 | X-H torsion
[ 10167 10162 10161 10158 ] final   99.37 input  -65.29 | X-H torsion
[ 10718 10713 10712 10709 ] final  -52.84 input   66.30 | X-H torsion
[ 10763 10752 10751 10750 ] final   -1.73 input  -60.55 | X-H torsion
[ 11005 11000 10999 10996 ] final  122.11 input  -57.11 | X-H torsion

> <Gold.Protein.ActiveResidues>
 VAL166  LYS551  ARG553  GLY616  TRP617  ASP618  TYR619  PRO620  LYS621  CYS622 
 ASP623  PHE694  ASN695  SER759  ASP760  ASP761  ALA762  ILE779  LEU786  VAL792 
 PHE793  MET794  SER795  GLU796  ALA797  LYS798  CYS799  TRP800  GLU811  SER814 

> <Gold.Protein.RotatedAtoms>
  150.8572  134.7914  159.7054 H   0  0  0  0  0  0  0  0  0  0  0  0  # atno 6907 bound_to 6896
  152.4620  134.5160  159.9778 H   0  0  0  0  0  0  0  0  0  0  0  0  # atno 6908 bound_to 6896
  151.5270  133.3418  159.2947 H   0  0  0  0  0  0  0  0  0  0  0  0  # atno 6909 bound_to 6896
  146.1991  140.3626  142.8430 H   0  0  0  0  0  0  0  0  0  0  0  0  # atno 7974 bound_to 7965
  155.2581  140.3357  155.4276 H   0  0  0  0  0  0  0  0  0  0  0  0  # atno 8008 bound_to 7997
  156.2187  140.1799  156.7572 H   0  0  0  0  0  0  0  0  0  0  0  0  # atno 8009 bound_to 7997
  154.5791  140.0656  156.9063 H   0  0  0  0  0  0  0  0  0  0  0  0  # atno 8010 bound_to 7997
  139.7623  144.6950  151.0274 H   0  0  0  0  0  0  0  0  0  0  0  0  # atno 10167 bound_to 10162
  156.1587  130.4150  149.9828 H   0  0  0  0  0  0  0  0  0  0  0  0  # atno 10718 bound_to 10713
  153.3487  135.6984  153.6806 H   0  0  0  0  0  0  0  0  0  0  0  0  # atno 10763 bound_to 10752
  153.5542  135.3548  155.2773 H   0  0  0  0  0  0  0  0  0  0  0  0  # atno 10764 bound_to 10752
  154.8649  135.4233  154.2718 H   0  0  0  0  0  0  0  0  0  0  0  0  # atno 10765 bound_to 10752
  139.9254  134.9640  156.8059 H   0  0  0  0  0  0  0  0  0  0  0  0  # atno 11005 bound_to 11000
  144.8643  140.7184  143.6087 LP  0  0  0  0  0  0  0  0  0  0  0  0  # atno 17320 bound_to 7965
  145.3546  139.1697  143.4416 LP  0  0  0  0  0  0  0  0  0  0  0  0  # atno 17321 bound_to 7965
  140.7808  143.4682  151.0182 LP  0  0  0  0  0  0  0  0  0  0  0  0  # atno 17342 bound_to 10162
  139.8368  143.7617  152.3180 LP  0  0  0  0  0  0  0  0  0  0  0  0  # atno 17343 bound_to 10162
  156.7664  130.9170  151.3643 LP  0  0  0  0  0  0  0  0  0  0  0  0  # atno 17370 bound_to 10713
  157.6715  130.9055  150.0052 LP  0  0  0  0  0  0  0  0  0  0  0  0  # atno 17371 bound_to 10713
  140.6352  133.9869  155.7680 LP  0  0  0  0  0  0  0  0  0  0  0  0  # atno 17394 bound_to 11000
  141.0807  134.0066  157.3389 LP  0  0  0  0  0  0  0  0  0  0  0  0  # atno 17395 bound_to 11000

$$$$
