AV-unprocessed.smi:173|AV-procd|sdf|1423|dock6
  -GOLD-   2262019193D 1   1.00000     0.00000
 Structure written by MMmdl.
 60 64  0  0  0  0  0  0  0  0  1 V2000
  153.0343  144.1038  158.0520 O   0  0  0  0  0  0  0  0  0  0  0  0
  151.9401  143.2707  158.3944 C   0  0  0  0  0  0  0  0  0  0  0  0
  151.4234  142.6016  157.0957 C   0  0  0  0  0  0  0  0  0  0  0  0
  150.2599  141.7518  157.2943 N   0  0  0  0  0  0  0  0  0  0  0  0
  148.9436  142.1535  157.3500 C   0  0  0  0  0  0  0  0  0  0  0  0
  148.0741  141.1944  157.5178 N   0  0  0  0  0  0  0  0  0  0  0  0
  148.8536  140.0476  157.5951 C   0  0  0  0  0  0  0  0  0  0  0  0
  148.5637  138.6680  157.7517 C   0  0  0  0  0  0  0  0  0  0  0  0
  147.2948  138.2113  157.8504 N   0  0  0  0  0  0  0  0  0  0  0  0
  146.5880  138.6044  159.0732 C   0  0  0  0  0  0  0  0  0  0  0  0
  146.8831  137.6669  160.2600 C   0  0  2  0  0  0  0  0  0  0  0  0
  146.1572  136.3275  160.1740 C   0  0  0  0  0  0  0  0  0  0  0  0
  146.1349  135.8498  161.6168 C   0  0  0  0  0  0  0  0  0  0  0  0
  146.3684  137.1257  162.4316 C   0  0  0  0  0  0  0  0  0  0  0  0
  146.3734  138.1815  161.4810 O   0  0  0  0  0  0  0  0  0  0  0  0
  146.6054  138.1958  156.5571 C   0  0  0  0  0  0  0  0  0  0  0  0
  147.4743  137.7909  155.3607 C   0  0  0  0  0  0  0  0  0  0  0  0
  146.7061  138.3002  154.1333 C   0  0  0  0  0  0  0  0  0  0  0  0
  145.7033  139.3494  154.6448 C   0  0  0  0  0  0  0  0  0  0  0  0
  146.0007  139.5370  156.1354 C   0  0  0  0  0  0  0  0  0  0  0  0
  149.6058  137.7965  157.7918 N   0  0  0  0  0  0  0  0  0  0  0  0
  150.8572  138.2501  157.6731 C   0  0  0  0  0  0  0  0  0  0  0  0
  151.2783  139.5066  157.5083 N   0  0  0  0  0  0  0  0  0  0  0  0
  150.2306  140.3798  157.4708 C   0  0  0  0  0  0  0  0  0  0  0  0
  152.4351  142.2020  159.3894 C   0  0  0  0  0  0  0  0  0  0  0  0
  152.7945  142.8059  160.7588 C   0  0  0  0  0  0  0  0  0  0  0  0
  151.6817  143.5208  161.2815 O   0  0  0  0  0  0  0  0  0  0  0  0
  151.3132  144.6293  160.4700 C   0  0  0  0  0  0  0  0  0  0  0  0
  150.8655  144.1432  159.0800 C   0  0  0  0  0  0  0  0  0  0  0  0
  153.1933  144.7017  158.7664 H   0  0  0  0  0  0  0  0  0  0  0  0
  151.1714  143.3589  156.3518 H   0  0  0  0  0  0  0  0  0  0  0  0
  152.2117  141.9920  156.6514 H   0  0  0  0  0  0  0  0  0  0  0  0
  148.6458  143.1870  157.2477 H   0  0  0  0  0  0  0  0  0  0  0  0
  146.8265  139.6352  159.3381 H   0  0  0  0  0  0  0  0  0  0  0  0
  145.5166  138.5862  158.8831 H   0  0  0  0  0  0  0  0  0  0  0  0
  147.9576  137.4960  160.3549 H   0  0  0  0  0  0  0  0  0  0  0  0
  145.1352  136.4780  159.8233 H   0  0  0  0  0  0  0  0  0  0  0  0
  146.6449  135.6234  159.4995 H   0  0  0  0  0  0  0  0  0  0  0  0
  145.1853  135.3731  161.8621 H   0  0  0  0  0  0  0  0  0  0  0  0
  146.9316  135.1292  161.8044 H   0  0  0  0  0  0  0  0  0  0  0  0
  145.5970  137.2883  163.1846 H   0  0  0  0  0  0  0  0  0  0  0  0
  147.3350  137.0897  162.9360 H   0  0  0  0  0  0  0  0  0  0  0  0
  145.7783  137.4849  156.6178 H   0  0  0  0  0  0  0  0  0  0  0  0
  148.4441  138.2874  155.4026 H   0  0  0  0  0  0  0  0  0  0  0  0
  147.6561  136.7165  155.3220 H   0  0  0  0  0  0  0  0  0  0  0  0
  147.3892  138.7241  153.3967 H   0  0  0  0  0  0  0  0  0  0  0  0
  146.1732  137.4815  153.6485 H   0  0  0  0  0  0  0  0  0  0  0  0
  145.7752  140.2895  154.0971 H   0  0  0  0  0  0  0  0  0  0  0  0
  144.6870  138.9751  154.5165 H   0  0  0  0  0  0  0  0  0  0  0  0
  145.1098  139.7919  156.7104 H   0  0  0  0  0  0  0  0  0  0  0  0
  146.7139  140.3519  156.2524 H   0  0  0  0  0  0  0  0  0  0  0  0
  151.6317  137.4985  157.7111 H   0  0  0  0  0  0  0  0  0  0  0  0
  151.6521  141.4571  159.5375 H   0  0  0  0  0  0  0  0  0  0  0  0
  153.2925  141.6657  158.9808 H   0  0  0  0  0  0  0  0  0  0  0  0
  153.0594  142.0121  161.4574 H   0  0  0  0  0  0  0  0  0  0  0  0
  153.6624  143.4627  160.6849 H   0  0  0  0  0  0  0  0  0  0  0  0
  150.4972  145.1632  160.9571 H   0  0  0  0  0  0  0  0  0  0  0  0
  152.1453  145.3310  160.3919 H   0  0  0  0  0  0  0  0  0  0  0  0
  150.6083  145.0034  158.4607 H   0  0  0  0  0  0  0  0  0  0  0  0
  149.9499  143.5617  159.1939 H   0  0  0  0  0  0  0  0  0  0  0  0
  1  2  1  0  0  0  0
  1 30  1  0  0  0  0
  2 29  1  0  0  0  0
  2  3  1  0  0  0  0
  2 25  1  0  0  0  0
  3  4  1  0  0  0  0
  3 31  1  0  0  0  0
  3 32  1  0  0  0  0
  4 24  1  0  0  0  0
  4  5  1  0  0  0  0
  5  6  2  0  0  0  0
  5 33  1  0  0  0  0
  6  7  1  0  0  0  0
  7 24  2  0  0  0  0
  7  8  1  0  0  0  0
  8  9  1  0  0  0  0
  8 21  2  0  0  0  0
  9 10  1  0  0  0  0
  9 16  1  0  0  0  0
 10 11  1  0  0  0  0
 10 34  1  0  0  0  0
 10 35  1  0  0  0  0
 11 15  1  0  0  0  0
 11 12  1  0  0  0  0
 11 36  1  0  0  0  0
 12 13  1  0  0  0  0
 12 37  1  0  0  0  0
 12 38  1  0  0  0  0
 13 14  1  0  0  0  0
 13 39  1  0  0  0  0
 13 40  1  0  0  0  0
 14 15  1  0  0  0  0
 14 41  1  0  0  0  0
 14 42  1  0  0  0  0
 16 20  1  0  0  0  0
 16 17  1  0  0  0  0
 16 43  1  0  0  0  0
 17 18  1  0  0  0  0
 17 44  1  0  0  0  0
 17 45  1  0  0  0  0
 18 19  1  0  0  0  0
 18 46  1  0  0  0  0
 18 47  1  0  0  0  0
 19 20  1  0  0  0  0
 19 48  1  0  0  0  0
 19 49  1  0  0  0  0
 20 50  1  0  0  0  0
 20 51  1  0  0  0  0
 21 22  1  0  0  0  0
 22 23  2  0  0  0  0
 22 52  1  0  0  0  0
 23 24  1  0  0  0  0
 25 26  1  0  0  0  0
 25 53  1  0  0  0  0
 25 54  1  0  0  0  0
 26 27  1  0  0  0  0
 26 55  1  0  0  0  0
 26 56  1  0  0  0  0
 27 28  1  0  0  0  0
 28 29  1  0  0  0  0
 28 57  1  0  0  0  0
 28 58  1  0  0  0  0
 29 59  1  0  0  0  0
 29 60  1  0  0  0  0
M  END
> <s_m_source_file>
AV-unprocessed.smi

> <i_m_source_file_index>
173

> <i_lp_mmshare_version>
43012

> <i_f3d_flags>
0

> <s_epik_input>
W0NIMl0xW0NIMl1PW0NIMl1bQ0gyXUMxKFtPSF0pW0NIMl1uKFtjSF1uMiljKGMyMyluW2NIXW5jM04oW0NIMl1bQ0BASF00W0NIMl1bQ0gyXVtDSDJdTzQpW0NIXTVbQ0gyXVtDSDJdW0NIMl1bQ0gyXTU=

> <s_epik_cmdline>
J2VwaWtfcHl0aG9uJywgJy1waCcsICc3LjAnLCAnLXRuJywgJzgnLCAnLW1hJywgJzIwMCcsICctbWV0YWxfYmluZGluZycsICctaW1hZScsICc8aW5maWxlLm1hZT4nLCAnLW9tYWUnLCAnPG91dGZpbGUubWFlPic=

> <r_lp_tautomer_probability>
1

> <r_epik_Ionization_Penalty>
0.0053129

> <r_epik_Ionization_Penalty_Charging>
0

> <r_epik_Ionization_Penalty_Neutral>
0.0053129

> <r_epik_State_Penalty>
0.00367355

> <r_epik_Charging_Adjusted_Penalty>
0.00367355

> <i_epik_Tot_Q>
0

> <i_epik_Tot_abs_Q>
0

> <r_epik_Metal_State_Penalty>
-0

> <b_epik_Metal_Only>
0

> <s_lp_Force_Field>
OPLS_2005

> <r_lp_Energy>
56.2303

> <b_lp_Chiralities_Consistent>
1

> <s_lp_Variant>
AV-unprocessed.smi:173-1

> <Gold.Version>
5.8.1

> <Gold.Id.Protein>
6NUR|6NUR_protein|mol2

> <Gold.PLP.Fitness>
43.8603

> <Gold.PLP.PLP>
-37.9345

> <Gold.PLP.part.hbond>
-2.2118

> <Gold.PLP.part.metal>
0.0000

> <Gold.PLP.part.buried>
-7.2193

> <Gold.PLP.part.nonpolar>
-29.3522

> <Gold.PLP.part.repulsive>
0.1668

> <Gold.PLP.ligand.clash>
0.0000

> <Gold.PLP.ligand.torsion>
1.3692

> <Gold.PLP.Chemscore.Hbond>
1.7304

> <Gold.PLP.Chemscore.CHOScore>
0.8101

> <Gold.PLP.Chemscore.Metal>
0.0000

> <Gold.Chemscore.Hbonds>
donor molecule, donor type, donor heavy atom, donor atom, acceptor molecule, acceptor atom, score
      L1  C     5    33       P1  8028  1.00

> <Gold.PLP.Chemscore.Internal.Correction>
1.0425

> <Gold.Rescore>
     Score         DG    S(hbond)    S(metal)    S(lipo)     H(rot)  DE(clash)    DE(int)     intcor
     14.07     -15.90       1.58        0.00     100.72       2.59       0.19       1.64       ----

> <Gold.Chemscore.Fitness>
14.0743

> <Gold.Chemscore.DG>
-15.9003

> <Gold.Chemscore.ZeroCoef>
-5.4800

> <Gold.Chemscore.Hbond>
1.5779

> <Gold.Chemscore.Metal>
0.0000

> <Gold.Chemscore.Lipo>
100.7247

> <Gold.Chemscore.Internal_Hbond>
0.0000

> <Gold.Chemscore.DEClash>
0.1854

> <Gold.Chemscore.DEInternal>
1.6406

> <Gold.Chemscore.Rot>
2.5916

> <Gold.Chemscore.Internal.Correction>
   9.000000E+99

> <Gold.Chemscore.Hbond.Weighted>
-5.2701

> <Gold.Chemscore.Metal.Weighted>
-0.0000

> <Gold.Chemscore.Lipo.Weighted>
-11.7848

> <Gold.Chemscore.Internal_Hbond.Weighted>
0.0000

> <Gold.Chemscore.DEClash.Weighted>
0.1854

> <Gold.Chemscore.DEInternal.Weighted>
1.6406

> <Gold.Chemscore.Rot.Weighted>
6.6346

> <Gold.Chemscore.Internal.Correction.Weighted>
   9.000000E+99

> <Gold.Protein.RotatedTorsions>
[ 6907 6896 6895 6894 ] final -111.13 input  -60.11 | X-H torsion
[ 7974 7965 7964 7962 ] final  -93.01 input  175.53 | X-H torsion
[ 8008 7997 7996 7995 ] final  -28.79 input   59.86 | X-H torsion
[ 10167 10162 10161 10158 ] final -148.56 input  -65.29 | X-H torsion
[ 10718 10713 10712 10709 ] final -125.18 input   66.30 | X-H torsion
[ 10763 10752 10751 10750 ] final    9.81 input  -60.55 | X-H torsion
[ 11005 11000 10999 10996 ] final -167.17 input  -57.11 | X-H torsion

> <Gold.Protein.ActiveResidues>
 VAL166  LYS551  ARG553  GLY616  TRP617  ASP618  TYR619  PRO620  LYS621  CYS622 
 ASP623  PHE694  ASN695  SER759  ASP760  ASP761  ALA762  ILE779  LEU786  VAL792 
 PHE793  MET794  SER795  GLU796  ALA797  LYS798  CYS799  TRP800  GLU811  SER814 

> <Gold.Protein.RotatedAtoms>
  150.7670  133.9280  159.3417 H   0  0  0  0  0  0  0  0  0  0  0  0  # atno 6907 bound_to 6896
  151.7175  135.0899  160.0288 H   0  0  0  0  0  0  0  0  0  0  0  0  # atno 6908 bound_to 6896
  152.3671  133.6332  159.6094 H   0  0  0  0  0  0  0  0  0  0  0  0  # atno 6909 bound_to 6896
  145.3922  140.9529  143.2334 H   0  0  0  0  0  0  0  0  0  0  0  0  # atno 7974 bound_to 7965
  154.4317  140.1836  156.1145 H   0  0  0  0  0  0  0  0  0  0  0  0  # atno 8008 bound_to 7997
  156.0191  140.3342  155.6995 H   0  0  0  0  0  0  0  0  0  0  0  0  # atno 8009 bound_to 7997
  155.6001  140.0639  157.2726 H   0  0  0  0  0  0  0  0  0  0  0  0  # atno 8010 bound_to 7997
  139.7520  143.8503  152.2588 H   0  0  0  0  0  0  0  0  0  0  0  0  # atno 10167 bound_to 10162
  156.1653  130.6630  151.0106 H   0  0  0  0  0  0  0  0  0  0  0  0  # atno 10718 bound_to 10713
  153.2100  135.6867  153.8126 H   0  0  0  0  0  0  0  0  0  0  0  0  # atno 10763 bound_to 10752
  153.7362  135.3245  155.3296 H   0  0  0  0  0  0  0  0  0  0  0  0  # atno 10764 bound_to 10752
  154.8217  135.4647  154.0903 H   0  0  0  0  0  0  0  0  0  0  0  0  # atno 10765 bound_to 10752
  140.5563  134.5378  157.5133 H   0  0  0  0  0  0  0  0  0  0  0  0  # atno 11005 bound_to 11000
  144.8432  139.5438  143.6890 LP  0  0  0  0  0  0  0  0  0  0  0  0  # atno 17320 bound_to 7965
  146.2792  139.6832  142.9241 LP  0  0  0  0  0  0  0  0  0  0  0  0  # atno 17321 bound_to 7965
  139.8485  144.7176  150.9244 LP  0  0  0  0  0  0  0  0  0  0  0  0  # atno 17342 bound_to 10162
  140.7799  143.3920  151.1293 LP  0  0  0  0  0  0  0  0  0  0  0  0  # atno 17343 bound_to 10162
  157.6763  131.0849  150.7486 LP  0  0  0  0  0  0  0  0  0  0  0  0  # atno 17370 bound_to 10713
  156.7547  130.4779  149.5449 LP  0  0  0  0  0  0  0  0  0  0  0  0  # atno 17371 bound_to 10713
  139.9430  134.7753  156.0631 LP  0  0  0  0  0  0  0  0  0  0  0  0  # atno 17394 bound_to 11000
  141.1141  133.6633  156.3052 LP  0  0  0  0  0  0  0  0  0  0  0  0  # atno 17395 bound_to 11000

$$$$
