AV-unprocessed.smi:1315|AV-procd|sdf|5454|dock4
  -GOLD-   22720 5 23D 1   1.00000     0.00000
 Structure written by MMmdl.
 25 26  0  0  0  0  0  0  0  0  1 V2000
  151.0179  137.0281  153.9675 N   0  0  0  0  0  0  0  0  0  0  0  0
  151.2686  138.2663  154.5886 C   0  0  0  0  0  0  0  0  0  0  0  0
  152.4527  138.7367  155.2225 C   0  0  0  0  0  0  0  0  0  0  0  0
  152.3216  139.9635  155.7005 N   0  0  0  0  0  0  0  0  0  0  0  0
  151.0561  140.3177  155.3854 N   0  0  0  0  0  0  0  0  0  0  0  0
  150.5566  141.6295  155.7649 C   0  0  0  0  0  0  0  0  0  0  0  0
  150.8471  141.9678  157.2322 C   0  0  0  0  0  0  0  0  0  0  0  0
  151.3854  141.1461  157.9758 O   0  0  0  0  0  0  0  0  0  0  0  0
  150.4745  143.1919  157.6341 N   0  0  0  0  0  0  0  0  0  0  0  0
  150.6420  143.7200  158.9494 C   0  0  0  0  0  0  0  0  0  0  0  0
  151.4098  145.0162  159.0935 C   0  0  0  0  0  0  0  0  0  0  0  0
  152.0387  143.7228  159.5324 C   0  0  0  0  0  0  0  0  0  0  0  0
  150.3953  139.3085  154.7153 C   0  0  0  0  0  0  0  0  0  0  0  0
  150.1238  136.8135  153.5492 H   0  0  0  0  0  0  0  0  0  0  0  0
  151.7051  136.2882  153.9539 H   0  0  0  0  0  0  0  0  0  0  0  0
  153.3964  138.2270  155.3496 H   0  0  0  0  0  0  0  0  0  0  0  0
  151.0168  142.3721  155.1117 H   0  0  0  0  0  0  0  0  0  0  0  0
  149.4801  141.6729  155.5930 H   0  0  0  0  0  0  0  0  0  0  0  0
  150.0368  143.7978  156.9553 H   0  0  0  0  0  0  0  0  0  0  0  0
  149.8294  143.5660  159.6581 H   0  0  0  0  0  0  0  0  0  0  0  0
  151.7976  145.4819  158.1893 H   0  0  0  0  0  0  0  0  0  0  0  0
  151.0869  145.7064  159.8702 H   0  0  0  0  0  0  0  0  0  0  0  0
  152.1361  143.5495  160.6021 H   0  0  0  0  0  0  0  0  0  0  0  0
  152.8472  143.3257  158.9214 H   0  0  0  0  0  0  0  0  0  0  0  0
  149.3720  139.4178  154.3874 H   0  0  0  0  0  0  0  0  0  0  0  0
  1  2  1  0  0  0  0
  1 14  1  0  0  0  0
  1 15  1  0  0  0  0
  2 13  2  0  0  0  0
  2  3  1  0  0  0  0
  3  4  2  0  0  0  0
  3 16  1  0  0  0  0
  4  5  1  0  0  0  0
  5  6  1  0  0  0  0
  5 13  1  0  0  0  0
  6  7  1  0  0  0  0
  6 17  1  0  0  0  0
  6 18  1  0  0  0  0
  7  8  2  0  0  0  0
  7  9  1  0  0  0  0
  9 10  1  0  0  0  0
  9 19  1  0  0  0  0
 10 12  1  0  0  0  0
 10 11  1  0  0  0  0
 10 20  1  0  0  0  0
 11 12  1  0  0  0  0
 11 21  1  0  0  0  0
 11 22  1  0  0  0  0
 12 23  1  0  0  0  0
 12 24  1  0  0  0  0
 13 25  1  0  0  0  0
M  END
> <s_m_source_file>
AV-unprocessed.smi

> <i_m_source_file_index>
1315

> <i_lp_mmshare_version>
43012

> <i_f3d_flags>
0

> <s_epik_input>
W05IMl1jMVtjSF1ubihbY0hdMSlbQ0gyXUMoPU8pW05IXVtDSF0yW0NIMl1bQ0gyXTI=

> <s_epik_cmdline>
J2VwaWtfcHl0aG9uJywgJy1waCcsICc3LjAnLCAnLXRuJywgJzgnLCAnLW1hJywgJzIwMCcsICctbWV0YWxfYmluZGluZycsICctaW1hZScsICc8aW5maWxlLm1hZT4nLCAnLW9tYWUnLCAnPG91dGZpbGUubWFlPic=

> <r_lp_tautomer_probability>
1

> <r_epik_Ionization_Penalty>
0.000100915

> <r_epik_Ionization_Penalty_Charging>
0

> <r_epik_Ionization_Penalty_Neutral>
0.000100915

> <r_epik_State_Penalty>
-0

> <r_epik_Charging_Adjusted_Penalty>
0

> <i_epik_Tot_Q>
0

> <i_epik_Tot_abs_Q>
0

> <r_epik_Metal_State_Penalty>
-0

> <b_epik_Metal_Only>
0

> <s_lp_Force_Field>
OPLS_2005

> <r_lp_Energy>
18.5759

> <b_lp_Chiralities_Consistent>
1

> <s_lp_Variant>
AV-unprocessed.smi:1315-1

> <Gold.Version>
5.8.1

> <Gold.Id.Protein>
6NUR|6NUR_protein|mol2

> <Gold.PLP.Fitness>
38.6045

> <Gold.PLP.PLP>
-30.5874

> <Gold.PLP.part.hbond>
-3.9464

> <Gold.PLP.part.metal>
0.0000

> <Gold.PLP.part.buried>
-1.9146

> <Gold.PLP.part.nonpolar>
-24.8648

> <Gold.PLP.part.repulsive>
0.0988

> <Gold.PLP.ligand.clash>
0.0000

> <Gold.PLP.ligand.torsion>
0.1522

> <Gold.PLP.Chemscore.Hbond>
2.7612

> <Gold.PLP.Chemscore.CHOScore>
0.0000

> <Gold.PLP.Chemscore.Metal>
0.0000

> <Gold.Chemscore.Hbonds>
donor molecule, donor type, donor heavy atom, donor atom, acceptor molecule, acceptor atom, score
      L1  H     1    14       P1  7948  0.71
      L1  H     9    19       P1  8028  1.00
      P1  H  7997  8008       L1     4  0.63

> <Gold.PLP.Chemscore.Internal.Correction>
0.0378

> <Gold.Rescore>
     Score         DG    S(hbond)    S(metal)    S(lipo)     H(rot)  DE(clash)    DE(int)     intcor
     12.55     -14.55       1.69        0.00      65.79       1.67       0.37       1.63       ----

> <Gold.Chemscore.Fitness>
12.5533

> <Gold.Chemscore.DG>
-14.5473

> <Gold.Chemscore.ZeroCoef>
-5.4800

> <Gold.Chemscore.Hbond>
1.6912

> <Gold.Chemscore.Metal>
0.0000

> <Gold.Chemscore.Lipo>
65.7878

> <Gold.Chemscore.Internal_Hbond>
0.0000

> <Gold.Chemscore.DEClash>
0.3665

> <Gold.Chemscore.DEInternal>
1.6274

> <Gold.Chemscore.Rot>
1.6713

> <Gold.Chemscore.Internal.Correction>
   9.000000E+99

> <Gold.Chemscore.Hbonds>
donor molecule, donor type, donor heavy atom, donor atom, acceptor molecule, acceptor atom, score
      L1  H     1    14       P1  7948  0.11
      L1  H     9    19       P1  8028  0.97
      P1  H  7997  8008       L1     4  0.08

> <Gold.Chemscore.Hbond.Weighted>
-5.6488

> <Gold.Chemscore.Metal.Weighted>
-0.0000

> <Gold.Chemscore.Lipo.Weighted>
-7.6972

> <Gold.Chemscore.Internal_Hbond.Weighted>
0.0000

> <Gold.Chemscore.DEClash.Weighted>
0.3665

> <Gold.Chemscore.DEInternal.Weighted>
1.6274

> <Gold.Chemscore.Rot.Weighted>
4.2786

> <Gold.Chemscore.Internal.Correction.Weighted>
   9.000000E+99

> <Gold.Protein.RotatedTorsions>
[ 6907 6896 6895 6894 ] final   55.90 input  -60.11 | X-H torsion
[ 7974 7965 7964 7962 ] final    3.44 input  175.53 | X-H torsion
[ 8008 7997 7996 7995 ] final  -36.44 input   59.86 | X-H torsion
[ 10167 10162 10161 10158 ] final   11.83 input  -65.29 | X-H torsion
[ 10718 10713 10712 10709 ] final  174.62 input   66.30 | X-H torsion
[ 10763 10752 10751 10750 ] final  -25.43 input  -60.55 | X-H torsion
[ 11005 11000 10999 10996 ] final   36.40 input  -57.11 | X-H torsion

> <Gold.Protein.ActiveResidues>
 VAL166  LYS551  ARG553  GLY616  TRP617  ASP618  TYR619  PRO620  LYS621  CYS622 
 ASP623  PHE694  ASN695  SER759  ASP760  ASP761  ALA762  ILE779  LEU786  VAL792 
 PHE793  MET794  SER795  GLU796  ALA797  LYS798  CYS799  TRP800  GLU811  SER814 

> <Gold.Protein.RotatedAtoms>
  152.3584  134.6907  160.0214 H   0  0  0  0  0  0  0  0  0  0  0  0  # atno 6907 bound_to 6896
  151.7238  133.3310  159.3330 H   0  0  0  0  0  0  0  0  0  0  0  0  # atno 6908 bound_to 6896
  150.7587  134.6358  159.6255 H   0  0  0  0  0  0  0  0  0  0  0  0  # atno 6909 bound_to 6896
  146.2445  140.0685  142.8364 H   0  0  0  0  0  0  0  0  0  0  0  0  # atno 7974 bound_to 7965
  154.4073  140.1630  156.2374 H   0  0  0  0  0  0  0  0  0  0  0  0  # atno 8008 bound_to 7997
  155.9230  140.3420  155.6165 H   0  0  0  0  0  0  0  0  0  0  0  0  # atno 8009 bound_to 7997
  155.7198  140.0767  157.2326 H   0  0  0  0  0  0  0  0  0  0  0  0  # atno 8010 bound_to 7997
  140.6107  143.8414  150.7062 H   0  0  0  0  0  0  0  0  0  0  0  0  # atno 10167 bound_to 10162
  156.9469  131.0019  151.2957 H   0  0  0  0  0  0  0  0  0  0  0  0  # atno 10718 bound_to 10713
  153.6997  135.6957  153.5066 H   0  0  0  0  0  0  0  0  0  0  0  0  # atno 10763 bound_to 10752
  153.2351  135.4324  155.0637 H   0  0  0  0  0  0  0  0  0  0  0  0  # atno 10764 bound_to 10752
  154.8348  135.3494  154.6537 H   0  0  0  0  0  0  0  0  0  0  0  0  # atno 10765 bound_to 10752
  140.2330  134.3505  155.7956 H   0  0  0  0  0  0  0  0  0  0  0  0  # atno 11005 bound_to 11000
  145.0837  140.9238  143.4810 LP  0  0  0  0  0  0  0  0  0  0  0  0  # atno 17320 bound_to 7965
  145.0843  139.2936  143.5767 LP  0  0  0  0  0  0  0  0  0  0  0  0  # atno 17321 bound_to 7965
  140.1982  143.3981  152.1812 LP  0  0  0  0  0  0  0  0  0  0  0  0  # atno 17342 bound_to 10162
  139.5359  144.7208  151.4896 LP  0  0  0  0  0  0  0  0  0  0  0  0  # atno 17343 bound_to 10162
  157.5748  130.8335  149.8441 LP  0  0  0  0  0  0  0  0  0  0  0  0  # atno 17370 bound_to 10713
  156.0380  130.3746  150.1510 LP  0  0  0  0  0  0  0  0  0  0  0  0  # atno 17371 bound_to 10713
  141.2216  133.7256  156.8762 LP  0  0  0  0  0  0  0  0  0  0  0  0  # atno 17394 bound_to 11000
  140.1731  134.9086  157.2858 LP  0  0  0  0  0  0  0  0  0  0  0  0  # atno 17395 bound_to 11000

$$$$
