AV-unprocessed.smi:199|AV-procd|sdf|1570|dock2
  -GOLD-   2262019453D 1   1.00000     0.00000
 Structure written by MMmdl.
 51 55  0  0  0  0  0  0  0  0  1 V2000
  149.5285  138.9016  153.5561 C   0  0  0  0  0  0  0  0  0  0  0  0
  150.2159  138.7647  154.9245 C   0  0  2  0  0  0  0  0  0  0  0  0
  151.2391  139.7485  155.0728 O   0  0  0  0  0  0  0  0  0  0  0  0
  152.4893  139.1192  155.3135 C   0  0  0  0  0  0  0  0  0  0  0  0
  152.1214  137.8060  155.9905 C   0  0  0  0  0  0  0  0  0  0  0  0
  150.8595  137.3941  155.2448 C   0  0  2  0  0  0  0  0  0  0  0  0
  151.2453  136.7252  154.0545 O   0  0  0  0  0  0  0  0  0  0  0  0
  149.9268  136.4583  156.0506 C   0  0  0  0  0  0  0  0  0  0  0  0
  148.8295  135.9163  155.2637 N   0  0  0  0  0  0  0  0  0  0  0  0
  147.6901  136.5822  154.8756 C   0  0  0  0  0  0  0  0  0  0  0  0
  146.8478  135.8767  154.1730 N   0  0  0  0  0  0  0  0  0  0  0  0
  147.4539  134.6311  154.0512 C   0  0  0  0  0  0  0  0  0  0  0  0
  147.1013  133.4029  153.4169 C   0  0  0  0  0  0  0  0  0  0  0  0
  145.9523  133.2034  152.7123 N   0  0  0  0  0  0  0  0  0  0  0  0
  144.9055  134.2157  152.6867 C   0  0  1  0  0  0  0  0  0  0  0  0
  145.4763  135.3179  151.7731 C   0  0  0  0  0  0  0  0  0  0  0  0
  146.2703  134.4817  150.7582 C   0  0  0  0  0  0  0  0  0  0  0  0
  145.9935  133.0463  151.2635 C   0  0  2  0  0  0  0  0  0  0  0  0
  144.5420  132.6060  150.9649 C   0  0  2  0  0  0  0  0  0  0  0  0
  144.0626  132.6808  149.5029 C   0  0  0  0  0  0  0  0  0  0  0  0
  142.8569  131.9642  149.3442 O   0  0  0  0  0  0  0  0  0  0  0  0
  143.7619  133.4991  151.9455 C   0  0  0  0  0  0  0  0  0  0  0  0
  147.9685  132.3642  153.5546 N   0  0  0  0  0  0  0  0  0  0  0  0
  149.1099  132.5145  154.2314 C   0  0  0  0  0  0  0  0  0  0  0  0
  149.5736  133.5997  154.8515 N   0  0  0  0  0  0  0  0  0  0  0  0
  148.7020  134.6417  154.7399 C   0  0  0  0  0  0  0  0  0  0  0  0
  148.7557  138.1434  153.4271 H   0  0  0  0  0  0  0  0  0  0  0  0
  150.2407  138.8028  152.7363 H   0  0  0  0  0  0  0  0  0  0  0  0
  149.0543  139.8783  153.4597 H   0  0  0  0  0  0  0  0  0  0  0  0
  149.4798  138.9974  155.6950 H   0  0  0  0  0  0  0  0  0  0  0  0
  152.9873  138.9361  154.3605 H   0  0  0  0  0  0  0  0  0  0  0  0
  153.1413  139.7421  155.9259 H   0  0  0  0  0  0  0  0  0  0  0  0
  152.9204  137.0641  155.9498 H   0  0  0  0  0  0  0  0  0  0  0  0
  151.8937  137.9966  157.0402 H   0  0  0  0  0  0  0  0  0  0  0  0
  150.4981  136.6822  153.4774 H   0  0  0  0  0  0  0  0  0  0  0  0
  150.4944  135.6168  156.4499 H   0  0  0  0  0  0  0  0  0  0  0  0
  149.5132  136.9824  156.9135 H   0  0  0  0  0  0  0  0  0  0  0  0
  147.4990  137.6131  155.1362 H   0  0  0  0  0  0  0  0  0  0  0  0
  144.5800  134.5880  153.6560 H   0  0  0  0  0  0  0  0  0  0  0  0
  144.6992  135.9249  151.3076 H   0  0  0  0  0  0  0  0  0  0  0  0
  146.1396  135.9833  152.3275 H   0  0  0  0  0  0  0  0  0  0  0  0
  145.9702  134.6542  149.7260 H   0  0  0  0  0  0  0  0  0  0  0  0
  147.3332  134.7169  150.8267 H   0  0  0  0  0  0  0  0  0  0  0  0
  146.7224  132.3172  150.9073 H   0  0  0  0  0  0  0  0  0  0  0  0
  144.4356  131.5710  151.2961 H   0  0  0  0  0  0  0  0  0  0  0  0
  143.8815  133.7204  149.2282 H   0  0  0  0  0  0  0  0  0  0  0  0
  144.8090  132.3030  148.8054 H   0  0  0  0  0  0  0  0  0  0  0  0
  142.1644  132.5789  149.1549 H   0  0  0  0  0  0  0  0  0  0  0  0
  143.1721  132.8888  152.6307 H   0  0  0  0  0  0  0  0  0  0  0  0
  143.0853  134.1981  151.4518 H   0  0  0  0  0  0  0  0  0  0  0  0
  149.7412  131.6397  154.2834 H   0  0  0  0  0  0  0  0  0  0  0  0
  1  2  1  0  0  0  0
  1 27  1  0  0  0  0
  1 28  1  0  0  0  0
  1 29  1  0  0  0  0
  2  6  1  0  0  0  0
  2  3  1  0  0  0  0
  2 30  1  0  0  0  0
  3  4  1  0  0  0  0
  4  5  1  0  0  0  0
  4 31  1  0  0  0  0
  4 32  1  0  0  0  0
  5  6  1  0  0  0  0
  5 33  1  0  0  0  0
  5 34  1  0  0  0  0
  6  7  1  0  0  0  0
  6  8  1  0  0  0  0
  7 35  1  0  0  0  0
  8  9  1  0  0  0  0
  8 36  1  0  0  0  0
  8 37  1  0  0  0  0
  9 26  1  0  0  0  0
  9 10  1  0  0  0  0
 10 11  2  0  0  0  0
 10 38  1  0  0  0  0
 11 12  1  0  0  0  0
 12 26  2  0  0  0  0
 12 13  1  0  0  0  0
 13 14  1  0  0  0  0
 13 23  2  0  0  0  0
 14 18  1  0  0  0  0
 14 15  1  0  0  0  0
 15 22  1  0  0  0  0
 15 16  1  0  0  0  0
 15 39  1  0  0  0  0
 16 17  1  0  0  0  0
 16 40  1  0  0  0  0
 16 41  1  0  0  0  0
 17 18  1  0  0  0  0
 17 42  1  0  0  0  0
 17 43  1  0  0  0  0
 18 19  1  0  0  0  0
 18 44  1  0  0  0  0
 19 20  1  0  0  0  0
 19 22  1  0  0  0  0
 19 45  1  0  0  0  0
 20 21  1  0  0  0  0
 20 46  1  0  0  0  0
 20 47  1  0  0  0  0
 21 48  1  0  0  0  0
 22 49  1  0  0  0  0
 22 50  1  0  0  0  0
 23 24  1  0  0  0  0
 24 25  2  0  0  0  0
 24 51  1  0  0  0  0
 25 26  1  0  0  0  0
M  END
> <s_m_source_file>
AV-unprocessed.smi

> <i_m_source_file_index>
199

> <i_lp_mmshare_version>
43012

> <i_f3d_flags>
0

> <s_epik_input>
W0NIMl0xW0NIMl1PW0NAQEhdKFtDSDNdKVtDQEBdMShbT0hdKVtDSDJdbihbY0hdbjIpYyhjMjMpbltjSF1uYzNOKFtDQEBIXTQ1KVtDQEhdKFtDSDJdW0NIMl00KVtDQEhdKFtDSDJdNSlbQ0gyXVtPSF0=

> <s_epik_cmdline>
J2VwaWtfcHl0aG9uJywgJy1waCcsICc3LjAnLCAnLXRuJywgJzgnLCAnLW1hJywgJzIwMCcsICctbWV0YWxfYmluZGluZycsICctaW1hZScsICc8aW5maWxlLm1hZT4nLCAnLW9tYWUnLCAnPG91dGZpbGUubWFlPic=

> <r_lp_tautomer_probability>
1

> <r_epik_Ionization_Penalty>
0.00583903

> <r_epik_Ionization_Penalty_Charging>
0

> <r_epik_Ionization_Penalty_Neutral>
0.00583903

> <r_epik_State_Penalty>
-0

> <r_epik_Charging_Adjusted_Penalty>
0

> <i_epik_Tot_Q>
0

> <i_epik_Tot_abs_Q>
0

> <r_epik_Metal_State_Penalty>
-0

> <b_epik_Metal_Only>
0

> <s_lp_Force_Field>
OPLS_2005

> <r_lp_Energy>
84.2729

> <b_lp_Chiralities_Consistent>
1

> <s_lp_Variant>
AV-unprocessed.smi:199-11

> <Gold.Version>
5.8.1

> <Gold.Id.Protein>
6NUR|6NUR_protein|mol2

> <Gold.PLP.Fitness>
48.6986

> <Gold.PLP.PLP>
-37.6878

> <Gold.PLP.part.hbond>
-6.4773

> <Gold.PLP.part.metal>
0.0000

> <Gold.PLP.part.buried>
-1.9897

> <Gold.PLP.part.nonpolar>
-29.6714

> <Gold.PLP.part.repulsive>
0.4417

> <Gold.PLP.ligand.clash>
0.0000

> <Gold.PLP.ligand.torsion>
0.5653

> <Gold.PLP.Chemscore.Hbond>
4.0314

> <Gold.PLP.Chemscore.CHOScore>
0.0000

> <Gold.PLP.Chemscore.Metal>
0.0000

> <Gold.Chemscore.Hbonds>
donor molecule, donor type, donor heavy atom, donor atom, acceptor molecule, acceptor atom, score
      L1  H     7    35       P1  7948  0.18
      L1  H    21    48       P1 10186  0.59
      P1  H  7989  7998       L1     3  1.00
      P1  H 10752 10763       L1     7  1.00
      P1  H 10785 10796       L1    21  1.00

> <Gold.PLP.Chemscore.Internal.Correction>
0.0472

> <Gold.Rescore>
     Score         DG    S(hbond)    S(metal)    S(lipo)     H(rot)  DE(clash)    DE(int)     intcor
     13.71     -18.10       3.16        0.00      84.92       3.07       1.47       2.93       ----

> <Gold.Chemscore.Fitness>
13.7051

> <Gold.Chemscore.DG>
-18.1049

> <Gold.Chemscore.ZeroCoef>
-5.4800

> <Gold.Chemscore.Hbond>
3.1605

> <Gold.Chemscore.Metal>
0.0000

> <Gold.Chemscore.Lipo>
84.9191

> <Gold.Chemscore.Internal_Hbond>
0.0000

> <Gold.Chemscore.DEClash>
1.4654

> <Gold.Chemscore.DEInternal>
2.9343

> <Gold.Chemscore.Rot>
3.0729

> <Gold.Chemscore.Internal.Correction>
   9.000000E+99

> <Gold.Chemscore.Hbonds>
donor molecule, donor type, donor heavy atom, donor atom, acceptor molecule, acceptor atom, score
      L1  H    21    48       P1 10186  0.57
      P1  H  7989  7998       L1     3  0.32
      P1  H 10752 10763       L1     7  0.81
      P1  H 10785 10796       L1    21  0.78

> <Gold.Chemscore.Hbond.Weighted>
-10.5560

> <Gold.Chemscore.Metal.Weighted>
-0.0000

> <Gold.Chemscore.Lipo.Weighted>
-9.9355

> <Gold.Chemscore.Internal_Hbond.Weighted>
0.0000

> <Gold.Chemscore.DEClash.Weighted>
1.4654

> <Gold.Chemscore.DEInternal.Weighted>
2.9343

> <Gold.Chemscore.Rot.Weighted>
7.8667

> <Gold.Chemscore.Internal.Correction.Weighted>
   9.000000E+99

> <Gold.Protein.RotatedTorsions>
[ 6907 6896 6895 6894 ] final  123.87 input  -60.11 | X-H torsion
[ 7974 7965 7964 7962 ] final  -54.18 input  175.53 | X-H torsion
[ 8008 7997 7996 7995 ] final  -95.30 input   59.86 | X-H torsion
[ 10167 10162 10161 10158 ] final   34.75 input  -65.29 | X-H torsion
[ 10718 10713 10712 10709 ] final -120.54 input   66.30 | X-H torsion
[ 10763 10752 10751 10750 ] final   41.22 input  -60.55 | X-H torsion
[ 11005 11000 10999 10996 ] final  165.30 input  -57.11 | X-H torsion

> <Gold.Protein.ActiveResidues>
 VAL166  LYS551  ARG553  GLY616  TRP617  ASP618  TYR619  PRO620  LYS621  CYS622 
 ASP623  PHE694  ASN695  SER759  ASP760  ASP761  ALA762  ILE779  LEU786  VAL792 
 PHE793  MET794  SER795  GLU796  ALA797  LYS798  CYS799  TRP800  GLU811  SER814 

> <Gold.Protein.RotatedAtoms>
  152.4126  133.6987  159.6410 H   0  0  0  0  0  0  0  0  0  0  0  0  # atno 6907 bound_to 6896
  150.8005  133.8597  159.3237 H   0  0  0  0  0  0  0  0  0  0  0  0  # atno 6908 bound_to 6896
  151.6335  135.1022  160.0178 H   0  0  0  0  0  0  0  0  0  0  0  0  # atno 6909 bound_to 6896
  145.8884  140.8090  142.9804 H   0  0  0  0  0  0  0  0  0  0  0  0  # atno 7974 bound_to 7965
  154.7596  140.0481  157.0962 H   0  0  0  0  0  0  0  0  0  0  0  0  # atno 8008 bound_to 7997
  154.9955  140.3118  155.4869 H   0  0  0  0  0  0  0  0  0  0  0  0  # atno 8009 bound_to 7997
  156.2901  140.2211  156.5062 H   0  0  0  0  0  0  0  0  0  0  0  0  # atno 8010 bound_to 7997
  140.4286  144.1357  150.6156 H   0  0  0  0  0  0  0  0  0  0  0  0  # atno 10167 bound_to 10162
  156.1266  130.6363  150.9552 H   0  0  0  0  0  0  0  0  0  0  0  0  # atno 10718 bound_to 10713
  152.9914  135.6168  154.2752 H   0  0  0  0  0  0  0  0  0  0  0  0  # atno 10763 bound_to 10752
  154.2483  135.2786  155.2828 H   0  0  0  0  0  0  0  0  0  0  0  0  # atno 10764 bound_to 10752
  154.5310  135.5788  153.6816 H   0  0  0  0  0  0  0  0  0  0  0  0  # atno 10765 bound_to 10752
  140.2547  134.7949  157.3534 H   0  0  0  0  0  0  0  0  0  0  0  0  # atno 11005 bound_to 11000
  144.6729  140.1492  143.7431 LP  0  0  0  0  0  0  0  0  0  0  0  0  # atno 17320 bound_to 7965
  145.8938  139.2391  143.1534 LP  0  0  0  0  0  0  0  0  0  0  0  0  # atno 17321 bound_to 7965
  140.4453  143.2509  151.9419 LP  0  0  0  0  0  0  0  0  0  0  0  0  # atno 17342 bound_to 10162
  139.4784  144.5615  151.8232 LP  0  0  0  0  0  0  0  0  0  0  0  0  # atno 17343 bound_to 10162
  157.6447  131.0905  150.8178 LP  0  0  0  0  0  0  0  0  0  0  0  0  # atno 17370 bound_to 10713
  156.8268  130.5002  149.5336 LP  0  0  0  0  0  0  0  0  0  0  0  0  # atno 17371 bound_to 10713
  140.1523  134.4833  155.7952 LP  0  0  0  0  0  0  0  0  0  0  0  0  # atno 17394 bound_to 11000
  141.2197  133.6867  156.7401 LP  0  0  0  0  0  0  0  0  0  0  0  0  # atno 17395 bound_to 11000

$$$$
