AV-unprocessed.smi:2943|AV-procd|sdf|11269|dock6
  -GOLD-   2272016163D 1   1.00000     0.00000
 Structure written by MMmdl.
 36 38  0  0  0  0  0  0  0  0  1 V2000
  148.9780  140.1488  154.8132 C   0  0  0  0  0  0  0  0  0  0  0  0
  150.1368  140.0510  155.7611 C   0  0  0  0  0  0  0  0  0  0  0  0
  150.2887  140.7437  156.9406 C   0  0  0  0  0  0  0  0  0  0  0  0
  149.3561  141.7437  157.5535 C   0  0  0  0  0  0  0  0  0  0  0  0
  151.4903  140.3809  157.5527 N   0  0  0  0  0  0  0  0  0  0  0  0
  151.9957  140.8961  158.8180 C   0  0  0  0  0  0  0  0  0  0  0  0
  152.6934  142.2566  158.6514 C   0  0  1  0  0  0  0  0  0  0  0  0
  151.9682  143.2097  157.7023 C   0  0  0  0  0  0  0  0  0  0  0  0
  152.4270  144.5568  158.2113 C   0  0  0  0  0  0  0  0  0  0  0  0
  152.4415  144.3239  159.7185 C   0  0  0  0  0  0  0  0  0  0  0  0
  152.7812  142.9517  159.8941 O   0  0  0  0  0  0  0  0  0  0  0  0
  152.1350  139.4475  156.7542 C   0  0  0  0  0  0  0  0  0  0  0  0
  153.3380  138.8446  156.9958 N   0  0  0  0  0  0  0  0  0  0  0  0
  153.6771  137.9985  156.0201 C   0  0  0  0  0  0  0  0  0  0  0  0
  153.0050  137.6975  154.9055 N   0  0  0  0  0  0  0  0  0  0  0  0
  151.8147  138.2961  154.6753 C   0  0  0  0  0  0  0  0  0  0  0  0
  151.1483  137.9560  153.5001 N   0  0  0  0  0  0  0  0  0  0  0  0
  151.3065  139.2275  155.6190 C   0  0  0  0  0  0  0  0  0  0  0  0
  148.0514  140.3936  155.3322 H   0  0  0  0  0  0  0  0  0  0  0  0
  148.8071  139.2077  154.2917 H   0  0  0  0  0  0  0  0  0  0  0  0
  149.1513  140.9185  154.0612 H   0  0  0  0  0  0  0  0  0  0  0  0
  148.6279  142.1078  156.8297 H   0  0  0  0  0  0  0  0  0  0  0  0
  149.8953  142.6129  157.9284 H   0  0  0  0  0  0  0  0  0  0  0  0
  148.8086  141.3003  158.3853 H   0  0  0  0  0  0  0  0  0  0  0  0
  151.1729  140.9732  159.5288 H   0  0  0  0  0  0  0  0  0  0  0  0
  152.6898  140.1671  159.2380 H   0  0  0  0  0  0  0  0  0  0  0  0
  153.7135  142.1135  158.2932 H   0  0  0  0  0  0  0  0  0  0  0  0
  152.2181  143.0383  156.6549 H   0  0  0  0  0  0  0  0  0  0  0  0
  150.8868  143.1200  157.8161 H   0  0  0  0  0  0  0  0  0  0  0  0
  153.4344  144.7710  157.8519 H   0  0  0  0  0  0  0  0  0  0  0  0
  151.7732  145.3765  157.9117 H   0  0  0  0  0  0  0  0  0  0  0  0
  153.1428  144.9787  160.2361 H   0  0  0  0  0  0  0  0  0  0  0  0
  151.4488  144.4896  160.1388 H   0  0  0  0  0  0  0  0  0  0  0  0
  154.6206  137.4891  156.1494 H   0  0  0  0  0  0  0  0  0  0  0  0
  151.5368  137.2908  152.8473 H   0  0  0  0  0  0  0  0  0  0  0  0
  150.2541  138.3627  153.2661 H   0  0  0  0  0  0  0  0  0  0  0  0
  1  2  1  0  0  0  0
  1 19  1  0  0  0  0
  1 20  1  0  0  0  0
  1 21  1  0  0  0  0
  2 18  1  0  0  0  0
  2  3  2  0  0  0  0
  3  4  1  0  0  0  0
  3  5  1  0  0  0  0
  4 22  1  0  0  0  0
  4 23  1  0  0  0  0
  4 24  1  0  0  0  0
  5  6  1  0  0  0  0
  5 12  1  0  0  0  0
  6  7  1  0  0  0  0
  6 25  1  0  0  0  0
  6 26  1  0  0  0  0
  7 11  1  0  0  0  0
  7  8  1  0  0  0  0
  7 27  1  0  0  0  0
  8  9  1  0  0  0  0
  8 28  1  0  0  0  0
  8 29  1  0  0  0  0
  9 10  1  0  0  0  0
  9 30  1  0  0  0  0
  9 31  1  0  0  0  0
 10 11  1  0  0  0  0
 10 32  1  0  0  0  0
 10 33  1  0  0  0  0
 12 18  1  0  0  0  0
 12 13  2  0  0  0  0
 13 14  1  0  0  0  0
 14 15  2  0  0  0  0
 14 34  1  0  0  0  0
 15 16  1  0  0  0  0
 16 17  1  0  0  0  0
 16 18  2  0  0  0  0
 17 35  1  0  0  0  0
 17 36  1  0  0  0  0
M  END
> <s_m_source_file>
AV-unprocessed.smi

> <i_m_source_file_index>
2943

> <i_lp_mmshare_version>
43012

> <i_f3d_flags>
0

> <s_epik_input>
bjFbY0hdbmMoW05IMl0pYyhjMTIpYyhbQ0gzXSljKFtDSDNdKW4yW0NIMl1bQ0BASF0zW0NIMl1bQ0gyXVtDSDJdTzM=

> <s_epik_cmdline>
J2VwaWtfcHl0aG9uJywgJy1waCcsICc3LjAnLCAnLXRuJywgJzgnLCAnLW1hJywgJzIwMCcsICctbWV0YWxfYmluZGluZycsICctaW1hZScsICc8aW5maWxlLm1hZT4nLCAnLW9tYWUnLCAnPG91dGZpbGUubWFlPic=

> <r_epik_Ionization_Penalty>
0.0115167

> <r_epik_Ionization_Penalty_Charging>
0

> <r_epik_Ionization_Penalty_Neutral>
0.0115167

> <r_epik_State_Penalty>
0.00863248

> <r_epik_Charging_Adjusted_Penalty>
0.00863248

> <i_epik_Tot_Q>
0

> <i_epik_Tot_abs_Q>
0

> <r_epik_Metal_State_Penalty>
0.00847169

> <b_epik_Metal_Only>
0

> <s_lp_Force_Field>
OPLS_2005

> <r_lp_Energy>
17.4582

> <b_lp_Chiralities_Consistent>
1

> <s_lp_Variant>
AV-unprocessed.smi:2943-2

> <Gold.Version>
5.8.1

> <Gold.Id.Protein>
6NUR|6NUR_protein|mol2

> <Gold.PLP.Fitness>
39.7669

> <Gold.PLP.PLP>
-33.5354

> <Gold.PLP.part.hbond>
-3.6977

> <Gold.PLP.part.metal>
0.0000

> <Gold.PLP.part.buried>
-4.8872

> <Gold.PLP.part.nonpolar>
-26.5108

> <Gold.PLP.part.repulsive>
0.1450

> <Gold.PLP.ligand.clash>
0.0309

> <Gold.PLP.ligand.torsion>
0.4839

> <Gold.PLP.Chemscore.Hbond>
2.4099

> <Gold.PLP.Chemscore.CHOScore>
0.0000

> <Gold.PLP.Chemscore.Metal>
0.0000

> <Gold.Chemscore.Hbonds>
donor molecule, donor type, donor heavy atom, donor atom, acceptor molecule, acceptor atom, score
      L1  H    17    35       P1  7949  0.93
      P1  H  7997  8009       L1    13  0.86
      P1  H 10752 10765       L1    15  0.24

> <Gold.PLP.Chemscore.Internal.Correction>
0.0004

> <Gold.Rescore>
     Score         DG    S(hbond)    S(metal)    S(lipo)     H(rot)  DE(clash)    DE(int)     intcor
     14.39     -15.90       1.22        0.00      81.69       1.26       0.00       1.50       ----

> <Gold.Chemscore.Fitness>
14.3916

> <Gold.Chemscore.DG>
-15.8992

> <Gold.Chemscore.ZeroCoef>
-5.4800

> <Gold.Chemscore.Hbond>
1.2242

> <Gold.Chemscore.Metal>
0.0000

> <Gold.Chemscore.Lipo>
81.6906

> <Gold.Chemscore.Internal_Hbond>
0.0000

> <Gold.Chemscore.DEClash>
0.0048

> <Gold.Chemscore.DEInternal>
1.5028

> <Gold.Chemscore.Rot>
1.2607

> <Gold.Chemscore.Internal.Correction>
   9.000000E+99

> <Gold.Chemscore.Hbonds>
donor molecule, donor type, donor heavy atom, donor atom, acceptor molecule, acceptor atom, score
      L1  H    17    35       P1  7949  0.84
      P1  H  7997  8009       L1    13  0.30
      P1  H 10752 10765       L1    15  0.14

> <Gold.Chemscore.Hbond.Weighted>
-4.0888

> <Gold.Chemscore.Metal.Weighted>
-0.0000

> <Gold.Chemscore.Lipo.Weighted>
-9.5578

> <Gold.Chemscore.Internal_Hbond.Weighted>
0.0000

> <Gold.Chemscore.DEClash.Weighted>
0.0048

> <Gold.Chemscore.DEInternal.Weighted>
1.5028

> <Gold.Chemscore.Rot.Weighted>
3.2274

> <Gold.Chemscore.Internal.Correction.Weighted>
   9.000000E+99

> <Gold.Protein.RotatedTorsions>
[ 6907 6896 6895 6894 ] final -100.19 input  -60.11 | X-H torsion
[ 7974 7965 7964 7962 ] final   90.47 input  175.53 | X-H torsion
[ 8008 7997 7996 7995 ] final  153.28 input   59.86 | X-H torsion
[ 10167 10162 10161 10158 ] final  129.92 input  -65.29 | X-H torsion
[ 10718 10713 10712 10709 ] final -157.06 input   66.30 | X-H torsion
[ 10763 10752 10751 10750 ] final -174.24 input  -60.55 | X-H torsion
[ 11005 11000 10999 10996 ] final   11.96 input  -57.11 | X-H torsion

> <Gold.Protein.ActiveResidues>
 VAL166  LYS551  ARG553  GLY616  TRP617  ASP618  TYR619  PRO620  LYS621  CYS622 
 ASP623  PHE694  ASN695  SER759  ASP760  ASP761  ALA762  ILE779  LEU786  VAL792 
 PHE793  MET794  SER795  GLU796  ALA797  LYS798  CYS799  TRP800  GLU811  SER814 

> <Gold.Protein.RotatedAtoms>
  150.7107  134.0926  159.3936 H   0  0  0  0  0  0  0  0  0  0  0  0  # atno 6907 bound_to 6896
  151.8911  135.0414  160.0507 H   0  0  0  0  0  0  0  0  0  0  0  0  # atno 6908 bound_to 6896
  152.2490  133.5164  159.5351 H   0  0  0  0  0  0  0  0  0  0  0  0  # atno 6909 bound_to 6896
  145.5185  139.2278  143.2685 H   0  0  0  0  0  0  0  0  0  0  0  0  # atno 7974 bound_to 7965
  156.2589  140.1998  156.6466 H   0  0  0  0  0  0  0  0  0  0  0  0  # atno 8008 bound_to 7997
  154.6569  140.0565  157.0043 H   0  0  0  0  0  0  0  0  0  0  0  0  # atno 8009 bound_to 7997
  155.1334  140.3236  155.4471 H   0  0  0  0  0  0  0  0  0  0  0  0  # atno 8010 bound_to 7997
  139.5454  144.6769  151.4489 H   0  0  0  0  0  0  0  0  0  0  0  0  # atno 10167 bound_to 10162
  156.5351  130.8538  151.2730 H   0  0  0  0  0  0  0  0  0  0  0  0  # atno 10718 bound_to 10713
  154.5986  135.2852  155.0560 H   0  0  0  0  0  0  0  0  0  0  0  0  # atno 10763 bound_to 10752
  154.1834  135.6453  153.5044 H   0  0  0  0  0  0  0  0  0  0  0  0  # atno 10764 bound_to 10752
  153.0148  135.5429  154.6696 H   0  0  0  0  0  0  0  0  0  0  0  0  # atno 10765 bound_to 10752
  140.4974  134.0780  155.7785 H   0  0  0  0  0  0  0  0  0  0  0  0  # atno 11005 bound_to 11000
  146.2121  140.5996  142.9055 LP  0  0  0  0  0  0  0  0  0  0  0  0  # atno 17320 bound_to 7965
  144.7689  140.5592  143.6684 LP  0  0  0  0  0  0  0  0  0  0  0  0  # atno 17321 bound_to 7965
  140.6700  143.8314  150.6988 LP  0  0  0  0  0  0  0  0  0  0  0  0  # atno 17342 bound_to 10162
  140.1735  143.4174  152.1984 LP  0  0  0  0  0  0  0  0  0  0  0  0  # atno 17343 bound_to 10162
  157.7415  130.9871  150.2450 LP  0  0  0  0  0  0  0  0  0  0  0  0  # atno 17370 bound_to 10713
  156.3023  130.3760  149.7738 LP  0  0  0  0  0  0  0  0  0  0  0  0  # atno 17371 bound_to 10713
  141.1453  133.9066  157.2230 LP  0  0  0  0  0  0  0  0  0  0  0  0  # atno 17394 bound_to 11000
  139.9733  135.0121  156.9568 LP  0  0  0  0  0  0  0  0  0  0  0  0  # atno 17395 bound_to 11000

$$$$
