AV-unprocessed.smi:2829|AV-procd|sdf|10900|dock10
  -GOLD-   2272015343D 1   1.00000     0.00000
 Structure written by MMmdl.
 50 53  0  0  0  0  0  0  0  0  1 V2000
  149.6520  133.2831  154.7767 C   0  0  0  0  0  0  0  0  0  0  0  0
  149.9004  133.6411  156.2567 C   0  0  0  0  0  0  0  0  0  0  0  0
  148.6161  133.4004  157.0772 C   0  0  0  0  0  0  0  0  0  0  0  0
  150.9819  132.6757  156.7925 C   0  0  0  0  0  0  0  0  0  0  0  0
  150.3206  135.1176  156.3700 C   0  0  0  0  0  0  0  0  0  0  0  0
  150.5007  135.9594  155.2493 C   0  0  0  0  0  0  0  0  0  0  0  0
  150.8814  137.2910  155.4858 C   0  0  0  0  0  0  0  0  0  0  0  0
  151.0614  137.7115  156.8187 C   0  0  0  0  0  0  0  0  0  0  0  0
  151.4344  139.0702  156.9807 N   0  0  0  0  0  0  0  0  0  0  0  0
  151.3781  139.8247  158.0957 C   0  0  0  0  0  0  0  0  0  0  0  0
  151.0696  139.4076  159.2104 O   0  0  0  0  0  0  0  0  0  0  0  0
  151.6999  141.1153  157.8981 N   0  0  0  0  0  0  0  0  0  0  0  0
  151.7356  142.1847  158.8968 C   0  0  2  0  0  0  0  0  0  0  0  0
  152.3576  143.4814  158.3445 C   0  0  1  0  0  0  0  0  0  0  0  0
  151.5226  144.7293  158.2401 C   0  0  0  0  0  0  0  0  0  0  0  0
  151.8918  145.4955  159.5136 C   0  0  0  0  0  0  0  0  0  0  0  0
  152.3822  144.4970  160.4050 O   0  0  0  0  0  0  0  0  0  0  0  0
  153.1590  143.5827  159.6373 C   0  0  1  0  0  0  0  0  0  0  0  0
  152.8987  142.0961  159.9094 C   0  0  0  0  0  0  0  0  0  0  0  0
  154.0525  141.0829  159.7811 C   0  0  0  0  0  0  0  0  0  0  0  0
  153.4746  140.3236  160.9782 C   0  0  0  0  0  0  0  0  0  0  0  0
  152.6758  141.5799  161.3382 C   0  0  0  0  0  0  0  0  0  0  0  0
  150.8729  136.8485  157.8481 N   0  0  0  0  0  0  0  0  0  0  0  0
  150.5105  135.5810  157.6297 N   0  0  0  0  0  0  0  0  0  0  0  0
  149.3703  132.2359  154.6627 H   0  0  0  0  0  0  0  0  0  0  0  0
  150.5456  133.4506  154.1741 H   0  0  0  0  0  0  0  0  0  0  0  0
  148.8480  133.8800  154.3445 H   0  0  0  0  0  0  0  0  0  0  0  0
  147.7820  133.9990  156.7095 H   0  0  0  0  0  0  0  0  0  0  0  0
  148.7646  133.6545  158.1276 H   0  0  0  0  0  0  0  0  0  0  0  0
  148.3051  132.3563  157.0324 H   0  0  0  0  0  0  0  0  0  0  0  0
  150.6629  131.6364  156.7030 H   0  0  0  0  0  0  0  0  0  0  0  0
  151.1944  132.8535  157.8474 H   0  0  0  0  0  0  0  0  0  0  0  0
  151.9168  132.7694  156.2387 H   0  0  0  0  0  0  0  0  0  0  0  0
  150.3567  135.6221  154.2346 H   0  0  0  0  0  0  0  0  0  0  0  0
  151.0274  137.9724  154.6601 H   0  0  0  0  0  0  0  0  0  0  0  0
  151.7292  139.5432  156.1392 H   0  0  0  0  0  0  0  0  0  0  0  0
  151.9526  141.3803  156.9568 H   0  0  0  0  0  0  0  0  0  0  0  0
  150.7783  142.3791  159.3851 H   0  0  0  0  0  0  0  0  0  0  0  0
  153.0119  143.3001  157.4895 H   0  0  0  0  0  0  0  0  0  0  0  0
  151.7445  145.3096  157.3441 H   0  0  0  0  0  0  0  0  0  0  0  0
  150.4594  144.4874  158.2273 H   0  0  0  0  0  0  0  0  0  0  0  0
  152.6891  146.2124  159.3120 H   0  0  0  0  0  0  0  0  0  0  0  0
  151.0467  146.0356  159.9409 H   0  0  0  0  0  0  0  0  0  0  0  0
  154.1995  143.8802  159.4994 H   0  0  0  0  0  0  0  0  0  0  0  0
  154.0884  140.5092  158.8551 H   0  0  0  0  0  0  0  0  0  0  0  0
  155.0238  141.5257  160.0060 H   0  0  0  0  0  0  0  0  0  0  0  0
  152.8418  139.4862  160.6836 H   0  0  0  0  0  0  0  0  0  0  0  0
  154.2118  140.0263  161.7242 H   0  0  0  0  0  0  0  0  0  0  0  0
  153.1744  142.1941  162.0894 H   0  0  0  0  0  0  0  0  0  0  0  0
  151.6336  141.3929  161.5984 H   0  0  0  0  0  0  0  0  0  0  0  0
  1  2  1  0  0  0  0
  1 25  1  0  0  0  0
  1 26  1  0  0  0  0
  1 27  1  0  0  0  0
  2  3  1  0  0  0  0
  2  4  1  0  0  0  0
  2  5  1  0  0  0  0
  3 28  1  0  0  0  0
  3 29  1  0  0  0  0
  3 30  1  0  0  0  0
  4 31  1  0  0  0  0
  4 32  1  0  0  0  0
  4 33  1  0  0  0  0
  5 24  1  0  0  0  0
  5  6  2  0  0  0  0
  6  7  1  0  0  0  0
  6 34  1  0  0  0  0
  7  8  2  0  0  0  0
  7 35  1  0  0  0  0
  8  9  1  0  0  0  0
  8 23  1  0  0  0  0
  9 10  1  0  0  0  0
  9 36  1  0  0  0  0
 10 11  2  0  0  0  0
 10 12  1  0  0  0  0
 12 13  1  0  0  0  0
 12 37  1  0  0  0  0
 13 19  1  0  0  0  0
 13 14  1  0  0  0  0
 13 38  1  0  0  0  0
 14 18  1  0  0  0  0
 14 15  1  0  0  0  0
 14 39  1  0  0  0  0
 15 16  1  0  0  0  0
 15 40  1  0  0  0  0
 15 41  1  0  0  0  0
 16 17  1  0  0  0  0
 16 42  1  0  0  0  0
 16 43  1  0  0  0  0
 17 18  1  0  0  0  0
 18 19  1  0  0  0  0
 18 44  1  0  0  0  0
 19 22  1  0  0  0  0
 19 20  1  0  0  0  0
 20 21  1  0  0  0  0
 20 45  1  0  0  0  0
 20 46  1  0  0  0  0
 21 22  1  0  0  0  0
 21 47  1  0  0  0  0
 21 48  1  0  0  0  0
 22 49  1  0  0  0  0
 22 50  1  0  0  0  0
 23 24  2  0  0  0  0
M  END
> <s_m_source_file>
AV-unprocessed.smi

> <i_m_source_file_index>
2829

> <i_lp_mmshare_version>
43012

> <i_f3d_flags>
0

> <s_epik_input>
W0NIM11DKFtDSDNdKShbQ0gzXSljMVtjSF1bY0hdYyhubjEpW05IXUMoPU8pW05IXVtDQEBIXTJbQ0BIXShbQ0gyXVtDSDJdTzMpW0NAQEhdM0MyNFtDSDJdW0NIMl1bQ0gyXTQ=

> <s_epik_cmdline>
J2VwaWtfcHl0aG9uJywgJy1waCcsICc3LjAnLCAnLXRuJywgJzgnLCAnLW1hJywgJzIwMCcsICctbWV0YWxfYmluZGluZycsICctaW1hZScsICc8aW5maWxlLm1hZT4nLCAnLW9tYWUnLCAnPG91dGZpbGUubWFlPic=

> <r_lp_tautomer_probability>
1

> <r_epik_Ionization_Penalty>
0.011915

> <r_epik_Ionization_Penalty_Charging>
0

> <r_epik_Ionization_Penalty_Neutral>
0.011915

> <r_epik_State_Penalty>
0.00486223

> <r_epik_Charging_Adjusted_Penalty>
0.00486223

> <i_epik_Tot_Q>
0

> <i_epik_Tot_abs_Q>
0

> <r_epik_Metal_State_Penalty>
-0

> <b_epik_Metal_Only>
0

> <s_lp_Force_Field>
OPLS_2005

> <r_lp_Energy>
59.5843

> <b_lp_Chiralities_Consistent>
1

> <s_lp_Variant>
AV-unprocessed.smi:2829-3

> <Gold.Version>
5.8.1

> <Gold.Id.Protein>
6NUR|6NUR_protein|mol2

> <Gold.PLP.Fitness>
43.4601

> <Gold.PLP.PLP>
-42.7286

> <Gold.PLP.part.hbond>
-1.1149

> <Gold.PLP.part.metal>
0.0000

> <Gold.PLP.part.buried>
-5.4970

> <Gold.PLP.part.nonpolar>
-36.1043

> <Gold.PLP.part.repulsive>
0.2086

> <Gold.PLP.ligand.clash>
0.0000

> <Gold.PLP.ligand.torsion>
0.1905

> <Gold.PLP.Chemscore.Hbond>
0.3058

> <Gold.PLP.Chemscore.CHOScore>
0.0000

> <Gold.PLP.Chemscore.Metal>
0.0000

> <Gold.Chemscore.Hbonds>
donor molecule, donor type, donor heavy atom, donor atom, acceptor molecule, acceptor atom, score
      P1  H  6896  6907       L1    24  0.40

> <Gold.PLP.Chemscore.Internal.Correction>
0.1953

> <Gold.Rescore>
     Score         DG    S(hbond)    S(metal)    S(lipo)     H(rot)  DE(clash)    DE(int)     intcor
     17.56     -19.12       0.45        0.00     129.21       1.16       0.12       1.43       ----

> <Gold.Chemscore.Fitness>
17.5643

> <Gold.Chemscore.DG>
-19.1239

> <Gold.Chemscore.ZeroCoef>
-5.4800

> <Gold.Chemscore.Hbond>
0.4492

> <Gold.Chemscore.Metal>
0.0000

> <Gold.Chemscore.Lipo>
129.2103

> <Gold.Chemscore.Internal_Hbond>
0.0000

> <Gold.Chemscore.DEClash>
0.1247

> <Gold.Chemscore.DEInternal>
1.4349

> <Gold.Chemscore.Rot>
1.1618

> <Gold.Chemscore.Internal.Correction>
   9.000000E+99

> <Gold.Chemscore.Hbonds>
donor molecule, donor type, donor heavy atom, donor atom, acceptor molecule, acceptor atom, score
      P1  H  6896  6907       L1    24  0.25

> <Gold.Chemscore.Hbond.Weighted>
-1.5004

> <Gold.Chemscore.Metal.Weighted>
-0.0000

> <Gold.Chemscore.Lipo.Weighted>
-15.1176

> <Gold.Chemscore.Internal_Hbond.Weighted>
0.0000

> <Gold.Chemscore.DEClash.Weighted>
0.1247

> <Gold.Chemscore.DEInternal.Weighted>
1.4349

> <Gold.Chemscore.Rot.Weighted>
2.9741

> <Gold.Chemscore.Internal.Correction.Weighted>
   9.000000E+99

> <Gold.Protein.RotatedTorsions>
[ 6907 6896 6895 6894 ] final  -73.07 input  -60.11 | X-H torsion
[ 7974 7965 7964 7962 ] final  -42.15 input  175.53 | X-H torsion
[ 8008 7997 7996 7995 ] final   -2.31 input   59.86 | X-H torsion
[ 10167 10162 10161 10158 ] final  173.47 input  -65.29 | X-H torsion
[ 10718 10713 10712 10709 ] final -131.99 input   66.30 | X-H torsion
[ 10763 10752 10751 10750 ] final  105.37 input  -60.55 | X-H torsion
[ 11005 11000 10999 10996 ] final  112.86 input  -57.11 | X-H torsion

> <Gold.Protein.ActiveResidues>
 VAL166  LYS551  ARG553  GLY616  TRP617  ASP618  TYR619  PRO620  LYS621  CYS622 
 ASP623  PHE694  ASN695  SER759  ASP760  ASP761  ALA762  ILE779  LEU786  VAL792 
 PHE793  MET794  SER795  GLU796  ALA797  LYS798  CYS799  TRP800  GLU811  SER814 

> <Gold.Protein.RotatedAtoms>
  150.7144  134.5070  159.5588 H   0  0  0  0  0  0  0  0  0  0  0  0  # atno 6907 bound_to 6896
  152.2655  134.7986  160.0432 H   0  0  0  0  0  0  0  0  0  0  0  0  # atno 6908 bound_to 6896
  151.8684  133.3435  159.3763 H   0  0  0  0  0  0  0  0  0  0  0  0  # atno 6909 bound_to 6896
  146.0143  140.6927  142.9209 H   0  0  0  0  0  0  0  0  0  0  0  0  # atno 7974 bound_to 7965
  154.6371  140.2537  155.7365 H   0  0  0  0  0  0  0  0  0  0  0  0  # atno 8008 bound_to 7997
  156.2510  140.2895  156.0669 H   0  0  0  0  0  0  0  0  0  0  0  0  # atno 8009 bound_to 7997
  155.1654  140.0385  157.2842 H   0  0  0  0  0  0  0  0  0  0  0  0  # atno 8010 bound_to 7997
  139.5109  144.3257  152.0160 H   0  0  0  0  0  0  0  0  0  0  0  0  # atno 10167 bound_to 10162
  156.2300  130.7031  151.0848 H   0  0  0  0  0  0  0  0  0  0  0  0  # atno 10718 bound_to 10713
  153.3784  135.3912  155.1839 H   0  0  0  0  0  0  0  0  0  0  0  0  # atno 10763 bound_to 10752
  154.8704  135.3719  154.4888 H   0  0  0  0  0  0  0  0  0  0  0  0  # atno 10764 bound_to 10752
  153.5363  135.7085  153.5719 H   0  0  0  0  0  0  0  0  0  0  0  0  # atno 10765 bound_to 10752
  139.8938  134.9538  156.6650 H   0  0  0  0  0  0  0  0  0  0  0  0  # atno 11005 bound_to 11000
  144.6965  140.3454  143.7191 LP  0  0  0  0  0  0  0  0  0  0  0  0  # atno 17320 bound_to 7965
  145.7293  139.1731  143.2439 LP  0  0  0  0  0  0  0  0  0  0  0  0  # atno 17321 bound_to 7965
  140.2697  144.3977  150.6155 LP  0  0  0  0  0  0  0  0  0  0  0  0  # atno 17342 bound_to 10162
  140.6097  143.2169  151.6910 LP  0  0  0  0  0  0  0  0  0  0  0  0  # atno 17343 bound_to 10162
  157.7128  131.0725  150.6437 LP  0  0  0  0  0  0  0  0  0  0  0  0  # atno 17370 bound_to 10713
  156.6504  130.4483  149.5721 LP  0  0  0  0  0  0  0  0  0  0  0  0  # atno 17371 bound_to 10713
  140.7417  133.8972  155.8283 LP  0  0  0  0  0  0  0  0  0  0  0  0  # atno 17394 bound_to 11000
  141.0072  134.1070  157.4258 LP  0  0  0  0  0  0  0  0  0  0  0  0  # atno 17395 bound_to 11000

$$$$
