AV-unprocessed.smi:2046|AV-procd|sdf|8311|dock10
  -GOLD-   2272010583D 1   1.00000     0.00000
 Structure written by MMmdl.
 30 31  0  0  0  0  0  0  0  0  1 V2000
  149.0834  137.2024  156.3617 O   0  0  0  0  0  0  0  0  0  0  0  0
  148.9924  136.8329  155.1904 C   0  0  0  0  0  0  0  0  0  0  0  0
  149.3035  135.6066  154.7349 N   0  0  0  0  0  0  0  0  0  0  0  0
  149.7911  134.4923  155.4679 C   0  0  0  0  0  0  0  0  0  0  0  0
  150.2371  134.5694  156.7318 N   0  0  0  0  0  0  0  0  0  0  0  0
  150.6563  133.3350  157.2110 N   0  0  0  0  0  0  0  0  0  0  0  0
  150.5102  132.3769  156.2913 C   0  0  0  0  0  0  0  0  0  0  0  0
  149.8461  132.8889  154.7495 S   0  0  0  0  0  0  0  0  0  0  0  0
  148.5612  137.6233  154.1965 N   0  0  0  0  0  0  0  0  0  0  0  0
  148.1657  139.0254  154.3305 C   0  0  2  0  0  0  0  0  0  0  0  0
  147.1509  139.4170  153.2255 C   0  0  0  0  0  0  0  0  0  0  0  0
  147.0832  140.9164  152.8674 C   0  0  0  0  0  0  0  0  0  0  0  0
  146.8564  141.8738  154.0551 C   0  0  0  0  0  0  0  0  0  0  0  0
  147.8621  141.7787  155.2278 C   0  0  0  0  0  0  0  0  0  0  0  0
  149.1648  141.2220  154.8644 N   0  0  0  0  0  0  0  0  0  0  0  0
  149.3854  139.9571  154.4660 C   0  0  0  0  0  0  0  0  0  0  0  0
  150.5173  139.5571  154.1959 O   0  0  0  0  0  0  0  0  0  0  0  0
  149.1784  135.4521  153.7453 H   0  0  0  0  0  0  0  0  0  0  0  0
  150.7958  131.3614  156.5227 H   0  0  0  0  0  0  0  0  0  0  0  0
  148.5226  137.2369  153.2644 H   0  0  0  0  0  0  0  0  0  0  0  0
  147.6479  139.0988  155.2878 H   0  0  0  0  0  0  0  0  0  0  0  0
  147.3867  138.8732  152.3095 H   0  0  0  0  0  0  0  0  0  0  0  0
  146.1585  139.0742  153.5214 H   0  0  0  0  0  0  0  0  0  0  0  0
  147.9945  141.2050  152.3418 H   0  0  0  0  0  0  0  0  0  0  0  0
  146.2822  141.0647  152.1426 H   0  0  0  0  0  0  0  0  0  0  0  0
  146.8818  142.8916  153.6643 H   0  0  0  0  0  0  0  0  0  0  0  0
  145.8471  141.7382  154.4447 H   0  0  0  0  0  0  0  0  0  0  0  0
  148.0193  142.7704  155.6527 H   0  0  0  0  0  0  0  0  0  0  0  0
  147.4356  141.1859  156.0378 H   0  0  0  0  0  0  0  0  0  0  0  0
  149.9615  141.8378  154.9396 H   0  0  0  0  0  0  0  0  0  0  0  0
  1  2  2  0  0  0  0
  2  3  1  0  0  0  0
  2  9  1  0  0  0  0
  3  4  1  0  0  0  0
  3 18  1  0  0  0  0
  4  8  1  0  0  0  0
  4  5  2  0  0  0  0
  5  6  1  0  0  0  0
  6  7  2  0  0  0  0
  7  8  1  0  0  0  0
  7 19  1  0  0  0  0
  9 10  1  0  0  0  0
  9 20  1  0  0  0  0
 10 16  1  0  0  0  0
 10 11  1  0  0  0  0
 10 21  1  0  0  0  0
 11 12  1  0  0  0  0
 11 22  1  0  0  0  0
 11 23  1  0  0  0  0
 12 13  1  0  0  0  0
 12 24  1  0  0  0  0
 12 25  1  0  0  0  0
 13 14  1  0  0  0  0
 13 26  1  0  0  0  0
 13 27  1  0  0  0  0
 14 15  1  0  0  0  0
 14 28  1  0  0  0  0
 14 29  1  0  0  0  0
 15 16  1  0  0  0  0
 15 30  1  0  0  0  0
 16 17  2  0  0  0  0
M  END
> <s_m_source_file>
AV-unprocessed.smi

> <i_m_source_file_index>
2046

> <i_lp_mmshare_version>
43012

> <i_f3d_flags>
0

> <s_epik_input>
czFbY0hdbm5jMVtOSF1DKD1PKVtOSF1bQ0BASF0yW0NIMl1bQ0gyXVtDSDJdW0NIMl1bTkhdQzI9Tw==

> <s_epik_cmdline>
J2VwaWtfcHl0aG9uJywgJy1waCcsICc3LjAnLCAnLXRuJywgJzgnLCAnLW1hJywgJzIwMCcsICctbWV0YWxfYmluZGluZycsICctaW1hZScsICc8aW5maWxlLm1hZT4nLCAnLW9tYWUnLCAnPG91dGZpbGUubWFlPic=

> <r_lp_tautomer_probability>
1

> <r_epik_Ionization_Penalty>
0.000691558

> <r_epik_Ionization_Penalty_Charging>
0

> <r_epik_Ionization_Penalty_Neutral>
0.000691558

> <r_epik_State_Penalty>
-0

> <r_epik_Charging_Adjusted_Penalty>
0

> <i_epik_Tot_Q>
0

> <i_epik_Tot_abs_Q>
0

> <r_epik_Metal_State_Penalty>
0.252698

> <b_epik_Metal_Only>
0

> <s_lp_Force_Field>
OPLS_2005

> <r_lp_Energy>
13.4172

> <b_lp_Chiralities_Consistent>
1

> <s_lp_Variant>
AV-unprocessed.smi:2046-1

> <Gold.Version>
5.8.1

> <Gold.Id.Protein>
6NUR|6NUR_protein|mol2

> <Gold.PLP.Fitness>
35.6974

> <Gold.PLP.PLP>
-24.5678

> <Gold.PLP.part.hbond>
-4.0000

> <Gold.PLP.part.metal>
0.0000

> <Gold.PLP.part.buried>
-3.0004

> <Gold.PLP.part.nonpolar>
-17.4870

> <Gold.PLP.part.repulsive>
0.3649

> <Gold.PLP.ligand.clash>
0.0000

> <Gold.PLP.ligand.torsion>
0.3174

> <Gold.PLP.Chemscore.Hbond>
3.9040

> <Gold.PLP.Chemscore.CHOScore>
0.0000

> <Gold.PLP.Chemscore.Metal>
0.0000

> <Gold.Chemscore.Hbonds>
donor molecule, donor type, donor heavy atom, donor atom, acceptor molecule, acceptor atom, score
      L1  H     3    18       P1  7948  0.99
      L1  H     9    20       P1  7948  1.00
      P1  H  6896  6907       L1     6  0.90
      P1  H  7989  7998       L1    17  1.00

> <Gold.PLP.Chemscore.Internal.Correction>
0.0524

> <Gold.Rescore>
     Score         DG    S(hbond)    S(metal)    S(lipo)     H(rot)  DE(clash)    DE(int)     intcor
     17.71     -19.38       3.47        0.00      41.58       1.00       0.09       1.58       ----

> <Gold.Chemscore.Fitness>
17.7077

> <Gold.Chemscore.DG>
-19.3775

> <Gold.Chemscore.ZeroCoef>
-5.4800

> <Gold.Chemscore.Hbond>
3.4707

> <Gold.Chemscore.Metal>
0.0000

> <Gold.Chemscore.Lipo>
41.5850

> <Gold.Chemscore.Internal_Hbond>
0.0000

> <Gold.Chemscore.DEClash>
0.0932

> <Gold.Chemscore.DEInternal>
1.5766

> <Gold.Chemscore.Rot>
1.0000

> <Gold.Chemscore.Internal.Correction>
   9.000000E+99

> <Gold.Chemscore.Hbonds>
donor molecule, donor type, donor heavy atom, donor atom, acceptor molecule, acceptor atom, score
      L1  H     3    18       P1  7948  0.49
      L1  H     9    20       P1  7948  0.99
      P1  H  6896  6907       L1     6  0.46
      P1  H  7989  7998       L1    17  0.88

> <Gold.Chemscore.Hbond.Weighted>
-11.5921

> <Gold.Chemscore.Metal.Weighted>
-0.0000

> <Gold.Chemscore.Lipo.Weighted>
-4.8654

> <Gold.Chemscore.Internal_Hbond.Weighted>
0.0000

> <Gold.Chemscore.DEClash.Weighted>
0.0932

> <Gold.Chemscore.DEInternal.Weighted>
1.5766

> <Gold.Chemscore.Rot.Weighted>
2.5600

> <Gold.Chemscore.Internal.Correction.Weighted>
   9.000000E+99

> <Gold.Protein.RotatedTorsions>
[ 6907 6896 6895 6894 ] final -136.88 input  -60.11 | X-H torsion
[ 7974 7965 7964 7962 ] final   17.40 input  175.53 | X-H torsion
[ 8008 7997 7996 7995 ] final   86.90 input   59.86 | X-H torsion
[ 10167 10162 10161 10158 ] final  121.36 input  -65.29 | X-H torsion
[ 10718 10713 10712 10709 ] final  105.66 input   66.30 | X-H torsion
[ 10763 10752 10751 10750 ] final -139.77 input  -60.55 | X-H torsion
[ 11005 11000 10999 10996 ] final   98.82 input  -57.11 | X-H torsion

> <Gold.Protein.ActiveResidues>
 VAL166  LYS551  ARG553  GLY616  TRP617  ASP618  TYR619  PRO620  LYS621  CYS622 
 ASP623  PHE694  ASN695  SER759  ASP760  ASP761  ALA762  ILE779  LEU786  VAL792 
 PHE793  MET794  SER795  GLU796  ALA797  LYS798  CYS799  TRP800  GLU811  SER814 

> <Gold.Protein.RotatedAtoms>
  151.0155  133.5925  159.2677 H   0  0  0  0  0  0  0  0  0  0  0  0  # atno 6907 bound_to 6896
  151.3061  135.0781  159.9265 H   0  0  0  0  0  0  0  0  0  0  0  0  # atno 6908 bound_to 6896
  152.5310  133.9828  159.7869 H   0  0  0  0  0  0  0  0  0  0  0  0  # atno 6909 bound_to 6896
  146.2219  139.8608  142.8605 H   0  0  0  0  0  0  0  0  0  0  0  0  # atno 7974 bound_to 7965
  155.9686  140.3387  155.6555 H   0  0  0  0  0  0  0  0  0  0  0  0  # atno 8008 bound_to 7997
  155.6704  140.0726  157.2540 H   0  0  0  0  0  0  0  0  0  0  0  0  # atno 8009 bound_to 7997
  154.4161  140.1692  156.1860 H   0  0  0  0  0  0  0  0  0  0  0  0  # atno 8010 bound_to 7997
  139.5924  144.7030  151.3257 H   0  0  0  0  0  0  0  0  0  0  0  0  # atno 10167 bound_to 10162
  157.6697  131.0833  150.5890 H   0  0  0  0  0  0  0  0  0  0  0  0  # atno 10718 bound_to 10713
  154.8599  135.3572  154.5600 H   0  0  0  0  0  0  0  0  0  0  0  0  # atno 10763 bound_to 10752
  153.6216  135.7006  153.5313 H   0  0  0  0  0  0  0  0  0  0  0  0  # atno 10764 bound_to 10752
  153.3124  135.4174  155.1307 H   0  0  0  0  0  0  0  0  0  0  0  0  # atno 10765 bound_to 10752
  139.8771  134.9067  156.4514 H   0  0  0  0  0  0  0  0  0  0  0  0  # atno 11005 bound_to 11000
  145.2706  141.0107  143.3774 LP  0  0  0  0  0  0  0  0  0  0  0  0  # atno 17320 bound_to 7965
  144.9226  139.4393  143.6534 LP  0  0  0  0  0  0  0  0  0  0  0  0  # atno 17321 bound_to 7965
  140.7184  143.7203  150.7701 LP  0  0  0  0  0  0  0  0  0  0  0  0  # atno 17342 bound_to 10162
  140.0761  143.5013  152.2554 LP  0  0  0  0  0  0  0  0  0  0  0  0  # atno 17343 bound_to 10162
  156.6191  130.4401  149.5829 LP  0  0  0  0  0  0  0  0  0  0  0  0  # atno 17370 bound_to 10713
  156.2370  130.6828  151.1519 LP  0  0  0  0  0  0  0  0  0  0  0  0  # atno 17371 bound_to 10713
  140.8929  133.7835  155.9592 LP  0  0  0  0  0  0  0  0  0  0  0  0  # atno 17394 bound_to 11000
  140.8734  134.2699  157.5180 LP  0  0  0  0  0  0  0  0  0  0  0  0  # atno 17395 bound_to 11000

$$$$
