AV-unprocessed.smi:37|AV-procd|sdf|332|dock3
  -GOLD-   2262016163D 1   1.00000     0.00000
 Structure written by MMmdl.
 43 44  0  0  0  0  0  0  0  0  2 V2000
  145.4780  143.0935  157.0726 C   0  0  0  0  0  0  0  0  0  0  0  0
  145.7015  141.6368  156.6405 C   0  0  0  0  0  0  0  0  0  0  0  0
  146.1021  140.7103  157.7905 C   0  0  0  0  0  0  0  0  0  0  0  0
  146.2151  141.1071  158.9518 O   0  0  0  0  0  0  0  0  0  0  0  0
  146.3040  139.4535  157.3709 O   0  0  0  0  0  0  0  0  0  0  0  0
  146.8355  138.4864  158.2621 C   0  0  0  0  0  0  0  0  0  0  0  0
  147.1515  137.2056  157.4801 C   0  0  1  0  0  0  0  0  0  0  0  0
  147.4860  137.5000  156.1235 O   0  0  0  0  0  0  0  0  0  0  0  0
  148.5397  136.6857  155.6876 C   0  0  1  0  0  0  0  0  0  0  0  0
  149.7751  137.5329  155.4516 N   0  0  0  0  0  0  0  0  0  0  0  0
  149.7944  138.8865  155.7470 C   0  0  0  0  0  0  0  0  0  0  0  0
  150.8971  139.6339  155.5358 C   0  0  0  0  0  0  0  0  0  0  0  0
  150.8841  140.9447  155.8333 F   0  0  0  0  0  0  0  0  0  0  0  0
  152.0986  139.0114  154.9835 C   0  0  0  0  0  0  0  0  0  0  0  0
  153.1002  139.6987  154.7895 O   0  0  0  0  0  0  0  0  0  0  0  0
  152.0538  137.6766  154.7048 N   0  5  0  0  0  0  0  0  0  0  0  0
  150.9411  136.9154  154.9200 C   0  0  0  0  0  0  0  0  0  0  0  0
  150.8960  135.7086  154.6809 O   0  0  0  0  0  0  0  0  0  0  0  0
  148.8061  135.6611  156.7951 C   0  0  2  0  0  0  0  0  0  0  0  0
  147.6702  134.0504  156.4782 Br  0  0  0  0  0  0  0  0  0  0  0  0
  148.3428  136.4203  158.0270 C   0  0  2  0  0  0  0  0  0  0  0  0
  147.9629  135.5602  159.0927 O   0  0  0  0  0  0  0  0  0  0  0  0
  147.7131  136.0633  160.3135 C   0  0  0  0  0  0  0  0  0  0  0  0
  147.6989  137.2567  160.6150 O   0  0  0  0  0  0  0  0  0  0  0  0
  147.4284  134.9775  161.3480 C   0  0  0  0  0  0  0  0  0  0  0  0
  147.3144  135.5474  162.7682 C   0  0  0  0  0  0  0  0  0  0  0  0
  145.1897  143.7061  156.2182 H   0  0  0  0  0  0  0  0  0  0  0  0
  146.3843  143.5262  157.4976 H   0  0  0  0  0  0  0  0  0  0  0  0
  144.6839  143.1712  157.8161 H   0  0  0  0  0  0  0  0  0  0  0  0
  144.7914  141.2467  156.1838 H   0  0  0  0  0  0  0  0  0  0  0  0
  146.4788  141.5958  155.8769 H   0  0  0  0  0  0  0  0  0  0  0  0
  147.7458  138.8824  158.7140 H   0  0  0  0  0  0  0  0  0  0  0  0
  146.1306  138.2788  159.0681 H   0  0  0  0  0  0  0  0  0  0  0  0
  146.2682  136.5652  157.4491 H   0  0  0  0  0  0  0  0  0  0  0  0
  148.3005  136.2472  154.7175 H   0  0  0  0  0  0  0  0  0  0  0  0
  148.9210  139.3693  156.1552 H   0  0  0  0  0  0  0  0  0  0  0  0
  149.8482  135.3425  156.8365 H   0  0  0  0  0  0  0  0  0  0  0  0
  149.1160  137.1252  158.3379 H   0  0  0  0  0  0  0  0  0  0  0  0
  146.5039  134.4666  161.0778 H   0  0  0  0  0  0  0  0  0  0  0  0
  148.2247  134.2341  161.3059 H   0  0  0  0  0  0  0  0  0  0  0  0
  147.0718  134.7581  163.4798 H   0  0  0  0  0  0  0  0  0  0  0  0
  146.5299  136.3022  162.8315 H   0  0  0  0  0  0  0  0  0  0  0  0
  148.2494  136.0060  163.0916 H   0  0  0  0  0  0  0  0  0  0  0  0
  1  2  1  0  0  0  0
  1 27  1  0  0  0  0
  1 28  1  0  0  0  0
  1 29  1  0  0  0  0
  2  3  1  0  0  0  0
  2 30  1  0  0  0  0
  2 31  1  0  0  0  0
  3  4  2  0  0  0  0
  3  5  1  0  0  0  0
  5  6  1  0  0  0  0
  6  7  1  0  0  0  0
  6 32  1  0  0  0  0
  6 33  1  0  0  0  0
  7 21  1  0  0  0  0
  7  8  1  0  0  0  0
  7 34  1  0  0  0  0
  8  9  1  0  0  0  0
  9 10  1  0  0  0  0
  9 19  1  0  0  0  0
  9 35  1  0  0  0  0
 10 17  1  0  0  0  0
 10 11  1  0  0  0  0
 11 12  2  0  0  0  0
 11 36  1  0  0  0  0
 12 13  1  0  0  0  0
 12 14  1  0  0  0  0
 14 15  2  0  0  0  0
 14 16  1  0  0  0  0
 16 17  1  0  0  0  0
 17 18  2  0  0  0  0
 19 20  1  0  0  0  0
 19 21  1  0  0  0  0
 19 37  1  0  0  0  0
 21 22  1  0  0  0  0
 21 38  1  0  0  0  0
 22 23  1  0  0  0  0
 23 24  2  0  0  0  0
 23 25  1  0  0  0  0
 25 26  1  0  0  0  0
 25 39  1  0  0  0  0
 25 40  1  0  0  0  0
 26 41  1  0  0  0  0
 26 42  1  0  0  0  0
 26 43  1  0  0  0  0
M  CHG  1  16  -1
M  END
> <s_m_source_file>
AV-unprocessed.smi

> <i_m_source_file_index>
37

> <i_lp_mmshare_version>
43012

> <i_f3d_flags>
0

> <s_epik_input>
W0NIM11bQ0gyXUMoPU8pT1tDSDJdW0NAQEhdMU9bQ0BASF0objJbY0hdYyhGKWMoPU8pW25IXWMyPU8pW0NAQEhdKEJyKVtDQEhdMU9DKD1PKVtDSDJdW0NIM10=

> <s_epik_cmdline>
J2VwaWtfcHl0aG9uJywgJy1waCcsICc3LjAnLCAnLXRuJywgJzgnLCAnLW1hJywgJzIwMCcsICctbWV0YWxfYmluZGluZycsICctaW1hZScsICc8aW5maWxlLm1hZT4nLCAnLW9tYWUnLCAnPG91dGZpbGUubWFlPic=

> <r_epik_Ionization_Penalty>
1.08158

> <r_epik_Ionization_Penalty_Charging>
9.05154e-09

> <r_epik_Ionization_Penalty_Neutral>
1.08158

> <r_epik_State_Penalty>
1.13706

> <r_epik_Charging_Adjusted_Penalty>
1.13706

> <i_epik_Tot_Q>
-1

> <i_epik_Tot_abs_Q>
1

> <r_epik_Metal_State_Penalty>
0.00343535

> <b_epik_Metal_Only>
0

> <s_epik_Chemistry_Notes>
This compound has an ester and may undergo hydrolysis at high or low pH. This compound contains an acetal/aminal-like group ( X-CH(R)-Y where X, Y are N, S, or O) that may be acid/base labile, releasing an aldehyde.

> <s_lp_Force_Field>
OPLS_2005

> <r_lp_Energy>
34.595

> <b_lp_Chiralities_Consistent>
1

> <s_lp_Variant>
AV-unprocessed.smi:37-30

> <Gold.Version>
5.8.1

> <Gold.Id.Protein>
6NUR|6NUR_protein|mol2

> <Gold.PLP.Fitness>
41.7412

> <Gold.PLP.PLP>
-31.3540

> <Gold.PLP.part.hbond>
-7.0000

> <Gold.PLP.part.metal>
0.0000

> <Gold.PLP.part.buried>
-3.0973

> <Gold.PLP.part.nonpolar>
-22.0047

> <Gold.PLP.part.repulsive>
0.3066

> <Gold.PLP.ligand.clash>
0.0000

> <Gold.PLP.ligand.torsion>
0.6804

> <Gold.PLP.Chemscore.Hbond>
3.8582

> <Gold.PLP.Chemscore.CHOScore>
0.0000

> <Gold.PLP.Chemscore.Metal>
0.0000

> <Gold.Chemscore.Hbonds>
donor molecule, donor type, donor heavy atom, donor atom, acceptor molecule, acceptor atom, score
      P1  H  6931  6943       L1    24  0.62
      P1  H  6934  6946       L1     4  0.58
      P1  H  6934  6947       L1    24  0.91
      P1  H  7989  7998       L1    15  0.03
      P1  H  7997  8009       L1    15  1.00
      P1  H 10752 10763       L1    18  0.65

> <Gold.PLP.Chemscore.Internal.Correction>
0.1733

> <Gold.Rescore>
     Score         DG    S(hbond)    S(metal)    S(lipo)     H(rot)  DE(clash)    DE(int)     intcor
      9.61     -12.35       3.31        0.00      35.66       3.27       0.61       2.13       ----

> <Gold.Chemscore.Fitness>
9.6140

> <Gold.Chemscore.DG>
-12.3506

> <Gold.Chemscore.ZeroCoef>
-5.4800

> <Gold.Chemscore.Hbond>
3.3119

> <Gold.Chemscore.Metal>
0.0000

> <Gold.Chemscore.Lipo>
35.6602

> <Gold.Chemscore.Internal_Hbond>
0.0000

> <Gold.Chemscore.DEClash>
0.6066

> <Gold.Chemscore.DEInternal>
2.1300

> <Gold.Chemscore.Rot>
3.2669

> <Gold.Chemscore.Internal.Correction>
   9.000000E+99

> <Gold.Chemscore.Hbonds>
donor molecule, donor type, donor heavy atom, donor atom, acceptor molecule, acceptor atom, score
      P1  H  6931  6943       L1    24  0.61
      P1  H  6934  6946       L1     4  0.56
      P1  H  6934  6947       L1    24  0.90
      P1  H  7997  8009       L1    15  1.00
      P1  H 10752 10763       L1    18  0.05

> <Gold.Chemscore.Hbond.Weighted>
-11.0617

> <Gold.Chemscore.Metal.Weighted>
-0.0000

> <Gold.Chemscore.Lipo.Weighted>
-4.1722

> <Gold.Chemscore.Internal_Hbond.Weighted>
0.0000

> <Gold.Chemscore.DEClash.Weighted>
0.6066

> <Gold.Chemscore.DEInternal.Weighted>
2.1300

> <Gold.Chemscore.Rot.Weighted>
8.3634

> <Gold.Chemscore.Internal.Correction.Weighted>
   9.000000E+99

> <Gold.Protein.RotatedTorsions>
[ 6907 6896 6895 6894 ] final  147.36 input  -60.11 | X-H torsion
[ 7974 7965 7964 7962 ] final   98.42 input  175.53 | X-H torsion
[ 8008 7997 7996 7995 ] final -122.32 input   59.86 | X-H torsion
[ 10167 10162 10161 10158 ] final   74.73 input  -65.29 | X-H torsion
[ 10718 10713 10712 10709 ] final   14.96 input   66.30 | X-H torsion
[ 10763 10752 10751 10750 ] final   52.99 input  -60.55 | X-H torsion
[ 11005 11000 10999 10996 ] final  -94.04 input  -57.11 | X-H torsion

> <Gold.Protein.ActiveResidues>
 VAL166  LYS551  ARG553  GLY616  TRP617  ASP618  TYR619  PRO620  LYS621  CYS622 
 ASP623  PHE694  ASN695  SER759  ASP760  ASP761  ALA762  ILE779  LEU786  VAL792 
 PHE793  MET794  SER795  GLU796  ALA797  LYS798  CYS799  TRP800  GLU811  SER814 

> <Gold.Protein.RotatedAtoms>
  152.1558  133.4550  159.4835 H   0  0  0  0  0  0  0  0  0  0  0  0  # atno 6907 bound_to 6896
  150.6901  134.2133  159.4377 H   0  0  0  0  0  0  0  0  0  0  0  0  # atno 6908 bound_to 6896
  152.0033  134.9916  160.0616 H   0  0  0  0  0  0  0  0  0  0  0  0  # atno 6909 bound_to 6896
  145.4124  139.2332  143.3241 H   0  0  0  0  0  0  0  0  0  0  0  0  # atno 7974 bound_to 7965
  155.1624  140.0406  157.2845 H   0  0  0  0  0  0  0  0  0  0  0  0  # atno 8008 bound_to 7997
  154.6327  140.2528  155.7388 H   0  0  0  0  0  0  0  0  0  0  0  0  # atno 8009 bound_to 7997
  156.2493  140.2872  156.0686 H   0  0  0  0  0  0  0  0  0  0  0  0  # atno 8010 bound_to 7997
  140.0106  144.5617  150.7662 H   0  0  0  0  0  0  0  0  0  0  0  0  # atno 10167 bound_to 10162
  157.0466  130.6253  149.5760 H   0  0  0  0  0  0  0  0  0  0  0  0  # atno 10718 bound_to 10713
  152.9792  135.5794  154.4668 H   0  0  0  0  0  0  0  0  0  0  0  0  # atno 10763 bound_to 10752
  154.4236  135.2772  155.1961 H   0  0  0  0  0  0  0  0  0  0  0  0  # atno 10764 bound_to 10752
  154.3699  135.6170  153.5788 H   0  0  0  0  0  0  0  0  0  0  0  0  # atno 10765 bound_to 10752
  141.1481  133.7928  157.0242 H   0  0  0  0  0  0  0  0  0  0  0  0  # atno 11005 bound_to 11000
  146.2698  140.4837  142.8819 LP  0  0  0  0  0  0  0  0  0  0  0  0  # atno 17320 bound_to 7965
  144.8300  140.6692  143.6297 LP  0  0  0  0  0  0  0  0  0  0  0  0  # atno 17321 bound_to 7965
  140.7383  143.2776  151.3694 LP  0  0  0  0  0  0  0  0  0  0  0  0  # atno 17342 bound_to 10162
  139.6208  144.0911  152.2389 LP  0  0  0  0  0  0  0  0  0  0  0  0  # atno 17343 bound_to 10162
  156.0021  130.5102  150.7700 LP  0  0  0  0  0  0  0  0  0  0  0  0  # atno 17370 bound_to 10713
  157.5063  131.0922  151.0253 LP  0  0  0  0  0  0  0  0  0  0  0  0  # atno 17371 bound_to 10713
  140.0795  134.9656  157.1602 LP  0  0  0  0  0  0  0  0  0  0  0  0  # atno 17394 bound_to 11000
  140.3596  134.2509  155.7188 LP  0  0  0  0  0  0  0  0  0  0  0  0  # atno 17395 bound_to 11000

$$$$
