AV-unprocessed.smi:1843|AV-procd|sdf|7504|dock10
  -GOLD-   22720 9213D 1   1.00000     0.00000
 Structure written by MMmdl.
 36 38  0  0  0  0  0  0  0  0  2 V2000
  150.5392  140.7387  156.8841 O   0  0  0  0  0  0  0  0  0  0  0  0
  151.7237  140.5147  157.1445 C   0  0  0  0  0  0  0  0  0  0  0  0
  152.5032  139.5671  156.5756 N   0  5  0  0  0  0  0  0  0  0  0  0
  151.9531  138.4302  156.1180 C   0  0  0  0  0  0  0  0  0  0  0  0
  152.3685  137.8341  154.9915 N   0  0  0  0  0  0  0  0  0  0  0  0
  151.6697  136.6716  154.7012 N   0  0  0  0  0  0  0  0  0  0  0  0
  150.7390  136.4005  155.6192 C   0  0  0  0  0  0  0  0  0  0  0  0
  149.8535  135.2028  155.5291 C   0  0  0  0  0  0  0  0  0  0  0  0
  150.4145  133.8126  155.7200 C   0  0  0  0  0  0  0  0  0  0  0  0
  149.9303  134.2453  154.3598 C   0  0  0  0  0  0  0  0  0  0  0  0
  150.6510  137.5637  156.9325 S   0  0  0  0  0  0  0  0  0  0  0  0
  152.3560  141.2475  158.0721 N   0  0  0  0  0  0  0  0  0  0  0  0
  151.7711  142.3307  158.8609 C   0  0  2  0  0  0  0  0  0  0  0  0
  151.3108  143.4567  157.9079 C   0  0  0  0  0  0  0  0  0  0  0  0
  150.8251  144.6997  158.6673 C   0  0  0  0  0  0  0  0  0  0  0  0
  151.9092  145.2168  159.6217 C   0  0  0  0  0  0  0  0  0  0  0  0
  152.3321  144.1177  160.6052 C   0  0  0  0  0  0  0  0  0  0  0  0
  152.8182  142.8520  159.8731 C   0  0  1  0  0  0  0  0  0  0  0  0
  153.0654  141.8647  160.8545 O   0  0  0  0  0  0  0  0  0  0  0  0
  148.8719  135.4188  155.9462 H   0  0  0  0  0  0  0  0  0  0  0  0
  151.4892  133.7162  155.8620 H   0  0  0  0  0  0  0  0  0  0  0  0
  149.8051  133.0975  156.2688 H   0  0  0  0  0  0  0  0  0  0  0  0
  148.9969  133.8179  153.9997 H   0  0  0  0  0  0  0  0  0  0  0  0
  150.6854  134.4235  153.5969 H   0  0  0  0  0  0  0  0  0  0  0  0
  153.3234  141.0251  158.2549 H   0  0  0  0  0  0  0  0  0  0  0  0
  150.9041  141.9626  159.4133 H   0  0  0  0  0  0  0  0  0  0  0  0
  152.1351  143.7418  157.2523 H   0  0  0  0  0  0  0  0  0  0  0  0
  150.5142  143.0947  157.2569 H   0  0  0  0  0  0  0  0  0  0  0  0
  150.5472  145.4817  157.9604 H   0  0  0  0  0  0  0  0  0  0  0  0
  149.9235  144.4561  159.2309 H   0  0  0  0  0  0  0  0  0  0  0  0
  152.7748  145.5543  159.0501 H   0  0  0  0  0  0  0  0  0  0  0  0
  151.5403  146.0846  160.1694 H   0  0  0  0  0  0  0  0  0  0  0  0
  153.1174  144.4943  161.2618 H   0  0  0  0  0  0  0  0  0  0  0  0
  151.4853  143.8708  161.2475 H   0  0  0  0  0  0  0  0  0  0  0  0
  153.7545  143.0743  159.3588 H   0  0  0  0  0  0  0  0  0  0  0  0
  152.5553  141.0981  160.6425 H   0  0  0  0  0  0  0  0  0  0  0  0
  1  2  2  0  0  0  0
  2  3  1  0  0  0  0
  2 12  1  0  0  0  0
  3  4  1  0  0  0  0
  4 11  1  0  0  0  0
  4  5  2  0  0  0  0
  5  6  1  0  0  0  0
  6  7  2  0  0  0  0
  7  8  1  0  0  0  0
  7 11  1  0  0  0  0
  8 10  1  0  0  0  0
  8  9  1  0  0  0  0
  8 20  1  0  0  0  0
  9 10  1  0  0  0  0
  9 21  1  0  0  0  0
  9 22  1  0  0  0  0
 10 23  1  0  0  0  0
 10 24  1  0  0  0  0
 12 13  1  0  0  0  0
 12 25  1  0  0  0  0
 13 18  1  0  0  0  0
 13 14  1  0  0  0  0
 13 26  1  0  0  0  0
 14 15  1  0  0  0  0
 14 27  1  0  0  0  0
 14 28  1  0  0  0  0
 15 16  1  0  0  0  0
 15 29  1  0  0  0  0
 15 30  1  0  0  0  0
 16 17  1  0  0  0  0
 16 31  1  0  0  0  0
 16 32  1  0  0  0  0
 17 18  1  0  0  0  0
 17 33  1  0  0  0  0
 17 34  1  0  0  0  0
 18 19  1  0  0  0  0
 18 35  1  0  0  0  0
 19 36  1  0  0  0  0
M  CHG  1   3  -1
M  END
> <s_m_source_file>
AV-unprocessed.smi

> <i_m_source_file_index>
1843

> <i_lp_mmshare_version>
43012

> <i_f3d_flags>
0

> <s_epik_input>
W09IXVtDQEBIXTFbQ0gyXVtDSDJdW0NIMl1bQ0gyXVtDQEhdMVtOSF1DKD1PKVtOSF1jMm5uYyhzMilbQ0hdM1tDSDJdW0NIMl0z

> <s_epik_cmdline>
J2VwaWtfcHl0aG9uJywgJy1waCcsICc3LjAnLCAnLXRuJywgJzgnLCAnLW1hJywgJzIwMCcsICctbWV0YWxfYmluZGluZycsICctaW1hZScsICc8aW5maWxlLm1hZT4nLCAnLW9tYWUnLCAnPG91dGZpbGUubWFlPic=

> <r_lp_tautomer_probability>
1

> <r_epik_Ionization_Penalty>
4.7996

> <r_epik_Ionization_Penalty_Charging>
4.64516

> <r_epik_Ionization_Penalty_Neutral>
0.154442

> <r_epik_State_Penalty>
4.64493

> <r_epik_Charging_Adjusted_Penalty>
9.29009

> <i_epik_Tot_Q>
-1

> <i_epik_Tot_abs_Q>
1

> <r_epik_Metal_State_Penalty>
0.896144

> <b_epik_Metal_Only>
1

> <s_lp_Force_Field>
OPLS_2005

> <r_lp_Energy>
6.98885

> <b_lp_Chiralities_Consistent>
1

> <s_lp_Variant>
AV-unprocessed.smi:1843-5

> <Gold.Version>
5.8.1

> <Gold.Id.Protein>
6NUR|6NUR_protein|mol2

> <Gold.PLP.Fitness>
42.3949

> <Gold.PLP.PLP>
-34.5115

> <Gold.PLP.part.hbond>
-2.8737

> <Gold.PLP.part.metal>
0.0000

> <Gold.PLP.part.buried>
-6.3419

> <Gold.PLP.part.nonpolar>
-25.7737

> <Gold.PLP.part.repulsive>
0.3069

> <Gold.PLP.ligand.clash>
0.0000

> <Gold.PLP.ligand.torsion>
0.5662

> <Gold.PLP.Chemscore.Hbond>
2.9600

> <Gold.PLP.Chemscore.CHOScore>
0.0000

> <Gold.PLP.Chemscore.Metal>
0.0000

> <Gold.Chemscore.Hbonds>
donor molecule, donor type, donor heavy atom, donor atom, acceptor molecule, acceptor atom, score
      P1  H  7997  8010       L1     3  2.00
      P1  H 10752 10764       L1     6  0.91

> <Gold.PLP.Chemscore.Internal.Correction>
0.1358

> <Gold.Rescore>
     Score         DG    S(hbond)    S(metal)    S(lipo)     H(rot)  DE(clash)    DE(int)     intcor
     15.69     -17.13       1.63        0.00      90.46       1.72       0.05       1.39       ----

> <Gold.Chemscore.Fitness>
15.6876

> <Gold.Chemscore.DG>
-17.1278

> <Gold.Chemscore.ZeroCoef>
-5.4800

> <Gold.Chemscore.Hbond>
1.6338

> <Gold.Chemscore.Metal>
0.0000

> <Gold.Chemscore.Lipo>
90.4594

> <Gold.Chemscore.Internal_Hbond>
0.0000

> <Gold.Chemscore.DEClash>
0.0462

> <Gold.Chemscore.DEInternal>
1.3939

> <Gold.Chemscore.Rot>
1.7160

> <Gold.Chemscore.Internal.Correction>
   9.000000E+99

> <Gold.Chemscore.Hbonds>
donor molecule, donor type, donor heavy atom, donor atom, acceptor molecule, acceptor atom, score
      P1  H  7997  8010       L1     3  0.82
      P1  H 10752 10764       L1     6  0.20

> <Gold.Chemscore.Hbond.Weighted>
-5.4570

> <Gold.Chemscore.Metal.Weighted>
-0.0000

> <Gold.Chemscore.Lipo.Weighted>
-10.5838

> <Gold.Chemscore.Internal_Hbond.Weighted>
0.0000

> <Gold.Chemscore.DEClash.Weighted>
0.0462

> <Gold.Chemscore.DEInternal.Weighted>
1.3939

> <Gold.Chemscore.Rot.Weighted>
4.3930

> <Gold.Chemscore.Internal.Correction.Weighted>
   9.000000E+99

> <Gold.Protein.RotatedTorsions>
[ 6907 6896 6895 6894 ] final   92.26 input  -60.11 | X-H torsion
[ 7974 7965 7964 7962 ] final -123.80 input  175.53 | X-H torsion
[ 8008 7997 7996 7995 ] final   66.81 input   59.86 | X-H torsion
[ 10167 10162 10161 10158 ] final  -16.81 input  -65.29 | X-H torsion
[ 10718 10713 10712 10709 ] final  172.27 input   66.30 | X-H torsion
[ 10763 10752 10751 10750 ] final  -87.40 input  -60.55 | X-H torsion
[ 11005 11000 10999 10996 ] final  103.30 input  -57.11 | X-H torsion

> <Gold.Protein.ActiveResidues>
 VAL166  LYS551  ARG553  GLY616  TRP617  ASP618  TYR619  PRO620  LYS621  CYS622 
 ASP623  PHE694  ASN695  SER759  ASP760  ASP761  ALA762  ILE779  LEU786  VAL792 
 PHE793  MET794  SER795  GLU796  ALA797  LYS798  CYS799  TRP800  GLU811  SER814 

> <Gold.Protein.RotatedAtoms>
  152.5452  134.1529  159.8525 H   0  0  0  0  0  0  0  0  0  0  0  0  # atno 6907 bound_to 6896
  151.1554  133.4872  159.2602 H   0  0  0  0  0  0  0  0  0  0  0  0  # atno 6908 bound_to 6896
  151.1428  135.0199  159.8688 H   0  0  0  0  0  0  0  0  0  0  0  0  # atno 6909 bound_to 6896
  145.0148  140.7937  143.4416 H   0  0  0  0  0  0  0  0  0  0  0  0  # atno 7974 bound_to 7965
  155.6832  140.3496  155.4863 H   0  0  0  0  0  0  0  0  0  0  0  0  # atno 8008 bound_to 7997
  155.9589  140.1133  157.0935 H   0  0  0  0  0  0  0  0  0  0  0  0  # atno 8009 bound_to 7997
  154.4138  140.1179  156.5138 H   0  0  0  0  0  0  0  0  0  0  0  0  # atno 8010 bound_to 7997
  140.7239  143.5078  150.9787 H   0  0  0  0  0  0  0  0  0  0  0  0  # atno 10167 bound_to 10162
  156.9814  131.0120  151.2880 H   0  0  0  0  0  0  0  0  0  0  0  0  # atno 10718 bound_to 10713
  154.6332  135.5414  153.7704 H   0  0  0  0  0  0  0  0  0  0  0  0  # atno 10763 bound_to 10752
  153.0295  135.6441  154.1270 H   0  0  0  0  0  0  0  0  0  0  0  0  # atno 10764 bound_to 10752
  154.1199  135.2921  155.3191 H   0  0  0  0  0  0  0  0  0  0  0  0  # atno 10765 bound_to 10752
  139.8783  134.9258  156.5189 H   0  0  0  0  0  0  0  0  0  0  0  0  # atno 11005 bound_to 11000
  145.1974  139.2269  143.5211 LP  0  0  0  0  0  0  0  0  0  0  0  0  # atno 17320 bound_to 7965
  146.3476  140.1784  142.8589 LP  0  0  0  0  0  0  0  0  0  0  0  0  # atno 17321 bound_to 7965
  139.8791  143.7095  152.3159 LP  0  0  0  0  0  0  0  0  0  0  0  0  # atno 17342 bound_to 10162
  139.7371  144.7568  151.0711 LP  0  0  0  0  0  0  0  0  0  0  0  0  # atno 17343 bound_to 10162
  157.5523  130.8190  149.8161 LP  0  0  0  0  0  0  0  0  0  0  0  0  # atno 17370 bound_to 10713
  156.0243  130.3785  150.1870 LP  0  0  0  0  0  0  0  0  0  0  0  0  # atno 17371 bound_to 10713
  140.8465  133.8165  155.9126 LP  0  0  0  0  0  0  0  0  0  0  0  0  # atno 17394 bound_to 11000
  140.9186  134.2170  157.4941 LP  0  0  0  0  0  0  0  0  0  0  0  0  # atno 17395 bound_to 11000

$$$$
