AV-unprocessed.smi:2037|AV-procd|sdf|8276|dock4
  -GOLD-   2272010543D 1   1.00000     0.00000
 Structure written by MMmdl.
 39 40  0  0  0  0  0  0  0  0  2 V2000
  149.4884  140.6729  154.5089 C   0  0  0  0  0  0  0  0  0  0  0  0
  149.8443  139.2637  155.0027 C   0  0  2  0  0  0  0  0  0  0  0  0
  151.0542  138.6848  154.2510 C   0  0  0  0  0  0  0  0  0  0  0  0
  151.3824  137.2618  154.7335 C   0  0  0  0  0  0  0  0  0  0  0  0
  150.2092  136.3609  154.5926 N   0  3  1  0  0  0  0  0  0  0  0  0
  150.5395  134.9544  154.9330 C   0  0  0  0  0  0  0  0  0  0  0  0
  149.3182  134.0205  154.8232 C   0  0  0  0  0  0  0  0  0  0  0  0
  148.5971  134.2258  153.5723 N   0  0  0  0  0  0  0  0  0  0  0  0
  147.5436  133.5000  153.1702 C   0  0  0  0  0  0  0  0  0  0  0  0
  147.0773  132.5676  153.8258 O   0  0  0  0  0  0  0  0  0  0  0  0
  147.0824  133.9230  151.9802 N   0  0  0  0  0  0  0  0  0  0  0  0
  145.9989  133.4022  151.2245 C   0  0  0  0  0  0  0  0  0  0  0  0
  145.8107  132.1012  150.9737 N   0  0  0  0  0  0  0  0  0  0  0  0
  144.6660  131.8761  150.2047 C   0  0  0  0  0  0  0  0  0  0  0  0
  143.9908  133.0254  149.8757 C   0  0  0  0  0  0  0  0  0  0  0  0
  144.7704  134.4445  150.5223 S   0  0  0  0  0  0  0  0  0  0  0  0
  149.0326  136.8814  155.3394 C   0  0  0  0  0  0  0  0  0  0  0  0
  148.6566  138.2961  154.8678 C   0  0  0  0  0  0  0  0  0  0  0  0
  149.2196  140.6680  153.4521 H   0  0  0  0  0  0  0  0  0  0  0  0
  150.3284  141.3567  154.6352 H   0  0  0  0  0  0  0  0  0  0  0  0
  148.6445  141.0821  155.0651 H   0  0  0  0  0  0  0  0  0  0  0  0
  150.1046  139.3382  156.0597 H   0  0  0  0  0  0  0  0  0  0  0  0
  150.8517  138.6684  153.1789 H   0  0  0  0  0  0  0  0  0  0  0  0
  151.9235  139.3284  154.3907 H   0  0  0  0  0  0  0  0  0  0  0  0
  152.2187  136.8739  154.1505 H   0  0  0  0  0  0  0  0  0  0  0  0
  151.7044  137.2816  155.7761 H   0  0  0  0  0  0  0  0  0  0  0  0
  151.3042  134.5867  154.2473 H   0  0  0  0  0  0  0  0  0  0  0  0
  150.9797  134.9168  155.9308 H   0  0  0  0  0  0  0  0  0  0  0  0
  149.6057  132.9715  154.8981 H   0  0  0  0  0  0  0  0  0  0  0  0
  148.6293  134.2124  155.6464 H   0  0  0  0  0  0  0  0  0  0  0  0
  148.9165  134.9759  152.9763 H   0  0  0  0  0  0  0  0  0  0  0  0
  147.5619  134.7074  151.5636 H   0  0  0  0  0  0  0  0  0  0  0  0
  144.4050  130.8632  149.9357 H   0  0  0  0  0  0  0  0  0  0  0  0
  143.0860  133.1227  149.2944 H   0  0  0  0  0  0  0  0  0  0  0  0
  148.1732  136.2262  155.2021 H   0  0  0  0  0  0  0  0  0  0  0  0
  149.2528  136.8898  156.4082 H   0  0  0  0  0  0  0  0  0  0  0  0
  147.8091  138.6621  155.4486 H   0  0  0  0  0  0  0  0  0  0  0  0
  148.3246  138.2575  153.8292 H   0  0  0  0  0  0  0  0  0  0  0  0
  149.9650  136.3685  153.6126 H   0  0  0  0  0  0  0  0  0  0  0  0
  1  2  1  0  0  0  0
  1 19  1  0  0  0  0
  1 20  1  0  0  0  0
  1 21  1  0  0  0  0
  2 18  1  0  0  0  0
  2  3  1  0  0  0  0
  2 22  1  0  0  0  0
  3  4  1  0  0  0  0
  3 23  1  0  0  0  0
  3 24  1  0  0  0  0
  4  5  1  0  0  0  0
  4 25  1  0  0  0  0
  4 26  1  0  0  0  0
  5  6  1  0  0  0  0
  5 17  1  0  0  0  0
  5 39  1  0  0  0  0
  6  7  1  0  0  0  0
  6 27  1  0  0  0  0
  6 28  1  0  0  0  0
  7  8  1  0  0  0  0
  7 29  1  0  0  0  0
  7 30  1  0  0  0  0
  8  9  1  0  0  0  0
  8 31  1  0  0  0  0
  9 10  2  0  0  0  0
  9 11  1  0  0  0  0
 11 12  1  0  0  0  0
 11 32  1  0  0  0  0
 12 16  1  0  0  0  0
 12 13  2  0  0  0  0
 13 14  1  0  0  0  0
 14 15  2  0  0  0  0
 14 33  1  0  0  0  0
 15 16  1  0  0  0  0
 15 34  1  0  0  0  0
 17 18  1  0  0  0  0
 17 35  1  0  0  0  0
 17 36  1  0  0  0  0
 18 37  1  0  0  0  0
 18 38  1  0  0  0  0
M  CHG  1   5   1
M  END
> <s_m_source_file>
AV-unprocessed.smi

> <i_m_source_file_index>
2037

> <i_lp_mmshare_version>
43012

> <i_f3d_flags>
0

> <s_epik_input>
W0NIM11bQ0hdMVtDSDJdW0NIMl1OKFtDSDJdW0NIMl0xKVtDSDJdW0NIMl1bTkhdQyg9TylbTkhdYzJuW2NIXVtjSF1zMg==

> <s_epik_cmdline>
J2VwaWtfcHl0aG9uJywgJy1waCcsICc3LjAnLCAnLXRuJywgJzgnLCAnLW1hJywgJzIwMCcsICctbWV0YWxfYmluZGluZycsICctaW1hZScsICc8aW5maWxlLm1hZT4nLCAnLW9tYWUnLCAnPG91dGZpbGUubWFlPic=

> <r_lp_tautomer_probability>
0.999

> <r_epik_Ionization_Penalty>
0.00182893

> <r_epik_Ionization_Penalty_Charging>
0.00168873

> <r_epik_Ionization_Penalty_Neutral>
0.000140204

> <r_epik_State_Penalty>
0.00114045

> <r_epik_Charging_Adjusted_Penalty>
0.00282917

> <i_epik_Tot_Q>
1

> <i_epik_Tot_abs_Q>
1

> <r_epik_Metal_State_Penalty>
0.0569426

> <b_epik_Metal_Only>
0

> <s_lp_Force_Field>
OPLS_2005

> <r_lp_Energy>
13.393

> <b_lp_Chiralities_Consistent>
1

> <s_lp_Variant>
AV-unprocessed.smi:2037-1

> <Gold.Version>
5.8.1

> <Gold.Id.Protein>
6NUR|6NUR_protein|mol2

> <Gold.PLP.Fitness>
45.6401

> <Gold.PLP.PLP>
-31.7294

> <Gold.PLP.part.hbond>
-3.0000

> <Gold.PLP.part.metal>
0.0000

> <Gold.PLP.part.buried>
-4.5766

> <Gold.PLP.part.nonpolar>
-25.3901

> <Gold.PLP.part.repulsive>
0.2831

> <Gold.PLP.ligand.clash>
0.0000

> <Gold.PLP.ligand.torsion>
0.4719

> <Gold.PLP.Chemscore.Hbond>
3.9440

> <Gold.PLP.Chemscore.CHOScore>
1.0000

> <Gold.PLP.Chemscore.Metal>
0.0000

> <Gold.Chemscore.Hbonds>
donor molecule, donor type, donor heavy atom, donor atom, acceptor molecule, acceptor atom, score
      L1  H     5    39       P1  7948  1.70
      L1  H     8    31       P1  7948  0.85
      L1  H    11    32       P1  7948  0.93
      L1  C    15    34       P1 10186  1.00

> <Gold.PLP.Chemscore.Internal.Correction>
0.0225

> <Gold.Rescore>
     Score         DG    S(hbond)    S(metal)    S(lipo)     H(rot)  DE(clash)    DE(int)     intcor
     15.33     -15.82       2.15        0.00      62.13       1.60       0.08       0.42       ----

> <Gold.Chemscore.Fitness>
15.3278

> <Gold.Chemscore.DG>
-15.8199

> <Gold.Chemscore.ZeroCoef>
-5.4800

> <Gold.Chemscore.Hbond>
2.1458

> <Gold.Chemscore.Metal>
0.0000

> <Gold.Chemscore.Lipo>
62.1307

> <Gold.Chemscore.Internal_Hbond>
0.0000

> <Gold.Chemscore.DEClash>
0.0765

> <Gold.Chemscore.DEInternal>
0.4157

> <Gold.Chemscore.Rot>
1.6001

> <Gold.Chemscore.Internal.Correction>
   9.000000E+99

> <Gold.Chemscore.Hbonds>
donor molecule, donor type, donor heavy atom, donor atom, acceptor molecule, acceptor atom, score
      L1  H     5    39       P1  7948  0.14
      L1  H     8    31       P1  7948  0.15
      L1  H    11    32       P1  7948  0.29

> <Gold.Chemscore.Hbond.Weighted>
-7.1669

> <Gold.Chemscore.Metal.Weighted>
-0.0000

> <Gold.Chemscore.Lipo.Weighted>
-7.2693

> <Gold.Chemscore.Internal_Hbond.Weighted>
0.0000

> <Gold.Chemscore.DEClash.Weighted>
0.0765

> <Gold.Chemscore.DEInternal.Weighted>
0.4157

> <Gold.Chemscore.Rot.Weighted>
4.0963

> <Gold.Chemscore.Internal.Correction.Weighted>
   9.000000E+99

> <Gold.Protein.RotatedTorsions>
[ 6907 6896 6895 6894 ] final  -52.61 input  -60.11 | X-H torsion
[ 7974 7965 7964 7962 ] final   62.28 input  175.53 | X-H torsion
[ 8008 7997 7996 7995 ] final  -68.38 input   59.86 | X-H torsion
[ 10167 10162 10161 10158 ] final  -47.04 input  -65.29 | X-H torsion
[ 10718 10713 10712 10709 ] final  155.43 input   66.30 | X-H torsion
[ 10763 10752 10751 10750 ] final   26.16 input  -60.55 | X-H torsion
[ 11005 11000 10999 10996 ] final  -91.99 input  -57.11 | X-H torsion

> <Gold.Protein.ActiveResidues>
 VAL166  LYS551  ARG553  GLY616  TRP617  ASP618  TYR619  PRO620  LYS621  CYS622 
 ASP623  PHE694  ASN695  SER759  ASP760  ASP761  ALA762  ILE779  LEU786  VAL792 
 PHE793  MET794  SER795  GLU796  ALA797  LYS798  CYS799  TRP800  GLU811  SER814 

> <Gold.Protein.RotatedAtoms>
  150.8502  134.7824  159.7002 H   0  0  0  0  0  0  0  0  0  0  0  0  # atno 6907 bound_to 6896
  152.4568  134.5269  159.9809 H   0  0  0  0  0  0  0  0  0  0  0  0  # atno 6908 bound_to 6896
  151.5392  133.3397  159.2968 H   0  0  0  0  0  0  0  0  0  0  0  0  # atno 6909 bound_to 6896
  145.8752  139.3405  143.0739 H   0  0  0  0  0  0  0  0  0  0  0  0  # atno 7974 bound_to 7965
  154.4864  140.0874  156.7496 H   0  0  0  0  0  0  0  0  0  0  0  0  # atno 8008 bound_to 7997
  155.4339  140.3451  155.4264 H   0  0  0  0  0  0  0  0  0  0  0  0  # atno 8009 bound_to 7997
  156.1268  140.1489  156.9113 H   0  0  0  0  0  0  0  0  0  0  0  0  # atno 8010 bound_to 7997
  140.6792  143.2802  151.3870 H   0  0  0  0  0  0  0  0  0  0  0  0  # atno 10167 bound_to 10162
  157.2184  131.0713  151.1927 H   0  0  0  0  0  0  0  0  0  0  0  0  # atno 10718 bound_to 10713
  153.0641  135.6566  154.0394 H   0  0  0  0  0  0  0  0  0  0  0  0  # atno 10763 bound_to 10752
  154.0055  135.2933  155.3399 H   0  0  0  0  0  0  0  0  0  0  0  0  # atno 10764 bound_to 10752
  154.6992  135.5251  153.8571 H   0  0  0  0  0  0  0  0  0  0  0  0  # atno 10765 bound_to 10752
  141.1532  133.7792  156.9958 H   0  0  0  0  0  0  0  0  0  0  0  0  # atno 11005 bound_to 11000
  145.9090  140.9193  143.0464 LP  0  0  0  0  0  0  0  0  0  0  0  0  # atno 17320 bound_to 7965
  144.6726  140.1134  143.7454 LP  0  0  0  0  0  0  0  0  0  0  0  0  # atno 17321 bound_to 7965
  139.6103  144.1112  152.2292 LP  0  0  0  0  0  0  0  0  0  0  0  0  # atno 17342 bound_to 10162
  140.0524  144.5922  150.7326 LP  0  0  0  0  0  0  0  0  0  0  0  0  # atno 17343 bound_to 10162
  157.3601  130.7127  149.6496 LP  0  0  0  0  0  0  0  0  0  0  0  0  # atno 17370 bound_to 10713
  155.9684  130.4228  150.4532 LP  0  0  0  0  0  0  0  0  0  0  0  0  # atno 17371 bound_to 10713
  140.0973  134.9557  157.1869 LP  0  0  0  0  0  0  0  0  0  0  0  0  # atno 17394 bound_to 11000
  140.3365  134.2751  155.7219 LP  0  0  0  0  0  0  0  0  0  0  0  0  # atno 17395 bound_to 11000

$$$$
