AV-unprocessed.smi:2260|AV-procd|sdf|9135|dock1
  -GOLD-   2272012343D 1   1.00000     0.00000
 Structure written by MMmdl.
 42 43  0  0  0  0  0  0  0  0  1 V2000
  146.6822  142.2783  154.3039 C   0  0  0  0  0  0  0  0  0  0  0  0
  147.5615  141.0534  154.1204 C   0  0  0  0  0  0  0  0  0  0  0  0
  147.1809  139.8949  153.5713 C   0  0  0  0  0  0  0  0  0  0  0  0
  148.4769  138.7250  153.4961 S   0  0  0  0  0  0  0  0  0  0  0  0
  149.6018  139.9065  154.2581 C   0  0  0  0  0  0  0  0  0  0  0  0
  150.7834  139.6519  154.4862 O   0  0  0  0  0  0  0  0  0  0  0  0
  148.9039  141.0845  154.5190 N   0  0  0  0  0  0  0  0  0  0  0  0
  149.5434  142.2360  155.1607 C   0  0  0  0  0  0  0  0  0  0  0  0
  149.8807  141.9360  156.6284 C   0  0  0  0  0  0  0  0  0  0  0  0
  150.6143  143.0566  157.1958 N   0  0  0  0  0  0  0  0  0  0  0  0
  151.1061  142.7531  158.5365 C   0  0  1  0  0  0  0  0  0  0  0  0
  152.0214  141.5153  158.4351 C   0  0  0  0  0  0  0  0  0  0  0  0
  152.5866  141.1250  159.8069 C   0  0  0  0  0  0  0  0  0  0  0  0
  153.3222  142.3043  160.4553 C   0  0  0  0  0  0  0  0  0  0  0  0
  152.4134  143.5427  160.5491 C   0  0  0  0  0  0  0  0  0  0  0  0
  151.8173  143.9829  159.1862 C   0  0  0  0  0  0  0  0  0  0  0  0
  152.9360  144.5654  158.2883 C   0  0  0  0  0  0  0  0  0  0  0  0
  150.7910  145.1017  159.4644 C   0  0  0  0  0  0  0  0  0  0  0  0
  145.8082  142.2165  153.6550 H   0  0  0  0  0  0  0  0  0  0  0  0
  147.2107  143.1973  154.0522 H   0  0  0  0  0  0  0  0  0  0  0  0
  146.3347  142.3441  155.3350 H   0  0  0  0  0  0  0  0  0  0  0  0
  146.1985  139.6588  153.1902 H   0  0  0  0  0  0  0  0  0  0  0  0
  150.4381  142.5328  154.6131 H   0  0  0  0  0  0  0  0  0  0  0  0
  148.8761  143.0984  155.1067 H   0  0  0  0  0  0  0  0  0  0  0  0
  148.9657  141.7651  157.1965 H   0  0  0  0  0  0  0  0  0  0  0  0
  150.4848  141.0309  156.7024 H   0  0  0  0  0  0  0  0  0  0  0  0
  151.3931  143.2856  156.5948 H   0  0  0  0  0  0  0  0  0  0  0  0
  150.2680  142.4715  159.1772 H   0  0  0  0  0  0  0  0  0  0  0  0
  151.4626  140.6726  158.0257 H   0  0  0  0  0  0  0  0  0  0  0  0
  152.8419  141.6989  157.7408 H   0  0  0  0  0  0  0  0  0  0  0  0
  151.7736  140.7991  160.4571 H   0  0  0  0  0  0  0  0  0  0  0  0
  153.2614  140.2749  159.7043 H   0  0  0  0  0  0  0  0  0  0  0  0
  153.6614  142.0217  161.4522 H   0  0  0  0  0  0  0  0  0  0  0  0
  154.2219  142.5381  159.8859 H   0  0  0  0  0  0  0  0  0  0  0  0
  151.6011  143.3169  161.2417 H   0  0  0  0  0  0  0  0  0  0  0  0
  152.9681  144.3659  161.0017 H   0  0  0  0  0  0  0  0  0  0  0  0
  153.4498  145.3878  158.7872 H   0  0  0  0  0  0  0  0  0  0  0  0
  152.5376  144.9605  157.3537 H   0  0  0  0  0  0  0  0  0  0  0  0
  153.6917  143.8257  158.0286 H   0  0  0  0  0  0  0  0  0  0  0  0
  151.2476  145.9341  160.0012 H   0  0  0  0  0  0  0  0  0  0  0  0
  149.9592  144.7396  160.0692 H   0  0  0  0  0  0  0  0  0  0  0  0
  150.3738  145.5058  158.5414 H   0  0  0  0  0  0  0  0  0  0  0  0
  1  2  1  0  0  0  0
  1 19  1  0  0  0  0
  1 20  1  0  0  0  0
  1 21  1  0  0  0  0
  2  7  1  0  0  0  0
  2  3  2  0  0  0  0
  3  4  1  0  0  0  0
  3 22  1  0  0  0  0
  4  5  1  0  0  0  0
  5  6  2  0  0  0  0
  5  7  1  0  0  0  0
  7  8  1  0  0  0  0
  8  9  1  0  0  0  0
  8 23  1  0  0  0  0
  8 24  1  0  0  0  0
  9 10  1  0  0  0  0
  9 25  1  0  0  0  0
  9 26  1  0  0  0  0
 10 11  1  0  0  0  0
 10 27  1  0  0  0  0
 11 16  1  0  0  0  0
 11 12  1  0  0  0  0
 11 28  1  0  0  0  0
 12 13  1  0  0  0  0
 12 29  1  0  0  0  0
 12 30  1  0  0  0  0
 13 14  1  0  0  0  0
 13 31  1  0  0  0  0
 13 32  1  0  0  0  0
 14 15  1  0  0  0  0
 14 33  1  0  0  0  0
 14 34  1  0  0  0  0
 15 16  1  0  0  0  0
 15 35  1  0  0  0  0
 15 36  1  0  0  0  0
 16 17  1  0  0  0  0
 16 18  1  0  0  0  0
 17 37  1  0  0  0  0
 17 38  1  0  0  0  0
 17 39  1  0  0  0  0
 18 40  1  0  0  0  0
 18 41  1  0  0  0  0
 18 42  1  0  0  0  0
M  END
> <s_m_source_file>
AV-unprocessed.smi

> <i_m_source_file_index>
2260

> <i_lp_mmshare_version>
43012

> <i_f3d_flags>
0

> <s_epik_input>
W0NIM11jMVtjSF1zYyg9TyluMVtDSDJdW0NIMl1bTkhdW0NAQEhdKEMyKFtDSDNdKVtDSDNdKVtDSDJdW0NIMl1bQ0gyXVtDSDJdMg==

> <s_epik_cmdline>
J2VwaWtfcHl0aG9uJywgJy1waCcsICc3LjAnLCAnLXRuJywgJzgnLCAnLW1hJywgJzIwMCcsICctbWV0YWxfYmluZGluZycsICctaW1hZScsICc8aW5maWxlLm1hZT4nLCAnLW9tYWUnLCAnPG91dGZpbGUubWFlPic=

> <r_epik_Ionization_Penalty>
2.34504

> <r_epik_Ionization_Penalty_Charging>
4.7617e-06

> <r_epik_Ionization_Penalty_Neutral>
2.34504

> <r_epik_State_Penalty>
2.49894

> <r_epik_Charging_Adjusted_Penalty>
2.49895

> <i_epik_Tot_Q>
0

> <i_epik_Tot_abs_Q>
0

> <r_epik_Metal_State_Penalty>
2.49894

> <b_epik_Metal_Only>
0

> <s_lp_Force_Field>
OPLS_2005

> <r_lp_Energy>
26.7026

> <b_lp_Chiralities_Consistent>
1

> <s_lp_Variant>
AV-unprocessed.smi:2260-4

> <Gold.Version>
5.8.1

> <Gold.Id.Protein>
6NUR|6NUR_protein|mol2

> <Gold.PLP.Fitness>
47.5604

> <Gold.PLP.PLP>
-41.7325

> <Gold.PLP.part.hbond>
-1.9928

> <Gold.PLP.part.metal>
0.0000

> <Gold.PLP.part.buried>
0.7871

> <Gold.PLP.part.nonpolar>
-41.2639

> <Gold.PLP.part.repulsive>
0.1064

> <Gold.PLP.ligand.clash>
0.0000

> <Gold.PLP.ligand.torsion>
0.0978

> <Gold.PLP.Chemscore.Hbond>
1.0000

> <Gold.PLP.Chemscore.CHOScore>
1.0000

> <Gold.PLP.Chemscore.Metal>
0.0000

> <Gold.Chemscore.Hbonds>
donor molecule, donor type, donor heavy atom, donor atom, acceptor molecule, acceptor atom, score
      P1  H  7989  7998       L1     6  1.00
      L1  C     3    22       P1 10175  0.48

> <Gold.PLP.Chemscore.Internal.Correction>
0.0234

> <Gold.Rescore>
     Score         DG    S(hbond)    S(metal)    S(lipo)     H(rot)  DE(clash)    DE(int)     intcor
     17.53     -19.23       0.98        0.00     120.64       1.43       1.66       0.03       ----

> <Gold.Chemscore.Fitness>
17.5305

> <Gold.Chemscore.DG>
-19.2253

> <Gold.Chemscore.ZeroCoef>
-5.4800

> <Gold.Chemscore.Hbond>
0.9841

> <Gold.Chemscore.Metal>
0.0000

> <Gold.Chemscore.Lipo>
120.6433

> <Gold.Chemscore.Internal_Hbond>
0.0000

> <Gold.Chemscore.DEClash>
1.6619

> <Gold.Chemscore.DEInternal>
0.0329

> <Gold.Chemscore.Rot>
1.4285

> <Gold.Chemscore.Internal.Correction>
   9.000000E+99

> <Gold.Chemscore.Hbonds>
donor molecule, donor type, donor heavy atom, donor atom, acceptor molecule, acceptor atom, score
      P1  H  7989  7998       L1     6  0.35

> <Gold.Chemscore.Hbond.Weighted>
-3.2869

> <Gold.Chemscore.Metal.Weighted>
-0.0000

> <Gold.Chemscore.Lipo.Weighted>
-14.1153

> <Gold.Chemscore.Internal_Hbond.Weighted>
0.0000

> <Gold.Chemscore.DEClash.Weighted>
1.6619

> <Gold.Chemscore.DEInternal.Weighted>
0.0329

> <Gold.Chemscore.Rot.Weighted>
3.6569

> <Gold.Chemscore.Internal.Correction.Weighted>
   9.000000E+99

> <Gold.Protein.RotatedTorsions>
[ 6907 6896 6895 6894 ] final  177.42 input  -60.11 | X-H torsion
[ 7974 7965 7964 7962 ] final  161.83 input  175.53 | X-H torsion
[ 8008 7997 7996 7995 ] final  155.06 input   59.86 | X-H torsion
[ 10167 10162 10161 10158 ] final  172.59 input  -65.29 | X-H torsion
[ 10718 10713 10712 10709 ] final  -50.76 input   66.30 | X-H torsion
[ 10763 10752 10751 10750 ] final -122.78 input  -60.55 | X-H torsion
[ 11005 11000 10999 10996 ] final   54.47 input  -57.11 | X-H torsion

> <Gold.Protein.ActiveResidues>
 VAL166  LYS551  ARG553  GLY616  TRP617  ASP618  TYR619  PRO620  LYS621  CYS622 
 ASP623  PHE694  ASN695  SER759  ASP760  ASP761  ALA762  ILE779  LEU786  VAL792 
 PHE793  MET794  SER795  GLU796  ALA797  LYS798  CYS799  TRP800  GLU811  SER814 

> <Gold.Protein.RotatedAtoms>
  151.7043  133.3311  159.3274 H   0  0  0  0  0  0  0  0  0  0  0  0  # atno 6907 bound_to 6896
  150.7722  134.6588  159.6337 H   0  0  0  0  0  0  0  0  0  0  0  0  # atno 6908 bound_to 6896
  152.3750  134.6680  160.0215 H   0  0  0  0  0  0  0  0  0  0  0  0  # atno 6909 bound_to 6896
  144.7666  139.7954  143.6313 H   0  0  0  0  0  0  0  0  0  0  0  0  # atno 7974 bound_to 7965
  156.2498  140.1949  156.6743 H   0  0  0  0  0  0  0  0  0  0  0  0  # atno 8008 bound_to 7997
  154.6369  140.0588  156.9825 H   0  0  0  0  0  0  0  0  0  0  0  0  # atno 8009 bound_to 7997
  155.1623  140.3261  155.4411 H   0  0  0  0  0  0  0  0  0  0  0  0  # atno 8010 bound_to 7997
  139.5081  144.3356  152.0068 H   0  0  0  0  0  0  0  0  0  0  0  0  # atno 10167 bound_to 10162
  156.1771  130.4150  149.9561 H   0  0  0  0  0  0  0  0  0  0  0  0  # atno 10718 bound_to 10713
  154.8696  135.4121  154.2837 H   0  0  0  0  0  0  0  0  0  0  0  0  # atno 10763 bound_to 10752
  153.3725  135.7008  153.6632 H   0  0  0  0  0  0  0  0  0  0  0  0  # atno 10764 bound_to 10752
  153.5488  135.3633  155.2722 H   0  0  0  0  0  0  0  0  0  0  0  0  # atno 10765 bound_to 10752
  140.0684  134.5504  155.9074 H   0  0  0  0  0  0  0  0  0  0  0  0  # atno 11005 bound_to 11000
  146.1778  139.4957  142.9886 LP  0  0  0  0  0  0  0  0  0  0  0  0  # atno 17320 bound_to 7965
  145.6451  141.0276  143.1790 LP  0  0  0  0  0  0  0  0  0  0  0  0  # atno 17321 bound_to 7965
  140.2795  144.3875  150.6124 LP  0  0  0  0  0  0  0  0  0  0  0  0  # atno 17342 bound_to 10162
  140.6029  143.2167  151.7038 LP  0  0  0  0  0  0  0  0  0  0  0  0  # atno 17343 bound_to 10162
  156.7343  130.9055  151.3628 LP  0  0  0  0  0  0  0  0  0  0  0  0  # atno 17370 bound_to 10713
  157.6843  130.9170  150.0346 LP  0  0  0  0  0  0  0  0  0  0  0  0  # atno 17371 bound_to 10713
  141.2002  133.6611  156.5883 LP  0  0  0  0  0  0  0  0  0  0  0  0  # atno 17394 bound_to 11000
  140.3664  134.7643  157.4569 LP  0  0  0  0  0  0  0  0  0  0  0  0  # atno 17395 bound_to 11000

$$$$
