AV-unprocessed.smi:1055|AV-procd|sdf|4629|dock6
  -GOLD-   22720 3133D 1   1.00000     0.00000
 Structure written by MMmdl.
 50 51  0  0  0  0  0  0  0  0  1 V2000
  152.4300  143.4965  159.0715 C   0  0  0  0  0  0  0  0  0  0  0  0
  151.8396  142.4865  158.4118 C   0  0  0  0  0  0  0  0  0  0  0  0
  151.0773  142.7076  157.1187 C   0  0  0  0  0  0  0  0  0  0  0  0
  151.9172  141.0494  158.9066 C   0  0  0  0  0  0  0  0  0  0  0  0
  151.3227  140.0806  157.9854 N   0  0  0  0  0  0  0  0  0  0  0  0
  151.1239  138.7771  158.6290 C   0  0  0  0  0  0  0  0  0  0  0  0
  150.4398  137.7977  157.6597 C   0  0  0  0  0  0  0  0  0  0  0  0
  151.2635  137.6238  156.3722 C   0  0  0  0  0  0  0  0  0  0  0  0
  150.5456  136.8059  155.3992 N   0  0  0  0  0  0  0  0  0  0  0  0
  150.4229  135.4721  155.4520 C   0  0  0  0  0  0  0  0  0  0  0  0
  150.9203  134.7793  156.3393 O   0  0  0  0  0  0  0  0  0  0  0  0
  149.7103  135.0096  154.4104 N   0  0  0  0  0  0  0  0  0  0  0  0
  149.3392  133.6696  154.1173 C   0  0  0  0  0  0  0  0  0  0  0  0
  150.0343  132.6326  154.7677 C   0  0  0  0  0  0  0  0  0  0  0  0
  149.7015  131.2944  154.4850 C   0  0  0  0  0  0  0  0  0  0  0  0
  148.6787  131.0198  153.5435 C   0  0  0  0  0  0  0  0  0  0  0  0
  148.3044  129.6940  153.2259 N   0  0  0  0  0  0  0  0  0  0  0  0
  147.0615  129.4337  152.5101 C   0  0  0  0  0  0  0  0  0  0  0  0
  149.1941  128.5878  153.5642 C   0  0  0  0  0  0  0  0  0  0  0  0
  148.0227  132.0210  152.9072 N   0  0  0  0  0  0  0  0  0  0  0  0
  148.3431  133.3028  153.1824 C   0  0  0  0  0  0  0  0  0  0  0  0
  151.5586  139.0079  155.7763 C   0  0  0  0  0  0  0  0  0  0  0  0
  152.2012  139.9342  156.8231 C   0  0  0  0  0  0  0  0  0  0  0  0
  152.3761  144.5118  158.7073 H   0  0  0  0  0  0  0  0  0  0  0  0
  152.9761  143.3233  159.9871 H   0  0  0  0  0  0  0  0  0  0  0  0
  151.5137  142.1116  156.3173 H   0  0  0  0  0  0  0  0  0  0  0  0
  151.1031  143.7547  156.8158 H   0  0  0  0  0  0  0  0  0  0  0  0
  150.0331  142.4160  157.2340 H   0  0  0  0  0  0  0  0  0  0  0  0
  152.9704  140.8063  159.0542 H   0  0  0  0  0  0  0  0  0  0  0  0
  151.4355  140.9714  159.8828 H   0  0  0  0  0  0  0  0  0  0  0  0
  152.0821  138.3744  158.9610 H   0  0  0  0  0  0  0  0  0  0  0  0
  150.4981  138.8816  159.5151 H   0  0  0  0  0  0  0  0  0  0  0  0
  150.3019  136.8344  158.1519 H   0  0  0  0  0  0  0  0  0  0  0  0
  149.4416  138.1667  157.4183 H   0  0  0  0  0  0  0  0  0  0  0  0
  152.2140  137.1450  156.6165 H   0  0  0  0  0  0  0  0  0  0  0  0
  150.1072  137.2941  154.6318 H   0  0  0  0  0  0  0  0  0  0  0  0
  149.4395  135.6940  153.7197 H   0  0  0  0  0  0  0  0  0  0  0  0
  150.8138  132.8561  155.4814 H   0  0  0  0  0  0  0  0  0  0  0  0
  150.2378  130.5081  154.9942 H   0  0  0  0  0  0  0  0  0  0  0  0
  146.2049  129.7666  153.0971 H   0  0  0  0  0  0  0  0  0  0  0  0
  146.9333  128.3697  152.3097 H   0  0  0  0  0  0  0  0  0  0  0  0
  147.0536  129.9549  151.5522 H   0  0  0  0  0  0  0  0  0  0  0  0
  149.3747  128.5562  154.6392 H   0  0  0  0  0  0  0  0  0  0  0  0
  150.1520  128.6972  153.0547 H   0  0  0  0  0  0  0  0  0  0  0  0
  148.7672  127.6288  153.2707 H   0  0  0  0  0  0  0  0  0  0  0  0
  147.7915  134.0352  152.6144 H   0  0  0  0  0  0  0  0  0  0  0  0
  152.2209  138.9108  154.9154 H   0  0  0  0  0  0  0  0  0  0  0  0
  150.6370  139.4626  155.4090 H   0  0  0  0  0  0  0  0  0  0  0  0
  152.3795  140.9120  156.3740 H   0  0  0  0  0  0  0  0  0  0  0  0
  153.1717  139.5420  157.1315 H   0  0  0  0  0  0  0  0  0  0  0  0
  1  2  2  0  0  0  0
  1 24  1  0  0  0  0
  1 25  1  0  0  0  0
  2  3  1  0  0  0  0
  2  4  1  0  0  0  0
  3 26  1  0  0  0  0
  3 27  1  0  0  0  0
  3 28  1  0  0  0  0
  4  5  1  0  0  0  0
  4 29  1  0  0  0  0
  4 30  1  0  0  0  0
  5 23  1  0  0  0  0
  5  6  1  0  0  0  0
  6  7  1  0  0  0  0
  6 31  1  0  0  0  0
  6 32  1  0  0  0  0
  7  8  1  0  0  0  0
  7 33  1  0  0  0  0
  7 34  1  0  0  0  0
  8  9  1  0  0  0  0
  8 22  1  0  0  0  0
  8 35  1  0  0  0  0
  9 10  1  0  0  0  0
  9 36  1  0  0  0  0
 10 11  2  0  0  0  0
 10 12  1  0  0  0  0
 12 13  1  0  0  0  0
 12 37  1  0  0  0  0
 13 21  1  0  0  0  0
 13 14  2  0  0  0  0
 14 15  1  0  0  0  0
 14 38  1  0  0  0  0
 15 16  2  0  0  0  0
 15 39  1  0  0  0  0
 16 17  1  0  0  0  0
 16 20  1  0  0  0  0
 17 18  1  0  0  0  0
 17 19  1  0  0  0  0
 18 40  1  0  0  0  0
 18 41  1  0  0  0  0
 18 42  1  0  0  0  0
 19 43  1  0  0  0  0
 19 44  1  0  0  0  0
 19 45  1  0  0  0  0
 20 21  2  0  0  0  0
 21 46  1  0  0  0  0
 22 23  1  0  0  0  0
 22 47  1  0  0  0  0
 22 48  1  0  0  0  0
 23 49  1  0  0  0  0
 23 50  1  0  0  0  0
M  END
> <s_m_source_file>
AV-unprocessed.smi

> <i_m_source_file_index>
1055

> <i_lp_mmshare_version>
43012

> <i_f3d_flags>
0

> <s_epik_input>
W0NIMl09QyhbQ0gzXSlbQ0gyXU4xW0NIMl1bQ0gyXVtDSF0oW0NIMl1bQ0gyXTEpW05IXUMoPU8pW05IXWMyW2NIXVtjSF1jKE4oW0NIM10pW0NIM10pbltjSF0y

> <s_epik_cmdline>
J2VwaWtfcHl0aG9uJywgJy1waCcsICc3LjAnLCAnLXRuJywgJzgnLCAnLW1hJywgJzIwMCcsICctbWV0YWxfYmluZGluZycsICctaW1hZScsICc8aW5maWxlLm1hZT4nLCAnLW9tYWUnLCAnPG91dGZpbGUubWFlPic=

> <r_epik_Ionization_Penalty>
2.66572

> <r_epik_Ionization_Penalty_Charging>
0

> <r_epik_Ionization_Penalty_Neutral>
2.66572

> <r_epik_State_Penalty>
2.75204

> <r_epik_Charging_Adjusted_Penalty>
2.75204

> <i_epik_Tot_Q>
0

> <i_epik_Tot_abs_Q>
0

> <r_epik_Metal_State_Penalty>
2.38689

> <b_epik_Metal_Only>
1

> <s_lp_Force_Field>
OPLS_2005

> <r_lp_Energy>
18.8719

> <b_lp_Chiralities_Consistent>
1

> <s_lp_Variant>
AV-unprocessed.smi:1055-6

> <Gold.Version>
5.8.1

> <Gold.Id.Protein>
6NUR|6NUR_protein|mol2

> <Gold.PLP.Fitness>
42.4064

> <Gold.PLP.PLP>
-38.0645

> <Gold.PLP.part.hbond>
-1.0000

> <Gold.PLP.part.metal>
0.0000

> <Gold.PLP.part.buried>
-2.8867

> <Gold.PLP.part.nonpolar>
-32.6950

> <Gold.PLP.part.repulsive>
0.9263

> <Gold.PLP.ligand.clash>
0.0000

> <Gold.PLP.ligand.torsion>
0.5141

> <Gold.PLP.Chemscore.Hbond>
1.0000

> <Gold.PLP.Chemscore.CHOScore>
0.7824

> <Gold.PLP.Chemscore.Metal>
0.0000

> <Gold.Chemscore.Hbonds>
donor molecule, donor type, donor heavy atom, donor atom, acceptor molecule, acceptor atom, score
      L1  H    12    37       P1  7948  1.00
      L1  C    21    46       P1  7948  0.75

> <Gold.PLP.Chemscore.Internal.Correction>
0.0229

> <Gold.Rescore>
     Score         DG    S(hbond)    S(metal)    S(lipo)     H(rot)  DE(clash)    DE(int)     intcor
     13.05     -16.14       0.67        0.00     100.66       1.30       0.14       2.95       ----

> <Gold.Chemscore.Fitness>
13.0490

> <Gold.Chemscore.DG>
-16.1445

> <Gold.Chemscore.ZeroCoef>
-5.4800

> <Gold.Chemscore.Hbond>
0.6652

> <Gold.Chemscore.Metal>
0.0000

> <Gold.Chemscore.Lipo>
100.6618

> <Gold.Chemscore.Internal_Hbond>
0.0000

> <Gold.Chemscore.DEClash>
0.1442

> <Gold.Chemscore.DEInternal>
2.9512

> <Gold.Chemscore.Rot>
1.3027

> <Gold.Chemscore.Internal.Correction>
   9.000000E+99

> <Gold.Chemscore.Hbonds>
donor molecule, donor type, donor heavy atom, donor atom, acceptor molecule, acceptor atom, score
      L1  H    12    37       P1  7948  0.37

> <Gold.Chemscore.Hbond.Weighted>
-2.2218

> <Gold.Chemscore.Metal.Weighted>
-0.0000

> <Gold.Chemscore.Lipo.Weighted>
-11.7774

> <Gold.Chemscore.Internal_Hbond.Weighted>
0.0000

> <Gold.Chemscore.DEClash.Weighted>
0.1442

> <Gold.Chemscore.DEInternal.Weighted>
2.9512

> <Gold.Chemscore.Rot.Weighted>
3.3348

> <Gold.Chemscore.Internal.Correction.Weighted>
   9.000000E+99

> <Gold.Protein.RotatedTorsions>
[ 6907 6896 6895 6894 ] final   91.00 input  -60.11 | X-H torsion
[ 7974 7965 7964 7962 ] final  119.80 input  175.53 | X-H torsion
[ 8008 7997 7996 7995 ] final  -16.31 input   59.86 | X-H torsion
[ 10167 10162 10161 10158 ] final  174.13 input  -65.29 | X-H torsion
[ 10718 10713 10712 10709 ] final   78.31 input   66.30 | X-H torsion
[ 10763 10752 10751 10750 ] final  171.81 input  -60.55 | X-H torsion
[ 11005 11000 10999 10996 ] final   -0.23 input  -57.11 | X-H torsion

> <Gold.Protein.ActiveResidues>
 VAL166  LYS551  ARG553  GLY616  TRP617  ASP618  TYR619  PRO620  LYS621  CYS622 
 ASP623  PHE694  ASN695  SER759  ASP760  ASP761  ALA762  ILE779  LEU786  VAL792 
 PHE793  MET794  SER795  GLU796  ALA797  LYS798  CYS799  TRP800  GLU811  SER814 

> <Gold.Protein.RotatedAtoms>
  152.5448  134.1724  159.8601 H   0  0  0  0  0  0  0  0  0  0  0  0  # atno 6907 bound_to 6896
  151.1733  133.4763  159.2601 H   0  0  0  0  0  0  0  0  0  0  0  0  # atno 6908 bound_to 6896
  151.1253  135.0112  159.8612 H   0  0  0  0  0  0  0  0  0  0  0  0  # atno 6909 bound_to 6896
  145.1388  139.3281  143.4627 H   0  0  0  0  0  0  0  0  0  0  0  0  # atno 7974 bound_to 7965
  154.5063  140.2173  155.9244 H   0  0  0  0  0  0  0  0  0  0  0  0  # atno 8008 bound_to 7997
  156.1498  140.3163  155.8595 H   0  0  0  0  0  0  0  0  0  0  0  0  # atno 8009 bound_to 7997
  155.3961  140.0481  157.3029 H   0  0  0  0  0  0  0  0  0  0  0  0  # atno 8010 bound_to 7997
  139.5131  144.3182  152.0228 H   0  0  0  0  0  0  0  0  0  0  0  0  # atno 10167 bound_to 10162
  157.6740  130.9862  150.1768 H   0  0  0  0  0  0  0  0  0  0  0  0  # atno 10718 bound_to 10713
  154.4172  135.2757  155.1999 H   0  0  0  0  0  0  0  0  0  0  0  0  # atno 10763 bound_to 10752
  154.3960  135.6055  153.5873 H   0  0  0  0  0  0  0  0  0  0  0  0  # atno 10764 bound_to 10752
  152.9832  135.5915  154.4462 H   0  0  0  0  0  0  0  0  0  0  0  0  # atno 10765 bound_to 10752
  140.6340  133.9549  155.8290 H   0  0  0  0  0  0  0  0  0  0  0  0  # atno 11005 bound_to 11000
  146.3507  140.1417  142.8594 LP  0  0  0  0  0  0  0  0  0  0  0  0  # atno 17320 bound_to 7965
  145.0555  140.9049  143.4970 LP  0  0  0  0  0  0  0  0  0  0  0  0  # atno 17321 bound_to 7965
  140.2624  144.4052  150.6180 LP  0  0  0  0  0  0  0  0  0  0  0  0  # atno 17342 bound_to 10162
  140.6147  143.2171  151.6815 LP  0  0  0  0  0  0  0  0  0  0  0  0  # atno 17343 bound_to 10162
  156.2509  130.3700  149.8233 LP  0  0  0  0  0  0  0  0  0  0  0  0  # atno 17370 bound_to 10713
  156.6006  130.8545  151.3431 LP  0  0  0  0  0  0  0  0  0  0  0  0  # atno 17371 bound_to 10713
  141.0655  134.0283  157.3600 LP  0  0  0  0  0  0  0  0  0  0  0  0  # atno 17394 bound_to 11000
  139.9105  135.0189  156.7671 LP  0  0  0  0  0  0  0  0  0  0  0  0  # atno 17395 bound_to 11000

$$$$
