AV-unprocessed.smi:2943|AV-procd|sdf|11271|dock1
  -GOLD-   2272016163D 1   1.00000     0.00000
 Structure written by MMmdl.
 37 39  0  0  0  0  0  0  0  0  2 V2000
  150.7675  137.9650  154.4469 C   0  0  0  0  0  0  0  0  0  0  0  0
  150.3742  139.3609  154.8307 C   0  0  0  0  0  0  0  0  0  0  0  0
  151.0807  140.2122  155.6506 C   0  0  0  0  0  0  0  0  0  0  0  0
  152.3813  139.9559  156.3488 C   0  0  0  0  0  0  0  0  0  0  0  0
  150.4070  141.4308  155.7625 N   0  0  0  0  0  0  0  0  0  0  0  0
  150.8438  142.5860  156.5341 C   0  0  0  0  0  0  0  0  0  0  0  0
  150.9564  142.2648  158.0328 C   0  0  1  0  0  0  0  0  0  0  0  0
  152.3875  142.0383  158.5129 C   0  0  0  0  0  0  0  0  0  0  0  0
  152.2553  142.3256  159.9912 C   0  0  0  0  0  0  0  0  0  0  0  0
  151.2701  143.4918  159.9993 C   0  0  0  0  0  0  0  0  0  0  0  0
  150.4682  143.3413  158.8296 O   0  0  0  0  0  0  0  0  0  0  0  0
  149.2385  141.3564  155.0217 C   0  0  0  0  0  0  0  0  0  0  0  0
  148.2785  142.3068  154.8587 N   0  3  0  0  0  0  0  0  0  0  0  0
  147.2297  141.9908  154.0917 C   0  0  0  0  0  0  0  0  0  0  0  0
  147.1027  140.7975  153.4936 N   0  0  0  0  0  0  0  0  0  0  0  0
  148.0404  139.8284  153.6336 C   0  0  0  0  0  0  0  0  0  0  0  0
  147.8108  138.6231  152.9743 N   0  0  0  0  0  0  0  0  0  0  0  0
  149.1901  140.0710  154.4299 C   0  0  0  0  0  0  0  0  0  0  0  0
  151.8505  137.8443  154.4209 H   0  0  0  0  0  0  0  0  0  0  0  0
  150.3975  137.7028  153.4564 H   0  0  0  0  0  0  0  0  0  0  0  0
  150.3696  137.2374  155.1544 H   0  0  0  0  0  0  0  0  0  0  0  0
  152.5956  138.8894  156.4132 H   0  0  0  0  0  0  0  0  0  0  0  0
  152.3691  140.3416  157.3681 H   0  0  0  0  0  0  0  0  0  0  0  0
  153.2053  140.4311  155.8163 H   0  0  0  0  0  0  0  0  0  0  0  0
  151.8000  142.9380  156.1464 H   0  0  0  0  0  0  0  0  0  0  0  0
  150.1359  143.4000  156.3743 H   0  0  0  0  0  0  0  0  0  0  0  0
  150.3601  141.3832  158.2731 H   0  0  0  0  0  0  0  0  0  0  0  0
  152.7528  141.0327  158.3024 H   0  0  0  0  0  0  0  0  0  0  0  0
  153.0690  142.7554  158.0532 H   0  0  0  0  0  0  0  0  0  0  0  0
  151.8218  141.4639  160.5009 H   0  0  0  0  0  0  0  0  0  0  0  0
  153.2050  142.5644  160.4708 H   0  0  0  0  0  0  0  0  0  0  0  0
  150.6583  143.5089  160.9014 H   0  0  0  0  0  0  0  0  0  0  0  0
  151.8017  144.4417  159.9331 H   0  0  0  0  0  0  0  0  0  0  0  0
  146.4690  142.7477  153.9689 H   0  0  0  0  0  0  0  0  0  0  0  0
  146.9825  138.4757  152.4157 H   0  0  0  0  0  0  0  0  0  0  0  0
  148.4723  137.8614  153.0238 H   0  0  0  0  0  0  0  0  0  0  0  0
  148.3613  143.2158  155.3141 H   0  0  0  0  0  0  0  0  0  0  0  0
  1  2  1  0  0  0  0
  1 19  1  0  0  0  0
  1 20  1  0  0  0  0
  1 21  1  0  0  0  0
  2 18  1  0  0  0  0
  2  3  2  0  0  0  0
  3  4  1  0  0  0  0
  3  5  1  0  0  0  0
  4 22  1  0  0  0  0
  4 23  1  0  0  0  0
  4 24  1  0  0  0  0
  5  6  1  0  0  0  0
  5 12  1  0  0  0  0
  6  7  1  0  0  0  0
  6 25  1  0  0  0  0
  6 26  1  0  0  0  0
  7 11  1  0  0  0  0
  7  8  1  0  0  0  0
  7 27  1  0  0  0  0
  8  9  1  0  0  0  0
  8 28  1  0  0  0  0
  8 29  1  0  0  0  0
  9 10  1  0  0  0  0
  9 30  1  0  0  0  0
  9 31  1  0  0  0  0
 10 11  1  0  0  0  0
 10 32  1  0  0  0  0
 10 33  1  0  0  0  0
 12 18  1  0  0  0  0
 12 13  2  0  0  0  0
 13 14  1  0  0  0  0
 13 37  1  0  0  0  0
 14 15  2  0  0  0  0
 14 34  1  0  0  0  0
 15 16  1  0  0  0  0
 16 17  1  0  0  0  0
 16 18  2  0  0  0  0
 17 35  1  0  0  0  0
 17 36  1  0  0  0  0
M  CHG  1  13   1
M  END
> <s_m_source_file>
AV-unprocessed.smi

> <i_m_source_file_index>
2943

> <i_lp_mmshare_version>
43012

> <i_f3d_flags>
0

> <s_epik_input>
bjFbY0hdbmMoW05IMl0pYyhjMTIpYyhbQ0gzXSljKFtDSDNdKW4yW0NIMl1bQ0BASF0zW0NIMl1bQ0gyXVtDSDJdTzM=

> <s_epik_cmdline>
J2VwaWtfcHl0aG9uJywgJy1waCcsICc3LjAnLCAnLXRuJywgJzgnLCAnLW1hJywgJzIwMCcsICctbWV0YWxfYmluZGluZycsICctaW1hZScsICc8aW5maWxlLm1hZT4nLCAnLW9tYWUnLCAnPG91dGZpbGUubWFlPic=

> <r_epik_Ionization_Penalty>
2.35523

> <r_epik_Ionization_Penalty_Charging>
2.35518

> <r_epik_Ionization_Penalty_Neutral>
5.21205e-05

> <r_epik_State_Penalty>
2.50981

> <r_epik_Charging_Adjusted_Penalty>
4.86499

> <i_epik_Tot_Q>
1

> <i_epik_Tot_abs_Q>
1

> <r_epik_Metal_State_Penalty>
2.52087

> <b_epik_Metal_Only>
0

> <s_lp_Force_Field>
OPLS_2005

> <r_lp_Energy>
21.0174

> <b_lp_Chiralities_Consistent>
1

> <s_lp_Variant>
AV-unprocessed.smi:2943-4

> <Gold.Version>
5.8.1

> <Gold.Id.Protein>
6NUR|6NUR_protein|mol2

> <Gold.PLP.Fitness>
43.6765

> <Gold.PLP.PLP>
-36.5181

> <Gold.PLP.part.hbond>
-3.0000

> <Gold.PLP.part.metal>
0.0000

> <Gold.PLP.part.buried>
-0.1758

> <Gold.PLP.part.nonpolar>
-32.2245

> <Gold.PLP.part.repulsive>
0.5090

> <Gold.PLP.ligand.clash>
0.0000

> <Gold.PLP.ligand.torsion>
0.5874

> <Gold.PLP.Chemscore.Hbond>
2.7771

> <Gold.PLP.Chemscore.CHOScore>
0.0000

> <Gold.PLP.Chemscore.Metal>
0.0000

> <Gold.Chemscore.Hbonds>
donor molecule, donor type, donor heavy atom, donor atom, acceptor molecule, acceptor atom, score
      L1  H    13    37       P1  8028  2.00
      L1  H    17    36       P1  7948  0.70

> <Gold.PLP.Chemscore.Internal.Correction>
0.0018

> <Gold.Rescore>
     Score         DG    S(hbond)    S(metal)    S(lipo)     H(rot)  DE(clash)    DE(int)     intcor
     15.97     -17.40       1.74        0.00      80.09       1.27       0.70       0.73       ----

> <Gold.Chemscore.Fitness>
15.9737

> <Gold.Chemscore.DG>
-17.4008

> <Gold.Chemscore.ZeroCoef>
-5.4800

> <Gold.Chemscore.Hbond>
1.7389

> <Gold.Chemscore.Metal>
0.0000

> <Gold.Chemscore.Lipo>
80.0886

> <Gold.Chemscore.Internal_Hbond>
0.0000

> <Gold.Chemscore.DEClash>
0.7018

> <Gold.Chemscore.DEInternal>
0.7253

> <Gold.Chemscore.Rot>
1.2725

> <Gold.Chemscore.Internal.Correction>
   9.000000E+99

> <Gold.Chemscore.Hbonds>
donor molecule, donor type, donor heavy atom, donor atom, acceptor molecule, acceptor atom, score
      L1  H    13    37       P1  8028  0.98
      L1  H    17    36       P1  7948  0.66

> <Gold.Chemscore.Hbond.Weighted>
-5.8081

> <Gold.Chemscore.Metal.Weighted>
-0.0000

> <Gold.Chemscore.Lipo.Weighted>
-9.3704

> <Gold.Chemscore.Internal_Hbond.Weighted>
0.0000

> <Gold.Chemscore.DEClash.Weighted>
0.7018

> <Gold.Chemscore.DEInternal.Weighted>
0.7253

> <Gold.Chemscore.Rot.Weighted>
3.2576

> <Gold.Chemscore.Internal.Correction.Weighted>
   9.000000E+99

> <Gold.Protein.RotatedTorsions>
[ 6907 6896 6895 6894 ] final  -28.08 input  -60.11 | X-H torsion
[ 7974 7965 7964 7962 ] final   12.19 input  175.53 | X-H torsion
[ 8008 7997 7996 7995 ] final  -20.65 input   59.86 | X-H torsion
[ 10167 10162 10161 10158 ] final -124.01 input  -65.29 | X-H torsion
[ 10718 10713 10712 10709 ] final   33.39 input   66.30 | X-H torsion
[ 10763 10752 10751 10750 ] final   90.83 input  -60.55 | X-H torsion
[ 11005 11000 10999 10996 ] final   39.80 input  -57.11 | X-H torsion

> <Gold.Protein.ActiveResidues>
 VAL166  LYS551  ARG553  GLY616  TRP617  ASP618  TYR619  PRO620  LYS621  CYS622 
 ASP623  PHE694  ASN695  SER759  ASP760  ASP761  ALA762  ILE779  LEU786  VAL792 
 PHE793  MET794  SER795  GLU796  ALA797  LYS798  CYS799  TRP800  GLU811  SER814 

> <Gold.Protein.RotatedAtoms>
  151.1379  135.0164  159.8612 H   0  0  0  0  0  0  0  0  0  0  0  0  # atno 6907 bound_to 6896
  152.5452  134.1533  159.8538 H   0  0  0  0  0  0  0  0  0  0  0  0  # atno 6908 bound_to 6896
  151.1606  133.4802  159.2627 H   0  0  0  0  0  0  0  0  0  0  0  0  # atno 6909 bound_to 6896
  146.2356  139.9374  142.8488 H   0  0  0  0  0  0  0  0  0  0  0  0  # atno 7974 bound_to 7965
  154.4756  140.2056  155.9887 H   0  0  0  0  0  0  0  0  0  0  0  0  # atno 8008 bound_to 7997
  156.1083  140.3233  155.8007 H   0  0  0  0  0  0  0  0  0  0  0  0  # atno 8009 bound_to 7997
  155.4679  140.0529  157.2974 H   0  0  0  0  0  0  0  0  0  0  0  0  # atno 8010 bound_to 7997
  139.9974  143.5576  152.2317 H   0  0  0  0  0  0  0  0  0  0  0  0  # atno 10167 bound_to 10162
  157.2973  130.7333  149.6646 H   0  0  0  0  0  0  0  0  0  0  0  0  # atno 10718 bound_to 10713
  153.2017  135.4419  155.0274 H   0  0  0  0  0  0  0  0  0  0  0  0  # atno 10763 bound_to 10752
  154.8151  135.3311  154.7202 H   0  0  0  0  0  0  0  0  0  0  0  0  # atno 10764 bound_to 10752
  153.7646  135.6989  153.4974 H   0  0  0  0  0  0  0  0  0  0  0  0  # atno 10765 bound_to 10752
  140.1992  134.3891  155.8105 H   0  0  0  0  0  0  0  0  0  0  0  0  # atno 11005 bound_to 11000
  145.1986  140.9844  143.4169 LP  0  0  0  0  0  0  0  0  0  0  0  0  # atno 17320 bound_to 7965
  144.9794  139.3799  143.6269 LP  0  0  0  0  0  0  0  0  0  0  0  0  # atno 17321 bound_to 7965
  139.6296  144.7642  151.2564 LP  0  0  0  0  0  0  0  0  0  0  0  0  # atno 17342 bound_to 10162
  140.7432  143.6503  150.8255 LP  0  0  0  0  0  0  0  0  0  0  0  0  # atno 17343 bound_to 10162
  155.9670  130.4290  150.4816 LP  0  0  0  0  0  0  0  0  0  0  0  0  # atno 17370 bound_to 10713
  157.2790  131.0603  151.2210 LP  0  0  0  0  0  0  0  0  0  0  0  0  # atno 17371 bound_to 10713
  141.2227  133.7085  156.8229 LP  0  0  0  0  0  0  0  0  0  0  0  0  # atno 17394 bound_to 11000
  140.2073  134.8853  157.3235 LP  0  0  0  0  0  0  0  0  0  0  0  0  # atno 17395 bound_to 11000

$$$$
