AV-unprocessed.smi:2911|AV-procd|sdf|11177|dock7
  -GOLD-   2272016 73D 1   1.00000     0.00000
 Structure written by MMmdl.
 41 42  0  0  0  0  0  0  0  0  1 V2000
  150.7028  138.0533  154.9232 C   0  0  0  0  0  0  0  0  0  0  0  0
  149.9525  139.3356  154.8042 C   0  0  0  0  0  0  0  0  0  0  0  0
  150.3571  140.2971  153.9833 N   0  0  0  0  0  0  0  0  0  0  0  0
  149.3996  141.3048  154.1691 O   0  0  0  0  0  0  0  0  0  0  0  0
  148.5158  140.8128  155.0704 C   0  0  0  0  0  0  0  0  0  0  0  0
  147.3820  141.6747  155.5142 C   0  0  0  0  0  0  0  0  0  0  0  0
  147.5759  142.2113  156.9413 C   0  0  0  0  0  0  0  0  0  0  0  0
  148.9807  142.4770  157.2286 N   0  0  0  0  0  0  0  0  0  0  0  0
  149.8090  141.6470  157.8853 C   0  0  0  0  0  0  0  0  0  0  0  0
  149.4470  140.5399  158.2843 O   0  0  0  0  0  0  0  0  0  0  0  0
  151.0890  142.0947  157.9439 N   0  0  0  0  0  0  0  0  0  0  0  0
  151.3858  143.5186  158.1817 C   0  0  0  0  0  0  0  0  0  0  0  0
  151.5706  143.7471  159.6945 C   0  0  0  0  0  0  0  0  0  0  0  0
  152.6761  142.8373  160.2719 C   0  0  1  0  0  0  0  0  0  0  0  0
  152.7817  142.9711  161.7972 C   0  0  0  0  0  0  0  0  0  0  0  0
  152.4715  141.3686  159.8407 C   0  0  0  0  0  0  0  0  0  0  0  0
  152.2550  141.2641  158.3169 C   0  0  1  0  0  0  0  0  0  0  0  0
  152.2111  139.8021  157.8239 C   0  0  0  0  0  0  0  0  0  0  0  0
  148.8204  139.5957  155.5140 N   0  0  0  0  0  0  0  0  0  0  0  0
  150.2928  137.3141  154.2350 H   0  0  0  0  0  0  0  0  0  0  0  0
  150.6292  137.6611  155.9378 H   0  0  0  0  0  0  0  0  0  0  0  0
  151.7577  138.1993  154.6881 H   0  0  0  0  0  0  0  0  0  0  0  0
  147.2799  142.4994  154.8080 H   0  0  0  0  0  0  0  0  0  0  0  0
  146.4604  141.0950  155.4522 H   0  0  0  0  0  0  0  0  0  0  0  0
  147.0253  143.1443  157.0634 H   0  0  0  0  0  0  0  0  0  0  0  0
  147.1691  141.5115  157.6733 H   0  0  0  0  0  0  0  0  0  0  0  0
  149.3576  143.3520  156.8940 H   0  0  0  0  0  0  0  0  0  0  0  0
  152.2934  143.7995  157.6457 H   0  0  0  0  0  0  0  0  0  0  0  0
  150.6120  144.1892  157.8065 H   0  0  0  0  0  0  0  0  0  0  0  0
  151.8126  144.7935  159.8831 H   0  0  0  0  0  0  0  0  0  0  0  0
  150.6272  143.5524  160.2069 H   0  0  0  0  0  0  0  0  0  0  0  0
  153.6248  143.1708  159.8485 H   0  0  0  0  0  0  0  0  0  0  0  0
  151.8615  142.6518  162.2878 H   0  0  0  0  0  0  0  0  0  0  0  0
  152.9733  144.0042  162.0881 H   0  0  0  0  0  0  0  0  0  0  0  0
  153.5965  142.3616  162.1890 H   0  0  0  0  0  0  0  0  0  0  0  0
  153.3387  140.7763  160.1352 H   0  0  0  0  0  0  0  0  0  0  0  0
  151.6142  140.9421  160.3639 H   0  0  0  0  0  0  0  0  0  0  0  0
  153.1259  141.7024  157.8265 H   0  0  0  0  0  0  0  0  0  0  0  0
  153.1861  139.3304  157.9481 H   0  0  0  0  0  0  0  0  0  0  0  0
  151.9575  139.7481  156.7648 H   0  0  0  0  0  0  0  0  0  0  0  0
  151.4973  139.1936  158.3782 H   0  0  0  0  0  0  0  0  0  0  0  0
  1  2  1  0  0  0  0
  1 20  1  0  0  0  0
  1 21  1  0  0  0  0
  1 22  1  0  0  0  0
  2 19  1  0  0  0  0
  2  3  2  0  0  0  0
  3  4  1  0  0  0  0
  4  5  1  0  0  0  0
  5  6  1  0  0  0  0
  5 19  2  0  0  0  0
  6  7  1  0  0  0  0
  6 23  1  0  0  0  0
  6 24  1  0  0  0  0
  7  8  1  0  0  0  0
  7 25  1  0  0  0  0
  7 26  1  0  0  0  0
  8  9  1  0  0  0  0
  8 27  1  0  0  0  0
  9 10  2  0  0  0  0
  9 11  1  0  0  0  0
 11 17  1  0  0  0  0
 11 12  1  0  0  0  0
 12 13  1  0  0  0  0
 12 28  1  0  0  0  0
 12 29  1  0  0  0  0
 13 14  1  0  0  0  0
 13 30  1  0  0  0  0
 13 31  1  0  0  0  0
 14 15  1  0  0  0  0
 14 16  1  0  0  0  0
 14 32  1  0  0  0  0
 15 33  1  0  0  0  0
 15 34  1  0  0  0  0
 15 35  1  0  0  0  0
 16 17  1  0  0  0  0
 16 36  1  0  0  0  0
 16 37  1  0  0  0  0
 17 18  1  0  0  0  0
 17 38  1  0  0  0  0
 18 39  1  0  0  0  0
 18 40  1  0  0  0  0
 18 41  1  0  0  0  0
M  END
> <s_m_source_file>
AV-unprocessed.smi

> <i_m_source_file_index>
2911

> <i_lp_mmshare_version>
43012

> <i_f3d_flags>
0

> <s_epik_input>
W0NIM11jMW5vYyhuMSlbQ0gyXVtDSDJdW05IXUMoPU8pTjJbQ0gyXVtDSDJdW0NAQEhdKFtDSDNdKVtDSDJdW0NASF0yW0NIM10=

> <s_epik_cmdline>
J2VwaWtfcHl0aG9uJywgJy1waCcsICc3LjAnLCAnLXRuJywgJzgnLCAnLW1hJywgJzIwMCcsICctbWV0YWxfYmluZGluZycsICctaW1hZScsICc8aW5maWxlLm1hZT4nLCAnLW9tYWUnLCAnPG91dGZpbGUubWFlPic=

> <r_lp_tautomer_probability>
1

> <r_epik_Ionization_Penalty>
6.61671e-05

> <r_epik_Ionization_Penalty_Charging>
0

> <r_epik_Ionization_Penalty_Neutral>
6.61671e-05

> <r_epik_State_Penalty>
-0

> <r_epik_Charging_Adjusted_Penalty>
0

> <i_epik_Tot_Q>
0

> <i_epik_Tot_abs_Q>
0

> <r_epik_Metal_State_Penalty>
-0

> <b_epik_Metal_Only>
0

> <s_lp_Force_Field>
OPLS_2005

> <r_lp_Energy>
29.1944

> <b_lp_Chiralities_Consistent>
1

> <s_lp_Variant>
AV-unprocessed.smi:2911-1

> <Gold.Version>
5.8.1

> <Gold.Id.Protein>
6NUR|6NUR_protein|mol2

> <Gold.PLP.Fitness>
39.4265

> <Gold.PLP.PLP>
-34.2188

> <Gold.PLP.part.hbond>
-3.5525

> <Gold.PLP.part.metal>
0.0000

> <Gold.PLP.part.buried>
-4.2492

> <Gold.PLP.part.nonpolar>
-27.7074

> <Gold.PLP.part.repulsive>
1.3736

> <Gold.PLP.ligand.clash>
0.0000

> <Gold.PLP.ligand.torsion>
0.7431

> <Gold.PLP.Chemscore.Hbond>
2.0897

> <Gold.PLP.Chemscore.CHOScore>
0.0000

> <Gold.PLP.Chemscore.Metal>
0.0000

> <Gold.Chemscore.Hbonds>
donor molecule, donor type, donor heavy atom, donor atom, acceptor molecule, acceptor atom, score
      L1  H     8    27       P1  8028  0.77
      P1  H  7989  7998       L1     3  0.77
      P1  H  8011  8017       L1     4  0.41

> <Gold.PLP.Chemscore.Internal.Correction>
0.4249

> <Gold.Rescore>
     Score         DG    S(hbond)    S(metal)    S(lipo)     H(rot)  DE(clash)    DE(int)     intcor
     14.12     -16.32       1.63        0.00      81.39       1.61       0.08       2.12       ----

> <Gold.Chemscore.Fitness>
14.1167

> <Gold.Chemscore.DG>
-16.3213

> <Gold.Chemscore.ZeroCoef>
-5.4800

> <Gold.Chemscore.Hbond>
1.6281

> <Gold.Chemscore.Metal>
0.0000

> <Gold.Chemscore.Lipo>
81.3857

> <Gold.Chemscore.Internal_Hbond>
0.0000

> <Gold.Chemscore.DEClash>
0.0819

> <Gold.Chemscore.DEInternal>
2.1228

> <Gold.Chemscore.Rot>
1.6088

> <Gold.Chemscore.Internal.Correction>
   9.000000E+99

> <Gold.Chemscore.Hbonds>
donor molecule, donor type, donor heavy atom, donor atom, acceptor molecule, acceptor atom, score
      L1  H     8    27       P1  8028  0.72
      P1  H  7989  7998       L1     3  0.55
      P1  H  8011  8017       L1     4  0.08

> <Gold.Chemscore.Hbond.Weighted>
-5.4379

> <Gold.Chemscore.Metal.Weighted>
-0.0000

> <Gold.Chemscore.Lipo.Weighted>
-9.5221

> <Gold.Chemscore.Internal_Hbond.Weighted>
0.0000

> <Gold.Chemscore.DEClash.Weighted>
0.0819

> <Gold.Chemscore.DEInternal.Weighted>
2.1228

> <Gold.Chemscore.Rot.Weighted>
4.1186

> <Gold.Chemscore.Internal.Correction.Weighted>
   9.000000E+99

> <Gold.Protein.RotatedTorsions>
[ 6907 6896 6895 6894 ] final  167.72 input  -60.11 | X-H torsion
[ 7974 7965 7964 7962 ] final  143.41 input  175.53 | X-H torsion
[ 8008 7997 7996 7995 ] final  -51.07 input   59.86 | X-H torsion
[ 10167 10162 10161 10158 ] final   -2.17 input  -65.29 | X-H torsion
[ 10718 10713 10712 10709 ] final -118.37 input   66.30 | X-H torsion
[ 10763 10752 10751 10750 ] final  -56.34 input  -60.55 | X-H torsion
[ 11005 11000 10999 10996 ] final  141.98 input  -57.11 | X-H torsion

> <Gold.Protein.ActiveResidues>
 VAL166  LYS551  ARG553  GLY616  TRP617  ASP618  TYR619  PRO620  LYS621  CYS622 
 ASP623  PHE694  ASN695  SER759  ASP760  ASP761  ALA762  ILE779  LEU786  VAL792 
 PHE793  MET794  SER795  GLU796  ALA797  LYS798  CYS799  TRP800  GLU811  SER814 

> <Gold.Protein.RotatedAtoms>
  151.8589  133.3453  159.3697 H   0  0  0  0  0  0  0  0  0  0  0  0  # atno 6907 bound_to 6896
  150.7184  134.5225  159.5670 H   0  0  0  0  0  0  0  0  0  0  0  0  # atno 6908 bound_to 6896
  152.2735  134.7908  160.0461 H   0  0  0  0  0  0  0  0  0  0  0  0  # atno 6909 bound_to 6896
  144.8923  139.5540  143.5792 H   0  0  0  0  0  0  0  0  0  0  0  0  # atno 7974 bound_to 7965
  154.4075  140.1257  156.4769 H   0  0  0  0  0  0  0  0  0  0  0  0  # atno 8008 bound_to 7997
  155.7124  140.3493  155.4960 H   0  0  0  0  0  0  0  0  0  0  0  0  # atno 8009 bound_to 7997
  155.9288  140.1066  157.1138 H   0  0  0  0  0  0  0  0  0  0  0  0  # atno 8010 bound_to 7997
  140.6840  143.6689  150.8202 H   0  0  0  0  0  0  0  0  0  0  0  0  # atno 10167 bound_to 10162
  156.1101  130.6242  150.9282 H   0  0  0  0  0  0  0  0  0  0  0  0  # atno 10718 bound_to 10713
  154.2051  135.6404  153.5098 H   0  0  0  0  0  0  0  0  0  0  0  0  # atno 10763 bound_to 10752
  153.0003  135.5460  154.6274 H   0  0  0  0  0  0  0  0  0  0  0  0  # atno 10764 bound_to 10752
  154.5697  135.2916  155.0813 H   0  0  0  0  0  0  0  0  0  0  0  0  # atno 10765 bound_to 10752
  140.0442  134.9289  157.0900 H   0  0  0  0  0  0  0  0  0  0  0  0  # atno 11005 bound_to 11000
  146.3061  139.7585  142.9055 LP  0  0  0  0  0  0  0  0  0  0  0  0  # atno 17320 bound_to 7965
  145.3761  141.0351  143.3204 LP  0  0  0  0  0  0  0  0  0  0  0  0  # atno 17321 bound_to 7965
  140.0393  143.5362  152.2725 LP  0  0  0  0  0  0  0  0  0  0  0  0  # atno 17342 bound_to 10162
  139.6184  144.7624  151.2795 LP  0  0  0  0  0  0  0  0  0  0  0  0  # atno 17343 bound_to 10162
  157.6281  131.0923  150.8494 LP  0  0  0  0  0  0  0  0  0  0  0  0  # atno 17370 bound_to 10713
  156.8606  130.5112  149.5304 LP  0  0  0  0  0  0  0  0  0  0  0  0  # atno 17371 bound_to 10713
  140.4020  134.2073  155.7163 LP  0  0  0  0  0  0  0  0  0  0  0  0  # atno 17394 bound_to 11000
  141.1899  133.8229  157.0941 LP  0  0  0  0  0  0  0  0  0  0  0  0  # atno 17395 bound_to 11000

$$$$
