AV-unprocessed.smi:2752|AV-procd|sdf|10606|dock5
  -GOLD-   2272015 53D 1   1.00000     0.00000
 Structure written by MMmdl.
 34 35  0  0  0  0  0  0  0  0  1 V2000
  148.1776  138.6208  157.1011 C   0  0  0  0  0  0  0  0  0  0  0  0
  148.5107  139.8575  156.4917 O   0  0  0  0  0  0  0  0  0  0  0  0
  149.0905  139.7222  155.1968 C   0  0  1  0  0  0  0  0  0  0  0  0
  148.0456  139.1350  154.2418 C   0  0  0  0  0  0  0  0  0  0  0  0
  147.1916  140.3348  153.8412 C   0  0  0  0  0  0  0  0  0  0  0  0
  148.1776  141.5026  153.7463 C   0  0  0  0  0  0  0  0  0  0  0  0
  149.3977  141.1171  154.6060 C   0  0  1  0  0  0  0  0  0  0  0  0
  149.6674  142.1251  155.6292 N   0  0  0  0  0  0  0  0  0  0  0  0
  150.3472  141.9001  156.7624 C   0  0  0  0  0  0  0  0  0  0  0  0
  150.8362  140.8081  157.0536 O   0  0  0  0  0  0  0  0  0  0  0  0
  150.4113  143.0091  157.5198 N   0  0  0  0  0  0  0  0  0  0  0  0
  151.0411  143.1749  158.7820 C   0  0  0  0  0  0  0  0  0  0  0  0
  152.0440  142.2243  159.0796 C   0  0  0  0  0  0  0  0  0  0  0  0
  152.7289  142.3005  160.3082 C   0  0  0  0  0  0  0  0  0  0  0  0
  152.3909  143.3274  161.2073 C   0  0  0  0  0  0  0  0  0  0  0  0
  153.0218  143.4410  162.4001 F   0  0  0  0  0  0  0  0  0  0  0  0
  151.3807  144.2334  160.8352 C   0  0  0  0  0  0  0  0  0  0  0  0
  150.7238  144.1612  159.6582 N   0  0  0  0  0  0  0  0  0  0  0  0
  147.7176  138.8059  158.0717 H   0  0  0  0  0  0  0  0  0  0  0  0
  149.0692  138.0145  157.2647 H   0  0  0  0  0  0  0  0  0  0  0  0
  147.4717  138.0485  156.4991 H   0  0  0  0  0  0  0  0  0  0  0  0
  149.9985  139.1176  155.2408 H   0  0  0  0  0  0  0  0  0  0  0  0
  148.5448  138.7351  153.3584 H   0  0  0  0  0  0  0  0  0  0  0  0
  147.4566  138.3284  154.6782 H   0  0  0  0  0  0  0  0  0  0  0  0
  146.6474  140.1699  152.9108 H   0  0  0  0  0  0  0  0  0  0  0  0
  146.4583  140.5364  154.6232 H   0  0  0  0  0  0  0  0  0  0  0  0
  148.4910  141.6401  152.7109 H   0  0  0  0  0  0  0  0  0  0  0  0
  147.7091  142.4350  154.0642 H   0  0  0  0  0  0  0  0  0  0  0  0
  150.2616  141.0391  153.9430 H   0  0  0  0  0  0  0  0  0  0  0  0
  149.2920  143.0482  155.4695 H   0  0  0  0  0  0  0  0  0  0  0  0
  149.9549  143.8301  157.1508 H   0  0  0  0  0  0  0  0  0  0  0  0
  152.2902  141.4422  158.3760 H   0  0  0  0  0  0  0  0  0  0  0  0
  153.4986  141.5843  160.5545 H   0  0  0  0  0  0  0  0  0  0  0  0
  151.0919  145.0360  161.4977 H   0  0  0  0  0  0  0  0  0  0  0  0
  1  2  1  0  0  0  0
  1 19  1  0  0  0  0
  1 20  1  0  0  0  0
  1 21  1  0  0  0  0
  2  3  1  0  0  0  0
  3  7  1  0  0  0  0
  3  4  1  0  0  0  0
  3 22  1  0  0  0  0
  4  5  1  0  0  0  0
  4 23  1  0  0  0  0
  4 24  1  0  0  0  0
  5  6  1  0  0  0  0
  5 25  1  0  0  0  0
  5 26  1  0  0  0  0
  6  7  1  0  0  0  0
  6 27  1  0  0  0  0
  6 28  1  0  0  0  0
  7  8  1  0  0  0  0
  7 29  1  0  0  0  0
  8  9  1  0  0  0  0
  8 30  1  0  0  0  0
  9 10  2  0  0  0  0
  9 11  1  0  0  0  0
 11 12  1  0  0  0  0
 11 31  1  0  0  0  0
 12 18  1  0  0  0  0
 12 13  2  0  0  0  0
 13 14  1  0  0  0  0
 13 32  1  0  0  0  0
 14 15  2  0  0  0  0
 14 33  1  0  0  0  0
 15 16  1  0  0  0  0
 15 17  1  0  0  0  0
 17 18  2  0  0  0  0
 17 34  1  0  0  0  0
M  END
> <s_m_source_file>
AV-unprocessed.smi

> <i_m_source_file_index>
2752

> <i_lp_mmshare_version>
43012

> <i_f3d_flags>
0

> <s_epik_input>
W0NIM11PW0NAQEhdMVtDSDJdW0NIMl1bQ0gyXVtDQEhdMVtOSF1DKD1PKVtOSF1jMltjSF1bY0hdYyhGKVtjSF1uMg==

> <s_epik_cmdline>
J2VwaWtfcHl0aG9uJywgJy1waCcsICc3LjAnLCAnLXRuJywgJzgnLCAnLW1hJywgJzIwMCcsICctbWV0YWxfYmluZGluZycsICctaW1hZScsICc8aW5maWxlLm1hZT4nLCAnLW9tYWUnLCAnPG91dGZpbGUubWFlPic=

> <r_lp_tautomer_probability>
1

> <r_epik_Ionization_Penalty>
3.49853e-05

> <r_epik_Ionization_Penalty_Charging>
0

> <r_epik_Ionization_Penalty_Neutral>
3.49853e-05

> <r_epik_State_Penalty>
-0

> <r_epik_Charging_Adjusted_Penalty>
0

> <i_epik_Tot_Q>
0

> <i_epik_Tot_abs_Q>
0

> <r_epik_Metal_State_Penalty>
-0

> <b_epik_Metal_Only>
0

> <s_lp_Force_Field>
OPLS_2005

> <r_lp_Energy>
23.7986

> <b_lp_Chiralities_Consistent>
1

> <s_lp_Variant>
AV-unprocessed.smi:2752-2

> <Gold.Version>
5.8.1

> <Gold.Id.Protein>
6NUR|6NUR_protein|mol2

> <Gold.PLP.Fitness>
38.8584

> <Gold.PLP.PLP>
-33.6947

> <Gold.PLP.part.hbond>
-2.0000

> <Gold.PLP.part.metal>
0.0000

> <Gold.PLP.part.buried>
-4.4401

> <Gold.PLP.part.nonpolar>
-27.6651

> <Gold.PLP.part.repulsive>
0.3111

> <Gold.PLP.ligand.clash>
0.0000

> <Gold.PLP.ligand.torsion>
0.4242

> <Gold.PLP.Chemscore.Hbond>
2.0000

> <Gold.PLP.Chemscore.CHOScore>
0.0000

> <Gold.PLP.Chemscore.Metal>
0.0000

> <Gold.Chemscore.Hbonds>
donor molecule, donor type, donor heavy atom, donor atom, acceptor molecule, acceptor atom, score
      L1  H     8    30       P1  8028  1.00
      L1  H    11    31       P1  8028  1.00

> <Gold.PLP.Chemscore.Internal.Correction>
0.0120

> <Gold.Rescore>
     Score         DG    S(hbond)    S(metal)    S(lipo)     H(rot)  DE(clash)    DE(int)     intcor
     10.75     -17.42       1.91        0.00      75.47       1.28       0.22       6.44       ----

> <Gold.Chemscore.Fitness>
10.7517

> <Gold.Chemscore.DG>
-17.4155

> <Gold.Chemscore.ZeroCoef>
-5.4800

> <Gold.Chemscore.Hbond>
1.9126

> <Gold.Chemscore.Metal>
0.0000

> <Gold.Chemscore.Lipo>
75.4654

> <Gold.Chemscore.Internal_Hbond>
0.0000

> <Gold.Chemscore.DEClash>
0.2246

> <Gold.Chemscore.DEInternal>
6.4392

> <Gold.Chemscore.Rot>
1.2821

> <Gold.Chemscore.Internal.Correction>
   9.000000E+99

> <Gold.Chemscore.Hbonds>
donor molecule, donor type, donor heavy atom, donor atom, acceptor molecule, acceptor atom, score
      L1  H     8    30       P1  8028  1.00
      L1  H    11    31       P1  8028  0.83

> <Gold.Chemscore.Hbond.Weighted>
-6.3882

> <Gold.Chemscore.Metal.Weighted>
-0.0000

> <Gold.Chemscore.Lipo.Weighted>
-8.8295

> <Gold.Chemscore.Internal_Hbond.Weighted>
0.0000

> <Gold.Chemscore.DEClash.Weighted>
0.2246

> <Gold.Chemscore.DEInternal.Weighted>
6.4392

> <Gold.Chemscore.Rot.Weighted>
3.2822

> <Gold.Chemscore.Internal.Correction.Weighted>
   9.000000E+99

> <Gold.Protein.RotatedTorsions>
[ 6907 6896 6895 6894 ] final   60.82 input  -60.11 | X-H torsion
[ 7974 7965 7964 7962 ] final  -86.04 input  175.53 | X-H torsion
[ 8008 7997 7996 7995 ] final  -41.39 input   59.86 | X-H torsion
[ 10167 10162 10161 10158 ] final -176.38 input  -65.29 | X-H torsion
[ 10718 10713 10712 10709 ] final  -27.92 input   66.30 | X-H torsion
[ 10763 10752 10751 10750 ] final -121.02 input  -60.55 | X-H torsion
[ 11005 11000 10999 10996 ] final  -37.42 input  -57.11 | X-H torsion

> <Gold.Protein.ActiveResidues>
 VAL166  LYS551  ARG553  GLY616  TRP617  ASP618  TYR619  PRO620  LYS621  CYS622 
 ASP623  PHE694  ASN695  SER759  ASP760  ASP761  ALA762  ILE779  LEU786  VAL792 
 PHE793  MET794  SER795  GLU796  ALA797  LYS798  CYS799  TRP800  GLU811  SER814 

> <Gold.Protein.RotatedAtoms>
  152.4036  134.6244  160.0059 H   0  0  0  0  0  0  0  0  0  0  0  0  # atno 6907 bound_to 6896
  151.6442  133.3318  159.3145 H   0  0  0  0  0  0  0  0  0  0  0  0  # atno 6908 bound_to 6896
  150.7934  134.7016  159.6598 H   0  0  0  0  0  0  0  0  0  0  0  0  # atno 6909 bound_to 6896
  145.4853  140.9555  143.1842 H   0  0  0  0  0  0  0  0  0  0  0  0  # atno 7974 bound_to 7965
  154.4004  140.1500  156.3183 H   0  0  0  0  0  0  0  0  0  0  0  0  # atno 8008 bound_to 7997
  155.8553  140.3456  155.5698 H   0  0  0  0  0  0  0  0  0  0  0  0  # atno 8009 bound_to 7997
  155.7940  140.0860  157.1984 H   0  0  0  0  0  0  0  0  0  0  0  0  # atno 8010 bound_to 7997
  139.5532  144.2055  152.1114 H   0  0  0  0  0  0  0  0  0  0  0  0  # atno 10167 bound_to 10162
  156.4319  130.4447  149.7112 H   0  0  0  0  0  0  0  0  0  0  0  0  # atno 10718 bound_to 10713
  154.8658  135.4182  154.2553 H   0  0  0  0  0  0  0  0  0  0  0  0  # atno 10763 bound_to 10752
  153.3492  135.6998  153.6808 H   0  0  0  0  0  0  0  0  0  0  0  0  # atno 10764 bound_to 10752
  153.5755  135.3583  155.2827 H   0  0  0  0  0  0  0  0  0  0  0  0  # atno 10765 bound_to 10752
  140.9950  133.6985  156.1919 H   0  0  0  0  0  0  0  0  0  0  0  0  # atno 11005 bound_to 11000
  144.7865  139.6416  143.7132 LP  0  0  0  0  0  0  0  0  0  0  0  0  # atno 17320 bound_to 7965
  146.2317  139.5826  142.9551 LP  0  0  0  0  0  0  0  0  0  0  0  0  # atno 17321 bound_to 7965
  140.1554  144.5075  150.6663 LP  0  0  0  0  0  0  0  0  0  0  0  0  # atno 17342 bound_to 10162
  140.6800  143.2322  151.5409 LP  0  0  0  0  0  0  0  0  0  0  0  0  # atno 17343 bound_to 10162
  156.4011  130.7675  151.2683 LP  0  0  0  0  0  0  0  0  0  0  0  0  # atno 17370 bound_to 10713
  157.7508  131.0239  150.3855 LP  0  0  0  0  0  0  0  0  0  0  0  0  # atno 17371 bound_to 10713
  140.6979  134.4595  157.5587 LP  0  0  0  0  0  0  0  0  0  0  0  0  # atno 17394 bound_to 11000
  139.9010  134.8555  156.1895 LP  0  0  0  0  0  0  0  0  0  0  0  0  # atno 17395 bound_to 11000

$$$$
