AV-unprocessed.smi:1434|AV-procd|sdf|5850|dock5
  -GOLD-   22720 5513D 1   1.00000     0.00000
 Structure written by MMmdl.
 44 45  0  0  0  0  0  0  0  0  1 V2000
  147.1021  141.0332  153.1839 C   0  0  0  0  0  0  0  0  0  0  0  0
  147.1945  139.4653  154.1372 S   0  0  0  0  0  0  0  0  0  0  0  0
  147.2957  139.7789  155.5704 O   0  0  0  0  0  0  0  0  0  0  0  0
  146.1431  138.5575  153.6537 O   0  0  0  0  0  0  0  0  0  0  0  0
  148.7121  138.8139  153.6425 N   0  0  0  0  0  0  0  0  0  0  0  0
  149.8101  138.8353  154.6076 C   0  0  1  0  0  0  0  0  0  0  0  0
  150.9964  137.9872  154.1024 C   0  0  0  0  0  0  0  0  0  0  0  0
  152.2259  138.1217  155.0244 C   0  0  0  0  0  0  0  0  0  0  0  0
  152.5338  139.6001  155.3319 C   0  0  0  0  0  0  0  0  0  0  0  0
  151.3231  140.2265  155.8876 N   0  0  0  0  0  0  0  0  0  0  0  0
  151.0831  140.4938  157.1952 C   0  0  0  0  0  0  0  0  0  0  0  0
  149.9546  140.7059  157.6410 O   0  0  0  0  0  0  0  0  0  0  0  0
  152.1654  140.4155  157.9900 N   0  0  0  0  0  0  0  0  0  0  0  0
  152.1433  140.4162  159.4517 C   0  0  0  0  0  0  0  0  0  0  0  0
  153.0839  141.4847  160.0489 C   0  0  0  0  0  0  0  0  0  0  0  0
  152.6353  142.9164  159.7975 C   0  0  0  0  0  0  0  0  0  0  0  0
  152.6387  143.4545  158.4922 C   0  0  0  0  0  0  0  0  0  0  0  0
  152.2578  144.7990  158.3185 C   0  0  0  0  0  0  0  0  0  0  0  0
  151.8905  145.5507  159.4504 C   0  0  0  0  0  0  0  0  0  0  0  0
  151.9103  144.9188  160.7096 C   0  0  0  0  0  0  0  0  0  0  0  0
  152.2684  143.6285  160.8867 N   0  0  0  0  0  0  0  0  0  0  0  0
  150.2508  140.2841  154.8885 C   0  0  0  0  0  0  0  0  0  0  0  0
  146.1653  141.5404  153.4135 H   0  0  0  0  0  0  0  0  0  0  0  0
  147.1438  140.8145  152.1171 H   0  0  0  0  0  0  0  0  0  0  0  0
  147.9382  141.6764  153.4572 H   0  0  0  0  0  0  0  0  0  0  0  0
  149.0040  139.1998  152.7450 H   0  0  0  0  0  0  0  0  0  0  0  0
  149.4508  138.4080  155.5444 H   0  0  0  0  0  0  0  0  0  0  0  0
  150.7059  136.9393  154.0172 H   0  0  0  0  0  0  0  0  0  0  0  0
  151.2720  138.3140  153.0987 H   0  0  0  0  0  0  0  0  0  0  0  0
  152.0397  137.5894  155.9574 H   0  0  0  0  0  0  0  0  0  0  0  0
  153.0915  137.6439  154.5648 H   0  0  0  0  0  0  0  0  0  0  0  0
  153.4021  139.6833  155.9861 H   0  0  0  0  0  0  0  0  0  0  0  0
  152.8158  140.1178  154.4140 H   0  0  0  0  0  0  0  0  0  0  0  0
  153.0564  140.2364  157.5505 H   0  0  0  0  0  0  0  0  0  0  0  0
  151.1213  140.6014  159.7818 H   0  0  0  0  0  0  0  0  0  0  0  0
  152.4107  139.4321  159.8398 H   0  0  0  0  0  0  0  0  0  0  0  0
  153.1682  141.3282  161.1249 H   0  0  0  0  0  0  0  0  0  0  0  0
  154.0897  141.3544  159.6477 H   0  0  0  0  0  0  0  0  0  0  0  0
  152.9388  142.8570  157.6442 H   0  0  0  0  0  0  0  0  0  0  0  0
  152.2585  145.2486  157.3364 H   0  0  0  0  0  0  0  0  0  0  0  0
  151.6023  146.5873  159.3559 H   0  0  0  0  0  0  0  0  0  0  0  0
  151.6322  145.4644  161.5989 H   0  0  0  0  0  0  0  0  0  0  0  0
  150.6170  140.7602  153.9775 H   0  0  0  0  0  0  0  0  0  0  0  0
  149.3998  140.8832  155.2169 H   0  0  0  0  0  0  0  0  0  0  0  0
  1  2  1  0  0  0  0
  1 23  1  0  0  0  0
  1 24  1  0  0  0  0
  1 25  1  0  0  0  0
  2  3  2  0  0  0  0
  2  4  2  0  0  0  0
  2  5  1  0  0  0  0
  5  6  1  0  0  0  0
  5 26  1  0  0  0  0
  6 22  1  0  0  0  0
  6  7  1  0  0  0  0
  6 27  1  0  0  0  0
  7  8  1  0  0  0  0
  7 28  1  0  0  0  0
  7 29  1  0  0  0  0
  8  9  1  0  0  0  0
  8 30  1  0  0  0  0
  8 31  1  0  0  0  0
  9 10  1  0  0  0  0
  9 32  1  0  0  0  0
  9 33  1  0  0  0  0
 10 11  1  0  0  0  0
 10 22  1  0  0  0  0
 11 12  2  0  0  0  0
 11 13  1  0  0  0  0
 13 14  1  0  0  0  0
 13 34  1  0  0  0  0
 14 15  1  0  0  0  0
 14 35  1  0  0  0  0
 14 36  1  0  0  0  0
 15 16  1  0  0  0  0
 15 37  1  0  0  0  0
 15 38  1  0  0  0  0
 16 21  1  0  0  0  0
 16 17  2  0  0  0  0
 17 18  1  0  0  0  0
 17 39  1  0  0  0  0
 18 19  2  0  0  0  0
 18 40  1  0  0  0  0
 19 20  1  0  0  0  0
 19 41  1  0  0  0  0
 20 21  2  0  0  0  0
 20 42  1  0  0  0  0
 22 43  1  0  0  0  0
 22 44  1  0  0  0  0
M  END
> <s_m_source_file>
AV-unprocessed.smi

> <i_m_source_file_index>
1434

> <i_lp_mmshare_version>
43012

> <i_f3d_flags>
0

> <s_epik_input>
W0NIM11TKD1PKSg9TylbTkhdW0NAQEhdMVtDSDJdW0NIMl1bQ0gyXU4oW0NIMl0xKUMoPU8pW05IXVtDSDJdW0NIMl1jMltjSF1bY0hdW2NIXVtjSF1uMg==

> <s_epik_cmdline>
J2VwaWtfcHl0aG9uJywgJy1waCcsICc3LjAnLCAnLXRuJywgJzgnLCAnLW1hJywgJzIwMCcsICctbWV0YWxfYmluZGluZycsICctaW1hZScsICc8aW5maWxlLm1hZT4nLCAnLW9tYWUnLCAnPG91dGZpbGUubWFlPic=

> <r_epik_Ionization_Penalty>
0.0449488

> <r_epik_Ionization_Penalty_Charging>
0

> <r_epik_Ionization_Penalty_Neutral>
0.0449488

> <r_epik_State_Penalty>
0.0380669

> <r_epik_Charging_Adjusted_Penalty>
0.0380669

> <i_epik_Tot_Q>
0

> <i_epik_Tot_abs_Q>
0

> <r_epik_Metal_State_Penalty>
0.0441384

> <b_epik_Metal_Only>
0

> <s_lp_Force_Field>
OPLS_2005

> <r_lp_Energy>
20.2695

> <b_lp_Chiralities_Consistent>
1

> <s_lp_Variant>
AV-unprocessed.smi:1434-2

> <Gold.Version>
5.8.1

> <Gold.Id.Protein>
6NUR|6NUR_protein|mol2

> <Gold.PLP.Fitness>
51.5282

> <Gold.PLP.PLP>
-49.1605

> <Gold.PLP.part.hbond>
-1.6724

> <Gold.PLP.part.metal>
0.0000

> <Gold.PLP.part.buried>
-2.4849

> <Gold.PLP.part.nonpolar>
-45.0118

> <Gold.PLP.part.repulsive>
0.3851

> <Gold.PLP.ligand.clash>
0.0000

> <Gold.PLP.ligand.torsion>
0.4008

> <Gold.PLP.Chemscore.Hbond>
1.0000

> <Gold.PLP.Chemscore.CHOScore>
0.0000

> <Gold.PLP.Chemscore.Metal>
0.0000

> <Gold.Chemscore.Hbonds>
donor molecule, donor type, donor heavy atom, donor atom, acceptor molecule, acceptor atom, score
      L1  H     5    26       P1  7957  1.00

> <Gold.PLP.Chemscore.Internal.Correction>
0.1693

> <Gold.Rescore>
     Score         DG    S(hbond)    S(metal)    S(lipo)     H(rot)  DE(clash)    DE(int)     intcor
     17.82     -18.24       0.99        0.00     125.21       2.03       0.05       0.37       ----

> <Gold.Chemscore.Fitness>
17.8205

> <Gold.Chemscore.DG>
-18.2394

> <Gold.Chemscore.ZeroCoef>
-5.4800

> <Gold.Chemscore.Hbond>
0.9932

> <Gold.Chemscore.Metal>
0.0000

> <Gold.Chemscore.Lipo>
125.2067

> <Gold.Chemscore.Internal_Hbond>
0.0000

> <Gold.Chemscore.DEClash>
0.0485

> <Gold.Chemscore.DEInternal>
0.3704

> <Gold.Chemscore.Rot>
2.0340

> <Gold.Chemscore.Internal.Correction>
   9.000000E+99

> <Gold.Chemscore.Hbonds>
donor molecule, donor type, donor heavy atom, donor atom, acceptor molecule, acceptor atom, score
      L1  H     5    26       P1  7957  1.00

> <Gold.Chemscore.Hbond.Weighted>
-3.3173

> <Gold.Chemscore.Metal.Weighted>
-0.0000

> <Gold.Chemscore.Lipo.Weighted>
-14.6492

> <Gold.Chemscore.Internal_Hbond.Weighted>
0.0000

> <Gold.Chemscore.DEClash.Weighted>
0.0485

> <Gold.Chemscore.DEInternal.Weighted>
0.3704

> <Gold.Chemscore.Rot.Weighted>
5.2071

> <Gold.Chemscore.Internal.Correction.Weighted>
   9.000000E+99

> <Gold.Protein.RotatedTorsions>
[ 6907 6896 6895 6894 ] final  -95.97 input  -60.11 | X-H torsion
[ 7974 7965 7964 7962 ] final  -21.19 input  175.53 | X-H torsion
[ 8008 7997 7996 7995 ] final -100.72 input   59.86 | X-H torsion
[ 10167 10162 10161 10158 ] final   96.49 input  -65.29 | X-H torsion
[ 10718 10713 10712 10709 ] final -109.10 input   66.30 | X-H torsion
[ 10763 10752 10751 10750 ] final -100.03 input  -60.55 | X-H torsion
[ 11005 11000 10999 10996 ] final -132.22 input  -57.11 | X-H torsion

> <Gold.Protein.ActiveResidues>
 VAL166  LYS551  ARG553  GLY616  TRP617  ASP618  TYR619  PRO620  LYS621  CYS622 
 ASP623  PHE694  ASN695  SER759  ASP760  ASP761  ALA762  ILE779  LEU786  VAL792 
 PHE793  MET794  SER795  GLU796  ALA797  LYS798  CYS799  TRP800  GLU811  SER814 

> <Gold.Protein.RotatedAtoms>
  150.6977  134.1575  159.4163 H   0  0  0  0  0  0  0  0  0  0  0  0  # atno 6907 bound_to 6896
  151.9556  135.0146  160.0554 H   0  0  0  0  0  0  0  0  0  0  0  0  # atno 6908 bound_to 6896
  152.1972  133.4780  159.5076 H   0  0  0  0  0  0  0  0  0  0  0  0  # atno 6909 bound_to 6896
  146.1747  140.4306  142.8518 H   0  0  0  0  0  0  0  0  0  0  0  0  # atno 7974 bound_to 7965
  154.8326  140.0439  157.1487 H   0  0  0  0  0  0  0  0  0  0  0  0  # atno 8008 bound_to 7997
  154.9136  140.3017  155.5233 H   0  0  0  0  0  0  0  0  0  0  0  0  # atno 8009 bound_to 7997
  156.2988  140.2353  156.4178 H   0  0  0  0  0  0  0  0  0  0  0  0  # atno 8010 bound_to 7997
  139.7889  144.6860  150.9920 H   0  0  0  0  0  0  0  0  0  0  0  0  # atno 10167 bound_to 10162
  156.0519  130.5746  150.8053 H   0  0  0  0  0  0  0  0  0  0  0  0  # atno 10718 bound_to 10713
  154.7546  135.4950  153.9352 H   0  0  0  0  0  0  0  0  0  0  0  0  # atno 10763 bound_to 10752
  153.1182  135.6725  153.9389 H   0  0  0  0  0  0  0  0  0  0  0  0  # atno 10764 bound_to 10752
  153.9129  135.3097  155.3427 H   0  0  0  0  0  0  0  0  0  0  0  0  # atno 10765 bound_to 10752
  140.9189  134.1470  157.4330 H   0  0  0  0  0  0  0  0  0  0  0  0  # atno 11005 bound_to 11000
  144.8217  140.6561  143.6348 LP  0  0  0  0  0  0  0  0  0  0  0  0  # atno 17320 bound_to 7965
  145.4245  139.1558  143.4056 LP  0  0  0  0  0  0  0  0  0  0  0  0  # atno 17321 bound_to 7965
  140.7820  143.4402  151.0563 LP  0  0  0  0  0  0  0  0  0  0  0  0  # atno 17342 bound_to 10162
  139.8080  143.7991  152.3169 LP  0  0  0  0  0  0  0  0  0  0  0  0  # atno 17343 bound_to 10162
  157.5454  131.0942  150.9770 LP  0  0  0  0  0  0  0  0  0  0  0  0  # atno 17370 bound_to 10713
  157.0043  130.5612  149.5314 LP  0  0  0  0  0  0  0  0  0  0  0  0  # atno 17371 bound_to 10713
  139.8771  134.9964  156.5793 LP  0  0  0  0  0  0  0  0  0  0  0  0  # atno 17394 bound_to 11000
  140.8013  133.8503  155.8729 LP  0  0  0  0  0  0  0  0  0  0  0  0  # atno 17395 bound_to 11000

$$$$
