AV-unprocessed.smi:107|AV-procd|sdf|1022|dock7
  -GOLD-   2262018 23D 1   1.00000     0.00000
 Structure written by MMmdl.
 30 31  0  0  0  0  0  0  0  0  2 V2000
  148.3338  138.6211  157.6688 C   0  0  0  0  0  0  0  0  0  0  0  0
  149.7561  139.0258  158.0141 C   0  0  0  0  0  0  0  0  0  0  0  0
  150.1750  140.3097  157.9569 C   0  0  0  0  0  0  0  0  0  0  0  0
  151.4732  140.6718  158.2705 N   0  0  0  0  0  0  0  0  0  0  0  0
  151.9160  142.1117  158.1731 C   0  0  1  0  0  0  0  0  0  0  0  0
  150.7958  142.9944  157.6382 C   0  0  0  0  0  0  0  0  0  0  0  0
  151.1006  144.3333  158.2996 C   0  0  1  0  0  0  0  0  0  0  0  0
  149.9073  144.9110  158.7966 O   0  0  0  0  0  0  0  0  0  0  0  0
  152.1611  144.0152  159.3829 C   0  0  1  0  0  0  0  0  0  0  0  0
  151.8936  144.5874  160.7879 C   0  0  0  0  0  0  0  0  0  0  0  0
  150.7906  143.9325  161.3780 O   0  0  0  0  0  0  0  0  0  0  0  0
  152.1937  142.5944  159.4450 O   0  0  0  0  0  0  0  0  0  0  0  0
  152.4140  139.6736  158.6325 C   0  0  0  0  0  0  0  0  0  0  0  0
  153.5720  140.0232  158.8620 O   0  0  0  0  0  0  0  0  0  0  0  0
  151.9983  138.3766  158.7022 N   0  5  0  0  0  0  0  0  0  0  0  0
  150.7198  137.9943  158.4181 C   0  0  0  0  0  0  0  0  0  0  0  0
  150.3577  136.8200  158.4879 O   0  0  0  0  0  0  0  0  0  0  0  0
  147.7334  139.4853  157.3834 H   0  0  0  0  0  0  0  0  0  0  0  0
  147.8548  138.1447  158.5245 H   0  0  0  0  0  0  0  0  0  0  0  0
  148.3305  137.9178  156.8355 H   0  0  0  0  0  0  0  0  0  0  0  0
  149.4738  141.0715  157.6499 H   0  0  0  0  0  0  0  0  0  0  0  0
  152.8288  142.1398  157.5749 H   0  0  0  0  0  0  0  0  0  0  0  0
  150.8082  143.0242  156.5483 H   0  0  0  0  0  0  0  0  0  0  0  0
  149.8361  142.5962  157.9731 H   0  0  0  0  0  0  0  0  0  0  0  0
  151.5277  145.0217  157.5694 H   0  0  0  0  0  0  0  0  0  0  0  0
  149.4022  145.2333  158.0661 H   0  0  0  0  0  0  0  0  0  0  0  0
  153.1296  144.3619  159.0169 H   0  0  0  0  0  0  0  0  0  0  0  0
  152.7482  144.4134  161.4421 H   0  0  0  0  0  0  0  0  0  0  0  0
  151.7218  145.6637  160.7502 H   0  0  0  0  0  0  0  0  0  0  0  0
  150.2228  144.5848  161.7589 H   0  0  0  0  0  0  0  0  0  0  0  0
  1  2  1  0  0  0  0
  1 18  1  0  0  0  0
  1 19  1  0  0  0  0
  1 20  1  0  0  0  0
  2 16  1  0  0  0  0
  2  3  2  0  0  0  0
  3  4  1  0  0  0  0
  3 21  1  0  0  0  0
  4  5  1  0  0  0  0
  4 13  1  0  0  0  0
  5 12  1  0  0  0  0
  5  6  1  0  0  0  0
  5 22  1  0  0  0  0
  6  7  1  0  0  0  0
  6 23  1  0  0  0  0
  6 24  1  0  0  0  0
  7  8  1  0  0  0  0
  7  9  1  0  0  0  0
  7 25  1  0  0  0  0
  8 26  1  0  0  0  0
  9 10  1  0  0  0  0
  9 12  1  0  0  0  0
  9 27  1  0  0  0  0
 10 11  1  0  0  0  0
 10 28  1  0  0  0  0
 10 29  1  0  0  0  0
 11 30  1  0  0  0  0
 13 14  2  0  0  0  0
 13 15  1  0  0  0  0
 15 16  1  0  0  0  0
 16 17  2  0  0  0  0
M  CHG  1  15  -1
M  END
> <s_m_source_file>
AV-unprocessed.smi

> <i_m_source_file_index>
107

> <i_lp_mmshare_version>
43012

> <i_f3d_flags>
0

> <s_epik_input>
Tz1jMVtuSF1jKD1PKW4oW2NIXWMxW0NIM10pW0NAQEhdMltDSDJdW0NAQEhdKFtPSF0pW0NASF0oTzIpW0NIMl1bT0hd

> <s_epik_cmdline>
J2VwaWtfcHl0aG9uJywgJy1waCcsICc3LjAnLCAnLXRuJywgJzgnLCAnLW1hJywgJzIwMCcsICctbWV0YWxfYmluZGluZycsICctaW1hZScsICc8aW5maWxlLm1hZT4nLCAnLW9tYWUnLCAnPG91dGZpbGUubWFlPic=

> <r_lp_tautomer_probability>
0.999537

> <r_epik_Ionization_Penalty>
3.66603

> <r_epik_Ionization_Penalty_Charging>
1.09773e-07

> <r_epik_Ionization_Penalty_Neutral>
3.66603

> <r_epik_State_Penalty>
3.66562

> <r_epik_Charging_Adjusted_Penalty>
3.66562

> <i_epik_Tot_Q>
-1

> <i_epik_Tot_abs_Q>
1

> <r_epik_Metal_State_Penalty>
0.234536

> <b_epik_Metal_Only>
1

> <s_epik_Chemistry_Notes>
This compound contains an acetal/aminal-like group ( X-CH(R)-Y where X, Y are N, S, or O) that may be acid/base labile, releasing an aldehyde.

> <s_lp_Force_Field>
OPLS_2005

> <r_lp_Energy>
40.7451

> <b_lp_Chiralities_Consistent>
1

> <s_lp_Variant>
AV-unprocessed.smi:107-10

> <Gold.Version>
5.8.1

> <Gold.Id.Protein>
6NUR|6NUR_protein|mol2

> <Gold.PLP.Fitness>
39.6405

> <Gold.PLP.PLP>
-31.0131

> <Gold.PLP.part.hbond>
-5.3036

> <Gold.PLP.part.metal>
0.0000

> <Gold.PLP.part.buried>
-6.0681

> <Gold.PLP.part.nonpolar>
-20.1465

> <Gold.PLP.part.repulsive>
0.0000

> <Gold.PLP.ligand.clash>
0.0000

> <Gold.PLP.ligand.torsion>
0.1384

> <Gold.PLP.Chemscore.Hbond>
2.9600

> <Gold.PLP.Chemscore.CHOScore>
0.0000

> <Gold.PLP.Chemscore.Metal>
0.0000

> <Gold.Chemscore.Hbonds>
donor molecule, donor type, donor heavy atom, donor atom, acceptor molecule, acceptor atom, score
      L1  H     8    26       P1  8029  1.00
      P1  H  6896  6908       L1    17  0.26
      P1  H  7997  8009       L1    14  0.94

> <Gold.PLP.Chemscore.Internal.Correction>
0.0242

> <Gold.Rescore>
     Score         DG    S(hbond)    S(metal)    S(lipo)     H(rot)  DE(clash)    DE(int)     intcor
     12.75     -13.30       2.71        0.00      48.19       2.69       0.20       0.34       ----

> <Gold.Chemscore.Fitness>
12.7543

> <Gold.Chemscore.DG>
-13.2965

> <Gold.Chemscore.ZeroCoef>
-5.4800

> <Gold.Chemscore.Hbond>
2.7118

> <Gold.Chemscore.Metal>
0.0000

> <Gold.Chemscore.Lipo>
48.1891

> <Gold.Chemscore.Internal_Hbond>
0.0000

> <Gold.Chemscore.DEClash>
0.2047

> <Gold.Chemscore.DEInternal>
0.3375

> <Gold.Chemscore.Rot>
2.6871

> <Gold.Chemscore.Internal.Correction>
   9.000000E+99

> <Gold.Chemscore.Hbonds>
donor molecule, donor type, donor heavy atom, donor atom, acceptor molecule, acceptor atom, score
      L1  H     8    26       P1  8029  0.34
      P1  H  6896  6908       L1    17  0.26
      P1  H  6933  6945       L1    11  0.01
      P1  H  7997  8009       L1    14  0.74

> <Gold.Chemscore.Hbond.Weighted>
-9.0575

> <Gold.Chemscore.Metal.Weighted>
-0.0000

> <Gold.Chemscore.Lipo.Weighted>
-5.6381

> <Gold.Chemscore.Internal_Hbond.Weighted>
0.0000

> <Gold.Chemscore.DEClash.Weighted>
0.2047

> <Gold.Chemscore.DEInternal.Weighted>
0.3375

> <Gold.Chemscore.Rot.Weighted>
6.8791

> <Gold.Chemscore.Internal.Correction.Weighted>
   9.000000E+99

> <Gold.Protein.RotatedTorsions>
[ 6907 6896 6895 6894 ] final -166.43 input  -60.11 | X-H torsion
[ 7974 7965 7964 7962 ] final -158.19 input  175.53 | X-H torsion
[ 8008 7997 7996 7995 ] final  141.58 input   59.86 | X-H torsion
[ 10167 10162 10161 10158 ] final  -38.05 input  -65.29 | X-H torsion
[ 10718 10713 10712 10709 ] final   16.77 input   66.30 | X-H torsion
[ 10763 10752 10751 10750 ] final  -90.31 input  -60.55 | X-H torsion
[ 11005 11000 10999 10996 ] final   45.21 input  -57.11 | X-H torsion

> <Gold.Protein.ActiveResidues>
 VAL166  LYS551  ARG553  GLY616  TRP617  ASP618  TYR619  PRO620  LYS621  CYS622 
 ASP623  PHE694  ASN695  SER759  ASP760  ASP761  ALA762  ILE779  LEU786  VAL792 
 PHE793  MET794  SER795  GLU796  ALA797  LYS798  CYS799  TRP800  GLU811  SER814 

> <Gold.Protein.RotatedAtoms>
  151.4435  133.3637  159.2784 H   0  0  0  0  0  0  0  0  0  0  0  0  # atno 6907 bound_to 6896
  150.9140  134.8559  159.7455 H   0  0  0  0  0  0  0  0  0  0  0  0  # atno 6908 bound_to 6896
  152.4947  134.4368  159.9582 H   0  0  0  0  0  0  0  0  0  0  0  0  # atno 6909 bound_to 6896
  144.7516  140.3862  143.6044 H   0  0  0  0  0  0  0  0  0  0  0  0  # atno 7974 bound_to 7965
  156.2963  140.2311  156.4588 H   0  0  0  0  0  0  0  0  0  0  0  0  # atno 8008 bound_to 7997
  154.8037  140.0447  157.1312 H   0  0  0  0  0  0  0  0  0  0  0  0  # atno 8009 bound_to 7997
  154.9504  140.3041  155.5081 H   0  0  0  0  0  0  0  0  0  0  0  0  # atno 8010 bound_to 7997
  140.7102  143.3302  151.2586 H   0  0  0  0  0  0  0  0  0  0  0  0  # atno 10167 bound_to 10162
  157.0726  130.6354  149.5809 H   0  0  0  0  0  0  0  0  0  0  0  0  # atno 10718 bound_to 10713
  154.6645  135.5309  153.8059 H   0  0  0  0  0  0  0  0  0  0  0  0  # atno 10763 bound_to 10752
  153.0462  135.6514  154.0821 H   0  0  0  0  0  0  0  0  0  0  0  0  # atno 10764 bound_to 10752
  154.0726  135.2953  155.3285 H   0  0  0  0  0  0  0  0  0  0  0  0  # atno 10765 bound_to 10752
  140.1481  134.4497  155.8401 H   0  0  0  0  0  0  0  0  0  0  0  0  # atno 11005 bound_to 11000
  145.6924  139.1642  143.2639 LP  0  0  0  0  0  0  0  0  0  0  0  0  # atno 17320 bound_to 7965
  146.1473  140.6974  142.9338 LP  0  0  0  0  0  0  0  0  0  0  0  0  # atno 17321 bound_to 7965
  139.6782  143.9900  152.2793 LP  0  0  0  0  0  0  0  0  0  0  0  0  # atno 17342 bound_to 10162
  139.9522  144.6613  150.8161 LP  0  0  0  0  0  0  0  0  0  0  0  0  # atno 17343 bound_to 10162
  155.9946  130.5010  150.7426 LP  0  0  0  0  0  0  0  0  0  0  0  0  # atno 17370 bound_to 10713
  157.4866  131.0907  151.0476 LP  0  0  0  0  0  0  0  0  0  0  0  0  # atno 17371 bound_to 10713
  141.2195  133.6860  156.7370 LP  0  0  0  0  0  0  0  0  0  0  0  0  # atno 17394 bound_to 11000
  140.2639  134.8445  157.3784 LP  0  0  0  0  0  0  0  0  0  0  0  0  # atno 17395 bound_to 11000

$$$$
