AV-unprocessed.smi:2855|AV-procd|sdf|10977|dock9
  -GOLD-   2272015433D 1   1.00000     0.00000
 Structure written by MMmdl.
 47 48  0  0  0  0  0  0  0  0  1 V2000
  140.9487  135.5196  163.0773 C   0  0  0  0  0  0  0  0  0  0  0  0
  142.3771  135.3932  162.5286 C   0  0  2  0  0  0  0  0  0  0  0  0
  143.1525  134.2672  163.2301 C   0  0  0  0  0  0  0  0  0  0  0  0
  144.5839  134.1357  162.6865 C   0  0  0  0  0  0  0  0  0  0  0  0
  145.3875  135.4557  162.8029 C   0  0  1  0  0  0  0  0  0  0  0  0
  146.8506  135.3101  162.2779 C   0  0  0  0  0  0  0  0  0  0  0  0
  147.4256  133.8999  162.5128 C   0  0  0  0  0  0  0  0  0  0  0  0
  147.8129  136.3445  162.8940 C   0  0  0  0  0  0  0  0  0  0  0  0
  144.5960  136.6158  162.1340 C   0  0  1  0  0  0  0  0  0  0  0  0
  144.6094  136.4851  160.6771 N   0  0  0  0  0  0  0  0  0  0  0  0
  145.2282  137.3097  159.8195 C   0  0  0  0  0  0  0  0  0  0  0  0
  145.8112  138.3377  160.1654 O   0  0  0  0  0  0  0  0  0  0  0  0
  145.1722  136.9127  158.3393 C   0  0  0  0  0  0  0  0  0  0  0  0
  144.7824  135.5073  158.1598 N   0  0  0  0  0  0  0  0  0  0  0  0
  145.6416  134.4851  158.5375 C   0  0  0  0  0  0  0  0  0  0  0  0
  145.3386  133.1715  158.4094 C   0  0  0  0  0  0  0  0  0  0  0  0
  144.0545  132.7602  157.8519 C   0  0  0  0  0  0  0  0  0  0  0  0
  143.6893  131.5974  157.6957 O   0  0  0  0  0  0  0  0  0  0  0  0
  143.2169  133.8174  157.4859 N   0  0  0  0  0  0  0  0  0  0  0  0
  143.5222  135.1730  157.6157 C   0  0  0  0  0  0  0  0  0  0  0  0
  142.7082  136.0269  157.2645 O   0  0  0  0  0  0  0  0  0  0  0  0
  143.1490  136.7183  162.6575 C   0  0  0  0  0  0  0  0  0  0  0  0
  142.3155  133.5809  157.0975 H   0  0  0  0  0  0  0  0  0  0  0  0
  140.9517  135.7660  164.1395 H   0  0  0  0  0  0  0  0  0  0  0  0
  140.3969  134.5875  162.9534 H   0  0  0  0  0  0  0  0  0  0  0  0
  140.3957  136.3014  162.5561 H   0  0  0  0  0  0  0  0  0  0  0  0
  142.2984  135.1424  161.4699 H   0  0  0  0  0  0  0  0  0  0  0  0
  143.1892  134.4568  164.3039 H   0  0  0  0  0  0  0  0  0  0  0  0
  142.6273  133.3198  163.1031 H   0  0  0  0  0  0  0  0  0  0  0  0
  145.0734  133.3362  163.2401 H   0  0  0  0  0  0  0  0  0  0  0  0
  144.5510  133.8111  161.6456 H   0  0  0  0  0  0  0  0  0  0  0  0
  145.4526  135.6944  163.8657 H   0  0  0  0  0  0  0  0  0  0  0  0
  146.8499  135.4759  161.1998 H   0  0  0  0  0  0  0  0  0  0  0  0
  147.3675  133.6178  163.5645 H   0  0  0  0  0  0  0  0  0  0  0  0
  148.4734  133.8484  162.2155 H   0  0  0  0  0  0  0  0  0  0  0  0
  146.9042  133.1421  161.9295 H   0  0  0  0  0  0  0  0  0  0  0  0
  147.8112  136.2884  163.9828 H   0  0  0  0  0  0  0  0  0  0  0  0
  147.5574  137.3641  162.6078 H   0  0  0  0  0  0  0  0  0  0  0  0
  148.8361  136.1789  162.5559 H   0  0  0  0  0  0  0  0  0  0  0  0
  145.0841  137.5519  162.4083 H   0  0  0  0  0  0  0  0  0  0  0  0
  144.1474  135.6725  160.2951 H   0  0  0  0  0  0  0  0  0  0  0  0
  144.4845  137.5615  157.7923 H   0  0  0  0  0  0  0  0  0  0  0  0
  146.1542  137.0994  157.9025 H   0  0  0  0  0  0  0  0  0  0  0  0
  146.6026  134.7421  158.9600 H   0  0  0  0  0  0  0  0  0  0  0  0
  146.0495  132.4207  158.7227 H   0  0  0  0  0  0  0  0  0  0  0  0
  142.6188  137.5133  162.1312 H   0  0  0  0  0  0  0  0  0  0  0  0
  143.1741  137.0174  163.7062 H   0  0  0  0  0  0  0  0  0  0  0  0
  1  2  1  0  0  0  0
  1 24  1  0  0  0  0
  1 25  1  0  0  0  0
  1 26  1  0  0  0  0
  2 22  1  0  0  0  0
  2  3  1  0  0  0  0
  2 27  1  0  0  0  0
  3  4  1  0  0  0  0
  3 28  1  0  0  0  0
  3 29  1  0  0  0  0
  4  5  1  0  0  0  0
  4 30  1  0  0  0  0
  4 31  1  0  0  0  0
  5  6  1  0  0  0  0
  5  9  1  0  0  0  0
  5 32  1  0  0  0  0
  6  7  1  0  0  0  0
  6  8  1  0  0  0  0
  6 33  1  0  0  0  0
  7 34  1  0  0  0  0
  7 35  1  0  0  0  0
  7 36  1  0  0  0  0
  8 37  1  0  0  0  0
  8 38  1  0  0  0  0
  8 39  1  0  0  0  0
  9 10  1  0  0  0  0
  9 22  1  0  0  0  0
  9 40  1  0  0  0  0
 10 11  1  0  0  0  0
 10 41  1  0  0  0  0
 11 12  2  0  0  0  0
 11 13  1  0  0  0  0
 13 14  1  0  0  0  0
 13 42  1  0  0  0  0
 13 43  1  0  0  0  0
 14 20  1  0  0  0  0
 14 15  1  0  0  0  0
 15 16  2  0  0  0  0
 15 44  1  0  0  0  0
 16 17  1  0  0  0  0
 16 45  1  0  0  0  0
 17 18  2  0  0  0  0
 17 19  1  0  0  0  0
 19 23  1  0  0  0  0
 19 20  1  0  0  0  0
 20 21  2  0  0  0  0
 22 46  1  0  0  0  0
 22 47  1  0  0  0  0
M  END
> <s_m_source_file>
AV-unprocessed.smi

> <i_m_source_file_index>
2855

> <i_lp_mmshare_version>
43012

> <i_f3d_flags>
0

> <s_epik_input>
W0NIM11bQ0BASF0xW0NIMl1bQ0gyXVtDQEBIXShbQ0hdKFtDSDNdKVtDSDNdKVtDQEhdKFtDSDJdMSlbTkhdQyg9TylbQ0gyXW4yW2NIXVtjSF1jKD1PKVtuSF1jMj1P

> <s_epik_cmdline>
J2VwaWtfcHl0aG9uJywgJy1waCcsICc3LjAnLCAnLXRuJywgJzgnLCAnLW1hJywgJzIwMCcsICctbWV0YWxfYmluZGluZycsICctaW1hZScsICc8aW5maWxlLm1hZT4nLCAnLW9tYWUnLCAnPG91dGZpbGUubWFlPic=

> <r_lp_tautomer_probability>
0.999537

> <r_epik_Ionization_Penalty>
0.00306256

> <r_epik_Ionization_Penalty_Charging>
0.00306254

> <r_epik_Ionization_Penalty_Neutral>
2.0223e-08

> <r_epik_State_Penalty>
0.0021533

> <r_epik_Charging_Adjusted_Penalty>
0.00521583

> <i_epik_Tot_Q>
0

> <i_epik_Tot_abs_Q>
0

> <r_epik_Metal_State_Penalty>
0.362116

> <b_epik_Metal_Only>
0

> <s_lp_Force_Field>
OPLS_2005

> <r_lp_Energy>
12.8991

> <b_lp_Chiralities_Consistent>
1

> <s_lp_Variant>
AV-unprocessed.smi:2855-1

> <Gold.Version>
5.8.1

> <Gold.Id.Protein>
6NUR|6NUR_protein|mol2

> <Gold.PLP.Fitness>
35.5298

> <Gold.PLP.PLP>
-32.0265

> <Gold.PLP.part.hbond>
-2.9094

> <Gold.PLP.part.metal>
0.0000

> <Gold.PLP.part.buried>
-5.4747

> <Gold.PLP.part.nonpolar>
-24.3783

> <Gold.PLP.part.repulsive>
0.9415

> <Gold.PLP.ligand.clash>
0.0000

> <Gold.PLP.ligand.torsion>
0.8158

> <Gold.PLP.Chemscore.Hbond>
1.6960

> <Gold.PLP.Chemscore.CHOScore>
0.0000

> <Gold.PLP.Chemscore.Metal>
0.0000

> <Gold.Chemscore.Hbonds>
donor molecule, donor type, donor heavy atom, donor atom, acceptor molecule, acceptor atom, score
      L1  H    19    23       P1 11000  0.97
      P1  H  6934  6947       L1    12  0.72

> <Gold.PLP.Chemscore.Internal.Correction>
0.0468

> <Gold.Rescore>
     Score         DG    S(hbond)    S(metal)    S(lipo)     H(rot)  DE(clash)    DE(int)     intcor
     13.95     -14.96       1.70        0.00      73.05       1.85       0.07       0.94       ----

> <Gold.Chemscore.Fitness>
13.9491

> <Gold.Chemscore.DG>
-14.9606

> <Gold.Chemscore.ZeroCoef>
-5.4800

> <Gold.Chemscore.Hbond>
1.7005

> <Gold.Chemscore.Metal>
0.0000

> <Gold.Chemscore.Lipo>
73.0518

> <Gold.Chemscore.Internal_Hbond>
0.0000

> <Gold.Chemscore.DEClash>
0.0729

> <Gold.Chemscore.DEInternal>
0.9386

> <Gold.Chemscore.Rot>
1.8539

> <Gold.Chemscore.Internal.Correction>
   9.000000E+99

> <Gold.Chemscore.Hbonds>
donor molecule, donor type, donor heavy atom, donor atom, acceptor molecule, acceptor atom, score
      L1  H    19    23       P1 11000  0.82
      P1  H  6934  6947       L1    12  0.72

> <Gold.Chemscore.Hbond.Weighted>
-5.6795

> <Gold.Chemscore.Metal.Weighted>
-0.0000

> <Gold.Chemscore.Lipo.Weighted>
-8.5471

> <Gold.Chemscore.Internal_Hbond.Weighted>
0.0000

> <Gold.Chemscore.DEClash.Weighted>
0.0729

> <Gold.Chemscore.DEInternal.Weighted>
0.9386

> <Gold.Chemscore.Rot.Weighted>
4.7460

> <Gold.Chemscore.Internal.Correction.Weighted>
   9.000000E+99

> <Gold.Protein.RotatedTorsions>
[ 6907 6896 6895 6894 ] final   -2.02 input  -60.11 | X-H torsion
[ 7974 7965 7964 7962 ] final  154.58 input  175.53 | X-H torsion
[ 8008 7997 7996 7995 ] final   35.28 input   59.86 | X-H torsion
[ 10167 10162 10161 10158 ] final  174.15 input  -65.29 | X-H torsion
[ 10718 10713 10712 10709 ] final  -64.05 input   66.30 | X-H torsion
[ 10763 10752 10751 10750 ] final   99.28 input  -60.55 | X-H torsion
[ 11005 11000 10999 10996 ] final   66.79 input  -57.11 | X-H torsion

> <Gold.Protein.ActiveResidues>
 VAL166  LYS551  ARG553  GLY616  TRP617  ASP618  TYR619  PRO620  LYS621  CYS622 
 ASP623  PHE694  ASN695  SER759  ASP760  ASP761  ALA762  ILE779  LEU786  VAL792 
 PHE793  MET794  SER795  GLU796  ALA797  LYS798  CYS799  TRP800  GLU811  SER814 

> <Gold.Protein.RotatedAtoms>
  151.5366  135.1068  159.9915 H   0  0  0  0  0  0  0  0  0  0  0  0  # atno 6907 bound_to 6896
  152.4554  133.7709  159.6808 H   0  0  0  0  0  0  0  0  0  0  0  0  # atno 6908 bound_to 6896
  150.8496  133.7742  159.3055 H   0  0  0  0  0  0  0  0  0  0  0  0  # atno 6909 bound_to 6896
  144.8079  139.6953  143.6154 H   0  0  0  0  0  0  0  0  0  0  0  0  # atno 7974 bound_to 7965
  155.1685  140.3289  155.4397 H   0  0  0  0  0  0  0  0  0  0  0  0  # atno 8008 bound_to 7997
  156.2518  140.1947  156.6740 H   0  0  0  0  0  0  0  0  0  0  0  0  # atno 8009 bound_to 7997
  154.6354  140.0577  156.9769 H   0  0  0  0  0  0  0  0  0  0  0  0  # atno 8010 bound_to 7997
  139.5132  144.3179  152.0230 H   0  0  0  0  0  0  0  0  0  0  0  0  # atno 10167 bound_to 10162
  156.0753  130.4228  150.1364 H   0  0  0  0  0  0  0  0  0  0  0  0  # atno 10718 bound_to 10713
  153.2995  135.4119  155.1239 H   0  0  0  0  0  0  0  0  0  0  0  0  # atno 10763 bound_to 10752
  154.8545  135.3538  154.5872 H   0  0  0  0  0  0  0  0  0  0  0  0  # atno 10764 bound_to 10752
  153.6296  135.7061  153.5338 H   0  0  0  0  0  0  0  0  0  0  0  0  # atno 10765 bound_to 10752
  139.9810  134.6744  156.0263 H   0  0  0  0  0  0  0  0  0  0  0  0  # atno 11005 bound_to 11000
  146.2374  139.5932  142.9515 LP  0  0  0  0  0  0  0  0  0  0  0  0  # atno 17320 bound_to 7965
  145.5393  141.0422  143.2339 LP  0  0  0  0  0  0  0  0  0  0  0  0  # atno 17321 bound_to 7965
  140.2622  144.4055  150.6181 LP  0  0  0  0  0  0  0  0  0  0  0  0  # atno 17342 bound_to 10162
  140.6149  143.2171  151.6812 LP  0  0  0  0  0  0  0  0  0  0  0  0  # atno 17343 bound_to 10162
  156.9407  130.9743  151.3516 LP  0  0  0  0  0  0  0  0  0  0  0  0  # atno 17370 bound_to 10713
  157.5845  130.8400  149.8570 LP  0  0  0  0  0  0  0  0  0  0  0  0  # atno 17371 bound_to 10713
  141.1482  133.6552  156.3931 LP  0  0  0  0  0  0  0  0  0  0  0  0  # atno 17394 bound_to 11000
  140.5097  134.6407  157.5280 LP  0  0  0  0  0  0  0  0  0  0  0  0  # atno 17395 bound_to 11000

$$$$
