AV-unprocessed.smi:1478|AV-procd|sdf|5982|dock4
  -GOLD-   22720 6 73D 1   1.00000     0.00000
 Structure written by MMmdl.
 46 47  0  0  0  0  0  0  0  0  1 V2000
  152.3659  142.8047  160.4388 C   0  0  0  0  0  0  0  0  0  0  0  0
  152.6909  142.5501  159.0834 O   0  0  0  0  0  0  0  0  0  0  0  0
  151.6151  142.8335  158.2051 C   0  0  0  0  0  0  0  0  0  0  0  0
  150.6093  141.6738  158.2619 C   0  0  0  0  0  0  0  0  0  0  0  0
  150.3430  141.1254  156.9282 N   0  0  0  0  0  0  0  0  0  0  0  0
  149.0753  141.4046  156.4446 N   0  0  0  0  0  0  0  0  0  0  0  0
  148.7136  140.9713  155.2800 C   0  0  0  0  0  0  0  0  0  0  0  0
  147.3614  141.2519  154.7216 C   0  0  0  0  0  0  0  0  0  0  0  0
  146.7931  140.4613  153.9665 O   0  0  0  0  0  0  0  0  0  0  0  0
  146.8112  142.4181  155.1066 N   0  0  0  0  0  0  0  0  0  0  0  0
  145.5011  142.9247  154.6985 C   0  0  0  0  0  0  0  0  0  0  0  0
  144.5024  143.1256  155.8746 C   0  0  0  0  0  0  0  0  0  0  0  0
  143.7137  141.7930  156.0053 C   0  0  0  0  0  0  0  0  0  0  0  0
  142.8709  141.4469  155.0267 N   0  0  0  0  0  0  0  0  0  0  0  0
  143.8490  141.0820  157.0000 O   0  0  0  0  0  0  0  0  0  0  0  0
  145.2341  143.5137  157.1923 C   0  0  0  0  0  0  0  0  0  0  0  0
  144.2546  143.8898  158.3224 C   0  0  0  0  0  0  0  0  0  0  0  0
  143.4184  144.9605  157.9002 O   0  0  0  0  0  0  0  0  0  0  0  0
  142.6199  144.6319  156.7691 C   0  0  0  0  0  0  0  0  0  0  0  0
  143.5277  144.2977  155.5689 C   0  0  0  0  0  0  0  0  0  0  0  0
  149.6233  140.1852  154.4633 C   0  0  0  0  0  0  0  0  0  0  0  0
  150.8556  139.9196  154.9493 C   0  0  0  0  0  0  0  0  0  0  0  0
  151.2903  140.3985  156.2622 C   0  0  0  0  0  0  0  0  0  0  0  0
  152.4056  140.1663  156.7277 O   0  0  0  0  0  0  0  0  0  0  0  0
  153.2222  142.5710  161.0713 H   0  0  0  0  0  0  0  0  0  0  0  0
  151.5273  142.1885  160.7667 H   0  0  0  0  0  0  0  0  0  0  0  0
  152.1106  143.8540  160.5920 H   0  0  0  0  0  0  0  0  0  0  0  0
  151.1360  143.7695  158.4965 H   0  0  0  0  0  0  0  0  0  0  0  0
  151.9874  142.9564  157.1867 H   0  0  0  0  0  0  0  0  0  0  0  0
  150.9975  140.8907  158.9159 H   0  0  0  0  0  0  0  0  0  0  0  0
  149.6800  142.0064  158.7281 H   0  0  0  0  0  0  0  0  0  0  0  0
  147.3475  143.0036  155.7310 H   0  0  0  0  0  0  0  0  0  0  0  0
  145.6795  143.8778  154.1983 H   0  0  0  0  0  0  0  0  0  0  0  0
  145.0641  142.2740  153.9383 H   0  0  0  0  0  0  0  0  0  0  0  0
  142.3506  140.5839  155.0913 H   0  0  0  0  0  0  0  0  0  0  0  0
  142.7595  142.0498  154.2245 H   0  0  0  0  0  0  0  0  0  0  0  0
  145.9086  142.7227  157.5219 H   0  0  0  0  0  0  0  0  0  0  0  0
  145.8718  144.3804  157.0200 H   0  0  0  0  0  0  0  0  0  0  0  0
  143.6458  143.0401  158.6333 H   0  0  0  0  0  0  0  0  0  0  0  0
  144.8116  144.2116  159.2023 H   0  0  0  0  0  0  0  0  0  0  0  0
  141.9482  143.8066  157.0091 H   0  0  0  0  0  0  0  0  0  0  0  0
  141.9890  145.4877  156.5291 H   0  0  0  0  0  0  0  0  0  0  0  0
  144.0900  145.1977  155.3191 H   0  0  0  0  0  0  0  0  0  0  0  0
  142.9174  144.0838  154.6903 H   0  0  0  0  0  0  0  0  0  0  0  0
  149.3296  139.8184  153.4904 H   0  0  0  0  0  0  0  0  0  0  0  0
  151.5418  139.3364  154.3529 H   0  0  0  0  0  0  0  0  0  0  0  0
  1  2  1  0  0  0  0
  1 25  1  0  0  0  0
  1 26  1  0  0  0  0
  1 27  1  0  0  0  0
  2  3  1  0  0  0  0
  3  4  1  0  0  0  0
  3 28  1  0  0  0  0
  3 29  1  0  0  0  0
  4  5  1  0  0  0  0
  4 30  1  0  0  0  0
  4 31  1  0  0  0  0
  5 23  1  0  0  0  0
  5  6  1  0  0  0  0
  6  7  2  0  0  0  0
  7  8  1  0  0  0  0
  7 21  1  0  0  0  0
  8  9  2  0  0  0  0
  8 10  1  0  0  0  0
 10 11  1  0  0  0  0
 10 32  1  0  0  0  0
 11 12  1  0  0  0  0
 11 33  1  0  0  0  0
 11 34  1  0  0  0  0
 12 20  1  0  0  0  0
 12 13  1  0  0  0  0
 12 16  1  0  0  0  0
 13 14  1  0  0  0  0
 13 15  2  0  0  0  0
 14 35  1  0  0  0  0
 14 36  1  0  0  0  0
 16 17  1  0  0  0  0
 16 37  1  0  0  0  0
 16 38  1  0  0  0  0
 17 18  1  0  0  0  0
 17 39  1  0  0  0  0
 17 40  1  0  0  0  0
 18 19  1  0  0  0  0
 19 20  1  0  0  0  0
 19 41  1  0  0  0  0
 19 42  1  0  0  0  0
 20 43  1  0  0  0  0
 20 44  1  0  0  0  0
 21 22  2  0  0  0  0
 21 45  1  0  0  0  0
 22 23  1  0  0  0  0
 22 46  1  0  0  0  0
 23 24  2  0  0  0  0
M  END
> <s_m_source_file>
AV-unprocessed.smi

> <i_m_source_file_index>
1478

> <i_lp_mmshare_version>
43012

> <i_f3d_flags>
0

> <s_epik_input>
W0NIM11PW0NIMl1bQ0gyXW4xbmMoW2NIXVtjSF1jMT1PKUMoPU8pW05IXVtDSDJdQzIoQyg9TylbTkgyXSlbQ0gyXVtDSDJdT1tDSDJdW0NIMl0y

> <s_epik_cmdline>
J2VwaWtfcHl0aG9uJywgJy1waCcsICc3LjAnLCAnLXRuJywgJzgnLCAnLW1hJywgJzIwMCcsICctbWV0YWxfYmluZGluZycsICctaW1hZScsICc8aW5maWxlLm1hZT4nLCAnLW9tYWUnLCAnPG91dGZpbGUubWFlPic=

> <r_lp_tautomer_probability>
1

> <r_epik_Ionization_Penalty>
1.88897e-06

> <r_epik_Ionization_Penalty_Charging>
5.89949e-09

> <r_epik_Ionization_Penalty_Neutral>
1.88307e-06

> <r_epik_State_Penalty>
-0

> <r_epik_Charging_Adjusted_Penalty>
5.89949e-09

> <i_epik_Tot_Q>
0

> <i_epik_Tot_abs_Q>
0

> <r_epik_Metal_State_Penalty>
-0

> <b_epik_Metal_Only>
0

> <s_lp_Force_Field>
OPLS_2005

> <r_lp_Energy>
34.3796

> <b_lp_Chiralities_Consistent>
1

> <s_lp_Variant>
AV-unprocessed.smi:1478-1

> <Gold.Version>
5.8.1

> <Gold.Id.Protein>
6NUR|6NUR_protein|mol2

> <Gold.PLP.Fitness>
40.2738

> <Gold.PLP.PLP>
-34.5265

> <Gold.PLP.part.hbond>
-4.0000

> <Gold.PLP.part.metal>
0.0000

> <Gold.PLP.part.buried>
-1.8738

> <Gold.PLP.part.nonpolar>
-28.0033

> <Gold.PLP.part.repulsive>
0.4220

> <Gold.PLP.ligand.clash>
0.0000

> <Gold.PLP.ligand.torsion>
1.7342

> <Gold.PLP.Chemscore.Hbond>
3.0000

> <Gold.PLP.Chemscore.CHOScore>
0.0000

> <Gold.PLP.Chemscore.Metal>
0.0000

> <Gold.Chemscore.Hbonds>
donor molecule, donor type, donor heavy atom, donor atom, acceptor molecule, acceptor atom, score
      L1  H    10    32       P1  8028  0.26
      L1  H    14    36       P1 10174  0.61
      P1  H  7997  8010       L1    24  1.00

> <Gold.PLP.Chemscore.Internal.Correction>
0.2156

> <Gold.Rescore>
     Score         DG    S(hbond)    S(metal)    S(lipo)     H(rot)  DE(clash)    DE(int)     intcor
     10.26     -12.60       1.61        0.00      73.84       2.69       0.37       1.97       ----

> <Gold.Chemscore.Fitness>
10.2583

> <Gold.Chemscore.DG>
-12.5975

> <Gold.Chemscore.ZeroCoef>
-5.4800

> <Gold.Chemscore.Hbond>
1.6094

> <Gold.Chemscore.Metal>
0.0000

> <Gold.Chemscore.Lipo>
73.8429

> <Gold.Chemscore.Internal_Hbond>
0.0000

> <Gold.Chemscore.DEClash>
0.3738

> <Gold.Chemscore.DEInternal>
1.9654

> <Gold.Chemscore.Rot>
2.6944

> <Gold.Chemscore.Internal.Correction>
   9.000000E+99

> <Gold.Chemscore.Hbonds>
donor molecule, donor type, donor heavy atom, donor atom, acceptor molecule, acceptor atom, score
      L1  H    10    32       P1  8028  0.04
      L1  H    14    36       P1 10174  0.09
      P1  H  7997  8010       L1    24  0.96

> <Gold.Chemscore.Hbond.Weighted>
-5.3755

> <Gold.Chemscore.Metal.Weighted>
-0.0000

> <Gold.Chemscore.Lipo.Weighted>
-8.6396

> <Gold.Chemscore.Internal_Hbond.Weighted>
0.0000

> <Gold.Chemscore.DEClash.Weighted>
0.3738

> <Gold.Chemscore.DEInternal.Weighted>
1.9654

> <Gold.Chemscore.Rot.Weighted>
6.8976

> <Gold.Chemscore.Internal.Correction.Weighted>
   9.000000E+99

> <Gold.Protein.RotatedTorsions>
[ 6907 6896 6895 6894 ] final -124.17 input  -60.11 | X-H torsion
[ 7974 7965 7964 7962 ] final  168.40 input  175.53 | X-H torsion
[ 8008 7997 7996 7995 ] final   75.81 input   59.86 | X-H torsion
[ 10167 10162 10161 10158 ] final  -51.93 input  -65.29 | X-H torsion
[ 10718 10713 10712 10709 ] final  -10.42 input   66.30 | X-H torsion
[ 10763 10752 10751 10750 ] final   -2.89 input  -60.55 | X-H torsion
[ 11005 11000 10999 10996 ] final  104.42 input  -57.11 | X-H torsion

> <Gold.Protein.ActiveResidues>
 VAL166  LYS551  ARG553  GLY616  TRP617  ASP618  TYR619  PRO620  LYS621  CYS622 
 ASP623  PHE694  ASN695  SER759  ASP760  ASP761  ALA762  ILE779  LEU786  VAL792 
 PHE793  MET794  SER795  GLU796  ALA797  LYS798  CYS799  TRP800  GLU811  SER814 

> <Gold.Protein.RotatedAtoms>
  150.8742  133.7462  159.2951 H   0  0  0  0  0  0  0  0  0  0  0  0  # atno 6907 bound_to 6896
  151.5064  135.1062  159.9852 H   0  0  0  0  0  0  0  0  0  0  0  0  # atno 6908 bound_to 6896
  152.4716  133.7998  159.7002 H   0  0  0  0  0  0  0  0  0  0  0  0  # atno 6909 bound_to 6896
  144.7390  139.8902  143.6402 H   0  0  0  0  0  0  0  0  0  0  0  0  # atno 7974 bound_to 7965
  155.8183  140.3470  155.5499 H   0  0  0  0  0  0  0  0  0  0  0  0  # atno 8008 bound_to 7997
  155.8369  140.0935  157.1778 H   0  0  0  0  0  0  0  0  0  0  0  0  # atno 8009 bound_to 7997
  154.4004  140.1402  156.3669 H   0  0  0  0  0  0  0  0  0  0  0  0  # atno 8010 bound_to 7997
  140.6563  143.2602  151.4575 H   0  0  0  0  0  0  0  0  0  0  0  0  # atno 10167 bound_to 10162
  156.6738  130.5017  149.5992 H   0  0  0  0  0  0  0  0  0  0  0  0  # atno 10718 bound_to 10713
  153.3641  135.6991  153.6689 H   0  0  0  0  0  0  0  0  0  0  0  0  # atno 10763 bound_to 10752
  153.5366  135.3581  155.2700 H   0  0  0  0  0  0  0  0  0  0  0  0  # atno 10764 bound_to 10752
  154.8672  135.4193  154.2904 H   0  0  0  0  0  0  0  0  0  0  0  0  # atno 10765 bound_to 10752
  139.8792  134.9299  156.5359 H   0  0  0  0  0  0  0  0  0  0  0  0  # atno 11005 bound_to 11000
  146.1148  139.4157  143.0265 LP  0  0  0  0  0  0  0  0  0  0  0  0  # atno 17320 bound_to 7965
  145.7391  141.0014  143.1310 LP  0  0  0  0  0  0  0  0  0  0  0  0  # atno 17321 bound_to 7965
  139.5787  144.1760  152.1938 LP  0  0  0  0  0  0  0  0  0  0  0  0  # atno 17342 bound_to 10162
  140.1078  144.5483  150.6945 LP  0  0  0  0  0  0  0  0  0  0  0  0  # atno 17343 bound_to 10162
  156.1919  130.6565  151.1071 LP  0  0  0  0  0  0  0  0  0  0  0  0  # atno 17370 bound_to 10713
  157.7068  131.0753  150.6639 LP  0  0  0  0  0  0  0  0  0  0  0  0  # atno 17371 bound_to 10713
  140.8346  133.8252  155.9017 LP  0  0  0  0  0  0  0  0  0  0  0  0  # atno 17394 bound_to 11000
  140.9295  134.2039  157.4873 LP  0  0  0  0  0  0  0  0  0  0  0  0  # atno 17395 bound_to 11000

$$$$
