AV-unprocessed.smi:3048|AV-procd|sdf|11628|dock1
  -GOLD-   2272017 13D 1   1.00000     0.00000
 Structure written by MMmdl.
 37 38  0  0  0  0  0  0  0  0  1 V2000
  154.1792  141.1955  161.6777 C   0  0  0  0  0  0  0  0  0  0  0  0
  153.3328  142.3664  161.2688 C   0  0  0  0  0  0  0  0  0  0  0  0
  152.7733  143.3749  162.1041 C   0  0  0  0  0  0  0  0  0  0  0  0
  152.0694  144.2696  161.4299 N   0  0  0  0  0  0  0  0  0  0  0  0
  152.1536  143.8651  160.1449 N   0  0  0  0  0  0  0  0  0  0  0  0
  151.4813  144.6212  159.1039 C   0  0  0  0  0  0  0  0  0  0  0  0
  151.8153  144.1031  157.6958 C   0  0  0  0  0  0  0  0  0  0  0  0
  150.8133  143.1516  157.2234 N   0  0  0  0  0  0  0  0  0  0  0  0
  151.3859  141.9148  156.7031 C   0  0  0  0  0  0  0  0  0  0  0  0
  150.2854  140.9262  156.2892 C   0  0  1  0  0  0  0  0  0  0  0  0
  149.2871  141.5652  155.3044 C   0  0  0  0  0  0  0  0  0  0  0  0
  148.2533  140.5336  154.8375 C   0  0  0  0  0  0  0  0  0  0  0  0
  148.9696  139.2956  154.2876 C   0  0  0  0  0  0  0  0  0  0  0  0
  149.9914  138.7733  155.3097 C   0  0  0  0  0  0  0  0  0  0  0  0
  150.9055  139.8104  155.6524 O   0  0  0  0  0  0  0  0  0  0  0  0
  152.9113  142.7202  160.0185 C   0  0  0  0  0  0  0  0  0  0  0  0
  154.7554  141.4081  162.5783 H   0  0  0  0  0  0  0  0  0  0  0  0
  154.8909  140.9196  160.8993 H   0  0  0  0  0  0  0  0  0  0  0  0
  153.5708  140.3149  161.8850 H   0  0  0  0  0  0  0  0  0  0  0  0
  152.8568  143.4818  163.1756 H   0  0  0  0  0  0  0  0  0  0  0  0
  150.4057  144.5603  159.2759 H   0  0  0  0  0  0  0  0  0  0  0  0
  151.7531  145.6734  159.2002 H   0  0  0  0  0  0  0  0  0  0  0  0
  151.8924  144.9438  157.0053 H   0  0  0  0  0  0  0  0  0  0  0  0
  152.7954  143.6252  157.7127 H   0  0  0  0  0  0  0  0  0  0  0  0
  150.2399  143.5880  156.5082 H   0  0  0  0  0  0  0  0  0  0  0  0
  152.0002  142.1463  155.8318 H   0  0  0  0  0  0  0  0  0  0  0  0
  152.0480  141.4565  157.4387 H   0  0  0  0  0  0  0  0  0  0  0  0
  149.7474  140.5906  157.1783 H   0  0  0  0  0  0  0  0  0  0  0  0
  148.7816  142.4103  155.7730 H   0  0  0  0  0  0  0  0  0  0  0  0
  149.8237  141.9610  154.4410 H   0  0  0  0  0  0  0  0  0  0  0  0
  147.6163  140.2474  155.6754 H   0  0  0  0  0  0  0  0  0  0  0  0
  147.5998  140.9645  154.0783 H   0  0  0  0  0  0  0  0  0  0  0  0
  148.2463  138.5174  154.0426 H   0  0  0  0  0  0  0  0  0  0  0  0
  149.4825  139.5505  153.3594 H   0  0  0  0  0  0  0  0  0  0  0  0
  149.4922  138.4026  156.2063 H   0  0  0  0  0  0  0  0  0  0  0  0
  150.5492  137.9369  154.8883 H   0  0  0  0  0  0  0  0  0  0  0  0
  153.0820  142.2548  159.0587 H   0  0  0  0  0  0  0  0  0  0  0  0
  1  2  1  0  0  0  0
  1 17  1  0  0  0  0
  1 18  1  0  0  0  0
  1 19  1  0  0  0  0
  2 16  2  0  0  0  0
  2  3  1  0  0  0  0
  3  4  2  0  0  0  0
  3 20  1  0  0  0  0
  4  5  1  0  0  0  0
  5  6  1  0  0  0  0
  5 16  1  0  0  0  0
  6  7  1  0  0  0  0
  6 21  1  0  0  0  0
  6 22  1  0  0  0  0
  7  8  1  0  0  0  0
  7 23  1  0  0  0  0
  7 24  1  0  0  0  0
  8  9  1  0  0  0  0
  8 25  1  0  0  0  0
  9 10  1  0  0  0  0
  9 26  1  0  0  0  0
  9 27  1  0  0  0  0
 10 15  1  0  0  0  0
 10 11  1  0  0  0  0
 10 28  1  0  0  0  0
 11 12  1  0  0  0  0
 11 29  1  0  0  0  0
 11 30  1  0  0  0  0
 12 13  1  0  0  0  0
 12 31  1  0  0  0  0
 12 32  1  0  0  0  0
 13 14  1  0  0  0  0
 13 33  1  0  0  0  0
 13 34  1  0  0  0  0
 14 15  1  0  0  0  0
 14 35  1  0  0  0  0
 14 36  1  0  0  0  0
 16 37  1  0  0  0  0
M  END
> <s_m_source_file>
AV-unprocessed.smi

> <i_m_source_file_index>
3048

> <i_lp_mmshare_version>
43012

> <i_f3d_flags>
0

> <s_epik_input>
W0NIM11jMVtjSF1ubihbY0hdMSlbQ0gyXVtDSDJdW05IXVtDSDJdW0NAQEhdMltDSDJdW0NIMl1bQ0gyXVtDSDJdTzI=

> <s_epik_cmdline>
J2VwaWtfcHl0aG9uJywgJy1waCcsICc3LjAnLCAnLXRuJywgJzgnLCAnLW1hJywgJzIwMCcsICctbWV0YWxfYmluZGluZycsICctaW1hZScsICc8aW5maWxlLm1hZT4nLCAnLW9tYWUnLCAnPG91dGZpbGUubWFlPic=

> <r_lp_tautomer_probability>
1

> <r_epik_Ionization_Penalty>
2.52229

> <r_epik_Ionization_Penalty_Charging>
0

> <r_epik_Ionization_Penalty_Neutral>
2.52229

> <r_epik_State_Penalty>
2.68614

> <r_epik_Charging_Adjusted_Penalty>
2.68614

> <i_epik_Tot_Q>
0

> <i_epik_Tot_abs_Q>
0

> <r_epik_Metal_State_Penalty>
2.68365

> <b_epik_Metal_Only>
0

> <s_lp_Force_Field>
OPLS_2005

> <r_lp_Energy>
12.9812

> <b_lp_Chiralities_Consistent>
1

> <s_lp_Variant>
AV-unprocessed.smi:3048-4

> <Gold.Version>
5.8.1

> <Gold.Id.Protein>
6NUR|6NUR_protein|mol2

> <Gold.PLP.Fitness>
46.9578

> <Gold.PLP.PLP>
-42.0961

> <Gold.PLP.part.hbond>
-2.0000

> <Gold.PLP.part.metal>
0.0000

> <Gold.PLP.part.buried>
-2.2976

> <Gold.PLP.part.nonpolar>
-37.7476

> <Gold.PLP.part.repulsive>
0.1897

> <Gold.PLP.ligand.clash>
0.0000

> <Gold.PLP.ligand.torsion>
0.6457

> <Gold.PLP.Chemscore.Hbond>
2.0000

> <Gold.PLP.Chemscore.CHOScore>
0.0000

> <Gold.PLP.Chemscore.Metal>
0.0000

> <Gold.Chemscore.Hbonds>
donor molecule, donor type, donor heavy atom, donor atom, acceptor molecule, acceptor atom, score
      L1  H     8    25       P1  8028  1.00

> <Gold.PLP.Chemscore.Internal.Correction>
0.1531

> <Gold.Rescore>
     Score         DG    S(hbond)    S(metal)    S(lipo)     H(rot)  DE(clash)    DE(int)     intcor
     19.19     -20.72       1.93        0.00     108.78       1.54       0.76       0.76       ----

> <Gold.Chemscore.Fitness>
19.1950

> <Gold.Chemscore.DG>
-20.7198

> <Gold.Chemscore.ZeroCoef>
-5.4800

> <Gold.Chemscore.Hbond>
1.9335

> <Gold.Chemscore.Metal>
0.0000

> <Gold.Chemscore.Lipo>
108.7783

> <Gold.Chemscore.Internal_Hbond>
0.0000

> <Gold.Chemscore.DEClash>
0.7649

> <Gold.Chemscore.DEInternal>
0.7600

> <Gold.Chemscore.Rot>
1.5411

> <Gold.Chemscore.Internal.Correction>
   9.000000E+99

> <Gold.Chemscore.Hbonds>
donor molecule, donor type, donor heavy atom, donor atom, acceptor molecule, acceptor atom, score
      L1  H     8    25       P1  8028  0.98

> <Gold.Chemscore.Hbond.Weighted>
-6.4579

> <Gold.Chemscore.Metal.Weighted>
-0.0000

> <Gold.Chemscore.Lipo.Weighted>
-12.7271

> <Gold.Chemscore.Internal_Hbond.Weighted>
0.0000

> <Gold.Chemscore.DEClash.Weighted>
0.7649

> <Gold.Chemscore.DEInternal.Weighted>
0.7600

> <Gold.Chemscore.Rot.Weighted>
3.9452

> <Gold.Chemscore.Internal.Correction.Weighted>
   9.000000E+99

> <Gold.Protein.RotatedTorsions>
[ 6907 6896 6895 6894 ] final  152.93 input  -60.11 | X-H torsion
[ 7974 7965 7964 7962 ] final   12.01 input  175.53 | X-H torsion
[ 8008 7997 7996 7995 ] final  -68.74 input   59.86 | X-H torsion
[ 10167 10162 10161 10158 ] final   35.75 input  -65.29 | X-H torsion
[ 10718 10713 10712 10709 ] final -163.46 input   66.30 | X-H torsion
[ 10763 10752 10751 10750 ] final   11.18 input  -60.55 | X-H torsion
[ 11005 11000 10999 10996 ] final  140.41 input  -57.11 | X-H torsion

> <Gold.Protein.ActiveResidues>
 VAL166  LYS551  ARG553  GLY616  TRP617  ASP618  TYR619  PRO620  LYS621  CYS622 
 ASP623  PHE694  ASN695  SER759  ASP760  ASP761  ALA762  ILE779  LEU786  VAL792 
 PHE793  MET794  SER795  GLU796  ALA797  LYS798  CYS799  TRP800  GLU811  SER814 

> <Gold.Protein.RotatedAtoms>
  152.0798  133.4147  159.4496 H   0  0  0  0  0  0  0  0  0  0  0  0  # atno 6907 bound_to 6896
  150.6862  134.2995  159.4709 H   0  0  0  0  0  0  0  0  0  0  0  0  # atno 6908 bound_to 6896
  152.0835  134.9454  160.0624 H   0  0  0  0  0  0  0  0  0  0  0  0  # atno 6909 bound_to 6896
  146.2360  139.9400  142.8484 H   0  0  0  0  0  0  0  0  0  0  0  0  # atno 7974 bound_to 7965
  154.4889  140.0867  156.7549 H   0  0  0  0  0  0  0  0  0  0  0  0  # atno 8008 bound_to 7997
  155.4280  140.3448  155.4259 H   0  0  0  0  0  0  0  0  0  0  0  0  # atno 8009 bound_to 7997
  156.1301  140.1499  156.9066 H   0  0  0  0  0  0  0  0  0  0  0  0  # atno 8010 bound_to 7997
  140.4192  144.1483  150.6146 H   0  0  0  0  0  0  0  0  0  0  0  0  # atno 10167 bound_to 10162
  156.6250  130.8906  151.2966 H   0  0  0  0  0  0  0  0  0  0  0  0  # atno 10718 bound_to 10713
  153.1953  135.6848  153.8300 H   0  0  0  0  0  0  0  0  0  0  0  0  # atno 10763 bound_to 10752
  153.7585  135.3213  155.3334 H   0  0  0  0  0  0  0  0  0  0  0  0  # atno 10764 bound_to 10752
  154.8141  135.4698  154.0695 H   0  0  0  0  0  0  0  0  0  0  0  0  # atno 10765 bound_to 10752
  140.0325  134.9345  157.0690 H   0  0  0  0  0  0  0  0  0  0  0  0  # atno 11005 bound_to 11000
  145.1961  140.9834  143.4183 LP  0  0  0  0  0  0  0  0  0  0  0  0  # atno 17320 bound_to 7965
  144.9814  139.3779  143.6260 LP  0  0  0  0  0  0  0  0  0  0  0  0  # atno 17321 bound_to 7965
  140.4552  143.2470  151.9294 LP  0  0  0  0  0  0  0  0  0  0  0  0  # atno 17342 bound_to 10162
  139.4782  144.5523  151.8367 LP  0  0  0  0  0  0  0  0  0  0  0  0  # atno 17343 bound_to 10162
  157.7216  130.9567  150.1464 LP  0  0  0  0  0  0  0  0  0  0  0  0  # atno 17370 bound_to 10713
  156.2281  130.3679  149.8477 LP  0  0  0  0  0  0  0  0  0  0  0  0  # atno 17371 bound_to 10713
  140.4201  134.1889  155.7164 LP  0  0  0  0  0  0  0  0  0  0  0  0  # atno 17394 bound_to 11000
  141.1839  133.8355  157.1158 LP  0  0  0  0  0  0  0  0  0  0  0  0  # atno 17395 bound_to 11000

$$$$
