AV-unprocessed.smi:3253|AV-procd|sdf|12449|dock9
  -GOLD-   2272018343D 1   1.00000     0.00000
 Structure written by MMmdl.
 36 37  0  0  0  0  0  0  0  0  1 V2000
  151.2475  139.4564  154.7368 C   0  0  0  0  0  0  0  0  0  0  0  0
  150.5555  140.5315  155.5956 C   0  0  2  0  0  0  0  0  0  0  0  0
  149.9212  141.6583  154.7564 C   0  0  0  0  0  0  0  0  0  0  0  0
  148.5547  141.3676  154.3650 N   0  0  0  0  0  0  0  0  0  0  0  0
  147.4174  142.1040  154.6708 C   0  0  0  0  0  0  0  0  0  0  0  0
  146.3558  141.4455  154.0923 C   0  0  0  0  0  0  0  0  0  0  0  0
  146.8130  140.3058  153.4348 N   0  0  0  0  0  0  0  0  0  0  0  0
  148.1231  140.3251  153.6420 C   0  0  0  0  0  0  0  0  0  0  0  0
  151.5064  141.1163  156.5373 N   0  0  0  0  0  0  0  0  0  0  0  0
  151.2062  142.0124  157.4906 C   0  0  0  0  0  0  0  0  0  0  0  0
  150.0674  142.4405  157.6814 O   0  0  0  0  0  0  0  0  0  0  0  0
  152.3728  142.5009  158.3635 C   0  0  2  0  0  0  0  0  0  0  0  0
  152.2220  142.0255  159.8231 C   0  0  0  0  0  0  0  0  0  0  0  0
  151.9725  143.3054  160.6037 C   0  0  0  0  0  0  0  0  0  0  0  0
  151.7065  143.3146  161.8045 O   0  0  0  0  0  0  0  0  0  0  0  0
  152.0744  144.3760  159.8116 N   0  0  0  0  0  0  0  0  0  0  0  0
  151.8841  145.7603  160.2227 C   0  0  0  0  0  0  0  0  0  0  0  0
  152.4429  144.0421  158.4463 C   0  0  0  0  0  0  0  0  0  0  0  0
  150.5405  138.9594  154.0725 H   0  0  0  0  0  0  0  0  0  0  0  0
  151.6990  138.6830  155.3590 H   0  0  0  0  0  0  0  0  0  0  0  0
  152.0357  139.8891  154.1203 H   0  0  0  0  0  0  0  0  0  0  0  0
  149.7571  140.0509  156.1646 H   0  0  0  0  0  0  0  0  0  0  0  0
  149.9200  142.5934  155.3185 H   0  0  0  0  0  0  0  0  0  0  0  0
  150.5086  141.8366  153.8544 H   0  0  0  0  0  0  0  0  0  0  0  0
  147.4560  143.0116  155.2550 H   0  0  0  0  0  0  0  0  0  0  0  0
  145.3064  141.7011  154.0997 H   0  0  0  0  0  0  0  0  0  0  0  0
  148.7856  139.5638  153.2569 H   0  0  0  0  0  0  0  0  0  0  0  0
  152.4680  140.8198  156.4548 H   0  0  0  0  0  0  0  0  0  0  0  0
  153.3086  142.1202  157.9501 H   0  0  0  0  0  0  0  0  0  0  0  0
  151.4019  141.3208  159.9738 H   0  0  0  0  0  0  0  0  0  0  0  0
  153.1387  141.5549  160.1797 H   0  0  0  0  0  0  0  0  0  0  0  0
  152.5650  146.0169  161.0348 H   0  0  0  0  0  0  0  0  0  0  0  0
  150.8615  145.9179  160.5676 H   0  0  0  0  0  0  0  0  0  0  0  0
  152.0718  146.4459  159.3958 H   0  0  0  0  0  0  0  0  0  0  0  0
  153.4561  144.3948  158.2497 H   0  0  0  0  0  0  0  0  0  0  0  0
  151.7781  144.5403  157.7381 H   0  0  0  0  0  0  0  0  0  0  0  0
  1  2  1  0  0  0  0
  1 19  1  0  0  0  0
  1 20  1  0  0  0  0
  1 21  1  0  0  0  0
  2  3  1  0  0  0  0
  2  9  1  0  0  0  0
  2 22  1  0  0  0  0
  3  4  1  0  0  0  0
  3 23  1  0  0  0  0
  3 24  1  0  0  0  0
  4  8  1  0  0  0  0
  4  5  1  0  0  0  0
  5  6  2  0  0  0  0
  5 25  1  0  0  0  0
  6  7  1  0  0  0  0
  6 26  1  0  0  0  0
  7  8  2  0  0  0  0
  8 27  1  0  0  0  0
  9 10  1  0  0  0  0
  9 28  1  0  0  0  0
 10 11  2  0  0  0  0
 10 12  1  0  0  0  0
 12 18  1  0  0  0  0
 12 13  1  0  0  0  0
 12 29  1  0  0  0  0
 13 14  1  0  0  0  0
 13 30  1  0  0  0  0
 13 31  1  0  0  0  0
 14 15  2  0  0  0  0
 14 16  1  0  0  0  0
 16 17  1  0  0  0  0
 16 18  1  0  0  0  0
 17 32  1  0  0  0  0
 17 33  1  0  0  0  0
 17 34  1  0  0  0  0
 18 35  1  0  0  0  0
 18 36  1  0  0  0  0
M  END
> <s_m_source_file>
AV-unprocessed.smi

> <i_m_source_file_index>
3253

> <i_lp_mmshare_version>
43012

> <i_f3d_flags>
0

> <s_epik_input>
W2NIXTFuW2NIXVtjSF1uMVtDSDJdW0NAQEhdKFtDSDNdKVtOSF1DKD1PKVtDQEBIXTJbQ0gyXUMoPU8pTihbQ0gzXSlbQ0gyXTI=

> <s_epik_cmdline>
J2VwaWtfcHl0aG9uJywgJy1waCcsICc3LjAnLCAnLXRuJywgJzgnLCAnLW1hJywgJzIwMCcsICctbWV0YWxfYmluZGluZycsICctaW1hZScsICc8aW5maWxlLm1hZT4nLCAnLW9tYWUnLCAnPG91dGZpbGUubWFlPic=

> <r_lp_tautomer_probability>
1

> <r_epik_Ionization_Penalty>
0.628884

> <r_epik_Ionization_Penalty_Charging>
0.628884

> <r_epik_Ionization_Penalty_Neutral>
2.35084e-08

> <r_epik_State_Penalty>
0.64556

> <r_epik_Charging_Adjusted_Penalty>
1.27444

> <i_epik_Tot_Q>
0

> <i_epik_Tot_abs_Q>
0

> <r_epik_Metal_State_Penalty>
0.308736

> <b_epik_Metal_Only>
0

> <s_lp_Force_Field>
OPLS_2005

> <r_lp_Energy>
13.4006

> <b_lp_Chiralities_Consistent>
1

> <s_lp_Variant>
AV-unprocessed.smi:3253-5

> <Gold.Version>
5.8.1

> <Gold.Id.Protein>
6NUR|6NUR_protein|mol2

> <Gold.PLP.Fitness>
44.2254

> <Gold.PLP.PLP>
-37.9214

> <Gold.PLP.part.hbond>
-0.5586

> <Gold.PLP.part.metal>
0.0000

> <Gold.PLP.part.buried>
-0.4372

> <Gold.PLP.part.nonpolar>
-37.3860

> <Gold.PLP.part.repulsive>
0.8142

> <Gold.PLP.ligand.clash>
0.0000

> <Gold.PLP.ligand.torsion>
0.5194

> <Gold.PLP.Chemscore.Hbond>
0.0520

> <Gold.PLP.Chemscore.CHOScore>
2.3829

> <Gold.PLP.Chemscore.Metal>
0.0000

> <Gold.Chemscore.Hbonds>
donor molecule, donor type, donor heavy atom, donor atom, acceptor molecule, acceptor atom, score
      P1  H  6933  6945       L1    15  0.20
      L1  C     5    25       P1  8028  1.00
      L1  C     6    26       P1 10175  0.68
      L1  C     8    27       P1  7957  0.67

> <Gold.PLP.Chemscore.Internal.Correction>
0.0381

> <Gold.Rescore>
     Score         DG    S(hbond)    S(metal)    S(lipo)     H(rot)  DE(clash)    DE(int)     intcor
      8.90     -10.49       0.55        0.00      70.08       1.97       0.67       0.92       ----

> <Gold.Chemscore.Fitness>
8.9048

> <Gold.Chemscore.DG>
-10.4930

> <Gold.Chemscore.ZeroCoef>
-5.4800

> <Gold.Chemscore.Hbond>
0.5535

> <Gold.Chemscore.Metal>
0.0000

> <Gold.Chemscore.Lipo>
70.0822

> <Gold.Chemscore.Internal_Hbond>
0.0000

> <Gold.Chemscore.DEClash>
0.6664

> <Gold.Chemscore.DEInternal>
0.9219

> <Gold.Chemscore.Rot>
1.9669

> <Gold.Chemscore.Internal.Correction>
   9.000000E+99

> <Gold.Chemscore.Hbonds>
donor molecule, donor type, donor heavy atom, donor atom, acceptor molecule, acceptor atom, score
      P1  H  6933  6945       L1    15  0.15

> <Gold.Chemscore.Hbond.Weighted>
-1.8486

> <Gold.Chemscore.Metal.Weighted>
-0.0000

> <Gold.Chemscore.Lipo.Weighted>
-8.1996

> <Gold.Chemscore.Internal_Hbond.Weighted>
0.0000

> <Gold.Chemscore.DEClash.Weighted>
0.6664

> <Gold.Chemscore.DEInternal.Weighted>
0.9219

> <Gold.Chemscore.Rot.Weighted>
5.0352

> <Gold.Chemscore.Internal.Correction.Weighted>
   9.000000E+99

> <Gold.Protein.RotatedTorsions>
[ 6907 6896 6895 6894 ] final   50.23 input  -60.11 | X-H torsion
[ 7974 7965 7964 7962 ] final   28.41 input  175.53 | X-H torsion
[ 8008 7997 7996 7995 ] final  -41.31 input   59.86 | X-H torsion
[ 10167 10162 10161 10158 ] final -113.92 input  -65.29 | X-H torsion
[ 10718 10713 10712 10709 ] final   67.81 input   66.30 | X-H torsion
[ 10763 10752 10751 10750 ] final -150.18 input  -60.55 | X-H torsion
[ 11005 11000 10999 10996 ] final  -14.77 input  -57.11 | X-H torsion

> <Gold.Protein.ActiveResidues>
 VAL166  LYS551  ARG553  GLY616  TRP617  ASP618  TYR619  PRO620  LYS621  CYS622 
 ASP623  PHE694  ASN695  SER759  ASP760  ASP761  ALA762  ILE779  LEU786  VAL792 
 PHE793  MET794  SER795  GLU796  ALA797  LYS798  CYS799  TRP800  GLU811  SER814 

> <Gold.Protein.RotatedAtoms>
  152.2996  134.7627  160.0360 H   0  0  0  0  0  0  0  0  0  0  0  0  # atno 6907 bound_to 6896
  151.8145  133.3381  159.3573 H   0  0  0  0  0  0  0  0  0  0  0  0  # atno 6908 bound_to 6896
  150.7267  134.5562  159.5864 H   0  0  0  0  0  0  0  0  0  0  0  0  # atno 6909 bound_to 6896
  146.1730  139.7059  142.8954 H   0  0  0  0  0  0  0  0  0  0  0  0  # atno 7974 bound_to 7965
  154.4005  140.1503  156.3169 H   0  0  0  0  0  0  0  0  0  0  0  0  # atno 8008 bound_to 7997
  155.8564  140.3455  155.5706 H   0  0  0  0  0  0  0  0  0  0  0  0  # atno 8009 bound_to 7997
  155.7928  140.0859  157.1990 H   0  0  0  0  0  0  0  0  0  0  0  0  # atno 8010 bound_to 7997
  140.1065  143.4565  152.1779 H   0  0  0  0  0  0  0  0  0  0  0  0  # atno 10167 bound_to 10162
  157.6252  130.9340  150.0292 H   0  0  0  0  0  0  0  0  0  0  0  0  # atno 10718 bound_to 10713
  154.8134  135.3291  154.7243 H   0  0  0  0  0  0  0  0  0  0  0  0  # atno 10763 bound_to 10752
  153.7888  135.6912  153.4879 H   0  0  0  0  0  0  0  0  0  0  0  0  # atno 10764 bound_to 10752
  153.1930  135.4544  155.0120 H   0  0  0  0  0  0  0  0  0  0  0  0  # atno 10765 bound_to 10752
  140.7898  133.8296  155.9369 H   0  0  0  0  0  0  0  0  0  0  0  0  # atno 11005 bound_to 11000
  145.4288  141.0413  143.2922 LP  0  0  0  0  0  0  0  0  0  0  0  0  # atno 17320 bound_to 7965
  144.8192  139.5822  143.6994 LP  0  0  0  0  0  0  0  0  0  0  0  0  # atno 17321 bound_to 7965
  139.5642  144.7425  151.4069 LP  0  0  0  0  0  0  0  0  0  0  0  0  # atno 17342 bound_to 10162
  140.6949  143.7773  150.7311 LP  0  0  0  0  0  0  0  0  0  0  0  0  # atno 17343 bound_to 10162
  156.1420  130.3642  149.9567 LP  0  0  0  0  0  0  0  0  0  0  0  0  # atno 17370 bound_to 10713
  156.7606  130.9149  151.3641 LP  0  0  0  0  0  0  0  0  0  0  0  0  # atno 17371 bound_to 10713
  140.9400  134.1912  157.4804 LP  0  0  0  0  0  0  0  0  0  0  0  0  # atno 17394 bound_to 11000
  139.8732  134.9868  156.5340 LP  0  0  0  0  0  0  0  0  0  0  0  0  # atno 17395 bound_to 11000

$$$$
