AV-unprocessed.smi:136|AV-procd|sdf|1174|dock3
  -GOLD-   2262018323D 1   1.00000     0.00000
 Structure written by MMmdl.
 54 58  0  0  0  0  0  0  0  0  1 V2000
  150.5788  138.0240  154.7037 O   0  0  0  0  0  0  0  0  0  0  0  0
  150.8287  138.2777  155.8836 C   0  0  0  0  0  0  0  0  0  0  0  0
  151.1186  137.1283  156.8721 C   0  0  0  0  0  0  0  0  0  0  0  0
  150.1224  136.0360  156.8191 N   0  0  0  0  0  0  0  0  0  0  0  0
  149.3485  135.7614  157.9741 C   0  0  0  0  0  0  0  0  0  0  0  0
  149.4871  136.4179  159.0071 O   0  0  0  0  0  0  0  0  0  0  0  0
  148.4027  134.6579  157.8505 C   0  0  0  0  0  0  0  0  0  0  0  0
  147.6302  134.3228  158.8978 F   0  0  0  0  0  0  0  0  0  0  0  0
  148.2924  133.9631  156.6995 C   0  0  0  0  0  0  0  0  0  0  0  0
  149.0535  134.2438  155.5796 N   0  0  0  0  0  0  0  0  0  0  0  0
  148.9157  133.4316  154.3113 C   0  0  1  0  0  0  0  0  0  0  0  0
  149.1806  131.9498  154.6004 C   0  0  0  0  0  0  0  0  0  0  0  0
  147.7806  131.4225  154.8290 C   0  0  0  0  0  0  0  0  0  0  0  0
  146.9733  132.2633  153.8467 C   0  0  0  0  0  0  0  0  0  0  0  0
  147.6037  133.5416  153.8383 O   0  0  0  0  0  0  0  0  0  0  0  0
  150.0043  135.2862  155.6245 C   0  0  0  0  0  0  0  0  0  0  0  0
  150.7208  135.5282  154.6504 O   0  0  0  0  0  0  0  0  0  0  0  0
  150.8692  139.5463  156.3492 N   0  0  0  0  0  0  0  0  0  0  0  0
  151.2862  139.8601  157.6015 N   0  0  0  0  0  0  0  0  0  0  0  0
  151.3853  141.1321  157.7207 C   0  0  0  0  0  0  0  0  0  0  0  0
  151.8227  141.8255  158.9526 C   0  0  0  0  0  0  0  0  0  0  0  0
  151.4101  143.1578  159.1829 C   0  0  0  0  0  0  0  0  0  0  0  0
  151.8254  143.8191  160.3551 C   0  0  0  0  0  0  0  0  0  0  0  0
  152.6456  143.1555  161.2897 C   0  0  0  0  0  0  0  0  0  0  0  0
  153.1518  143.9717  162.7230 Cl  0  0  0  0  0  0  0  0  0  0  0  0
  153.0530  141.8268  161.0558 C   0  0  0  0  0  0  0  0  0  0  0  0
  152.6445  141.1551  159.8868 C   0  0  0  0  0  0  0  0  0  0  0  0
  151.0175  141.8826  156.4855 C   0  0  0  0  0  0  0  0  0  0  0  0
  150.6165  140.7466  155.5407 C   0  0  2  0  0  0  0  0  0  0  0  0
  149.2011  140.8707  155.0517 C   0  0  0  0  0  0  0  0  0  0  0  0
  148.0263  140.2280  155.3391 C   0  0  0  0  0  0  0  0  0  0  0  0
  147.0259  140.8326  154.5295 C   0  0  0  0  0  0  0  0  0  0  0  0
  147.6613  141.8036  153.8101 C   0  0  0  0  0  0  0  0  0  0  0  0
  148.9859  141.8410  154.1184 O   0  0  0  0  0  0  0  0  0  0  0  0
  152.1245  136.7521  156.6801 H   0  0  0  0  0  0  0  0  0  0  0  0
  151.1748  137.5345  157.8835 H   0  0  0  0  0  0  0  0  0  0  0  0
  147.5800  133.1522  156.6680 H   0  0  0  0  0  0  0  0  0  0  0  0
  149.6032  133.8728  153.5878 H   0  0  0  0  0  0  0  0  0  0  0  0
  149.6198  131.4952  153.7117 H   0  0  0  0  0  0  0  0  0  0  0  0
  149.8567  131.8030  155.4438 H   0  0  0  0  0  0  0  0  0  0  0  0
  147.6905  130.3512  154.6481 H   0  0  0  0  0  0  0  0  0  0  0  0
  147.4629  131.6245  155.8527 H   0  0  0  0  0  0  0  0  0  0  0  0
  147.0342  131.8373  152.8443 H   0  0  0  0  0  0  0  0  0  0  0  0
  145.9210  132.3375  154.1210 H   0  0  0  0  0  0  0  0  0  0  0  0
  150.7814  143.6836  158.4788 H   0  0  0  0  0  0  0  0  0  0  0  0
  151.5134  144.8372  160.5361 H   0  0  0  0  0  0  0  0  0  0  0  0
  153.6806  141.3200  161.7743 H   0  0  0  0  0  0  0  0  0  0  0  0
  152.9702  140.1374  159.7310 H   0  0  0  0  0  0  0  0  0  0  0  0
  150.1939  142.5724  156.6761 H   0  0  0  0  0  0  0  0  0  0  0  0
  151.8660  142.4472  156.0973 H   0  0  0  0  0  0  0  0  0  0  0  0
  151.2923  140.7354  154.6837 H   0  0  0  0  0  0  0  0  0  0  0  0
  147.9027  139.4196  156.0448 H   0  0  0  0  0  0  0  0  0  0  0  0
  145.9749  140.5891  154.4806 H   0  0  0  0  0  0  0  0  0  0  0  0
  147.3384  142.5235  153.0725 H   0  0  0  0  0  0  0  0  0  0  0  0
  1  2  2  0  0  0  0
  2  3  1  0  0  0  0
  2 18  1  0  0  0  0
  3  4  1  0  0  0  0
  3 35  1  0  0  0  0
  3 36  1  0  0  0  0
  4 16  1  0  0  0  0
  4  5  1  0  0  0  0
  5  6  2  0  0  0  0
  5  7  1  0  0  0  0
  7  8  1  0  0  0  0
  7  9  2  0  0  0  0
  9 10  1  0  0  0  0
  9 37  1  0  0  0  0
 10 11  1  0  0  0  0
 10 16  1  0  0  0  0
 11 15  1  0  0  0  0
 11 12  1  0  0  0  0
 11 38  1  0  0  0  0
 12 13  1  0  0  0  0
 12 39  1  0  0  0  0
 12 40  1  0  0  0  0
 13 14  1  0  0  0  0
 13 41  1  0  0  0  0
 13 42  1  0  0  0  0
 14 15  1  0  0  0  0
 14 43  1  0  0  0  0
 14 44  1  0  0  0  0
 16 17  2  0  0  0  0
 18 29  1  0  0  0  0
 18 19  1  0  0  0  0
 19 20  2  0  0  0  0
 20 21  1  0  0  0  0
 20 28  1  0  0  0  0
 21 27  1  0  0  0  0
 21 22  2  0  0  0  0
 22 23  1  0  0  0  0
 22 45  1  0  0  0  0
 23 24  2  0  0  0  0
 23 46  1  0  0  0  0
 24 25  1  0  0  0  0
 24 26  1  0  0  0  0
 26 27  2  0  0  0  0
 26 47  1  0  0  0  0
 27 48  1  0  0  0  0
 28 29  1  0  0  0  0
 28 49  1  0  0  0  0
 28 50  1  0  0  0  0
 29 30  1  0  0  0  0
 29 51  1  0  0  0  0
 30 34  1  0  0  0  0
 30 31  2  0  0  0  0
 31 32  1  0  0  0  0
 31 52  1  0  0  0  0
 32 33  2  0  0  0  0
 32 53  1  0  0  0  0
 33 34  1  0  0  0  0
 33 54  1  0  0  0  0
M  END
> <s_m_source_file>
AV-unprocessed.smi

> <i_m_source_file_index>
136

> <i_lp_mmshare_version>
43012

> <i_f3d_flags>
0

> <s_epik_input>
bzFbY0hdW2NIXVtjSF1jMVtDQEBIXTJbQ0gyXUMoYzNbY0hdW2NIXWMoQ2wpW2NIXVtjSF0zKT1OTjJDKD1PKVtDSDJdbjRjKD1PKWMoRilbY0hdbihjND1PKVtDQEBIXTVbQ0gyXVtDSDJdW0NIMl1PNQ==

> <s_epik_cmdline>
J2VwaWtfcHl0aG9uJywgJy1waCcsICc3LjAnLCAnLXRuJywgJzgnLCAnLW1hJywgJzIwMCcsICctbWV0YWxfYmluZGluZycsICctaW1hZScsICc8aW5maWxlLm1hZT4nLCAnLW9tYWUnLCAnPG91dGZpbGUubWFlPic=

> <r_lp_tautomer_probability>
1

> <r_epik_Ionization_Penalty>
2.55467e-08

> <r_epik_Ionization_Penalty_Charging>
4.85705e-09

> <r_epik_Ionization_Penalty_Neutral>
2.06897e-08

> <r_epik_State_Penalty>
-0

> <r_epik_Charging_Adjusted_Penalty>
4.85705e-09

> <i_epik_Tot_Q>
0

> <i_epik_Tot_abs_Q>
0

> <r_epik_Metal_State_Penalty>
-0

> <b_epik_Metal_Only>
0

> <s_epik_Chemistry_Notes>
This compound has an imine and may undergo hydrolysis. This compound contains an acetal/aminal-like group ( X-CH(R)-Y where X, Y are N, S, or O) that may be acid/base labile, releasing an aldehyde.

> <s_lp_Force_Field>
OPLS_2005

> <r_lp_Energy>
39.5424

> <b_lp_Chiralities_Consistent>
1

> <s_lp_Variant>
AV-unprocessed.smi:136-4

> <Gold.Version>
5.8.1

> <Gold.Id.Protein>
6NUR|6NUR_protein|mol2

> <Gold.PLP.Fitness>
59.7441

> <Gold.PLP.PLP>
-53.9972

> <Gold.PLP.part.hbond>
-3.0000

> <Gold.PLP.part.metal>
0.0000

> <Gold.PLP.part.buried>
-8.2386

> <Gold.PLP.part.nonpolar>
-44.6699

> <Gold.PLP.part.repulsive>
2.1264

> <Gold.PLP.ligand.clash>
0.0000

> <Gold.PLP.ligand.torsion>
0.7021

> <Gold.PLP.Chemscore.Hbond>
2.3412

> <Gold.PLP.Chemscore.CHOScore>
0.0000

> <Gold.PLP.Chemscore.Metal>
0.0000

> <Gold.Chemscore.Hbonds>
donor molecule, donor type, donor heavy atom, donor atom, acceptor molecule, acceptor atom, score
      P1  H  6896  6909       L1     6  0.33
      P1  H  8011  8017       L1    34  0.49
      P1  H 10752 10763       L1    17  0.55

> <Gold.PLP.Chemscore.Internal.Correction>
0.1274

> <Gold.Rescore>
     Score         DG    S(hbond)    S(metal)    S(lipo)     H(rot)  DE(clash)    DE(int)     intcor
     16.94     -21.71       1.39        0.00     138.55       1.81       1.74       3.03       ----

> <Gold.Chemscore.Fitness>
16.9438

> <Gold.Chemscore.DG>
-21.7128

> <Gold.Chemscore.ZeroCoef>
-5.4800

> <Gold.Chemscore.Hbond>
1.3908

> <Gold.Chemscore.Metal>
0.0000

> <Gold.Chemscore.Lipo>
138.5474

> <Gold.Chemscore.Internal_Hbond>
0.0000

> <Gold.Chemscore.DEClash>
1.7392

> <Gold.Chemscore.DEInternal>
3.0299

> <Gold.Chemscore.Rot>
1.8056

> <Gold.Chemscore.Internal.Correction>
   9.000000E+99

> <Gold.Chemscore.Hbonds>
donor molecule, donor type, donor heavy atom, donor atom, acceptor molecule, acceptor atom, score
      P1  H  6896  6909       L1     6  0.02
      P1  H  8011  8017       L1    34  0.13
      P1  H 10752 10763       L1    17  0.54

> <Gold.Chemscore.Hbond.Weighted>
-4.6451

> <Gold.Chemscore.Metal.Weighted>
-0.0000

> <Gold.Chemscore.Lipo.Weighted>
-16.2101

> <Gold.Chemscore.Internal_Hbond.Weighted>
0.0000

> <Gold.Chemscore.DEClash.Weighted>
1.7392

> <Gold.Chemscore.DEInternal.Weighted>
3.0299

> <Gold.Chemscore.Rot.Weighted>
4.6223

> <Gold.Chemscore.Internal.Correction.Weighted>
   9.000000E+99

> <Gold.Protein.RotatedTorsions>
[ 6907 6896 6895 6894 ] final   84.11 input  -60.11 | X-H torsion
[ 7974 7965 7964 7962 ] final  118.46 input  175.53 | X-H torsion
[ 8008 7997 7996 7995 ] final  -75.93 input   59.86 | X-H torsion
[ 10167 10162 10161 10158 ] final  -59.51 input  -65.29 | X-H torsion
[ 10718 10713 10712 10709 ] final  120.92 input   66.30 | X-H torsion
[ 10763 10752 10751 10750 ] final   61.87 input  -60.55 | X-H torsion
[ 11005 11000 10999 10996 ] final  167.91 input  -57.11 | X-H torsion

> <Gold.Protein.ActiveResidues>
 VAL166  LYS551  ARG553  GLY616  TRP617  ASP618  TYR619  PRO620  LYS621  CYS622 
 ASP623  PHE694  ASN695  SER759  ASP760  ASP761  ALA762  ILE779  LEU786  VAL792 
 PHE793  MET794  SER795  GLU796  ALA797  LYS798  CYS799  TRP800  GLU811  SER814 

> <Gold.Protein.RotatedAtoms>
  152.5344  134.2792  159.9000 H   0  0  0  0  0  0  0  0  0  0  0  0  # atno 6907 bound_to 6896
  151.2747  133.4232  159.2631 H   0  0  0  0  0  0  0  0  0  0  0  0  # atno 6908 bound_to 6896
  151.0337  134.9572  159.8181 H   0  0  0  0  0  0  0  0  0  0  0  0  # atno 6909 bound_to 6896
  145.1550  139.3188  143.4547 H   0  0  0  0  0  0  0  0  0  0  0  0  # atno 7974 bound_to 7965
  154.5460  140.0735  156.8589 H   0  0  0  0  0  0  0  0  0  0  0  0  # atno 8008 bound_to 7997
  155.3086  140.3389  155.4226 H   0  0  0  0  0  0  0  0  0  0  0  0  # atno 8009 bound_to 7997
  156.1918  140.1689  156.8062 H   0  0  0  0  0  0  0  0  0  0  0  0  # atno 8010 bound_to 7997
  140.6130  143.2393  151.5664 H   0  0  0  0  0  0  0  0  0  0  0  0  # atno 10167 bound_to 10162
  157.5855  131.1070  150.8103 H   0  0  0  0  0  0  0  0  0  0  0  0  # atno 10718 bound_to 10713
  152.9964  135.5485  154.6103 H   0  0  0  0  0  0  0  0  0  0  0  0  # atno 10763 bound_to 10752
  154.5425  135.2821  155.1085 H   0  0  0  0  0  0  0  0  0  0  0  0  # atno 10764 bound_to 10752
  154.2357  135.6425  153.5242 H   0  0  0  0  0  0  0  0  0  0  0  0  # atno 10765 bound_to 10752
  140.2817  134.7745  157.3764 H   0  0  0  0  0  0  0  0  0  0  0  0  # atno 11005 bound_to 11000
  146.3490  140.1638  142.8590 LP  0  0  0  0  0  0  0  0  0  0  0  0  # atno 17320 bound_to 7965
  145.0391  140.8931  143.5063 LP  0  0  0  0  0  0  0  0  0  0  0  0  # atno 17321 bound_to 7965
  139.5376  144.2737  152.1284 LP  0  0  0  0  0  0  0  0  0  0  0  0  # atno 17342 bound_to 10162
  140.1940  144.4723  150.6464 LP  0  0  0  0  0  0  0  0  0  0  0  0  # atno 17343 bound_to 10162
  156.8538  130.5089  149.5309 LP  0  0  0  0  0  0  0  0  0  0  0  0  # atno 17370 bound_to 10713
  156.0904  130.5891  150.9723 LP  0  0  0  0  0  0  0  0  0  0  0  0  # atno 17371 bound_to 10713
  140.1277  134.5136  155.8131 LP  0  0  0  0  0  0  0  0  0  0  0  0  # atno 17394 bound_to 11000
  141.2161  133.6779  156.6982 LP  0  0  0  0  0  0  0  0  0  0  0  0  # atno 17395 bound_to 11000

$$$$
