AV-unprocessed.smi:1948|AV-procd|sdf|7873|dock2
  -GOLD-   2272010 23D 1   1.00000     0.00000
 Structure written by MMmdl.
 30 31  0  0  0  0  0  0  0  0  1 V2000
  147.2922  132.8595  154.5199 O   0  0  0  0  0  0  0  0  0  0  0  0
  147.7353  133.7071  153.7444 C   0  0  0  0  0  0  0  0  0  0  0  0
  148.7297  134.5695  154.0197 N   0  0  0  0  0  0  0  0  0  0  0  0
  149.4758  134.6983  155.2214 C   0  0  0  0  0  0  0  0  0  0  0  0
  149.3349  133.8809  156.2770 N   0  0  0  0  0  0  0  0  0  0  0  0
  150.1837  134.2278  157.3202 N   0  0  0  0  0  0  0  0  0  0  0  0
  150.9305  135.2916  157.0110 C   0  0  0  0  0  0  0  0  0  0  0  0
  150.6685  135.9750  155.4154 S   0  0  0  0  0  0  0  0  0  0  0  0
  147.2715  133.8836  152.4984 N   0  0  0  0  0  0  0  0  0  0  0  0
  146.1986  133.1093  151.8808 C   0  0  2  0  0  0  0  0  0  0  0  0
  146.4880  132.9317  150.3782 C   0  0  0  0  0  0  0  0  0  0  0  0
  145.3548  132.1690  149.6728 C   0  0  0  0  0  0  0  0  0  0  0  0
  144.0001  132.8639  149.8919 C   0  0  1  0  0  0  0  0  0  0  0  0
  142.9753  132.1011  149.2904 O   0  0  0  0  0  0  0  0  0  0  0  0
  143.7021  133.0351  151.3913 C   0  0  0  0  0  0  0  0  0  0  0  0
  144.8346  133.7975  152.0982 C   0  0  0  0  0  0  0  0  0  0  0  0
  148.9850  135.2088  153.2815 H   0  0  0  0  0  0  0  0  0  0  0  0
  151.6398  135.6770  157.7282 H   0  0  0  0  0  0  0  0  0  0  0  0
  147.6932  134.6048  151.9318 H   0  0  0  0  0  0  0  0  0  0  0  0
  146.1699  132.1179  152.3376 H   0  0  0  0  0  0  0  0  0  0  0  0
  146.6126  133.9080  149.9070 H   0  0  0  0  0  0  0  0  0  0  0  0
  147.4296  132.3990  150.2389 H   0  0  0  0  0  0  0  0  0  0  0  0
  145.5694  132.0927  148.6061 H   0  0  0  0  0  0  0  0  0  0  0  0
  145.3147  131.1478  150.0549 H   0  0  0  0  0  0  0  0  0  0  0  0
  144.0144  133.8431  149.4118 H   0  0  0  0  0  0  0  0  0  0  0  0
  142.2047  132.6425  149.2111 H   0  0  0  0  0  0  0  0  0  0  0  0
  142.7588  133.5651  151.5285 H   0  0  0  0  0  0  0  0  0  0  0  0
  143.5793  132.0576  151.8600 H   0  0  0  0  0  0  0  0  0  0  0  0
  144.6137  133.8703  153.1638 H   0  0  0  0  0  0  0  0  0  0  0  0
  144.8721  134.8203  151.7203 H   0  0  0  0  0  0  0  0  0  0  0  0
  1  2  2  0  0  0  0
  2  3  1  0  0  0  0
  2  9  1  0  0  0  0
  3  4  1  0  0  0  0
  3 17  1  0  0  0  0
  4  8  1  0  0  0  0
  4  5  2  0  0  0  0
  5  6  1  0  0  0  0
  6  7  2  0  0  0  0
  7  8  1  0  0  0  0
  7 18  1  0  0  0  0
  9 10  1  0  0  0  0
  9 19  1  0  0  0  0
 10 16  1  0  0  0  0
 10 11  1  0  0  0  0
 10 20  1  0  0  0  0
 11 12  1  0  0  0  0
 11 21  1  0  0  0  0
 11 22  1  0  0  0  0
 12 13  1  0  0  0  0
 12 23  1  0  0  0  0
 12 24  1  0  0  0  0
 13 14  1  0  0  0  0
 13 15  1  0  0  0  0
 13 25  1  0  0  0  0
 14 26  1  0  0  0  0
 15 16  1  0  0  0  0
 15 27  1  0  0  0  0
 15 28  1  0  0  0  0
 16 29  1  0  0  0  0
 16 30  1  0  0  0  0
M  END
> <s_m_source_file>
AV-unprocessed.smi

> <i_m_source_file_index>
1948

> <i_lp_mmshare_version>
43012

> <i_f3d_flags>
0

> <s_epik_input>
czFbY0hdbm5jMVtOSF1DKD1PKVtOSF1bQ0BASF0yW0NIMl1bQ0gyXVtDQEBIXShbT0hdKVtDSDJdW0NIMl0y

> <s_epik_cmdline>
J2VwaWtfcHl0aG9uJywgJy1waCcsICc3LjAnLCAnLXRuJywgJzgnLCAnLW1hJywgJzIwMCcsICctbWV0YWxfYmluZGluZycsICctaW1hZScsICc8aW5maWxlLm1hZT4nLCAnLW9tYWUnLCAnPG91dGZpbGUubWFlPic=

> <r_lp_tautomer_probability>
1

> <r_epik_Ionization_Penalty>
0.000336938

> <r_epik_Ionization_Penalty_Charging>
0

> <r_epik_Ionization_Penalty_Neutral>
0.000336938

> <r_epik_State_Penalty>
-0

> <r_epik_Charging_Adjusted_Penalty>
0

> <i_epik_Tot_Q>
0

> <i_epik_Tot_abs_Q>
0

> <r_epik_Metal_State_Penalty>
0.175756

> <b_epik_Metal_Only>
0

> <s_lp_Force_Field>
OPLS_2005

> <r_lp_Energy>
6.64552

> <b_lp_Chiralities_Consistent>
1

> <s_lp_Variant>
AV-unprocessed.smi:1948-1

> <Gold.Version>
5.8.1

> <Gold.Id.Protein>
6NUR|6NUR_protein|mol2

> <Gold.PLP.Fitness>
40.2941

> <Gold.PLP.PLP>
-27.7758

> <Gold.PLP.part.hbond>
-5.9297

> <Gold.PLP.part.metal>
0.0000

> <Gold.PLP.part.buried>
-4.3024

> <Gold.PLP.part.nonpolar>
-19.0357

> <Gold.PLP.part.repulsive>
0.0413

> <Gold.PLP.ligand.clash>
0.0000

> <Gold.PLP.ligand.torsion>
0.3650

> <Gold.PLP.Chemscore.Hbond>
4.4149

> <Gold.PLP.Chemscore.CHOScore>
0.0000

> <Gold.PLP.Chemscore.Metal>
0.0000

> <Gold.Chemscore.Hbonds>
donor molecule, donor type, donor heavy atom, donor atom, acceptor molecule, acceptor atom, score
      L1  H     3    17       P1  7948  1.00
      L1  H     9    19       P1  7948  0.96
      L1  H    14    26       P1 10186  0.68
      P1  H  6896  6907       L1     6  0.77
      P1  H 10785 10796       L1    14  0.96

> <Gold.PLP.Chemscore.Internal.Correction>
0.0033

> <Gold.Rescore>
     Score         DG    S(hbond)    S(metal)    S(lipo)     H(rot)  DE(clash)    DE(int)     intcor
     18.37     -20.02       3.75        0.00      50.96       1.55       0.00       1.65       ----

> <Gold.Chemscore.Fitness>
18.3737

> <Gold.Chemscore.DG>
-20.0188

> <Gold.Chemscore.ZeroCoef>
-5.4800

> <Gold.Chemscore.Hbond>
3.7527

> <Gold.Chemscore.Metal>
0.0000

> <Gold.Chemscore.Lipo>
50.9551

> <Gold.Chemscore.Internal_Hbond>
0.0000

> <Gold.Chemscore.DEClash>
0.0000

> <Gold.Chemscore.DEInternal>
1.6451

> <Gold.Chemscore.Rot>
1.5456

> <Gold.Chemscore.Internal.Correction>
   9.000000E+99

> <Gold.Chemscore.Hbonds>
donor molecule, donor type, donor heavy atom, donor atom, acceptor molecule, acceptor atom, score
      L1  H     3    17       P1  7948  0.40
      L1  H     9    19       P1  7948  0.39
      L1  H    14    26       P1 10186  0.68
      P1  H  6896  6907       L1     6  0.22
      P1  H 10785 10796       L1    14  0.90

> <Gold.Chemscore.Hbond.Weighted>
-12.5339

> <Gold.Chemscore.Metal.Weighted>
-0.0000

> <Gold.Chemscore.Lipo.Weighted>
-5.9617

> <Gold.Chemscore.Internal_Hbond.Weighted>
0.0000

> <Gold.Chemscore.DEClash.Weighted>
0.0000

> <Gold.Chemscore.DEInternal.Weighted>
1.6451

> <Gold.Chemscore.Rot.Weighted>
3.9568

> <Gold.Chemscore.Internal.Correction.Weighted>
   9.000000E+99

> <Gold.Protein.RotatedTorsions>
[ 6907 6896 6895 6894 ] final -112.33 input  -60.11 | X-H torsion
[ 7974 7965 7964 7962 ] final  155.84 input  175.53 | X-H torsion
[ 8008 7997 7996 7995 ] final   18.18 input   59.86 | X-H torsion
[ 10167 10162 10161 10158 ] final  118.24 input  -65.29 | X-H torsion
[ 10718 10713 10712 10709 ] final  -22.58 input   66.30 | X-H torsion
[ 10763 10752 10751 10750 ] final  -24.53 input  -60.55 | X-H torsion
[ 11005 11000 10999 10996 ] final  -29.57 input  -57.11 | X-H torsion

> <Gold.Protein.ActiveResidues>
 VAL166  LYS551  ARG553  GLY616  TRP617  ASP618  TYR619  PRO620  LYS621  CYS622 
 ASP623  PHE694  ASN695  SER759  ASP760  ASP761  ALA762  ILE779  LEU786  VAL792 
 PHE793  MET794  SER795  GLU796  ALA797  LYS798  CYS799  TRP800  GLU811  SER814 

> <Gold.Protein.RotatedAtoms>
  150.7751  133.9105  159.3367 H   0  0  0  0  0  0  0  0  0  0  0  0  # atno 6907 bound_to 6896
  151.6982  135.0933  160.0255 H   0  0  0  0  0  0  0  0  0  0  0  0  # atno 6908 bound_to 6896
  152.3784  133.6474  159.6177 H   0  0  0  0  0  0  0  0  0  0  0  0  # atno 6909 bound_to 6896
  144.8000  139.7123  143.6186 H   0  0  0  0  0  0  0  0  0  0  0  0  # atno 7974 bound_to 7965
  154.9023  140.3002  155.5311 H   0  0  0  0  0  0  0  0  0  0  0  0  # atno 8008 bound_to 7997
  156.3018  140.2404  156.3987 H   0  0  0  0  0  0  0  0  0  0  0  0  # atno 8009 bound_to 7997
  154.8509  140.0409  157.1592 H   0  0  0  0  0  0  0  0  0  0  0  0  # atno 8010 bound_to 7997
  139.6125  144.7085  151.2813 H   0  0  0  0  0  0  0  0  0  0  0  0  # atno 10167 bound_to 10162
  156.5026  130.4591  149.6692 H   0  0  0  0  0  0  0  0  0  0  0  0  # atno 10718 bound_to 10713
  153.6853  135.6964  153.5106 H   0  0  0  0  0  0  0  0  0  0  0  0  # atno 10763 bound_to 10752
  153.2454  135.4292  155.0741 H   0  0  0  0  0  0  0  0  0  0  0  0  # atno 10764 bound_to 10752
  154.8388  135.3518  154.6396 H   0  0  0  0  0  0  0  0  0  0  0  0  # atno 10765 bound_to 10752
  140.9307  133.7340  156.0933 H   0  0  0  0  0  0  0  0  0  0  0  0  # atno 11005 bound_to 11000
  146.2278  139.5756  142.9575 LP  0  0  0  0  0  0  0  0  0  0  0  0  # atno 17320 bound_to 7965
  145.5578  141.0407  143.2243 LP  0  0  0  0  0  0  0  0  0  0  0  0  # atno 17321 bound_to 7965
  140.7328  143.6812  150.8000 LP  0  0  0  0  0  0  0  0  0  0  0  0  # atno 17342 bound_to 10162
  140.0409  143.5347  152.2718 LP  0  0  0  0  0  0  0  0  0  0  0  0  # atno 17343 bound_to 10162
  156.3318  130.7335  151.2266 LP  0  0  0  0  0  0  0  0  0  0  0  0  # atno 17370 bound_to 10713
  157.7461  131.0428  150.4711 LP  0  0  0  0  0  0  0  0  0  0  0  0  # atno 17371 bound_to 10713
  140.7866  134.3665  157.5475 LP  0  0  0  0  0  0  0  0  0  0  0  0  # atno 17394 bound_to 11000
  139.8796  134.9114  156.3037 LP  0  0  0  0  0  0  0  0  0  0  0  0  # atno 17395 bound_to 11000

$$$$
