AV-unprocessed.smi:1715|AV-procd|sdf|6914|dock1
  -GOLD-   22720 8113D 1   1.00000     0.00000
 Structure written by MMmdl.
 41 42  0  0  0  0  0  0  0  0  2 V2000
  152.7941  139.2202  155.1583 C   0  0  0  0  0  0  0  0  0  0  0  0
  151.2716  139.0477  155.1832 C   0  0  2  0  0  0  0  0  0  0  0  0
  150.8049  137.8808  154.2897 C   0  0  0  0  0  0  0  0  0  0  0  0
  149.3253  137.7776  154.2698 N   0  3  1  0  0  0  0  0  0  0  0  0
  148.7556  137.1546  155.4938 C   0  0  0  0  0  0  0  0  0  0  0  0
  147.4277  136.4252  155.2143 C   0  0  0  0  0  0  0  0  0  0  0  0
  147.4863  135.6670  153.9697 N   0  0  0  0  0  0  0  0  0  0  0  0
  146.7274  134.5985  153.6870 C   0  0  0  0  0  0  0  0  0  0  0  0
  145.8921  134.1357  154.4644 O   0  0  0  0  0  0  0  0  0  0  0  0
  146.9928  134.1185  152.4612 N   0  0  0  0  0  0  0  0  0  0  0  0
  146.3771  133.0150  151.8180 C   0  0  0  0  0  0  0  0  0  0  0  0
  145.8883  133.0258  150.4833 C   0  0  0  0  0  0  0  0  0  0  0  0
  145.3648  131.8546  150.1504 N   0  0  0  0  0  0  0  0  0  0  0  0
  145.5163  131.0956  151.2593 N   0  0  0  0  0  0  0  0  0  0  0  0
  146.1278  131.7600  152.2993 C   0  0  0  0  0  0  0  0  0  0  0  0
  148.7207  139.0816  153.8951 C   0  0  0  0  0  0  0  0  0  0  0  0
  149.2577  140.2335  154.7727 C   0  0  2  0  0  0  0  0  0  0  0  0
  148.7438  141.5993  154.3040 C   0  0  0  0  0  0  0  0  0  0  0  0
  150.6801  140.2524  154.7081 O   0  0  0  0  0  0  0  0  0  0  0  0
  145.2011  130.1363  151.2903 H   0  0  0  0  0  0  0  0  0  0  0  0
  153.2963  138.3244  155.5245 H   0  0  0  0  0  0  0  0  0  0  0  0
  153.1017  140.0541  155.7898 H   0  0  0  0  0  0  0  0  0  0  0  0
  153.1538  139.4171  154.1481 H   0  0  0  0  0  0  0  0  0  0  0  0
  150.9638  138.8766  156.2161 H   0  0  0  0  0  0  0  0  0  0  0  0
  151.1482  138.0453  153.2672 H   0  0  0  0  0  0  0  0  0  0  0  0
  151.2506  136.9386  154.6117 H   0  0  0  0  0  0  0  0  0  0  0  0
  149.4703  136.4261  155.8787 H   0  0  0  0  0  0  0  0  0  0  0  0
  148.6267  137.8963  156.2821 H   0  0  0  0  0  0  0  0  0  0  0  0
  147.1961  135.7208  156.0121 H   0  0  0  0  0  0  0  0  0  0  0  0
  146.6004  137.1362  155.1775 H   0  0  0  0  0  0  0  0  0  0  0  0
  148.1505  135.9769  153.2751 H   0  0  0  0  0  0  0  0  0  0  0  0
  147.7012  134.5988  151.9257 H   0  0  0  0  0  0  0  0  0  0  0  0
  145.8942  133.8283  149.7603 H   0  0  0  0  0  0  0  0  0  0  0  0
  146.3215  131.2890  153.2517 H   0  0  0  0  0  0  0  0  0  0  0  0
  148.9714  139.2772  152.8514 H   0  0  0  0  0  0  0  0  0  0  0  0
  147.6330  139.0372  153.9407 H   0  0  0  0  0  0  0  0  0  0  0  0
  148.9499  140.0943  155.8097 H   0  0  0  0  0  0  0  0  0  0  0  0
  147.6554  141.6456  154.3484 H   0  0  0  0  0  0  0  0  0  0  0  0
  149.0464  141.8045  153.2766 H   0  0  0  0  0  0  0  0  0  0  0  0
  149.1361  142.3995  154.9321 H   0  0  0  0  0  0  0  0  0  0  0  0
  149.1075  137.1324  153.5235 H   0  0  0  0  0  0  0  0  0  0  0  0
  1  2  1  0  0  0  0
  1 21  1  0  0  0  0
  1 22  1  0  0  0  0
  1 23  1  0  0  0  0
  2 19  1  0  0  0  0
  2  3  1  0  0  0  0
  2 24  1  0  0  0  0
  3  4  1  0  0  0  0
  3 25  1  0  0  0  0
  3 26  1  0  0  0  0
  4  5  1  0  0  0  0
  4 16  1  0  0  0  0
  4 41  1  0  0  0  0
  5  6  1  0  0  0  0
  5 27  1  0  0  0  0
  5 28  1  0  0  0  0
  6  7  1  0  0  0  0
  6 29  1  0  0  0  0
  6 30  1  0  0  0  0
  7  8  1  0  0  0  0
  7 31  1  0  0  0  0
  8  9  2  0  0  0  0
  8 10  1  0  0  0  0
 10 11  1  0  0  0  0
 10 32  1  0  0  0  0
 11 15  2  0  0  0  0
 11 12  1  0  0  0  0
 12 13  2  0  0  0  0
 12 33  1  0  0  0  0
 13 14  1  0  0  0  0
 14 20  1  0  0  0  0
 14 15  1  0  0  0  0
 15 34  1  0  0  0  0
 16 17  1  0  0  0  0
 16 35  1  0  0  0  0
 16 36  1  0  0  0  0
 17 18  1  0  0  0  0
 17 19  1  0  0  0  0
 17 37  1  0  0  0  0
 18 38  1  0  0  0  0
 18 39  1  0  0  0  0
 18 40  1  0  0  0  0
M  CHG  1   4   1
M  END
> <s_m_source_file>
AV-unprocessed.smi

> <i_m_source_file_index>
1715

> <i_lp_mmshare_version>
43012

> <i_f3d_flags>
0

> <s_epik_input>
W0NIM11bQ0BASF0xW0NIMl1OKFtDSDJdW0NASF0oTzEpW0NIM10pW0NIMl1bQ0gyXVtOSF1DKD1PKVtOSF1jMltjSF1uW25IXVtjSF0y

> <s_epik_cmdline>
J2VwaWtfcHl0aG9uJywgJy1waCcsICc3LjAnLCAnLXRuJywgJzgnLCAnLW1hJywgJzIwMCcsICctbWV0YWxfYmluZGluZycsICctaW1hZScsICc8aW5maWxlLm1hZT4nLCAnLW9tYWUnLCAnPG91dGZpbGUubWFlPic=

> <r_lp_tautomer_probability>
0.5

> <r_epik_Ionization_Penalty>
0.646007

> <r_epik_Ionization_Penalty_Charging>
0.645968

> <r_epik_Ionization_Penalty_Neutral>
3.91671e-05

> <r_epik_State_Penalty>
0.664063

> <r_epik_Charging_Adjusted_Penalty>
1.31003

> <i_epik_Tot_Q>
1

> <i_epik_Tot_abs_Q>
1

> <r_epik_Metal_State_Penalty>
0.664064

> <b_epik_Metal_Only>
0

> <s_lp_Force_Field>
OPLS_2005

> <r_lp_Energy>
19.3555

> <b_lp_Chiralities_Consistent>
1

> <s_lp_Variant>
AV-unprocessed.smi:1715-6

> <Gold.Version>
5.8.1

> <Gold.Id.Protein>
6NUR|6NUR_protein|mol2

> <Gold.PLP.Fitness>
44.6858

> <Gold.PLP.PLP>
-28.6707

> <Gold.PLP.part.hbond>
-4.0000

> <Gold.PLP.part.metal>
0.0000

> <Gold.PLP.part.buried>
-1.9022

> <Gold.PLP.part.nonpolar>
-23.4965

> <Gold.PLP.part.repulsive>
0.3556

> <Gold.PLP.ligand.clash>
0.0000

> <Gold.PLP.ligand.torsion>
0.9319

> <Gold.PLP.Chemscore.Hbond>
4.9440

> <Gold.PLP.Chemscore.CHOScore>
1.0000

> <Gold.PLP.Chemscore.Metal>
0.0000

> <Gold.Chemscore.Hbonds>
donor molecule, donor type, donor heavy atom, donor atom, acceptor molecule, acceptor atom, score
      L1  H     4    41       P1  7948  2.00
      L1  H     7    31       P1  7948  1.00
      L1  H    10    32       P1  7948  0.94
      P1  H  7989  7998       L1    19  1.00
      L1  C    12    33       P1  7921  0.96

> <Gold.PLP.Chemscore.Internal.Correction>
0.0469

> <Gold.Rescore>
     Score         DG    S(hbond)    S(metal)    S(lipo)     H(rot)  DE(clash)    DE(int)     intcor
     19.75     -20.75       3.58        0.00      64.73       1.67       0.21       0.79       ----

> <Gold.Chemscore.Fitness>
19.7546

> <Gold.Chemscore.DG>
-20.7520

> <Gold.Chemscore.ZeroCoef>
-5.4800

> <Gold.Chemscore.Hbond>
3.5828

> <Gold.Chemscore.Metal>
0.0000

> <Gold.Chemscore.Lipo>
64.7270

> <Gold.Chemscore.Internal_Hbond>
0.0000

> <Gold.Chemscore.DEClash>
0.2082

> <Gold.Chemscore.DEInternal>
0.7893

> <Gold.Chemscore.Rot>
1.6671

> <Gold.Chemscore.Internal.Correction>
   9.000000E+99

> <Gold.Chemscore.Hbonds>
donor molecule, donor type, donor heavy atom, donor atom, acceptor molecule, acceptor atom, score
      L1  H     4    41       P1  7948  1.00
      L1  H     7    31       P1  7948  0.99
      L1  H    10    32       P1  7948  0.35
      P1  H  7989  7998       L1    19  0.70

> <Gold.Chemscore.Hbond.Weighted>
-11.9667

> <Gold.Chemscore.Metal.Weighted>
-0.0000

> <Gold.Chemscore.Lipo.Weighted>
-7.5731

> <Gold.Chemscore.Internal_Hbond.Weighted>
0.0000

> <Gold.Chemscore.DEClash.Weighted>
0.2082

> <Gold.Chemscore.DEInternal.Weighted>
0.7893

> <Gold.Chemscore.Rot.Weighted>
4.2677

> <Gold.Chemscore.Internal.Correction.Weighted>
   9.000000E+99

> <Gold.Protein.RotatedTorsions>
[ 6907 6896 6895 6894 ] final -121.55 input  -60.11 | X-H torsion
[ 7974 7965 7964 7962 ] final   93.04 input  175.53 | X-H torsion
[ 8008 7997 7996 7995 ] final -130.13 input   59.86 | X-H torsion
[ 10167 10162 10161 10158 ] final  155.07 input  -65.29 | X-H torsion
[ 10718 10713 10712 10709 ] final  103.69 input   66.30 | X-H torsion
[ 10763 10752 10751 10750 ] final  138.85 input  -60.55 | X-H torsion
[ 11005 11000 10999 10996 ] final  -97.21 input  -57.11 | X-H torsion

> <Gold.Protein.ActiveResidues>
 VAL166  LYS551  ARG553  GLY616  TRP617  ASP618  TYR619  PRO620  LYS621  CYS622 
 ASP623  PHE694  ASN695  SER759  ASP760  ASP761  ALA762  ILE779  LEU786  VAL792 
 PHE793  MET794  SER795  GLU796  ALA797  LYS798  CYS799  TRP800  GLU811  SER814 

> <Gold.Protein.RotatedAtoms>
  150.8494  133.7811  159.3030 H   0  0  0  0  0  0  0  0  0  0  0  0  # atno 6907 bound_to 6896
  151.5487  135.1066  159.9954 H   0  0  0  0  0  0  0  0  0  0  0  0  # atno 6908 bound_to 6896
  152.4540  133.7643  159.6820 H   0  0  0  0  0  0  0  0  0  0  0  0  # atno 6909 bound_to 6896
  145.4843  139.2278  143.2865 H   0  0  0  0  0  0  0  0  0  0  0  0  # atno 7974 bound_to 7965
  155.2907  140.0448  157.3023 H   0  0  0  0  0  0  0  0  0  0  0  0  # atno 8008 bound_to 7997
  154.5543  140.2327  155.8403 H   0  0  0  0  0  0  0  0  0  0  0  0  # atno 8009 bound_to 7997
  156.1994  140.3030  155.9501 H   0  0  0  0  0  0  0  0  0  0  0  0  # atno 8010 bound_to 7997
  139.4822  144.5131  151.7994 H   0  0  0  0  0  0  0  0  0  0  0  0  # atno 10167 bound_to 10162
  157.6764  131.0785  150.5593 H   0  0  0  0  0  0  0  0  0  0  0  0  # atno 10718 bound_to 10713
  153.8965  135.3027  155.3448 H   0  0  0  0  0  0  0  0  0  0  0  0  # atno 10763 bound_to 10752
  154.7691  135.4895  153.9616 H   0  0  0  0  0  0  0  0  0  0  0  0  # atno 10764 bound_to 10752
  153.1269  135.6795  153.9342 H   0  0  0  0  0  0  0  0  0  0  0  0  # atno 10765 bound_to 10752
  141.1386  133.8154  157.0675 H   0  0  0  0  0  0  0  0  0  0  0  0  # atno 11005 bound_to 11000
  146.2322  140.5632  142.8970 LP  0  0  0  0  0  0  0  0  0  0  0  0  # atno 17320 bound_to 7965
  144.7871  140.5957  143.6567 LP  0  0  0  0  0  0  0  0  0  0  0  0  # atno 17321 bound_to 7965
  140.4636  144.1687  150.5909 LP  0  0  0  0  0  0  0  0  0  0  0  0  # atno 17342 bound_to 10162
  140.4458  143.2507  151.9413 LP  0  0  0  0  0  0  0  0  0  0  0  0  # atno 17343 bound_to 10162
  156.5896  130.4326  149.5942 LP  0  0  0  0  0  0  0  0  0  0  0  0  # atno 17370 bound_to 10713
  156.2594  130.6953  151.1717 LP  0  0  0  0  0  0  0  0  0  0  0  0  # atno 17371 bound_to 10713
  140.0532  134.9794  157.1173 LP  0  0  0  0  0  0  0  0  0  0  0  0  # atno 17394 bound_to 11000
  140.3959  134.2135  155.7164 LP  0  0  0  0  0  0  0  0  0  0  0  0  # atno 17395 bound_to 11000

$$$$
