AV-unprocessed.smi:3139|AV-procd|sdf|11957|dock7
  -GOLD-   2272017353D 1   1.00000     0.00000
 Structure written by MMmdl.
 33 33  0  0  0  0  0  0  0  0  2 V2000
  145.8137  135.2155  152.0247 C   0  0  0  0  0  0  0  0  0  0  0  0
  146.4417  133.9568  151.3898 C   0  0  1  0  0  0  0  0  0  0  0  0
  147.1212  133.0467  152.4228 C   0  0  0  0  0  0  0  0  0  0  0  0
  146.7853  131.8679  152.5449 O   0  0  0  0  0  0  0  0  0  0  0  0
  148.1095  133.6113  153.1330 N   0  0  0  0  0  0  0  0  0  0  0  0
  149.0385  132.9126  154.0193 C   0  0  0  0  0  0  0  0  0  0  0  0
  149.1768  133.5873  155.4154 C   0  0  0  0  0  0  0  0  0  0  0  0
  149.9104  134.9349  155.2573 C   0  0  0  0  0  0  0  0  0  0  0  0
  147.7745  133.8505  156.0176 C   0  0  0  0  0  0  0  0  0  0  0  0
  150.0134  132.6895  156.3658 C   0  0  0  0  0  0  0  0  0  0  0  0
  150.2106  133.0735  157.5407 O   0  0  0  0  0  0  0  0  0  0  0  0
  150.4428  131.6117  155.8964 O   0  5  0  0  0  0  0  0  0  0  0  0
  145.4882  133.1744  150.6081 N   0  0  0  0  0  0  0  0  0  0  0  0
  145.7480  132.0708  149.8196 C   0  0  0  0  0  0  0  0  0  0  0  0
  144.5546  131.6196  149.3344 C   0  0  0  0  0  0  0  0  0  0  0  0
  143.6024  132.5109  149.9007 C   0  0  0  0  0  0  0  0  0  0  0  0
  144.1606  133.4327  150.6677 N   0  0  0  0  0  0  0  0  0  0  0  0
  146.5670  135.8086  152.5442 H   0  0  0  0  0  0  0  0  0  0  0  0
  145.0346  134.9685  152.7472 H   0  0  0  0  0  0  0  0  0  0  0  0
  145.3667  135.8528  151.2612 H   0  0  0  0  0  0  0  0  0  0  0  0
  147.2127  134.2993  150.6975 H   0  0  0  0  0  0  0  0  0  0  0  0
  148.3071  134.5875  152.9658 H   0  0  0  0  0  0  0  0  0  0  0  0
  148.6634  131.8945  154.1333 H   0  0  0  0  0  0  0  0  0  0  0  0
  150.0190  132.8085  153.5520 H   0  0  0  0  0  0  0  0  0  0  0  0
  149.3467  135.6158  154.6188 H   0  0  0  0  0  0  0  0  0  0  0  0
  150.8960  134.8104  154.8065 H   0  0  0  0  0  0  0  0  0  0  0  0
  150.0492  135.4300  156.2195 H   0  0  0  0  0  0  0  0  0  0  0  0
  147.1627  134.4465  155.3399 H   0  0  0  0  0  0  0  0  0  0  0  0
  147.8372  134.3975  156.9594 H   0  0  0  0  0  0  0  0  0  0  0  0
  147.2304  132.9251  156.2122 H   0  0  0  0  0  0  0  0  0  0  0  0
  146.7509  131.6953  149.6784 H   0  0  0  0  0  0  0  0  0  0  0  0
  144.3878  130.7731  148.6852 H   0  0  0  0  0  0  0  0  0  0  0  0
  142.5288  132.5113  149.7839 H   0  0  0  0  0  0  0  0  0  0  0  0
  1  2  1  0  0  0  0
  1 18  1  0  0  0  0
  1 19  1  0  0  0  0
  1 20  1  0  0  0  0
  2  3  1  0  0  0  0
  2 13  1  0  0  0  0
  2 21  1  0  0  0  0
  3  4  2  0  0  0  0
  3  5  1  0  0  0  0
  5  6  1  0  0  0  0
  5 22  1  0  0  0  0
  6  7  1  0  0  0  0
  6 23  1  0  0  0  0
  6 24  1  0  0  0  0
  7  8  1  0  0  0  0
  7  9  1  0  0  0  0
  7 10  1  0  0  0  0
  8 25  1  0  0  0  0
  8 26  1  0  0  0  0
  8 27  1  0  0  0  0
  9 28  1  0  0  0  0
  9 29  1  0  0  0  0
  9 30  1  0  0  0  0
 10 11  2  0  0  0  0
 10 12  1  0  0  0  0
 13 17  1  0  0  0  0
 13 14  1  0  0  0  0
 14 15  2  0  0  0  0
 14 31  1  0  0  0  0
 15 16  1  0  0  0  0
 15 32  1  0  0  0  0
 16 17  2  0  0  0  0
 16 33  1  0  0  0  0
M  CHG  1  12  -1
M  END
> <s_m_source_file>
AV-unprocessed.smi

> <i_m_source_file_index>
3139

> <i_lp_mmshare_version>
43012

> <i_f3d_flags>
0

> <s_epik_input>
bjFbY0hdW2NIXVtjSF1uMVtDQEhdKFtDSDNdKUMoPU8pW05IXVtDSDJdQyhbQ0gzXSkoW0NIM10pQyg9TylbT0hd

> <s_epik_cmdline>
J2VwaWtfcHl0aG9uJywgJy1waCcsICc3LjAnLCAnLXRuJywgJzgnLCAnLW1hJywgJzIwMCcsICctbWV0YWxfYmluZGluZycsICctaW1hZScsICc8aW5maWxlLm1hZT4nLCAnLW9tYWUnLCAnPG91dGZpbGUubWFlPic=

> <r_lp_tautomer_probability>
1

> <r_epik_Ionization_Penalty>
0.00184643

> <r_epik_Ionization_Penalty_Charging>
0.00181045

> <r_epik_Ionization_Penalty_Neutral>
3.59763e-05

> <r_epik_State_Penalty>
0.00122842

> <r_epik_Charging_Adjusted_Penalty>
0.00303887

> <i_epik_Tot_Q>
-1

> <i_epik_Tot_abs_Q>
1

> <r_epik_Metal_State_Penalty>
-0

> <b_epik_Metal_Only>
0

> <s_lp_Force_Field>
OPLS_2005

> <r_lp_Energy>
4.69511

> <b_lp_Chiralities_Consistent>
1

> <s_lp_Variant>
AV-unprocessed.smi:3139-2

> <Gold.Version>
5.8.1

> <Gold.Id.Protein>
6NUR|6NUR_protein|mol2

> <Gold.PLP.Fitness>
42.8141

> <Gold.PLP.PLP>
-26.8938

> <Gold.PLP.part.hbond>
-2.0000

> <Gold.PLP.part.metal>
0.0000

> <Gold.PLP.part.buried>
-1.9600

> <Gold.PLP.part.nonpolar>
-24.2605

> <Gold.PLP.part.repulsive>
0.2755

> <Gold.PLP.ligand.clash>
0.0000

> <Gold.PLP.ligand.torsion>
0.2469

> <Gold.PLP.Chemscore.Hbond>
3.0000

> <Gold.PLP.Chemscore.CHOScore>
2.4270

> <Gold.PLP.Chemscore.Metal>
0.0000

> <Gold.Chemscore.Hbonds>
donor molecule, donor type, donor heavy atom, donor atom, acceptor molecule, acceptor atom, score
      L1  H     5    22       P1  7948  0.98
      P1  H  6896  6909       L1    11  2.00
      L1  C    14    31       P1 10747  1.00
      L1  C    16    33       P1 10186  0.99
      L1  C    16    33       P1 10952  0.43

> <Gold.PLP.Chemscore.Internal.Correction>
0.1331

> <Gold.Rescore>
     Score         DG    S(hbond)    S(metal)    S(lipo)     H(rot)  DE(clash)    DE(int)     intcor
     10.27     -11.76       1.49        0.00      61.91       2.32       0.14       1.35       ----

> <Gold.Chemscore.Fitness>
10.2668

> <Gold.Chemscore.DG>
-11.7618

> <Gold.Chemscore.ZeroCoef>
-5.4800

> <Gold.Chemscore.Hbond>
1.4935

> <Gold.Chemscore.Metal>
0.0000

> <Gold.Chemscore.Lipo>
61.9099

> <Gold.Chemscore.Internal_Hbond>
0.0000

> <Gold.Chemscore.DEClash>
0.1409

> <Gold.Chemscore.DEInternal>
1.3541

> <Gold.Chemscore.Rot>
2.3241

> <Gold.Chemscore.Internal.Correction>
   9.000000E+99

> <Gold.Chemscore.Hbonds>
donor molecule, donor type, donor heavy atom, donor atom, acceptor molecule, acceptor atom, score
      L1  H     5    22       P1  7948  0.44
      P1  H  6896  6909       L1    11  0.98

> <Gold.Chemscore.Hbond.Weighted>
-4.9882

> <Gold.Chemscore.Metal.Weighted>
-0.0000

> <Gold.Chemscore.Lipo.Weighted>
-7.2435

> <Gold.Chemscore.Internal_Hbond.Weighted>
0.0000

> <Gold.Chemscore.DEClash.Weighted>
0.1409

> <Gold.Chemscore.DEInternal.Weighted>
1.3541

> <Gold.Chemscore.Rot.Weighted>
5.9498

> <Gold.Chemscore.Internal.Correction.Weighted>
   9.000000E+99

> <Gold.Protein.RotatedTorsions>
[ 6907 6896 6895 6894 ] final  -24.92 input  -60.11 | X-H torsion
[ 7974 7965 7964 7962 ] final  179.61 input  175.53 | X-H torsion
[ 8008 7997 7996 7995 ] final -149.55 input   59.86 | X-H torsion
[ 10167 10162 10161 10158 ] final -158.34 input  -65.29 | X-H torsion
[ 10718 10713 10712 10709 ] final  161.82 input   66.30 | X-H torsion
[ 10763 10752 10751 10750 ] final   17.25 input  -60.55 | X-H torsion
[ 11005 11000 10999 10996 ] final  -39.83 input  -57.11 | X-H torsion

> <Gold.Protein.ActiveResidues>
 VAL166  LYS551  ARG553  GLY616  TRP617  ASP618  TYR619  PRO620  LYS621  CYS622 
 ASP623  PHE694  ASN695  SER759  ASP760  ASP761  ALA762  ILE779  LEU786  VAL792 
 PHE793  MET794  SER795  GLU796  ALA797  LYS798  CYS799  TRP800  GLU811  SER814 

> <Gold.Protein.RotatedAtoms>
  151.1826  135.0367  159.8798 H   0  0  0  0  0  0  0  0  0  0  0  0  # atno 6907 bound_to 6896
  152.5444  134.1046  159.8343 H   0  0  0  0  0  0  0  0  0  0  0  0  # atno 6908 bound_to 6896
  151.1165  133.5088  159.2636 H   0  0  0  0  0  0  0  0  0  0  0  0  # atno 6909 bound_to 6896
  144.7144  140.0574  143.6433 H   0  0  0  0  0  0  0  0  0  0  0  0  # atno 7974 bound_to 7965
  155.6094  140.0670  157.2710 H   0  0  0  0  0  0  0  0  0  0  0  0  # atno 8008 bound_to 7997
  154.4257  140.1804  156.1304 H   0  0  0  0  0  0  0  0  0  0  0  0  # atno 8009 bound_to 7997
  156.0097  140.3328  155.6931 H   0  0  0  0  0  0  0  0  0  0  0  0  # atno 8010 bound_to 7997
  139.6700  143.9762  152.2278 H   0  0  0  0  0  0  0  0  0  0  0  0  # atno 10167 bound_to 10162
  157.1311  131.0517  151.2371 H   0  0  0  0  0  0  0  0  0  0  0  0  # atno 10718 bound_to 10713
  153.1356  135.6749  153.9108 H   0  0  0  0  0  0  0  0  0  0  0  0  # atno 10763 bound_to 10752
  153.8580  135.3085  155.3437 H   0  0  0  0  0  0  0  0  0  0  0  0  # atno 10764 bound_to 10752
  154.7745  135.4922  153.9798 H   0  0  0  0  0  0  0  0  0  0  0  0  # atno 10765 bound_to 10752
  141.0131  133.6898  156.2240 H   0  0  0  0  0  0  0  0  0  0  0  0  # atno 11005 bound_to 11000
  145.9893  139.3002  143.0995 LP  0  0  0  0  0  0  0  0  0  0  0  0  # atno 17320 bound_to 7965
  145.8922  140.9297  143.0546 LP  0  0  0  0  0  0  0  0  0  0  0  0  # atno 17321 bound_to 7965
  139.9524  144.6612  150.8159 LP  0  0  0  0  0  0  0  0  0  0  0  0  # atno 17342 bound_to 10162
  140.7614  143.3174  151.2702 LP  0  0  0  0  0  0  0  0  0  0  0  0  # atno 17343 bound_to 10162
  157.4391  130.7534  149.7054 LP  0  0  0  0  0  0  0  0  0  0  0  0  # atno 17370 bound_to 10713
  155.9808  130.4026  150.3510 LP  0  0  0  0  0  0  0  0  0  0  0  0  # atno 17371 bound_to 10713
  140.6701  134.4877  157.5587 LP  0  0  0  0  0  0  0  0  0  0  0  0  # atno 17394 bound_to 11000
  139.9101  134.8363  156.1560 LP  0  0  0  0  0  0  0  0  0  0  0  0  # atno 17395 bound_to 11000

$$$$
