AV-unprocessed.smi:2062|AV-procd|sdf|8407|dock2
  -GOLD-   2272011 93D 1   1.00000     0.00000
 Structure written by MMmdl.
 41 42  0  0  0  0  0  0  0  0  2 V2000
  153.1196  138.7127  154.6898 C   0  0  0  0  0  0  0  0  0  0  0  0
  151.9289  139.4729  155.2992 C   0  0  0  0  0  0  0  0  0  0  0  0
  152.1955  139.7575  156.7856 C   0  0  0  0  0  0  0  0  0  0  0  0
  150.5995  138.7045  155.1113 C   0  0  0  0  0  0  0  0  0  0  0  0
  149.6286  139.3326  154.2144 N   0  0  0  0  0  0  0  0  0  0  0  0
  149.2118  140.6327  154.7277 C   0  0  0  0  0  0  0  0  0  0  0  0
  148.1916  141.3162  153.8031 C   0  0  0  0  0  0  0  0  0  0  0  0
  147.0703  140.4586  153.6248 O   0  0  0  0  0  0  0  0  0  0  0  0
  147.4200  139.1942  153.0659 C   0  0  2  0  0  0  0  0  0  0  0  0
  146.1428  138.3579  152.9044 C   0  0  0  0  0  0  0  0  0  0  0  0
  146.4627  137.0095  152.4547 N   0  0  0  0  0  0  0  0  0  0  0  0
  145.5798  136.0117  152.3188 C   0  0  0  0  0  0  0  0  0  0  0  0
  144.3903  136.2052  152.5810 O   0  0  0  0  0  0  0  0  0  0  0  0
  146.1287  134.8532  151.8874 N   0  5  0  0  0  0  0  0  0  0  0  0
  145.3411  133.8580  151.4483 C   0  0  0  0  0  0  0  0  0  0  0  0
  145.7522  132.9346  150.5716 N   0  0  0  0  0  0  0  0  0  0  0  0
  144.7675  131.9995  150.2474 C   0  0  0  0  0  0  0  0  0  0  0  0
  143.5756  132.2216  150.8847 C   0  0  0  0  0  0  0  0  0  0  0  0
  143.6560  133.6193  151.9190 S   0  0  0  0  0  0  0  0  0  0  0  0
  148.4430  138.5077  153.9931 C   0  0  0  0  0  0  0  0  0  0  0  0
  153.2680  137.7514  155.1827 H   0  0  0  0  0  0  0  0  0  0  0  0
  154.0427  139.2833  154.7943 H   0  0  0  0  0  0  0  0  0  0  0  0
  152.9768  138.5185  153.6273 H   0  0  0  0  0  0  0  0  0  0  0  0
  151.8509  140.4416  154.8035 H   0  0  0  0  0  0  0  0  0  0  0  0
  152.2807  138.8334  157.3583 H   0  0  0  0  0  0  0  0  0  0  0  0
  151.3905  140.3488  157.2228 H   0  0  0  0  0  0  0  0  0  0  0  0
  153.1207  140.3187  156.9188 H   0  0  0  0  0  0  0  0  0  0  0  0
  150.7994  137.6813  154.7892 H   0  0  0  0  0  0  0  0  0  0  0  0
  150.1288  138.6053  156.0906 H   0  0  0  0  0  0  0  0  0  0  0  0
  148.7737  140.5152  155.7204 H   0  0  0  0  0  0  0  0  0  0  0  0
  150.0807  141.2814  154.8452 H   0  0  0  0  0  0  0  0  0  0  0  0
  147.8551  142.2573  154.2381 H   0  0  0  0  0  0  0  0  0  0  0  0
  148.6390  141.5507  152.8360 H   0  0  0  0  0  0  0  0  0  0  0  0
  147.8721  139.3491  152.0842 H   0  0  0  0  0  0  0  0  0  0  0  0
  145.6179  138.2950  153.8587 H   0  0  0  0  0  0  0  0  0  0  0  0
  145.4650  138.8329  152.1934 H   0  0  0  0  0  0  0  0  0  0  0  0
  147.4270  136.8179  152.2259 H   0  0  0  0  0  0  0  0  0  0  0  0
  145.0018  131.2086  149.5508 H   0  0  0  0  0  0  0  0  0  0  0  0
  142.6611  131.6534  150.8092 H   0  0  0  0  0  0  0  0  0  0  0  0
  148.7297  137.5575  153.5436 H   0  0  0  0  0  0  0  0  0  0  0  0
  147.9712  138.2751  154.9491 H   0  0  0  0  0  0  0  0  0  0  0  0
  1  2  1  0  0  0  0
  1 21  1  0  0  0  0
  1 22  1  0  0  0  0
  1 23  1  0  0  0  0
  2  3  1  0  0  0  0
  2  4  1  0  0  0  0
  2 24  1  0  0  0  0
  3 25  1  0  0  0  0
  3 26  1  0  0  0  0
  3 27  1  0  0  0  0
  4  5  1  0  0  0  0
  4 28  1  0  0  0  0
  4 29  1  0  0  0  0
  5 20  1  0  0  0  0
  5  6  1  0  0  0  0
  6  7  1  0  0  0  0
  6 30  1  0  0  0  0
  6 31  1  0  0  0  0
  7  8  1  0  0  0  0
  7 32  1  0  0  0  0
  7 33  1  0  0  0  0
  8  9  1  0  0  0  0
  9 10  1  0  0  0  0
  9 20  1  0  0  0  0
  9 34  1  0  0  0  0
 10 11  1  0  0  0  0
 10 35  1  0  0  0  0
 10 36  1  0  0  0  0
 11 12  1  0  0  0  0
 11 37  1  0  0  0  0
 12 13  2  0  0  0  0
 12 14  1  0  0  0  0
 14 15  1  0  0  0  0
 15 19  1  0  0  0  0
 15 16  2  0  0  0  0
 16 17  1  0  0  0  0
 17 18  2  0  0  0  0
 17 38  1  0  0  0  0
 18 19  1  0  0  0  0
 18 39  1  0  0  0  0
 20 40  1  0  0  0  0
 20 41  1  0  0  0  0
M  CHG  1  14  -1
M  END
> <s_m_source_file>
AV-unprocessed.smi

> <i_m_source_file_index>
2062

> <i_lp_mmshare_version>
43012

> <i_f3d_flags>
0

> <s_epik_input>
W0NIM11bQ0hdKFtDSDNdKVtDSDJdTjFbQ0gyXVtDSDJdT1tDQEhdKFtDSDJdMSlbQ0gyXVtOSF1DKD1PKVtOSF1jMm5bY0hdW2NIXXMy

> <s_epik_cmdline>
J2VwaWtfcHl0aG9uJywgJy1waCcsICc3LjAnLCAnLXRuJywgJzgnLCAnLW1hJywgJzIwMCcsICctbWV0YWxfYmluZGluZycsICctaW1hZScsICc8aW5maWxlLm1hZT4nLCAnLW9tYWUnLCAnPG91dGZpbGUubWFlPic=

> <r_lp_tautomer_probability>
0.999

> <r_epik_Ionization_Penalty>
7.76343

> <r_epik_Ionization_Penalty_Charging>
5.65212

> <r_epik_Ionization_Penalty_Neutral>
2.11131

> <r_epik_State_Penalty>
6.82229

> <r_epik_Charging_Adjusted_Penalty>
12.4744

> <i_epik_Tot_Q>
-1

> <i_epik_Tot_abs_Q>
1

> <r_epik_Metal_State_Penalty>
2.82401

> <b_epik_Metal_Only>
1

> <s_lp_Force_Field>
OPLS_2005

> <r_lp_Energy>
20.4401

> <b_lp_Chiralities_Consistent>
1

> <s_lp_Variant>
AV-unprocessed.smi:2062-12

> <Gold.Version>
5.8.1

> <Gold.Id.Protein>
6NUR|6NUR_protein|mol2

> <Gold.PLP.Fitness>
39.5589

> <Gold.PLP.PLP>
-35.2252

> <Gold.PLP.part.hbond>
-1.0000

> <Gold.PLP.part.metal>
0.0000

> <Gold.PLP.part.buried>
-1.8172

> <Gold.PLP.part.nonpolar>
-32.9498

> <Gold.PLP.part.repulsive>
1.6039

> <Gold.PLP.ligand.clash>
0.0000

> <Gold.PLP.ligand.torsion>
0.9480

> <Gold.PLP.Chemscore.Hbond>
1.0000

> <Gold.PLP.Chemscore.CHOScore>
1.0000

> <Gold.PLP.Chemscore.Metal>
0.0000

> <Gold.Chemscore.Hbonds>
donor molecule, donor type, donor heavy atom, donor atom, acceptor molecule, acceptor atom, score
      L1  H    11    37       P1  7948  1.00
      L1  C    18    39       P1 10952  0.91

> <Gold.PLP.Chemscore.Internal.Correction>
0.2297

> <Gold.Rescore>
     Score         DG    S(hbond)    S(metal)    S(lipo)     H(rot)  DE(clash)    DE(int)     intcor
     12.27     -14.89       1.00        0.00      88.59       1.68       0.23       2.38       ----

> <Gold.Chemscore.Fitness>
12.2738

> <Gold.Chemscore.DG>
-14.8900

> <Gold.Chemscore.ZeroCoef>
-5.4800

> <Gold.Chemscore.Hbond>
0.9999

> <Gold.Chemscore.Metal>
0.0000

> <Gold.Chemscore.Lipo>
88.5947

> <Gold.Chemscore.Internal_Hbond>
0.0000

> <Gold.Chemscore.DEClash>
0.2340

> <Gold.Chemscore.DEInternal>
2.3823

> <Gold.Chemscore.Rot>
1.6779

> <Gold.Chemscore.Internal.Correction>
   9.000000E+99

> <Gold.Chemscore.Hbonds>
donor molecule, donor type, donor heavy atom, donor atom, acceptor molecule, acceptor atom, score
      L1  H    11    37       P1  7948  1.00

> <Gold.Chemscore.Hbond.Weighted>
-3.3398

> <Gold.Chemscore.Metal.Weighted>
-0.0000

> <Gold.Chemscore.Lipo.Weighted>
-10.3656

> <Gold.Chemscore.Internal_Hbond.Weighted>
0.0000

> <Gold.Chemscore.DEClash.Weighted>
0.2340

> <Gold.Chemscore.DEInternal.Weighted>
2.3823

> <Gold.Chemscore.Rot.Weighted>
4.2953

> <Gold.Chemscore.Internal.Correction.Weighted>
   9.000000E+99

> <Gold.Protein.RotatedTorsions>
[ 6907 6896 6895 6894 ] final -121.71 input  -60.11 | X-H torsion
[ 7974 7965 7964 7962 ] final  -37.97 input  175.53 | X-H torsion
[ 8008 7997 7996 7995 ] final   35.97 input   59.86 | X-H torsion
[ 10167 10162 10161 10158 ] final   84.26 input  -65.29 | X-H torsion
[ 10718 10713 10712 10709 ] final   36.58 input   66.30 | X-H torsion
[ 10763 10752 10751 10750 ] final    6.57 input  -60.55 | X-H torsion
[ 11005 11000 10999 10996 ] final -162.72 input  -57.11 | X-H torsion

> <Gold.Protein.ActiveResidues>
 VAL166  LYS551  ARG553  GLY616  TRP617  ASP618  TYR619  PRO620  LYS621  CYS622 
 ASP623  PHE694  ASN695  SER759  ASP760  ASP761  ALA762  ILE779  LEU786  VAL792 
 PHE793  MET794  SER795  GLU796  ALA797  LYS798  CYS799  TRP800  GLU811  SER814 

> <Gold.Protein.RotatedAtoms>
  150.8509  133.7789  159.3025 H   0  0  0  0  0  0  0  0  0  0  0  0  # atno 6907 bound_to 6896
  151.5462  135.1066  159.9948 H   0  0  0  0  0  0  0  0  0  0  0  0  # atno 6908 bound_to 6896
  152.4551  133.7664  159.6831 H   0  0  0  0  0  0  0  0  0  0  0  0  # atno 6909 bound_to 6896
  146.0528  140.6458  142.9034 H   0  0  0  0  0  0  0  0  0  0  0  0  # atno 7974 bound_to 7965
  155.1797  140.3299  155.4377 H   0  0  0  0  0  0  0  0  0  0  0  0  # atno 8008 bound_to 7997
  156.2481  140.1929  156.6846 H   0  0  0  0  0  0  0  0  0  0  0  0  # atno 8009 bound_to 7997
  154.6280  140.0586  156.9683 H   0  0  0  0  0  0  0  0  0  0  0  0  # atno 8010 bound_to 7997
  139.9098  144.6278  150.8549 H   0  0  0  0  0  0  0  0  0  0  0  0  # atno 10167 bound_to 10162
  157.3366  130.7526  149.6883 H   0  0  0  0  0  0  0  0  0  0  0  0  # atno 10718 bound_to 10713
  153.2462  135.6909  153.7729 H   0  0  0  0  0  0  0  0  0  0  0  0  # atno 10763 bound_to 10752
  153.6840  135.3324  155.3186 H   0  0  0  0  0  0  0  0  0  0  0  0  # atno 10764 bound_to 10752
  154.8376  135.4529  154.1402 H   0  0  0  0  0  0  0  0  0  0  0  0  # atno 10765 bound_to 10752
  140.6061  134.4897  157.5210 H   0  0  0  0  0  0  0  0  0  0  0  0  # atno 11005 bound_to 11000
  144.7131  140.4113  143.7065 LP  0  0  0  0  0  0  0  0  0  0  0  0  # atno 17320 bound_to 7965
  145.6696  139.1596  143.2762 LP  0  0  0  0  0  0  0  0  0  0  0  0  # atno 17321 bound_to 7965
  140.7688  143.3374  151.2280 LP  0  0  0  0  0  0  0  0  0  0  0  0  # atno 17342 bound_to 10162
  139.6952  143.9625  152.2879 LP  0  0  0  0  0  0  0  0  0  0  0  0  # atno 17343 bound_to 10162
  155.9702  130.4180  150.4305 LP  0  0  0  0  0  0  0  0  0  0  0  0  # atno 17370 bound_to 10713
  157.2346  131.0512  151.2472 LP  0  0  0  0  0  0  0  0  0  0  0  0  # atno 17371 bound_to 10713
  139.9212  134.8146  156.1207 LP  0  0  0  0  0  0  0  0  0  0  0  0  # atno 17394 bound_to 11000
  141.0840  133.6742  156.2396 LP  0  0  0  0  0  0  0  0  0  0  0  0  # atno 17395 bound_to 11000

$$$$
