AV-unprocessed.smi:251|AV-procd|sdf|1934|dock9
  -GOLD-   2262021 53D 1   1.00000     0.00000
 Structure written by MMmdl.
 50 54  0  0  0  0  0  0  0  0  1 V2000
  152.7200  135.6428  156.8416 O   0  0  0  0  0  0  0  0  0  0  0  0
  152.1736  136.9369  157.0013 C   0  0  0  0  0  0  0  0  0  0  0  0
  150.8123  137.0979  156.2652 C   0  0  0  0  0  0  0  0  0  0  0  0
  149.7734  136.0585  156.7824 C   0  0  0  0  0  0  0  0  0  0  0  0
  149.0011  135.3938  155.7418 N   0  0  0  0  0  0  0  0  0  0  0  0
  147.9180  135.9073  155.0668 C   0  0  0  0  0  0  0  0  0  0  0  0
  147.3928  135.1149  154.1741 N   0  0  0  0  0  0  0  0  0  0  0  0
  148.1846  133.9719  154.2145 C   0  0  0  0  0  0  0  0  0  0  0  0
  148.1860  132.7269  153.5155 C   0  0  0  0  0  0  0  0  0  0  0  0
  147.2901  132.3776  152.5547 N   0  0  0  0  0  0  0  0  0  0  0  0
  146.5618  131.1131  152.5943 C   0  0  0  0  0  0  0  0  0  0  0  0
  145.5143  131.2199  151.5133 C   0  0  2  0  0  0  0  0  0  0  0  0
  145.8854  131.5086  150.0726 C   0  0  0  0  0  0  0  0  0  0  0  0
  145.5044  132.6318  151.0146 C   0  0  1  0  0  0  0  0  0  0  0  0
  144.2273  133.4313  150.7892 C   0  0  0  0  0  0  0  0  0  0  0  0
  144.4948  134.5544  150.1227 F   0  0  0  0  0  0  0  0  0  0  0  0
  143.3613  132.7033  150.0849 F   0  0  0  0  0  0  0  0  0  0  0  0
  143.6593  133.7598  151.9499 F   0  0  0  0  0  0  0  0  0  0  0  0
  146.5724  133.3885  151.7785 C   0  0  0  0  0  0  0  0  0  0  0  0
  149.1497  131.8290  153.8529 N   0  0  0  0  0  0  0  0  0  0  0  0
  150.0546  132.1207  154.7906 C   0  0  0  0  0  0  0  0  0  0  0  0
  150.1756  133.2340  155.5136 N   0  0  0  0  0  0  0  0  0  0  0  0
  149.2070  134.1386  155.1941 C   0  0  0  0  0  0  0  0  0  0  0  0
  150.2258  138.5173  156.4703 C   0  0  0  0  0  0  0  0  0  0  0  0
  151.0255  139.6106  155.7390 C   0  0  0  0  0  0  0  0  0  0  0  0
  151.1011  139.3085  154.3519 O   0  0  0  0  0  0  0  0  0  0  0  0
  151.7786  138.0868  154.0897 C   0  0  0  0  0  0  0  0  0  0  0  0
  151.0244  136.9129  154.7414 C   0  0  0  0  0  0  0  0  0  0  0  0
  153.3588  135.5006  157.5236 H   0  0  0  0  0  0  0  0  0  0  0  0
  152.0777  137.1207  158.0699 H   0  0  0  0  0  0  0  0  0  0  0  0
  152.8997  137.6652  156.6402 H   0  0  0  0  0  0  0  0  0  0  0  0
  150.2711  135.2879  157.3726 H   0  0  0  0  0  0  0  0  0  0  0  0
  149.0698  136.5369  157.4651 H   0  0  0  0  0  0  0  0  0  0  0  0
  147.5214  136.8927  155.2646 H   0  0  0  0  0  0  0  0  0  0  0  0
  147.2182  130.2660  152.3940 H   0  0  0  0  0  0  0  0  0  0  0  0
  146.0809  130.9762  153.5636 H   0  0  0  0  0  0  0  0  0  0  0  0
  144.5671  130.7156  151.6945 H   0  0  0  0  0  0  0  0  0  0  0  0
  146.9321  131.4171  149.7889 H   0  0  0  0  0  0  0  0  0  0  0  0
  145.1723  131.2148  149.3051 H   0  0  0  0  0  0  0  0  0  0  0  0
  146.1180  134.1247  152.4422 H   0  0  0  0  0  0  0  0  0  0  0  0
  147.2386  133.9021  151.0845 H   0  0  0  0  0  0  0  0  0  0  0  0
  150.7856  131.3512  154.9905 H   0  0  0  0  0  0  0  0  0  0  0  0
  149.2026  138.5430  156.0923 H   0  0  0  0  0  0  0  0  0  0  0  0
  150.1550  138.7574  157.5314 H   0  0  0  0  0  0  0  0  0  0  0  0
  150.5278  140.5731  155.8571 H   0  0  0  0  0  0  0  0  0  0  0  0
  152.0257  139.7259  156.1574 H   0  0  0  0  0  0  0  0  0  0  0  0
  151.8238  137.9413  153.0102 H   0  0  0  0  0  0  0  0  0  0  0  0
  152.8104  138.1453  154.4368 H   0  0  0  0  0  0  0  0  0  0  0  0
  151.5556  135.9828  154.5364 H   0  0  0  0  0  0  0  0  0  0  0  0
  150.0550  136.8236  154.2497 H   0  0  0  0  0  0  0  0  0  0  0  0
  1  2  1  0  0  0  0
  1 29  1  0  0  0  0
  2  3  1  0  0  0  0
  2 30  1  0  0  0  0
  2 31  1  0  0  0  0
  3 28  1  0  0  0  0
  3  4  1  0  0  0  0
  3 24  1  0  0  0  0
  4  5  1  0  0  0  0
  4 32  1  0  0  0  0
  4 33  1  0  0  0  0
  5 23  1  0  0  0  0
  5  6  1  0  0  0  0
  6  7  2  0  0  0  0
  6 34  1  0  0  0  0
  7  8  1  0  0  0  0
  8 23  2  0  0  0  0
  8  9  1  0  0  0  0
  9 10  1  0  0  0  0
  9 20  2  0  0  0  0
 10 19  1  0  0  0  0
 10 11  1  0  0  0  0
 11 12  1  0  0  0  0
 11 35  1  0  0  0  0
 11 36  1  0  0  0  0
 12 14  1  0  0  0  0
 12 13  1  0  0  0  0
 12 37  1  0  0  0  0
 13 14  1  0  0  0  0
 13 38  1  0  0  0  0
 13 39  1  0  0  0  0
 14 15  1  0  0  0  0
 14 19  1  0  0  0  0
 15 16  1  0  0  0  0
 15 17  1  0  0  0  0
 15 18  1  0  0  0  0
 19 40  1  0  0  0  0
 19 41  1  0  0  0  0
 20 21  1  0  0  0  0
 21 22  2  0  0  0  0
 21 42  1  0  0  0  0
 22 23  1  0  0  0  0
 24 25  1  0  0  0  0
 24 43  1  0  0  0  0
 24 44  1  0  0  0  0
 25 26  1  0  0  0  0
 25 45  1  0  0  0  0
 25 46  1  0  0  0  0
 26 27  1  0  0  0  0
 27 28  1  0  0  0  0
 27 47  1  0  0  0  0
 27 48  1  0  0  0  0
 28 49  1  0  0  0  0
 28 50  1  0  0  0  0
M  END
> <s_m_source_file>
AV-unprocessed.smi

> <i_m_source_file_index>
251

> <i_lp_mmshare_version>
43012

> <i_f3d_flags>
0

> <s_epik_input>
W0NIMl0xW0NIMl1PW0NIMl1bQ0gyXUMxKFtDSDJdW09IXSlbQ0gyXW4oW2NIXW4yKWMoYzIzKW5bY0hdbmMzTihbQ0gyXTQpW0NIMl1bQ0BIXShbQ0gyXTUpW0NAQF00NUMoRikoRilG

> <s_epik_cmdline>
J2VwaWtfcHl0aG9uJywgJy1waCcsICc3LjAnLCAnLXRuJywgJzgnLCAnLW1hJywgJzIwMCcsICctbWV0YWxfYmluZGluZycsICctaW1hZScsICc8aW5maWxlLm1hZT4nLCAnLW9tYWUnLCAnPG91dGZpbGUubWFlPic=

> <r_lp_tautomer_probability>
1

> <r_epik_Ionization_Penalty>
0.00226625

> <r_epik_Ionization_Penalty_Charging>
0

> <r_epik_Ionization_Penalty_Neutral>
0.00226625

> <r_epik_State_Penalty>
0.00138204

> <r_epik_Charging_Adjusted_Penalty>
0.00138204

> <i_epik_Tot_Q>
0

> <i_epik_Tot_abs_Q>
0

> <r_epik_Metal_State_Penalty>
-0

> <b_epik_Metal_Only>
0

> <s_lp_Force_Field>
OPLS_2005

> <r_lp_Energy>
66.9783

> <b_lp_Chiralities_Consistent>
1

> <s_lp_Variant>
AV-unprocessed.smi:251-1

> <Gold.Version>
5.8.1

> <Gold.Id.Protein>
6NUR|6NUR_protein|mol2

> <Gold.PLP.Fitness>
45.6549

> <Gold.PLP.PLP>
-43.1222

> <Gold.PLP.part.hbond>
-2.0000

> <Gold.PLP.part.metal>
0.0000

> <Gold.PLP.part.buried>
-3.1583

> <Gold.PLP.part.nonpolar>
-37.4906

> <Gold.PLP.part.repulsive>
1.0107

> <Gold.PLP.ligand.clash>
0.0000

> <Gold.PLP.ligand.torsion>
2.6250

> <Gold.PLP.Chemscore.Hbond>
2.0000

> <Gold.PLP.Chemscore.CHOScore>
0.0000

> <Gold.PLP.Chemscore.Metal>
0.0000

> <Gold.Chemscore.Hbonds>
donor molecule, donor type, donor heavy atom, donor atom, acceptor molecule, acceptor atom, score
      P1  H  7989  7998       L1    26  1.00
      P1  H 10752 10765       L1     1  1.00

> <Gold.PLP.Chemscore.Internal.Correction>
1.7827

> <Gold.Rescore>
     Score         DG    S(hbond)    S(metal)    S(lipo)     H(rot)  DE(clash)    DE(int)     intcor
     11.03     -14.97       1.72        0.00      80.88       2.23       1.05       2.89       ----

> <Gold.Chemscore.Fitness>
11.0284

> <Gold.Chemscore.DG>
-14.9750

> <Gold.Chemscore.ZeroCoef>
-5.4800

> <Gold.Chemscore.Hbond>
1.7221

> <Gold.Chemscore.Metal>
0.0000

> <Gold.Chemscore.Lipo>
80.8823

> <Gold.Chemscore.Internal_Hbond>
0.0000

> <Gold.Chemscore.DEClash>
1.0547

> <Gold.Chemscore.DEInternal>
2.8918

> <Gold.Chemscore.Rot>
2.2344

> <Gold.Chemscore.Internal.Correction>
   9.000000E+99

> <Gold.Chemscore.Hbonds>
donor molecule, donor type, donor heavy atom, donor atom, acceptor molecule, acceptor atom, score
      P1  H  7989  7998       L1    26  0.58
      P1  H 10752 10765       L1     1  0.66

> <Gold.Chemscore.Hbond.Weighted>
-5.7518

> <Gold.Chemscore.Metal.Weighted>
-0.0000

> <Gold.Chemscore.Lipo.Weighted>
-9.4632

> <Gold.Chemscore.Internal_Hbond.Weighted>
0.0000

> <Gold.Chemscore.DEClash.Weighted>
1.0547

> <Gold.Chemscore.DEInternal.Weighted>
2.8918

> <Gold.Chemscore.Rot.Weighted>
5.7200

> <Gold.Chemscore.Internal.Correction.Weighted>
   9.000000E+99

> <Gold.Protein.RotatedTorsions>
[ 6907 6896 6895 6894 ] final   66.51 input  -60.11 | X-H torsion
[ 7974 7965 7964 7962 ] final   81.34 input  175.53 | X-H torsion
[ 8008 7997 7996 7995 ] final   39.39 input   59.86 | X-H torsion
[ 10167 10162 10161 10158 ] final   51.57 input  -65.29 | X-H torsion
[ 10718 10713 10712 10709 ] final  147.61 input   66.30 | X-H torsion
[ 10763 10752 10751 10750 ] final -143.30 input  -60.55 | X-H torsion
[ 11005 11000 10999 10996 ] final -169.47 input  -57.11 | X-H torsion

> <Gold.Protein.ActiveResidues>
 VAL166  LYS551  ARG553  GLY616  TRP617  ASP618  TYR619  PRO620  LYS621  CYS622 
 ASP623  PHE694  ASN695  SER759  ASP760  ASP761  ALA762  ILE779  LEU786  VAL792 
 PHE793  MET794  SER795  GLU796  ALA797  LYS798  CYS799  TRP800  GLU811  SER814 

> <Gold.Protein.RotatedAtoms>
  152.4486  134.5442  159.9847 H   0  0  0  0  0  0  0  0  0  0  0  0  # atno 6907 bound_to 6896
  151.5521  133.3410  159.2963 H   0  0  0  0  0  0  0  0  0  0  0  0  # atno 6908 bound_to 6896
  150.8408  134.7732  159.6994 H   0  0  0  0  0  0  0  0  0  0  0  0  # atno 6909 bound_to 6896
  145.6394  139.2422  143.2039 H   0  0  0  0  0  0  0  0  0  0  0  0  # atno 7974 bound_to 7965
  155.2359  140.3342  155.4298 H   0  0  0  0  0  0  0  0  0  0  0  0  # atno 8008 bound_to 7997
  156.2276  140.1836  156.7370 H   0  0  0  0  0  0  0  0  0  0  0  0  # atno 8009 bound_to 7997
  154.5924  140.0636  156.9242 H   0  0  0  0  0  0  0  0  0  0  0  0  # atno 8010 bound_to 7997
  140.2606  144.3377  150.6319 H   0  0  0  0  0  0  0  0  0  0  0  0  # atno 10167 bound_to 10162
  157.3189  131.0901  151.1257 H   0  0  0  0  0  0  0  0  0  0  0  0  # atno 10718 bound_to 10713
  154.8475  135.3472  154.6165 H   0  0  0  0  0  0  0  0  0  0  0  0  # atno 10763 bound_to 10752
  153.6773  135.6982  153.5133 H   0  0  0  0  0  0  0  0  0  0  0  0  # atno 10764 bound_to 10752
  153.2695  135.4297  155.0930 H   0  0  0  0  0  0  0  0  0  0  0  0  # atno 10765 bound_to 10752
  140.5303  134.5622  157.5073 H   0  0  0  0  0  0  0  0  0  0  0  0  # atno 11005 bound_to 11000
  146.1293  140.7207  142.9420 LP  0  0  0  0  0  0  0  0  0  0  0  0  # atno 17320 bound_to 7965
  144.7163  140.4221  143.7042 LP  0  0  0  0  0  0  0  0  0  0  0  0  # atno 17321 bound_to 7965
  140.5969  143.2167  151.7147 LP  0  0  0  0  0  0  0  0  0  0  0  0  # atno 17342 bound_to 10162
  139.5018  144.3853  152.0334 LP  0  0  0  0  0  0  0  0  0  0  0  0  # atno 17343 bound_to 10162
  157.2549  130.6631  149.5948 LP  0  0  0  0  0  0  0  0  0  0  0  0  # atno 17370 bound_to 10713
  155.9684  130.4526  150.5782 LP  0  0  0  0  0  0  0  0  0  0  0  0  # atno 17371 bound_to 10713
  139.9558  134.7538  156.0346 LP  0  0  0  0  0  0  0  0  0  0  0  0  # atno 17394 bound_to 11000
  141.1285  133.6593  156.3400 LP  0  0  0  0  0  0  0  0  0  0  0  0  # atno 17395 bound_to 11000

$$$$
