AV-unprocessed.smi:1419|AV-procd|sdf|5779|dock5
  -GOLD-   22720 5423D 1   1.00000     0.00000
 Structure written by MMmdl.
 42 43  0  0  0  0  0  0  0  0  2 V2000
  147.5672  142.1064  156.4988 C   0  0  0  0  0  0  0  0  0  0  0  0
  148.9958  141.5410  156.4501 C   0  0  1  0  0  0  0  0  0  0  0  0
  149.5253  141.3580  155.0102 C   0  0  0  0  0  0  0  0  0  0  0  0
  148.6913  140.4638  154.2028 N   0  0  0  0  0  0  0  0  0  0  0  0
  147.3796  140.6424  153.8447 C   0  0  0  0  0  0  0  0  0  0  0  0
  147.0288  139.5520  153.0909 C   0  0  0  0  0  0  0  0  0  0  0  0
  148.1412  138.7566  153.0183 N   0  3  0  0  0  0  0  0  0  0  0  0
  149.1519  139.3144  153.6929 C   0  0  0  0  0  0  0  0  0  0  0  0
  149.8822  142.4194  157.2073 N   0  0  0  0  0  0  0  0  0  0  0  0
  150.7464  142.0269  158.1591 C   0  0  0  0  0  0  0  0  0  0  0  0
  150.8676  140.8450  158.4850 O   0  0  0  0  0  0  0  0  0  0  0  0
  151.4697  143.0293  158.7166 N   0  0  0  0  0  0  0  0  0  0  0  0
  152.5155  142.9042  159.7404 C   0  0  0  0  0  0  0  0  0  0  0  0
  151.9773  143.5021  161.0546 C   0  0  1  0  0  0  0  0  0  0  0  0
  153.0286  143.4819  162.1696 C   0  0  0  0  0  0  0  0  0  0  0  0
  151.5916  144.8619  160.8372 O   0  0  0  0  0  0  0  0  0  0  0  0
  150.6526  145.0813  159.7790 C   0  0  2  0  0  0  0  0  0  0  0  0
  149.2398  144.6168  160.1774 C   0  0  0  0  0  0  0  0  0  0  0  0
  151.1774  144.4440  158.4748 C   0  0  0  0  0  0  0  0  0  0  0  0
  146.8528  141.4325  156.0255 H   0  0  0  0  0  0  0  0  0  0  0  0
  147.5047  143.0693  155.9907 H   0  0  0  0  0  0  0  0  0  0  0  0
  147.2385  142.2519  157.5286 H   0  0  0  0  0  0  0  0  0  0  0  0
  148.9781  140.5673  156.9437 H   0  0  0  0  0  0  0  0  0  0  0  0
  149.5781  142.3191  154.4968 H   0  0  0  0  0  0  0  0  0  0  0  0
  150.5364  140.9477  155.0145 H   0  0  0  0  0  0  0  0  0  0  0  0
  146.8078  141.5077  154.1473 H   0  0  0  0  0  0  0  0  0  0  0  0
  146.0958  139.2898  152.6134 H   0  0  0  0  0  0  0  0  0  0  0  0
  150.1442  138.9145  153.8058 H   0  0  0  0  0  0  0  0  0  0  0  0
  149.8372  143.4053  156.9939 H   0  0  0  0  0  0  0  0  0  0  0  0
  152.8510  141.8806  159.9066 H   0  0  0  0  0  0  0  0  0  0  0  0
  153.4018  143.4508  159.4142 H   0  0  0  0  0  0  0  0  0  0  0  0
  151.1140  142.9268  161.3909 H   0  0  0  0  0  0  0  0  0  0  0  0
  153.3534  142.4638  162.3852 H   0  0  0  0  0  0  0  0  0  0  0  0
  152.6272  143.9046  163.0908 H   0  0  0  0  0  0  0  0  0  0  0  0
  153.9088  144.0627  161.8924 H   0  0  0  0  0  0  0  0  0  0  0  0
  150.6050  146.1603  159.6292 H   0  0  0  0  0  0  0  0  0  0  0  0
  148.5177  144.8698  159.4008 H   0  0  0  0  0  0  0  0  0  0  0  0
  148.9173  145.1032  161.0982 H   0  0  0  0  0  0  0  0  0  0  0  0
  149.1829  143.5400  160.3338 H   0  0  0  0  0  0  0  0  0  0  0  0
  152.0924  144.9468  158.1582 H   0  0  0  0  0  0  0  0  0  0  0  0
  150.4615  144.6002  157.6667 H   0  0  0  0  0  0  0  0  0  0  0  0
  148.1941  137.8739  152.5253 H   0  0  0  0  0  0  0  0  0  0  0  0
  1  2  1  0  0  0  0
  1 20  1  0  0  0  0
  1 21  1  0  0  0  0
  1 22  1  0  0  0  0
  2  3  1  0  0  0  0
  2  9  1  0  0  0  0
  2 23  1  0  0  0  0
  3  4  1  0  0  0  0
  3 24  1  0  0  0  0
  3 25  1  0  0  0  0
  4  8  1  0  0  0  0
  4  5  1  0  0  0  0
  5  6  2  0  0  0  0
  5 26  1  0  0  0  0
  6  7  1  0  0  0  0
  6 27  1  0  0  0  0
  7  8  2  0  0  0  0
  7 42  1  0  0  0  0
  8 28  1  0  0  0  0
  9 10  1  0  0  0  0
  9 29  1  0  0  0  0
 10 11  2  0  0  0  0
 10 12  1  0  0  0  0
 12 19  1  0  0  0  0
 12 13  1  0  0  0  0
 13 14  1  0  0  0  0
 13 30  1  0  0  0  0
 13 31  1  0  0  0  0
 14 15  1  0  0  0  0
 14 16  1  0  0  0  0
 14 32  1  0  0  0  0
 15 33  1  0  0  0  0
 15 34  1  0  0  0  0
 15 35  1  0  0  0  0
 16 17  1  0  0  0  0
 17 18  1  0  0  0  0
 17 19  1  0  0  0  0
 17 36  1  0  0  0  0
 18 37  1  0  0  0  0
 18 38  1  0  0  0  0
 18 39  1  0  0  0  0
 19 40  1  0  0  0  0
 19 41  1  0  0  0  0
M  CHG  1   7   1
M  END
> <s_m_source_file>
AV-unprocessed.smi

> <i_m_source_file_index>
1419

> <i_lp_mmshare_version>
43012

> <i_f3d_flags>
0

> <s_epik_input>
W2NIXTFuW2NIXVtjSF1uMVtDSDJdW0NAQEhdKFtDSDNdKVtOSF1DKD1PKU4yW0NIMl1bQ0BASF0oW0NIM10pT1tDQEBIXShbQ0gzXSlbQ0gyXTI=

> <s_epik_cmdline>
J2VwaWtfcHl0aG9uJywgJy1waCcsICc3LjAnLCAnLXRuJywgJzgnLCAnLW1hJywgJzIwMCcsICctbWV0YWxfYmluZGluZycsICctaW1hZScsICc8aW5maWxlLm1hZT4nLCAnLW9tYWUnLCAnPG91dGZpbGUubWFlPic=

> <r_lp_tautomer_probability>
1

> <r_epik_Ionization_Penalty>
0.253607

> <r_epik_Ionization_Penalty_Charging>
0

> <r_epik_Ionization_Penalty_Neutral>
0.253607

> <r_epik_State_Penalty>
0.245018

> <r_epik_Charging_Adjusted_Penalty>
0.245018

> <i_epik_Tot_Q>
1

> <i_epik_Tot_abs_Q>
1

> <r_epik_Metal_State_Penalty>
0.535379

> <b_epik_Metal_Only>
0

> <s_lp_Force_Field>
OPLS_2005

> <r_lp_Energy>
32.7532

> <b_lp_Chiralities_Consistent>
1

> <s_lp_Variant>
AV-unprocessed.smi:1419-6

> <Gold.Version>
5.8.1

> <Gold.Id.Protein>
6NUR|6NUR_protein|mol2

> <Gold.PLP.Fitness>
44.9395

> <Gold.PLP.PLP>
-38.2703

> <Gold.PLP.part.hbond>
-3.0000

> <Gold.PLP.part.metal>
0.0000

> <Gold.PLP.part.buried>
-1.7217

> <Gold.PLP.part.nonpolar>
-34.1020

> <Gold.PLP.part.repulsive>
0.2849

> <Gold.PLP.ligand.clash>
1.1875

> <Gold.PLP.ligand.torsion>
0.1639

> <Gold.PLP.Chemscore.Hbond>
2.7166

> <Gold.PLP.Chemscore.CHOScore>
0.0000

> <Gold.PLP.Chemscore.Metal>
0.0000

> <Gold.Chemscore.Hbonds>
donor molecule, donor type, donor heavy atom, donor atom, acceptor molecule, acceptor atom, score
      L1  H     7    42       P1  7948  2.00
      L1  H     9    29       P1  8028  0.69

> <Gold.PLP.Chemscore.Internal.Correction>
0.0347

> <Gold.Rescore>
     Score         DG    S(hbond)    S(metal)    S(lipo)     H(rot)  DE(clash)    DE(int)     intcor
     15.68     -18.08       1.87        0.00      89.80       1.63       2.22       0.19       ----

> <Gold.Chemscore.Fitness>
15.6768

> <Gold.Chemscore.DG>
-18.0798

> <Gold.Chemscore.ZeroCoef>
-5.4800

> <Gold.Chemscore.Hbond>
1.8738

> <Gold.Chemscore.Metal>
0.0000

> <Gold.Chemscore.Lipo>
89.8039

> <Gold.Chemscore.Internal_Hbond>
0.0000

> <Gold.Chemscore.DEClash>
2.2174

> <Gold.Chemscore.DEInternal>
0.1856

> <Gold.Chemscore.Rot>
1.6273

> <Gold.Chemscore.Internal.Correction>
   9.000000E+99

> <Gold.Chemscore.Hbonds>
donor molecule, donor type, donor heavy atom, donor atom, acceptor molecule, acceptor atom, score
      L1  H     7    42       P1  7948  0.99
      L1  H     9    29       P1  8028  0.66

> <Gold.Chemscore.Hbond.Weighted>
-6.2586

> <Gold.Chemscore.Metal.Weighted>
-0.0000

> <Gold.Chemscore.Lipo.Weighted>
-10.5071

> <Gold.Chemscore.Internal_Hbond.Weighted>
0.0000

> <Gold.Chemscore.DEClash.Weighted>
2.2174

> <Gold.Chemscore.DEInternal.Weighted>
0.1856

> <Gold.Chemscore.Rot.Weighted>
4.1658

> <Gold.Chemscore.Internal.Correction.Weighted>
   9.000000E+99

> <Gold.Protein.RotatedTorsions>
[ 6907 6896 6895 6894 ] final -127.05 input  -60.11 | X-H torsion
[ 7974 7965 7964 7962 ] final -172.98 input  175.53 | X-H torsion
[ 8008 7997 7996 7995 ] final   35.36 input   59.86 | X-H torsion
[ 10167 10162 10161 10158 ] final  -50.16 input  -65.29 | X-H torsion
[ 10718 10713 10712 10709 ] final  -52.97 input   66.30 | X-H torsion
[ 10763 10752 10751 10750 ] final   81.35 input  -60.55 | X-H torsion
[ 11005 11000 10999 10996 ] final   -2.35 input  -57.11 | X-H torsion

> <Gold.Protein.ActiveResidues>
 VAL166  LYS551  ARG553  GLY616  TRP617  ASP618  TYR619  PRO620  LYS621  CYS622 
 ASP623  PHE694  ASN695  SER759  ASP760  ASP761  ALA762  ILE779  LEU786  VAL792 
 PHE793  MET794  SER795  GLU796  ALA797  LYS798  CYS799  TRP800  GLU811  SER814 

> <Gold.Protein.RotatedAtoms>
  150.9033  133.7090  159.2873 H   0  0  0  0  0  0  0  0  0  0  0  0  # atno 6907 bound_to 6896
  151.4602  135.1036  159.9732 H   0  0  0  0  0  0  0  0  0  0  0  0  # atno 6908 bound_to 6896
  152.4889  133.8398  159.7202 H   0  0  0  0  0  0  0  0  0  0  0  0  # atno 6909 bound_to 6896
  144.7141  140.1691  143.6369 H   0  0  0  0  0  0  0  0  0  0  0  0  # atno 7974 bound_to 7965
  155.1698  140.3290  155.4395 H   0  0  0  0  0  0  0  0  0  0  0  0  # atno 8008 bound_to 7997
  156.2514  140.1945  156.6752 H   0  0  0  0  0  0  0  0  0  0  0  0  # atno 8009 bound_to 7997
  154.6345  140.0578  156.9759 H   0  0  0  0  0  0  0  0  0  0  0  0  # atno 8010 bound_to 7997
  140.6651  143.2668  151.4319 H   0  0  0  0  0  0  0  0  0  0  0  0  # atno 10167 bound_to 10162
  156.1575  130.4150  149.9846 H   0  0  0  0  0  0  0  0  0  0  0  0  # atno 10718 bound_to 10713
  153.1110  135.4768  154.9034 H   0  0  0  0  0  0  0  0  0  0  0  0  # atno 10763 bound_to 10752
  154.7480  135.3099  154.8612 H   0  0  0  0  0  0  0  0  0  0  0  0  # atno 10764 bound_to 10752
  153.9201  135.6856  153.4801 H   0  0  0  0  0  0  0  0  0  0  0  0  # atno 10765 bound_to 10752
  140.6574  133.9350  155.8416 H   0  0  0  0  0  0  0  0  0  0  0  0  # atno 11005 bound_to 11000
  145.8960  139.2403  143.1521 LP  0  0  0  0  0  0  0  0  0  0  0  0  # atno 17320 bound_to 7965
  145.9857  140.8645  143.0092 LP  0  0  0  0  0  0  0  0  0  0  0  0  # atno 17321 bound_to 7965
  139.5897  144.1527  152.2073 LP  0  0  0  0  0  0  0  0  0  0  0  0  # atno 17342 bound_to 10162
  140.0877  144.5647  150.7077 LP  0  0  0  0  0  0  0  0  0  0  0  0  # atno 17343 bound_to 10162
  156.7685  130.9177  151.3643 LP  0  0  0  0  0  0  0  0  0  0  0  0  # atno 17370 bound_to 10713
  157.6706  130.9048  150.0032 LP  0  0  0  0  0  0  0  0  0  0  0  0  # atno 17371 bound_to 10713
  141.0491  134.0511  157.3806 LP  0  0  0  0  0  0  0  0  0  0  0  0  # atno 17394 bound_to 11000
  139.9024  135.0169  156.7333 LP  0  0  0  0  0  0  0  0  0  0  0  0  # atno 17395 bound_to 11000

$$$$
