AV-unprocessed.smi:1209|AV-procd|sdf|5070|dock3
  -GOLD-   22720 4113D 1   1.00000     0.00000
 Structure written by MMmdl.
 48 50  0  0  0  0  0  0  0  0  1 V2000
  143.8171  145.9812  157.6008 C   0  0  0  0  0  0  0  0  0  0  0  0
  144.5904  144.7321  157.3514 C   0  0  0  0  0  0  0  0  0  0  0  0
  144.7351  143.9294  156.2561 C   0  0  0  0  0  0  0  0  0  0  0  0
  145.6152  142.9059  156.7034 C   0  0  0  0  0  0  0  0  0  0  0  0
  146.1428  141.7256  155.9319 C   0  0  0  0  0  0  0  0  0  0  0  0
  146.9482  142.0963  154.7631 N   0  0  0  0  0  0  0  0  0  0  0  0
  146.1764  142.9010  153.8200 C   0  0  0  0  0  0  0  0  0  0  0  0
  147.5002  140.9240  154.0807 C   0  0  0  0  0  0  0  0  0  0  0  0
  148.8189  140.3727  154.6657 C   0  0  1  0  0  0  0  0  0  0  0  0
  149.4172  139.5070  153.7187 O   0  0  0  0  0  0  0  0  0  0  0  0
  149.8152  141.5006  155.0000 C   0  0  0  0  0  0  0  0  0  0  0  0
  150.8425  141.0780  155.9357 N   0  0  0  0  0  0  0  0  0  0  0  0
  151.6447  140.0020  155.8234 C   0  0  0  0  0  0  0  0  0  0  0  0
  152.5244  139.7938  156.7987 N   0  0  0  0  0  0  0  0  0  0  0  0
  152.2638  140.8609  157.6416 C   0  0  0  0  0  0  0  0  0  0  0  0
  152.8595  141.2259  158.8688 C   0  0  0  0  0  0  0  0  0  0  0  0
  152.4298  142.3755  159.5696 C   0  0  0  0  0  0  0  0  0  0  0  0
  153.0992  142.7317  160.8853 C   0  0  0  0  0  0  0  0  0  0  0  0
  151.3878  143.1805  159.0430 C   0  0  0  0  0  0  0  0  0  0  0  0
  150.9114  144.4215  159.7770 C   0  0  0  0  0  0  0  0  0  0  0  0
  150.7811  142.8293  157.8188 C   0  0  0  0  0  0  0  0  0  0  0  0
  151.2170  141.6830  157.1309 C   0  0  0  0  0  0  0  0  0  0  0  0
  145.9669  143.0793  157.9673 N   0  0  0  0  0  0  0  0  0  0  0  0
  145.3174  144.2448  158.3894 O   0  0  0  0  0  0  0  0  0  0  0  0
  143.3970  146.3706  156.6733 H   0  0  0  0  0  0  0  0  0  0  0  0
  144.4556  146.7523  158.0322 H   0  0  0  0  0  0  0  0  0  0  0  0
  142.9953  145.7944  158.2922 H   0  0  0  0  0  0  0  0  0  0  0  0
  144.2833  144.0550  155.2835 H   0  0  0  0  0  0  0  0  0  0  0  0
  146.7398  141.1229  156.6155 H   0  0  0  0  0  0  0  0  0  0  0  0
  145.3154  141.0867  155.6204 H   0  0  0  0  0  0  0  0  0  0  0  0
  146.7852  143.1816  152.9598 H   0  0  0  0  0  0  0  0  0  0  0  0
  145.8286  143.8264  154.2794 H   0  0  0  0  0  0  0  0  0  0  0  0
  145.3064  142.3537  153.4544 H   0  0  0  0  0  0  0  0  0  0  0  0
  146.7507  140.1334  154.0127 H   0  0  0  0  0  0  0  0  0  0  0  0
  147.7031  141.2130  153.0485 H   0  0  0  0  0  0  0  0  0  0  0  0
  148.6138  139.8080  155.5766 H   0  0  0  0  0  0  0  0  0  0  0  0
  149.5877  139.9964  152.9286 H   0  0  0  0  0  0  0  0  0  0  0  0
  150.2964  141.8698  154.0935 H   0  0  0  0  0  0  0  0  0  0  0  0
  149.2882  142.3488  155.4390 H   0  0  0  0  0  0  0  0  0  0  0  0
  151.5784  139.3339  154.9771 H   0  0  0  0  0  0  0  0  0  0  0  0
  153.6539  140.6130  159.2688 H   0  0  0  0  0  0  0  0  0  0  0  0
  153.5821  143.7067  160.8155 H   0  0  0  0  0  0  0  0  0  0  0  0
  153.8602  141.9996  161.1564 H   0  0  0  0  0  0  0  0  0  0  0  0
  152.3659  142.7648  161.6913 H   0  0  0  0  0  0  0  0  0  0  0  0
  150.1134  144.9254  159.2308 H   0  0  0  0  0  0  0  0  0  0  0  0
  151.7305  145.1300  159.9010 H   0  0  0  0  0  0  0  0  0  0  0  0
  150.5273  144.1582  160.7626 H   0  0  0  0  0  0  0  0  0  0  0  0
  149.9877  143.4343  157.4059 H   0  0  0  0  0  0  0  0  0  0  0  0
  1  2  1  0  0  0  0
  1 25  1  0  0  0  0
  1 26  1  0  0  0  0
  1 27  1  0  0  0  0
  2 24  1  0  0  0  0
  2  3  2  0  0  0  0
  3  4  1  0  0  0  0
  3 28  1  0  0  0  0
  4  5  1  0  0  0  0
  4 23  2  0  0  0  0
  5  6  1  0  0  0  0
  5 29  1  0  0  0  0
  5 30  1  0  0  0  0
  6  7  1  0  0  0  0
  6  8  1  0  0  0  0
  7 31  1  0  0  0  0
  7 32  1  0  0  0  0
  7 33  1  0  0  0  0
  8  9  1  0  0  0  0
  8 34  1  0  0  0  0
  8 35  1  0  0  0  0
  9 10  1  0  0  0  0
  9 11  1  0  0  0  0
  9 36  1  0  0  0  0
 10 37  1  0  0  0  0
 11 12  1  0  0  0  0
 11 38  1  0  0  0  0
 11 39  1  0  0  0  0
 12 22  1  0  0  0  0
 12 13  1  0  0  0  0
 13 14  2  0  0  0  0
 13 40  1  0  0  0  0
 14 15  1  0  0  0  0
 15 22  2  0  0  0  0
 15 16  1  0  0  0  0
 16 17  2  0  0  0  0
 16 41  1  0  0  0  0
 17 18  1  0  0  0  0
 17 19  1  0  0  0  0
 18 42  1  0  0  0  0
 18 43  1  0  0  0  0
 18 44  1  0  0  0  0
 19 20  1  0  0  0  0
 19 21  2  0  0  0  0
 20 45  1  0  0  0  0
 20 46  1  0  0  0  0
 20 47  1  0  0  0  0
 21 22  1  0  0  0  0
 21 48  1  0  0  0  0
 23 24  1  0  0  0  0
M  END
> <s_m_source_file>
AV-unprocessed.smi

> <i_m_source_file_index>
1209

> <i_lp_mmshare_version>
43012

> <i_f3d_flags>
0

> <s_epik_input>
W0NIM11jMVtjSF1jKG5vMSlbQ0gyXU4oW0NIM10pW0NIMl1bQ0BIXShbT0hdKVtDSDJdbihbY0hdbjIpYyhjMjMpW2NIXWMoW0NIM10pYyhbY0hdMylbQ0gzXQ==

> <s_epik_cmdline>
J2VwaWtfcHl0aG9uJywgJy1waCcsICc3LjAnLCAnLXRuJywgJzgnLCAnLW1hJywgJzIwMCcsICctbWV0YWxfYmluZGluZycsICctaW1hZScsICc8aW5maWxlLm1hZT4nLCAnLW9tYWUnLCAnPG91dGZpbGUubWFlPic=

> <r_epik_Ionization_Penalty>
0.103258

> <r_epik_Ionization_Penalty_Charging>
0

> <r_epik_Ionization_Penalty_Neutral>
0.103258

> <r_epik_State_Penalty>
0.0919675

> <r_epik_Charging_Adjusted_Penalty>
0.0919675

> <i_epik_Tot_Q>
0

> <i_epik_Tot_abs_Q>
0

> <r_epik_Metal_State_Penalty>
0.0812522

> <b_epik_Metal_Only>
0

> <s_lp_Force_Field>
OPLS_2005

> <r_lp_Energy>
16.8498

> <b_lp_Chiralities_Consistent>
1

> <s_lp_Variant>
AV-unprocessed.smi:1209-2

> <Gold.Version>
5.8.1

> <Gold.Id.Protein>
6NUR|6NUR_protein|mol2

> <Gold.PLP.Fitness>
51.1250

> <Gold.PLP.PLP>
-46.0988

> <Gold.PLP.part.hbond>
-2.0000

> <Gold.PLP.part.metal>
0.0000

> <Gold.PLP.part.buried>
-7.3054

> <Gold.PLP.part.nonpolar>
-36.7365

> <Gold.PLP.part.repulsive>
0.4153

> <Gold.PLP.ligand.clash>
0.0000

> <Gold.PLP.ligand.torsion>
0.6598

> <Gold.PLP.Chemscore.Hbond>
2.0000

> <Gold.PLP.Chemscore.CHOScore>
0.0000

> <Gold.PLP.Chemscore.Metal>
0.0000

> <Gold.Chemscore.Hbonds>
donor molecule, donor type, donor heavy atom, donor atom, acceptor molecule, acceptor atom, score
      L1  H    10    37       P1  7957  0.98
      P1  H  7997  8008       L1    14  0.95

> <Gold.PLP.Chemscore.Internal.Correction>
0.3459

> <Gold.Rescore>
     Score         DG    S(hbond)    S(metal)    S(lipo)     H(rot)  DE(clash)    DE(int)     intcor
     17.20     -18.16       1.86        0.00     108.68       2.45       0.20       0.76       ----

> <Gold.Chemscore.Fitness>
17.1984

> <Gold.Chemscore.DG>
-18.1572

> <Gold.Chemscore.ZeroCoef>
-5.4800

> <Gold.Chemscore.Hbond>
1.8633

> <Gold.Chemscore.Metal>
0.0000

> <Gold.Chemscore.Lipo>
108.6837

> <Gold.Chemscore.Internal_Hbond>
0.0000

> <Gold.Chemscore.DEClash>
0.1996

> <Gold.Chemscore.DEInternal>
0.7591

> <Gold.Chemscore.Rot>
2.4462

> <Gold.Chemscore.Internal.Correction>
   9.000000E+99

> <Gold.Chemscore.Hbonds>
donor molecule, donor type, donor heavy atom, donor atom, acceptor molecule, acceptor atom, score
      L1  H    10    37       P1  7957  0.92
      P1  H  7997  8008       L1    14  0.21

> <Gold.Chemscore.Hbond.Weighted>
-6.2234

> <Gold.Chemscore.Metal.Weighted>
-0.0000

> <Gold.Chemscore.Lipo.Weighted>
-12.7160

> <Gold.Chemscore.Internal_Hbond.Weighted>
0.0000

> <Gold.Chemscore.DEClash.Weighted>
0.1996

> <Gold.Chemscore.DEInternal.Weighted>
0.7591

> <Gold.Chemscore.Rot.Weighted>
6.2623

> <Gold.Chemscore.Internal.Correction.Weighted>
   9.000000E+99

> <Gold.Protein.RotatedTorsions>
[ 6907 6896 6895 6894 ] final -140.56 input  -60.11 | X-H torsion
[ 7974 7965 7964 7962 ] final   16.63 input  175.53 | X-H torsion
[ 8008 7997 7996 7995 ] final  -51.79 input   59.86 | X-H torsion
[ 10167 10162 10161 10158 ] final   88.53 input  -65.29 | X-H torsion
[ 10718 10713 10712 10709 ] final   99.82 input   66.30 | X-H torsion
[ 10763 10752 10751 10750 ] final  -70.46 input  -60.55 | X-H torsion
[ 11005 11000 10999 10996 ] final  -52.37 input  -57.11 | X-H torsion

> <Gold.Protein.ActiveResidues>
 VAL166  LYS551  ARG553  GLY616  TRP617  ASP618  TYR619  PRO620  LYS621  CYS622 
 ASP623  PHE694  ASN695  SER759  ASP760  ASP761  ALA762  ILE779  LEU786  VAL792 
 PHE793  MET794  SER795  GLU796  ALA797  LYS798  CYS799  TRP800  GLU811  SER814 

> <Gold.Protein.RotatedAtoms>
  151.0622  133.5534  159.2633 H   0  0  0  0  0  0  0  0  0  0  0  0  # atno 6907 bound_to 6896
  151.2505  135.0620  159.9070 H   0  0  0  0  0  0  0  0  0  0  0  0  # atno 6908 bound_to 6896
  152.5399  134.0384  159.8110 H   0  0  0  0  0  0  0  0  0  0  0  0  # atno 6909 bound_to 6896
  146.2243  139.8720  142.8586 H   0  0  0  0  0  0  0  0  0  0  0  0  # atno 7974 bound_to 7965
  154.4091  140.1239  156.4886 H   0  0  0  0  0  0  0  0  0  0  0  0  # atno 8008 bound_to 7997
  155.7013  140.3494  155.4914 H   0  0  0  0  0  0  0  0  0  0  0  0  # atno 8009 bound_to 7997
  155.9383  140.1082  157.1067 H   0  0  0  0  0  0  0  0  0  0  0  0  # atno 8010 bound_to 7997
  139.8664  144.6516  150.8999 H   0  0  0  0  0  0  0  0  0  0  0  0  # atno 10167 bound_to 10162
  157.6868  131.0681  150.5007 H   0  0  0  0  0  0  0  0  0  0  0  0  # atno 10718 bound_to 10713
  154.4180  135.5993  153.5992 H   0  0  0  0  0  0  0  0  0  0  0  0  # atno 10763 bound_to 10752
  152.9792  135.5945  154.3990 H   0  0  0  0  0  0  0  0  0  0  0  0  # atno 10764 bound_to 10752
  154.3811  135.2841  155.2189 H   0  0  0  0  0  0  0  0  0  0  0  0  # atno 10765 bound_to 10752
  141.0921  133.6631  156.4015 H   0  0  0  0  0  0  0  0  0  0  0  0  # atno 11005 bound_to 11000
  145.2599  141.0073  143.3832 LP  0  0  0  0  0  0  0  0  0  0  0  0  # atno 17320 bound_to 7965
  144.9307  139.4302  143.6496 LP  0  0  0  0  0  0  0  0  0  0  0  0  # atno 17321 bound_to 7965
  140.7767  143.3701  151.1666 LP  0  0  0  0  0  0  0  0  0  0  0  0  # atno 17342 bound_to 10162
  139.7325  143.9050  152.3024 LP  0  0  0  0  0  0  0  0  0  0  0  0  # atno 17343 bound_to 10162
  156.5329  130.4189  149.6192 LP  0  0  0  0  0  0  0  0  0  0  0  0  # atno 17370 bound_to 10713
  156.3053  130.7199  151.2080 LP  0  0  0  0  0  0  0  0  0  0  0  0  # atno 17371 bound_to 10713
  140.5228  134.6288  157.5324 LP  0  0  0  0  0  0  0  0  0  0  0  0  # atno 17394 bound_to 11000
  139.9749  134.7232  155.9969 LP  0  0  0  0  0  0  0  0  0  0  0  0  # atno 17395 bound_to 11000

$$$$
