AV-unprocessed.smi:174|AV-procd|sdf|1426|dock10
  -GOLD-   2262019203D 1   1.00000     0.00000
 Structure written by MMmdl.
 51 54  0  0  0  0  0  0  0  0  1 V2000
  151.5621  128.6023  154.1931 N   0  0  0  0  0  0  0  0  0  0  0  0
  150.4578  129.2555  154.5615 C   0  0  0  0  0  0  0  0  0  0  0  0
  149.5267  129.4538  153.7822 O   0  0  0  0  0  0  0  0  0  0  0  0
  150.4153  129.7686  156.0083 C   0  0  0  0  0  0  0  0  0  0  0  0
  150.6047  131.2242  156.1201 N   0  0  0  0  0  0  0  0  0  0  0  0
  149.4110  132.0588  155.9485 C   0  0  0  0  0  0  0  0  0  0  0  0
  149.7441  133.4151  155.3196 C   0  0  0  0  0  0  0  0  0  0  0  0
  150.7962  134.0776  156.0801 N   0  0  0  0  0  0  0  0  0  0  0  0
  150.9601  135.4265  155.9827 C   0  0  0  0  0  0  0  0  0  0  0  0
  151.2160  135.9422  154.7507 N   0  0  0  0  0  0  0  0  0  0  0  0
  151.3973  137.2542  154.5815 C   0  0  0  0  0  0  0  0  0  0  0  0
  151.3623  138.2243  155.4949 N   0  0  0  0  0  0  0  0  0  0  0  0
  151.0956  137.7236  156.7344 C   0  0  0  0  0  0  0  0  0  0  0  0
  150.8828  136.3535  157.0684 C   0  0  0  0  0  0  0  0  0  0  0  0
  150.6255  136.2485  158.4328 N   0  0  0  0  0  0  0  0  0  0  0  0
  150.6959  137.4733  158.8764 C   0  0  0  0  0  0  0  0  0  0  0  0
  150.9752  138.4225  157.9225 N   0  0  0  0  0  0  0  0  0  0  0  0
  151.1110  139.8528  158.1363 C   0  0  0  0  0  0  0  0  0  0  0  0
  152.3888  140.2144  158.9191 C   0  0  1  0  0  0  0  0  0  0  0  0
  153.5222  139.7482  158.2115 O   0  0  0  0  0  0  0  0  0  0  0  0
  152.5274  141.7330  159.1320 C   0  0  2  0  0  0  0  0  0  0  0  0
  153.3261  142.1312  160.3730 C   0  0  0  0  0  0  0  0  0  0  0  0
  152.8345  143.5384  160.6663 C   0  0  0  0  0  0  0  0  0  0  0  0
  151.4935  143.6223  159.9309 C   0  0  0  0  0  0  0  0  0  0  0  0
  151.2651  142.3203  159.4071 O   0  0  0  0  0  0  0  0  0  0  0  0
  151.9571  133.2915  156.5292 C   0  0  0  0  0  0  0  0  0  0  0  0
  151.8090  131.7607  156.4359 C   0  0  0  0  0  0  0  0  0  0  0  0
  152.8083  131.0713  156.6411 O   0  0  0  0  0  0  0  0  0  0  0  0
  151.6389  128.2383  153.2543 H   0  0  0  0  0  0  0  0  0  0  0  0
  152.3138  128.4681  154.8537 H   0  0  0  0  0  0  0  0  0  0  0  0
  149.4674  129.4784  156.4656 H   0  0  0  0  0  0  0  0  0  0  0  0
  151.1808  129.2409  156.5776 H   0  0  0  0  0  0  0  0  0  0  0  0
  148.6647  131.5558  155.3333 H   0  0  0  0  0  0  0  0  0  0  0  0
  148.9555  132.2068  156.9287 H   0  0  0  0  0  0  0  0  0  0  0  0
  150.0695  133.2832  154.2869 H   0  0  0  0  0  0  0  0  0  0  0  0
  148.8375  134.0210  155.3089 H   0  0  0  0  0  0  0  0  0  0  0  0
  151.5994  137.5715  153.5691 H   0  0  0  0  0  0  0  0  0  0  0  0
  150.5457  137.7194  159.9176 H   0  0  0  0  0  0  0  0  0  0  0  0
  151.1018  140.3551  157.1680 H   0  0  0  0  0  0  0  0  0  0  0  0
  150.2277  140.2004  158.6733 H   0  0  0  0  0  0  0  0  0  0  0  0
  152.3704  139.7131  159.8877 H   0  0  0  0  0  0  0  0  0  0  0  0
  153.9712  139.1129  158.7483 H   0  0  0  0  0  0  0  0  0  0  0  0
  152.9524  142.2080  158.2454 H   0  0  0  0  0  0  0  0  0  0  0  0
  153.0760  141.4755  161.2082 H   0  0  0  0  0  0  0  0  0  0  0  0
  154.4041  142.0822  160.2175 H   0  0  0  0  0  0  0  0  0  0  0  0
  152.7276  143.7072  161.7383 H   0  0  0  0  0  0  0  0  0  0  0  0
  153.5279  144.2842  160.2761 H   0  0  0  0  0  0  0  0  0  0  0  0
  150.6761  143.9227  160.5867 H   0  0  0  0  0  0  0  0  0  0  0  0
  151.5508  144.3374  159.1092 H   0  0  0  0  0  0  0  0  0  0  0  0
  152.8337  133.5854  155.9494 H   0  0  0  0  0  0  0  0  0  0  0  0
  152.1705  133.5275  157.5726 H   0  0  0  0  0  0  0  0  0  0  0  0
  1  2  1  0  0  0  0
  1 29  1  0  0  0  0
  1 30  1  0  0  0  0
  2  3  2  0  0  0  0
  2  4  1  0  0  0  0
  4  5  1  0  0  0  0
  4 31  1  0  0  0  0
  4 32  1  0  0  0  0
  5 27  1  0  0  0  0
  5  6  1  0  0  0  0
  6  7  1  0  0  0  0
  6 33  1  0  0  0  0
  6 34  1  0  0  0  0
  7  8  1  0  0  0  0
  7 35  1  0  0  0  0
  7 36  1  0  0  0  0
  8  9  1  0  0  0  0
  8 26  1  0  0  0  0
  9 14  1  0  0  0  0
  9 10  2  0  0  0  0
 10 11  1  0  0  0  0
 11 12  2  0  0  0  0
 11 37  1  0  0  0  0
 12 13  1  0  0  0  0
 13 17  1  0  0  0  0
 13 14  2  0  0  0  0
 14 15  1  0  0  0  0
 15 16  2  0  0  0  0
 16 17  1  0  0  0  0
 16 38  1  0  0  0  0
 17 18  1  0  0  0  0
 18 19  1  0  0  0  0
 18 39  1  0  0  0  0
 18 40  1  0  0  0  0
 19 20  1  0  0  0  0
 19 21  1  0  0  0  0
 19 41  1  0  0  0  0
 20 42  1  0  0  0  0
 21 25  1  0  0  0  0
 21 22  1  0  0  0  0
 21 43  1  0  0  0  0
 22 23  1  0  0  0  0
 22 44  1  0  0  0  0
 22 45  1  0  0  0  0
 23 24  1  0  0  0  0
 23 46  1  0  0  0  0
 23 47  1  0  0  0  0
 24 25  1  0  0  0  0
 24 48  1  0  0  0  0
 24 49  1  0  0  0  0
 26 27  1  0  0  0  0
 26 50  1  0  0  0  0
 26 51  1  0  0  0  0
 27 28  2  0  0  0  0
M  END
> <s_m_source_file>
AV-unprocessed.smi

> <i_m_source_file_index>
174

> <i_lp_mmshare_version>
43012

> <i_f3d_flags>
0

> <s_epik_input>
W05IMl1DKD1PKVtDSDJdTjFbQ0gyXVtDSDJdTihbQ0gyXUMxPU8pYyhuW2NIXW4yKWMoYzIzKW5bY0hdbjNbQ0gyXVtDQEhdKFtPSF0pW0NAQEhdNFtDSDJdW0NIMl1bQ0gyXU80

> <s_epik_cmdline>
J2VwaWtfcHl0aG9uJywgJy1waCcsICc3LjAnLCAnLXRuJywgJzgnLCAnLW1hJywgJzIwMCcsICctbWV0YWxfYmluZGluZycsICctaW1hZScsICc8aW5maWxlLm1hZT4nLCAnLW9tYWUnLCAnPG91dGZpbGUubWFlPic=

> <r_lp_tautomer_probability>
1

> <r_epik_Ionization_Penalty>
0.000250477

> <r_epik_Ionization_Penalty_Charging>
0

> <r_epik_Ionization_Penalty_Neutral>
0.000250477

> <r_epik_State_Penalty>
-0

> <r_epik_Charging_Adjusted_Penalty>
0

> <i_epik_Tot_Q>
0

> <i_epik_Tot_abs_Q>
0

> <r_epik_Metal_State_Penalty>
-0

> <b_epik_Metal_Only>
0

> <s_lp_Force_Field>
OPLS_2005

> <r_lp_Energy>
35.93

> <b_lp_Chiralities_Consistent>
1

> <s_lp_Variant>
AV-unprocessed.smi:174-2

> <Gold.Version>
5.8.1

> <Gold.Id.Protein>
6NUR|6NUR_protein|mol2

> <Gold.PLP.Fitness>
48.6373

> <Gold.PLP.PLP>
-41.2285

> <Gold.PLP.part.hbond>
-4.5332

> <Gold.PLP.part.metal>
0.0000

> <Gold.PLP.part.buried>
-7.4162

> <Gold.PLP.part.nonpolar>
-29.9837

> <Gold.PLP.part.repulsive>
0.4079

> <Gold.PLP.ligand.clash>
0.0000

> <Gold.PLP.ligand.torsion>
2.3782

> <Gold.PLP.Chemscore.Hbond>
3.5064

> <Gold.PLP.Chemscore.CHOScore>
0.4712

> <Gold.PLP.Chemscore.Metal>
0.0000

> <Gold.Chemscore.Hbonds>
donor molecule, donor type, donor heavy atom, donor atom, acceptor molecule, acceptor atom, score
      L1  H     1    29       P1 10737  1.00
      P1  H  6896  6908       L1    15  0.72
      P1  H  7997  8008       L1    20  0.90
      P1  H 10752 10764       L1    10  0.65
      L1  C    11    37       P1  7949  0.60

> <Gold.PLP.Chemscore.Internal.Correction>
0.2322

> <Gold.Rescore>
     Score         DG    S(hbond)    S(metal)    S(lipo)     H(rot)  DE(clash)    DE(int)     intcor
     11.93     -14.49       2.75        0.00      74.20       3.46       0.03       2.53       ----

> <Gold.Chemscore.Fitness>
11.9344

> <Gold.Chemscore.DG>
-14.4902

> <Gold.Chemscore.ZeroCoef>
-5.4800

> <Gold.Chemscore.Hbond>
2.7496

> <Gold.Chemscore.Metal>
0.0000

> <Gold.Chemscore.Lipo>
74.2030

> <Gold.Chemscore.Internal_Hbond>
0.0000

> <Gold.Chemscore.DEClash>
0.0268

> <Gold.Chemscore.DEInternal>
2.5291

> <Gold.Chemscore.Rot>
3.4591

> <Gold.Chemscore.Internal.Correction>
   9.000000E+99

> <Gold.Chemscore.Hbonds>
donor molecule, donor type, donor heavy atom, donor atom, acceptor molecule, acceptor atom, score
      L1  H     1    29       P1 10737  0.98
      P1  H  6896  6908       L1    15  0.71
      P1  H  7997  8008       L1    20  0.18
      P1  H 10752 10764       L1    10  0.03

> <Gold.Chemscore.Hbond.Weighted>
-9.1838

> <Gold.Chemscore.Metal.Weighted>
-0.0000

> <Gold.Chemscore.Lipo.Weighted>
-8.6817

> <Gold.Chemscore.Internal_Hbond.Weighted>
0.0000

> <Gold.Chemscore.DEClash.Weighted>
0.0268

> <Gold.Chemscore.DEInternal.Weighted>
2.5291

> <Gold.Chemscore.Rot.Weighted>
8.8553

> <Gold.Chemscore.Internal.Correction.Weighted>
   9.000000E+99

> <Gold.Protein.RotatedTorsions>
[ 6907 6896 6895 6894 ] final -179.00 input  -60.11 | X-H torsion
[ 7974 7965 7964 7962 ] final -119.92 input  175.53 | X-H torsion
[ 8008 7997 7996 7995 ] final  -96.20 input   59.86 | X-H torsion
[ 10167 10162 10161 10158 ] final  -53.78 input  -65.29 | X-H torsion
[ 10718 10713 10712 10709 ] final  -54.41 input   66.30 | X-H torsion
[ 10763 10752 10751 10750 ] final  -64.77 input  -60.55 | X-H torsion
[ 11005 11000 10999 10996 ] final    8.80 input  -57.11 | X-H torsion

> <Gold.Protein.ActiveResidues>
 VAL166  LYS551  ARG553  GLY616  TRP617  ASP618  TYR619  PRO620  LYS621  CYS622 
 ASP623  PHE694  ASN695  SER759  ASP760  ASP761  ALA762  ILE779  LEU786  VAL792 
 PHE793  MET794  SER795  GLU796  ALA797  LYS798  CYS799  TRP800  GLU811  SER814 

> <Gold.Protein.RotatedAtoms>
  151.6463  133.3323  159.3141 H   0  0  0  0  0  0  0  0  0  0  0  0  # atno 6907 bound_to 6896
  150.7982  134.7061  159.6587 H   0  0  0  0  0  0  0  0  0  0  0  0  # atno 6908 bound_to 6896
  152.4072  134.6191  160.0097 H   0  0  0  0  0  0  0  0  0  0  0  0  # atno 6909 bound_to 6896
  145.0571  140.8262  143.4174 H   0  0  0  0  0  0  0  0  0  0  0  0  # atno 7974 bound_to 7965
  154.7713  140.0473  157.1053 H   0  0  0  0  0  0  0  0  0  0  0  0  # atno 8008 bound_to 7997
  154.9817  140.3102  155.4924 H   0  0  0  0  0  0  0  0  0  0  0  0  # atno 8009 bound_to 7997
  156.2921  140.2235  156.4916 H   0  0  0  0  0  0  0  0  0  0  0  0  # atno 8010 bound_to 7997
  140.6466  143.2539  151.4842 H   0  0  0  0  0  0  0  0  0  0  0  0  # atno 10167 bound_to 10162
  156.1453  130.4153  150.0035 H   0  0  0  0  0  0  0  0  0  0  0  0  # atno 10718 bound_to 10713
  154.3350  135.6168  153.5569 H   0  0  0  0  0  0  0  0  0  0  0  0  # atno 10763 bound_to 10752
  152.9808  135.5756  154.4918 H   0  0  0  0  0  0  0  0  0  0  0  0  # atno 10764 bound_to 10752
  154.4612  135.2856  155.1688 H   0  0  0  0  0  0  0  0  0  0  0  0  # atno 10765 bound_to 10752
  140.5329  134.0449  155.7879 H   0  0  0  0  0  0  0  0  0  0  0  0  # atno 11005 bound_to 11000
  145.1454  139.2546  143.5468 LP  0  0  0  0  0  0  0  0  0  0  0  0  # atno 17320 bound_to 7965
  146.3522  140.1143  142.8602 LP  0  0  0  0  0  0  0  0  0  0  0  0  # atno 17321 bound_to 7965
  139.5677  144.2002  152.1790 LP  0  0  0  0  0  0  0  0  0  0  0  0  # atno 17342 bound_to 10162
  140.1289  144.5306  150.6815 LP  0  0  0  0  0  0  0  0  0  0  0  0  # atno 17343 bound_to 10162
  156.7908  130.9255  151.3646 LP  0  0  0  0  0  0  0  0  0  0  0  0  # atno 17370 bound_to 10713
  157.6611  130.8967  149.9832 LP  0  0  0  0  0  0  0  0  0  0  0  0  # atno 17371 bound_to 10713
  141.1271  133.9364  157.2612 LP  0  0  0  0  0  0  0  0  0  0  0  0  # atno 17394 bound_to 11000
  139.9545  135.0168  156.9088 LP  0  0  0  0  0  0  0  0  0  0  0  0  # atno 17395 bound_to 11000

$$$$
