AV-unprocessed.smi:2472|AV-procd|sdf|9741|dock1
  -GOLD-   2272013383D 1   1.00000     0.00000
 Structure written by MMmdl.
 47 49  0  0  0  0  0  0  0  0  1 V2000
  140.3583  140.7633  154.2343 C   0  0  0  0  0  0  0  0  0  0  0  0
  139.6517  139.4249  154.1109 C   0  0  0  0  0  0  0  0  0  0  0  0
  138.2973  139.3048  154.4909 C   0  0  0  0  0  0  0  0  0  0  0  0
  137.5998  138.1527  154.4134 N   0  0  0  0  0  0  0  0  0  0  0  0
  138.2405  137.0592  153.9520 C   0  0  0  0  0  0  0  0  0  0  0  0
  139.5888  137.0648  153.5453 C   0  0  0  0  0  0  0  0  0  0  0  0
  140.3147  138.2782  153.6107 C   0  0  0  0  0  0  0  0  0  0  0  0
  141.6850  138.3787  153.2419 N   0  0  0  0  0  0  0  0  0  0  0  0
  142.5712  137.3840  153.0668 C   0  0  0  0  0  0  0  0  0  0  0  0
  142.3306  136.1856  153.2120 O   0  0  0  0  0  0  0  0  0  0  0  0
  143.7637  137.8620  152.6684 N   0  0  0  0  0  0  0  0  0  0  0  0
  144.9786  137.0966  152.3304 C   0  0  0  0  0  0  0  0  0  0  0  0
  146.2203  138.0026  152.0877 C   0  0  0  0  0  0  0  0  0  0  0  0
  146.8039  137.9687  151.0034 O   0  0  0  0  0  0  0  0  0  0  0  0
  146.6348  138.7929  153.0916 N   0  0  0  0  0  0  0  0  0  0  0  0
  147.7673  139.7030  153.0282 C   0  0  0  0  0  0  0  0  0  0  0  0
  148.1268  140.3190  154.3639 C   0  0  0  0  0  0  0  0  0  0  0  0
  147.5629  141.6604  154.7688 C   0  0  0  0  0  0  0  0  0  0  0  0
  149.0318  141.5257  154.4459 C   0  0  0  0  0  0  0  0  0  0  0  0
  145.2879  136.1386  153.5063 C   0  0  0  0  0  0  0  0  0  0  0  0
  145.8217  134.8500  152.8844 C   0  0  0  0  0  0  0  0  0  0  0  0
  145.0127  134.7014  151.6027 C   0  0  0  0  0  0  0  0  0  0  0  0
  144.7230  136.1316  151.1297 C   0  0  0  0  0  0  0  0  0  0  0  0
  139.6796  141.5377  154.5935 H   0  0  0  0  0  0  0  0  0  0  0  0
  140.7477  141.0796  153.2663 H   0  0  0  0  0  0  0  0  0  0  0  0
  141.1898  140.6909  154.9358 H   0  0  0  0  0  0  0  0  0  0  0  0
  137.7545  140.1580  154.8704 H   0  0  0  0  0  0  0  0  0  0  0  0
  137.6624  136.1477  153.9114 H   0  0  0  0  0  0  0  0  0  0  0  0
  140.0407  136.1454  153.2054 H   0  0  0  0  0  0  0  0  0  0  0  0
  141.9996  139.3045  152.9918 H   0  0  0  0  0  0  0  0  0  0  0  0
  143.8447  138.8640  152.5765 H   0  0  0  0  0  0  0  0  0  0  0  0
  146.1128  138.7725  153.9555 H   0  0  0  0  0  0  0  0  0  0  0  0
  148.6323  139.1731  152.6263 H   0  0  0  0  0  0  0  0  0  0  0  0
  147.5382  140.5114  152.3322 H   0  0  0  0  0  0  0  0  0  0  0  0
  148.2218  139.5916  155.1683 H   0  0  0  0  0  0  0  0  0  0  0  0
  146.9369  142.1861  154.0502 H   0  0  0  0  0  0  0  0  0  0  0  0
  147.2883  141.7957  155.8131 H   0  0  0  0  0  0  0  0  0  0  0  0
  149.7365  141.5676  155.2739 H   0  0  0  0  0  0  0  0  0  0  0  0
  149.3825  141.9623  153.5129 H   0  0  0  0  0  0  0  0  0  0  0  0
  145.9894  136.5541  154.2318 H   0  0  0  0  0  0  0  0  0  0  0  0
  144.3752  135.9050  154.0574 H   0  0  0  0  0  0  0  0  0  0  0  0
  146.8800  134.9612  152.6450 H   0  0  0  0  0  0  0  0  0  0  0  0
  145.7191  133.9900  153.5468 H   0  0  0  0  0  0  0  0  0  0  0  0
  145.5340  134.1103  150.8492 H   0  0  0  0  0  0  0  0  0  0  0  0
  144.0725  134.1949  151.8248 H   0  0  0  0  0  0  0  0  0  0  0  0
  143.6993  136.1804  150.7574 H   0  0  0  0  0  0  0  0  0  0  0  0
  145.3561  136.3716  150.2743 H   0  0  0  0  0  0  0  0  0  0  0  0
  1  2  1  0  0  0  0
  1 24  1  0  0  0  0
  1 25  1  0  0  0  0
  1 26  1  0  0  0  0
  2  7  1  0  0  0  0
  2  3  2  0  0  0  0
  3  4  1  0  0  0  0
  3 27  1  0  0  0  0
  4  5  2  0  0  0  0
  5  6  1  0  0  0  0
  5 28  1  0  0  0  0
  6  7  2  0  0  0  0
  6 29  1  0  0  0  0
  7  8  1  0  0  0  0
  8  9  1  0  0  0  0
  8 30  1  0  0  0  0
  9 10  2  0  0  0  0
  9 11  1  0  0  0  0
 11 12  1  0  0  0  0
 11 31  1  0  0  0  0
 12 23  1  0  0  0  0
 12 13  1  0  0  0  0
 12 20  1  0  0  0  0
 13 14  2  0  0  0  0
 13 15  1  0  0  0  0
 15 16  1  0  0  0  0
 15 32  1  0  0  0  0
 16 17  1  0  0  0  0
 16 33  1  0  0  0  0
 16 34  1  0  0  0  0
 17 19  1  0  0  0  0
 17 18  1  0  0  0  0
 17 35  1  0  0  0  0
 18 19  1  0  0  0  0
 18 36  1  0  0  0  0
 18 37  1  0  0  0  0
 19 38  1  0  0  0  0
 19 39  1  0  0  0  0
 20 21  1  0  0  0  0
 20 40  1  0  0  0  0
 20 41  1  0  0  0  0
 21 22  1  0  0  0  0
 21 42  1  0  0  0  0
 21 43  1  0  0  0  0
 22 23  1  0  0  0  0
 22 44  1  0  0  0  0
 22 45  1  0  0  0  0
 23 46  1  0  0  0  0
 23 47  1  0  0  0  0
M  END
> <s_m_source_file>
AV-unprocessed.smi

> <i_m_source_file_index>
2472

> <i_lp_mmshare_version>
43012

> <i_f3d_flags>
0

> <s_epik_input>
W0NIM11jMVtjSF1uW2NIXVtjSF1jMVtOSF1DKD1PKVtOSF1DMihbQ0gyXVtDSDJdW0NIMl1bQ0gyXTIpQyg9TylbTkhdW0NIMl1bQ0hdM1tDSDJdW0NIMl0z

> <s_epik_cmdline>
J2VwaWtfcHl0aG9uJywgJy1waCcsICc3LjAnLCAnLXRuJywgJzgnLCAnLW1hJywgJzIwMCcsICctbWV0YWxfYmluZGluZycsICctaW1hZScsICc8aW5maWxlLm1hZT4nLCAnLW9tYWUnLCAnPG91dGZpbGUubWFlPic=

> <r_epik_Ionization_Penalty>
0.187836

> <r_epik_Ionization_Penalty_Charging>
0

> <r_epik_Ionization_Penalty_Neutral>
0.187836

> <r_epik_State_Penalty>
0.177409

> <r_epik_Charging_Adjusted_Penalty>
0.177409

> <i_epik_Tot_Q>
0

> <i_epik_Tot_abs_Q>
0

> <r_epik_Metal_State_Penalty>
0.134269

> <b_epik_Metal_Only>
0

> <s_lp_Force_Field>
OPLS_2005

> <r_lp_Energy>
32.7124

> <b_lp_Chiralities_Consistent>
1

> <s_lp_Variant>
AV-unprocessed.smi:2472-1

> <Gold.Version>
5.8.1

> <Gold.Id.Protein>
6NUR|6NUR_protein|mol2

> <Gold.PLP.Fitness>
43.6398

> <Gold.PLP.PLP>
-35.1811

> <Gold.PLP.part.hbond>
-4.0269

> <Gold.PLP.part.metal>
0.0000

> <Gold.PLP.part.buried>
1.1863

> <Gold.PLP.part.nonpolar>
-35.1727

> <Gold.PLP.part.repulsive>
2.1432

> <Gold.PLP.ligand.clash>
0.0000

> <Gold.PLP.ligand.torsion>
0.4659

> <Gold.PLP.Chemscore.Hbond>
2.8960

> <Gold.PLP.Chemscore.CHOScore>
0.0000

> <Gold.PLP.Chemscore.Metal>
0.0000

> <Gold.Chemscore.Hbonds>
donor molecule, donor type, donor heavy atom, donor atom, acceptor molecule, acceptor atom, score
      L1  H     8    30       P1 10175  0.93
      L1  H    11    31       P1 10175  1.00
      P1  H  7954  7966       L1    14  1.00

> <Gold.PLP.Chemscore.Internal.Correction>
0.7025

> <Gold.Rescore>
     Score         DG    S(hbond)    S(metal)    S(lipo)     H(rot)  DE(clash)    DE(int)     intcor
     15.00     -21.43       2.91        0.00      88.21       1.59       3.58       2.86       ----

> <Gold.Chemscore.Fitness>
14.9954

> <Gold.Chemscore.DG>
-21.4292

> <Gold.Chemscore.ZeroCoef>
-5.4800

> <Gold.Chemscore.Hbond>
2.9070

> <Gold.Chemscore.Metal>
0.0000

> <Gold.Chemscore.Lipo>
88.2129

> <Gold.Chemscore.Internal_Hbond>
0.0000

> <Gold.Chemscore.DEClash>
3.5782

> <Gold.Chemscore.DEInternal>
2.8556

> <Gold.Chemscore.Rot>
1.5941

> <Gold.Chemscore.Internal.Correction>
   9.000000E+99

> <Gold.Chemscore.Hbonds>
donor molecule, donor type, donor heavy atom, donor atom, acceptor molecule, acceptor atom, score
      L1  H     8    30       P1 10175  0.75
      L1  H    11    31       P1 10175  0.98
      P1  H  7954  7966       L1    14  1.00

> <Gold.Chemscore.Hbond.Weighted>
-9.7092

> <Gold.Chemscore.Metal.Weighted>
-0.0000

> <Gold.Chemscore.Lipo.Weighted>
-10.3209

> <Gold.Chemscore.Internal_Hbond.Weighted>
0.0000

> <Gold.Chemscore.DEClash.Weighted>
3.5782

> <Gold.Chemscore.DEInternal.Weighted>
2.8556

> <Gold.Chemscore.Rot.Weighted>
4.0809

> <Gold.Chemscore.Internal.Correction.Weighted>
   9.000000E+99

> <Gold.Protein.RotatedTorsions>
[ 6907 6896 6895 6894 ] final  161.45 input  -60.11 | X-H torsion
[ 7974 7965 7964 7962 ] final   48.93 input  175.53 | X-H torsion
[ 8008 7997 7996 7995 ] final -176.96 input   59.86 | X-H torsion
[ 10167 10162 10161 10158 ] final  -77.40 input  -65.29 | X-H torsion
[ 10718 10713 10712 10709 ] final  -28.09 input   66.30 | X-H torsion
[ 10763 10752 10751 10750 ] final  110.44 input  -60.55 | X-H torsion
[ 11005 11000 10999 10996 ] final  -99.00 input  -57.11 | X-H torsion

> <Gold.Protein.ActiveResidues>
 VAL166  LYS551  ARG553  GLY616  TRP617  ASP618  TYR619  PRO620  LYS621  CYS622 
 ASP623  PHE694  ASN695  SER759  ASP760  ASP761  ALA762  ILE779  LEU786  VAL792 
 PHE793  MET794  SER795  GLU796  ALA797  LYS798  CYS799  TRP800  GLU811  SER814 

> <Gold.Protein.RotatedAtoms>
  151.9554  133.3679  159.4015 H   0  0  0  0  0  0  0  0  0  0  0  0  # atno 6907 bound_to 6896
  150.6973  134.4296  159.5251 H   0  0  0  0  0  0  0  0  0  0  0  0  # atno 6908 bound_to 6896
  152.1976  134.8616  160.0562 H   0  0  0  0  0  0  0  0  0  0  0  0  # atno 6909 bound_to 6896
  146.0158  139.4594  142.9928 H   0  0  0  0  0  0  0  0  0  0  0  0  # atno 7974 bound_to 7965
  156.0011  140.1221  157.0546 H   0  0  0  0  0  0  0  0  0  0  0  0  # atno 8008 bound_to 7997
  154.4243  140.1106  156.5767 H   0  0  0  0  0  0  0  0  0  0  0  0  # atno 8009 bound_to 7997
  155.6210  140.3472  155.4654 H   0  0  0  0  0  0  0  0  0  0  0  0  # atno 8010 bound_to 7997
  140.4773  143.2411  151.8112 H   0  0  0  0  0  0  0  0  0  0  0  0  # atno 10167 bound_to 10162
  156.4298  130.4443  149.7125 H   0  0  0  0  0  0  0  0  0  0  0  0  # atno 10718 bound_to 10713
  153.4491  135.3748  155.2273 H   0  0  0  0  0  0  0  0  0  0  0  0  # atno 10763 bound_to 10752
  154.8756  135.3881  154.4060 H   0  0  0  0  0  0  0  0  0  0  0  0  # atno 10764 bound_to 10752
  153.4617  135.7086  153.6110 H   0  0  0  0  0  0  0  0  0  0  0  0  # atno 10765 bound_to 10752
  141.1324  133.8288  157.0914 H   0  0  0  0  0  0  0  0  0  0  0  0  # atno 11005 bound_to 11000
  145.7271  141.0055  143.1371 LP  0  0  0  0  0  0  0  0  0  0  0  0  # atno 17320 bound_to 7965
  144.6970  139.8940  143.7455 LP  0  0  0  0  0  0  0  0  0  0  0  0  # atno 17321 bound_to 7965
  139.4828  144.4816  151.9299 LP  0  0  0  0  0  0  0  0  0  0  0  0  # atno 17342 bound_to 10162
  140.3902  144.2626  150.5900 LP  0  0  0  0  0  0  0  0  0  0  0  0  # atno 17343 bound_to 10162
  156.4033  130.7685  151.2695 LP  0  0  0  0  0  0  0  0  0  0  0  0  # atno 17370 bound_to 10713
  157.7508  131.0233  150.3829 LP  0  0  0  0  0  0  0  0  0  0  0  0  # atno 17371 bound_to 10713
  140.0390  134.9864  157.0925 LP  0  0  0  0  0  0  0  0  0  0  0  0  # atno 17394 bound_to 11000
  140.4166  134.1925  155.7163 LP  0  0  0  0  0  0  0  0  0  0  0  0  # atno 17395 bound_to 11000

$$$$
