AV-unprocessed.smi:1987|AV-procd|sdf|8054|dock4
  -GOLD-   2272010253D 1   1.00000     0.00000
 Structure written by MMmdl.
 37 39  0  0  0  0  0  0  0  0  2 V2000
  152.4111  139.8338  156.9193 O   0  0  0  0  0  0  0  0  0  0  0  0
  151.3909  140.4302  156.5768 C   0  0  0  0  0  0  0  0  0  0  0  0
  150.4932  139.8529  155.4838 C   0  0  0  0  0  0  0  0  0  0  0  0
  150.6089  138.4063  155.4638 N   0  0  0  0  0  0  0  0  0  0  0  0
  151.6461  137.6142  155.1847 C   0  0  0  0  0  0  0  0  0  0  0  0
  151.3075  136.3344  155.2248 N   0  0  0  0  0  0  0  0  0  0  0  0
  149.9647  136.3734  155.5610 N   0  0  0  0  0  0  0  0  0  0  0  0
  149.5443  137.5999  155.7042 N   0  0  0  0  0  0  0  0  0  0  0  0
  151.0254  141.6216  157.0736 N   0  0  0  0  0  0  0  0  0  0  0  0
  151.8455  142.4573  157.9417 C   0  0  0  0  0  0  0  0  0  0  0  0
  151.1693  143.8161  158.2161 C   0  0  2  0  0  0  0  0  0  0  0  0
  151.9917  144.7680  159.0817 C   0  0  0  0  0  0  0  0  0  0  0  0
  150.9555  145.7358  159.6699 C   0  0  0  0  0  0  0  0  0  0  0  0
  149.6296  145.0913  159.5182 N   0  3  2  0  0  0  0  0  0  0  0  0
  148.7874  145.1309  160.7321 C   0  0  0  0  0  0  0  0  0  0  0  0
  147.3743  144.6518  160.4992 C   0  0  0  0  0  0  0  0  0  0  0  0
  147.6590  146.1306  160.6532 C   0  0  0  0  0  0  0  0  0  0  0  0
  149.8526  143.7315  158.9905 C   0  0  0  0  0  0  0  0  0  0  0  0
  149.4524  140.1228  155.6674 H   0  0  0  0  0  0  0  0  0  0  0  0
  150.7700  140.2562  154.5085 H   0  0  0  0  0  0  0  0  0  0  0  0
  152.6344  137.9721  154.9362 H   0  0  0  0  0  0  0  0  0  0  0  0
  150.1582  142.0223  156.7450 H   0  0  0  0  0  0  0  0  0  0  0  0
  151.9975  141.9170  158.8765 H   0  0  0  0  0  0  0  0  0  0  0  0
  152.8335  142.6022  157.5012 H   0  0  0  0  0  0  0  0  0  0  0  0
  150.9706  144.3145  157.2656 H   0  0  0  0  0  0  0  0  0  0  0  0
  152.4728  144.2166  159.8910 H   0  0  0  0  0  0  0  0  0  0  0  0
  152.7728  145.2800  158.5186 H   0  0  0  0  0  0  0  0  0  0  0  0
  151.1857  145.9656  160.7114 H   0  0  0  0  0  0  0  0  0  0  0  0
  150.9453  146.6769  159.1193 H   0  0  0  0  0  0  0  0  0  0  0  0
  149.2885  144.9333  161.6785 H   0  0  0  0  0  0  0  0  0  0  0  0
  147.1095  144.2902  159.5068 H   0  0  0  0  0  0  0  0  0  0  0  0
  146.8708  144.1525  161.3247 H   0  0  0  0  0  0  0  0  0  0  0  0
  147.3431  146.6047  161.5805 H   0  0  0  0  0  0  0  0  0  0  0  0
  147.5836  146.7533  159.7636 H   0  0  0  0  0  0  0  0  0  0  0  0
  149.0171  143.4092  158.3680 H   0  0  0  0  0  0  0  0  0  0  0  0
  149.9506  143.0253  159.8170 H   0  0  0  0  0  0  0  0  0  0  0  0
  149.1459  145.6045  158.7950 H   0  0  0  0  0  0  0  0  0  0  0  0
  1  2  2  0  0  0  0
  2  3  1  0  0  0  0
  2  9  1  0  0  0  0
  3  4  1  0  0  0  0
  3 19  1  0  0  0  0
  3 20  1  0  0  0  0
  4  8  1  0  0  0  0
  4  5  1  0  0  0  0
  5  6  2  0  0  0  0
  5 21  1  0  0  0  0
  6  7  1  0  0  0  0
  7  8  2  0  0  0  0
  9 10  1  0  0  0  0
  9 22  1  0  0  0  0
 10 11  1  0  0  0  0
 10 23  1  0  0  0  0
 10 24  1  0  0  0  0
 11 18  1  0  0  0  0
 11 12  1  0  0  0  0
 11 25  1  0  0  0  0
 12 13  1  0  0  0  0
 12 26  1  0  0  0  0
 12 27  1  0  0  0  0
 13 14  1  0  0  0  0
 13 28  1  0  0  0  0
 13 29  1  0  0  0  0
 14 15  1  0  0  0  0
 14 18  1  0  0  0  0
 14 37  1  0  0  0  0
 15 17  1  0  0  0  0
 15 16  1  0  0  0  0
 15 30  1  0  0  0  0
 16 17  1  0  0  0  0
 16 31  1  0  0  0  0
 16 32  1  0  0  0  0
 17 33  1  0  0  0  0
 17 34  1  0  0  0  0
 18 35  1  0  0  0  0
 18 36  1  0  0  0  0
M  CHG  1  14   1
M  END
> <s_m_source_file>
AV-unprocessed.smi

> <i_m_source_file_index>
1987

> <i_lp_mmshare_version>
43012

> <i_f3d_flags>
0

> <s_epik_input>
bjFubltjSF1uMVtDSDJdQyg9TylbTkhdW0NIMl1bQ0BASF0yW0NIMl1bQ0gyXU4oW0NIMl0yKVtDSF0zW0NIMl1bQ0gyXTM=

> <s_epik_cmdline>
J2VwaWtfcHl0aG9uJywgJy1waCcsICc3LjAnLCAnLXRuJywgJzgnLCAnLW1hJywgJzIwMCcsICctbWV0YWxfYmluZGluZycsICctaW1hZScsICc8aW5maWxlLm1hZT4nLCAnLW9tYWUnLCAnPG91dGZpbGUubWFlPic=

> <r_lp_tautomer_probability>
1

> <r_epik_Ionization_Penalty>
0.000242849

> <r_epik_Ionization_Penalty_Charging>
0.000241326

> <r_epik_Ionization_Penalty_Neutral>
1.52322e-06

> <r_epik_State_Penalty>
-0

> <r_epik_Charging_Adjusted_Penalty>
0.000241326

> <i_epik_Tot_Q>
1

> <i_epik_Tot_abs_Q>
1

> <r_epik_Metal_State_Penalty>
-0

> <b_epik_Metal_Only>
0

> <s_lp_Force_Field>
OPLS_2005

> <r_lp_Energy>
37.5939

> <b_lp_Chiralities_Consistent>
1

> <s_lp_Variant>
AV-unprocessed.smi:1987-1

> <Gold.Version>
5.8.1

> <Gold.Id.Protein>
6NUR|6NUR_protein|mol2

> <Gold.PLP.Fitness>
45.7834

> <Gold.PLP.PLP>
-34.7844

> <Gold.PLP.part.hbond>
-3.0000

> <Gold.PLP.part.metal>
0.0000

> <Gold.PLP.part.buried>
-4.2996

> <Gold.PLP.part.nonpolar>
-27.1557

> <Gold.PLP.part.repulsive>
0.7243

> <Gold.PLP.ligand.clash>
0.0000

> <Gold.PLP.ligand.torsion>
1.0864

> <Gold.PLP.Chemscore.Hbond>
3.9600

> <Gold.PLP.Chemscore.CHOScore>
0.0000

> <Gold.PLP.Chemscore.Metal>
0.0000

> <Gold.Chemscore.Hbonds>
donor molecule, donor type, donor heavy atom, donor atom, acceptor molecule, acceptor atom, score
      L1  H    14    37       P1  8029  2.00
      P1  H  7997  8009       L1     1  1.00
      P1  H 10752 10764       L1     6  1.00

> <Gold.PLP.Chemscore.Internal.Correction>
1.2917

> <Gold.Rescore>
     Score         DG    S(hbond)    S(metal)    S(lipo)     H(rot)  DE(clash)    DE(int)     intcor
     13.65     -16.72       2.89        0.00      70.88       2.62       0.39       2.68       ----

> <Gold.Chemscore.Fitness>
13.6469

> <Gold.Chemscore.DG>
-16.7164

> <Gold.Chemscore.ZeroCoef>
-5.4800

> <Gold.Chemscore.Hbond>
2.8927

> <Gold.Chemscore.Metal>
0.0000

> <Gold.Chemscore.Lipo>
70.8845

> <Gold.Chemscore.Internal_Hbond>
0.0000

> <Gold.Chemscore.DEClash>
0.3909

> <Gold.Chemscore.DEInternal>
2.6786

> <Gold.Chemscore.Rot>
2.6244

> <Gold.Chemscore.Internal.Correction>
   9.000000E+99

> <Gold.Chemscore.Hbonds>
donor molecule, donor type, donor heavy atom, donor atom, acceptor molecule, acceptor atom, score
      L1  H    14    37       P1  8029  0.97
      P1  H  7997  8009       L1     1  0.97
      P1  H 10752 10764       L1     6  0.25

> <Gold.Chemscore.Hbond.Weighted>
-9.6615

> <Gold.Chemscore.Metal.Weighted>
-0.0000

> <Gold.Chemscore.Lipo.Weighted>
-8.2935

> <Gold.Chemscore.Internal_Hbond.Weighted>
0.0000

> <Gold.Chemscore.DEClash.Weighted>
0.3909

> <Gold.Chemscore.DEInternal.Weighted>
2.6786

> <Gold.Chemscore.Rot.Weighted>
6.7186

> <Gold.Chemscore.Internal.Correction.Weighted>
   9.000000E+99

> <Gold.Protein.RotatedTorsions>
[ 6907 6896 6895 6894 ] final   83.18 input  -60.11 | X-H torsion
[ 7974 7965 7964 7962 ] final  -22.33 input  175.53 | X-H torsion
[ 8008 7997 7996 7995 ] final -176.37 input   59.86 | X-H torsion
[ 10167 10162 10161 10158 ] final   82.97 input  -65.29 | X-H torsion
[ 10718 10713 10712 10709 ] final  165.76 input   66.30 | X-H torsion
[ 10763 10752 10751 10750 ] final  -44.54 input  -60.55 | X-H torsion
[ 11005 11000 10999 10996 ] final  155.00 input  -57.11 | X-H torsion

> <Gold.Protein.ActiveResidues>
 VAL166  LYS551  ARG553  GLY616  TRP617  ASP618  TYR619  PRO620  LYS621  CYS622 
 ASP623  PHE694  ASN695  SER759  ASP760  ASP761  ALA762  ILE779  LEU786  VAL792 
 PHE793  MET794  SER795  GLU796  ALA797  LYS798  CYS799  TRP800  GLU811  SER814 

> <Gold.Protein.RotatedAtoms>
  152.5320  134.2936  159.9051 H   0  0  0  0  0  0  0  0  0  0  0  0  # atno 6907 bound_to 6896
  151.2887  133.4169  159.2639 H   0  0  0  0  0  0  0  0  0  0  0  0  # atno 6908 bound_to 6896
  151.0219  134.9491  159.8121 H   0  0  0  0  0  0  0  0  0  0  0  0  # atno 6909 bound_to 6896
  146.1681  140.4465  142.8543 H   0  0  0  0  0  0  0  0  0  0  0  0  # atno 7974 bound_to 7965
  155.9940  140.1207  157.0611 H   0  0  0  0  0  0  0  0  0  0  0  0  # atno 8008 bound_to 7997
  154.4221  140.1120  156.5674 H   0  0  0  0  0  0  0  0  0  0  0  0  # atno 8009 bound_to 7997
  155.6303  140.3473  155.4683 H   0  0  0  0  0  0  0  0  0  0  0  0  # atno 8010 bound_to 7997
  139.9233  144.6199  150.8418 H   0  0  0  0  0  0  0  0  0  0  0  0  # atno 10167 bound_to 10162
  157.0756  131.0378  151.2595 H   0  0  0  0  0  0  0  0  0  0  0  0  # atno 10718 bound_to 10713
  154.0137  135.6678  153.4767 H   0  0  0  0  0  0  0  0  0  0  0  0  # atno 10763 bound_to 10752
  153.0610  135.5028  154.8088 H   0  0  0  0  0  0  0  0  0  0  0  0  # atno 10764 bound_to 10752
  154.6980  135.3073  154.9347 H   0  0  0  0  0  0  0  0  0  0  0  0  # atno 10765 bound_to 10752
  140.1540  134.8655  157.2491 H   0  0  0  0  0  0  0  0  0  0  0  0  # atno 11005 bound_to 11000
  144.8123  140.6407  143.6407 LP  0  0  0  0  0  0  0  0  0  0  0  0  # atno 17320 bound_to 7965
  145.4412  139.1535  143.3969 LP  0  0  0  0  0  0  0  0  0  0  0  0  # atno 17321 bound_to 7965
  140.7657  143.3282  151.2469 LP  0  0  0  0  0  0  0  0  0  0  0  0  # atno 17342 bound_to 10162
  139.6843  143.9800  152.2826 LP  0  0  0  0  0  0  0  0  0  0  0  0  # atno 17343 bound_to 10162
  157.4842  130.7783  149.7444 LP  0  0  0  0  0  0  0  0  0  0  0  0  # atno 17370 bound_to 10713
  155.9938  130.3922  150.2885 LP  0  0  0  0  0  0  0  0  0  0  0  0  # atno 17371 bound_to 10713
  140.2569  134.3616  155.7421 LP  0  0  0  0  0  0  0  0  0  0  0  0  # atno 17394 bound_to 11000
  141.2202  133.7348  156.9021 LP  0  0  0  0  0  0  0  0  0  0  0  0  # atno 17395 bound_to 11000

$$$$
