AV-unprocessed.smi:3154|AV-procd|sdf|12023|dock1
  -GOLD-   2272017433D 1   1.00000     0.00000
 Structure written by MMmdl.
 34 35  0  0  0  0  0  0  0  0  1 V2000
  154.1920  140.5225  161.5644 C   0  0  0  0  0  0  0  0  0  0  0  0
  153.8220  141.5430  160.4755 C   0  0  2  0  0  0  0  0  0  0  0  0
  152.5447  142.3509  160.8221 C   0  0  0  0  0  0  0  0  0  0  0  0
  152.1135  143.2584  159.7707 N   0  0  0  0  0  0  0  0  0  0  0  0
  152.8723  143.8471  158.7803 C   0  0  0  0  0  0  0  0  0  0  0  0
  152.0320  144.6126  158.0239 C   0  0  0  0  0  0  0  0  0  0  0  0
  150.7607  144.4214  158.6338 C   0  0  0  0  0  0  0  0  0  0  0  0
  150.8117  143.6066  159.6749 N   0  0  0  0  0  0  0  0  0  0  0  0
  153.7074  140.8122  159.2156 N   0  0  0  0  0  0  0  0  0  0  0  0
  152.3466  140.3245  158.9489 C   0  0  0  0  0  0  0  0  0  0  0  0
  152.2448  139.5683  157.6215 C   0  0  0  0  0  0  0  0  0  0  0  0
  153.2572  139.1751  157.0399 O   0  0  0  0  0  0  0  0  0  0  0  0
  151.0029  139.3718  157.1548 N   0  0  0  0  0  0  0  0  0  0  0  0
  150.6683  138.6952  155.9433 C   0  0  0  0  0  0  0  0  0  0  0  0
  151.5583  138.9242  154.7410 C   0  0  0  0  0  0  0  0  0  0  0  0
  150.1847  139.5351  154.7809 C   0  0  0  0  0  0  0  0  0  0  0  0
  154.2872  141.0064  162.5369 H   0  0  0  0  0  0  0  0  0  0  0  0
  155.1458  140.0418  161.3445 H   0  0  0  0  0  0  0  0  0  0  0  0
  153.4422  139.7359  161.6565 H   0  0  0  0  0  0  0  0  0  0  0  0
  154.6569  142.2404  160.3910 H   0  0  0  0  0  0  0  0  0  0  0  0
  151.7263  141.6553  161.0119 H   0  0  0  0  0  0  0  0  0  0  0  0
  152.6623  142.9142  161.7477 H   0  0  0  0  0  0  0  0  0  0  0  0
  153.9360  143.6765  158.7004 H   0  0  0  0  0  0  0  0  0  0  0  0
  152.2865  145.2167  157.1657 H   0  0  0  0  0  0  0  0  0  0  0  0
  149.8084  144.8457  158.3516 H   0  0  0  0  0  0  0  0  0  0  0  0
  154.0245  141.4114  158.4670 H   0  0  0  0  0  0  0  0  0  0  0  0
  152.0258  139.6460  159.7383 H   0  0  0  0  0  0  0  0  0  0  0  0
  151.6528  141.1665  158.9360 H   0  0  0  0  0  0  0  0  0  0  0  0
  150.2331  139.7265  157.7033 H   0  0  0  0  0  0  0  0  0  0  0  0
  150.2240  137.7045  156.0302 H   0  0  0  0  0  0  0  0  0  0  0  0
  152.4089  139.5934  154.8570 H   0  0  0  0  0  0  0  0  0  0  0  0
  151.7157  138.0848  154.0667 H   0  0  0  0  0  0  0  0  0  0  0  0
  149.4243  139.1038  154.1330 H   0  0  0  0  0  0  0  0  0  0  0  0
  150.1189  140.6123  154.9220 H   0  0  0  0  0  0  0  0  0  0  0  0
  1  2  1  0  0  0  0
  1 17  1  0  0  0  0
  1 18  1  0  0  0  0
  1 19  1  0  0  0  0
  2  3  1  0  0  0  0
  2  9  1  0  0  0  0
  2 20  1  0  0  0  0
  3  4  1  0  0  0  0
  3 21  1  0  0  0  0
  3 22  1  0  0  0  0
  4  8  1  0  0  0  0
  4  5  1  0  0  0  0
  5  6  2  0  0  0  0
  5 23  1  0  0  0  0
  6  7  1  0  0  0  0
  6 24  1  0  0  0  0
  7  8  2  0  0  0  0
  7 25  1  0  0  0  0
  9 10  1  0  0  0  0
  9 26  1  0  0  0  0
 10 11  1  0  0  0  0
 10 27  1  0  0  0  0
 10 28  1  0  0  0  0
 11 12  2  0  0  0  0
 11 13  1  0  0  0  0
 13 14  1  0  0  0  0
 13 29  1  0  0  0  0
 14 16  1  0  0  0  0
 14 15  1  0  0  0  0
 14 30  1  0  0  0  0
 15 16  1  0  0  0  0
 15 31  1  0  0  0  0
 15 32  1  0  0  0  0
 16 33  1  0  0  0  0
 16 34  1  0  0  0  0
M  END
> <s_m_source_file>
AV-unprocessed.smi

> <i_m_source_file_index>
3154

> <i_lp_mmshare_version>
43012

> <i_f3d_flags>
0

> <s_epik_input>
bjFbY0hdW2NIXVtjSF1uMVtDSDJdW0NAQEhdKFtDSDNdKVtOSF1bQ0gyXUMoPU8pW05IXVtDSF0yW0NIMl1bQ0gyXTI=

> <s_epik_cmdline>
J2VwaWtfcHl0aG9uJywgJy1waCcsICc3LjAnLCAnLXRuJywgJzgnLCAnLW1hJywgJzIwMCcsICctbWV0YWxfYmluZGluZycsICctaW1hZScsICc8aW5maWxlLm1hZT4nLCAnLW9tYWUnLCAnPG91dGZpbGUubWFlPic=

> <r_lp_tautomer_probability>
1

> <r_epik_Ionization_Penalty>
1.00229

> <r_epik_Ionization_Penalty_Charging>
0

> <r_epik_Ionization_Penalty_Neutral>
1.00229

> <r_epik_State_Penalty>
1.0509

> <r_epik_Charging_Adjusted_Penalty>
1.0509

> <i_epik_Tot_Q>
0

> <i_epik_Tot_abs_Q>
0

> <r_epik_Metal_State_Penalty>
1.05084

> <b_epik_Metal_Only>
0

> <s_lp_Force_Field>
OPLS_2005

> <r_lp_Energy>
19.1763

> <b_lp_Chiralities_Consistent>
1

> <s_lp_Variant>
AV-unprocessed.smi:3154-3

> <Gold.Version>
5.8.1

> <Gold.Id.Protein>
6NUR|6NUR_protein|mol2

> <Gold.PLP.Fitness>
42.0076

> <Gold.PLP.PLP>
-37.8733

> <Gold.PLP.part.hbond>
-1.4895

> <Gold.PLP.part.metal>
0.0000

> <Gold.PLP.part.buried>
-2.5739

> <Gold.PLP.part.nonpolar>
-33.4086

> <Gold.PLP.part.repulsive>
0.1028

> <Gold.PLP.ligand.clash>
0.0000

> <Gold.PLP.ligand.torsion>
1.1316

> <Gold.PLP.Chemscore.Hbond>
1.0000

> <Gold.PLP.Chemscore.CHOScore>
1.0610

> <Gold.PLP.Chemscore.Metal>
0.0000

> <Gold.Chemscore.Hbonds>
donor molecule, donor type, donor heavy atom, donor atom, acceptor molecule, acceptor atom, score
      P1  H  7997  8008       L1    12  0.94
      L1  C     7    25       P1  8028  0.06
      L1  C     7    25       P1  8029  1.00

> <Gold.PLP.Chemscore.Internal.Correction>
0.2146

> <Gold.Rescore>
     Score         DG    S(hbond)    S(metal)    S(lipo)     H(rot)  DE(clash)    DE(int)     intcor
     12.50     -14.98       0.99        0.00      99.31       2.12       0.03       2.45       ----

> <Gold.Chemscore.Fitness>
12.4974

> <Gold.Chemscore.DG>
-14.9823

> <Gold.Chemscore.ZeroCoef>
-5.4800

> <Gold.Chemscore.Hbond>
0.9932

> <Gold.Chemscore.Metal>
0.0000

> <Gold.Chemscore.Lipo>
99.3066

> <Gold.Chemscore.Internal_Hbond>
0.0000

> <Gold.Chemscore.DEClash>
0.0336

> <Gold.Chemscore.DEInternal>
2.4513

> <Gold.Chemscore.Rot>
2.1225

> <Gold.Chemscore.Internal.Correction>
   9.000000E+99

> <Gold.Chemscore.Hbonds>
donor molecule, donor type, donor heavy atom, donor atom, acceptor molecule, acceptor atom, score
      P1  H  7997  8008       L1    12  0.89

> <Gold.Chemscore.Hbond.Weighted>
-3.3171

> <Gold.Chemscore.Metal.Weighted>
-0.0000

> <Gold.Chemscore.Lipo.Weighted>
-11.6189

> <Gold.Chemscore.Internal_Hbond.Weighted>
0.0000

> <Gold.Chemscore.DEClash.Weighted>
0.0336

> <Gold.Chemscore.DEInternal.Weighted>
2.4513

> <Gold.Chemscore.Rot.Weighted>
5.4337

> <Gold.Chemscore.Internal.Correction.Weighted>
   9.000000E+99

> <Gold.Protein.RotatedTorsions>
[ 6907 6896 6895 6894 ] final   33.24 input  -60.11 | X-H torsion
[ 7974 7965 7964 7962 ] final  116.33 input  175.53 | X-H torsion
[ 8008 7997 7996 7995 ] final  -74.97 input   59.86 | X-H torsion
[ 10167 10162 10161 10158 ] final   -5.33 input  -65.29 | X-H torsion
[ 10718 10713 10712 10709 ] final  170.82 input   66.30 | X-H torsion
[ 10763 10752 10751 10750 ] final  -96.83 input  -60.55 | X-H torsion
[ 11005 11000 10999 10996 ] final  112.06 input  -57.11 | X-H torsion

> <Gold.Protein.ActiveResidues>
 VAL166  LYS551  ARG553  GLY616  TRP617  ASP618  TYR619  PRO620  LYS621  CYS622 
 ASP623  PHE694  ASN695  SER759  ASP760  ASP761  ALA762  ILE779  LEU786  VAL792 
 PHE793  MET794  SER795  GLU796  ALA797  LYS798  CYS799  TRP800  GLU811  SER814 

> <Gold.Protein.RotatedAtoms>
  152.0857  134.9441  160.0572 H   0  0  0  0  0  0  0  0  0  0  0  0  # atno 6907 bound_to 6896
  152.0712  133.4103  159.4468 H   0  0  0  0  0  0  0  0  0  0  0  0  # atno 6908 bound_to 6896
  150.6836  134.3009  159.4749 H   0  0  0  0  0  0  0  0  0  0  0  0  # atno 6909 bound_to 6896
  145.1810  139.3050  143.4418 H   0  0  0  0  0  0  0  0  0  0  0  0  # atno 7974 bound_to 7965
  154.5376  140.0752  156.8455 H   0  0  0  0  0  0  0  0  0  0  0  0  # atno 8008 bound_to 7997
  155.3246  140.3398  155.4222 H   0  0  0  0  0  0  0  0  0  0  0  0  # atno 8009 bound_to 7997
  156.1843  140.1663  156.8200 H   0  0  0  0  0  0  0  0  0  0  0  0  # atno 8010 bound_to 7997
  140.6959  143.6320  150.8514 H   0  0  0  0  0  0  0  0  0  0  0  0  # atno 10167 bound_to 10162
  157.0025  131.0180  151.2826 H   0  0  0  0  0  0  0  0  0  0  0  0  # atno 10718 bound_to 10713
  154.7274  135.5069  153.8908 H   0  0  0  0  0  0  0  0  0  0  0  0  # atno 10763 bound_to 10752
  153.0917  135.6661  153.9849 H   0  0  0  0  0  0  0  0  0  0  0  0  # atno 10764 bound_to 10752
  153.9658  135.3043  155.3410 H   0  0  0  0  0  0  0  0  0  0  0  0  # atno 10765 bound_to 10752
  139.8918  134.9521  156.6527 H   0  0  0  0  0  0  0  0  0  0  0  0  # atno 11005 bound_to 11000
  146.3453  140.1989  142.8589 LP  0  0  0  0  0  0  0  0  0  0  0  0  # atno 17320 bound_to 7965
  145.0136  140.8735  143.5209 LP  0  0  0  0  0  0  0  0  0  0  0  0  # atno 17321 bound_to 7965
  140.0038  143.5715  152.2865 LP  0  0  0  0  0  0  0  0  0  0  0  0  # atno 17342 bound_to 10162
  139.6414  144.7655  151.2330 LP  0  0  0  0  0  0  0  0  0  0  0  0  # atno 17343 bound_to 10162
  157.5379  130.8101  149.7994 LP  0  0  0  0  0  0  0  0  0  0  0  0  # atno 17370 bound_to 10713
  156.0166  130.3811  150.2093 LP  0  0  0  0  0  0  0  0  0  0  0  0  # atno 17371 bound_to 10713
  140.7508  133.8899  155.8345 LP  0  0  0  0  0  0  0  0  0  0  0  0  # atno 17394 bound_to 11000
  141.0002  134.1160  157.4324 LP  0  0  0  0  0  0  0  0  0  0  0  0  # atno 17395 bound_to 11000

$$$$
