AV-unprocessed.smi:287|AV-procd|sdf|2192|dock2
  -GOLD-   2262021583D 1   1.00000     0.00000
 Structure written by MMmdl.
 55 58  0  0  0  0  0  0  0  0  1 V2000
  142.6107  134.5155  163.3088 C   0  0  0  0  0  0  0  0  0  0  0  0
  143.8518  134.8766  162.5672 C   0  0  0  0  0  0  0  0  0  0  0  0
  144.1195  135.7190  161.5279 C   0  0  0  0  0  0  0  0  0  0  0  0
  145.5200  135.6408  161.2653 C   0  0  0  0  0  0  0  0  0  0  0  0
  146.2738  136.4116  160.1898 C   0  0  2  0  0  0  0  0  0  0  0  0
  147.7565  136.0053  160.2018 C   0  0  0  0  0  0  0  0  0  0  0  0
  146.2651  137.8092  160.4075 O   0  0  0  0  0  0  0  0  0  0  0  0
  145.6739  136.1982  158.7811 C   0  0  0  0  0  0  0  0  0  0  0  0
  146.2430  137.0966  157.7818 N   0  0  0  0  0  0  0  0  0  0  0  0
  145.7860  137.0775  156.5128 C   0  0  0  0  0  0  0  0  0  0  0  0
  145.0538  138.1087  156.0168 N   0  0  0  0  0  0  0  0  0  0  0  0
  144.6172  138.0687  154.7546 C   0  0  0  0  0  0  0  0  0  0  0  0
  144.7974  137.1140  153.8398 N   0  0  0  0  0  0  0  0  0  0  0  0
  145.5313  136.0748  154.3346 C   0  0  0  0  0  0  0  0  0  0  0  0
  146.0579  135.9830  155.6526 C   0  0  0  0  0  0  0  0  0  0  0  0
  146.7532  134.7899  155.8009 N   0  0  0  0  0  0  0  0  0  0  0  0
  146.6436  134.2138  154.6339 C   0  0  0  0  0  0  0  0  0  0  0  0
  145.9288  134.9189  153.6914 N   0  0  0  0  0  0  0  0  0  0  0  0
  145.6482  134.5197  152.2768 C   0  0  1  0  0  0  0  0  0  0  0  0
  146.2260  133.2818  152.0222 O   0  0  0  0  0  0  0  0  0  0  0  0
  145.4935  132.6256  150.9929 C   0  0  1  0  0  0  0  0  0  0  0  0
  145.3953  131.1238  151.3183 C   0  0  0  0  0  0  0  0  0  0  0  0
  146.6522  130.5691  151.6479 O   0  0  0  0  0  0  0  0  0  0  0  0
  144.1507  133.3714  150.8342 C   0  0  2  0  0  0  0  0  0  0  0  0
  144.1325  134.0448  149.5894 O   0  0  0  0  0  0  0  0  0  0  0  0
  144.1497  134.3871  151.9711 C   0  0  1  0  0  0  0  0  0  0  0  0
  143.3877  133.9216  153.0698 O   0  0  0  0  0  0  0  0  0  0  0  0
  145.9960  134.7265  162.1744 C   0  0  0  0  0  0  0  0  0  0  0  0
  147.3448  134.1530  162.4596 C   0  0  0  0  0  0  0  0  0  0  0  0
  144.9923  134.2627  162.9701 O   0  0  0  0  0  0  0  0  0  0  0  0
  146.1359  135.2781  151.6625 H   0  0  0  0  0  0  0  0  0  0  0  0
  146.0876  132.7293  150.0833 H   0  0  0  0  0  0  0  0  0  0  0  0
  143.2844  132.7093  150.8685 H   0  0  0  0  0  0  0  0  0  0  0  0
  143.7505  135.3585  151.6755 H   0  0  0  0  0  0  0  0  0  0  0  0
  141.7689  135.1242  162.9784 H   0  0  0  0  0  0  0  0  0  0  0  0
  142.7405  134.6721  164.3797 H   0  0  0  0  0  0  0  0  0  0  0  0
  142.3551  133.4683  163.1471 H   0  0  0  0  0  0  0  0  0  0  0  0
  143.3922  136.3311  161.0152 H   0  0  0  0  0  0  0  0  0  0  0  0
  147.8757  134.9395  160.0037 H   0  0  0  0  0  0  0  0  0  0  0  0
  148.2160  136.2121  161.1693 H   0  0  0  0  0  0  0  0  0  0  0  0
  148.3257  136.5444  159.4436 H   0  0  0  0  0  0  0  0  0  0  0  0
  145.6794  138.2063  159.7811 H   0  0  0  0  0  0  0  0  0  0  0  0
  145.7801  135.1597  158.4635 H   0  0  0  0  0  0  0  0  0  0  0  0
  144.6030  136.4025  158.8259 H   0  0  0  0  0  0  0  0  0  0  0  0
  146.9316  137.7550  158.1179 H   0  0  0  0  0  0  0  0  0  0  0  0
  144.0426  138.9236  154.4302 H   0  0  0  0  0  0  0  0  0  0  0  0
  147.0891  133.2520  154.4255 H   0  0  0  0  0  0  0  0  0  0  0  0
  144.7326  130.9760  152.1712 H   0  0  0  0  0  0  0  0  0  0  0  0
  144.9637  130.5764  150.4800 H   0  0  0  0  0  0  0  0  0  0  0  0
  147.3077  130.9515  151.0849 H   0  0  0  0  0  0  0  0  0  0  0  0
  145.0133  134.0714  149.2487 H   0  0  0  0  0  0  0  0  0  0  0  0
  143.5593  132.9992  153.1836 H   0  0  0  0  0  0  0  0  0  0  0  0
  147.7911  133.7453  161.5524 H   0  0  0  0  0  0  0  0  0  0  0  0
  147.2852  133.3487  163.1933 H   0  0  0  0  0  0  0  0  0  0  0  0
  148.0140  134.9180  162.8535 H   0  0  0  0  0  0  0  0  0  0  0  0
  1  2  1  0  0  0  0
  1 35  1  0  0  0  0
  1 36  1  0  0  0  0
  1 37  1  0  0  0  0
  2 30  1  0  0  0  0
  2  3  2  0  0  0  0
  3  4  1  0  0  0  0
  3 38  1  0  0  0  0
  4  5  1  0  0  0  0
  4 28  2  0  0  0  0
  5  6  1  0  0  0  0
  5  7  1  0  0  0  0
  5  8  1  0  0  0  0
  6 39  1  0  0  0  0
  6 40  1  0  0  0  0
  6 41  1  0  0  0  0
  7 42  1  0  0  0  0
  8  9  1  0  0  0  0
  8 43  1  0  0  0  0
  8 44  1  0  0  0  0
  9 10  1  0  0  0  0
  9 45  1  0  0  0  0
 10 15  1  0  0  0  0
 10 11  2  0  0  0  0
 11 12  1  0  0  0  0
 12 13  2  0  0  0  0
 12 46  1  0  0  0  0
 13 14  1  0  0  0  0
 14 18  1  0  0  0  0
 14 15  2  0  0  0  0
 15 16  1  0  0  0  0
 16 17  2  0  0  0  0
 17 18  1  0  0  0  0
 17 47  1  0  0  0  0
 18 19  1  0  0  0  0
 19 31  1  0  0  0  0
 19 26  1  0  0  0  0
 19 20  1  0  0  0  0
 20 21  1  0  0  0  0
 21 32  1  0  0  0  0
 21 22  1  0  0  0  0
 21 24  1  0  0  0  0
 22 23  1  0  0  0  0
 22 48  1  0  0  0  0
 22 49  1  0  0  0  0
 23 50  1  0  0  0  0
 24 33  1  0  0  0  0
 24 25  1  0  0  0  0
 24 26  1  0  0  0  0
 25 51  1  0  0  0  0
 26 34  1  0  0  0  0
 26 27  1  0  0  0  0
 27 52  1  0  0  0  0
 28 29  1  0  0  0  0
 28 30  1  0  0  0  0
 29 53  1  0  0  0  0
 29 54  1  0  0  0  0
 29 55  1  0  0  0  0
M  END
> <s_m_source_file>
AV-unprocessed.smi

> <i_m_source_file_index>
287

> <i_lp_mmshare_version>
43012

> <i_f3d_flags>
0

> <s_epik_input>
W0NIM11jMVtjSF1jKGMobzEpW0NIM10pW0NAQF0oW0NIM10pKFtPSF0pW0NIMl1bTkhdYyhuW2NIXW4yKWMoYzIzKW5bY0hdbjNbQ0BASF00T1tDQEhdKFtDSDJdW09IXSlbQ0BASF0oW09IXSlbQ0BIXTRbT0hd

> <s_epik_cmdline>
J2VwaWtfcHl0aG9uJywgJy1waCcsICc3LjAnLCAnLXRuJywgJzgnLCAnLW1hJywgJzIwMCcsICctbWV0YWxfYmluZGluZycsICctaW1hZScsICc8aW5maWxlLm1hZT4nLCAnLW9tYWUnLCAnPG91dGZpbGUubWFlPic=

> <r_lp_tautomer_probability>
1

> <r_epik_Ionization_Penalty>
0.000992612

> <r_epik_Ionization_Penalty_Charging>
0

> <r_epik_Ionization_Penalty_Neutral>
0.000992612

> <r_epik_State_Penalty>
-0

> <r_epik_Charging_Adjusted_Penalty>
0

> <i_epik_Tot_Q>
0

> <i_epik_Tot_abs_Q>
0

> <r_epik_Metal_State_Penalty>
-0

> <b_epik_Metal_Only>
0

> <s_epik_Chemistry_Notes>
This compound contains an acetal/aminal-like group ( X-CH(R)-Y where X, Y are N, S, or O) that may be acid/base labile, releasing an aldehyde.

> <s_lp_Force_Field>
OPLS_2005

> <r_lp_Energy>
44.6889

> <b_lp_Chiralities_Consistent>
1

> <s_lp_Variant>
AV-unprocessed.smi:287-16

> <Gold.Version>
5.8.1

> <Gold.Id.Protein>
6NUR|6NUR_protein|mol2

> <Gold.PLP.Fitness>
45.4310

> <Gold.PLP.PLP>
-36.6198

> <Gold.PLP.part.hbond>
-5.0354

> <Gold.PLP.part.metal>
0.0000

> <Gold.PLP.part.buried>
-7.8410

> <Gold.PLP.part.nonpolar>
-23.8434

> <Gold.PLP.part.repulsive>
0.3449

> <Gold.PLP.ligand.clash>
1.6756

> <Gold.PLP.ligand.torsion>
0.8430

> <Gold.PLP.Chemscore.Hbond>
2.9751

> <Gold.PLP.Chemscore.CHOScore>
0.9856

> <Gold.PLP.Chemscore.Metal>
0.0000

> <Gold.Chemscore.Hbonds>
donor molecule, donor type, donor heavy atom, donor atom, acceptor molecule, acceptor atom, score
      L1  H    23    50       P1 10747  0.98
      L1  H    25    51       P1  7921  0.69
      L1  H    27    52       P1 10957  0.28
      P1  H  6934  6947       L1     7  1.00
      L1  C    12    46       P1 10175  1.00

> <Gold.PLP.Chemscore.Internal.Correction>
0.2909

> <Gold.Rescore>
     Score         DG    S(hbond)    S(metal)    S(lipo)     H(rot)  DE(clash)    DE(int)     intcor
      8.04     -10.03       2.78        0.00      74.72       5.27       0.00       1.98       ----

> <Gold.Chemscore.Fitness>
8.0422

> <Gold.Chemscore.DG>
-10.0270

> <Gold.Chemscore.ZeroCoef>
-5.4800

> <Gold.Chemscore.Hbond>
2.7809

> <Gold.Chemscore.Metal>
0.0000

> <Gold.Chemscore.Lipo>
74.7240

> <Gold.Chemscore.Internal_Hbond>
0.0000

> <Gold.Chemscore.DEClash>
0.0000

> <Gold.Chemscore.DEInternal>
1.9848

> <Gold.Chemscore.Rot>
5.2672

> <Gold.Chemscore.Internal.Correction>
   9.000000E+99

> <Gold.Chemscore.Hbonds>
donor molecule, donor type, donor heavy atom, donor atom, acceptor molecule, acceptor atom, score
      L1  H    23    50       P1 10747  0.93
      L1  H    25    51       P1  7921  0.67
      L1  H    27    52       P1 10957  0.19
      P1  H  6934  6947       L1     7  0.39

> <Gold.Chemscore.Hbond.Weighted>
-9.2882

> <Gold.Chemscore.Metal.Weighted>
-0.0000

> <Gold.Chemscore.Lipo.Weighted>
-8.7427

> <Gold.Chemscore.Internal_Hbond.Weighted>
0.0000

> <Gold.Chemscore.DEClash.Weighted>
0.0000

> <Gold.Chemscore.DEInternal.Weighted>
1.9848

> <Gold.Chemscore.Rot.Weighted>
13.4839

> <Gold.Chemscore.Internal.Correction.Weighted>
   9.000000E+99

> <Gold.Protein.RotatedTorsions>
[ 6907 6896 6895 6894 ] final  132.86 input  -60.11 | X-H torsion
[ 7974 7965 7964 7962 ] final -156.37 input  175.53 | X-H torsion
[ 8008 7997 7996 7995 ] final   55.92 input   59.86 | X-H torsion
[ 10167 10162 10161 10158 ] final   75.89 input  -65.29 | X-H torsion
[ 10718 10713 10712 10709 ] final   71.33 input   66.30 | X-H torsion
[ 10763 10752 10751 10750 ] final   49.97 input  -60.55 | X-H torsion
[ 11005 11000 10999 10996 ] final  -75.16 input  -57.11 | X-H torsion

> <Gold.Protein.ActiveResidues>
 VAL166  LYS551  ARG553  GLY616  TRP617  ASP618  TYR619  PRO620  LYS621  CYS622 
 ASP623  PHE694  ASN695  SER759  ASP760  ASP761  ALA762  ILE779  LEU786  VAL792 
 PHE793  MET794  SER795  GLU796  ALA797  LYS798  CYS799  TRP800  GLU811  SER814 

> <Gold.Protein.RotatedAtoms>
  152.3280  133.5926  159.5789 H   0  0  0  0  0  0  0  0  0  0  0  0  # atno 6907 bound_to 6896
  150.7407  133.9912  159.3616 H   0  0  0  0  0  0  0  0  0  0  0  0  # atno 6908 bound_to 6896
  151.7789  135.0767  160.0422 H   0  0  0  0  0  0  0  0  0  0  0  0  # atno 6909 bound_to 6896
  144.7596  140.4118  143.5986 H   0  0  0  0  0  0  0  0  0  0  0  0  # atno 7974 bound_to 7965
  155.5090  140.3476  155.4385 H   0  0  0  0  0  0  0  0  0  0  0  0  # atno 8008 bound_to 7997
  156.0862  140.1399  156.9677 H   0  0  0  0  0  0  0  0  0  0  0  0  # atno 8009 bound_to 7997
  154.4608  140.0935  156.6864 H   0  0  0  0  0  0  0  0  0  0  0  0  # atno 8010 bound_to 7997
  139.9981  144.5707  150.7760 H   0  0  0  0  0  0  0  0  0  0  0  0  # atno 10167 bound_to 10162
  157.6446  130.9523  150.0774 H   0  0  0  0  0  0  0  0  0  0  0  0  # atno 10718 bound_to 10713
  152.9785  135.5894  154.4175 H   0  0  0  0  0  0  0  0  0  0  0  0  # atno 10763 bound_to 10752
  154.3803  135.2767  155.2217 H   0  0  0  0  0  0  0  0  0  0  0  0  # atno 10764 bound_to 10752
  154.4133  135.6076  153.6020 H   0  0  0  0  0  0  0  0  0  0  0  0  # atno 10765 bound_to 10752
  141.1643  133.6937  156.7475 H   0  0  0  0  0  0  0  0  0  0  0  0  # atno 11005 bound_to 11000
  145.6663  139.1591  143.2779 LP  0  0  0  0  0  0  0  0  0  0  0  0  # atno 17320 bound_to 7965
  146.1645  140.6739  142.9262 LP  0  0  0  0  0  0  0  0  0  0  0  0  # atno 17321 bound_to 7965
  140.7429  143.2839  151.3519 LP  0  0  0  0  0  0  0  0  0  0  0  0  # atno 17342 bound_to 10162
  139.6291  144.0755  152.2461 LP  0  0  0  0  0  0  0  0  0  0  0  0  # atno 17343 bound_to 10162
  156.1760  130.3648  149.9099 LP  0  0  0  0  0  0  0  0  0  0  0  0  # atno 17370 bound_to 10713
  156.7063  130.8953  151.3605 LP  0  0  0  0  0  0  0  0  0  0  0  0  # atno 17371 bound_to 10713
  140.2629  134.8453  157.3775 LP  0  0  0  0  0  0  0  0  0  0  0  0  # atno 17394 bound_to 11000
  140.1594  134.4748  155.7905 LP  0  0  0  0  0  0  0  0  0  0  0  0  # atno 17395 bound_to 11000

$$$$
