AV-unprocessed.smi:2855|AV-procd|sdf|10983|dock7
  -GOLD-   2272015433D 1   1.00000     0.00000
 Structure written by MMmdl.
 47 48  0  0  0  0  0  0  0  0  1 V2000
  151.8748  144.0488  158.8912 C   0  0  0  0  0  0  0  0  0  0  0  0
  151.2417  142.6512  158.8362 C   0  0  2  0  0  0  0  0  0  0  0  0
  152.2253  141.6058  158.2697 C   0  0  0  0  0  0  0  0  0  0  0  0
  151.5730  140.2162  158.1283 C   0  0  0  0  0  0  0  0  0  0  0  0
  150.2995  140.2562  157.2458 C   0  0  2  0  0  0  0  0  0  0  0  0
  150.6140  140.5335  155.7327 C   0  0  0  0  0  0  0  0  0  0  0  0
  149.3727  140.5650  154.8198 C   0  0  0  0  0  0  0  0  0  0  0  0
  151.6121  139.5128  155.1487 C   0  0  0  0  0  0  0  0  0  0  0  0
  149.3245  141.2435  157.9544 C   0  0  2  0  0  0  0  0  0  0  0  0
  147.9801  141.2717  157.3894 N   0  0  0  0  0  0  0  0  0  0  0  0
  146.8761  141.7351  158.0005 C   0  0  0  0  0  0  0  0  0  0  0  0
  146.8919  142.2068  159.1369 O   0  0  0  0  0  0  0  0  0  0  0  0
  145.5384  141.6542  157.2444 C   0  0  0  0  0  0  0  0  0  0  0  0
  145.4727  142.4589  156.0126 N   0  0  0  0  0  0  0  0  0  0  0  0
  146.3647  142.2199  154.9768 C   0  0  0  0  0  0  0  0  0  0  0  0
  146.3724  142.9248  153.8208 C   0  0  0  0  0  0  0  0  0  0  0  0
  145.4112  144.0011  153.6059 C   0  0  0  0  0  0  0  0  0  0  0  0
  145.3393  144.6966  152.5953 O   0  0  0  0  0  0  0  0  0  0  0  0
  144.5295  144.2102  154.6697 N   0  0  0  0  0  0  0  0  0  0  0  0
  144.5167  143.4878  155.8638 C   0  0  0  0  0  0  0  0  0  0  0  0
  143.7005  143.7609  156.7428 O   0  0  0  0  0  0  0  0  0  0  0  0
  149.9193  142.6606  158.0418 C   0  0  0  0  0  0  0  0  0  0  0  0
  143.8461  144.9464  154.5662 H   0  0  0  0  0  0  0  0  0  0  0  0
  152.1379  144.4041  157.8943 H   0  0  0  0  0  0  0  0  0  0  0  0
  152.7833  144.0448  159.4942 H   0  0  0  0  0  0  0  0  0  0  0  0
  151.1899  144.7731  159.3329 H   0  0  0  0  0  0  0  0  0  0  0  0
  151.0073  142.3592  159.8611 H   0  0  0  0  0  0  0  0  0  0  0  0
  152.6047  141.9369  157.3029 H   0  0  0  0  0  0  0  0  0  0  0  0
  153.0956  141.5309  158.9225 H   0  0  0  0  0  0  0  0  0  0  0  0
  152.2984  139.4924  157.7609 H   0  0  0  0  0  0  0  0  0  0  0  0
  151.3057  139.8548  159.1224 H   0  0  0  0  0  0  0  0  0  0  0  0
  149.8513  139.2627  157.2961 H   0  0  0  0  0  0  0  0  0  0  0  0
  151.0851  141.5115  155.6422 H   0  0  0  0  0  0  0  0  0  0  0  0
  148.7366  139.6931  154.9762 H   0  0  0  0  0  0  0  0  0  0  0  0
  149.6532  140.5823  153.7663 H   0  0  0  0  0  0  0  0  0  0  0  0
  148.7777  141.4623  154.9806 H   0  0  0  0  0  0  0  0  0  0  0  0
  151.2661  138.4894  155.2973 H   0  0  0  0  0  0  0  0  0  0  0  0
  152.6016  139.6056  155.5947 H   0  0  0  0  0  0  0  0  0  0  0  0
  151.7506  139.6610  154.0774 H   0  0  0  0  0  0  0  0  0  0  0  0
  149.2033  140.9038  158.9854 H   0  0  0  0  0  0  0  0  0  0  0  0
  147.8760  140.9010  156.4560 H   0  0  0  0  0  0  0  0  0  0  0  0
  145.3475  140.6056  157.0105 H   0  0  0  0  0  0  0  0  0  0  0  0
  144.7370  141.9401  157.9279 H   0  0  0  0  0  0  0  0  0  0  0  0
  147.0985  141.4350  155.0943 H   0  0  0  0  0  0  0  0  0  0  0  0
  147.0944  142.6920  153.0514 H   0  0  0  0  0  0  0  0  0  0  0  0
  149.2091  143.3263  158.5346 H   0  0  0  0  0  0  0  0  0  0  0  0
  150.0760  143.0700  157.0437 H   0  0  0  0  0  0  0  0  0  0  0  0
  1  2  1  0  0  0  0
  1 24  1  0  0  0  0
  1 25  1  0  0  0  0
  1 26  1  0  0  0  0
  2 22  1  0  0  0  0
  2  3  1  0  0  0  0
  2 27  1  0  0  0  0
  3  4  1  0  0  0  0
  3 28  1  0  0  0  0
  3 29  1  0  0  0  0
  4  5  1  0  0  0  0
  4 30  1  0  0  0  0
  4 31  1  0  0  0  0
  5  6  1  0  0  0  0
  5  9  1  0  0  0  0
  5 32  1  0  0  0  0
  6  7  1  0  0  0  0
  6  8  1  0  0  0  0
  6 33  1  0  0  0  0
  7 34  1  0  0  0  0
  7 35  1  0  0  0  0
  7 36  1  0  0  0  0
  8 37  1  0  0  0  0
  8 38  1  0  0  0  0
  8 39  1  0  0  0  0
  9 10  1  0  0  0  0
  9 22  1  0  0  0  0
  9 40  1  0  0  0  0
 10 11  1  0  0  0  0
 10 41  1  0  0  0  0
 11 12  2  0  0  0  0
 11 13  1  0  0  0  0
 13 14  1  0  0  0  0
 13 42  1  0  0  0  0
 13 43  1  0  0  0  0
 14 20  1  0  0  0  0
 14 15  1  0  0  0  0
 15 16  2  0  0  0  0
 15 44  1  0  0  0  0
 16 17  1  0  0  0  0
 16 45  1  0  0  0  0
 17 18  2  0  0  0  0
 17 19  1  0  0  0  0
 19 23  1  0  0  0  0
 19 20  1  0  0  0  0
 20 21  2  0  0  0  0
 22 46  1  0  0  0  0
 22 47  1  0  0  0  0
M  END
> <s_m_source_file>
AV-unprocessed.smi

> <i_m_source_file_index>
2855

> <i_lp_mmshare_version>
43012

> <i_f3d_flags>
0

> <s_epik_input>
W0NIM11bQ0BASF0xW0NIMl1bQ0gyXVtDQEBIXShbQ0hdKFtDSDNdKVtDSDNdKVtDQEhdKFtDSDJdMSlbTkhdQyg9TylbQ0gyXW4yW2NIXVtjSF1jKD1PKVtuSF1jMj1P

> <s_epik_cmdline>
J2VwaWtfcHl0aG9uJywgJy1waCcsICc3LjAnLCAnLXRuJywgJzgnLCAnLW1hJywgJzIwMCcsICctbWV0YWxfYmluZGluZycsICctaW1hZScsICc8aW5maWxlLm1hZT4nLCAnLW9tYWUnLCAnPG91dGZpbGUubWFlPic=

> <r_lp_tautomer_probability>
0.999537

> <r_epik_Ionization_Penalty>
0.00306256

> <r_epik_Ionization_Penalty_Charging>
0.00306254

> <r_epik_Ionization_Penalty_Neutral>
2.0223e-08

> <r_epik_State_Penalty>
0.0021533

> <r_epik_Charging_Adjusted_Penalty>
0.00521583

> <i_epik_Tot_Q>
0

> <i_epik_Tot_abs_Q>
0

> <r_epik_Metal_State_Penalty>
0.362116

> <b_epik_Metal_Only>
0

> <s_lp_Force_Field>
OPLS_2005

> <r_lp_Energy>
18.1406

> <b_lp_Chiralities_Consistent>
1

> <s_lp_Variant>
AV-unprocessed.smi:2855-7

> <Gold.Version>
5.8.1

> <Gold.Id.Protein>
6NUR|6NUR_protein|mol2

> <Gold.PLP.Fitness>
38.7277

> <Gold.PLP.PLP>
-36.8609

> <Gold.PLP.part.hbond>
-1.5163

> <Gold.PLP.part.metal>
0.0000

> <Gold.PLP.part.buried>
-6.9433

> <Gold.PLP.part.nonpolar>
-29.6802

> <Gold.PLP.part.repulsive>
0.3800

> <Gold.PLP.ligand.clash>
0.0000

> <Gold.PLP.ligand.torsion>
0.2144

> <Gold.PLP.Chemscore.Hbond>
0.7517

> <Gold.PLP.Chemscore.CHOScore>
0.0000

> <Gold.PLP.Chemscore.Metal>
0.0000

> <Gold.Chemscore.Hbonds>
donor molecule, donor type, donor heavy atom, donor atom, acceptor molecule, acceptor atom, score
      P1  H  6934  6946       L1    12  0.71

> <Gold.PLP.Chemscore.Internal.Correction>
0.0407

> <Gold.Rescore>
     Score         DG    S(hbond)    S(metal)    S(lipo)     H(rot)  DE(clash)    DE(int)     intcor
     10.84     -12.17       0.74        0.00      76.67       1.85       0.06       1.26       ----

> <Gold.Chemscore.Fitness>
10.8443

> <Gold.Chemscore.DG>
-12.1723

> <Gold.Chemscore.ZeroCoef>
-5.4800

> <Gold.Chemscore.Hbond>
0.7391

> <Gold.Chemscore.Metal>
0.0000

> <Gold.Chemscore.Lipo>
76.6651

> <Gold.Chemscore.Internal_Hbond>
0.0000

> <Gold.Chemscore.DEClash>
0.0630

> <Gold.Chemscore.DEInternal>
1.2650

> <Gold.Chemscore.Rot>
1.8539

> <Gold.Chemscore.Internal.Correction>
   9.000000E+99

> <Gold.Chemscore.Hbonds>
donor molecule, donor type, donor heavy atom, donor atom, acceptor molecule, acceptor atom, score
      P1  H  6934  6946       L1    12  0.64

> <Gold.Chemscore.Hbond.Weighted>
-2.4685

> <Gold.Chemscore.Metal.Weighted>
-0.0000

> <Gold.Chemscore.Lipo.Weighted>
-8.9698

> <Gold.Chemscore.Internal_Hbond.Weighted>
0.0000

> <Gold.Chemscore.DEClash.Weighted>
0.0630

> <Gold.Chemscore.DEInternal.Weighted>
1.2650

> <Gold.Chemscore.Rot.Weighted>
4.7460

> <Gold.Chemscore.Internal.Correction.Weighted>
   9.000000E+99

> <Gold.Protein.RotatedTorsions>
[ 6907 6896 6895 6894 ] final   57.10 input  -60.11 | X-H torsion
[ 7974 7965 7964 7962 ] final  150.52 input  175.53 | X-H torsion
[ 8008 7997 7996 7995 ] final -156.54 input   59.86 | X-H torsion
[ 10167 10162 10161 10158 ] final -151.14 input  -65.29 | X-H torsion
[ 10718 10713 10712 10709 ] final  -43.63 input   66.30 | X-H torsion
[ 10763 10752 10751 10750 ] final  125.52 input  -60.55 | X-H torsion
[ 11005 11000 10999 10996 ] final   84.56 input  -57.11 | X-H torsion

> <Gold.Protein.ActiveResidues>
 VAL166  LYS551  ARG553  GLY616  TRP617  ASP618  TYR619  PRO620  LYS621  CYS622 
 ASP623  PHE694  ASN695  SER759  ASP760  ASP761  ALA762  ILE779  LEU786  VAL792 
 PHE793  MET794  SER795  GLU796  ALA797  LYS798  CYS799  TRP800  GLU811  SER814 

> <Gold.Protein.RotatedAtoms>
  152.3699  134.6749  160.0179 H   0  0  0  0  0  0  0  0  0  0  0  0  # atno 6907 bound_to 6896
  151.7046  133.3306  159.3283 H   0  0  0  0  0  0  0  0  0  0  0  0  # atno 6908 bound_to 6896
  150.7666  134.6521  159.6338 H   0  0  0  0  0  0  0  0  0  0  0  0  # atno 6909 bound_to 6896
  144.8358  139.6419  143.6038 H   0  0  0  0  0  0  0  0  0  0  0  0  # atno 7974 bound_to 7965
  155.7187  140.0787  157.2340 H   0  0  0  0  0  0  0  0  0  0  0  0  # atno 8008 bound_to 7997
  154.4048  140.1616  156.2432 H   0  0  0  0  0  0  0  0  0  0  0  0  # atno 8009 bound_to 7997
  155.9216  140.3397  155.6180 H   0  0  0  0  0  0  0  0  0  0  0  0  # atno 8010 bound_to 7997
  139.7293  143.8833  152.2529 H   0  0  0  0  0  0  0  0  0  0  0  0  # atno 10167 bound_to 10162
  156.2470  130.4184  149.8694 H   0  0  0  0  0  0  0  0  0  0  0  0  # atno 10718 bound_to 10713
  153.6787  135.3318  155.3172 H   0  0  0  0  0  0  0  0  0  0  0  0  # atno 10763 bound_to 10752
  154.8472  135.4403  154.1629 H   0  0  0  0  0  0  0  0  0  0  0  0  # atno 10764 bound_to 10752
  153.2640  135.6994  153.7626 H   0  0  0  0  0  0  0  0  0  0  0  0  # atno 10765 bound_to 10752
  139.8996  134.8225  156.2462 H   0  0  0  0  0  0  0  0  0  0  0  0  # atno 11005 bound_to 11000
  146.2657  139.6514  142.9331 LP  0  0  0  0  0  0  0  0  0  0  0  0  # atno 17320 bound_to 7965
  145.4798  141.0437  143.2652 LP  0  0  0  0  0  0  0  0  0  0  0  0  # atno 17321 bound_to 7965
  139.8752  144.7047  150.8941 LP  0  0  0  0  0  0  0  0  0  0  0  0  # atno 17342 bound_to 10162
  140.7768  143.3706  151.1657 LP  0  0  0  0  0  0  0  0  0  0  0  0  # atno 17343 bound_to 10162
  156.6255  130.8644  151.3484 LP  0  0  0  0  0  0  0  0  0  0  0  0  # atno 17370 bound_to 10713
  157.7199  130.9545  150.1398 LP  0  0  0  0  0  0  0  0  0  0  0  0  # atno 17371 bound_to 10713
  141.0253  133.7018  156.1337 LP  0  0  0  0  0  0  0  0  0  0  0  0  # atno 17394 bound_to 11000
  140.7175  134.4394  157.5577 LP  0  0  0  0  0  0  0  0  0  0  0  0  # atno 17395 bound_to 11000

$$$$
