AV-unprocessed.smi:1450|AV-procd|sdf|5898|dock1
  -GOLD-   22720 5583D 1   1.00000     0.00000
 Structure written by MMmdl.
 31 32  0  0  0  0  0  0  0  0  1 V2000
  145.5262  138.3463  153.5442 O   0  0  0  0  0  0  0  0  0  0  0  0
  146.4590  137.7986  152.9575 C   0  0  0  0  0  0  0  0  0  0  0  0
  146.3225  136.6717  152.2446 N   0  0  0  0  0  0  0  0  0  0  0  0
  145.0780  135.9272  152.0823 C   0  0  0  0  0  0  0  0  0  0  0  0
  145.1825  134.8585  150.9770 C   0  0  1  0  0  0  0  0  0  0  0  0
  146.4211  133.9783  151.0814 C   0  0  0  0  0  0  0  0  0  0  0  0
  145.9480  132.5998  150.6051 C   0  0  0  0  0  0  0  0  0  0  0  0
  144.5947  132.7720  150.2052 O   0  0  0  0  0  0  0  0  0  0  0  0
  144.0508  133.8333  150.9704 C   0  0  0  0  0  0  0  0  0  0  0  0
  147.7281  138.2404  152.9262 N   0  0  0  0  0  0  0  0  0  0  0  0
  148.2919  139.3728  153.5749 C   0  0  0  0  0  0  0  0  0  0  0  0
  147.5182  140.5502  153.6342 C   0  0  0  0  0  0  0  0  0  0  0  0
  148.0549  141.6949  154.2533 C   0  0  0  0  0  0  0  0  0  0  0  0
  149.3564  141.6197  154.7854 C   0  0  0  0  0  0  0  0  0  0  0  0
  150.1165  140.5064  154.7256 N   0  0  0  0  0  0  0  0  0  0  0  0
  149.5949  139.4112  154.1315 C   0  0  0  0  0  0  0  0  0  0  0  0
  147.1402  136.2951  151.7877 H   0  0  0  0  0  0  0  0  0  0  0  0
  144.7943  135.4658  153.0296 H   0  0  0  0  0  0  0  0  0  0  0  0
  144.2898  136.6409  151.8402 H   0  0  0  0  0  0  0  0  0  0  0  0
  145.2005  135.3460  150.0008 H   0  0  0  0  0  0  0  0  0  0  0  0
  147.2355  134.3666  150.4687 H   0  0  0  0  0  0  0  0  0  0  0  0
  146.7812  133.9117  152.1091 H   0  0  0  0  0  0  0  0  0  0  0  0
  146.5468  132.2174  149.7780 H   0  0  0  0  0  0  0  0  0  0  0  0
  145.9945  131.8767  151.4204 H   0  0  0  0  0  0  0  0  0  0  0  0
  143.8254  133.4815  151.9786 H   0  0  0  0  0  0  0  0  0  0  0  0
  143.1337  134.2186  150.5241 H   0  0  0  0  0  0  0  0  0  0  0  0
  148.3615  137.7232  152.3345 H   0  0  0  0  0  0  0  0  0  0  0  0
  146.5234  140.5780  153.2138 H   0  0  0  0  0  0  0  0  0  0  0  0
  147.4834  142.6090  154.3178 H   0  0  0  0  0  0  0  0  0  0  0  0
  149.8005  142.4784  155.2668 H   0  0  0  0  0  0  0  0  0  0  0  0
  150.2606  138.5635  154.0935 H   0  0  0  0  0  0  0  0  0  0  0  0
  1  2  2  0  0  0  0
  2  3  1  0  0  0  0
  2 10  1  0  0  0  0
  3  4  1  0  0  0  0
  3 17  1  0  0  0  0
  4  5  1  0  0  0  0
  4 18  1  0  0  0  0
  4 19  1  0  0  0  0
  5  9  1  0  0  0  0
  5  6  1  0  0  0  0
  5 20  1  0  0  0  0
  6  7  1  0  0  0  0
  6 21  1  0  0  0  0
  6 22  1  0  0  0  0
  7  8  1  0  0  0  0
  7 23  1  0  0  0  0
  7 24  1  0  0  0  0
  8  9  1  0  0  0  0
  9 25  1  0  0  0  0
  9 26  1  0  0  0  0
 10 11  1  0  0  0  0
 10 27  1  0  0  0  0
 11 16  1  0  0  0  0
 11 12  2  0  0  0  0
 12 13  1  0  0  0  0
 12 28  1  0  0  0  0
 13 14  2  0  0  0  0
 13 29  1  0  0  0  0
 14 15  1  0  0  0  0
 14 30  1  0  0  0  0
 15 16  2  0  0  0  0
 16 31  1  0  0  0  0
M  END
> <s_m_source_file>
AV-unprocessed.smi

> <i_m_source_file_index>
1450

> <i_lp_mmshare_version>
43012

> <i_f3d_flags>
0

> <s_epik_input>
W2NIXTFuW2NIXVtjSF1bY0hdYzFbTkhdQyg9TylbTkhdW0NIMl1bQ0BASF0yW0NIMl1bQ0gyXU9bQ0gyXTI=

> <s_epik_cmdline>
J2VwaWtfcHl0aG9uJywgJy1waCcsICc3LjAnLCAnLXRuJywgJzgnLCAnLW1hJywgJzIwMCcsICctbWV0YWxfYmluZGluZycsICctaW1hZScsICc8aW5maWxlLm1hZT4nLCAnLW9tYWUnLCAnPG91dGZpbGUubWFlPic=

> <r_epik_Ionization_Penalty>
0.00478342

> <r_epik_Ionization_Penalty_Charging>
0

> <r_epik_Ionization_Penalty_Neutral>
0.00478342

> <r_epik_State_Penalty>
0.0034384

> <r_epik_Charging_Adjusted_Penalty>
0.0034384

> <i_epik_Tot_Q>
0

> <i_epik_Tot_abs_Q>
0

> <r_epik_Metal_State_Penalty>
-0

> <b_epik_Metal_Only>
0

> <s_lp_Force_Field>
OPLS_2005

> <r_lp_Energy>
21.9504

> <b_lp_Chiralities_Consistent>
1

> <s_lp_Variant>
AV-unprocessed.smi:1450-2

> <Gold.Version>
5.8.1

> <Gold.Id.Protein>
6NUR|6NUR_protein|mol2

> <Gold.PLP.Fitness>
38.1949

> <Gold.PLP.PLP>
-27.5296

> <Gold.PLP.part.hbond>
-3.6735

> <Gold.PLP.part.metal>
0.0000

> <Gold.PLP.part.buried>
0.0592

> <Gold.PLP.part.nonpolar>
-25.2320

> <Gold.PLP.part.repulsive>
1.2993

> <Gold.PLP.ligand.clash>
0.0000

> <Gold.PLP.ligand.torsion>
0.4293

> <Gold.PLP.Chemscore.Hbond>
2.8400

> <Gold.PLP.Chemscore.CHOScore>
1.0000

> <Gold.PLP.Chemscore.Metal>
0.0000

> <Gold.Chemscore.Hbonds>
donor molecule, donor type, donor heavy atom, donor atom, acceptor molecule, acceptor atom, score
      L1  H     3    17       P1  7948  0.90
      L1  H    10    27       P1  7948  0.99
      P1  H  7989  7998       L1    15  0.93
      L1  C    14    30       P1  8028  1.00

> <Gold.PLP.Chemscore.Internal.Correction>
0.0039

> <Gold.Rescore>
     Score         DG    S(hbond)    S(metal)    S(lipo)     H(rot)  DE(clash)    DE(int)     intcor
     14.78     -16.50       1.96        0.00      65.46       1.24       0.21       1.51       ----

> <Gold.Chemscore.Fitness>
14.7844

> <Gold.Chemscore.DG>
-16.5024

> <Gold.Chemscore.ZeroCoef>
-5.4800

> <Gold.Chemscore.Hbond>
1.9568

> <Gold.Chemscore.Metal>
0.0000

> <Gold.Chemscore.Lipo>
65.4562

> <Gold.Chemscore.Internal_Hbond>
0.0000

> <Gold.Chemscore.DEClash>
0.2111

> <Gold.Chemscore.DEInternal>
1.5070

> <Gold.Chemscore.Rot>
1.2390

> <Gold.Chemscore.Internal.Correction>
   9.000000E+99

> <Gold.Chemscore.Hbonds>
donor molecule, donor type, donor heavy atom, donor atom, acceptor molecule, acceptor atom, score
      L1  H     3    17       P1  7948  0.88
      L1  H    10    27       P1  7948  0.93
      P1  H  7989  7998       L1    15  0.14

> <Gold.Chemscore.Hbond.Weighted>
-6.5358

> <Gold.Chemscore.Metal.Weighted>
-0.0000

> <Gold.Chemscore.Lipo.Weighted>
-7.6584

> <Gold.Chemscore.Internal_Hbond.Weighted>
0.0000

> <Gold.Chemscore.DEClash.Weighted>
0.2111

> <Gold.Chemscore.DEInternal.Weighted>
1.5070

> <Gold.Chemscore.Rot.Weighted>
3.1718

> <Gold.Chemscore.Internal.Correction.Weighted>
   9.000000E+99

> <Gold.Protein.RotatedTorsions>
[ 6907 6896 6895 6894 ] final   70.01 input  -60.11 | X-H torsion
[ 7974 7965 7964 7962 ] final    2.94 input  175.53 | X-H torsion
[ 8008 7997 7996 7995 ] final -144.67 input   59.86 | X-H torsion
[ 10167 10162 10161 10158 ] final   14.20 input  -65.29 | X-H torsion
[ 10718 10713 10712 10709 ] final  -58.06 input   66.30 | X-H torsion
[ 10763 10752 10751 10750 ] final -104.42 input  -60.55 | X-H torsion
[ 11005 11000 10999 10996 ] final  -82.85 input  -57.11 | X-H torsion

> <Gold.Protein.ActiveResidues>
 VAL166  LYS551  ARG553  GLY616  TRP617  ASP618  TYR619  PRO620  LYS621  CYS622 
 ASP623  PHE694  ASN695  SER759  ASP760  ASP761  ALA762  ILE779  LEU786  VAL792 
 PHE793  MET794  SER795  GLU796  ALA797  LYS798  CYS799  TRP800  GLU811  SER814 

> <Gold.Protein.RotatedAtoms>
  152.4722  134.4931  159.9701 H   0  0  0  0  0  0  0  0  0  0  0  0  # atno 6907 bound_to 6896
  151.4955  133.3509  159.2868 H   0  0  0  0  0  0  0  0  0  0  0  0  # atno 6908 bound_to 6896
  150.8739  134.8146  159.7237 H   0  0  0  0  0  0  0  0  0  0  0  0  # atno 6909 bound_to 6896
  146.2444  140.0761  142.8359 H   0  0  0  0  0  0  0  0  0  0  0  0  # atno 7974 bound_to 7965
  155.5306  140.0599  157.2889 H   0  0  0  0  0  0  0  0  0  0  0  0  # atno 8008 bound_to 7997
  154.4485  140.1936  156.0536 H   0  0  0  0  0  0  0  0  0  0  0  0  # atno 8009 bound_to 7997
  156.0654  140.3267  155.7516 H   0  0  0  0  0  0  0  0  0  0  0  0  # atno 8010 bound_to 7997
  140.5952  143.8716  150.6911 H   0  0  0  0  0  0  0  0  0  0  0  0  # atno 10167 bound_to 10162
  156.1164  130.4170  150.0525 H   0  0  0  0  0  0  0  0  0  0  0  0  # atno 10718 bound_to 10713
  154.7877  135.4787  153.9982 H   0  0  0  0  0  0  0  0  0  0  0  0  # atno 10763 bound_to 10752
  153.1584  135.6804  153.8786 H   0  0  0  0  0  0  0  0  0  0  0  0  # atno 10764 bound_to 10752
  153.8407  135.3179  155.3404 H   0  0  0  0  0  0  0  0  0  0  0  0  # atno 10765 bound_to 10752
  141.1661  133.7265  156.8632 H   0  0  0  0  0  0  0  0  0  0  0  0  # atno 11005 bound_to 11000
  145.0774  140.9197  143.4846 LP  0  0  0  0  0  0  0  0  0  0  0  0  # atno 17320 bound_to 7965
  145.0907  139.2892  143.5736 LP  0  0  0  0  0  0  0  0  0  0  0  0  # atno 17321 bound_to 7965
  140.2249  143.3780  152.1613 LP  0  0  0  0  0  0  0  0  0  0  0  0  # atno 17342 bound_to 10162
  139.5253  144.7094  151.5252 LP  0  0  0  0  0  0  0  0  0  0  0  0  # atno 17343 bound_to 10162
  156.8475  130.9447  151.3628 LP  0  0  0  0  0  0  0  0  0  0  0  0  # atno 17370 bound_to 10713
  157.6347  130.8757  149.9337 LP  0  0  0  0  0  0  0  0  0  0  0  0  # atno 17371 bound_to 10713
  140.1833  134.9017  157.2975 LP  0  0  0  0  0  0  0  0  0  0  0  0  # atno 17394 bound_to 11000
  140.2370  134.3840  155.7497 LP  0  0  0  0  0  0  0  0  0  0  0  0  # atno 17395 bound_to 11000

$$$$
