AV-unprocessed.smi:1826|AV-procd|sdf|7415|dock5
  -GOLD-   22720 9 93D 1   1.00000     0.00000
 Structure written by MMmdl.
 39 41  0  0  0  0  0  0  0  0  1 V2000
  151.8823  136.8703  155.7430 O   0  0  0  0  0  0  0  0  0  0  0  0
  152.3021  138.0631  155.1162 C   0  0  0  0  0  0  0  0  0  0  0  0
  152.1073  139.2695  155.9839 C   0  0  0  0  0  0  0  0  0  0  0  0
  152.7549  139.4061  157.1416 N   0  0  0  0  0  0  0  0  0  0  0  0
  152.2545  140.5949  157.6328 C   0  0  0  0  0  0  0  0  0  0  0  0
  152.5421  141.2852  158.8321 C   0  0  0  0  0  0  0  0  0  0  0  0
  151.8883  142.4980  159.1327 C   0  0  0  0  0  0  0  0  0  0  0  0
  150.9358  143.0340  158.2426 C   0  0  0  0  0  0  0  0  0  0  0  0
  150.6341  142.3611  157.0435 C   0  0  0  0  0  0  0  0  0  0  0  0
  151.2978  141.1564  156.7409 C   0  0  0  0  0  0  0  0  0  0  0  0
  151.2512  140.2744  155.6631 N   0  0  0  0  0  0  0  0  0  0  0  0
  150.4223  140.4158  154.4688 C   0  0  0  0  0  0  0  0  0  0  0  0
  149.0106  139.7932  154.5973 C   0  0  2  0  0  0  0  0  0  0  0  0
  148.7762  138.8690  153.5531 O   0  0  0  0  0  0  0  0  0  0  0  0
  147.9090  140.8394  154.7191 C   0  0  0  0  0  0  0  0  0  0  0  0
  147.6557  141.7613  153.6785 C   0  0  0  0  0  0  0  0  0  0  0  0
  146.6531  142.7394  153.8219 C   0  0  0  0  0  0  0  0  0  0  0  0
  145.8903  142.8107  155.0075 C   0  0  0  0  0  0  0  0  0  0  0  0
  144.8048  143.8640  155.1723 C   0  0  0  0  0  0  0  0  0  0  0  0
  143.6357  143.2607  155.3835 F   0  0  0  0  0  0  0  0  0  0  0  0
  145.0757  144.6523  156.2132 F   0  0  0  0  0  0  0  0  0  0  0  0
  144.7017  144.6299  154.0854 F   0  0  0  0  0  0  0  0  0  0  0  0
  146.1350  141.8818  156.0412 C   0  0  0  0  0  0  0  0  0  0  0  0
  147.1379  140.9038  155.8985 C   0  0  0  0  0  0  0  0  0  0  0  0
  152.1759  136.8842  156.6410 H   0  0  0  0  0  0  0  0  0  0  0  0
  153.3589  137.9691  154.8640 H   0  0  0  0  0  0  0  0  0  0  0  0
  151.7689  138.1811  154.1751 H   0  0  0  0  0  0  0  0  0  0  0  0
  153.2661  140.8796  159.5229 H   0  0  0  0  0  0  0  0  0  0  0  0
  152.1167  143.0178  160.0517 H   0  0  0  0  0  0  0  0  0  0  0  0
  150.4372  143.9625  158.4799 H   0  0  0  0  0  0  0  0  0  0  0  0
  149.9055  142.7717  156.3610 H   0  0  0  0  0  0  0  0  0  0  0  0
  150.3382  141.4741  154.2221 H   0  0  0  0  0  0  0  0  0  0  0  0
  150.9517  139.9625  153.6300 H   0  0  0  0  0  0  0  0  0  0  0  0
  148.9935  139.2069  155.5169 H   0  0  0  0  0  0  0  0  0  0  0  0
  149.1435  139.2197  152.7561 H   0  0  0  0  0  0  0  0  0  0  0  0
  148.2399  141.7361  152.7702 H   0  0  0  0  0  0  0  0  0  0  0  0
  146.4778  143.4369  153.0163 H   0  0  0  0  0  0  0  0  0  0  0  0
  145.5542  141.9186  156.9512 H   0  0  0  0  0  0  0  0  0  0  0  0
  147.3200  140.2073  156.7038 H   0  0  0  0  0  0  0  0  0  0  0  0
  1  2  1  0  0  0  0
  1 25  1  0  0  0  0
  2  3  1  0  0  0  0
  2 26  1  0  0  0  0
  2 27  1  0  0  0  0
  3 11  1  0  0  0  0
  3  4  2  0  0  0  0
  4  5  1  0  0  0  0
  5 10  2  0  0  0  0
  5  6  1  0  0  0  0
  6  7  2  0  0  0  0
  6 28  1  0  0  0  0
  7  8  1  0  0  0  0
  7 29  1  0  0  0  0
  8  9  2  0  0  0  0
  8 30  1  0  0  0  0
  9 10  1  0  0  0  0
  9 31  1  0  0  0  0
 10 11  1  0  0  0  0
 11 12  1  0  0  0  0
 12 13  1  0  0  0  0
 12 32  1  0  0  0  0
 12 33  1  0  0  0  0
 13 14  1  0  0  0  0
 13 15  1  0  0  0  0
 13 34  1  0  0  0  0
 14 35  1  0  0  0  0
 15 24  1  0  0  0  0
 15 16  2  0  0  0  0
 16 17  1  0  0  0  0
 16 36  1  0  0  0  0
 17 18  2  0  0  0  0
 17 37  1  0  0  0  0
 18 19  1  0  0  0  0
 18 23  1  0  0  0  0
 19 20  1  0  0  0  0
 19 21  1  0  0  0  0
 19 22  1  0  0  0  0
 23 24  2  0  0  0  0
 23 38  1  0  0  0  0
 24 39  1  0  0  0  0
M  END
> <s_m_source_file>
AV-unprocessed.smi

> <i_m_source_file_index>
1826

> <i_lp_mmshare_version>
43012

> <i_f3d_flags>
0

> <s_epik_input>
W2NIXTFbY0hdW2NIXVtjSF1jKGMxMiluKGMobjIpW0NIMl1bT0hdKVtDSDJdW0NASF0oW09IXSljM1tjSF1bY0hdYyhDKEYpKEYpRilbY0hdW2NIXTM=

> <s_epik_cmdline>
J2VwaWtfcHl0aG9uJywgJy1waCcsICc3LjAnLCAnLXRuJywgJzgnLCAnLW1hJywgJzIwMCcsICctbWV0YWxfYmluZGluZycsICctaW1hZScsICc8aW5maWxlLm1hZT4nLCAnLW9tYWUnLCAnPG91dGZpbGUubWFlPic=

> <r_epik_Ionization_Penalty>
0.0634718

> <r_epik_Ionization_Penalty_Charging>
0

> <r_epik_Ionization_Penalty_Neutral>
0.0634718

> <r_epik_State_Penalty>
0.0551572

> <r_epik_Charging_Adjusted_Penalty>
0.0551572

> <i_epik_Tot_Q>
0

> <i_epik_Tot_abs_Q>
0

> <r_epik_Metal_State_Penalty>
5.78034e-05

> <b_epik_Metal_Only>
0

> <s_lp_Force_Field>
OPLS_2005

> <r_lp_Energy>
13.2523

> <b_lp_Chiralities_Consistent>
1

> <s_lp_Variant>
AV-unprocessed.smi:1826-1

> <Gold.Version>
5.8.1

> <Gold.Id.Protein>
6NUR|6NUR_protein|mol2

> <Gold.PLP.Fitness>
51.2275

> <Gold.PLP.PLP>
-44.3489

> <Gold.PLP.part.hbond>
-3.7062

> <Gold.PLP.part.metal>
0.0000

> <Gold.PLP.part.buried>
-2.6362

> <Gold.PLP.part.nonpolar>
-37.6836

> <Gold.PLP.part.repulsive>
0.0000

> <Gold.PLP.ligand.clash>
0.7370

> <Gold.PLP.ligand.torsion>
1.1175

> <Gold.PLP.Chemscore.Hbond>
3.0000

> <Gold.PLP.Chemscore.CHOScore>
0.0000

> <Gold.PLP.Chemscore.Metal>
0.0000

> <Gold.Chemscore.Hbonds>
donor molecule, donor type, donor heavy atom, donor atom, acceptor molecule, acceptor atom, score
      L1  H    14    35       P1  7957  1.00
      P1  H  7997  8010       L1     4  0.75
      P1  H 10752 10764       L1     1  1.00

> <Gold.PLP.Chemscore.Internal.Correction>
0.8506

> <Gold.Rescore>
     Score         DG    S(hbond)    S(metal)    S(lipo)     H(rot)  DE(clash)    DE(int)     intcor
     13.70     -16.87       2.14        0.00     100.11       2.91       1.66       1.51       ----

> <Gold.Chemscore.Fitness>
13.7011

> <Gold.Chemscore.DG>
-16.8750

> <Gold.Chemscore.ZeroCoef>
-5.4800

> <Gold.Chemscore.Hbond>
2.1383

> <Gold.Chemscore.Metal>
0.0000

> <Gold.Chemscore.Lipo>
100.1117

> <Gold.Chemscore.Internal_Hbond>
0.0000

> <Gold.Chemscore.DEClash>
1.6611

> <Gold.Chemscore.DEInternal>
1.5127

> <Gold.Chemscore.Rot>
2.9141

> <Gold.Chemscore.Internal.Correction>
   9.000000E+99

> <Gold.Chemscore.Hbonds>
donor molecule, donor type, donor heavy atom, donor atom, acceptor molecule, acceptor atom, score
      L1  H    14    35       P1  7957  1.00
      P1  H  7997  8010       L1     4  0.07
      P1  H 10752 10764       L1     1  0.15

> <Gold.Chemscore.Hbond.Weighted>
-7.1419

> <Gold.Chemscore.Metal.Weighted>
-0.0000

> <Gold.Chemscore.Lipo.Weighted>
-11.7131

> <Gold.Chemscore.Internal_Hbond.Weighted>
0.0000

> <Gold.Chemscore.DEClash.Weighted>
1.6611

> <Gold.Chemscore.DEInternal.Weighted>
1.5127

> <Gold.Chemscore.Rot.Weighted>
7.4600

> <Gold.Chemscore.Internal.Correction.Weighted>
   9.000000E+99

> <Gold.Protein.RotatedTorsions>
[ 6907 6896 6895 6894 ] final -122.58 input  -60.11 | X-H torsion
[ 7974 7965 7964 7962 ] final -148.09 input  175.53 | X-H torsion
[ 8008 7997 7996 7995 ] final   45.29 input   59.86 | X-H torsion
[ 10167 10162 10161 10158 ] final  141.71 input  -65.29 | X-H torsion
[ 10718 10713 10712 10709 ] final   27.61 input   66.30 | X-H torsion
[ 10763 10752 10751 10750 ] final  -47.71 input  -60.55 | X-H torsion
[ 11005 11000 10999 10996 ] final  -50.06 input  -57.11 | X-H torsion

> <Gold.Protein.ActiveResidues>
 VAL166  LYS551  ARG553  GLY616  TRP617  ASP618  TYR619  PRO620  LYS621  CYS622 
 ASP623  PHE694  ASN695  SER759  ASP760  ASP761  ALA762  ILE779  LEU786  VAL792 
 PHE793  MET794  SER795  GLU796  ALA797  LYS798  CYS799  TRP800  GLU811  SER814 

> <Gold.Protein.RotatedAtoms>
  150.8590  133.7672  159.2998 H   0  0  0  0  0  0  0  0  0  0  0  0  # atno 6907 bound_to 6896
  151.5321  135.1067  159.9915 H   0  0  0  0  0  0  0  0  0  0  0  0  # atno 6908 bound_to 6896
  152.4611  133.7781  159.6891 H   0  0  0  0  0  0  0  0  0  0  0  0  # atno 6909 bound_to 6896
  144.8051  140.5241  143.5680 H   0  0  0  0  0  0  0  0  0  0  0  0  # atno 7974 bound_to 7965
  155.3335  140.3404  155.4239 H   0  0  0  0  0  0  0  0  0  0  0  0  # atno 8008 bound_to 7997
  156.1849  140.1677  156.8240 H   0  0  0  0  0  0  0  0  0  0  0  0  # atno 8009 bound_to 7997
  154.5375  140.0732  156.8437 H   0  0  0  0  0  0  0  0  0  0  0  0  # atno 8010 bound_to 7997
  139.5013  144.6154  151.6175 H   0  0  0  0  0  0  0  0  0  0  0  0  # atno 10167 bound_to 10162
  157.2225  130.6985  149.6276 H   0  0  0  0  0  0  0  0  0  0  0  0  # atno 10718 bound_to 10713
  154.0658  135.6611  153.4818 H   0  0  0  0  0  0  0  0  0  0  0  0  # atno 10763 bound_to 10752
  153.0409  135.5145  154.7614 H   0  0  0  0  0  0  0  0  0  0  0  0  # atno 10764 bound_to 10752
  154.6665  135.3023  154.9766 H   0  0  0  0  0  0  0  0  0  0  0  0  # atno 10765 bound_to 10752
  141.0795  133.6657  156.3676 H   0  0  0  0  0  0  0  0  0  0  0  0  # atno 11005 bound_to 11000
  145.5458  139.1476  143.3422 LP  0  0  0  0  0  0  0  0  0  0  0  0  # atno 17320 bound_to 7965
  146.2341  140.5597  142.8962 LP  0  0  0  0  0  0  0  0  0  0  0  0  # atno 17321 bound_to 7965
  140.5841  143.9895  150.6285 LP  0  0  0  0  0  0  0  0  0  0  0  0  # atno 17342 bound_to 10162
  140.3054  143.3233  152.0931 LP  0  0  0  0  0  0  0  0  0  0  0  0  # atno 17343 bound_to 10162
  155.9681  130.4515  150.5738 LP  0  0  0  0  0  0  0  0  0  0  0  0  # atno 17370 bound_to 10713
  157.3561  131.0742  151.1674 LP  0  0  0  0  0  0  0  0  0  0  0  0  # atno 17371 bound_to 10713
  140.5500  134.6036  157.5405 LP  0  0  0  0  0  0  0  0  0  0  0  0  # atno 17394 bound_to 11000
  139.9608  134.7456  156.0242 LP  0  0  0  0  0  0  0  0  0  0  0  0  # atno 17395 bound_to 11000

$$$$
