AV-unprocessed.smi:1472|AV-procd|sdf|5965|dock3
  -GOLD-   22720 6 53D 1   1.00000     0.00000
 Structure written by MMmdl.
 42 43  0  0  0  0  0  0  0  0  2 V2000
  151.0799  138.4908  158.3536 C   0  0  0  0  0  0  0  0  0  0  0  0
  152.6075  138.7200  157.3549 S   0  0  0  0  0  0  0  0  0  0  0  0
  153.4544  139.7137  158.0321 O   0  0  0  0  0  0  0  0  0  0  0  0
  153.1529  137.3903  157.0414 O   0  0  0  0  0  0  0  0  0  0  0  0
  152.0413  139.4255  155.8680 N   0  0  0  0  0  0  0  0  0  0  0  0
  151.7778  138.5644  154.6986 C   0  0  0  0  0  0  0  0  0  0  0  0
  150.2733  138.2928  154.5187 C   0  0  0  0  0  0  0  0  0  0  0  0
  149.4635  139.6014  154.4577 C   0  0  0  0  0  0  0  0  0  0  0  0
  147.9473  139.3615  154.2911 C   0  0  0  0  0  0  0  0  0  0  0  0
  147.6484  138.1910  153.4709 N   0  0  0  0  0  0  0  0  0  0  0  0
  146.4359  137.6344  153.3381 C   0  0  0  0  0  0  0  0  0  0  0  0
  145.4330  138.0483  153.9191 O   0  0  0  0  0  0  0  0  0  0  0  0
  146.4724  136.5735  152.5128 N   0  0  0  0  0  0  0  0  0  0  0  0
  145.3968  135.7516  152.0778 C   0  0  0  0  0  0  0  0  0  0  0  0
  144.1886  135.8146  152.8074 C   0  0  0  0  0  0  0  0  0  0  0  0
  143.1010  135.0028  152.4248 C   0  0  0  0  0  0  0  0  0  0  0  0
  143.2237  134.1665  151.3720 N   0  3  0  0  0  0  0  0  0  0  0  0
  144.3616  134.0611  150.6526 C   0  0  0  0  0  0  0  0  0  0  0  0
  145.4828  134.8472  150.9883 C   0  0  0  0  0  0  0  0  0  0  0  0
  149.7588  140.4227  155.7229 C   0  0  0  0  0  0  0  0  0  0  0  0
  151.2658  140.6814  155.8931 C   0  0  0  0  0  0  0  0  0  0  0  0
  151.3470  138.0567  159.3167 H   0  0  0  0  0  0  0  0  0  0  0  0
  150.3991  137.8145  157.8399 H   0  0  0  0  0  0  0  0  0  0  0  0
  150.5968  139.4516  158.5203 H   0  0  0  0  0  0  0  0  0  0  0  0
  152.1667  139.0635  153.8103 H   0  0  0  0  0  0  0  0  0  0  0  0
  152.3253  137.6264  154.7875 H   0  0  0  0  0  0  0  0  0  0  0  0
  150.1277  137.7150  153.6057 H   0  0  0  0  0  0  0  0  0  0  0  0
  149.9052  137.6696  155.3327 H   0  0  0  0  0  0  0  0  0  0  0  0
  149.8138  140.1778  153.6000 H   0  0  0  0  0  0  0  0  0  0  0  0
  147.4842  139.2159  155.2674 H   0  0  0  0  0  0  0  0  0  0  0  0
  147.4705  140.2414  153.8555 H   0  0  0  0  0  0  0  0  0  0  0  0
  148.4208  137.7828  152.9652 H   0  0  0  0  0  0  0  0  0  0  0  0
  147.3874  136.2984  152.1864 H   0  0  0  0  0  0  0  0  0  0  0  0
  144.0897  136.4818  153.6516 H   0  0  0  0  0  0  0  0  0  0  0  0
  142.1449  134.9960  152.9273 H   0  0  0  0  0  0  0  0  0  0  0  0
  144.3446  133.3505  149.8391 H   0  0  0  0  0  0  0  0  0  0  0  0
  146.3881  134.7304  150.4124 H   0  0  0  0  0  0  0  0  0  0  0  0
  149.2347  141.3779  155.6744 H   0  0  0  0  0  0  0  0  0  0  0  0
  149.3668  139.9079  156.5993 H   0  0  0  0  0  0  0  0  0  0  0  0
  151.4557  141.2276  156.8167 H   0  0  0  0  0  0  0  0  0  0  0  0
  151.6196  141.3190  155.0821 H   0  0  0  0  0  0  0  0  0  0  0  0
  142.4255  133.5863  151.1124 H   0  0  0  0  0  0  0  0  0  0  0  0
  1  2  1  0  0  0  0
  1 22  1  0  0  0  0
  1 23  1  0  0  0  0
  1 24  1  0  0  0  0
  2  3  2  0  0  0  0
  2  4  2  0  0  0  0
  2  5  1  0  0  0  0
  5 21  1  0  0  0  0
  5  6  1  0  0  0  0
  6  7  1  0  0  0  0
  6 25  1  0  0  0  0
  6 26  1  0  0  0  0
  7  8  1  0  0  0  0
  7 27  1  0  0  0  0
  7 28  1  0  0  0  0
  8  9  1  0  0  0  0
  8 20  1  0  0  0  0
  8 29  1  0  0  0  0
  9 10  1  0  0  0  0
  9 30  1  0  0  0  0
  9 31  1  0  0  0  0
 10 11  1  0  0  0  0
 10 32  1  0  0  0  0
 11 12  2  0  0  0  0
 11 13  1  0  0  0  0
 13 14  1  0  0  0  0
 13 33  1  0  0  0  0
 14 19  1  0  0  0  0
 14 15  2  0  0  0  0
 15 16  1  0  0  0  0
 15 34  1  0  0  0  0
 16 17  2  0  0  0  0
 16 35  1  0  0  0  0
 17 18  1  0  0  0  0
 17 42  1  0  0  0  0
 18 19  2  0  0  0  0
 18 36  1  0  0  0  0
 19 37  1  0  0  0  0
 20 21  1  0  0  0  0
 20 38  1  0  0  0  0
 20 39  1  0  0  0  0
 21 40  1  0  0  0  0
 21 41  1  0  0  0  0
M  CHG  1  17   1
M  END
> <s_m_source_file>
AV-unprocessed.smi

> <i_m_source_file_index>
1472

> <i_lp_mmshare_version>
43012

> <i_f3d_flags>
0

> <s_epik_input>
W0NIM11TKD1PKSg9TylOMVtDSDJdW0NIMl1bQ0hdKFtDSDJdW0NIMl0xKVtDSDJdW05IXUMoPU8pW05IXWMyW2NIXVtjSF1uW2NIXVtjSF0y

> <s_epik_cmdline>
J2VwaWtfcHl0aG9uJywgJy1waCcsICc3LjAnLCAnLXRuJywgJzgnLCAnLW1hJywgJzIwMCcsICctbWV0YWxfYmluZGluZycsICctaW1hZScsICc8aW5maWxlLm1hZT4nLCAnLW9tYWUnLCAnPG91dGZpbGUubWFlPic=

> <r_epik_Ionization_Penalty>
1.02593

> <r_epik_Ionization_Penalty_Charging>
1.02591

> <r_epik_Ionization_Penalty_Neutral>
2.05222e-05

> <r_epik_State_Penalty>
1.07662

> <r_epik_Charging_Adjusted_Penalty>
2.10252

> <i_epik_Tot_Q>
1

> <i_epik_Tot_abs_Q>
1

> <r_epik_Metal_State_Penalty>
1.17465

> <b_epik_Metal_Only>
0

> <s_lp_Force_Field>
OPLS_2005

> <r_lp_Energy>
12.5629

> <b_lp_Chiralities_Consistent>
1

> <s_lp_Variant>
AV-unprocessed.smi:1472-2

> <Gold.Version>
5.8.1

> <Gold.Id.Protein>
6NUR|6NUR_protein|mol2

> <Gold.PLP.Fitness>
44.7065

> <Gold.PLP.PLP>
-34.0644

> <Gold.PLP.part.hbond>
-4.0000

> <Gold.PLP.part.metal>
0.0000

> <Gold.PLP.part.buried>
-3.9812

> <Gold.PLP.part.nonpolar>
-27.1045

> <Gold.PLP.part.repulsive>
0.2201

> <Gold.PLP.ligand.clash>
0.0000

> <Gold.PLP.ligand.torsion>
1.4253

> <Gold.PLP.Chemscore.Hbond>
3.8080

> <Gold.PLP.Chemscore.CHOScore>
0.0000

> <Gold.PLP.Chemscore.Metal>
0.0000

> <Gold.Chemscore.Hbonds>
donor molecule, donor type, donor heavy atom, donor atom, acceptor molecule, acceptor atom, score
      L1  H    10    32       P1  7948  0.90
      L1  H    13    33       P1  7948  1.00
      L1  H    17    42       P1 10186  0.30
      P1  H  7997  8009       L1     3  1.00

> <Gold.PLP.Chemscore.Internal.Correction>
2.0688

> <Gold.Rescore>
     Score         DG    S(hbond)    S(metal)    S(lipo)     H(rot)  DE(clash)    DE(int)     intcor
     20.05     -22.91       3.79        0.00      69.25       1.30       0.08       2.78       ----

> <Gold.Chemscore.Fitness>
20.0497

> <Gold.Chemscore.DG>
-22.9080

> <Gold.Chemscore.ZeroCoef>
-5.4800

> <Gold.Chemscore.Hbond>
3.7908

> <Gold.Chemscore.Metal>
0.0000

> <Gold.Chemscore.Lipo>
69.2535

> <Gold.Chemscore.Internal_Hbond>
0.0000

> <Gold.Chemscore.DEClash>
0.0761

> <Gold.Chemscore.DEInternal>
2.7822

> <Gold.Chemscore.Rot>
1.3031

> <Gold.Chemscore.Internal.Correction>
   9.000000E+99

> <Gold.Chemscore.Hbonds>
donor molecule, donor type, donor heavy atom, donor atom, acceptor molecule, acceptor atom, score
      L1  H    10    32       P1  7948  0.87
      L1  H    13    33       P1  7948  0.98
      L1  H    17    42       P1 10186  0.10
      P1  H  7997  8009       L1     3  0.33

> <Gold.Chemscore.Hbond.Weighted>
-12.6612

> <Gold.Chemscore.Metal.Weighted>
-0.0000

> <Gold.Chemscore.Lipo.Weighted>
-8.1027

> <Gold.Chemscore.Internal_Hbond.Weighted>
0.0000

> <Gold.Chemscore.DEClash.Weighted>
0.0761

> <Gold.Chemscore.DEInternal.Weighted>
2.7822

> <Gold.Chemscore.Rot.Weighted>
3.3359

> <Gold.Chemscore.Internal.Correction.Weighted>
   9.000000E+99

> <Gold.Protein.RotatedTorsions>
[ 6907 6896 6895 6894 ] final -113.07 input  -60.11 | X-H torsion
[ 7974 7965 7964 7962 ] final -129.64 input  175.53 | X-H torsion
[ 8008 7997 7996 7995 ] final  162.34 input   59.86 | X-H torsion
[ 10167 10162 10161 10158 ] final  -98.77 input  -65.29 | X-H torsion
[ 10718 10713 10712 10709 ] final  -20.00 input   66.30 | X-H torsion
[ 10763 10752 10751 10750 ] final   96.40 input  -60.55 | X-H torsion
[ 11005 11000 10999 10996 ] final  136.62 input  -57.11 | X-H torsion

> <Gold.Protein.ActiveResidues>
 VAL166  LYS551  ARG553  GLY616  TRP617  ASP618  TYR619  PRO620  LYS621  CYS622 
 ASP623  PHE694  ASN695  SER759  ASP760  ASP761  ALA762  ILE779  LEU786  VAL792 
 PHE793  MET794  SER795  GLU796  ALA797  LYS798  CYS799  TRP800  GLU811  SER814 

> <Gold.Protein.RotatedAtoms>
  150.7803  133.8998  159.3337 H   0  0  0  0  0  0  0  0  0  0  0  0  # atno 6907 bound_to 6896
  151.6863  135.0952  160.0235 H   0  0  0  0  0  0  0  0  0  0  0  0  # atno 6908 bound_to 6896
  152.3852  133.6562  159.6228 H   0  0  0  0  0  0  0  0  0  0  0  0  # atno 6909 bound_to 6896
  144.9553  140.7388  143.4763 H   0  0  0  0  0  0  0  0  0  0  0  0  # atno 7974 bound_to 7965
  156.2038  140.1753  156.7843 H   0  0  0  0  0  0  0  0  0  0  0  0  # atno 8008 bound_to 7997
  154.5627  140.0696  156.8875 H   0  0  0  0  0  0  0  0  0  0  0  0  # atno 8009 bound_to 7997
  155.2817  140.3349  155.4260 H   0  0  0  0  0  0  0  0  0  0  0  0  # atno 8010 bound_to 7997
  140.2695  143.3353  152.0548 H   0  0  0  0  0  0  0  0  0  0  0  0  # atno 10167 bound_to 10162
  156.5379  130.4671  149.6513 H   0  0  0  0  0  0  0  0  0  0  0  0  # atno 10718 bound_to 10713
  153.2645  135.4220  155.0926 H   0  0  0  0  0  0  0  0  0  0  0  0  # atno 10763 bound_to 10752
  154.8433  135.3457  154.6331 H   0  0  0  0  0  0  0  0  0  0  0  0  # atno 10764 bound_to 10752
  153.6751  135.7041  153.5192 H   0  0  0  0  0  0  0  0  0  0  0  0  # atno 10765 bound_to 10752
  140.0058  134.9460  157.0172 H   0  0  0  0  0  0  0  0  0  0  0  0  # atno 11005 bound_to 11000
  145.2782  139.1928  143.4805 LP  0  0  0  0  0  0  0  0  0  0  0  0  # atno 17320 bound_to 7965
  146.3335  140.2740  142.8607 LP  0  0  0  0  0  0  0  0  0  0  0  0  # atno 17321 bound_to 7965
  139.4993  144.6666  151.6343 LP  0  0  0  0  0  0  0  0  0  0  0  0  # atno 17342 bound_to 10162
  140.5901  143.9795  150.6319 LP  0  0  0  0  0  0  0  0  0  0  0  0  # atno 17343 bound_to 10162
  156.2999  130.7171  151.2040 LP  0  0  0  0  0  0  0  0  0  0  0  0  # atno 17370 bound_to 10713
  157.7410  131.0509  150.5124 LP  0  0  0  0  0  0  0  0  0  0  0  0  # atno 17371 bound_to 10713
  140.4643  134.1451  155.7195 LP  0  0  0  0  0  0  0  0  0  0  0  0  # atno 17394 bound_to 11000
  141.1676  133.8673  157.1669 LP  0  0  0  0  0  0  0  0  0  0  0  0  # atno 17395 bound_to 11000

$$$$
