AV-unprocessed.smi:1971|AV-procd|sdf|7962|dock1
  -GOLD-   2272010133D 1   1.00000     0.00000
 Structure written by MMmdl.
 44 45  0  0  0  0  0  0  0  0  2 V2000
  146.9236  128.5460  151.8966 C   0  0  0  0  0  0  0  0  0  0  0  0
  145.8461  129.6372  151.9717 C   0  0  0  0  0  0  0  0  0  0  0  0
  146.3311  130.9567  151.4954 N   0  3  0  0  0  0  0  0  0  0  0  0
  146.8031  131.8144  152.6103 C   0  0  0  0  0  0  0  0  0  0  0  0
  147.3218  133.1646  152.0733 C   0  0  0  0  0  0  0  0  0  0  0  0
  146.2725  133.9028  151.3555 N   0  0  0  0  0  0  0  0  0  0  0  0
  145.1295  134.3613  152.1770 C   0  0  2  0  0  0  0  0  0  0  0  0
  144.2879  135.3971  151.3947 C   0  0  0  0  0  0  0  0  0  0  0  0
  145.5877  134.9611  153.5357 C   0  0  0  0  0  0  0  0  0  0  0  0
  146.5536  136.0439  153.3730 N   0  0  0  0  0  0  0  0  0  0  0  0
  146.3475  137.3123  153.7579 C   0  0  0  0  0  0  0  0  0  0  0  0
  145.3090  137.6939  154.2997 O   0  0  0  0  0  0  0  0  0  0  0  0
  147.4069  138.0894  153.4727 N   0  0  0  0  0  0  0  0  0  0  0  0
  147.5562  139.4837  153.6961 C   0  0  0  0  0  0  0  0  0  0  0  0
  146.6015  140.3918  153.4615 N   0  0  0  0  0  0  0  0  0  0  0  0
  147.0250  141.6879  153.7663 C   0  0  0  0  0  0  0  0  0  0  0  0
  148.3142  141.7487  154.2338 C   0  0  0  0  0  0  0  0  0  0  0  0
  149.0520  140.1709  154.3117 S   0  0  0  0  0  0  0  0  0  0  0  0
  145.9033  133.0555  150.2113 C   0  0  0  0  0  0  0  0  0  0  0  0
  145.3444  131.6848  150.6564 C   0  0  0  0  0  0  0  0  0  0  0  0
  146.5546  127.6154  152.3285 H   0  0  0  0  0  0  0  0  0  0  0  0
  147.8180  128.8341  152.4501 H   0  0  0  0  0  0  0  0  0  0  0  0
  147.2157  128.3297  150.8695 H   0  0  0  0  0  0  0  0  0  0  0  0
  144.9597  129.3400  151.4093 H   0  0  0  0  0  0  0  0  0  0  0  0
  145.5346  129.7281  153.0132 H   0  0  0  0  0  0  0  0  0  0  0  0
  146.0072  131.9590  153.3422 H   0  0  0  0  0  0  0  0  0  0  0  0
  147.6142  131.3062  153.1327 H   0  0  0  0  0  0  0  0  0  0  0  0
  147.7546  133.7617  152.8731 H   0  0  0  0  0  0  0  0  0  0  0  0
  148.1518  132.9834  151.3888 H   0  0  0  0  0  0  0  0  0  0  0  0
  144.4856  133.5117  152.3962 H   0  0  0  0  0  0  0  0  0  0  0  0
  143.4909  135.8168  152.0078 H   0  0  0  0  0  0  0  0  0  0  0  0
  143.7889  134.9608  150.5308 H   0  0  0  0  0  0  0  0  0  0  0  0
  144.9030  136.2282  151.0481 H   0  0  0  0  0  0  0  0  0  0  0  0
  144.7566  135.3745  154.1051 H   0  0  0  0  0  0  0  0  0  0  0  0
  146.0374  134.1866  154.1577 H   0  0  0  0  0  0  0  0  0  0  0  0
  147.4331  135.8106  152.9353 H   0  0  0  0  0  0  0  0  0  0  0  0
  148.1945  137.6343  153.0353 H   0  0  0  0  0  0  0  0  0  0  0  0
  146.3424  142.5119  153.6193 H   0  0  0  0  0  0  0  0  0  0  0  0
  148.8718  142.6229  154.5353 H   0  0  0  0  0  0  0  0  0  0  0  0
  145.1966  133.5604  149.5556 H   0  0  0  0  0  0  0  0  0  0  0  0
  146.7901  132.8976  149.5954 H   0  0  0  0  0  0  0  0  0  0  0  0
  145.1203  131.0993  149.7654 H   0  0  0  0  0  0  0  0  0  0  0  0
  144.4014  131.7972  151.1919 H   0  0  0  0  0  0  0  0  0  0  0  0
  147.1386  130.7821  150.9146 H   0  0  0  0  0  0  0  0  0  0  0  0
  1  2  1  0  0  0  0
  1 21  1  0  0  0  0
  1 22  1  0  0  0  0
  1 23  1  0  0  0  0
  2  3  1  0  0  0  0
  2 24  1  0  0  0  0
  2 25  1  0  0  0  0
  3 20  1  0  0  0  0
  3  4  1  0  0  0  0
  3 44  1  0  0  0  0
  4  5  1  0  0  0  0
  4 26  1  0  0  0  0
  4 27  1  0  0  0  0
  5  6  1  0  0  0  0
  5 28  1  0  0  0  0
  5 29  1  0  0  0  0
  6  7  1  0  0  0  0
  6 19  1  0  0  0  0
  7  8  1  0  0  0  0
  7  9  1  0  0  0  0
  7 30  1  0  0  0  0
  8 31  1  0  0  0  0
  8 32  1  0  0  0  0
  8 33  1  0  0  0  0
  9 10  1  0  0  0  0
  9 34  1  0  0  0  0
  9 35  1  0  0  0  0
 10 11  1  0  0  0  0
 10 36  1  0  0  0  0
 11 12  2  0  0  0  0
 11 13  1  0  0  0  0
 13 14  1  0  0  0  0
 13 37  1  0  0  0  0
 14 18  1  0  0  0  0
 14 15  2  0  0  0  0
 15 16  1  0  0  0  0
 16 17  2  0  0  0  0
 16 38  1  0  0  0  0
 17 18  1  0  0  0  0
 17 39  1  0  0  0  0
 19 20  1  0  0  0  0
 19 40  1  0  0  0  0
 19 41  1  0  0  0  0
 20 42  1  0  0  0  0
 20 43  1  0  0  0  0
M  CHG  1   3   1
M  END
> <s_m_source_file>
AV-unprocessed.smi

> <i_m_source_file_index>
1971

> <i_lp_mmshare_version>
43012

> <i_f3d_flags>
0

> <s_epik_input>
W0NIM11bQ0gyXU4xW0NIMl1bQ0gyXU4oW0NIMl1bQ0gyXTEpW0NASF0oW0NIM10pW0NIMl1bTkhdQyg9TylbTkhdYzJuW2NIXVtjSF1zMg==

> <s_epik_cmdline>
J2VwaWtfcHl0aG9uJywgJy1waCcsICc3LjAnLCAnLXRuJywgJzgnLCAnLW1hJywgJzIwMCcsICctbWV0YWxfYmluZGluZycsICctaW1hZScsICc8aW5maWxlLm1hZT4nLCAnLW9tYWUnLCAnPG91dGZpbGUubWFlPic=

> <r_lp_tautomer_probability>
0.999

> <r_epik_Ionization_Penalty>
0.0459519

> <r_epik_Ionization_Penalty_Charging>
0.0451959

> <r_epik_Ionization_Penalty_Neutral>
0.000756076

> <r_epik_State_Penalty>
0.165541

> <r_epik_Charging_Adjusted_Penalty>
0.210737

> <i_epik_Tot_Q>
1

> <i_epik_Tot_abs_Q>
1

> <r_epik_Metal_State_Penalty>
0.198809

> <b_epik_Metal_Only>
0

> <s_lp_Force_Field>
OPLS_2005

> <r_lp_Energy>
18.3118

> <b_lp_Chiralities_Consistent>
1

> <s_lp_Variant>
AV-unprocessed.smi:1971-1

> <Gold.Version>
5.8.1

> <Gold.Id.Protein>
6NUR|6NUR_protein|mol2

> <Gold.PLP.Fitness>
44.7619

> <Gold.PLP.PLP>
-34.8723

> <Gold.PLP.part.hbond>
-3.0000

> <Gold.PLP.part.metal>
0.0000

> <Gold.PLP.part.buried>
-3.7535

> <Gold.PLP.part.nonpolar>
-28.1060

> <Gold.PLP.part.repulsive>
0.4723

> <Gold.PLP.ligand.clash>
0.0000

> <Gold.PLP.ligand.torsion>
1.0803

> <Gold.PLP.Chemscore.Hbond>
2.9920

> <Gold.PLP.Chemscore.CHOScore>
1.0000

> <Gold.PLP.Chemscore.Metal>
0.0000

> <Gold.Chemscore.Hbonds>
donor molecule, donor type, donor heavy atom, donor atom, acceptor molecule, acceptor atom, score
      L1  H     3    44       P1 10747  1.00
      L1  H    10    36       P1  7948  1.00
      L1  H    13    37       P1  7948  1.00
      L1  C    17    39       P1  8028  1.00

> <Gold.PLP.Chemscore.Internal.Correction>
0.0743

> <Gold.Rescore>
     Score         DG    S(hbond)    S(metal)    S(lipo)     H(rot)  DE(clash)    DE(int)     intcor
     18.41     -20.43       2.92        0.00      83.69       1.79       0.10       1.92       ----

> <Gold.Chemscore.Fitness>
18.4142

> <Gold.Chemscore.DG>
-20.4255

> <Gold.Chemscore.ZeroCoef>
-5.4800

> <Gold.Chemscore.Hbond>
2.9177

> <Gold.Chemscore.Metal>
0.0000

> <Gold.Chemscore.Lipo>
83.6948

> <Gold.Chemscore.Internal_Hbond>
0.0000

> <Gold.Chemscore.DEClash>
0.0962

> <Gold.Chemscore.DEInternal>
1.9151

> <Gold.Chemscore.Rot>
1.7937

> <Gold.Chemscore.Internal.Correction>
   9.000000E+99

> <Gold.Chemscore.Hbonds>
donor molecule, donor type, donor heavy atom, donor atom, acceptor molecule, acceptor atom, score
      L1  H     3    44       P1 10747  0.99
      L1  H    10    36       P1  7948  0.97
      L1  H    13    37       P1  7948  0.95

> <Gold.Chemscore.Hbond.Weighted>
-9.7451

> <Gold.Chemscore.Metal.Weighted>
-0.0000

> <Gold.Chemscore.Lipo.Weighted>
-9.7923

> <Gold.Chemscore.Internal_Hbond.Weighted>
0.0000

> <Gold.Chemscore.DEClash.Weighted>
0.0962

> <Gold.Chemscore.DEInternal.Weighted>
1.9151

> <Gold.Chemscore.Rot.Weighted>
4.5919

> <Gold.Chemscore.Internal.Correction.Weighted>
   9.000000E+99

> <Gold.Protein.RotatedTorsions>
[ 6907 6896 6895 6894 ] final  -87.64 input  -60.11 | X-H torsion
[ 7974 7965 7964 7962 ] final   37.60 input  175.53 | X-H torsion
[ 8008 7997 7996 7995 ] final   56.94 input   59.86 | X-H torsion
[ 10167 10162 10161 10158 ] final -178.71 input  -65.29 | X-H torsion
[ 10718 10713 10712 10709 ] final  -71.73 input   66.30 | X-H torsion
[ 10763 10752 10751 10750 ] final -167.37 input  -60.55 | X-H torsion
[ 11005 11000 10999 10996 ] final  -78.20 input  -57.11 | X-H torsion

> <Gold.Protein.ActiveResidues>
 VAL166  LYS551  ARG553  GLY616  TRP617  ASP618  TYR619  PRO620  LYS621  CYS622 
 ASP623  PHE694  ASN695  SER759  ASP760  ASP761  ALA762  ILE779  LEU786  VAL792 
 PHE793  MET794  SER795  GLU796  ALA797  LYS798  CYS799  TRP800  GLU811  SER814 

> <Gold.Protein.RotatedAtoms>
  150.6867  134.2864  159.4648 H   0  0  0  0  0  0  0  0  0  0  0  0  # atno 6907 bound_to 6896
  152.0774  134.9491  160.0583 H   0  0  0  0  0  0  0  0  0  0  0  0  # atno 6908 bound_to 6896
  152.0858  133.4140  159.4558 H   0  0  0  0  0  0  0  0  0  0  0  0  # atno 6909 bound_to 6896
  146.1125  139.5875  142.9342 H   0  0  0  0  0  0  0  0  0  0  0  0  # atno 7974 bound_to 7965
  155.5256  140.3481  155.4416 H   0  0  0  0  0  0  0  0  0  0  0  0  # atno 8008 bound_to 7997
  156.0754  140.1373  156.9805 H   0  0  0  0  0  0  0  0  0  0  0  0  # atno 8009 bound_to 7997
  154.4550  140.0957  156.6707 H   0  0  0  0  0  0  0  0  0  0  0  0  # atno 8010 bound_to 7997
  139.5420  144.2338  152.0913 H   0  0  0  0  0  0  0  0  0  0  0  0  # atno 10167 bound_to 10162
  156.0350  130.4357  150.2487 H   0  0  0  0  0  0  0  0  0  0  0  0  # atno 10718 bound_to 10713
  154.6739  135.2943  154.9705 H   0  0  0  0  0  0  0  0  0  0  0  0  # atno 10763 bound_to 10752
  154.0723  135.6616  153.4830 H   0  0  0  0  0  0  0  0  0  0  0  0  # atno 10764 bound_to 10752
  153.0504  135.5178  154.7748 H   0  0  0  0  0  0  0  0  0  0  0  0  # atno 10765 bound_to 10752
  141.1664  133.7053  156.7936 H   0  0  0  0  0  0  0  0  0  0  0  0  # atno 11005 bound_to 11000
  145.5633  141.0402  143.2214 LP  0  0  0  0  0  0  0  0  0  0  0  0  # atno 17320 bound_to 7965
  144.7524  139.7159  143.7267 LP  0  0  0  0  0  0  0  0  0  0  0  0  # atno 17321 bound_to 7965
  140.1818  144.4837  150.6524 LP  0  0  0  0  0  0  0  0  0  0  0  0  # atno 17342 bound_to 10162
  140.6653  143.2266  151.5757 LP  0  0  0  0  0  0  0  0  0  0  0  0  # atno 17343 bound_to 10162
  157.0586  131.0083  151.3230 LP  0  0  0  0  0  0  0  0  0  0  0  0  # atno 17370 bound_to 10713
  157.5087  130.7925  149.7681 LP  0  0  0  0  0  0  0  0  0  0  0  0  # atno 17371 bound_to 10713
  140.2307  134.8687  157.3474 LP  0  0  0  0  0  0  0  0  0  0  0  0  # atno 17394 bound_to 11000
  140.1893  134.4391  155.7725 LP  0  0  0  0  0  0  0  0  0  0  0  0  # atno 17395 bound_to 11000

$$$$
