AV-unprocessed.smi:3124|AV-procd|sdf|11905|dock1
  -GOLD-   2272017283D 1   1.00000     0.00000
 Structure written by MMmdl.
 24 24  0  0  0  0  0  0  0  0  2 V2000
  152.0661  141.8900  158.4957 C   0  0  0  0  0  0  0  0  0  0  0  0
  151.7752  140.8425  157.4612 C   0  0  0  0  0  0  0  0  0  0  0  0
  150.9269  140.9443  156.3201 C   0  0  0  0  0  0  0  0  0  0  0  0
  151.0125  139.7171  155.7204 C   0  0  0  0  0  0  0  0  0  0  0  0
  150.3865  139.1517  154.4822 C   0  0  0  0  0  0  0  0  0  0  0  0
  148.8869  139.4648  154.3090 C   0  0  1  0  0  0  0  0  0  0  0  0
  148.6220  140.9765  154.2960 C   0  0  0  0  0  0  0  0  0  0  0  0
  148.3582  138.8480  153.0777 N   0  3  0  0  0  0  0  0  0  0  0  0
  151.8793  138.9784  156.4934 N   0  0  0  0  0  0  0  0  0  0  0  0
  152.3447  139.6516  157.5614 N   0  0  0  0  0  0  0  0  0  0  0  0
  152.1583  138.0251  156.3084 H   0  0  0  0  0  0  0  0  0  0  0  0
  151.8406  142.8878  158.1190 H   0  0  0  0  0  0  0  0  0  0  0  0
  153.1162  141.8783  158.7894 H   0  0  0  0  0  0  0  0  0  0  0  0
  151.4670  141.7300  159.3924 H   0  0  0  0  0  0  0  0  0  0  0  0
  150.3469  141.7955  155.9954 H   0  0  0  0  0  0  0  0  0  0  0  0
  150.9302  139.5385  153.6196 H   0  0  0  0  0  0  0  0  0  0  0  0
  150.5353  138.0709  154.4649 H   0  0  0  0  0  0  0  0  0  0  0  0
  148.3388  139.0380  155.1499 H   0  0  0  0  0  0  0  0  0  0  0  0
  148.9671  141.4433  155.2192 H   0  0  0  0  0  0  0  0  0  0  0  0
  147.5566  141.1893  154.2007 H   0  0  0  0  0  0  0  0  0  0  0  0
  149.1348  141.4639  153.4660 H   0  0  0  0  0  0  0  0  0  0  0  0
  148.7558  139.3074  152.2709 H   0  0  0  0  0  0  0  0  0  0  0  0
  147.3527  138.9422  153.0571 H   0  0  0  0  0  0  0  0  0  0  0  0
  148.6045  137.8683  153.0608 H   0  0  0  0  0  0  0  0  0  0  0  0
  1  2  1  0  0  0  0
  1 12  1  0  0  0  0
  1 13  1  0  0  0  0
  1 14  1  0  0  0  0
  2 10  2  0  0  0  0
  2  3  1  0  0  0  0
  3  4  2  0  0  0  0
  3 15  1  0  0  0  0
  4  5  1  0  0  0  0
  4  9  1  0  0  0  0
  5  6  1  0  0  0  0
  5 16  1  0  0  0  0
  5 17  1  0  0  0  0
  6  7  1  0  0  0  0
  6  8  1  0  0  0  0
  6 18  1  0  0  0  0
  7 19  1  0  0  0  0
  7 20  1  0  0  0  0
  7 21  1  0  0  0  0
  8 22  1  0  0  0  0
  8 23  1  0  0  0  0
  8 24  1  0  0  0  0
  9 11  1  0  0  0  0
  9 10  1  0  0  0  0
M  CHG  1   8   1
M  END
> <s_m_source_file>
AV-unprocessed.smi

> <i_m_source_file_index>
3124

> <i_lp_mmshare_version>
43012

> <i_f3d_flags>
0

> <s_epik_input>
W0NIM11jMVtjSF1jKFtuSF1uMSlbQ0gyXVtDQEhdKFtDSDNdKVtOSDJd

> <s_epik_cmdline>
J2VwaWtfcHl0aG9uJywgJy1waCcsICc3LjAnLCAnLXRuJywgJzgnLCAnLW1hJywgJzIwMCcsICctbWV0YWxfYmluZGluZycsICctaW1hZScsICc8aW5maWxlLm1hZT4nLCAnLW9tYWUnLCAnPG91dGZpbGUubWFlPic=

> <r_lp_tautomer_probability>
0.5

> <r_epik_Ionization_Penalty>
0.00227197

> <r_epik_Ionization_Penalty_Charging>
0.00223142

> <r_epik_Ionization_Penalty_Neutral>
4.05538e-05

> <r_epik_State_Penalty>
0.446108

> <r_epik_Charging_Adjusted_Penalty>
0.448339

> <i_epik_Tot_Q>
1

> <i_epik_Tot_abs_Q>
1

> <r_epik_Metal_State_Penalty>
0.444886

> <b_epik_Metal_Only>
0

> <s_lp_Force_Field>
OPLS_2005

> <r_lp_Energy>
4.61405

> <b_lp_Chiralities_Consistent>
1

> <s_lp_Variant>
AV-unprocessed.smi:3124-4

> <Gold.Version>
5.8.1

> <Gold.Id.Protein>
6NUR|6NUR_protein|mol2

> <Gold.PLP.Fitness>
31.5622

> <Gold.PLP.PLP>
-19.9869

> <Gold.PLP.part.hbond>
-2.9790

> <Gold.PLP.part.metal>
0.0000

> <Gold.PLP.part.buried>
-2.2029

> <Gold.PLP.part.nonpolar>
-15.2451

> <Gold.PLP.part.repulsive>
0.2100

> <Gold.PLP.ligand.clash>
0.0000

> <Gold.PLP.ligand.torsion>
0.2140

> <Gold.PLP.Chemscore.Hbond>
4.0000

> <Gold.PLP.Chemscore.CHOScore>
0.0000

> <Gold.PLP.Chemscore.Metal>
0.0000

> <Gold.Chemscore.Hbonds>
donor molecule, donor type, donor heavy atom, donor atom, acceptor molecule, acceptor atom, score
      L1  H     8    22       P1  7957  1.00
      L1  H     8    24       P1  7948  1.75
      P1  H  7997  8009       L1    10  0.37

> <Gold.PLP.Chemscore.Internal.Correction>
0.0033

> <Gold.Rescore>
     Score         DG    S(hbond)    S(metal)    S(lipo)     H(rot)  DE(clash)    DE(int)     intcor
     16.61     -16.95       2.71        0.00      49.12       1.30       0.01       0.33       ----

> <Gold.Chemscore.Fitness>
16.6129

> <Gold.Chemscore.DG>
-16.9518

> <Gold.Chemscore.ZeroCoef>
-5.4800

> <Gold.Chemscore.Hbond>
2.7096

> <Gold.Chemscore.Metal>
0.0000

> <Gold.Chemscore.Lipo>
49.1150

> <Gold.Chemscore.Internal_Hbond>
0.0000

> <Gold.Chemscore.DEClash>
0.0137

> <Gold.Chemscore.DEInternal>
0.3251

> <Gold.Chemscore.Rot>
1.2987

> <Gold.Chemscore.Internal.Correction>
   9.000000E+99

> <Gold.Chemscore.Hbonds>
donor molecule, donor type, donor heavy atom, donor atom, acceptor molecule, acceptor atom, score
      L1  H     8    22       P1  7957  0.97
      L1  H     8    24       P1  7948  0.80
      P1  H  7997  8009       L1    10  0.04

> <Gold.Chemscore.Hbond.Weighted>
-9.0499

> <Gold.Chemscore.Metal.Weighted>
-0.0000

> <Gold.Chemscore.Lipo.Weighted>
-5.7465

> <Gold.Chemscore.Internal_Hbond.Weighted>
0.0000

> <Gold.Chemscore.DEClash.Weighted>
0.0137

> <Gold.Chemscore.DEInternal.Weighted>
0.3251

> <Gold.Chemscore.Rot.Weighted>
3.3246

> <Gold.Chemscore.Internal.Correction.Weighted>
   9.000000E+99

> <Gold.Protein.RotatedTorsions>
[ 6907 6896 6895 6894 ] final   22.09 input  -60.11 | X-H torsion
[ 7974 7965 7964 7962 ] final  -92.25 input  175.53 | X-H torsion
[ 8008 7997 7996 7995 ] final  163.91 input   59.86 | X-H torsion
[ 10167 10162 10161 10158 ] final -162.66 input  -65.29 | X-H torsion
[ 10718 10713 10712 10709 ] final  132.13 input   66.30 | X-H torsion
[ 10763 10752 10751 10750 ] final  -29.90 input  -60.55 | X-H torsion
[ 11005 11000 10999 10996 ] final  178.77 input  -57.11 | X-H torsion

> <Gold.Protein.ActiveResidues>
 VAL166  LYS551  ARG553  GLY616  TRP617  ASP618  TYR619  PRO620  LYS621  CYS622 
 ASP623  PHE694  ASN695  SER759  ASP760  ASP761  ALA762  ILE779  LEU786  VAL792 
 PHE793  MET794  SER795  GLU796  ALA797  LYS798  CYS799  TRP800  GLU811  SER814 

> <Gold.Protein.RotatedAtoms>
  151.9218  135.0295  160.0522 H   0  0  0  0  0  0  0  0  0  0  0  0  # atno 6907 bound_to 6896
  152.2193  133.4967  159.5162 H   0  0  0  0  0  0  0  0  0  0  0  0  # atno 6908 bound_to 6896
  150.6996  134.1280  159.4102 H   0  0  0  0  0  0  0  0  0  0  0  0  # atno 6909 bound_to 6896
  145.4023  140.9538  143.2280 H   0  0  0  0  0  0  0  0  0  0  0  0  # atno 7974 bound_to 7965
  156.1921  140.1711  156.8071 H   0  0  0  0  0  0  0  0  0  0  0  0  # atno 8008 bound_to 7997
  154.5484  140.0722  156.8659 H   0  0  0  0  0  0  0  0  0  0  0  0  # atno 8009 bound_to 7997
  155.3077  140.3365  155.4247 H   0  0  0  0  0  0  0  0  0  0  0  0  # atno 8010 bound_to 7997
  139.6376  144.0321  152.2066 H   0  0  0  0  0  0  0  0  0  0  0  0  # atno 10167 bound_to 10162
  157.4900  131.1090  150.9568 H   0  0  0  0  0  0  0  0  0  0  0  0  # atno 10718 bound_to 10713
  153.7721  135.6911  153.4904 H   0  0  0  0  0  0  0  0  0  0  0  0  # atno 10763 bound_to 10752
  153.1867  135.4486  155.0096 H   0  0  0  0  0  0  0  0  0  0  0  0  # atno 10764 bound_to 10752
  154.8114  135.3379  154.7230 H   0  0  0  0  0  0  0  0  0  0  0  0  # atno 10765 bound_to 10752
  140.3988  134.6796  157.4550 H   0  0  0  0  0  0  0  0  0  0  0  0  # atno 11005 bound_to 11000
  144.8365  139.5541  143.6919 LP  0  0  0  0  0  0  0  0  0  0  0  0  # atno 17320 bound_to 7965
  146.2746  139.6720  142.9272 LP  0  0  0  0  0  0  0  0  0  0  0  0  # atno 17321 bound_to 7965
  140.0002  144.6299  150.7736 LP  0  0  0  0  0  0  0  0  0  0  0  0  # atno 17342 bound_to 10162
  140.7473  143.2905  151.3344 LP  0  0  0  0  0  0  0  0  0  0  0  0  # atno 17343 bound_to 10162
  157.0273  130.5697  149.5338 LP  0  0  0  0  0  0  0  0  0  0  0  0  # atno 17370 bound_to 10713
  156.0168  130.5262  150.8159 LP  0  0  0  0  0  0  0  0  0  0  0  0  # atno 17371 bound_to 10713
  140.0352  134.6348  155.9053 LP  0  0  0  0  0  0  0  0  0  0  0  0  # atno 17394 bound_to 11000
  141.1864  133.6557  156.5239 LP  0  0  0  0  0  0  0  0  0  0  0  0  # atno 17395 bound_to 11000

$$$$
