AV-unprocessed.smi:2318|AV-procd|sdf|9275|dock6
  -GOLD-   2272012493D 1   1.00000     0.00000
 Structure written by MMmdl.
 37 38  0  0  0  0  0  0  0  0  1 V2000
  142.4606  142.6349  156.7194 C   0  0  0  0  0  0  0  0  0  0  0  0
  143.7625  142.7948  156.1087 N   0  0  0  0  0  0  0  0  0  0  0  0
  144.0667  143.1266  154.8038 C   0  0  0  0  0  0  0  0  0  0  0  0
  145.4282  143.1590  154.6966 C   0  0  0  0  0  0  0  0  0  0  0  0
  145.8678  142.8277  156.0079 C   0  0  0  0  0  0  0  0  0  0  0  0
  147.2521  142.7549  156.3088 N   0  0  0  0  0  0  0  0  0  0  0  0
  147.8321  142.1718  157.3719 C   0  0  0  0  0  0  0  0  0  0  0  0
  147.2315  141.5964  158.2796 O   0  0  0  0  0  0  0  0  0  0  0  0
  149.1662  142.2981  157.3234 N   0  0  0  0  0  0  0  0  0  0  0  0
  150.1182  141.7776  158.3071 C   0  0  2  0  0  0  0  0  0  0  0  0
  150.9114  142.9585  158.9229 C   0  0  0  0  0  0  0  0  0  0  0  0
  150.0557  144.0895  159.5033 C   0  0  0  0  0  0  0  0  0  0  0  0
  151.0076  145.2825  159.6190 C   0  0  0  0  0  0  0  0  0  0  0  0
  152.0750  145.0802  158.5354 C   0  0  0  0  0  0  0  0  0  0  0  0
  151.8095  143.7001  157.9213 C   0  0  0  0  0  0  0  0  0  0  0  0
  151.0047  140.7100  157.6258 C   0  0  0  0  0  0  0  0  0  0  0  0
  152.0886  140.4814  158.3685 F   0  0  0  0  0  0  0  0  0  0  0  0
  150.3355  139.5650  157.4844 F   0  0  0  0  0  0  0  0  0  0  0  0
  151.4154  141.1219  156.4272 F   0  0  0  0  0  0  0  0  0  0  0  0
  144.8715  142.6100  156.8555 N   0  0  0  0  0  0  0  0  0  0  0  0
  141.6768  142.8034  155.9805 H   0  0  0  0  0  0  0  0  0  0  0  0
  142.3431  143.3532  157.5313 H   0  0  0  0  0  0  0  0  0  0  0  0
  142.3611  141.6246  157.1174 H   0  0  0  0  0  0  0  0  0  0  0  0
  143.2975  143.3099  154.0677 H   0  0  0  0  0  0  0  0  0  0  0  0
  146.0149  143.3834  153.8181 H   0  0  0  0  0  0  0  0  0  0  0  0
  147.8680  143.1924  155.6397 H   0  0  0  0  0  0  0  0  0  0  0  0
  149.5633  142.7868  156.5344 H   0  0  0  0  0  0  0  0  0  0  0  0
  149.5765  141.2824  159.1150 H   0  0  0  0  0  0  0  0  0  0  0  0
  151.5487  142.5770  159.7225 H   0  0  0  0  0  0  0  0  0  0  0  0
  149.2447  144.3340  158.8157 H   0  0  0  0  0  0  0  0  0  0  0  0
  149.6127  143.8336  160.4659 H   0  0  0  0  0  0  0  0  0  0  0  0
  150.4832  146.2324  159.5113 H   0  0  0  0  0  0  0  0  0  0  0  0
  151.4814  145.2810  160.6016 H   0  0  0  0  0  0  0  0  0  0  0  0
  152.0271  145.8597  157.7740 H   0  0  0  0  0  0  0  0  0  0  0  0
  153.0706  145.1199  158.9790 H   0  0  0  0  0  0  0  0  0  0  0  0
  152.7333  143.1607  157.7098 H   0  0  0  0  0  0  0  0  0  0  0  0
  151.2813  143.8247  156.9744 H   0  0  0  0  0  0  0  0  0  0  0  0
  1  2  1  0  0  0  0
  1 21  1  0  0  0  0
  1 22  1  0  0  0  0
  1 23  1  0  0  0  0
  2 20  1  0  0  0  0
  2  3  1  0  0  0  0
  3  4  2  0  0  0  0
  3 24  1  0  0  0  0
  4  5  1  0  0  0  0
  4 25  1  0  0  0  0
  5  6  1  0  0  0  0
  5 20  2  0  0  0  0
  6  7  1  0  0  0  0
  6 26  1  0  0  0  0
  7  8  2  0  0  0  0
  7  9  1  0  0  0  0
  9 10  1  0  0  0  0
  9 27  1  0  0  0  0
 10 11  1  0  0  0  0
 10 16  1  0  0  0  0
 10 28  1  0  0  0  0
 11 15  1  0  0  0  0
 11 12  1  0  0  0  0
 11 29  1  0  0  0  0
 12 13  1  0  0  0  0
 12 30  1  0  0  0  0
 12 31  1  0  0  0  0
 13 14  1  0  0  0  0
 13 32  1  0  0  0  0
 13 33  1  0  0  0  0
 14 15  1  0  0  0  0
 14 34  1  0  0  0  0
 14 35  1  0  0  0  0
 15 36  1  0  0  0  0
 15 37  1  0  0  0  0
 16 17  1  0  0  0  0
 16 18  1  0  0  0  0
 16 19  1  0  0  0  0
M  END
> <s_m_source_file>
AV-unprocessed.smi

> <i_m_source_file_index>
2318

> <i_lp_mmshare_version>
43012

> <i_f3d_flags>
0

> <s_epik_input>
W0NIM11uMVtjSF1bY0hdYyhuMSlbTkhdQyg9TylbTkhdW0NAQEhdKEMoRikoRilGKVtDSF0yW0NIMl1bQ0gyXVtDSDJdW0NIMl0y

> <s_epik_cmdline>
J2VwaWtfcHl0aG9uJywgJy1waCcsICc3LjAnLCAnLXRuJywgJzgnLCAnLW1hJywgJzIwMCcsICctbWV0YWxfYmluZGluZycsICctaW1hZScsICc8aW5maWxlLm1hZT4nLCAnLW9tYWUnLCAnPG91dGZpbGUubWFlPic=

> <r_lp_tautomer_probability>
1

> <r_epik_Ionization_Penalty>
2.39546e-05

> <r_epik_Ionization_Penalty_Charging>
0

> <r_epik_Ionization_Penalty_Neutral>
2.39546e-05

> <r_epik_State_Penalty>
-0

> <r_epik_Charging_Adjusted_Penalty>
0

> <i_epik_Tot_Q>
0

> <i_epik_Tot_abs_Q>
0

> <r_epik_Metal_State_Penalty>
-0

> <b_epik_Metal_Only>
0

> <s_lp_Force_Field>
OPLS_2005

> <r_lp_Energy>
23.9909

> <b_lp_Chiralities_Consistent>
1

> <s_lp_Variant>
AV-unprocessed.smi:2318-1

> <Gold.Version>
5.8.1

> <Gold.Id.Protein>
6NUR|6NUR_protein|mol2

> <Gold.PLP.Fitness>
37.8222

> <Gold.PLP.PLP>
-32.1484

> <Gold.PLP.part.hbond>
-3.1253

> <Gold.PLP.part.metal>
0.0000

> <Gold.PLP.part.buried>
-4.3142

> <Gold.PLP.part.nonpolar>
-24.9011

> <Gold.PLP.part.repulsive>
0.1546

> <Gold.PLP.ligand.clash>
0.0000

> <Gold.PLP.ligand.torsion>
0.5313

> <Gold.PLP.Chemscore.Hbond>
1.1486

> <Gold.PLP.Chemscore.CHOScore>
1.0000

> <Gold.PLP.Chemscore.Metal>
0.0000

> <Gold.Chemscore.Hbonds>
donor molecule, donor type, donor heavy atom, donor atom, acceptor molecule, acceptor atom, score
      L1  H     6    26       P1  8028  0.67
      L1  H     9    27       P1  8028  0.27
      L1  C     3    24       P1 10174  1.00

> <Gold.PLP.Chemscore.Internal.Correction>
0.2905

> <Gold.Rescore>
     Score         DG    S(hbond)    S(metal)    S(lipo)     H(rot)  DE(clash)    DE(int)     intcor
     10.50     -13.23       0.74        0.00      73.43       1.30       0.11       2.62       ----

> <Gold.Chemscore.Fitness>
10.4975

> <Gold.Chemscore.DG>
-13.2265

> <Gold.Chemscore.ZeroCoef>
-5.4800

> <Gold.Chemscore.Hbond>
0.7436

> <Gold.Chemscore.Metal>
0.0000

> <Gold.Chemscore.Lipo>
73.4325

> <Gold.Chemscore.Internal_Hbond>
0.0000

> <Gold.Chemscore.DEClash>
0.1084

> <Gold.Chemscore.DEInternal>
2.6206

> <Gold.Chemscore.Rot>
1.3003

> <Gold.Chemscore.Internal.Correction>
   9.000000E+99

> <Gold.Chemscore.Hbonds>
donor molecule, donor type, donor heavy atom, donor atom, acceptor molecule, acceptor atom, score
      L1  H     6    26       P1  8028  0.34
      L1  H     9    27       P1  8028  0.27

> <Gold.Chemscore.Hbond.Weighted>
-2.4837

> <Gold.Chemscore.Metal.Weighted>
-0.0000

> <Gold.Chemscore.Lipo.Weighted>
-8.5916

> <Gold.Chemscore.Internal_Hbond.Weighted>
0.0000

> <Gold.Chemscore.DEClash.Weighted>
0.1084

> <Gold.Chemscore.DEInternal.Weighted>
2.6206

> <Gold.Chemscore.Rot.Weighted>
3.3287

> <Gold.Chemscore.Internal.Correction.Weighted>
   9.000000E+99

> <Gold.Protein.RotatedTorsions>
[ 6907 6896 6895 6894 ] final   65.83 input  -60.11 | X-H torsion
[ 7974 7965 7964 7962 ] final  -38.22 input  175.53 | X-H torsion
[ 8008 7997 7996 7995 ] final -150.90 input   59.86 | X-H torsion
[ 10167 10162 10161 10158 ] final -120.51 input  -65.29 | X-H torsion
[ 10718 10713 10712 10709 ] final  158.27 input   66.30 | X-H torsion
[ 10763 10752 10751 10750 ] final  -13.21 input  -60.55 | X-H torsion
[ 11005 11000 10999 10996 ] final   18.22 input  -57.11 | X-H torsion

> <Gold.Protein.ActiveResidues>
 VAL166  LYS551  ARG553  GLY616  TRP617  ASP618  TYR619  PRO620  LYS621  CYS622 
 ASP623  PHE694  ASN695  SER759  ASP760  ASP761  ALA762  ILE779  LEU786  VAL792 
 PHE793  MET794  SER795  GLU796  ALA797  LYS798  CYS799  TRP800  GLU811  SER814 

> <Gold.Protein.RotatedAtoms>
  152.4436  134.5540  159.9874 H   0  0  0  0  0  0  0  0  0  0  0  0  # atno 6907 bound_to 6896
  151.5631  133.3394  159.2983 H   0  0  0  0  0  0  0  0  0  0  0  0  # atno 6908 bound_to 6896
  150.8347  134.7649  159.6947 H   0  0  0  0  0  0  0  0  0  0  0  0  # atno 6909 bound_to 6896
  146.0505  140.6487  142.9044 H   0  0  0  0  0  0  0  0  0  0  0  0  # atno 7974 bound_to 7965
  155.6309  140.0691  157.2649 H   0  0  0  0  0  0  0  0  0  0  0  0  # atno 8008 bound_to 7997
  154.4206  140.1767  156.1520 H   0  0  0  0  0  0  0  0  0  0  0  0  # atno 8009 bound_to 7997
  155.9934  140.3343  155.6778 H   0  0  0  0  0  0  0  0  0  0  0  0  # atno 8010 bound_to 7997
  140.0351  143.5209  152.2157 H   0  0  0  0  0  0  0  0  0  0  0  0  # atno 10167 bound_to 10162
  157.1802  131.0630  151.2136 H   0  0  0  0  0  0  0  0  0  0  0  0  # atno 10718 bound_to 10713
  153.5099  135.7016  153.5786 H   0  0  0  0  0  0  0  0  0  0  0  0  # atno 10763 bound_to 10752
  153.3881  135.3903  155.1904 H   0  0  0  0  0  0  0  0  0  0  0  0  # atno 10764 bound_to 10752
  154.8704  135.3851  154.4578 H   0  0  0  0  0  0  0  0  0  0  0  0  # atno 10765 bound_to 10752
  140.4272  134.1457  155.7677 H   0  0  0  0  0  0  0  0  0  0  0  0  # atno 11005 bound_to 11000
  144.7120  140.4074  143.7073 LP  0  0  0  0  0  0  0  0  0  0  0  0  # atno 17320 bound_to 7965
  145.6732  139.1603  143.2743 LP  0  0  0  0  0  0  0  0  0  0  0  0  # atno 17321 bound_to 7965
  139.6050  144.7594  151.3082 LP  0  0  0  0  0  0  0  0  0  0  0  0  # atno 17342 bound_to 10162
  140.7285  143.6934  150.7904 LP  0  0  0  0  0  0  0  0  0  0  0  0  # atno 17343 bound_to 10162
  157.3960  130.7307  149.6732 LP  0  0  0  0  0  0  0  0  0  0  0  0  # atno 17370 bound_to 10713
  155.9725  130.4133  150.4078 LP  0  0  0  0  0  0  0  0  0  0  0  0  # atno 17371 bound_to 10713
  141.1760  133.8512  157.1418 LP  0  0  0  0  0  0  0  0  0  0  0  0  # atno 17394 bound_to 11000
  140.0159  134.9967  157.0492 LP  0  0  0  0  0  0  0  0  0  0  0  0  # atno 17395 bound_to 11000

$$$$
