AV-unprocessed.smi:712|AV-procd|sdf|3472|dock6
  -GOLD-   22720 0463D 1   1.00000     0.00000
 Structure written by MMmdl.
 50 51  0  0  0  0  0  0  0  0  1 V2000
  151.5055  144.8801  161.0679 C   0  0  0  0  0  0  0  0  0  0  0  0
  152.1233  143.5199  160.8185 C   0  0  0  0  0  0  0  0  0  0  0  0
  151.7395  142.7384  159.6622 C   0  0  0  0  0  0  0  0  0  0  0  0
  152.2854  141.5263  159.4820 C   0  0  0  0  0  0  0  0  0  0  0  0
  153.2295  140.9941  160.3790 N   0  0  0  0  0  0  0  0  0  0  0  0
  153.7212  139.6343  160.0901 C   0  0  0  0  0  0  0  0  0  0  0  0
  152.9202  138.8930  159.0053 C   0  0  0  0  0  0  0  0  0  0  0  0
  153.3570  138.8548  157.8559 O   0  0  0  0  0  0  0  0  0  0  0  0
  151.7459  138.3449  159.3579 N   0  0  0  0  0  0  0  0  0  0  0  0
  150.7765  137.7413  158.4523 C   0  0  0  0  0  0  0  0  0  0  0  0
  149.4455  137.4693  159.1741 C   0  0  2  0  0  0  0  0  0  0  0  0
  149.4968  136.2144  160.0743 C   0  0  0  0  0  0  0  0  0  0  0  0
  148.2068  135.9301  160.6961 N   0  0  0  0  0  0  0  0  0  0  0  0
  148.2344  134.7343  161.5406 C   0  0  0  0  0  0  0  0  0  0  0  0
  149.0322  134.8558  162.8575 C   0  0  0  0  0  0  0  0  0  0  0  0
  149.2196  133.4760  163.5036 C   0  0  0  0  0  0  0  0  0  0  0  0
  148.3669  135.8280  163.8455 C   0  0  0  0  0  0  0  0  0  0  0  0
  147.1956  135.8097  159.6521 C   0  0  0  0  0  0  0  0  0  0  0  0
  147.1447  137.0576  158.7544 C   0  0  0  0  0  0  0  0  0  0  0  0
  148.4307  137.2916  158.1897 O   0  0  0  0  0  0  0  0  0  0  0  0
  153.6491  141.6883  161.4797 C   0  0  0  0  0  0  0  0  0  0  0  0
  154.4723  141.2273  162.2703 O   0  0  0  0  0  0  0  0  0  0  0  0
  153.0384  143.0091  161.6720 C   0  0  0  0  0  0  0  0  0  0  0  0
  150.5737  144.9930  160.5130 H   0  0  0  0  0  0  0  0  0  0  0  0
  152.1895  145.6687  160.7542 H   0  0  0  0  0  0  0  0  0  0  0  0
  151.2849  145.0151  162.1272 H   0  0  0  0  0  0  0  0  0  0  0  0
  151.0167  143.1195  158.9561 H   0  0  0  0  0  0  0  0  0  0  0  0
  152.0328  140.8872  158.6481 H   0  0  0  0  0  0  0  0  0  0  0  0
  154.7652  139.6824  159.7759 H   0  0  0  0  0  0  0  0  0  0  0  0
  153.7279  139.0199  160.9916 H   0  0  0  0  0  0  0  0  0  0  0  0
  151.4728  138.4101  160.3278 H   0  0  0  0  0  0  0  0  0  0  0  0
  150.6141  138.3733  157.5778 H   0  0  0  0  0  0  0  0  0  0  0  0
  151.1963  136.8054  158.0827 H   0  0  0  0  0  0  0  0  0  0  0  0
  149.1916  138.3400  159.7820 H   0  0  0  0  0  0  0  0  0  0  0  0
  149.8209  135.3556  159.4847 H   0  0  0  0  0  0  0  0  0  0  0  0
  150.2514  136.3685  160.8442 H   0  0  0  0  0  0  0  0  0  0  0  0
  147.2094  134.4622  161.7969 H   0  0  0  0  0  0  0  0  0  0  0  0
  148.6259  133.8963  160.9620 H   0  0  0  0  0  0  0  0  0  0  0  0
  150.0310  135.2281  162.6354 H   0  0  0  0  0  0  0  0  0  0  0  0
  148.2608  133.0244  163.7601 H   0  0  0  0  0  0  0  0  0  0  0  0
  149.8092  133.5471  164.4181 H   0  0  0  0  0  0  0  0  0  0  0  0
  149.7403  132.7943  162.8304 H   0  0  0  0  0  0  0  0  0  0  0  0
  147.3518  135.5129  164.0885 H   0  0  0  0  0  0  0  0  0  0  0  0
  148.3141  136.8366  163.4348 H   0  0  0  0  0  0  0  0  0  0  0  0
  148.9290  135.8874  164.7778 H   0  0  0  0  0  0  0  0  0  0  0  0
  147.4020  134.9324  159.0368 H   0  0  0  0  0  0  0  0  0  0  0  0
  146.2152  135.6508  160.1025 H   0  0  0  0  0  0  0  0  0  0  0  0
  146.4227  136.9165  157.9501 H   0  0  0  0  0  0  0  0  0  0  0  0
  146.8240  137.9313  159.3240 H   0  0  0  0  0  0  0  0  0  0  0  0
  153.3296  143.5871  162.5373 H   0  0  0  0  0  0  0  0  0  0  0  0
  1  2  1  0  0  0  0
  1 24  1  0  0  0  0
  1 25  1  0  0  0  0
  1 26  1  0  0  0  0
  2 23  2  0  0  0  0
  2  3  1  0  0  0  0
  3  4  2  0  0  0  0
  3 27  1  0  0  0  0
  4  5  1  0  0  0  0
  4 28  1  0  0  0  0
  5  6  1  0  0  0  0
  5 21  1  0  0  0  0
  6  7  1  0  0  0  0
  6 29  1  0  0  0  0
  6 30  1  0  0  0  0
  7  8  2  0  0  0  0
  7  9  1  0  0  0  0
  9 10  1  0  0  0  0
  9 31  1  0  0  0  0
 10 11  1  0  0  0  0
 10 32  1  0  0  0  0
 10 33  1  0  0  0  0
 11 20  1  0  0  0  0
 11 12  1  0  0  0  0
 11 34  1  0  0  0  0
 12 13  1  0  0  0  0
 12 35  1  0  0  0  0
 12 36  1  0  0  0  0
 13 14  1  0  0  0  0
 13 18  1  0  0  0  0
 14 15  1  0  0  0  0
 14 37  1  0  0  0  0
 14 38  1  0  0  0  0
 15 16  1  0  0  0  0
 15 17  1  0  0  0  0
 15 39  1  0  0  0  0
 16 40  1  0  0  0  0
 16 41  1  0  0  0  0
 16 42  1  0  0  0  0
 17 43  1  0  0  0  0
 17 44  1  0  0  0  0
 17 45  1  0  0  0  0
 18 19  1  0  0  0  0
 18 46  1  0  0  0  0
 18 47  1  0  0  0  0
 19 20  1  0  0  0  0
 19 48  1  0  0  0  0
 19 49  1  0  0  0  0
 21 22  2  0  0  0  0
 21 23  1  0  0  0  0
 23 50  1  0  0  0  0
M  END
> <s_m_source_file>
AV-unprocessed.smi

> <i_m_source_file_index>
712

> <i_lp_mmshare_version>
43012

> <i_f3d_flags>
0

> <s_epik_input>
W0NIM11jMVtjSF1bY0hdbihjKD1PKVtjSF0xKVtDSDJdQyg9TylbTkhdW0NIMl1bQ0BASF0yW0NIMl1OKFtDSDJdW0NIMl1PMilbQ0gyXVtDSF0oW0NIM10pW0NIM10=

> <s_epik_cmdline>
J2VwaWtfcHl0aG9uJywgJy1waCcsICc3LjAnLCAnLXRuJywgJzgnLCAnLW1hJywgJzIwMCcsICctbWV0YWxfYmluZGluZycsICctaW1hZScsICc8aW5maWxlLm1hZT4nLCAnLW9tYWUnLCAnPG91dGZpbGUubWFlPic=

> <r_lp_tautomer_probability>
1

> <r_epik_Ionization_Penalty>
1.11669

> <r_epik_Ionization_Penalty_Charging>
4.93496e-07

> <r_epik_Ionization_Penalty_Neutral>
1.11669

> <r_epik_State_Penalty>
1.17516

> <r_epik_Charging_Adjusted_Penalty>
1.17516

> <i_epik_Tot_Q>
0

> <i_epik_Tot_abs_Q>
0

> <r_epik_Metal_State_Penalty>
1.17513

> <b_epik_Metal_Only>
0

> <s_lp_Force_Field>
OPLS_2005

> <r_lp_Energy>
32.9939

> <b_lp_Chiralities_Consistent>
1

> <s_lp_Variant>
AV-unprocessed.smi:712-5

> <Gold.Version>
5.8.1

> <Gold.Id.Protein>
6NUR|6NUR_protein|mol2

> <Gold.PLP.Fitness>
48.1710

> <Gold.PLP.PLP>
-46.5340

> <Gold.PLP.part.hbond>
-1.0667

> <Gold.PLP.part.metal>
0.0000

> <Gold.PLP.part.buried>
-6.1782

> <Gold.PLP.part.nonpolar>
-38.6340

> <Gold.PLP.part.repulsive>
0.1328

> <Gold.PLP.ligand.clash>
0.0000

> <Gold.PLP.ligand.torsion>
0.7295

> <Gold.PLP.Chemscore.Hbond>
1.0000

> <Gold.PLP.Chemscore.CHOScore>
0.0000

> <Gold.PLP.Chemscore.Metal>
0.0000

> <Gold.Chemscore.Hbonds>
donor molecule, donor type, donor heavy atom, donor atom, acceptor molecule, acceptor atom, score
      P1  H  7997  8009       L1     8  1.00

> <Gold.PLP.Chemscore.Internal.Correction>
0.0960

> <Gold.Rescore>
     Score         DG    S(hbond)    S(metal)    S(lipo)     H(rot)  DE(clash)    DE(int)     intcor
     16.14     -16.63       0.99        0.00     106.83       1.82       0.02       0.47       ----

> <Gold.Chemscore.Fitness>
16.1365

> <Gold.Chemscore.DG>
-16.6306

> <Gold.Chemscore.ZeroCoef>
-5.4800

> <Gold.Chemscore.Hbond>
0.9944

> <Gold.Chemscore.Metal>
0.0000

> <Gold.Chemscore.Lipo>
106.8325

> <Gold.Chemscore.Internal_Hbond>
0.0000

> <Gold.Chemscore.DEClash>
0.0195

> <Gold.Chemscore.DEInternal>
0.4746

> <Gold.Chemscore.Rot>
1.8243

> <Gold.Chemscore.Internal.Correction>
   9.000000E+99

> <Gold.Chemscore.Hbonds>
donor molecule, donor type, donor heavy atom, donor atom, acceptor molecule, acceptor atom, score
      P1  H  7997  8009       L1     8  1.00

> <Gold.Chemscore.Hbond.Weighted>
-3.3214

> <Gold.Chemscore.Metal.Weighted>
-0.0000

> <Gold.Chemscore.Lipo.Weighted>
-12.4994

> <Gold.Chemscore.Internal_Hbond.Weighted>
0.0000

> <Gold.Chemscore.DEClash.Weighted>
0.0195

> <Gold.Chemscore.DEInternal.Weighted>
0.4746

> <Gold.Chemscore.Rot.Weighted>
4.6703

> <Gold.Chemscore.Internal.Correction.Weighted>
   9.000000E+99

> <Gold.Protein.RotatedTorsions>
[ 6907 6896 6895 6894 ] final  -91.37 input  -60.11 | X-H torsion
[ 7974 7965 7964 7962 ] final  112.89 input  175.53 | X-H torsion
[ 8008 7997 7996 7995 ] final  155.13 input   59.86 | X-H torsion
[ 10167 10162 10161 10158 ] final   68.02 input  -65.29 | X-H torsion
[ 10718 10713 10712 10709 ] final  176.10 input   66.30 | X-H torsion
[ 10763 10752 10751 10750 ] final -101.73 input  -60.55 | X-H torsion
[ 11005 11000 10999 10996 ] final   41.98 input  -57.11 | X-H torsion

> <Gold.Protein.ActiveResidues>
 VAL166  LYS551  ARG553  GLY616  TRP617  ASP618  TYR619  PRO620  LYS621  CYS622 
 ASP623  PHE694  ASN695  SER759  ASP760  ASP761  ALA762  ILE779  LEU786  VAL792 
 PHE793  MET794  SER795  GLU796  ALA797  LYS798  CYS799  TRP800  GLU811  SER814 

> <Gold.Protein.RotatedAtoms>
  150.6892  134.2288  159.4425 H   0  0  0  0  0  0  0  0  0  0  0  0  # atno 6907 bound_to 6896
  152.0240  134.9804  160.0580 H   0  0  0  0  0  0  0  0  0  0  0  0  # atno 6908 bound_to 6896
  152.1370  133.4406  159.4785 H   0  0  0  0  0  0  0  0  0  0  0  0  # atno 6909 bound_to 6896
  145.2238  139.2850  143.4204 H   0  0  0  0  0  0  0  0  0  0  0  0  # atno 7974 bound_to 7965
  156.2495  140.1948  156.6753 H   0  0  0  0  0  0  0  0  0  0  0  0  # atno 8008 bound_to 7997
  154.6362  140.0589  156.9817 H   0  0  0  0  0  0  0  0  0  0  0  0  # atno 8009 bound_to 7997
  155.1633  140.3262  155.4409 H   0  0  0  0  0  0  0  0  0  0  0  0  # atno 8010 bound_to 7997
  140.0832  144.5053  150.7148 H   0  0  0  0  0  0  0  0  0  0  0  0  # atno 10167 bound_to 10162
  156.9251  130.9953  151.2997 H   0  0  0  0  0  0  0  0  0  0  0  0  # atno 10718 bound_to 10713
  154.7680  135.4887  153.9592 H   0  0  0  0  0  0  0  0  0  0  0  0  # atno 10763 bound_to 10752
  153.1331  135.6757  153.9153 H   0  0  0  0  0  0  0  0  0  0  0  0  # atno 10764 bound_to 10752
  153.8850  135.3127  155.3425 H   0  0  0  0  0  0  0  0  0  0  0  0  # atno 10765 bound_to 10752
  140.1782  134.4136  155.8216 H   0  0  0  0  0  0  0  0  0  0  0  0  # atno 11005 bound_to 11000
  146.3369  140.2552  142.8600 LP  0  0  0  0  0  0  0  0  0  0  0  0  # atno 17320 bound_to 7965
  144.9740  140.8396  143.5438 LP  0  0  0  0  0  0  0  0  0  0  0  0  # atno 17321 bound_to 7965
  140.7067  143.2473  151.4705 LP  0  0  0  0  0  0  0  0  0  0  0  0  # atno 17342 bound_to 10162
  139.5767  144.1802  152.1913 LP  0  0  0  0  0  0  0  0  0  0  0  0  # atno 17343 bound_to 10162
  157.5883  130.8425  149.8621 LP  0  0  0  0  0  0  0  0  0  0  0  0  # atno 17370 bound_to 10713
  156.0473  130.3725  150.1287 LP  0  0  0  0  0  0  0  0  0  0  0  0  # atno 17371 bound_to 10713
  141.2221  133.6988  156.7884 LP  0  0  0  0  0  0  0  0  0  0  0  0  # atno 17394 bound_to 11000
  140.2298  134.8694  157.3464 LP  0  0  0  0  0  0  0  0  0  0  0  0  # atno 17395 bound_to 11000

$$$$
