AV-unprocessed.smi:686|AV-procd|sdf|3338|dock7
  -GOLD-   22720 0313D 1   1.00000     0.00000
 Structure written by MMmdl.
 41 42  0  0  0  0  0  0  0  0  2 V2000
  150.7471  133.9633  156.0878 C   0  0  0  0  0  0  0  0  0  0  0  0
  149.6947  134.4338  155.0696 C   0  0  1  0  0  0  0  0  0  0  0  0
  149.3990  133.4472  153.9427 C   0  0  0  0  0  0  0  0  0  0  0  0
  148.1411  133.9267  153.3268 N   0  3  1  0  0  0  0  0  0  0  0  0
  147.3538  132.8982  152.5893 C   0  0  0  0  0  0  0  0  0  0  0  0
  146.1661  133.5211  151.8301 C   0  0  0  0  0  0  0  0  0  0  0  0
  146.8331  131.8076  153.5453 C   0  0  0  0  0  0  0  0  0  0  0  0
  147.3913  134.6601  154.3804 C   0  0  0  0  0  0  0  0  0  0  0  0
  148.2994  134.7474  155.6213 C   0  0  1  0  0  0  0  0  0  0  0  0
  147.8942  133.7549  156.6238 N   0  0  0  0  0  0  0  0  0  0  0  0
  148.4763  133.8986  158.2417 S   0  0  0  0  0  0  0  0  0  0  0  0
  149.0440  132.5937  158.6126 O   0  0  0  0  0  0  0  0  0  0  0  0
  149.3074  135.1105  158.3086 O   0  0  0  0  0  0  0  0  0  0  0  0
  146.9190  134.1616  159.1944 C   0  0  0  0  0  0  0  0  0  0  0  0
  147.1670  135.1174  160.3275 C   0  0  0  0  0  0  0  0  0  0  0  0
  147.1303  134.8601  161.7257 C   0  0  0  0  0  0  0  0  0  0  0  0
  147.4349  136.0696  162.2808 C   0  0  0  0  0  0  0  0  0  0  0  0
  147.6424  136.9978  161.3129 O   0  0  0  0  0  0  0  0  0  0  0  0
  147.4661  136.3816  160.0690 N   0  0  0  0  0  0  0  0  0  0  0  0
  150.4776  133.0094  156.5420 H   0  0  0  0  0  0  0  0  0  0  0  0
  150.8686  134.6930  156.8887 H   0  0  0  0  0  0  0  0  0  0  0  0
  151.7176  133.8331  155.6085 H   0  0  0  0  0  0  0  0  0  0  0  0
  150.0724  135.3495  154.6109 H   0  0  0  0  0  0  0  0  0  0  0  0
  150.2102  133.3983  153.2156 H   0  0  0  0  0  0  0  0  0  0  0  0
  149.2507  132.4476  154.3556 H   0  0  0  0  0  0  0  0  0  0  0  0
  148.0126  132.4290  151.8566 H   0  0  0  0  0  0  0  0  0  0  0  0
  145.5713  132.7506  151.3388 H   0  0  0  0  0  0  0  0  0  0  0  0
  146.4918  134.2093  151.0501 H   0  0  0  0  0  0  0  0  0  0  0  0
  145.5057  134.0666  152.5051 H   0  0  0  0  0  0  0  0  0  0  0  0
  146.2422  131.0663  153.0066 H   0  0  0  0  0  0  0  0  0  0  0  0
  146.1968  132.2336  154.3218 H   0  0  0  0  0  0  0  0  0  0  0  0
  147.6410  131.2679  154.0385 H   0  0  0  0  0  0  0  0  0  0  0  0
  147.1610  135.6569  154.0034 H   0  0  0  0  0  0  0  0  0  0  0  0
  146.4416  134.1783  154.6142 H   0  0  0  0  0  0  0  0  0  0  0  0
  148.2721  135.7398  156.0735 H   0  0  0  0  0  0  0  0  0  0  0  0
  146.8903  133.5743  156.6038 H   0  0  0  0  0  0  0  0  0  0  0  0
  146.1459  134.5229  158.5157 H   0  0  0  0  0  0  0  0  0  0  0  0
  146.5951  133.1939  159.5776 H   0  0  0  0  0  0  0  0  0  0  0  0
  146.9167  133.9350  162.2405 H   0  0  0  0  0  0  0  0  0  0  0  0
  147.5388  136.4142  163.2991 H   0  0  0  0  0  0  0  0  0  0  0  0
  148.4176  134.6240  152.6502 H   0  0  0  0  0  0  0  0  0  0  0  0
  1  2  1  0  0  0  0
  1 20  1  0  0  0  0
  1 21  1  0  0  0  0
  1 22  1  0  0  0  0
  2  9  1  0  0  0  0
  2  3  1  0  0  0  0
  2 23  1  0  0  0  0
  3  4  1  0  0  0  0
  3 24  1  0  0  0  0
  3 25  1  0  0  0  0
  4  5  1  0  0  0  0
  4  8  1  0  0  0  0
  4 41  1  0  0  0  0
  5  6  1  0  0  0  0
  5  7  1  0  0  0  0
  5 26  1  0  0  0  0
  6 27  1  0  0  0  0
  6 28  1  0  0  0  0
  6 29  1  0  0  0  0
  7 30  1  0  0  0  0
  7 31  1  0  0  0  0
  7 32  1  0  0  0  0
  8  9  1  0  0  0  0
  8 33  1  0  0  0  0
  8 34  1  0  0  0  0
  9 10  1  0  0  0  0
  9 35  1  0  0  0  0
 10 11  1  0  0  0  0
 10 36  1  0  0  0  0
 11 12  2  0  0  0  0
 11 13  2  0  0  0  0
 11 14  1  0  0  0  0
 14 15  1  0  0  0  0
 14 37  1  0  0  0  0
 14 38  1  0  0  0  0
 15 19  2  0  0  0  0
 15 16  1  0  0  0  0
 16 17  2  0  0  0  0
 16 39  1  0  0  0  0
 17 18  1  0  0  0  0
 17 40  1  0  0  0  0
 18 19  1  0  0  0  0
M  CHG  1   4   1
M  END
> <s_m_source_file>
AV-unprocessed.smi

> <i_m_source_file_index>
686

> <i_lp_mmshare_version>
43012

> <i_f3d_flags>
0

> <s_epik_input>
W0NIM11bQ0BASF0xW0NIMl1OKFtDSF0oW0NIM10pW0NIM10pW0NIMl1bQ0BIXTFbTkhdUyg9TykoPU8pW0NIMl1jMltjSF1bY0hdb24y

> <s_epik_cmdline>
J2VwaWtfcHl0aG9uJywgJy1waCcsICc3LjAnLCAnLXRuJywgJzgnLCAnLW1hJywgJzIwMCcsICctbWV0YWxfYmluZGluZycsICctaW1hZScsICc8aW5maWxlLm1hZT4nLCAnLW9tYWUnLCAnPG91dGZpbGUubWFlPic=

> <r_epik_Ionization_Penalty>
0.00200818

> <r_epik_Ionization_Penalty_Charging>
0.000701289

> <r_epik_Ionization_Penalty_Neutral>
0.00130689

> <r_epik_State_Penalty>
0.00131314

> <r_epik_Charging_Adjusted_Penalty>
0.00201443

> <i_epik_Tot_Q>
1

> <i_epik_Tot_abs_Q>
1

> <r_epik_Metal_State_Penalty>
0.310831

> <b_epik_Metal_Only>
0

> <s_lp_Force_Field>
OPLS_2005

> <r_lp_Energy>
21.3818

> <b_lp_Chiralities_Consistent>
1

> <s_lp_Variant>
AV-unprocessed.smi:686-2

> <Gold.Version>
5.8.1

> <Gold.Id.Protein>
6NUR|6NUR_protein|mol2

> <Gold.PLP.Fitness>
42.2944

> <Gold.PLP.PLP>
-29.0673

> <Gold.PLP.part.hbond>
-5.0000

> <Gold.PLP.part.metal>
0.0000

> <Gold.PLP.part.buried>
-4.1360

> <Gold.PLP.part.nonpolar>
-19.9483

> <Gold.PLP.part.repulsive>
0.0000

> <Gold.PLP.ligand.clash>
0.0000

> <Gold.PLP.ligand.torsion>
0.7345

> <Gold.PLP.Chemscore.Hbond>
4.8406

> <Gold.PLP.Chemscore.CHOScore>
0.0000

> <Gold.PLP.Chemscore.Metal>
0.0000

> <Gold.Chemscore.Hbonds>
donor molecule, donor type, donor heavy atom, donor atom, acceptor molecule, acceptor atom, score
      L1  H     4    41       P1  7948  1.90
      P1  H  6896  6909       L1    13  0.96
      P1  H  6931  6943       L1    18  1.00
      P1  H  6934  6947       L1    18  0.71

> <Gold.PLP.Chemscore.Internal.Correction>
0.1744

> <Gold.Rescore>
     Score         DG    S(hbond)    S(metal)    S(lipo)     H(rot)  DE(clash)    DE(int)     intcor
     14.57     -16.71       2.75        0.00      59.20       1.91       0.00       2.15       ----

> <Gold.Chemscore.Fitness>
14.5659

> <Gold.Chemscore.DG>
-16.7112

> <Gold.Chemscore.ZeroCoef>
-5.4800

> <Gold.Chemscore.Hbond>
2.7539

> <Gold.Chemscore.Metal>
0.0000

> <Gold.Chemscore.Lipo>
59.2038

> <Gold.Chemscore.Internal_Hbond>
0.0000

> <Gold.Chemscore.DEClash>
0.0000

> <Gold.Chemscore.DEInternal>
2.1453

> <Gold.Chemscore.Rot>
1.9115

> <Gold.Chemscore.Internal.Correction>
   9.000000E+99

> <Gold.Chemscore.Hbonds>
donor molecule, donor type, donor heavy atom, donor atom, acceptor molecule, acceptor atom, score
      L1  H     4    41       P1  7948  0.22
      P1  H  6896  6909       L1    13  0.50
      P1  H  6931  6943       L1    18  0.66
      P1  H  6934  6947       L1    18  0.31

> <Gold.Chemscore.Hbond.Weighted>
-9.1979

> <Gold.Chemscore.Metal.Weighted>
-0.0000

> <Gold.Chemscore.Lipo.Weighted>
-6.9268

> <Gold.Chemscore.Internal_Hbond.Weighted>
0.0000

> <Gold.Chemscore.DEClash.Weighted>
0.0000

> <Gold.Chemscore.DEInternal.Weighted>
2.1453

> <Gold.Chemscore.Rot.Weighted>
4.8935

> <Gold.Chemscore.Internal.Correction.Weighted>
   9.000000E+99

> <Gold.Protein.RotatedTorsions>
[ 6907 6896 6895 6894 ] final   61.91 input  -60.11 | X-H torsion
[ 7974 7965 7964 7962 ] final -158.84 input  175.53 | X-H torsion
[ 8008 7997 7996 7995 ] final   69.64 input   59.86 | X-H torsion
[ 10167 10162 10161 10158 ] final   76.68 input  -65.29 | X-H torsion
[ 10718 10713 10712 10709 ] final  -29.22 input   66.30 | X-H torsion
[ 10763 10752 10751 10750 ] final   20.93 input  -60.55 | X-H torsion
[ 11005 11000 10999 10996 ] final  -86.59 input  -57.11 | X-H torsion

> <Gold.Protein.ActiveResidues>
 VAL166  LYS551  ARG553  GLY616  TRP617  ASP618  TYR619  PRO620  LYS621  CYS622 
 ASP623  PHE694  ASN695  SER759  ASP760  ASP761  ALA762  ILE779  LEU786  VAL792 
 PHE793  MET794  SER795  GLU796  ALA797  LYS798  CYS799  TRP800  GLU811  SER814 

> <Gold.Protein.RotatedAtoms>
  152.4129  134.6093  160.0021 H   0  0  0  0  0  0  0  0  0  0  0  0  # atno 6907 bound_to 6896
  151.6265  133.3329  159.3107 H   0  0  0  0  0  0  0  0  0  0  0  0  # atno 6908 bound_to 6896
  150.8019  134.7158  159.6674 H   0  0  0  0  0  0  0  0  0  0  0  0  # atno 6909 bound_to 6896
  144.7489  140.3770  143.6063 H   0  0  0  0  0  0  0  0  0  0  0  0  # atno 7974 bound_to 7965
  155.7267  140.3492  155.5040 H   0  0  0  0  0  0  0  0  0  0  0  0  # atno 8008 bound_to 7997
  155.9220  140.1069  157.1221 H   0  0  0  0  0  0  0  0  0  0  0  0  # atno 8009 bound_to 7997
  154.4071  140.1247  156.4679 H   0  0  0  0  0  0  0  0  0  0  0  0  # atno 8010 bound_to 7997
  139.9897  144.5766  150.7829 H   0  0  0  0  0  0  0  0  0  0  0  0  # atno 10167 bound_to 10162
  156.4152  130.4415  149.7223 H   0  0  0  0  0  0  0  0  0  0  0  0  # atno 10718 bound_to 10713
  153.1037  135.6679  153.9626 H   0  0  0  0  0  0  0  0  0  0  0  0  # atno 10763 bound_to 10752
  153.9189  135.3016  155.3449 H   0  0  0  0  0  0  0  0  0  0  0  0  # atno 10764 bound_to 10752
  154.7458  135.5058  153.9277 H   0  0  0  0  0  0  0  0  0  0  0  0  # atno 10765 bound_to 10752
  141.1628  133.7463  156.9184 H   0  0  0  0  0  0  0  0  0  0  0  0  # atno 11005 bound_to 11000
  145.7017  139.1663  143.2589 LP  0  0  0  0  0  0  0  0  0  0  0  0  # atno 17320 bound_to 7965
  146.1410  140.7057  142.9367 LP  0  0  0  0  0  0  0  0  0  0  0  0  # atno 17321 bound_to 7965
  140.7459  143.2883  151.3402 LP  0  0  0  0  0  0  0  0  0  0  0  0  # atno 17342 bound_to 10162
  139.6349  144.0649  152.2507 LP  0  0  0  0  0  0  0  0  0  0  0  0  # atno 17343 bound_to 10162
  156.4186  130.7757  151.2774 LP  0  0  0  0  0  0  0  0  0  0  0  0  # atno 17370 bound_to 10713
  157.7508  131.0189  150.3647 LP  0  0  0  0  0  0  0  0  0  0  0  0  # atno 17371 bound_to 10713
  140.1468  134.9257  157.2540 LP  0  0  0  0  0  0  0  0  0  0  0  0  # atno 17394 bound_to 11000
  140.2770  134.3394  155.7355 LP  0  0  0  0  0  0  0  0  0  0  0  0  # atno 17395 bound_to 11000

$$$$
