AV-unprocessed.smi:561|AV-procd|sdf|2941|dock2
  -GOLD-   2262023443D 1   1.00000     0.00000
 Structure written by MMmdl.
 36 37  0  0  0  0  0  0  0  0  3 V2000
  151.9797  139.3366  154.9352 C   0  0  0  0  0  0  0  0  0  0  0  0
  150.7306  140.2214  155.0459 C   0  0  1  0  0  0  0  0  0  0  0  0
  149.4818  139.5058  154.4683 C   0  0  0  0  0  0  0  0  0  0  0  0
  148.3012  140.3753  154.3082 N   0  0  0  0  0  0  0  0  0  0  0  0
  148.1854  141.6922  154.6806 C   0  0  0  0  0  0  0  0  0  0  0  0
  146.9208  142.0899  154.3325 C   0  0  0  0  0  0  0  0  0  0  0  0
  146.3110  140.9986  153.7750 N   0  3  0  0  0  0  0  0  0  0  0  0
  147.1473  139.9557  153.7676 C   0  0  0  0  0  0  0  0  0  0  0  0
  150.5132  140.5551  156.4583 N   0  5  0  0  0  0  0  0  0  0  0  0
  151.4798  140.5923  157.4234 C   0  0  0  0  0  0  0  0  0  0  0  0
  152.3266  139.7147  157.6418 O   0  0  0  0  0  0  0  0  0  0  0  0
  151.5527  141.8046  158.2912 C   0  0  0  0  0  0  0  0  0  0  0  0
  152.4064  141.8228  159.2664 N   0  0  0  0  0  0  0  0  0  0  0  0
  152.5241  142.8978  160.1227 N   0  0  0  0  0  0  0  0  0  0  0  0
  153.3310  142.6454  161.3149 C   0  0  0  0  0  0  0  0  0  0  0  0
  151.9840  144.1217  159.9027 C   0  0  0  0  0  0  0  0  0  0  0  0
  152.0931  145.0685  160.6822 O   0  0  0  0  0  0  0  0  0  0  0  0
  151.2319  144.3083  158.5829 C   0  0  0  0  0  0  0  0  0  0  0  0
  150.6286  142.9895  158.0609 C   0  0  0  0  0  0  0  0  0  0  0  0
  152.1808  139.0725  153.8967 H   0  0  0  0  0  0  0  0  0  0  0  0
  151.8641  138.4087  155.4968 H   0  0  0  0  0  0  0  0  0  0  0  0
  152.8620  139.8509  155.3180 H   0  0  0  0  0  0  0  0  0  0  0  0
  150.9149  141.1108  154.4415 H   0  0  0  0  0  0  0  0  0  0  0  0
  149.7112  139.0864  153.4879 H   0  0  0  0  0  0  0  0  0  0  0  0
  149.1926  138.6670  155.1034 H   0  0  0  0  0  0  0  0  0  0  0  0
  148.9998  142.2351  155.1384 H   0  0  0  0  0  0  0  0  0  0  0  0
  146.4236  143.0431  154.4361 H   0  0  0  0  0  0  0  0  0  0  0  0
  146.9399  138.9722  153.3855 H   0  0  0  0  0  0  0  0  0  0  0  0
  154.2199  143.2778  161.3164 H   0  0  0  0  0  0  0  0  0  0  0  0
  153.6634  141.6074  161.3720 H   0  0  0  0  0  0  0  0  0  0  0  0
  152.7589  142.8567  162.2196 H   0  0  0  0  0  0  0  0  0  0  0  0
  150.4531  145.0629  158.6970 H   0  0  0  0  0  0  0  0  0  0  0  0
  151.9434  144.6984  157.8543 H   0  0  0  0  0  0  0  0  0  0  0  0
  150.4165  143.1189  156.9990 H   0  0  0  0  0  0  0  0  0  0  0  0
  149.6708  142.7979  158.5458 H   0  0  0  0  0  0  0  0  0  0  0  0
  145.3658  140.9816  153.4136 H   0  0  0  0  0  0  0  0  0  0  0  0
  1  2  1  0  0  0  0
  1 20  1  0  0  0  0
  1 21  1  0  0  0  0
  1 22  1  0  0  0  0
  2  3  1  0  0  0  0
  2  9  1  0  0  0  0
  2 23  1  0  0  0  0
  3  4  1  0  0  0  0
  3 24  1  0  0  0  0
  3 25  1  0  0  0  0
  4  8  1  0  0  0  0
  4  5  1  0  0  0  0
  5  6  2  0  0  0  0
  5 26  1  0  0  0  0
  6  7  1  0  0  0  0
  6 27  1  0  0  0  0
  7  8  2  0  0  0  0
  7 36  1  0  0  0  0
  8 28  1  0  0  0  0
  9 10  1  0  0  0  0
 10 11  2  0  0  0  0
 10 12  1  0  0  0  0
 12 19  1  0  0  0  0
 12 13  2  0  0  0  0
 13 14  1  0  0  0  0
 14 15  1  0  0  0  0
 14 16  1  0  0  0  0
 15 29  1  0  0  0  0
 15 30  1  0  0  0  0
 15 31  1  0  0  0  0
 16 17  2  0  0  0  0
 16 18  1  0  0  0  0
 18 19  1  0  0  0  0
 18 32  1  0  0  0  0
 18 33  1  0  0  0  0
 19 34  1  0  0  0  0
 19 35  1  0  0  0  0
M  CHG  1   7   1
M  CHG  1   9  -1
M  END
> <s_m_source_file>
AV-unprocessed.smi

> <i_m_source_file_index>
561

> <i_lp_mmshare_version>
43012

> <i_f3d_flags>
0

> <s_epik_input>
W2NIXTFuW2NIXVtjSF1uMVtDSDJdW0NAQEhdKFtDSDNdKVtOSF1DKD1PKUMyPU5OKFtDSDNdKUMoPU8pW0NIMl1bQ0gyXTI=

> <s_epik_cmdline>
J2VwaWtfcHl0aG9uJywgJy1waCcsICc3LjAnLCAnLXRuJywgJzgnLCAnLW1hJywgJzIwMCcsICctbWV0YWxfYmluZGluZycsICctaW1hZScsICc8aW5maWxlLm1hZT4nLCAnLW9tYWUnLCAnPG91dGZpbGUubWFlPic=

> <r_lp_tautomer_probability>
1

> <r_epik_Ionization_Penalty>
5.37239

> <r_epik_Ionization_Penalty_Charging>
5.18263

> <r_epik_Ionization_Penalty_Neutral>
0.189756

> <r_epik_State_Penalty>
5.53772

> <r_epik_Charging_Adjusted_Penalty>
10.7204

> <i_epik_Tot_Q>
0

> <i_epik_Tot_abs_Q>
2

> <r_epik_Metal_State_Penalty>
1.80836

> <b_epik_Metal_Only>
1

> <s_epik_Chemistry_Notes>
This compound has an imine and may undergo hydrolysis.

> <s_lp_Force_Field>
OPLS_2005

> <r_lp_Energy>
21.245

> <b_lp_Chiralities_Consistent>
1

> <s_lp_Variant>
AV-unprocessed.smi:561-6

> <Gold.Version>
5.8.1

> <Gold.Id.Protein>
6NUR|6NUR_protein|mol2

> <Gold.PLP.Fitness>
48.4410

> <Gold.PLP.PLP>
-41.6133

> <Gold.PLP.part.hbond>
-1.0000

> <Gold.PLP.part.metal>
0.0000

> <Gold.PLP.part.buried>
-2.3587

> <Gold.PLP.part.nonpolar>
-38.0424

> <Gold.PLP.part.repulsive>
0.2398

> <Gold.PLP.ligand.clash>
0.0000

> <Gold.PLP.ligand.torsion>
0.8671

> <Gold.PLP.Chemscore.Hbond>
2.0000

> <Gold.PLP.Chemscore.CHOScore>
0.7959

> <Gold.PLP.Chemscore.Metal>
0.0000

> <Gold.Chemscore.Hbonds>
donor molecule, donor type, donor heavy atom, donor atom, acceptor molecule, acceptor atom, score
      L1  H     7    36       P1 10175  2.00
      L1  C     5    26       P1  8028  0.84

> <Gold.PLP.Chemscore.Internal.Correction>
0.1742

> <Gold.Rescore>
     Score         DG    S(hbond)    S(metal)    S(lipo)     H(rot)  DE(clash)    DE(int)     intcor
     10.81     -13.15       0.99        0.00      75.21       1.73       0.02       2.31       ----

> <Gold.Chemscore.Fitness>
10.8116

> <Gold.Chemscore.DG>
-13.1477

> <Gold.Chemscore.ZeroCoef>
-5.4800

> <Gold.Chemscore.Hbond>
0.9869

> <Gold.Chemscore.Metal>
0.0000

> <Gold.Chemscore.Lipo>
75.2139

> <Gold.Chemscore.Internal_Hbond>
0.0000

> <Gold.Chemscore.DEClash>
0.0239

> <Gold.Chemscore.DEInternal>
2.3123

> <Gold.Chemscore.Rot>
1.7299

> <Gold.Chemscore.Internal.Correction>
   9.000000E+99

> <Gold.Chemscore.Hbonds>
donor molecule, donor type, donor heavy atom, donor atom, acceptor molecule, acceptor atom, score
      L1  H     7    36       P1 10175  0.59

> <Gold.Chemscore.Hbond.Weighted>
-3.2964

> <Gold.Chemscore.Metal.Weighted>
-0.0000

> <Gold.Chemscore.Lipo.Weighted>
-8.8000

> <Gold.Chemscore.Internal_Hbond.Weighted>
0.0000

> <Gold.Chemscore.DEClash.Weighted>
0.0239

> <Gold.Chemscore.DEInternal.Weighted>
2.3123

> <Gold.Chemscore.Rot.Weighted>
4.4286

> <Gold.Chemscore.Internal.Correction.Weighted>
   9.000000E+99

> <Gold.Protein.RotatedTorsions>
[ 6907 6896 6895 6894 ] final   -4.26 input  -60.11 | X-H torsion
[ 7974 7965 7964 7962 ] final  -41.86 input  175.53 | X-H torsion
[ 8008 7997 7996 7995 ] final  105.89 input   59.86 | X-H torsion
[ 10167 10162 10161 10158 ] final  -74.41 input  -65.29 | X-H torsion
[ 10718 10713 10712 10709 ] final   33.21 input   66.30 | X-H torsion
[ 10763 10752 10751 10750 ] final  -12.59 input  -60.55 | X-H torsion
[ 11005 11000 10999 10996 ] final   14.85 input  -57.11 | X-H torsion

> <Gold.Protein.ActiveResidues>
 VAL166  LYS551  ARG553  GLY616  TRP617  ASP618  TYR619  PRO620  LYS621  CYS622 
 ASP623  PHE694  ASN695  SER759  ASP760  ASP761  ALA762  ILE779  LEU786  VAL792 
 PHE793  MET794  SER795  GLU796  ALA797  LYS798  CYS799  TRP800  GLU811  SER814 

> <Gold.Protein.RotatedAtoms>
  151.5006  135.1061  159.9827 H   0  0  0  0  0  0  0  0  0  0  0  0  # atno 6907 bound_to 6896
  152.4703  133.8011  159.6964 H   0  0  0  0  0  0  0  0  0  0  0  0  # atno 6908 bound_to 6896
  150.8709  133.7444  159.2987 H   0  0  0  0  0  0  0  0  0  0  0  0  # atno 6909 bound_to 6896
  146.0171  140.6895  142.9196 H   0  0  0  0  0  0  0  0  0  0  0  0  # atno 7974 bound_to 7965
  156.1697  140.3122  155.8952 H   0  0  0  0  0  0  0  0  0  0  0  0  # atno 8008 bound_to 7997
  155.3612  140.0476  157.3063 H   0  0  0  0  0  0  0  0  0  0  0  0  # atno 8009 bound_to 7997
  154.5229  140.2204  155.8954 H   0  0  0  0  0  0  0  0  0  0  0  0  # atno 8010 bound_to 7997
  140.5029  143.2358  151.7722 H   0  0  0  0  0  0  0  0  0  0  0  0  # atno 10167 bound_to 10162
  157.2950  130.7322  149.6633 H   0  0  0  0  0  0  0  0  0  0  0  0  # atno 10718 bound_to 10713
  153.5007  135.7017  153.5833 H   0  0  0  0  0  0  0  0  0  0  0  0  # atno 10763 bound_to 10752
  153.3966  135.3882  155.1959 H   0  0  0  0  0  0  0  0  0  0  0  0  # atno 10764 bound_to 10752
  154.8711  135.3871  154.4477 H   0  0  0  0  0  0  0  0  0  0  0  0  # atno 10765 bound_to 10752
  140.4649  134.1089  155.7722 H   0  0  0  0  0  0  0  0  0  0  0  0  # atno 11005 bound_to 11000
  144.6975  140.3500  143.7183 LP  0  0  0  0  0  0  0  0  0  0  0  0  # atno 17320 bound_to 7965
  145.7252  139.1720  143.2462 LP  0  0  0  0  0  0  0  0  0  0  0  0  # atno 17321 bound_to 7965
  139.4876  144.4497  151.9668 LP  0  0  0  0  0  0  0  0  0  0  0  0  # atno 17342 bound_to 10162
  140.3587  144.3000  150.5937 LP  0  0  0  0  0  0  0  0  0  0  0  0  # atno 17343 bound_to 10162
  155.9669  130.4297  150.4845 LP  0  0  0  0  0  0  0  0  0  0  0  0  # atno 17370 bound_to 10713
  157.2815  131.0608  151.2195 LP  0  0  0  0  0  0  0  0  0  0  0  0  # atno 17371 bound_to 10713
  141.1604  133.8804  157.1864 LP  0  0  0  0  0  0  0  0  0  0  0  0  # atno 17394 bound_to 11000
  139.9921  135.0060  157.0000 LP  0  0  0  0  0  0  0  0  0  0  0  0  # atno 17395 bound_to 11000

$$$$
