AV-unprocessed.smi:1971|AV-procd|sdf|7971|dock6
  -GOLD-   2272010143D 1   1.00000     0.00000
 Structure written by MMmdl.
 43 44  0  0  0  0  0  0  0  0  3 V2000
  143.8848  132.4340  150.2867 C   0  0  0  0  0  0  0  0  0  0  0  0
  144.2047  133.4743  151.3701 C   0  0  0  0  0  0  0  0  0  0  0  0
  145.3471  134.3145  151.0022 N   0  0  0  0  0  0  0  0  0  0  0  0
  145.6256  135.4190  151.9272 C   0  0  0  0  0  0  0  0  0  0  0  0
  146.1743  134.9236  153.2818 C   0  0  0  0  0  0  0  0  0  0  0  0
  147.4045  134.1205  153.0749 N   0  3  0  0  0  0  0  0  0  0  0  0
  148.1073  133.7585  154.3390 C   0  0  1  0  0  0  0  0  0  0  0  0
  149.4122  132.9665  154.1034 C   0  0  0  0  0  0  0  0  0  0  0  0
  148.3190  135.0131  155.2172 C   0  0  0  0  0  0  0  0  0  0  0  0
  148.7824  134.6830  156.5609 N   0  0  0  0  0  0  0  0  0  0  0  0
  148.3084  135.2033  157.7017 C   0  0  0  0  0  0  0  0  0  0  0  0
  147.4166  136.0542  157.6647 O   0  0  0  0  0  0  0  0  0  0  0  0
  148.8927  134.6999  158.8115 N   0  5  0  0  0  0  0  0  0  0  0  0
  148.2514  134.7506  159.9904 C   0  0  0  0  0  0  0  0  0  0  0  0
  147.7632  133.6644  160.6005 N   0  0  0  0  0  0  0  0  0  0  0  0
  147.1403  133.9443  161.8181 C   0  0  0  0  0  0  0  0  0  0  0  0
  147.1621  135.2739  162.1467 C   0  0  0  0  0  0  0  0  0  0  0  0
  147.9699  136.2195  160.9291 S   0  0  0  0  0  0  0  0  0  0  0  0
  147.1381  132.9982  152.1384 C   0  0  0  0  0  0  0  0  0  0  0  0
  146.5744  133.5378  150.8071 C   0  0  0  0  0  0  0  0  0  0  0  0
  143.1171  131.7440  150.6370 H   0  0  0  0  0  0  0  0  0  0  0  0
  144.7657  131.8437  150.0326 H   0  0  0  0  0  0  0  0  0  0  0  0
  143.5087  132.8942  149.3733 H   0  0  0  0  0  0  0  0  0  0  0  0
  143.3204  134.0700  151.5931 H   0  0  0  0  0  0  0  0  0  0  0  0
  144.4538  132.9374  152.2863 H   0  0  0  0  0  0  0  0  0  0  0  0
  146.3601  136.0777  151.4616 H   0  0  0  0  0  0  0  0  0  0  0  0
  144.7354  136.0284  152.0775 H   0  0  0  0  0  0  0  0  0  0  0  0
  146.4050  135.7894  153.9033 H   0  0  0  0  0  0  0  0  0  0  0  0
  145.4242  134.3461  153.8218 H   0  0  0  0  0  0  0  0  0  0  0  0
  147.4321  133.1033  154.8906 H   0  0  0  0  0  0  0  0  0  0  0  0
  149.8123  132.5834  155.0426 H   0  0  0  0  0  0  0  0  0  0  0  0
  150.1875  133.5870  153.6537 H   0  0  0  0  0  0  0  0  0  0  0  0
  149.2511  132.1057  153.4549 H   0  0  0  0  0  0  0  0  0  0  0  0
  149.0652  135.6711  154.7731 H   0  0  0  0  0  0  0  0  0  0  0  0
  147.3972  135.5936  155.2824 H   0  0  0  0  0  0  0  0  0  0  0  0
  149.5147  133.9921  156.6372 H   0  0  0  0  0  0  0  0  0  0  0  0
  146.7092  133.1342  162.3870 H   0  0  0  0  0  0  0  0  0  0  0  0
  146.7561  135.7521  163.0253 H   0  0  0  0  0  0  0  0  0  0  0  0
  148.0605  132.4548  151.9362 H   0  0  0  0  0  0  0  0  0  0  0  0
  146.4447  132.2821  152.5798 H   0  0  0  0  0  0  0  0  0  0  0  0
  146.3846  132.7169  150.1146 H   0  0  0  0  0  0  0  0  0  0  0  0
  147.3183  134.1755  150.3278 H   0  0  0  0  0  0  0  0  0  0  0  0
  148.0400  134.7392  152.5915 H   0  0  0  0  0  0  0  0  0  0  0  0
  1  2  1  0  0  0  0
  1 21  1  0  0  0  0
  1 22  1  0  0  0  0
  1 23  1  0  0  0  0
  2  3  1  0  0  0  0
  2 24  1  0  0  0  0
  2 25  1  0  0  0  0
  3 20  1  0  0  0  0
  3  4  1  0  0  0  0
  4  5  1  0  0  0  0
  4 26  1  0  0  0  0
  4 27  1  0  0  0  0
  5  6  1  0  0  0  0
  5 28  1  0  0  0  0
  5 29  1  0  0  0  0
  6  7  1  0  0  0  0
  6 19  1  0  0  0  0
  6 43  1  0  0  0  0
  7  8  1  0  0  0  0
  7  9  1  0  0  0  0
  7 30  1  0  0  0  0
  8 31  1  0  0  0  0
  8 32  1  0  0  0  0
  8 33  1  0  0  0  0
  9 10  1  0  0  0  0
  9 34  1  0  0  0  0
  9 35  1  0  0  0  0
 10 11  1  0  0  0  0
 10 36  1  0  0  0  0
 11 12  2  0  0  0  0
 11 13  1  0  0  0  0
 13 14  1  0  0  0  0
 14 18  1  0  0  0  0
 14 15  2  0  0  0  0
 15 16  1  0  0  0  0
 16 17  2  0  0  0  0
 16 37  1  0  0  0  0
 17 18  1  0  0  0  0
 17 38  1  0  0  0  0
 19 20  1  0  0  0  0
 19 39  1  0  0  0  0
 19 40  1  0  0  0  0
 20 41  1  0  0  0  0
 20 42  1  0  0  0  0
M  CHG  1   6   1
M  CHG  1  13  -1
M  END
> <s_m_source_file>
AV-unprocessed.smi

> <i_m_source_file_index>
1971

> <i_lp_mmshare_version>
43012

> <i_f3d_flags>
0

> <s_epik_input>
W0NIM11bQ0gyXU4xW0NIMl1bQ0gyXU4oW0NIMl1bQ0gyXTEpW0NASF0oW0NIM10pW0NIMl1bTkhdQyg9TylbTkhdYzJuW2NIXVtjSF1zMg==

> <s_epik_cmdline>
J2VwaWtfcHl0aG9uJywgJy1waCcsICc3LjAnLCAnLXRuJywgJzgnLCAnLW1hJywgJzIwMCcsICctbWV0YWxfYmluZGluZycsICctaW1hZScsICc8aW5maWxlLm1hZT4nLCAnLW9tYWUnLCAnPG91dGZpbGUubWFlPic=

> <r_epik_Ionization_Penalty>
6.3441

> <r_epik_Ionization_Penalty_Charging>
5.51153

> <r_epik_Ionization_Penalty_Neutral>
0.832567

> <r_epik_State_Penalty>
6.33945

> <r_epik_Charging_Adjusted_Penalty>
11.851

> <i_epik_Tot_Q>
0

> <i_epik_Tot_abs_Q>
2

> <r_epik_Metal_State_Penalty>
2.34542

> <b_epik_Metal_Only>
1

> <s_lp_Force_Field>
OPLS_2005

> <r_lp_Energy>
10.682

> <b_lp_Chiralities_Consistent>
1

> <s_lp_Variant>
AV-unprocessed.smi:1971-10

> <Gold.Version>
5.8.1

> <Gold.Id.Protein>
6NUR|6NUR_protein|mol2

> <Gold.PLP.Fitness>
43.1635

> <Gold.PLP.PLP>
-32.8302

> <Gold.PLP.part.hbond>
-2.0000

> <Gold.PLP.part.metal>
0.0000

> <Gold.PLP.part.buried>
-5.1260

> <Gold.PLP.part.nonpolar>
-25.7604

> <Gold.PLP.part.repulsive>
0.1991

> <Gold.PLP.ligand.clash>
0.0000

> <Gold.PLP.ligand.torsion>
0.9460

> <Gold.PLP.Chemscore.Hbond>
4.0000

> <Gold.PLP.Chemscore.CHOScore>
0.0000

> <Gold.PLP.Chemscore.Metal>
0.0000

> <Gold.Chemscore.Hbonds>
donor molecule, donor type, donor heavy atom, donor atom, acceptor molecule, acceptor atom, score
      L1  H     6    43       P1  7948  2.00
      P1  H  6896  6907       L1    13  2.00

> <Gold.PLP.Chemscore.Internal.Correction>
0.2252

> <Gold.Rescore>
     Score         DG    S(hbond)    S(metal)    S(lipo)     H(rot)  DE(clash)    DE(int)     intcor
     13.94     -15.11       1.73        0.00      71.21       1.75       0.08       1.08       ----

> <Gold.Chemscore.Fitness>
13.9414

> <Gold.Chemscore.DG>
-15.1058

> <Gold.Chemscore.ZeroCoef>
-5.4800

> <Gold.Chemscore.Hbond>
1.7292

> <Gold.Chemscore.Metal>
0.0000

> <Gold.Chemscore.Lipo>
71.2105

> <Gold.Chemscore.Internal_Hbond>
0.0000

> <Gold.Chemscore.DEClash>
0.0850

> <Gold.Chemscore.DEInternal>
1.0794

> <Gold.Chemscore.Rot>
1.7505

> <Gold.Chemscore.Internal.Correction>
   9.000000E+99

> <Gold.Chemscore.Hbonds>
donor molecule, donor type, donor heavy atom, donor atom, acceptor molecule, acceptor atom, score
      L1  H     6    43       P1  7948  0.65
      P1  H  6896  6907       L1    13  0.29

> <Gold.Chemscore.Hbond.Weighted>
-5.7755

> <Gold.Chemscore.Metal.Weighted>
-0.0000

> <Gold.Chemscore.Lipo.Weighted>
-8.3316

> <Gold.Chemscore.Internal_Hbond.Weighted>
0.0000

> <Gold.Chemscore.DEClash.Weighted>
0.0850

> <Gold.Chemscore.DEInternal.Weighted>
1.0794

> <Gold.Chemscore.Rot.Weighted>
4.4813

> <Gold.Chemscore.Internal.Correction.Weighted>
   9.000000E+99

> <Gold.Protein.RotatedTorsions>
[ 6907 6896 6895 6894 ] final -103.10 input  -60.11 | X-H torsion
[ 7974 7965 7964 7962 ] final   74.50 input  175.53 | X-H torsion
[ 8008 7997 7996 7995 ] final -143.95 input   59.86 | X-H torsion
[ 10167 10162 10161 10158 ] final -169.20 input  -65.29 | X-H torsion
[ 10718 10713 10712 10709 ] final   -6.89 input   66.30 | X-H torsion
[ 10763 10752 10751 10750 ] final  177.50 input  -60.55 | X-H torsion
[ 11005 11000 10999 10996 ] final   -9.15 input  -57.11 | X-H torsion

> <Gold.Protein.ActiveResidues>
 VAL166  LYS551  ARG553  GLY616  TRP617  ASP618  TYR619  PRO620  LYS621  CYS622 
 ASP623  PHE694  ASN695  SER759  ASP760  ASP761  ALA762  ILE779  LEU786  VAL792 
 PHE793  MET794  SER795  GLU796  ALA797  LYS798  CYS799  TRP800  GLU811  SER814 

> <Gold.Protein.RotatedAtoms>
  150.7225  134.0480  159.3788 H   0  0  0  0  0  0  0  0  0  0  0  0  # atno 6907 bound_to 6896
  151.8456  135.0573  160.0462 H   0  0  0  0  0  0  0  0  0  0  0  0  # atno 6908 bound_to 6896
  152.2829  133.5452  159.5545 H   0  0  0  0  0  0  0  0  0  0  0  0  # atno 6909 bound_to 6896
  145.7274  139.2671  143.1561 H   0  0  0  0  0  0  0  0  0  0  0  0  # atno 7974 bound_to 7965
  155.5189  140.0590  157.2910 H   0  0  0  0  0  0  0  0  0  0  0  0  # atno 8008 bound_to 7997
  154.4525  140.1956  156.0424 H   0  0  0  0  0  0  0  0  0  0  0  0  # atno 8009 bound_to 7997
  156.0732  140.3257  155.7606 H   0  0  0  0  0  0  0  0  0  0  0  0  # atno 8010 bound_to 7997
  139.5937  144.1157  152.1665 H   0  0  0  0  0  0  0  0  0  0  0  0  # atno 10167 bound_to 10162
  156.7253  130.5163  149.5858 H   0  0  0  0  0  0  0  0  0  0  0  0  # atno 10718 bound_to 10713
  154.4953  135.2781  155.1464 H   0  0  0  0  0  0  0  0  0  0  0  0  # atno 10763 bound_to 10752
  154.3119  135.6227  153.5473 H   0  0  0  0  0  0  0  0  0  0  0  0  # atno 10764 bound_to 10752
  152.9894  135.5722  154.5384 H   0  0  0  0  0  0  0  0  0  0  0  0  # atno 10765 bound_to 10752
  140.7310  133.8749  155.8893 H   0  0  0  0  0  0  0  0  0  0  0  0  # atno 11005 bound_to 11000
  146.0569  140.8011  142.9754 LP  0  0  0  0  0  0  0  0  0  0  0  0  # atno 17320 bound_to 7965
  144.6901  140.3137  143.7244 LP  0  0  0  0  0  0  0  0  0  0  0  0  # atno 17321 bound_to 7965
  140.0738  144.5758  150.7172 LP  0  0  0  0  0  0  0  0  0  0  0  0  # atno 17342 bound_to 10162
  140.7194  143.2575  151.4327 LP  0  0  0  0  0  0  0  0  0  0  0  0  # atno 17343 bound_to 10162
  156.1566  130.6346  151.0665 LP  0  0  0  0  0  0  0  0  0  0  0  0  # atno 17370 bound_to 10713
  157.6881  131.0818  150.7185 LP  0  0  0  0  0  0  0  0  0  0  0  0  # atno 17371 bound_to 10713
  140.9920  134.1265  157.4399 LP  0  0  0  0  0  0  0  0  0  0  0  0  # atno 17394 bound_to 11000
  139.8826  135.0043  156.6243 LP  0  0  0  0  0  0  0  0  0  0  0  0  # atno 17395 bound_to 11000

$$$$
