AV-unprocessed.smi:1135|AV-procd|sdf|4858|dock8
  -GOLD-   22720 3433D 1   1.00000     0.00000
 Structure written by MMmdl.
 45 46  0  0  0  0  0  0  0  0  1 V2000
  150.5998  142.1916  156.9609 C   0  0  0  0  0  0  0  0  0  0  0  0
  149.5158  141.3926  156.2238 C   0  0  2  0  0  0  0  0  0  0  0  0
  149.4938  141.7280  154.7236 C   0  0  0  0  0  0  0  0  0  0  0  0
  148.4027  140.9382  153.9795 C   0  0  0  0  0  0  0  0  0  0  0  0
  146.9828  141.1121  154.5763 C   0  0  1  0  0  0  0  0  0  0  0  0
  146.4407  142.5290  154.2679 C   0  0  0  0  0  0  0  0  0  0  0  0
  146.1424  140.1041  153.9156 N   0  0  0  0  0  0  0  0  0  0  0  0
  146.2728  138.7668  153.9316 C   0  0  0  0  0  0  0  0  0  0  0  0
  147.1572  138.1554  154.5313 O   0  0  0  0  0  0  0  0  0  0  0  0
  145.3113  138.1709  153.2129 N   0  0  0  0  0  0  0  0  0  0  0  0
  145.1618  136.7290  153.0536 C   0  0  0  0  0  0  0  0  0  0  0  0
  145.5211  136.2807  151.6273 C   0  0  0  0  0  0  0  0  0  0  0  0
  145.3020  134.7942  151.4178 C   0  0  0  0  0  0  0  0  0  0  0  0
  146.3993  133.9188  151.2713 C   0  0  0  0  0  0  0  0  0  0  0  0
  146.1425  132.5478  151.0760 C   0  0  0  0  0  0  0  0  0  0  0  0
  144.8056  132.1077  151.0327 C   0  0  0  0  0  0  0  0  0  0  0  0
  143.7806  133.0623  151.1873 C   0  0  0  0  0  0  0  0  0  0  0  0
  144.0157  134.3789  151.3770 N   0  0  0  0  0  0  0  0  0  0  0  0
  147.0314  140.8344  156.1038 C   0  0  0  0  0  0  0  0  0  0  0  0
  148.1260  141.6286  156.8379 C   0  0  0  0  0  0  0  0  0  0  0  0
  150.4164  143.2644  156.8925 H   0  0  0  0  0  0  0  0  0  0  0  0
  151.5863  141.9950  156.5402 H   0  0  0  0  0  0  0  0  0  0  0  0
  150.6340  141.9267  158.0180 H   0  0  0  0  0  0  0  0  0  0  0  0
  149.7566  140.3337  156.3304 H   0  0  0  0  0  0  0  0  0  0  0  0
  149.3409  142.7983  154.5832 H   0  0  0  0  0  0  0  0  0  0  0  0
  150.4651  141.5026  154.2816 H   0  0  0  0  0  0  0  0  0  0  0  0
  148.4044  141.2200  152.9255 H   0  0  0  0  0  0  0  0  0  0  0  0
  148.6788  139.8825  154.0048 H   0  0  0  0  0  0  0  0  0  0  0  0
  147.0852  143.3099  154.6692 H   0  0  0  0  0  0  0  0  0  0  0  0
  145.4525  142.6912  154.6977 H   0  0  0  0  0  0  0  0  0  0  0  0
  146.3623  142.6962  153.1931 H   0  0  0  0  0  0  0  0  0  0  0  0
  145.3689  140.4731  153.3819 H   0  0  0  0  0  0  0  0  0  0  0  0
  144.6285  138.7543  152.7519 H   0  0  0  0  0  0  0  0  0  0  0  0
  145.8174  136.2401  153.7748 H   0  0  0  0  0  0  0  0  0  0  0  0
  144.1436  136.4262  153.3041 H   0  0  0  0  0  0  0  0  0  0  0  0
  144.9261  136.8327  150.8984 H   0  0  0  0  0  0  0  0  0  0  0  0
  146.5643  136.5176  151.4132 H   0  0  0  0  0  0  0  0  0  0  0  0
  147.4141  134.2875  151.3067 H   0  0  0  0  0  0  0  0  0  0  0  0
  146.9561  131.8472  150.9603 H   0  0  0  0  0  0  0  0  0  0  0  0
  144.5715  131.0640  150.8832 H   0  0  0  0  0  0  0  0  0  0  0  0
  142.7442  132.7603  151.1568 H   0  0  0  0  0  0  0  0  0  0  0  0
  146.0678  141.0514  156.5653 H   0  0  0  0  0  0  0  0  0  0  0  0
  147.2112  139.7712  156.2716 H   0  0  0  0  0  0  0  0  0  0  0  0
  148.1334  141.3416  157.8899 H   0  0  0  0  0  0  0  0  0  0  0  0
  147.8863  142.6920  156.8174 H   0  0  0  0  0  0  0  0  0  0  0  0
  1  2  1  0  0  0  0
  1 21  1  0  0  0  0
  1 22  1  0  0  0  0
  1 23  1  0  0  0  0
  2 20  1  0  0  0  0
  2  3  1  0  0  0  0
  2 24  1  0  0  0  0
  3  4  1  0  0  0  0
  3 25  1  0  0  0  0
  3 26  1  0  0  0  0
  4  5  1  0  0  0  0
  4 27  1  0  0  0  0
  4 28  1  0  0  0  0
  5  6  1  0  0  0  0
  5  7  1  0  0  0  0
  5 19  1  0  0  0  0
  6 29  1  0  0  0  0
  6 30  1  0  0  0  0
  6 31  1  0  0  0  0
  7  8  1  0  0  0  0
  7 32  1  0  0  0  0
  8  9  2  0  0  0  0
  8 10  1  0  0  0  0
 10 11  1  0  0  0  0
 10 33  1  0  0  0  0
 11 12  1  0  0  0  0
 11 34  1  0  0  0  0
 11 35  1  0  0  0  0
 12 13  1  0  0  0  0
 12 36  1  0  0  0  0
 12 37  1  0  0  0  0
 13 18  1  0  0  0  0
 13 14  2  0  0  0  0
 14 15  1  0  0  0  0
 14 38  1  0  0  0  0
 15 16  2  0  0  0  0
 15 39  1  0  0  0  0
 16 17  1  0  0  0  0
 16 40  1  0  0  0  0
 17 18  2  0  0  0  0
 17 41  1  0  0  0  0
 19 20  1  0  0  0  0
 19 42  1  0  0  0  0
 19 43  1  0  0  0  0
 20 44  1  0  0  0  0
 20 45  1  0  0  0  0
M  END
> <s_m_source_file>
AV-unprocessed.smi

> <i_m_source_file_index>
1135

> <i_lp_mmshare_version>
43012

> <i_f3d_flags>
0

> <s_epik_input>
W0NIMl0xW0NIMl1bQ0BIXShbQ0gzXSlbQ0gyXVtDSDJdW0NAQF0xKFtDSDNdKVtOSF1DKD1PKVtOSF1bQ0gyXVtDSDJdYzJbY0hdW2NIXVtjSF1bY0hdbjI=

> <s_epik_cmdline>
J2VwaWtfcHl0aG9uJywgJy1waCcsICc3LjAnLCAnLXRuJywgJzgnLCAnLW1hJywgJzIwMCcsICctbWV0YWxfYmluZGluZycsICctaW1hZScsICc8aW5maWxlLm1hZT4nLCAnLW9tYWUnLCAnPG91dGZpbGUubWFlPic=

> <r_epik_Ionization_Penalty>
0.0448679

> <r_epik_Ionization_Penalty_Charging>
0

> <r_epik_Ionization_Penalty_Neutral>
0.0448679

> <r_epik_State_Penalty>
0.0379931

> <r_epik_Charging_Adjusted_Penalty>
0.0379931

> <i_epik_Tot_Q>
0

> <i_epik_Tot_abs_Q>
0

> <r_epik_Metal_State_Penalty>
0.0353093

> <b_epik_Metal_Only>
0

> <s_lp_Force_Field>
OPLS_2005

> <r_lp_Energy>
8.69074

> <b_lp_Chiralities_Consistent>
1

> <s_lp_Variant>
AV-unprocessed.smi:1135-1

> <Gold.Version>
5.8.1

> <Gold.Id.Protein>
6NUR|6NUR_protein|mol2

> <Gold.PLP.Fitness>
43.4907

> <Gold.PLP.PLP>
-35.5381

> <Gold.PLP.part.hbond>
-2.0000

> <Gold.PLP.part.metal>
0.0000

> <Gold.PLP.part.buried>
-6.3332

> <Gold.PLP.part.nonpolar>
-29.1157

> <Gold.PLP.part.repulsive>
0.2806

> <Gold.PLP.ligand.clash>
0.0000

> <Gold.PLP.ligand.torsion>
0.1666

> <Gold.PLP.Chemscore.Hbond>
1.8400

> <Gold.PLP.Chemscore.CHOScore>
0.9167

> <Gold.PLP.Chemscore.Metal>
0.0000

> <Gold.Chemscore.Hbonds>
donor molecule, donor type, donor heavy atom, donor atom, acceptor molecule, acceptor atom, score
      L1  H     7    32       P1 10175  1.00
      L1  H    10    33       P1 10175  1.00
      L1  C    17    41       P1 10186  0.09

> <Gold.PLP.Chemscore.Internal.Correction>
0.0157

> <Gold.Rescore>
     Score         DG    S(hbond)    S(metal)    S(lipo)     H(rot)  DE(clash)    DE(int)     intcor
     18.73     -18.79       1.89        0.00      90.86       1.42       0.02       0.04       ----

> <Gold.Chemscore.Fitness>
18.7324

> <Gold.Chemscore.DG>
-18.7932

> <Gold.Chemscore.ZeroCoef>
-5.4800

> <Gold.Chemscore.Hbond>
1.8926

> <Gold.Chemscore.Metal>
0.0000

> <Gold.Chemscore.Lipo>
90.8581

> <Gold.Chemscore.Internal_Hbond>
0.0000

> <Gold.Chemscore.DEClash>
0.0174

> <Gold.Chemscore.DEInternal>
0.0433

> <Gold.Chemscore.Rot>
1.4213

> <Gold.Chemscore.Internal.Correction>
   9.000000E+99

> <Gold.Chemscore.Hbonds>
donor molecule, donor type, donor heavy atom, donor atom, acceptor molecule, acceptor atom, score
      L1  H     7    32       P1 10175  0.97
      L1  H    10    33       P1 10175  0.96

> <Gold.Chemscore.Hbond.Weighted>
-6.3213

> <Gold.Chemscore.Metal.Weighted>
-0.0000

> <Gold.Chemscore.Lipo.Weighted>
-10.6304

> <Gold.Chemscore.Internal_Hbond.Weighted>
0.0000

> <Gold.Chemscore.DEClash.Weighted>
0.0174

> <Gold.Chemscore.DEInternal.Weighted>
0.0433

> <Gold.Chemscore.Rot.Weighted>
3.6385

> <Gold.Chemscore.Internal.Correction.Weighted>
   9.000000E+99

> <Gold.Protein.RotatedTorsions>
[ 6907 6896 6895 6894 ] final -103.30 input  -60.11 | X-H torsion
[ 7974 7965 7964 7962 ] final   94.97 input  175.53 | X-H torsion
[ 8008 7997 7996 7995 ] final  173.69 input   59.86 | X-H torsion
[ 10167 10162 10161 10158 ] final -156.25 input  -65.29 | X-H torsion
[ 10718 10713 10712 10709 ] final   23.71 input   66.30 | X-H torsion
[ 10763 10752 10751 10750 ] final -131.23 input  -60.55 | X-H torsion
[ 11005 11000 10999 10996 ] final -139.27 input  -57.11 | X-H torsion

> <Gold.Protein.ActiveResidues>
 VAL166  LYS551  ARG553  GLY616  TRP617  ASP618  TYR619  PRO620  LYS621  CYS622 
 ASP623  PHE694  ASN695  SER759  ASP760  ASP761  ALA762  ILE779  LEU786  VAL792 
 PHE793  MET794  SER795  GLU796  ALA797  LYS798  CYS799  TRP800  GLU811  SER814 

> <Gold.Protein.RotatedAtoms>
  150.7234  134.0450  159.3778 H   0  0  0  0  0  0  0  0  0  0  0  0  # atno 6907 bound_to 6896
  151.8424  135.0583  160.0459 H   0  0  0  0  0  0  0  0  0  0  0  0  # atno 6908 bound_to 6896
  152.2852  133.5472  159.5559 H   0  0  0  0  0  0  0  0  0  0  0  0  # atno 6909 bound_to 6896
  145.4585  139.2288  143.3000 H   0  0  0  0  0  0  0  0  0  0  0  0  # atno 7974 bound_to 7965
  156.1050  140.1453  156.9416 H   0  0  0  0  0  0  0  0  0  0  0  0  # atno 8008 bound_to 7997
  154.4728  140.0904  156.7231 H   0  0  0  0  0  0  0  0  0  0  0  0  # atno 8009 bound_to 7997
  155.4695  140.3441  155.4326 H   0  0  0  0  0  0  0  0  0  0  0  0  # atno 8010 bound_to 7997
  139.6865  143.9492  152.2364 H   0  0  0  0  0  0  0  0  0  0  0  0  # atno 10167 bound_to 10162
  157.1698  130.6754  149.6074 H   0  0  0  0  0  0  0  0  0  0  0  0  # atno 10718 bound_to 10713
  154.8752  135.3837  154.4213 H   0  0  0  0  0  0  0  0  0  0  0  0  # atno 10763 bound_to 10752
  153.4916  135.7030  153.5886 H   0  0  0  0  0  0  0  0  0  0  0  0  # atno 10764 bound_to 10752
  153.4257  135.3891  155.2106 H   0  0  0  0  0  0  0  0  0  0  0  0  # atno 10765 bound_to 10752
  140.8536  134.2256  157.4747 H   0  0  0  0  0  0  0  0  0  0  0  0  # atno 11005 bound_to 11000
  146.2464  140.5351  142.8912 LP  0  0  0  0  0  0  0  0  0  0  0  0  # atno 17320 bound_to 7965
  144.8017  140.6226  143.6473 LP  0  0  0  0  0  0  0  0  0  0  0  0  # atno 17321 bound_to 7965
  139.9297  144.6749  150.8376 LP  0  0  0  0  0  0  0  0  0  0  0  0  # atno 17342 bound_to 10162
  140.7669  143.3317  151.2395 LP  0  0  0  0  0  0  0  0  0  0  0  0  # atno 17343 bound_to 10162
  155.9740  130.4683  150.6355 LP  0  0  0  0  0  0  0  0  0  0  0  0  # atno 17370 bound_to 10713
  157.4054  131.0816  151.1270 LP  0  0  0  0  0  0  0  0  0  0  0  0  # atno 17371 bound_to 10713
  139.8704  134.9695  156.4669 LP  0  0  0  0  0  0  0  0  0  0  0  0  # atno 17394 bound_to 11000
  140.8762  133.7951  155.9418 LP  0  0  0  0  0  0  0  0  0  0  0  0  # atno 17395 bound_to 11000

$$$$
