AV-unprocessed.smi:1077|AV-procd|sdf|4701|dock8
  -GOLD-   22720 3223D 1   1.00000     0.00000
 Structure written by MMmdl.
 42 43  0  0  0  0  0  0  0  0  1 V2000
  146.7854  138.9554  151.8107 C   0  0  0  0  0  0  0  0  0  0  0  0
  146.8009  139.5150  153.2413 C   0  0  0  0  0  0  0  0  0  0  0  0
  148.1076  139.4822  153.8455 N   0  0  0  0  0  0  0  0  0  0  0  0
  148.8058  138.3029  154.0021 C   0  0  0  0  0  0  0  0  0  0  0  0
  150.0277  138.2526  154.5712 C   0  0  0  0  0  0  0  0  0  0  0  0
  150.7365  137.0251  154.7216 C   0  0  0  0  0  0  0  0  0  0  0  0
  151.2949  136.0171  154.8306 N   0  0  0  0  0  0  0  0  0  0  0  0
  150.6808  139.4635  155.0620 C   0  0  0  0  0  0  0  0  0  0  0  0
  151.7996  139.4701  155.5789 O   0  0  0  0  0  0  0  0  0  0  0  0
  149.9421  140.6638  154.9037 N   0  0  0  0  0  0  0  0  0  0  0  0
  150.5527  141.9295  155.3660 C   0  0  0  0  0  0  0  0  0  0  0  0
  150.7904  141.9676  156.8829 C   0  0  0  0  0  0  0  0  0  0  0  0
  151.1461  140.9585  157.4933 O   0  0  0  0  0  0  0  0  0  0  0  0
  150.5954  143.1550  157.4760 N   0  0  0  0  0  0  0  0  0  0  0  0
  150.7501  143.4245  158.9022 C   0  0  0  0  0  0  0  0  0  0  0  0
  150.7774  144.9446  159.1696 C   0  0  0  0  0  0  0  0  0  0  0  0
  151.0292  145.2525  160.6543 C   0  0  0  0  0  0  0  0  0  0  0  0
  152.3203  144.5843  161.1509 C   0  0  0  0  0  0  0  0  0  0  0  0
  152.2910  143.0691  160.8972 C   0  0  0  0  0  0  0  0  0  0  0  0
  152.0413  142.7569  159.4128 C   0  0  0  0  0  0  0  0  0  0  0  0
  148.6636  140.7022  154.2962 C   0  0  0  0  0  0  0  0  0  0  0  0
  148.0573  141.7684  154.1633 O   0  0  0  0  0  0  0  0  0  0  0  0
  145.7918  139.0478  151.3721 H   0  0  0  0  0  0  0  0  0  0  0  0
  147.0573  137.8999  151.7883 H   0  0  0  0  0  0  0  0  0  0  0  0
  147.4829  139.4948  151.1694 H   0  0  0  0  0  0  0  0  0  0  0  0
  146.4948  140.5621  153.2464 H   0  0  0  0  0  0  0  0  0  0  0  0
  146.1173  138.9858  153.9080 H   0  0  0  0  0  0  0  0  0  0  0  0
  148.3582  137.3825  153.6550 H   0  0  0  0  0  0  0  0  0  0  0  0
  151.5040  142.1220  154.8685 H   0  0  0  0  0  0  0  0  0  0  0  0
  149.9299  142.7794  155.0801 H   0  0  0  0  0  0  0  0  0  0  0  0
  150.3088  143.9305  156.8963 H   0  0  0  0  0  0  0  0  0  0  0  0
  149.9059  142.9858  159.4379 H   0  0  0  0  0  0  0  0  0  0  0  0
  151.5588  145.4107  158.5675 H   0  0  0  0  0  0  0  0  0  0  0  0
  149.8366  145.4010  158.8595 H   0  0  0  0  0  0  0  0  0  0  0  0
  151.0869  146.3309  160.8052 H   0  0  0  0  0  0  0  0  0  0  0  0
  150.1842  144.9020  161.2480 H   0  0  0  0  0  0  0  0  0  0  0  0
  153.1788  145.0245  160.6420 H   0  0  0  0  0  0  0  0  0  0  0  0
  152.4566  144.7816  162.2146 H   0  0  0  0  0  0  0  0  0  0  0  0
  153.2316  142.6205  161.2180 H   0  0  0  0  0  0  0  0  0  0  0  0
  151.5078  142.6121  161.5034 H   0  0  0  0  0  0  0  0  0  0  0  0
  151.9848  141.6769  159.2707 H   0  0  0  0  0  0  0  0  0  0  0  0
  152.8934  143.1015  158.8247 H   0  0  0  0  0  0  0  0  0  0  0  0
  1  2  1  0  0  0  0
  1 23  1  0  0  0  0
  1 24  1  0  0  0  0
  1 25  1  0  0  0  0
  2  3  1  0  0  0  0
  2 26  1  0  0  0  0
  2 27  1  0  0  0  0
  3 21  1  0  0  0  0
  3  4  1  0  0  0  0
  4  5  2  0  0  0  0
  4 28  1  0  0  0  0
  5  6  1  0  0  0  0
  5  8  1  0  0  0  0
  6  7  3  0  0  0  0
  8  9  2  0  0  0  0
  8 10  1  0  0  0  0
 10 11  1  0  0  0  0
 10 21  1  0  0  0  0
 11 12  1  0  0  0  0
 11 29  1  0  0  0  0
 11 30  1  0  0  0  0
 12 13  2  0  0  0  0
 12 14  1  0  0  0  0
 14 15  1  0  0  0  0
 14 31  1  0  0  0  0
 15 20  1  0  0  0  0
 15 16  1  0  0  0  0
 15 32  1  0  0  0  0
 16 17  1  0  0  0  0
 16 33  1  0  0  0  0
 16 34  1  0  0  0  0
 17 18  1  0  0  0  0
 17 35  1  0  0  0  0
 17 36  1  0  0  0  0
 18 19  1  0  0  0  0
 18 37  1  0  0  0  0
 18 38  1  0  0  0  0
 19 20  1  0  0  0  0
 19 39  1  0  0  0  0
 19 40  1  0  0  0  0
 20 41  1  0  0  0  0
 20 42  1  0  0  0  0
 21 22  2  0  0  0  0
M  END
> <s_m_source_file>
AV-unprocessed.smi

> <i_m_source_file_index>
1077

> <i_lp_mmshare_version>
43012

> <i_f3d_flags>
0

> <s_epik_input>
W0NIM11bQ0gyXW4xW2NIXWMoQyNOKWMoPU8pbihjMT1PKVtDSDJdQyg9TylbTkhdW0NIXTJbQ0gyXVtDSDJdW0NIMl1bQ0gyXVtDSDJdMg==

> <s_epik_cmdline>
J2VwaWtfcHl0aG9uJywgJy1waCcsICc3LjAnLCAnLXRuJywgJzgnLCAnLW1hJywgJzIwMCcsICctbWV0YWxfYmluZGluZycsICctaW1hZScsICc8aW5maWxlLm1hZT4nLCAnLW9tYWUnLCAnPG91dGZpbGUubWFlPic=

> <r_lp_tautomer_probability>
1

> <r_epik_Ionization_Penalty>
1.90876e-08

> <r_epik_Ionization_Penalty_Charging>
4.07395e-11

> <r_epik_Ionization_Penalty_Neutral>
1.90469e-08

> <r_epik_State_Penalty>
-0

> <r_epik_Charging_Adjusted_Penalty>
4.07395e-11

> <i_epik_Tot_Q>
0

> <i_epik_Tot_abs_Q>
0

> <r_epik_Metal_State_Penalty>
-0

> <b_epik_Metal_Only>
0

> <s_lp_Force_Field>
OPLS_2005

> <r_lp_Energy>
10.9803

> <b_lp_Chiralities_Consistent>
1

> <s_lp_Variant>
AV-unprocessed.smi:1077-1

> <Gold.Version>
5.8.1

> <Gold.Id.Protein>
6NUR|6NUR_protein|mol2

> <Gold.PLP.Fitness>
47.1216

> <Gold.PLP.PLP>
-39.4079

> <Gold.PLP.part.hbond>
-2.2603

> <Gold.PLP.part.metal>
0.0000

> <Gold.PLP.part.buried>
2.9386

> <Gold.PLP.part.nonpolar>
-40.4571

> <Gold.PLP.part.repulsive>
0.3338

> <Gold.PLP.ligand.clash>
0.0000

> <Gold.PLP.ligand.torsion>
0.5261

> <Gold.PLP.Chemscore.Hbond>
1.9760

> <Gold.PLP.Chemscore.CHOScore>
0.9433

> <Gold.PLP.Chemscore.Metal>
0.0000

> <Gold.Chemscore.Hbonds>
donor molecule, donor type, donor heavy atom, donor atom, acceptor molecule, acceptor atom, score
      L1  H    14    31       P1  8028  0.98
      P1  H 10752 10763       L1     7  1.00
      L1  C     4    28       P1  7948  0.91

> <Gold.PLP.Chemscore.Internal.Correction>
0.0080

> <Gold.Rescore>
     Score         DG    S(hbond)    S(metal)    S(lipo)     H(rot)  DE(clash)    DE(int)     intcor
     11.38     -18.76       1.91        0.00      97.32       1.75       2.81       4.57       ----

> <Gold.Chemscore.Fitness>
11.3769

> <Gold.Chemscore.DG>
-18.7586

> <Gold.Chemscore.ZeroCoef>
-5.4800

> <Gold.Chemscore.Hbond>
1.9096

> <Gold.Chemscore.Metal>
0.0000

> <Gold.Chemscore.Lipo>
97.3151

> <Gold.Chemscore.Internal_Hbond>
0.0000

> <Gold.Chemscore.DEClash>
2.8077

> <Gold.Chemscore.DEInternal>
4.5740

> <Gold.Chemscore.Rot>
1.7520

> <Gold.Chemscore.Internal.Correction>
   9.000000E+99

> <Gold.Chemscore.Hbonds>
donor molecule, donor type, donor heavy atom, donor atom, acceptor molecule, acceptor atom, score
      L1  H    14    31       P1  8028  0.86
      P1  H 10752 10763       L1     7  1.00

> <Gold.Chemscore.Hbond.Weighted>
-6.3779

> <Gold.Chemscore.Metal.Weighted>
-0.0000

> <Gold.Chemscore.Lipo.Weighted>
-11.3859

> <Gold.Chemscore.Internal_Hbond.Weighted>
0.0000

> <Gold.Chemscore.DEClash.Weighted>
2.8077

> <Gold.Chemscore.DEInternal.Weighted>
4.5740

> <Gold.Chemscore.Rot.Weighted>
4.4852

> <Gold.Chemscore.Internal.Correction.Weighted>
   9.000000E+99

> <Gold.Protein.RotatedTorsions>
[ 6907 6896 6895 6894 ] final  -35.29 input  -60.11 | X-H torsion
[ 7974 7965 7964 7962 ] final   65.19 input  175.53 | X-H torsion
[ 8008 7997 7996 7995 ] final  130.01 input   59.86 | X-H torsion
[ 10167 10162 10161 10158 ] final   55.19 input  -65.29 | X-H torsion
[ 10718 10713 10712 10709 ] final -145.37 input   66.30 | X-H torsion
[ 10763 10752 10751 10750 ] final   62.32 input  -60.55 | X-H torsion
[ 11005 11000 10999 10996 ] final   62.89 input  -57.11 | X-H torsion

> <Gold.Protein.ActiveResidues>
 VAL166  LYS551  ARG553  GLY616  TRP617  ASP618  TYR619  PRO620  LYS621  CYS622 
 ASP623  PHE694  ASN695  SER759  ASP760  ASP761  ALA762  ILE779  LEU786  VAL792 
 PHE793  MET794  SER795  GLU796  ALA797  LYS798  CYS799  TRP800  GLU811  SER814 

> <Gold.Protein.RotatedAtoms>
  151.0417  134.9611  159.8164 H   0  0  0  0  0  0  0  0  0  0  0  0  # atno 6907 bound_to 6896
  152.5365  134.2650  159.8959 H   0  0  0  0  0  0  0  0  0  0  0  0  # atno 6908 bound_to 6896
  151.2662  133.4235  159.2652 H   0  0  0  0  0  0  0  0  0  0  0  0  # atno 6909 bound_to 6896
  145.8413  139.3197  143.0929 H   0  0  0  0  0  0  0  0  0  0  0  0  # atno 7974 bound_to 7965
  156.2947  140.2606  156.2691 H   0  0  0  0  0  0  0  0  0  0  0  0  # atno 8008 bound_to 7997
  154.9712  140.0391  157.2254 H   0  0  0  0  0  0  0  0  0  0  0  0  # atno 8009 bound_to 7997
  154.7857  140.2803  155.6034 H   0  0  0  0  0  0  0  0  0  0  0  0  # atno 8010 bound_to 7997
  140.2221  144.3778  150.6446 H   0  0  0  0  0  0  0  0  0  0  0  0  # atno 10167 bound_to 10162
  156.3816  130.7840  151.2033 H   0  0  0  0  0  0  0  0  0  0  0  0  # atno 10718 bound_to 10713
  152.9979  135.5469  154.6174 H   0  0  0  0  0  0  0  0  0  0  0  0  # atno 10763 bound_to 10752
  154.5481  135.2824  155.1036 H   0  0  0  0  0  0  0  0  0  0  0  0  # atno 10764 bound_to 10752
  154.2287  135.6437  153.5221 H   0  0  0  0  0  0  0  0  0  0  0  0  # atno 10765 bound_to 10752
  140.0061  134.6367  155.9853 H   0  0  0  0  0  0  0  0  0  0  0  0  # atno 11005 bound_to 11000
  145.9461  140.8943  143.0283 LP  0  0  0  0  0  0  0  0  0  0  0  0  # atno 17320 bound_to 7965
  144.6733  140.1616  143.7422 LP  0  0  0  0  0  0  0  0  0  0  0  0  # atno 17321 bound_to 7965
  140.6247  143.2180  151.6620 LP  0  0  0  0  0  0  0  0  0  0  0  0  # atno 17342 bound_to 10162
  139.5140  144.3423  152.0728 LP  0  0  0  0  0  0  0  0  0  0  0  0  # atno 17343 bound_to 10162
  157.7493  131.0342  150.4308 LP  0  0  0  0  0  0  0  0  0  0  0  0  # atno 17370 bound_to 10713
  156.4553  130.4020  149.6610 LP  0  0  0  0  0  0  0  0  0  0  0  0  # atno 17371 bound_to 10713
  141.1678  133.6537  156.4542 LP  0  0  0  0  0  0  0  0  0  0  0  0  # atno 17394 bound_to 11000
  140.4638  134.6816  157.5098 LP  0  0  0  0  0  0  0  0  0  0  0  0  # atno 17395 bound_to 11000

$$$$
