AV-unprocessed.smi:35|AV-procd|sdf|268|dock3
  -GOLD-   2262016 33D 1   1.00000     0.00000
 Structure written by MMmdl.
 28 29  0  0  0  0  0  0  0  0  2 V2000
  151.1641  136.8302  159.4734 O   0  0  0  0  0  0  0  0  0  0  0  0
  150.9854  137.5228  158.4731 C   0  0  0  0  0  0  0  0  0  0  0  0
  152.0099  137.9814  157.6969 N   0  5  0  0  0  0  0  0  0  0  0  0
  151.8065  138.7482  156.5851 C   0  0  0  0  0  0  0  0  0  0  0  0
  152.7250  139.1936  155.8973 O   0  0  0  0  0  0  0  0  0  0  0  0
  150.4740  139.0664  156.2057 N   0  0  0  0  0  0  0  0  0  0  0  0
  150.2278  139.9175  154.9786 C   0  0  1  0  0  0  0  0  0  0  0  0
  149.2226  139.3240  154.2177 O   0  0  0  0  0  0  0  0  0  0  0  0
  148.5072  140.3440  153.5385 C   0  0  1  0  0  0  0  0  0  0  0  0
  147.1329  139.8173  153.0968 C   0  0  0  0  0  0  0  0  0  0  0  0
  147.2888  138.7393  152.1986 O   0  0  0  0  0  0  0  0  0  0  0  0
  148.4272  141.4508  154.5949 C   0  0  2  0  0  0  0  0  0  0  0  0
  148.2781  142.7138  153.9777 O   0  0  0  0  0  0  0  0  0  0  0  0
  149.7715  141.3569  155.3099 C   0  0  1  0  0  0  0  0  0  0  0  0
  149.6153  141.6232  156.6926 O   0  0  0  0  0  0  0  0  0  0  0  0
  149.4147  138.6328  156.9842 C   0  0  0  0  0  0  0  0  0  0  0  0
  149.6238  137.8838  158.0857 C   0  0  0  0  0  0  0  0  0  0  0  0
  148.0170  137.3366  159.1083 Br  0  0  0  0  0  0  0  0  0  0  0  0
  151.1451  139.8904  154.3880 H   0  0  0  0  0  0  0  0  0  0  0  0
  149.0962  140.6858  152.6844 H   0  0  0  0  0  0  0  0  0  0  0  0
  146.5294  139.5158  153.9536 H   0  0  0  0  0  0  0  0  0  0  0  0
  146.5831  140.5999  152.5733 H   0  0  0  0  0  0  0  0  0  0  0  0
  147.9561  138.9662  151.5692 H   0  0  0  0  0  0  0  0  0  0  0  0
  147.6030  141.2566  155.2836 H   0  0  0  0  0  0  0  0  0  0  0  0
  148.5328  143.3788  154.5993 H   0  0  0  0  0  0  0  0  0  0  0  0
  150.5069  142.0424  154.8858 H   0  0  0  0  0  0  0  0  0  0  0  0
  150.4669  141.8196  157.0538 H   0  0  0  0  0  0  0  0  0  0  0  0
  148.4036  138.9015  156.7160 H   0  0  0  0  0  0  0  0  0  0  0  0
  1  2  2  0  0  0  0
  2 17  1  0  0  0  0
  2  3  1  0  0  0  0
  3  4  1  0  0  0  0
  4  5  2  0  0  0  0
  4  6  1  0  0  0  0
  6  7  1  0  0  0  0
  6 16  1  0  0  0  0
  7 14  1  0  0  0  0
  7  8  1  0  0  0  0
  7 19  1  0  0  0  0
  8  9  1  0  0  0  0
  9 10  1  0  0  0  0
  9 12  1  0  0  0  0
  9 20  1  0  0  0  0
 10 11  1  0  0  0  0
 10 21  1  0  0  0  0
 10 22  1  0  0  0  0
 11 23  1  0  0  0  0
 12 13  1  0  0  0  0
 12 14  1  0  0  0  0
 12 24  1  0  0  0  0
 13 25  1  0  0  0  0
 14 15  1  0  0  0  0
 14 26  1  0  0  0  0
 15 27  1  0  0  0  0
 16 17  2  0  0  0  0
 16 28  1  0  0  0  0
 17 18  1  0  0  0  0
M  CHG  1   3  -1
M  END
> <s_m_source_file>
AV-unprocessed.smi

> <i_m_source_file_index>
35

> <i_lp_mmshare_version>
43012

> <i_f3d_flags>
0

> <s_epik_input>
Tz1jMVtuSF1jKD1PKW4oW2NIXWMxQnIpW0NAQEhdMk9bQ0BASF0oW0NIMl1bT0hdKVtDQEBIXShbT0hdKVtDQEhdMltPSF0=

> <s_epik_cmdline>
J2VwaWtfcHl0aG9uJywgJy1waCcsICc3LjAnLCAnLXRuJywgJzgnLCAnLW1hJywgJzIwMCcsICctbWV0YWxfYmluZGluZycsICctaW1hZScsICc8aW5maWxlLm1hZT4nLCAnLW9tYWUnLCAnPG91dGZpbGUubWFlPic=

> <r_epik_Ionization_Penalty>
1.06112

> <r_epik_Ionization_Penalty_Charging>
2.1796e-09

> <r_epik_Ionization_Penalty_Neutral>
1.06112

> <r_epik_State_Penalty>
1.11484

> <r_epik_Charging_Adjusted_Penalty>
1.11484

> <i_epik_Tot_Q>
-1

> <i_epik_Tot_abs_Q>
1

> <r_epik_Metal_State_Penalty>
0.0032876

> <b_epik_Metal_Only>
0

> <s_epik_Chemistry_Notes>
This compound contains an acetal/aminal-like group ( X-CH(R)-Y where X, Y are N, S, or O) that may be acid/base labile, releasing an aldehyde.

> <s_lp_Force_Field>
OPLS_2005

> <r_lp_Energy>
42.419

> <b_lp_Chiralities_Consistent>
1

> <s_lp_Variant>
AV-unprocessed.smi:35-22

> <Gold.Version>
5.8.1

> <Gold.Id.Protein>
6NUR|6NUR_protein|mol2

> <Gold.PLP.Fitness>
38.1162

> <Gold.PLP.PLP>
-26.3026

> <Gold.PLP.part.hbond>
-6.7912

> <Gold.PLP.part.metal>
0.0000

> <Gold.PLP.part.buried>
0.3130

> <Gold.PLP.part.nonpolar>
-19.3202

> <Gold.PLP.part.repulsive>
0.1699

> <Gold.PLP.ligand.clash>
0.0000

> <Gold.PLP.ligand.torsion>
0.2783

> <Gold.PLP.Chemscore.Hbond>
4.0155

> <Gold.PLP.Chemscore.CHOScore>
0.0000

> <Gold.PLP.Chemscore.Metal>
0.0000

> <Gold.Chemscore.Hbonds>
donor molecule, donor type, donor heavy atom, donor atom, acceptor molecule, acceptor atom, score
      L1  H    11    23       P1  7957  0.99
      L1  H    13    25       P1  8028  1.00
      P1  H  6896  6909       L1     1  1.00
      P1  H  7997  8008       L1     5  1.00
      P1  H  8011  8017       L1    13  0.02

> <Gold.PLP.Chemscore.Internal.Correction>
0.3237

> <Gold.Rescore>
     Score         DG    S(hbond)    S(metal)    S(lipo)     H(rot)  DE(clash)    DE(int)     intcor
     11.82     -13.59       3.92        0.00      36.75       3.63       0.47       1.31       ----

> <Gold.Chemscore.Fitness>
11.8218

> <Gold.Chemscore.DG>
-13.5935

> <Gold.Chemscore.ZeroCoef>
-5.4800

> <Gold.Chemscore.Hbond>
3.9212

> <Gold.Chemscore.Metal>
0.0000

> <Gold.Chemscore.Lipo>
36.7477

> <Gold.Chemscore.Internal_Hbond>
0.0000

> <Gold.Chemscore.DEClash>
0.4660

> <Gold.Chemscore.DEInternal>
1.3057

> <Gold.Chemscore.Rot>
3.6261

> <Gold.Chemscore.Internal.Correction>
   9.000000E+99

> <Gold.Chemscore.Hbonds>
donor molecule, donor type, donor heavy atom, donor atom, acceptor molecule, acceptor atom, score
      L1  H    11    23       P1  7957  0.75
      L1  H    13    25       P1  8028  1.00
      P1  H  6896  6909       L1     1  1.00
      P1  H  7997  8008       L1     5  1.00
      P1  H  8011  8017       L1    13  0.01

> <Gold.Chemscore.Hbond.Weighted>
-13.0968

> <Gold.Chemscore.Metal.Weighted>
-0.0000

> <Gold.Chemscore.Lipo.Weighted>
-4.2995

> <Gold.Chemscore.Internal_Hbond.Weighted>
0.0000

> <Gold.Chemscore.DEClash.Weighted>
0.4660

> <Gold.Chemscore.DEInternal.Weighted>
1.3057

> <Gold.Chemscore.Rot.Weighted>
9.2828

> <Gold.Chemscore.Internal.Correction.Weighted>
   9.000000E+99

> <Gold.Protein.RotatedTorsions>
[ 6907 6896 6895 6894 ] final  114.16 input  -60.11 | X-H torsion
[ 7974 7965 7964 7962 ] final -170.27 input  175.53 | X-H torsion
[ 8008 7997 7996 7995 ] final  -44.64 input   59.86 | X-H torsion
[ 10167 10162 10161 10158 ] final  159.15 input  -65.29 | X-H torsion
[ 10718 10713 10712 10709 ] final   59.25 input   66.30 | X-H torsion
[ 10763 10752 10751 10750 ] final  148.03 input  -60.55 | X-H torsion
[ 11005 11000 10999 10996 ] final   18.98 input  -57.11 | X-H torsion

> <Gold.Protein.ActiveResidues>
 VAL166  LYS551  ARG553  GLY616  TRP617  ASP618  TYR619  PRO620  LYS621  CYS622 
 ASP623  PHE694  ASN695  SER759  ASP760  ASP761  ALA762  ILE779  LEU786  VAL792 
 PHE793  MET794  SER795  GLU796  ALA797  LYS798  CYS799  TRP800  GLU811  SER814 

> <Gold.Protein.RotatedAtoms>
  152.4819  133.8274  159.7085 H   0  0  0  0  0  0  0  0  0  0  0  0  # atno 6907 bound_to 6896
  150.8874  133.7279  159.2921 H   0  0  0  0  0  0  0  0  0  0  0  0  # atno 6908 bound_to 6896
  151.4763  135.1053  159.9817 H   0  0  0  0  0  0  0  0  0  0  0  0  # atno 6909 bound_to 6896
  144.7172  140.2096  143.6329 H   0  0  0  0  0  0  0  0  0  0  0  0  # atno 7974 bound_to 7965
  154.3998  140.1417  156.3716 H   0  0  0  0  0  0  0  0  0  0  0  0  # atno 8008 bound_to 7997
  155.8087  140.3473  155.5424 H   0  0  0  0  0  0  0  0  0  0  0  0  # atno 8009 bound_to 7997
  155.8408  140.0926  157.1726 H   0  0  0  0  0  0  0  0  0  0  0  0  # atno 8010 bound_to 7997
  139.4830  144.4757  151.8514 H   0  0  0  0  0  0  0  0  0  0  0  0  # atno 10167 bound_to 10162
  157.5661  130.8872  149.9189 H   0  0  0  0  0  0  0  0  0  0  0  0  # atno 10718 bound_to 10713
  154.0481  135.2884  155.3344 H   0  0  0  0  0  0  0  0  0  0  0  0  # atno 10763 bound_to 10752
  154.6886  135.5235  153.8364 H   0  0  0  0  0  0  0  0  0  0  0  0  # atno 10764 bound_to 10752
  153.0572  135.6600  154.0680 H   0  0  0  0  0  0  0  0  0  0  0  0  # atno 10765 bound_to 10752
  140.4187  134.1541  155.7671 H   0  0  0  0  0  0  0  0  0  0  0  0  # atno 11005 bound_to 11000
  145.8603  139.2219  143.1720 LP  0  0  0  0  0  0  0  0  0  0  0  0  # atno 17320 bound_to 7965
  146.0180  140.8375  142.9938 LP  0  0  0  0  0  0  0  0  0  0  0  0  # atno 17321 bound_to 7965
  140.4229  144.2219  150.5887 LP  0  0  0  0  0  0  0  0  0  0  0  0  # atno 17342 bound_to 10162
  140.4855  143.2364  151.8893 LP  0  0  0  0  0  0  0  0  0  0  0  0  # atno 17343 bound_to 10162
  156.0709  130.3685  150.0778 LP  0  0  0  0  0  0  0  0  0  0  0  0  # atno 17370 bound_to 10713
  156.8936  130.9597  151.3585 LP  0  0  0  0  0  0  0  0  0  0  0  0  # atno 17371 bound_to 10713
  141.1792  133.8449  157.1315 LP  0  0  0  0  0  0  0  0  0  0  0  0  # atno 17394 bound_to 11000
  140.0215  134.9943  157.0601 LP  0  0  0  0  0  0  0  0  0  0  0  0  # atno 17395 bound_to 11000

$$$$
