AV-unprocessed.smi:1272|AV-procd|sdf|5337|dock5
  -GOLD-   22720 4463D 1   1.00000     0.00000
 Structure written by MMmdl.
 46 48  0  0  0  0  0  0  0  0  2 V2000
  148.6310  132.7758  153.7169 C   0  0  0  0  0  0  0  0  0  0  0  0
  147.1077  132.7020  153.8787 C   0  0  0  0  0  0  0  0  0  0  0  0
  146.4423  133.7487  153.1073 N   0  0  0  0  0  0  0  0  0  0  0  0
  146.4859  135.0799  153.3486 C   0  0  0  0  0  0  0  0  0  0  0  0
  147.1008  135.6322  154.2609 O   0  0  0  0  0  0  0  0  0  0  0  0
  145.7526  135.7043  152.3970 N   0  0  0  0  0  0  0  0  0  0  0  0
  145.5428  137.1455  152.2709 C   0  0  0  0  0  0  0  0  0  0  0  0
  146.8749  137.9209  152.3287 C   0  0  1  0  0  0  0  0  0  0  0  0
  147.1582  138.4061  151.0305 O   0  0  0  0  0  0  0  0  0  0  0  0
  146.7880  139.1372  153.2732 C   0  0  0  0  0  0  0  0  0  0  0  0
  148.1217  139.6998  153.6083 N   0  3  0  0  0  0  0  0  0  0  0  0
  148.0311  140.8932  154.4830 C   0  0  0  0  0  0  0  0  0  0  0  0
  149.4303  141.4767  154.7441 C   0  0  0  0  0  0  0  0  0  0  0  0
  150.2647  140.4780  155.3174 O   0  0  0  0  0  0  0  0  0  0  0  0
  150.4301  139.3617  154.4519 C   0  0  0  0  0  0  0  0  0  0  0  0
  149.0632  138.7085  154.1865 C   0  0  0  0  0  0  0  0  0  0  0  0
  145.2502  134.7477  151.5032 C   0  0  0  0  0  0  0  0  0  0  0  0
  144.4657  134.8841  150.3446 C   0  0  0  0  0  0  0  0  0  0  0  0
  144.1333  133.7001  149.6456 C   0  0  0  0  0  0  0  0  0  0  0  0
  144.5805  132.4343  150.1053 C   0  0  0  0  0  0  0  0  0  0  0  0
  145.3703  132.3255  151.2737 C   0  0  0  0  0  0  0  0  0  0  0  0
  145.6849  133.5171  151.9500 C   0  0  0  0  0  0  0  0  0  0  0  0
  149.1202  131.9921  154.2955 H   0  0  0  0  0  0  0  0  0  0  0  0
  149.0186  133.7348  154.0620 H   0  0  0  0  0  0  0  0  0  0  0  0
  148.9234  132.6512  152.6739 H   0  0  0  0  0  0  0  0  0  0  0  0
  146.7442  131.7253  153.5588 H   0  0  0  0  0  0  0  0  0  0  0  0
  146.8419  132.7920  154.9331 H   0  0  0  0  0  0  0  0  0  0  0  0
  144.9807  137.3823  151.3667 H   0  0  0  0  0  0  0  0  0  0  0  0
  144.9023  137.4551  153.0985 H   0  0  0  0  0  0  0  0  0  0  0  0
  147.6766  137.2546  152.6457 H   0  0  0  0  0  0  0  0  0  0  0  0
  147.4264  139.3099  151.0972 H   0  0  0  0  0  0  0  0  0  0  0  0
  146.1745  139.9043  152.7973 H   0  0  0  0  0  0  0  0  0  0  0  0
  146.2744  138.8685  154.1976 H   0  0  0  0  0  0  0  0  0  0  0  0
  147.4015  141.6510  154.0150 H   0  0  0  0  0  0  0  0  0  0  0  0
  147.5578  140.6202  155.4276 H   0  0  0  0  0  0  0  0  0  0  0  0
  149.8743  141.8534  153.8213 H   0  0  0  0  0  0  0  0  0  0  0  0
  149.3636  142.3194  155.4325 H   0  0  0  0  0  0  0  0  0  0  0  0
  150.9002  139.6751  153.5182 H   0  0  0  0  0  0  0  0  0  0  0  0
  151.1040  138.6458  154.9226 H   0  0  0  0  0  0  0  0  0  0  0  0
  148.6538  138.3121  155.1172 H   0  0  0  0  0  0  0  0  0  0  0  0
  149.1972  137.8635  153.5123 H   0  0  0  0  0  0  0  0  0  0  0  0
  144.1322  135.8496  149.9947 H   0  0  0  0  0  0  0  0  0  0  0  0
  143.5334  133.7603  148.7496 H   0  0  0  0  0  0  0  0  0  0  0  0
  144.3166  131.5430  149.5552 H   0  0  0  0  0  0  0  0  0  0  0  0
  145.7178  131.3653  151.6252 H   0  0  0  0  0  0  0  0  0  0  0  0
  148.5234  140.0163  152.7368 H   0  0  0  0  0  0  0  0  0  0  0  0
  1  2  1  0  0  0  0
  1 23  1  0  0  0  0
  1 24  1  0  0  0  0
  1 25  1  0  0  0  0
  2  3  1  0  0  0  0
  2 26  1  0  0  0  0
  2 27  1  0  0  0  0
  3 22  1  0  0  0  0
  3  4  1  0  0  0  0
  4  5  2  0  0  0  0
  4  6  1  0  0  0  0
  6  7  1  0  0  0  0
  6 17  1  0  0  0  0
  7  8  1  0  0  0  0
  7 28  1  0  0  0  0
  7 29  1  0  0  0  0
  8  9  1  0  0  0  0
  8 10  1  0  0  0  0
  8 30  1  0  0  0  0
  9 31  1  0  0  0  0
 10 11  1  0  0  0  0
 10 32  1  0  0  0  0
 10 33  1  0  0  0  0
 11 16  1  0  0  0  0
 11 12  1  0  0  0  0
 11 46  1  0  0  0  0
 12 13  1  0  0  0  0
 12 34  1  0  0  0  0
 12 35  1  0  0  0  0
 13 14  1  0  0  0  0
 13 36  1  0  0  0  0
 13 37  1  0  0  0  0
 14 15  1  0  0  0  0
 15 16  1  0  0  0  0
 15 38  1  0  0  0  0
 15 39  1  0  0  0  0
 16 40  1  0  0  0  0
 16 41  1  0  0  0  0
 17 22  2  0  0  0  0
 17 18  1  0  0  0  0
 18 19  2  0  0  0  0
 18 42  1  0  0  0  0
 19 20  1  0  0  0  0
 19 43  1  0  0  0  0
 20 21  2  0  0  0  0
 20 44  1  0  0  0  0
 21 22  1  0  0  0  0
 21 45  1  0  0  0  0
M  CHG  1  11   1
M  END
> <s_m_source_file>
AV-unprocessed.smi

> <i_m_source_file_index>
1272

> <i_lp_mmshare_version>
43012

> <i_f3d_flags>
0

> <s_epik_input>
W2NIXTFbY0hdW2NIXVtjSF1jKGMxMiluKFtDSDJdW0NIM10pYyg9TyluMltDSDJdW0NASF0oW09IXSlbQ0gyXU4zW0NIMl1bQ0gyXU9bQ0gyXVtDSDJdMw==

> <s_epik_cmdline>
J2VwaWtfcHl0aG9uJywgJy1waCcsICc3LjAnLCAnLXRuJywgJzgnLCAnLW1hJywgJzIwMCcsICctbWV0YWxfYmluZGluZycsICctaW1hZScsICc8aW5maWxlLm1hZT4nLCAnLW9tYWUnLCAnPG91dGZpbGUubWFlPic=

> <r_epik_Ionization_Penalty>
0.706332

> <r_epik_Ionization_Penalty_Charging>
0.706318

> <r_epik_Ionization_Penalty_Neutral>
1.42224e-05

> <r_epik_State_Penalty>
0.729493

> <r_epik_Charging_Adjusted_Penalty>
1.43581

> <i_epik_Tot_Q>
1

> <i_epik_Tot_abs_Q>
1

> <r_epik_Metal_State_Penalty>
0.729493

> <b_epik_Metal_Only>
0

> <s_lp_Force_Field>
OPLS_2005

> <r_lp_Energy>
52.83

> <b_lp_Chiralities_Consistent>
1

> <s_lp_Variant>
AV-unprocessed.smi:1272-4

> <Gold.Version>
5.8.1

> <Gold.Id.Protein>
6NUR|6NUR_protein|mol2

> <Gold.PLP.Fitness>
43.4970

> <Gold.PLP.PLP>
-38.6137

> <Gold.PLP.part.hbond>
-4.5985

> <Gold.PLP.part.metal>
0.0000

> <Gold.PLP.part.buried>
2.7892

> <Gold.PLP.part.nonpolar>
-35.9435

> <Gold.PLP.part.repulsive>
0.6068

> <Gold.PLP.ligand.clash>
0.0000

> <Gold.PLP.ligand.torsion>
0.9427

> <Gold.PLP.Chemscore.Hbond>
2.2246

> <Gold.PLP.Chemscore.CHOScore>
0.0000

> <Gold.PLP.Chemscore.Metal>
0.0000

> <Gold.Chemscore.Hbonds>
donor molecule, donor type, donor heavy atom, donor atom, acceptor molecule, acceptor atom, score
      L1  H     9    31       P1  7957  0.23
      L1  H    11    46       P1  7957  1.00
      P1  H  7954  7966       L1     9  1.00

> <Gold.PLP.Chemscore.Internal.Correction>
0.0947

> <Gold.Rescore>
     Score         DG    S(hbond)    S(metal)    S(lipo)     H(rot)  DE(clash)    DE(int)     intcor
     13.50     -17.27       1.86        0.00      96.40       2.23       1.74       2.03       ----

> <Gold.Chemscore.Fitness>
13.4978

> <Gold.Chemscore.DG>
-17.2746

> <Gold.Chemscore.ZeroCoef>
-5.4800

> <Gold.Chemscore.Hbond>
1.8628

> <Gold.Chemscore.Metal>
0.0000

> <Gold.Chemscore.Lipo>
96.3952

> <Gold.Chemscore.Internal_Hbond>
0.0000

> <Gold.Chemscore.DEClash>
1.7434

> <Gold.Chemscore.DEInternal>
2.0334

> <Gold.Chemscore.Rot>
2.2287

> <Gold.Chemscore.Internal.Correction>
   9.000000E+99

> <Gold.Chemscore.Hbonds>
donor molecule, donor type, donor heavy atom, donor atom, acceptor molecule, acceptor atom, score
      L1  H     9    31       P1  7957  0.17
      L1  H    11    46       P1  7957  0.99
      P1  H  7954  7966       L1     9  0.25

> <Gold.Chemscore.Hbond.Weighted>
-6.2218

> <Gold.Chemscore.Metal.Weighted>
-0.0000

> <Gold.Chemscore.Lipo.Weighted>
-11.2782

> <Gold.Chemscore.Internal_Hbond.Weighted>
0.0000

> <Gold.Chemscore.DEClash.Weighted>
1.7434

> <Gold.Chemscore.DEInternal.Weighted>
2.0334

> <Gold.Chemscore.Rot.Weighted>
5.7054

> <Gold.Chemscore.Internal.Correction.Weighted>
   9.000000E+99

> <Gold.Protein.RotatedTorsions>
[ 6907 6896 6895 6894 ] final  -42.33 input  -60.11 | X-H torsion
[ 7974 7965 7964 7962 ] final -122.53 input  175.53 | X-H torsion
[ 8008 7997 7996 7995 ] final   89.60 input   59.86 | X-H torsion
[ 10167 10162 10161 10158 ] final   41.47 input  -65.29 | X-H torsion
[ 10718 10713 10712 10709 ] final -166.92 input   66.30 | X-H torsion
[ 10763 10752 10751 10750 ] final   -6.59 input  -60.55 | X-H torsion
[ 11005 11000 10999 10996 ] final   82.83 input  -57.11 | X-H torsion

> <Gold.Protein.ActiveResidues>
 VAL166  LYS551  ARG553  GLY616  TRP617  ASP618  TYR619  PRO620  LYS621  CYS622 
 ASP623  PHE694  ASN695  SER759  ASP760  ASP761  ALA762  ILE779  LEU786  VAL792 
 PHE793  MET794  SER795  GLU796  ALA797  LYS798  CYS799  TRP800  GLU811  SER814 

> <Gold.Protein.RotatedAtoms>
  150.9565  134.8959  159.7704 H   0  0  0  0  0  0  0  0  0  0  0  0  # atno 6907 bound_to 6896
  152.5140  134.3733  159.9335 H   0  0  0  0  0  0  0  0  0  0  0  0  # atno 6908 bound_to 6896
  151.3746  133.3802  159.2738 H   0  0  0  0  0  0  0  0  0  0  0  0  # atno 6909 bound_to 6896
  145.0285  140.8048  143.4338 H   0  0  0  0  0  0  0  0  0  0  0  0  # atno 7974 bound_to 7965
  156.0020  140.3359  155.6855 H   0  0  0  0  0  0  0  0  0  0  0  0  # atno 8008 bound_to 7997
  155.6277  140.0682  157.2676 H   0  0  0  0  0  0  0  0  0  0  0  0  # atno 8009 bound_to 7997
  154.4252  140.1765  156.1427 H   0  0  0  0  0  0  0  0  0  0  0  0  # atno 8010 bound_to 7997
  140.3640  144.2192  150.6136 H   0  0  0  0  0  0  0  0  0  0  0  0  # atno 10167 bound_to 10162
  156.6748  130.9098  151.3049 H   0  0  0  0  0  0  0  0  0  0  0  0  # atno 10718 bound_to 10713
  153.4145  135.7008  153.6336 H   0  0  0  0  0  0  0  0  0  0  0  0  # atno 10763 bound_to 10752
  153.4817  135.3692  155.2446 H   0  0  0  0  0  0  0  0  0  0  0  0  # atno 10764 bound_to 10752
  154.8719  135.4067  154.3502 H   0  0  0  0  0  0  0  0  0  0  0  0  # atno 10765 bound_to 10752
  139.9050  134.8100  156.2228 H   0  0  0  0  0  0  0  0  0  0  0  0  # atno 11005 bound_to 11000
  145.1802  139.2356  143.5296 LP  0  0  0  0  0  0  0  0  0  0  0  0  # atno 17320 bound_to 7965
  146.3495  140.1574  142.8591 LP  0  0  0  0  0  0  0  0  0  0  0  0  # atno 17321 bound_to 7965
  140.5099  143.2293  151.8551 LP  0  0  0  0  0  0  0  0  0  0  0  0  # atno 17342 bound_to 10162
  139.4811  144.4961  151.9121 LP  0  0  0  0  0  0  0  0  0  0  0  0  # atno 17343 bound_to 10162
  157.7064  130.9390  150.0946 LP  0  0  0  0  0  0  0  0  0  0  0  0  # atno 17370 bound_to 10713
  156.1911  130.3655  149.8908 LP  0  0  0  0  0  0  0  0  0  0  0  0  # atno 17371 bound_to 10713
  141.0395  133.6945  156.1572 LP  0  0  0  0  0  0  0  0  0  0  0  0  # atno 17394 bound_to 11000
  140.6977  134.4598  157.5587 LP  0  0  0  0  0  0  0  0  0  0  0  0  # atno 17395 bound_to 11000

$$$$
