AV-unprocessed.smi:1842|AV-procd|sdf|7498|dock1
  -GOLD-   22720 9203D 1   1.00000     0.00000
 Structure written by MMmdl.
 39 40  0  0  0  0  0  0  0  0  2 V2000
  152.8294  139.4591  156.5374 O   0  0  0  0  0  0  0  0  0  0  0  0
  151.7447  139.9984  156.7548 C   0  0  0  0  0  0  0  0  0  0  0  0
  151.5302  140.8130  158.0340 C   0  0  0  0  0  0  0  0  0  0  0  0
  151.7178  142.3315  157.8379 C   0  0  0  0  0  0  0  0  0  0  0  0
  151.5187  143.1774  159.1131 C   0  0  0  0  0  0  0  0  0  0  0  0
  151.7688  144.6726  158.8981 C   0  0  0  0  0  0  0  0  0  0  0  0
  152.0372  145.2452  160.2957 C   0  0  0  0  0  0  0  0  0  0  0  0
  152.4274  144.0538  161.1838 C   0  0  0  0  0  0  0  0  0  0  0  0
  152.4691  142.8312  160.2624 C   0  0  0  0  0  0  0  0  0  0  0  0
  150.6982  139.9121  155.9196 N   0  0  0  0  0  0  0  0  0  0  0  0
  150.6936  139.2002  154.6450 C   0  0  0  0  0  0  0  0  0  0  0  0
  149.3220  138.5819  154.3116 C   0  0  0  0  0  0  0  0  0  0  0  0
  148.2889  139.5951  154.0772 N   0  0  0  0  0  0  0  0  0  0  0  0
  148.3887  140.9471  154.2826 C   0  0  0  0  0  0  0  0  0  0  0  0
  147.1786  141.4860  153.9279 C   0  0  0  0  0  0  0  0  0  0  0  0
  146.3927  140.4411  153.5208 N   0  3  0  0  0  0  0  0  0  0  0  0
  147.0704  139.2921  153.6104 C   0  0  0  0  0  0  0  0  0  0  0  0
  150.5397  140.6111  158.4441 H   0  0  0  0  0  0  0  0  0  0  0  0
  152.2428  140.4563  158.7780 H   0  0  0  0  0  0  0  0  0  0  0  0
  152.7182  142.5082  157.4412 H   0  0  0  0  0  0  0  0  0  0  0  0
  151.0319  142.6834  157.0661 H   0  0  0  0  0  0  0  0  0  0  0  0
  150.4939  143.0638  159.4704 H   0  0  0  0  0  0  0  0  0  0  0  0
  152.6530  144.8164  158.2754 H   0  0  0  0  0  0  0  0  0  0  0  0
  150.9339  145.1667  158.4001 H   0  0  0  0  0  0  0  0  0  0  0  0
  152.8232  146.0005  160.2652 H   0  0  0  0  0  0  0  0  0  0  0  0
  151.1402  145.7243  160.6903 H   0  0  0  0  0  0  0  0  0  0  0  0
  153.3812  144.2109  161.6885 H   0  0  0  0  0  0  0  0  0  0  0  0
  151.6697  143.9102  161.9555 H   0  0  0  0  0  0  0  0  0  0  0  0
  152.1852  141.9148  160.7808 H   0  0  0  0  0  0  0  0  0  0  0  0
  153.4820  142.6966  159.8804 H   0  0  0  0  0  0  0  0  0  0  0  0
  149.8484  140.3936  156.1763 H   0  0  0  0  0  0  0  0  0  0  0  0
  150.9874  139.8995  153.8618 H   0  0  0  0  0  0  0  0  0  0  0  0
  151.4581  138.4218  154.6622 H   0  0  0  0  0  0  0  0  0  0  0  0
  149.3967  137.9771  153.4072 H   0  0  0  0  0  0  0  0  0  0  0  0
  148.9834  137.9149  155.1056 H   0  0  0  0  0  0  0  0  0  0  0  0
  149.2892  141.4127  154.6563 H   0  0  0  0  0  0  0  0  0  0  0  0
  146.8273  142.5078  153.9342 H   0  0  0  0  0  0  0  0  0  0  0  0
  146.7043  138.3123  153.3591 H   0  0  0  0  0  0  0  0  0  0  0  0
  145.4370  140.5233  153.1969 H   0  0  0  0  0  0  0  0  0  0  0  0
  1  2  2  0  0  0  0
  2  3  1  0  0  0  0
  2 10  1  0  0  0  0
  3  4  1  0  0  0  0
  3 18  1  0  0  0  0
  3 19  1  0  0  0  0
  4  5  1  0  0  0  0
  4 20  1  0  0  0  0
  4 21  1  0  0  0  0
  5  9  1  0  0  0  0
  5  6  1  0  0  0  0
  5 22  1  0  0  0  0
  6  7  1  0  0  0  0
  6 23  1  0  0  0  0
  6 24  1  0  0  0  0
  7  8  1  0  0  0  0
  7 25  1  0  0  0  0
  7 26  1  0  0  0  0
  8  9  1  0  0  0  0
  8 27  1  0  0  0  0
  8 28  1  0  0  0  0
  9 29  1  0  0  0  0
  9 30  1  0  0  0  0
 10 11  1  0  0  0  0
 10 31  1  0  0  0  0
 11 12  1  0  0  0  0
 11 32  1  0  0  0  0
 11 33  1  0  0  0  0
 12 13  1  0  0  0  0
 12 34  1  0  0  0  0
 12 35  1  0  0  0  0
 13 17  1  0  0  0  0
 13 14  1  0  0  0  0
 14 15  2  0  0  0  0
 14 36  1  0  0  0  0
 15 16  1  0  0  0  0
 15 37  1  0  0  0  0
 16 17  2  0  0  0  0
 16 39  1  0  0  0  0
 17 38  1  0  0  0  0
M  CHG  1  16   1
M  END
> <s_m_source_file>
AV-unprocessed.smi

> <i_m_source_file_index>
1842

> <i_lp_mmshare_version>
43012

> <i_f3d_flags>
0

> <s_epik_input>
W0NIMl0xW0NIMl1bQ0gyXVtDSDJdW0NIXTFbQ0gyXVtDSDJdQyg9TylbTkhdW0NIMl1bQ0gyXW4yW2NIXVtjSF1uW2NIXTI=

> <s_epik_cmdline>
J2VwaWtfcHl0aG9uJywgJy1waCcsICc3LjAnLCAnLXRuJywgJzgnLCAnLW1hJywgJzIwMCcsICctbWV0YWxfYmluZGluZycsICctaW1hZScsICc8aW5maWxlLm1hZT4nLCAnLW9tYWUnLCAnPG91dGZpbGUubWFlPic=

> <r_lp_tautomer_probability>
1

> <r_epik_Ionization_Penalty>
0.269886

> <r_epik_Ionization_Penalty_Charging>
0

> <r_epik_Ionization_Penalty_Neutral>
0.269886

> <r_epik_State_Penalty>
0.261983

> <r_epik_Charging_Adjusted_Penalty>
0.261983

> <i_epik_Tot_Q>
1

> <i_epik_Tot_abs_Q>
1

> <r_epik_Metal_State_Penalty>
0.546964

> <b_epik_Metal_Only>
0

> <s_lp_Force_Field>
OPLS_2005

> <r_lp_Energy>
23.3455

> <b_lp_Chiralities_Consistent>
1

> <s_lp_Variant>
AV-unprocessed.smi:1842-1

> <Gold.Version>
5.8.1

> <Gold.Id.Protein>
6NUR|6NUR_protein|mol2

> <Gold.PLP.Fitness>
50.2169

> <Gold.PLP.PLP>
-42.2510

> <Gold.PLP.part.hbond>
-2.0000

> <Gold.PLP.part.metal>
0.0000

> <Gold.PLP.part.buried>
-4.2095

> <Gold.PLP.part.nonpolar>
-35.9232

> <Gold.PLP.part.repulsive>
0.1061

> <Gold.PLP.ligand.clash>
0.0000

> <Gold.PLP.ligand.torsion>
0.5908

> <Gold.PLP.Chemscore.Hbond>
3.0000

> <Gold.PLP.Chemscore.CHOScore>
0.0000

> <Gold.PLP.Chemscore.Metal>
0.0000

> <Gold.Chemscore.Hbonds>
donor molecule, donor type, donor heavy atom, donor atom, acceptor molecule, acceptor atom, score
      L1  H    16    39       P1 10175  2.00
      P1  H  7997  8008       L1     1  1.00

> <Gold.PLP.Chemscore.Internal.Correction>
0.1475

> <Gold.Rescore>
     Score         DG    S(hbond)    S(metal)    S(lipo)     H(rot)  DE(clash)    DE(int)     intcor
     17.71     -18.41       2.00        0.00     102.68       2.25       0.16       0.54       ----

> <Gold.Chemscore.Fitness>
17.7131

> <Gold.Chemscore.DG>
-18.4050

> <Gold.Chemscore.ZeroCoef>
-5.4800

> <Gold.Chemscore.Hbond>
1.9964

> <Gold.Chemscore.Metal>
0.0000

> <Gold.Chemscore.Lipo>
102.6766

> <Gold.Chemscore.Internal_Hbond>
0.0000

> <Gold.Chemscore.DEClash>
0.1558

> <Gold.Chemscore.DEInternal>
0.5362

> <Gold.Chemscore.Rot>
2.2485

> <Gold.Chemscore.Internal.Correction>
   9.000000E+99

> <Gold.Chemscore.Hbonds>
donor molecule, donor type, donor heavy atom, donor atom, acceptor molecule, acceptor atom, score
      L1  H    16    39       P1 10175  0.93
      P1  H  7997  8008       L1     1  1.00

> <Gold.Chemscore.Hbond.Weighted>
-6.6681

> <Gold.Chemscore.Metal.Weighted>
-0.0000

> <Gold.Chemscore.Lipo.Weighted>
-12.0132

> <Gold.Chemscore.Internal_Hbond.Weighted>
0.0000

> <Gold.Chemscore.DEClash.Weighted>
0.1558

> <Gold.Chemscore.DEInternal.Weighted>
0.5362

> <Gold.Chemscore.Rot.Weighted>
5.7562

> <Gold.Chemscore.Internal.Correction.Weighted>
   9.000000E+99

> <Gold.Protein.RotatedTorsions>
[ 6907 6896 6895 6894 ] final  129.61 input  -60.11 | X-H torsion
[ 7974 7965 7964 7962 ] final -104.85 input  175.53 | X-H torsion
[ 8008 7997 7996 7995 ] final  -44.27 input   59.86 | X-H torsion
[ 10167 10162 10161 10158 ] final   84.75 input  -65.29 | X-H torsion
[ 10718 10713 10712 10709 ] final  -34.94 input   66.30 | X-H torsion
[ 10763 10752 10751 10750 ] final  -24.46 input  -60.55 | X-H torsion
[ 11005 11000 10999 10996 ] final  -76.66 input  -57.11 | X-H torsion

> <Gold.Protein.ActiveResidues>
 VAL166  LYS551  ARG553  GLY616  TRP617  ASP618  TYR619  PRO620  LYS621  CYS622 
 ASP623  PHE694  ASN695  SER759  ASP760  ASP761  ALA762  ILE779  LEU786  VAL792 
 PHE793  MET794  SER795  GLU796  ALA797  LYS798  CYS799  TRP800  GLU811  SER814 

> <Gold.Protein.RotatedAtoms>
  152.3607  133.6293  159.6012 H   0  0  0  0  0  0  0  0  0  0  0  0  # atno 6907 bound_to 6896
  150.7599  133.9428  159.3470 H   0  0  0  0  0  0  0  0  0  0  0  0  # atno 6908 bound_to 6896
  151.7267  135.0884  160.0344 H   0  0  0  0  0  0  0  0  0  0  0  0  # atno 6909 bound_to 6896
  145.2379  140.9194  143.3167 H   0  0  0  0  0  0  0  0  0  0  0  0  # atno 7974 bound_to 7965
  154.3997  140.1426  156.3656 H   0  0  0  0  0  0  0  0  0  0  0  0  # atno 8008 bound_to 7997
  155.8140  140.3472  155.5454 H   0  0  0  0  0  0  0  0  0  0  0  0  # atno 8009 bound_to 7997
  155.8357  140.0919  157.1756 H   0  0  0  0  0  0  0  0  0  0  0  0  # atno 8010 bound_to 7997
  139.9049  144.6307  150.8598 H   0  0  0  0  0  0  0  0  0  0  0  0  # atno 10167 bound_to 10162
  156.3446  130.4299  149.7757 H   0  0  0  0  0  0  0  0  0  0  0  0  # atno 10718 bound_to 10713
  153.6842  135.6965  153.5109 H   0  0  0  0  0  0  0  0  0  0  0  0  # atno 10763 bound_to 10752
  153.2462  135.4290  155.0749 H   0  0  0  0  0  0  0  0  0  0  0  0  # atno 10764 bound_to 10752
  154.8391  135.3520  154.6384 H   0  0  0  0  0  0  0  0  0  0  0  0  # atno 10765 bound_to 10752
  141.1655  133.6992  156.7703 H   0  0  0  0  0  0  0  0  0  0  0  0  # atno 11005 bound_to 11000
  144.9616  139.3974  143.6353 LP  0  0  0  0  0  0  0  0  0  0  0  0  # atno 17320 bound_to 7965
  146.3336  139.8672  142.8846 LP  0  0  0  0  0  0  0  0  0  0  0  0  # atno 17321 bound_to 7965
  140.7699  143.3409  151.2210 LP  0  0  0  0  0  0  0  0  0  0  0  0  # atno 17342 bound_to 10162
  139.6993  143.9560  152.2898 LP  0  0  0  0  0  0  0  0  0  0  0  0  # atno 17343 bound_to 10162
  156.4981  130.8116  151.3121 LP  0  0  0  0  0  0  0  0  0  0  0  0  # atno 17370 bound_to 10713
  157.7452  130.9953  150.2740 LP  0  0  0  0  0  0  0  0  0  0  0  0  # atno 17371 bound_to 10713
  140.2469  134.8570  157.3629 LP  0  0  0  0  0  0  0  0  0  0  0  0  # atno 17394 bound_to 11000
  140.1741  134.4572  155.7813 LP  0  0  0  0  0  0  0  0  0  0  0  0  # atno 17395 bound_to 11000

$$$$
