AV-unprocessed.smi:916|AV-procd|sdf|4159|dock7
  -GOLD-   22720 2 63D 1   1.00000     0.00000
 Structure written by MMmdl.
 43 44  0  0  0  0  0  0  0  0  1 V2000
  145.9061  131.8400  149.3183 C   0  0  0  0  0  0  0  0  0  0  0  0
  144.8784  131.8051  150.4548 C   0  0  0  0  0  0  0  0  0  0  0  0
  144.7171  133.1395  151.1176 C   0  0  0  0  0  0  0  0  0  0  0  0
  143.5365  133.7759  151.4143 C   0  0  0  0  0  0  0  0  0  0  0  0
  143.7994  135.3168  152.1862 S   0  0  0  0  0  0  0  0  0  0  0  0
  145.5294  135.0351  152.0709 C   0  0  0  0  0  0  0  0  0  0  0  0
  146.4775  135.9750  152.5529 N   0  0  0  0  0  0  0  0  0  0  0  0
  146.2656  137.0272  153.3629 C   0  0  0  0  0  0  0  0  0  0  0  0
  145.1791  137.3480  153.8456 O   0  0  0  0  0  0  0  0  0  0  0  0
  147.4009  137.7006  153.5912 N   0  0  0  0  0  0  0  0  0  0  0  0
  147.4963  138.8946  154.4220 C   0  0  0  0  0  0  0  0  0  0  0  0
  148.1404  140.0690  153.6498 C   0  0  1  0  0  0  0  0  0  0  0  0
  147.1121  141.0845  153.1685 C   0  0  0  0  0  0  0  0  0  0  0  0
  146.9691  142.0398  154.3557 C   0  0  0  0  0  0  0  0  0  0  0  0
  148.0883  141.7899  155.2010 O   0  0  0  0  0  0  0  0  0  0  0  0
  149.0323  140.9845  154.5070 C   0  0  1  0  0  0  0  0  0  0  0  0
  150.0240  140.3079  155.4809 C   0  0  0  0  0  0  0  0  0  0  0  0
  150.8949  141.3540  156.1955 C   0  0  0  0  0  0  0  0  0  0  0  0
  150.9195  139.2837  154.7631 C   0  0  0  0  0  0  0  0  0  0  0  0
  145.8477  133.8685  151.4991 N   0  0  0  0  0  0  0  0  0  0  0  0
  146.0006  130.8602  148.8499 H   0  0  0  0  0  0  0  0  0  0  0  0
  146.8911  132.1287  149.6865 H   0  0  0  0  0  0  0  0  0  0  0  0
  145.6151  132.5525  148.5460 H   0  0  0  0  0  0  0  0  0  0  0  0
  143.9201  131.4654  150.0601 H   0  0  0  0  0  0  0  0  0  0  0  0
  145.1797  131.0579  151.1899 H   0  0  0  0  0  0  0  0  0  0  0  0
  142.5304  133.4319  151.2257 H   0  0  0  0  0  0  0  0  0  0  0  0
  147.4275  135.8286  152.2454 H   0  0  0  0  0  0  0  0  0  0  0  0
  148.2519  137.3721  153.1592 H   0  0  0  0  0  0  0  0  0  0  0  0
  146.5043  139.1741  154.7813 H   0  0  0  0  0  0  0  0  0  0  0  0
  148.0913  138.6398  155.2990 H   0  0  0  0  0  0  0  0  0  0  0  0
  148.7048  139.6687  152.8066 H   0  0  0  0  0  0  0  0  0  0  0  0
  147.5123  141.6283  152.3115 H   0  0  0  0  0  0  0  0  0  0  0  0
  146.1605  140.6500  152.8618 H   0  0  0  0  0  0  0  0  0  0  0  0
  146.9550  143.0800  154.0296 H   0  0  0  0  0  0  0  0  0  0  0  0
  146.0528  141.8460  154.9139 H   0  0  0  0  0  0  0  0  0  0  0  0
  149.5925  141.6442  153.8408 H   0  0  0  0  0  0  0  0  0  0  0  0
  149.4591  139.7845  156.2525 H   0  0  0  0  0  0  0  0  0  0  0  0
  151.4860  141.9315  155.4842 H   0  0  0  0  0  0  0  0  0  0  0  0
  151.5849  140.8798  156.8941 H   0  0  0  0  0  0  0  0  0  0  0  0
  150.2855  142.0542  156.7675 H   0  0  0  0  0  0  0  0  0  0  0  0
  151.5130  139.7583  153.9810 H   0  0  0  0  0  0  0  0  0  0  0  0
  150.3349  138.4900  154.2987 H   0  0  0  0  0  0  0  0  0  0  0  0
  151.6099  138.8097  155.4610 H   0  0  0  0  0  0  0  0  0  0  0  0
  1  2  1  0  0  0  0
  1 21  1  0  0  0  0
  1 22  1  0  0  0  0
  1 23  1  0  0  0  0
  2  3  1  0  0  0  0
  2 24  1  0  0  0  0
  2 25  1  0  0  0  0
  3 20  1  0  0  0  0
  3  4  2  0  0  0  0
  4  5  1  0  0  0  0
  4 26  1  0  0  0  0
  5  6  1  0  0  0  0
  6  7  1  0  0  0  0
  6 20  2  0  0  0  0
  7  8  1  0  0  0  0
  7 27  1  0  0  0  0
  8  9  2  0  0  0  0
  8 10  1  0  0  0  0
 10 11  1  0  0  0  0
 10 28  1  0  0  0  0
 11 12  1  0  0  0  0
 11 29  1  0  0  0  0
 11 30  1  0  0  0  0
 12 16  1  0  0  0  0
 12 13  1  0  0  0  0
 12 31  1  0  0  0  0
 13 14  1  0  0  0  0
 13 32  1  0  0  0  0
 13 33  1  0  0  0  0
 14 15  1  0  0  0  0
 14 34  1  0  0  0  0
 14 35  1  0  0  0  0
 15 16  1  0  0  0  0
 16 17  1  0  0  0  0
 16 36  1  0  0  0  0
 17 18  1  0  0  0  0
 17 19  1  0  0  0  0
 17 37  1  0  0  0  0
 18 38  1  0  0  0  0
 18 39  1  0  0  0  0
 18 40  1  0  0  0  0
 19 41  1  0  0  0  0
 19 42  1  0  0  0  0
 19 43  1  0  0  0  0
M  END
> <s_m_source_file>
AV-unprocessed.smi

> <i_m_source_file_index>
916

> <i_lp_mmshare_version>
43012

> <i_f3d_flags>
0

> <s_epik_input>
W0NIM11bQ0gyXWMxW2NIXXNjKG4xKVtOSF1DKD1PKVtOSF1bQ0gyXVtDQEBIXTJbQ0gyXVtDSDJdT1tDQEhdMltDSF0oW0NIM10pW0NIM10=

> <s_epik_cmdline>
J2VwaWtfcHl0aG9uJywgJy1waCcsICc3LjAnLCAnLXRuJywgJzgnLCAnLW1hJywgJzIwMCcsICctbWV0YWxfYmluZGluZycsICctaW1hZScsICc8aW5maWxlLm1hZT4nLCAnLW9tYWUnLCAnPG91dGZpbGUubWFlPic=

> <r_lp_tautomer_probability>
0.999

> <r_epik_Ionization_Penalty>
0.000518907

> <r_epik_Ionization_Penalty_Charging>
0

> <r_epik_Ionization_Penalty_Neutral>
0.000518907

> <r_epik_State_Penalty>
0.000177984

> <r_epik_Charging_Adjusted_Penalty>
0.000177984

> <i_epik_Tot_Q>
0

> <i_epik_Tot_abs_Q>
0

> <r_epik_Metal_State_Penalty>
-0

> <b_epik_Metal_Only>
0

> <s_lp_Force_Field>
OPLS_2005

> <r_lp_Energy>
19.5432

> <b_lp_Chiralities_Consistent>
1

> <s_lp_Variant>
AV-unprocessed.smi:916-2

> <Gold.Version>
5.8.1

> <Gold.Id.Protein>
6NUR|6NUR_protein|mol2

> <Gold.PLP.Fitness>
42.9476

> <Gold.PLP.PLP>
-36.0707

> <Gold.PLP.part.hbond>
-2.0000

> <Gold.PLP.part.metal>
0.0000

> <Gold.PLP.part.buried>
-2.9380

> <Gold.PLP.part.nonpolar>
-31.8117

> <Gold.PLP.part.repulsive>
0.8818

> <Gold.PLP.ligand.clash>
0.0000

> <Gold.PLP.ligand.torsion>
0.7695

> <Gold.PLP.Chemscore.Hbond>
1.9120

> <Gold.PLP.Chemscore.CHOScore>
0.8703

> <Gold.PLP.Chemscore.Metal>
0.0000

> <Gold.Chemscore.Hbonds>
donor molecule, donor type, donor heavy atom, donor atom, acceptor molecule, acceptor atom, score
      L1  H     7    27       P1  7948  1.00
      L1  H    10    28       P1  7948  0.90
      L1  C     4    26       P1 10186  0.90

> <Gold.PLP.Chemscore.Internal.Correction>
0.0689

> <Gold.Rescore>
     Score         DG    S(hbond)    S(metal)    S(lipo)     H(rot)  DE(clash)    DE(int)     intcor
     16.13     -18.70       1.89        0.00      92.52       1.52       0.85       1.72       ----

> <Gold.Chemscore.Fitness>
16.1292

> <Gold.Chemscore.DG>
-18.7043

> <Gold.Chemscore.ZeroCoef>
-5.4800

> <Gold.Chemscore.Hbond>
1.8862

> <Gold.Chemscore.Metal>
0.0000

> <Gold.Chemscore.Lipo>
92.5228

> <Gold.Chemscore.Internal_Hbond>
0.0000

> <Gold.Chemscore.DEClash>
0.8506

> <Gold.Chemscore.DEInternal>
1.7245

> <Gold.Chemscore.Rot>
1.5238

> <Gold.Chemscore.Internal.Correction>
   9.000000E+99

> <Gold.Chemscore.Hbonds>
donor molecule, donor type, donor heavy atom, donor atom, acceptor molecule, acceptor atom, score
      L1  H     7    27       P1  7948  0.98
      L1  H    10    28       P1  7948  0.88

> <Gold.Chemscore.Hbond.Weighted>
-6.2999

> <Gold.Chemscore.Metal.Weighted>
-0.0000

> <Gold.Chemscore.Lipo.Weighted>
-10.8252

> <Gold.Chemscore.Internal_Hbond.Weighted>
0.0000

> <Gold.Chemscore.DEClash.Weighted>
0.8506

> <Gold.Chemscore.DEInternal.Weighted>
1.7245

> <Gold.Chemscore.Rot.Weighted>
3.9008

> <Gold.Chemscore.Internal.Correction.Weighted>
   9.000000E+99

> <Gold.Protein.RotatedTorsions>
[ 6907 6896 6895 6894 ] final    6.14 input  -60.11 | X-H torsion
[ 7974 7965 7964 7962 ] final  143.99 input  175.53 | X-H torsion
[ 8008 7997 7996 7995 ] final   27.18 input   59.86 | X-H torsion
[ 10167 10162 10161 10158 ] final  178.65 input  -65.29 | X-H torsion
[ 10718 10713 10712 10709 ] final   17.39 input   66.30 | X-H torsion
[ 10763 10752 10751 10750 ] final  102.81 input  -60.55 | X-H torsion
[ 11005 11000 10999 10996 ] final  -44.94 input  -57.11 | X-H torsion

> <Gold.Protein.ActiveResidues>
 VAL166  LYS551  ARG553  GLY616  TRP617  ASP618  TYR619  PRO620  LYS621  CYS622 
 ASP623  PHE694  ASN695  SER759  ASP760  ASP761  ALA762  ILE779  LEU786  VAL792 
 PHE793  MET794  SER795  GLU796  ALA797  LYS798  CYS799  TRP800  GLU811  SER814 

> <Gold.Protein.RotatedAtoms>
  151.6689  135.0979  160.0193 H   0  0  0  0  0  0  0  0  0  0  0  0  # atno 6907 bound_to 6896
  152.3903  133.6665  159.6240 H   0  0  0  0  0  0  0  0  0  0  0  0  # atno 6908 bound_to 6896
  150.7820  133.8882  159.3347 H   0  0  0  0  0  0  0  0  0  0  0  0  # atno 6909 bound_to 6896
  144.8874  139.5609  143.5814 H   0  0  0  0  0  0  0  0  0  0  0  0  # atno 7974 bound_to 7965
  155.0390  140.3167  155.4731 H   0  0  0  0  0  0  0  0  0  0  0  0  # atno 8008 bound_to 7997
  156.2859  140.2166  156.5456 H   0  0  0  0  0  0  0  0  0  0  0  0  # atno 8009 bound_to 7997
  154.7306  140.0481  157.0711 H   0  0  0  0  0  0  0  0  0  0  0  0  # atno 8010 bound_to 7997
  139.5303  144.2655  152.0672 H   0  0  0  0  0  0  0  0  0  0  0  0  # atno 10167 bound_to 10162
  157.0814  130.6389  149.5827 H   0  0  0  0  0  0  0  0  0  0  0  0  # atno 10718 bound_to 10713
  153.3444  135.3998  155.1597 H   0  0  0  0  0  0  0  0  0  0  0  0  # atno 10763 bound_to 10752
  154.8650  135.3641  154.5303 H   0  0  0  0  0  0  0  0  0  0  0  0  # atno 10764 bound_to 10752
  153.5750  135.7078  153.5547 H   0  0  0  0  0  0  0  0  0  0  0  0  # atno 10765 bound_to 10752
  141.0483  133.6752  156.2944 H   0  0  0  0  0  0  0  0  0  0  0  0  # atno 11005 bound_to 11000
  146.3032  139.7495  142.9075 LP  0  0  0  0  0  0  0  0  0  0  0  0  # atno 17320 bound_to 7965
  145.3845  141.0363  143.3159 LP  0  0  0  0  0  0  0  0  0  0  0  0  # atno 17321 bound_to 7965
  140.2117  144.4556  150.6383 LP  0  0  0  0  0  0  0  0  0  0  0  0  # atno 17342 bound_to 10162
  140.6476  143.2217  151.6150 LP  0  0  0  0  0  0  0  0  0  0  0  0  # atno 17343 bound_to 10162
  155.9922  130.4980  150.7332 LP  0  0  0  0  0  0  0  0  0  0  0  0  # atno 17370 bound_to 10713
  157.4797  131.0901  151.0550 LP  0  0  0  0  0  0  0  0  0  0  0  0  # atno 17371 bound_to 10713
  140.6103  134.5465  157.5532 LP  0  0  0  0  0  0  0  0  0  0  0  0  # atno 17394 bound_to 11000
  139.9330  134.7928  156.0879 LP  0  0  0  0  0  0  0  0  0  0  0  0  # atno 17395 bound_to 11000

$$$$
