AV-unprocessed.smi:1419|AV-procd|sdf|5774|dock4
  -GOLD-   22720 5413D 1   1.00000     0.00000
 Structure written by MMmdl.
 42 43  0  0  0  0  0  0  0  0  2 V2000
  149.2394  140.1888  156.8635 C   0  0  0  0  0  0  0  0  0  0  0  0
  150.1672  141.1319  156.0864 C   0  0  2  0  0  0  0  0  0  0  0  0
  151.4080  140.3842  155.5509 C   0  0  0  0  0  0  0  0  0  0  0  0
  151.0887  139.0616  155.0022 N   0  0  0  0  0  0  0  0  0  0  0  0
  151.5784  137.8490  155.4164 C   0  0  0  0  0  0  0  0  0  0  0  0
  151.0179  136.9017  154.5990 C   0  0  0  0  0  0  0  0  0  0  0  0
  150.2055  137.5746  153.7261 N   0  3  0  0  0  0  0  0  0  0  0  0
  150.2458  138.8874  153.9764 C   0  0  0  0  0  0  0  0  0  0  0  0
  150.5660  142.2341  156.9605 N   0  0  0  0  0  0  0  0  0  0  0  0
  151.3693  142.1381  158.0348 C   0  0  0  0  0  0  0  0  0  0  0  0
  151.9327  141.0866  158.3418 O   0  0  0  0  0  0  0  0  0  0  0  0
  151.5023  143.2852  158.7446 N   0  0  0  0  0  0  0  0  0  0  0  0
  150.4995  144.3507  158.8751 C   0  0  0  0  0  0  0  0  0  0  0  0
  149.8354  144.2084  160.2595 C   0  0  2  0  0  0  0  0  0  0  0  0
  148.7970  145.3042  160.5211 C   0  0  0  0  0  0  0  0  0  0  0  0
  150.8407  144.2946  161.2697 O   0  0  0  0  0  0  0  0  0  0  0  0
  151.8734  143.3157  161.1483 C   0  0  2  0  0  0  0  0  0  0  0  0
  152.8686  143.5229  162.2943 C   0  0  0  0  0  0  0  0  0  0  0  0
  152.5391  143.4556  159.7640 C   0  0  0  0  0  0  0  0  0  0  0  0
  148.9078  139.3603  156.2367 H   0  0  0  0  0  0  0  0  0  0  0  0
  148.3487  140.7128  157.2115 H   0  0  0  0  0  0  0  0  0  0  0  0
  149.7401  139.7663  157.7354 H   0  0  0  0  0  0  0  0  0  0  0  0
  149.5957  141.5179  155.2404 H   0  0  0  0  0  0  0  0  0  0  0  0
  151.9006  140.9642  154.7690 H   0  0  0  0  0  0  0  0  0  0  0  0
  152.1404  140.2400  156.3465 H   0  0  0  0  0  0  0  0  0  0  0  0
  152.2777  137.7536  156.2344 H   0  0  0  0  0  0  0  0  0  0  0  0
  151.1339  135.8280  154.5730 H   0  0  0  0  0  0  0  0  0  0  0  0
  149.7133  139.6561  153.4451 H   0  0  0  0  0  0  0  0  0  0  0  0
  150.1613  143.1374  156.7607 H   0  0  0  0  0  0  0  0  0  0  0  0
  150.9919  145.3207  158.7911 H   0  0  0  0  0  0  0  0  0  0  0  0
  149.7412  144.3412  158.0921 H   0  0  0  0  0  0  0  0  0  0  0  0
  149.3428  143.2372  160.3325 H   0  0  0  0  0  0  0  0  0  0  0  0
  147.9954  145.2701  159.7830 H   0  0  0  0  0  0  0  0  0  0  0  0
  149.2500  146.2952  160.4786 H   0  0  0  0  0  0  0  0  0  0  0  0
  148.3460  145.1868  161.5067 H   0  0  0  0  0  0  0  0  0  0  0  0
  151.4320  142.3219  161.2452 H   0  0  0  0  0  0  0  0  0  0  0  0
  153.6700  142.7847  162.2567 H   0  0  0  0  0  0  0  0  0  0  0  0
  152.3743  143.4274  163.2613 H   0  0  0  0  0  0  0  0  0  0  0  0
  153.3228  144.5131  162.2486 H   0  0  0  0  0  0  0  0  0  0  0  0
  153.3529  142.7363  159.6588 H   0  0  0  0  0  0  0  0  0  0  0  0
  152.9964  144.4406  159.6592 H   0  0  0  0  0  0  0  0  0  0  0  0
  149.6551  137.1443  152.9937 H   0  0  0  0  0  0  0  0  0  0  0  0
  1  2  1  0  0  0  0
  1 20  1  0  0  0  0
  1 21  1  0  0  0  0
  1 22  1  0  0  0  0
  2  3  1  0  0  0  0
  2  9  1  0  0  0  0
  2 23  1  0  0  0  0
  3  4  1  0  0  0  0
  3 24  1  0  0  0  0
  3 25  1  0  0  0  0
  4  8  1  0  0  0  0
  4  5  1  0  0  0  0
  5  6  2  0  0  0  0
  5 26  1  0  0  0  0
  6  7  1  0  0  0  0
  6 27  1  0  0  0  0
  7  8  2  0  0  0  0
  7 42  1  0  0  0  0
  8 28  1  0  0  0  0
  9 10  1  0  0  0  0
  9 29  1  0  0  0  0
 10 11  2  0  0  0  0
 10 12  1  0  0  0  0
 12 19  1  0  0  0  0
 12 13  1  0  0  0  0
 13 14  1  0  0  0  0
 13 30  1  0  0  0  0
 13 31  1  0  0  0  0
 14 15  1  0  0  0  0
 14 16  1  0  0  0  0
 14 32  1  0  0  0  0
 15 33  1  0  0  0  0
 15 34  1  0  0  0  0
 15 35  1  0  0  0  0
 16 17  1  0  0  0  0
 17 18  1  0  0  0  0
 17 19  1  0  0  0  0
 17 36  1  0  0  0  0
 18 37  1  0  0  0  0
 18 38  1  0  0  0  0
 18 39  1  0  0  0  0
 19 40  1  0  0  0  0
 19 41  1  0  0  0  0
M  CHG  1   7   1
M  END
> <s_m_source_file>
AV-unprocessed.smi

> <i_m_source_file_index>
1419

> <i_lp_mmshare_version>
43012

> <i_f3d_flags>
0

> <s_epik_input>
W2NIXTFuW2NIXVtjSF1uMVtDSDJdW0NAQEhdKFtDSDNdKVtOSF1DKD1PKU4yW0NIMl1bQ0BASF0oW0NIM10pT1tDQEBIXShbQ0gzXSlbQ0gyXTI=

> <s_epik_cmdline>
J2VwaWtfcHl0aG9uJywgJy1waCcsICc3LjAnLCAnLXRuJywgJzgnLCAnLW1hJywgJzIwMCcsICctbWV0YWxfYmluZGluZycsICctaW1hZScsICc8aW5maWxlLm1hZT4nLCAnLW9tYWUnLCAnPG91dGZpbGUubWFlPic=

> <r_lp_tautomer_probability>
1

> <r_epik_Ionization_Penalty>
0.253607

> <r_epik_Ionization_Penalty_Charging>
0

> <r_epik_Ionization_Penalty_Neutral>
0.253607

> <r_epik_State_Penalty>
0.245018

> <r_epik_Charging_Adjusted_Penalty>
0.245018

> <i_epik_Tot_Q>
1

> <i_epik_Tot_abs_Q>
1

> <r_epik_Metal_State_Penalty>
0.535379

> <b_epik_Metal_Only>
0

> <s_lp_Force_Field>
OPLS_2005

> <r_lp_Energy>
29.0063

> <b_lp_Chiralities_Consistent>
1

> <s_lp_Variant>
AV-unprocessed.smi:1419-1

> <Gold.Version>
5.8.1

> <Gold.Id.Protein>
6NUR|6NUR_protein|mol2

> <Gold.PLP.Fitness>
44.3460

> <Gold.PLP.PLP>
-35.4194

> <Gold.PLP.part.hbond>
-2.2922

> <Gold.PLP.part.metal>
0.0000

> <Gold.PLP.part.buried>
-2.3538

> <Gold.PLP.part.nonpolar>
-32.0003

> <Gold.PLP.part.repulsive>
1.1382

> <Gold.PLP.ligand.clash>
0.0000

> <Gold.PLP.ligand.torsion>
0.4249

> <Gold.PLP.Chemscore.Hbond>
2.2437

> <Gold.PLP.Chemscore.CHOScore>
0.9875

> <Gold.PLP.Chemscore.Metal>
0.0000

> <Gold.Chemscore.Hbonds>
donor molecule, donor type, donor heavy atom, donor atom, acceptor molecule, acceptor atom, score
      L1  H     7    42       P1  7948  2.00
      L1  H     9    29       P1  8028  0.31
      L1  C     8    28       P1  7957  0.97

> <Gold.PLP.Chemscore.Internal.Correction>
0.0827

> <Gold.Rescore>
     Score         DG    S(hbond)    S(metal)    S(lipo)     H(rot)  DE(clash)    DE(int)     intcor
     12.42     -15.14       1.12        0.00      86.19       1.63       1.20       1.52       ----

> <Gold.Chemscore.Fitness>
12.4207

> <Gold.Chemscore.DG>
-15.1416

> <Gold.Chemscore.ZeroCoef>
-5.4800

> <Gold.Chemscore.Hbond>
1.1208

> <Gold.Chemscore.Metal>
0.0000

> <Gold.Chemscore.Lipo>
86.1864

> <Gold.Chemscore.Internal_Hbond>
0.0000

> <Gold.Chemscore.DEClash>
1.2003

> <Gold.Chemscore.DEInternal>
1.5206

> <Gold.Chemscore.Rot>
1.6273

> <Gold.Chemscore.Internal.Correction>
   9.000000E+99

> <Gold.Chemscore.Hbonds>
donor molecule, donor type, donor heavy atom, donor atom, acceptor molecule, acceptor atom, score
      L1  H     7    42       P1  7948  0.54
      L1  H     9    29       P1  8028  0.31

> <Gold.Chemscore.Hbond.Weighted>
-3.7436

> <Gold.Chemscore.Metal.Weighted>
-0.0000

> <Gold.Chemscore.Lipo.Weighted>
-10.0838

> <Gold.Chemscore.Internal_Hbond.Weighted>
0.0000

> <Gold.Chemscore.DEClash.Weighted>
1.2003

> <Gold.Chemscore.DEInternal.Weighted>
1.5206

> <Gold.Chemscore.Rot.Weighted>
4.1658

> <Gold.Chemscore.Internal.Correction.Weighted>
   9.000000E+99

> <Gold.Protein.RotatedTorsions>
[ 6907 6896 6895 6894 ] final   55.22 input  -60.11 | X-H torsion
[ 7974 7965 7964 7962 ] final -147.33 input  175.53 | X-H torsion
[ 8008 7997 7996 7995 ] final  175.52 input   59.86 | X-H torsion
[ 10167 10162 10161 10158 ] final   13.11 input  -65.29 | X-H torsion
[ 10718 10713 10712 10709 ] final   76.25 input   66.30 | X-H torsion
[ 10763 10752 10751 10750 ] final  -36.70 input  -60.55 | X-H torsion
[ 11005 11000 10999 10996 ] final -160.15 input  -57.11 | X-H torsion

> <Gold.Protein.ActiveResidues>
 VAL166  LYS551  ARG553  GLY616  TRP617  ASP618  TYR619  PRO620  LYS621  CYS622 
 ASP623  PHE694  ASN695  SER759  ASP760  ASP761  ALA762  ILE779  LEU786  VAL792 
 PHE793  MET794  SER795  GLU796  ALA797  LYS798  CYS799  TRP800  GLU811  SER814 

> <Gold.Protein.RotatedAtoms>
  152.3517  134.6996  160.0234 H   0  0  0  0  0  0  0  0  0  0  0  0  # atno 6907 bound_to 6896
  151.7348  133.3314  159.3358 H   0  0  0  0  0  0  0  0  0  0  0  0  # atno 6908 bound_to 6896
  150.7544  134.6264  159.6208 H   0  0  0  0  0  0  0  0  0  0  0  0  # atno 6909 bound_to 6896
  144.8100  140.5341  143.5648 H   0  0  0  0  0  0  0  0  0  0  0  0  # atno 7974 bound_to 7965
  156.0862  140.1407  156.9650 H   0  0  0  0  0  0  0  0  0  0  0  0  # atno 8008 bound_to 7997
  154.4614  140.0942  156.6951 H   0  0  0  0  0  0  0  0  0  0  0  0  # atno 8009 bound_to 7997
  155.4995  140.3450  155.4371 H   0  0  0  0  0  0  0  0  0  0  0  0  # atno 8010 bound_to 7997
  140.6024  143.8577  150.6979 H   0  0  0  0  0  0  0  0  0  0  0  0  # atno 10167 bound_to 10162
  157.6666  130.9765  150.1470 H   0  0  0  0  0  0  0  0  0  0  0  0  # atno 10718 bound_to 10713
  153.8840  135.6819  153.4765 H   0  0  0  0  0  0  0  0  0  0  0  0  # atno 10763 bound_to 10752
  153.1218  135.4736  154.9205 H   0  0  0  0  0  0  0  0  0  0  0  0  # atno 10764 bound_to 10752
  154.7655  135.3223  154.8247 H   0  0  0  0  0  0  0  0  0  0  0  0  # atno 10765 bound_to 10752
  140.6347  134.4614  157.5231 H   0  0  0  0  0  0  0  0  0  0  0  0  # atno 11005 bound_to 11000
  145.5345  139.1475  143.3481 LP  0  0  0  0  0  0  0  0  0  0  0  0  # atno 17320 bound_to 7965
  146.2398  140.5486  142.8939 LP  0  0  0  0  0  0  0  0  0  0  0  0  # atno 17321 bound_to 7965
  140.2126  143.3871  152.1706 LP  0  0  0  0  0  0  0  0  0  0  0  0  # atno 17342 bound_to 10162
  139.5300  144.7148  151.5088 LP  0  0  0  0  0  0  0  0  0  0  0  0  # atno 17343 bound_to 10162
  156.2279  130.3679  149.8479 LP  0  0  0  0  0  0  0  0  0  0  0  0  # atno 17370 bound_to 10713
  156.6314  130.8667  151.3496 LP  0  0  0  0  0  0  0  0  0  0  0  0  # atno 17371 bound_to 10713
  139.9103  134.8360  156.1554 LP  0  0  0  0  0  0  0  0  0  0  0  0  # atno 17394 bound_to 11000
  141.0650  133.6823  156.2027 LP  0  0  0  0  0  0  0  0  0  0  0  0  # atno 17395 bound_to 11000

$$$$
