AV-unprocessed.smi:6|AV-procd|sdf|40|dock9
  -GOLD-   2262015153D 1   1.00000     0.00000
 Structure written by MMmdl.
 38 39  0  0  0  0  0  0  0  0  2 V2000
  145.8870  131.7165  149.1155 C   0  0  0  0  0  0  0  0  0  0  0  0
  144.5431  132.3634  149.4848 C   0  0  0  0  0  0  0  0  0  0  0  0
  143.7586  132.8583  148.2602 C   0  0  0  0  0  0  0  0  0  0  0  0
  144.7029  133.4528  150.5356 C   0  0  0  0  0  0  0  0  0  0  0  0
  143.6832  134.2983  150.7573 N   0  3  0  0  0  0  0  0  0  0  0  0
  143.8137  135.2797  151.6830 C   0  0  0  0  0  0  0  0  0  0  0  0
  145.0095  135.4168  152.4126 C   0  0  0  0  0  0  0  0  0  0  0  0
  146.0358  134.4982  152.1328 C   0  0  0  0  0  0  0  0  0  0  0  0
  147.2507  134.5855  152.8263 N   0  0  0  0  0  0  0  0  0  0  0  0
  147.2851  134.3925  154.2714 C   0  0  0  0  0  0  0  0  0  0  0  0
  148.4247  133.4930  154.7248 C   0  0  0  0  0  0  0  0  0  0  0  0
  148.4990  132.1890  154.3543 C   0  0  0  0  0  0  0  0  0  0  0  0
  149.5337  131.3454  154.7270 N   0  0  0  0  0  0  0  0  0  0  0  0
  149.6039  129.9648  154.3330 C   0  0  0  0  0  0  0  0  0  0  0  0
  150.5867  131.8361  155.5267 C   0  0  0  0  0  0  0  0  0  0  0  0
  151.5335  131.1404  155.8947 O   0  0  0  0  0  0  0  0  0  0  0  0
  150.5184  133.1789  155.8952 N   0  0  0  0  0  0  0  0  0  0  0  0
  149.4978  134.0682  155.5450 C   0  0  0  0  0  0  0  0  0  0  0  0
  149.5531  135.2356  155.9280 O   0  0  0  0  0  0  0  0  0  0  0  0
  145.8650  133.5356  151.1997 N   0  0  0  0  0  0  0  0  0  0  0  0
  151.2716  133.5398  156.4628 H   0  0  0  0  0  0  0  0  0  0  0  0
  146.3801  131.3047  149.9963 H   0  0  0  0  0  0  0  0  0  0  0  0
  146.5658  132.4387  148.6604 H   0  0  0  0  0  0  0  0  0  0  0  0
  145.7474  130.9020  148.4042 H   0  0  0  0  0  0  0  0  0  0  0  0
  143.9392  131.5742  149.9359 H   0  0  0  0  0  0  0  0  0  0  0  0
  142.7782  133.2380  148.5497 H   0  0  0  0  0  0  0  0  0  0  0  0
  143.6015  132.0522  147.5432 H   0  0  0  0  0  0  0  0  0  0  0  0
  144.2879  133.6605  147.7450 H   0  0  0  0  0  0  0  0  0  0  0  0
  142.9563  135.9246  151.8087 H   0  0  0  0  0  0  0  0  0  0  0  0
  145.1284  136.1951  153.1523 H   0  0  0  0  0  0  0  0  0  0  0  0
  148.0284  135.0585  152.3889 H   0  0  0  0  0  0  0  0  0  0  0  0
  147.3706  135.3669  154.7535 H   0  0  0  0  0  0  0  0  0  0  0  0
  146.3461  133.9532  154.6111 H   0  0  0  0  0  0  0  0  0  0  0  0
  147.7070  131.7886  153.7376 H   0  0  0  0  0  0  0  0  0  0  0  0
  149.5960  129.3590  155.2413 H   0  0  0  0  0  0  0  0  0  0  0  0
  150.5209  129.8296  153.7560 H   0  0  0  0  0  0  0  0  0  0  0  0
  148.7327  129.7370  153.7178 H   0  0  0  0  0  0  0  0  0  0  0  0
  142.8114  134.2114  150.2341 H   0  0  0  0  0  0  0  0  0  0  0  0
  1  2  1  0  0  0  0
  1 22  1  0  0  0  0
  1 23  1  0  0  0  0
  1 24  1  0  0  0  0
  2  3  1  0  0  0  0
  2  4  1  0  0  0  0
  2 25  1  0  0  0  0
  3 26  1  0  0  0  0
  3 27  1  0  0  0  0
  3 28  1  0  0  0  0
  4 20  1  0  0  0  0
  4  5  2  0  0  0  0
  5  6  1  0  0  0  0
  5 38  1  0  0  0  0
  6  7  2  0  0  0  0
  6 29  1  0  0  0  0
  7  8  1  0  0  0  0
  7 30  1  0  0  0  0
  8  9  1  0  0  0  0
  8 20  2  0  0  0  0
  9 10  1  0  0  0  0
  9 31  1  0  0  0  0
 10 11  1  0  0  0  0
 10 32  1  0  0  0  0
 10 33  1  0  0  0  0
 11 18  1  0  0  0  0
 11 12  2  0  0  0  0
 12 13  1  0  0  0  0
 12 34  1  0  0  0  0
 13 14  1  0  0  0  0
 13 15  1  0  0  0  0
 14 35  1  0  0  0  0
 14 36  1  0  0  0  0
 14 37  1  0  0  0  0
 15 16  2  0  0  0  0
 15 17  1  0  0  0  0
 17 21  1  0  0  0  0
 17 18  1  0  0  0  0
 18 19  2  0  0  0  0
M  CHG  1   5   1
M  END
> <s_m_source_file>
AV-unprocessed.smi

> <i_m_source_file_index>
6

> <i_lp_mmshare_version>
43012

> <i_f3d_flags>
0

> <s_epik_input>
W0NIM11bQ0hdKFtDSDNdKWMxbltjSF1bY0hdYyhuMSlbTkhdW0NIMl1jMltjSF1uKFtDSDNdKWMoPU8pW25IXWMyPU8=

> <s_epik_cmdline>
J2VwaWtfcHl0aG9uJywgJy1waCcsICc3LjAnLCAnLXRuJywgJzgnLCAnLW1hJywgJzIwMCcsICctbWV0YWxfYmluZGluZycsICctaW1hZScsICc8aW5maWxlLm1hZT4nLCAnLW9tYWUnLCAnPG91dGZpbGUubWFlPic=

> <r_lp_tautomer_probability>
0.998874

> <r_epik_Ionization_Penalty>
0.537311

> <r_epik_Ionization_Penalty_Charging>
0.537291

> <r_epik_Ionization_Penalty_Neutral>
2.09214e-05

> <r_epik_State_Penalty>
0.545757

> <r_epik_Charging_Adjusted_Penalty>
1.08305

> <i_epik_Tot_Q>
1

> <i_epik_Tot_abs_Q>
1

> <r_epik_Metal_State_Penalty>
0.947272

> <b_epik_Metal_Only>
0

> <s_lp_Force_Field>
OPLS_2005

> <r_lp_Energy>
10.386

> <b_lp_Chiralities_Consistent>
1

> <s_lp_Variant>
AV-unprocessed.smi:6-2

> <Gold.Version>
5.8.1

> <Gold.Id.Protein>
6NUR|6NUR_protein|mol2

> <Gold.PLP.Fitness>
40.9756

> <Gold.PLP.PLP>
-34.2683

> <Gold.PLP.part.hbond>
-1.9649

> <Gold.PLP.part.metal>
0.0000

> <Gold.PLP.part.buried>
-4.2489

> <Gold.PLP.part.nonpolar>
-28.0868

> <Gold.PLP.part.repulsive>
0.2870

> <Gold.PLP.ligand.clash>
0.0000

> <Gold.PLP.ligand.torsion>
1.1823

> <Gold.PLP.Chemscore.Hbond>
3.0000

> <Gold.PLP.Chemscore.CHOScore>
0.0000

> <Gold.PLP.Chemscore.Metal>
0.0000

> <Gold.Chemscore.Hbonds>
donor molecule, donor type, donor heavy atom, donor atom, acceptor molecule, acceptor atom, score
      L1  H     5    38       P1 10186  2.00
      L1  H     9    31       P1  7948  1.00

> <Gold.PLP.Chemscore.Internal.Correction>
0.0719

> <Gold.Rescore>
     Score         DG    S(hbond)    S(metal)    S(lipo)     H(rot)  DE(clash)    DE(int)     intcor
     14.41     -15.43       1.93        0.00      66.73       1.68       0.02       0.99       ----

> <Gold.Chemscore.Fitness>
14.4128

> <Gold.Chemscore.DG>
-15.4259

> <Gold.Chemscore.ZeroCoef>
-5.4800

> <Gold.Chemscore.Hbond>
1.9272

> <Gold.Chemscore.Metal>
0.0000

> <Gold.Chemscore.Lipo>
66.7266

> <Gold.Chemscore.Internal_Hbond>
0.0000

> <Gold.Chemscore.DEClash>
0.0187

> <Gold.Chemscore.DEInternal>
0.9944

> <Gold.Chemscore.Rot>
1.6789

> <Gold.Chemscore.Internal.Correction>
   9.000000E+99

> <Gold.Chemscore.Hbonds>
donor molecule, donor type, donor heavy atom, donor atom, acceptor molecule, acceptor atom, score
      L1  H     5    38       P1 10186  0.90
      L1  H     9    31       P1  7948  0.81

> <Gold.Chemscore.Hbond.Weighted>
-6.4369

> <Gold.Chemscore.Metal.Weighted>
-0.0000

> <Gold.Chemscore.Lipo.Weighted>
-7.8070

> <Gold.Chemscore.Internal_Hbond.Weighted>
0.0000

> <Gold.Chemscore.DEClash.Weighted>
0.0187

> <Gold.Chemscore.DEInternal.Weighted>
0.9944

> <Gold.Chemscore.Rot.Weighted>
4.2980

> <Gold.Chemscore.Internal.Correction.Weighted>
   9.000000E+99

> <Gold.Protein.RotatedTorsions>
[ 6907 6896 6895 6894 ] final -135.09 input  -60.11 | X-H torsion
[ 7974 7965 7964 7962 ] final  154.46 input  175.53 | X-H torsion
[ 8008 7997 7996 7995 ] final  -86.27 input   59.86 | X-H torsion
[ 10167 10162 10161 10158 ] final  -92.07 input  -65.29 | X-H torsion
[ 10718 10713 10712 10709 ] final  -52.20 input   66.30 | X-H torsion
[ 10763 10752 10751 10750 ] final  -16.25 input  -60.55 | X-H torsion
[ 11005 11000 10999 10996 ] final  -20.14 input  -57.11 | X-H torsion

> <Gold.Protein.ActiveResidues>
 VAL166  LYS551  ARG553  GLY616  TRP617  ASP618  TYR619  PRO620  LYS621  CYS622 
 ASP623  PHE694  ASN695  SER759  ASP760  ASP761  ALA762  ILE779  LEU786  VAL792 
 PHE793  MET794  SER795  GLU796  ALA797  LYS798  CYS799  TRP800  GLU811  SER814 

> <Gold.Protein.RotatedAtoms>
  150.9937  133.6124  159.2704 H   0  0  0  0  0  0  0  0  0  0  0  0  # atno 6907 bound_to 6896
  151.3336  135.0846  159.9357 H   0  0  0  0  0  0  0  0  0  0  0  0  # atno 6908 bound_to 6896
  152.5253  133.9562  159.7749 H   0  0  0  0  0  0  0  0  0  0  0  0  # atno 6909 bound_to 6896
  144.8087  139.6937  143.6151 H   0  0  0  0  0  0  0  0  0  0  0  0  # atno 7974 bound_to 7965
  154.6500  140.0580  156.9944 H   0  0  0  0  0  0  0  0  0  0  0  0  # atno 8008 bound_to 7997
  155.1386  140.3263  155.4439 H   0  0  0  0  0  0  0  0  0  0  0  0  # atno 8009 bound_to 7997
  156.2571  140.1968  156.6503 H   0  0  0  0  0  0  0  0  0  0  0  0  # atno 8010 bound_to 7997
  140.3385  143.2955  151.9862 H   0  0  0  0  0  0  0  0  0  0  0  0  # atno 10167 bound_to 10162
  156.1642  130.4149  149.9746 H   0  0  0  0  0  0  0  0  0  0  0  0  # atno 10718 bound_to 10713
  153.5557  135.7011  153.5570 H   0  0  0  0  0  0  0  0  0  0  0  0  # atno 10763 bound_to 10752
  153.3475  135.4004  155.1620 H   0  0  0  0  0  0  0  0  0  0  0  0  # atno 10764 bound_to 10752
  154.8655  135.3757  154.5071 H   0  0  0  0  0  0  0  0  0  0  0  0  # atno 10765 bound_to 10752
  140.8435  133.7909  155.9887 H   0  0  0  0  0  0  0  0  0  0  0  0  # atno 11005 bound_to 11000
  146.2382  139.5948  142.9509 LP  0  0  0  0  0  0  0  0  0  0  0  0  # atno 17320 bound_to 7965
  145.5376  141.0423  143.2348 LP  0  0  0  0  0  0  0  0  0  0  0  0  # atno 17321 bound_to 7965
  139.4844  144.6176  151.7316 LP  0  0  0  0  0  0  0  0  0  0  0  0  # atno 17342 bound_to 10162
  140.5331  144.0699  150.6061 LP  0  0  0  0  0  0  0  0  0  0  0  0  # atno 17343 bound_to 10162
  156.7566  130.9135  151.3640 LP  0  0  0  0  0  0  0  0  0  0  0  0  # atno 17370 bound_to 10713
  157.6755  130.9091  150.0141 LP  0  0  0  0  0  0  0  0  0  0  0  0  # atno 17371 bound_to 10713
  140.8869  134.2543  157.5115 LP  0  0  0  0  0  0  0  0  0  0  0  0  # atno 17394 bound_to 11000
  139.8703  134.9642  156.4488 LP  0  0  0  0  0  0  0  0  0  0  0  0  # atno 17395 bound_to 11000

$$$$
