AV-unprocessed.smi:1817|AV-procd|sdf|7378|dock1
  -GOLD-   22720 9 43D 1   1.00000     0.00000
 Structure written by MMmdl.
 41 42  0  0  0  0  0  0  0  0  2 V2000
  152.5347  144.6786  159.0943 C   0  0  0  0  0  0  0  0  0  0  0  0
  152.2853  143.4228  159.9413 C   0  0  0  0  0  0  0  0  0  0  0  0
  152.3720  142.1607  159.2098 N   0  0  0  0  0  0  0  0  0  0  0  0
  151.2563  142.0210  158.2775 C   0  0  0  0  0  0  0  0  0  0  0  0
  151.3444  140.7086  157.4780 C   0  0  0  0  0  0  0  0  0  0  0  0
  151.3407  139.5274  158.3512 N   0  0  0  0  0  0  0  0  0  0  0  0
  151.4154  138.2595  157.5928 C   0  0  2  0  0  0  0  0  0  0  0  0
  152.5398  138.2399  156.5327 C   0  0  0  0  0  0  0  0  0  0  0  0
  150.0837  137.8545  156.9067 C   0  0  0  0  0  0  0  0  0  0  0  0
  148.9511  137.8679  157.8322 N   0  0  0  0  0  0  0  0  0  0  0  0
  148.7725  137.0611  158.8881 C   0  0  0  0  0  0  0  0  0  0  0  0
  149.6226  136.2130  159.1690 O   0  0  0  0  0  0  0  0  0  0  0  0
  147.6143  137.2822  159.5513 N   0  5  0  0  0  0  0  0  0  0  0  0
  146.9922  136.2666  160.1725 C   0  0  0  0  0  0  0  0  0  0  0  0
  146.9421  135.0301  159.6518 N   0  0  0  0  0  0  0  0  0  0  0  0
  146.2550  134.1275  160.4524 N   0  0  0  0  0  0  0  0  0  0  0  0
  145.8080  134.7082  161.5656 C   0  0  0  0  0  0  0  0  0  0  0  0
  146.1908  136.4078  161.7401 S   0  0  0  0  0  0  0  0  0  0  0  0
  152.4493  139.6791  159.3038 C   0  0  0  0  0  0  0  0  0  0  0  0
  152.3636  140.9967  160.0962 C   0  0  0  0  0  0  0  0  0  0  0  0
  152.3511  145.5786  159.6814 H   0  0  0  0  0  0  0  0  0  0  0  0
  151.8709  144.7070  158.2296 H   0  0  0  0  0  0  0  0  0  0  0  0
  153.5620  144.7315  158.7348 H   0  0  0  0  0  0  0  0  0  0  0  0
  152.9734  143.4101  160.7879 H   0  0  0  0  0  0  0  0  0  0  0  0
  151.2859  143.5118  160.3690 H   0  0  0  0  0  0  0  0  0  0  0  0
  150.3088  142.0567  158.8180 H   0  0  0  0  0  0  0  0  0  0  0  0
  151.2497  142.8612  157.5824 H   0  0  0  0  0  0  0  0  0  0  0  0
  150.4918  140.6846  156.8011 H   0  0  0  0  0  0  0  0  0  0  0  0
  152.2417  140.7139  156.8573 H   0  0  0  0  0  0  0  0  0  0  0  0
  151.6476  137.4613  158.2993 H   0  0  0  0  0  0  0  0  0  0  0  0
  152.4868  137.3412  155.9178 H   0  0  0  0  0  0  0  0  0  0  0  0
  153.5308  138.2394  156.9851 H   0  0  0  0  0  0  0  0  0  0  0  0
  152.4752  139.0991  155.8640 H   0  0  0  0  0  0  0  0  0  0  0  0
  149.8931  138.5005  156.0483 H   0  0  0  0  0  0  0  0  0  0  0  0
  150.1566  136.8562  156.4774 H   0  0  0  0  0  0  0  0  0  0  0  0
  148.2225  138.5401  157.6417 H   0  0  0  0  0  0  0  0  0  0  0  0
  145.2532  134.1313  162.2902 H   0  0  0  0  0  0  0  0  0  0  0  0
  152.4433  138.8660  160.0278 H   0  0  0  0  0  0  0  0  0  0  0  0
  153.4042  139.6268  158.7783 H   0  0  0  0  0  0  0  0  0  0  0  0
  153.2077  141.0406  160.7836 H   0  0  0  0  0  0  0  0  0  0  0  0
  151.4604  140.9971  160.7089 H   0  0  0  0  0  0  0  0  0  0  0  0
  1  2  1  0  0  0  0
  1 21  1  0  0  0  0
  1 22  1  0  0  0  0
  1 23  1  0  0  0  0
  2  3  1  0  0  0  0
  2 24  1  0  0  0  0
  2 25  1  0  0  0  0
  3 20  1  0  0  0  0
  3  4  1  0  0  0  0
  4  5  1  0  0  0  0
  4 26  1  0  0  0  0
  4 27  1  0  0  0  0
  5  6  1  0  0  0  0
  5 28  1  0  0  0  0
  5 29  1  0  0  0  0
  6  7  1  0  0  0  0
  6 19  1  0  0  0  0
  7  8  1  0  0  0  0
  7  9  1  0  0  0  0
  7 30  1  0  0  0  0
  8 31  1  0  0  0  0
  8 32  1  0  0  0  0
  8 33  1  0  0  0  0
  9 10  1  0  0  0  0
  9 34  1  0  0  0  0
  9 35  1  0  0  0  0
 10 11  1  0  0  0  0
 10 36  1  0  0  0  0
 11 12  2  0  0  0  0
 11 13  1  0  0  0  0
 13 14  1  0  0  0  0
 14 18  1  0  0  0  0
 14 15  2  0  0  0  0
 15 16  1  0  0  0  0
 16 17  2  0  0  0  0
 17 18  1  0  0  0  0
 17 37  1  0  0  0  0
 19 20  1  0  0  0  0
 19 38  1  0  0  0  0
 19 39  1  0  0  0  0
 20 40  1  0  0  0  0
 20 41  1  0  0  0  0
M  CHG  1  13  -1
M  END
> <s_m_source_file>
AV-unprocessed.smi

> <i_m_source_file_index>
1817

> <i_lp_mmshare_version>
43012

> <i_f3d_flags>
0

> <s_epik_input>
W0NIM11bQ0gyXU4xW0NIMl1bQ0gyXU4oW0NIMl1bQ0gyXTEpW0NASF0oW0NIM10pW0NIMl1bTkhdQyg9TylbTkhdYzJubltjSF1zMg==

> <s_epik_cmdline>
J2VwaWtfcHl0aG9uJywgJy1waCcsICc3LjAnLCAnLXRuJywgJzgnLCAnLW1hJywgJzIwMCcsICctbWV0YWxfYmluZGluZycsICctaW1hZScsICc8aW5maWxlLm1hZT4nLCAnLW9tYWUnLCAnPG91dGZpbGUubWFlPic=

> <r_lp_tautomer_probability>
1

> <r_epik_Ionization_Penalty>
6.0391

> <r_epik_Ionization_Penalty_Charging>
3.54798

> <r_epik_Ionization_Penalty_Neutral>
2.49112

> <r_epik_State_Penalty>
5.3147

> <r_epik_Charging_Adjusted_Penalty>
8.86267

> <i_epik_Tot_Q>
-1

> <i_epik_Tot_abs_Q>
1

> <r_epik_Metal_State_Penalty>
2.29997

> <b_epik_Metal_Only>
1

> <s_lp_Force_Field>
OPLS_2005

> <r_lp_Energy>
41.9027

> <b_lp_Chiralities_Consistent>
1

> <s_lp_Variant>
AV-unprocessed.smi:1817-11

> <Gold.Version>
5.8.1

> <Gold.Id.Protein>
6NUR|6NUR_protein|mol2

> <Gold.PLP.Fitness>
47.8409

> <Gold.PLP.PLP>
-37.4010

> <Gold.PLP.part.hbond>
-3.0000

> <Gold.PLP.part.metal>
0.0000

> <Gold.PLP.part.buried>
-6.6096

> <Gold.PLP.part.nonpolar>
-29.8183

> <Gold.PLP.part.repulsive>
0.1562

> <Gold.PLP.ligand.clash>
0.0000

> <Gold.PLP.ligand.torsion>
0.7727

> <Gold.PLP.Chemscore.Hbond>
3.9500

> <Gold.PLP.Chemscore.CHOScore>
0.0000

> <Gold.PLP.Chemscore.Metal>
0.0000

> <Gold.Chemscore.Hbonds>
donor molecule, donor type, donor heavy atom, donor atom, acceptor molecule, acceptor atom, score
      P1  H  6896  6909       L1    12  1.00
      P1  H  6934  6947       L1    13  0.70

> <Gold.PLP.Chemscore.Internal.Correction>
0.1355

> <Gold.Rescore>
     Score         DG    S(hbond)    S(metal)    S(lipo)     H(rot)  DE(clash)    DE(int)     intcor
     16.32     -17.76       2.21        0.00      82.09       1.84       0.00       1.44       ----

> <Gold.Chemscore.Fitness>
16.3225

> <Gold.Chemscore.DG>
-17.7626

> <Gold.Chemscore.ZeroCoef>
-5.4800

> <Gold.Chemscore.Hbond>
2.2090

> <Gold.Chemscore.Metal>
0.0000

> <Gold.Chemscore.Lipo>
82.0868

> <Gold.Chemscore.Internal_Hbond>
0.0000

> <Gold.Chemscore.DEClash>
0.0000

> <Gold.Chemscore.DEInternal>
1.4401

> <Gold.Chemscore.Rot>
1.8358

> <Gold.Chemscore.Internal.Correction>
   9.000000E+99

> <Gold.Chemscore.Hbonds>
donor molecule, donor type, donor heavy atom, donor atom, acceptor molecule, acceptor atom, score
      P1  H  6896  6909       L1    12  1.00
      P1  H  6934  6947       L1    13  0.14

> <Gold.Chemscore.Hbond.Weighted>
-7.3781

> <Gold.Chemscore.Metal.Weighted>
-0.0000

> <Gold.Chemscore.Lipo.Weighted>
-9.6042

> <Gold.Chemscore.Internal_Hbond.Weighted>
0.0000

> <Gold.Chemscore.DEClash.Weighted>
0.0000

> <Gold.Chemscore.DEInternal.Weighted>
1.4401

> <Gold.Chemscore.Rot.Weighted>
4.6996

> <Gold.Chemscore.Internal.Correction.Weighted>
   9.000000E+99

> <Gold.Protein.RotatedTorsions>
[ 6907 6896 6895 6894 ] final   64.21 input  -60.11 | X-H torsion
[ 7974 7965 7964 7962 ] final -139.37 input  175.53 | X-H torsion
[ 8008 7997 7996 7995 ] final  134.91 input   59.86 | X-H torsion
[ 10167 10162 10161 10158 ] final  -96.56 input  -65.29 | X-H torsion
[ 10718 10713 10712 10709 ] final  -68.26 input   66.30 | X-H torsion
[ 10763 10752 10751 10750 ] final  -50.93 input  -60.55 | X-H torsion
[ 11005 11000 10999 10996 ] final -170.32 input  -57.11 | X-H torsion

> <Gold.Protein.ActiveResidues>
 VAL166  LYS551  ARG553  GLY616  TRP617  ASP618  TYR619  PRO620  LYS621  CYS622 
 ASP623  PHE694  ASN695  SER759  ASP760  ASP761  ALA762  ILE779  LEU786  VAL792 
 PHE793  MET794  SER795  GLU796  ALA797  LYS798  CYS799  TRP800  GLU811  SER814 

> <Gold.Protein.RotatedAtoms>
  152.4314  134.5771  159.9937 H   0  0  0  0  0  0  0  0  0  0  0  0  # atno 6907 bound_to 6896
  151.5893  133.3362  159.3032 H   0  0  0  0  0  0  0  0  0  0  0  0  # atno 6908 bound_to 6896
  150.8207  134.7449  159.6834 H   0  0  0  0  0  0  0  0  0  0  0  0  # atno 6909 bound_to 6896
  144.8682  140.6326  143.5284 H   0  0  0  0  0  0  0  0  0  0  0  0  # atno 7974 bound_to 7965
  156.3001  140.2484  156.3495 H   0  0  0  0  0  0  0  0  0  0  0  0  # atno 8008 bound_to 7997
  154.8979  140.0407  157.1896 H   0  0  0  0  0  0  0  0  0  0  0  0  # atno 8009 bound_to 7997
  154.8530  140.2909  155.5590 H   0  0  0  0  0  0  0  0  0  0  0  0  # atno 8010 bound_to 7997
  140.2925  143.3212  152.0331 H   0  0  0  0  0  0  0  0  0  0  0  0  # atno 10167 bound_to 10162
  156.0514  130.4292  150.1975 H   0  0  0  0  0  0  0  0  0  0  0  0  # atno 10718 bound_to 10713
  154.1183  135.6538  153.4898 H   0  0  0  0  0  0  0  0  0  0  0  0  # atno 10763 bound_to 10752
  153.0233  135.5264  154.7122 H   0  0  0  0  0  0  0  0  0  0  0  0  # atno 10764 bound_to 10752
  154.6322  135.2977  155.0172 H   0  0  0  0  0  0  0  0  0  0  0  0  # atno 10765 bound_to 10752
  140.5208  134.5711  157.5047 H   0  0  0  0  0  0  0  0  0  0  0  0  # atno 11005 bound_to 11000
  145.4181  139.1568  143.4089 LP  0  0  0  0  0  0  0  0  0  0  0  0  # atno 17320 bound_to 7965
  146.2911  140.4289  142.8739 LP  0  0  0  0  0  0  0  0  0  0  0  0  # atno 17321 bound_to 7965
  139.4934  144.6514  151.6667 LP  0  0  0  0  0  0  0  0  0  0  0  0  # atno 17342 bound_to 10162
  140.5720  144.0093  150.6221 LP  0  0  0  0  0  0  0  0  0  0  0  0  # atno 17343 bound_to 10162
  157.0057  130.9936  151.3379 LP  0  0  0  0  0  0  0  0  0  0  0  0  # atno 17370 bound_to 10713
  157.5444  130.8141  149.8068 LP  0  0  0  0  0  0  0  0  0  0  0  0  # atno 17371 bound_to 10713
  139.9607  134.7458  156.0243 LP  0  0  0  0  0  0  0  0  0  0  0  0  # atno 17394 bound_to 11000
  141.1335  133.6580  156.3530 LP  0  0  0  0  0  0  0  0  0  0  0  0  # atno 17395 bound_to 11000

$$$$
