AV-unprocessed.smi:657|AV-procd|sdf|3227|dock3
  -GOLD-   22720 0163D 1   1.00000     0.00000
 Structure written by MMmdl.
 46 47  0  0  0  0  0  0  0  0  3 V2000
  146.6140  138.6921  152.8710 C   0  0  0  0  0  0  0  0  0  0  0  0
  146.1868  139.1792  154.2726 C   0  0  0  0  0  0  0  0  0  0  0  0
  145.0561  138.2589  154.7782 C   0  0  0  0  0  0  0  0  0  0  0  0
  145.7934  140.6304  154.2873 N   0  3  1  0  0  0  0  0  0  0  0  0
  145.1789  141.0828  155.5760 C   0  0  0  0  0  0  0  0  0  0  0  0
  144.6599  142.5298  155.5103 C   0  0  0  0  0  0  0  0  0  0  0  0
  145.7498  143.5009  155.0555 C   0  0  0  0  0  0  0  0  0  0  0  0
  146.2949  143.0308  153.7039 C   0  0  0  0  0  0  0  0  0  0  0  0
  146.8329  141.5825  153.7598 C   0  0  1  0  0  0  0  0  0  0  0  0
  148.2069  141.5201  154.4733 C   0  0  0  0  0  0  0  0  0  0  0  0
  149.2195  141.2541  153.8173 O   0  0  0  0  0  0  0  0  0  0  0  0
  148.0714  141.7572  155.8081 N   0  5  0  0  0  0  0  0  0  0  0  0
  148.9777  141.2242  156.8275 C   0  0  0  0  0  0  0  0  0  0  0  0
  150.4516  141.5063  156.4538 C   0  0  0  0  0  0  0  0  0  0  0  0
  151.2086  142.3039  157.4933 C   0  0  0  0  0  0  0  0  0  0  0  0
  152.2215  141.8587  158.3937 C   0  0  0  0  0  0  0  0  0  0  0  0
  152.6566  142.8165  159.1965 N   0  0  0  0  0  0  0  0  0  0  0  0
  151.9477  143.9047  158.8343 N   0  0  0  0  0  0  0  0  0  0  0  0
  152.1599  145.1587  159.5241 C   0  0  0  0  0  0  0  0  0  0  0  0
  151.0797  143.6301  157.8009 C   0  0  0  0  0  0  0  0  0  0  0  0
  146.8003  137.6178  152.8694 H   0  0  0  0  0  0  0  0  0  0  0  0
  147.5403  139.1571  152.5346 H   0  0  0  0  0  0  0  0  0  0  0  0
  145.8425  138.8927  152.1271 H   0  0  0  0  0  0  0  0  0  0  0  0
  147.0362  139.0441  154.9433 H   0  0  0  0  0  0  0  0  0  0  0  0
  145.3122  137.2085  154.6359 H   0  0  0  0  0  0  0  0  0  0  0  0
  144.1231  138.4432  154.2449 H   0  0  0  0  0  0  0  0  0  0  0  0
  144.8713  138.3782  155.8452 H   0  0  0  0  0  0  0  0  0  0  0  0
  144.3214  140.4623  155.8275 H   0  0  0  0  0  0  0  0  0  0  0  0
  145.8838  140.9703  156.3987 H   0  0  0  0  0  0  0  0  0  0  0  0
  143.8152  142.5826  154.8222 H   0  0  0  0  0  0  0  0  0  0  0  0
  144.2798  142.8313  156.4869 H   0  0  0  0  0  0  0  0  0  0  0  0
  145.3451  144.5094  154.9678 H   0  0  0  0  0  0  0  0  0  0  0  0
  146.5476  143.5492  155.7973 H   0  0  0  0  0  0  0  0  0  0  0  0
  145.5010  143.0890  152.9581 H   0  0  0  0  0  0  0  0  0  0  0  0
  147.0719  143.7144  153.3600 H   0  0  0  0  0  0  0  0  0  0  0  0
  146.9849  141.3125  152.7139 H   0  0  0  0  0  0  0  0  0  0  0  0
  148.7768  141.6280  157.8209 H   0  0  0  0  0  0  0  0  0  0  0  0
  148.8488  140.1465  156.9280 H   0  0  0  0  0  0  0  0  0  0  0  0
  150.9502  140.5516  156.2855 H   0  0  0  0  0  0  0  0  0  0  0  0
  150.4798  142.0155  155.4896 H   0  0  0  0  0  0  0  0  0  0  0  0
  152.6388  140.8677  158.4955 H   0  0  0  0  0  0  0  0  0  0  0  0
  151.3913  145.8768  159.2367 H   0  0  0  0  0  0  0  0  0  0  0  0
  153.1394  145.5606  159.2633 H   0  0  0  0  0  0  0  0  0  0  0  0
  152.1101  145.0022  160.6022 H   0  0  0  0  0  0  0  0  0  0  0  0
  150.4330  144.3874  157.3833 H   0  0  0  0  0  0  0  0  0  0  0  0
  145.0424  140.6964  153.6162 H   0  0  0  0  0  0  0  0  0  0  0  0
  1  2  1  0  0  0  0
  1 21  1  0  0  0  0
  1 22  1  0  0  0  0
  1 23  1  0  0  0  0
  2  3  1  0  0  0  0
  2  4  1  0  0  0  0
  2 24  1  0  0  0  0
  3 25  1  0  0  0  0
  3 26  1  0  0  0  0
  3 27  1  0  0  0  0
  4  9  1  0  0  0  0
  4  5  1  0  0  0  0
  4 46  1  0  0  0  0
  5  6  1  0  0  0  0
  5 28  1  0  0  0  0
  5 29  1  0  0  0  0
  6  7  1  0  0  0  0
  6 30  1  0  0  0  0
  6 31  1  0  0  0  0
  7  8  1  0  0  0  0
  7 32  1  0  0  0  0
  7 33  1  0  0  0  0
  8  9  1  0  0  0  0
  8 34  1  0  0  0  0
  8 35  1  0  0  0  0
  9 10  1  0  0  0  0
  9 36  1  0  0  0  0
 10 11  2  0  0  0  0
 10 12  1  0  0  0  0
 12 13  1  0  0  0  0
 13 14  1  0  0  0  0
 13 37  1  0  0  0  0
 13 38  1  0  0  0  0
 14 15  1  0  0  0  0
 14 39  1  0  0  0  0
 14 40  1  0  0  0  0
 15 20  2  0  0  0  0
 15 16  1  0  0  0  0
 16 17  2  0  0  0  0
 16 41  1  0  0  0  0
 17 18  1  0  0  0  0
 18 19  1  0  0  0  0
 18 20  1  0  0  0  0
 19 42  1  0  0  0  0
 19 43  1  0  0  0  0
 19 44  1  0  0  0  0
 20 45  1  0  0  0  0
M  CHG  1   4   1
M  CHG  1  12  -1
M  END
> <s_m_source_file>
AV-unprocessed.smi

> <i_m_source_file_index>
657

> <i_lp_mmshare_version>
43012

> <i_f3d_flags>
0

> <s_epik_input>
W0NIM11bQ0hdKFtDSDNdKU4xW0NIMl1bQ0gyXVtDSDJdW0NIMl1bQ0BIXTFDKD1PKVtOSF1bQ0gyXVtDSDJdYzJbY0hdbm4oW0NIM10pW2NIXTI=

> <s_epik_cmdline>
J2VwaWtfcHl0aG9uJywgJy1waCcsICc3LjAnLCAnLXRuJywgJzgnLCAnLW1hJywgJzIwMCcsICctbWV0YWxfYmluZGluZycsICctaW1hZScsICc8aW5maWxlLm1hZT4nLCAnLW9tYWUnLCAnPG91dGZpbGUubWFlPic=

> <r_lp_tautomer_probability>
1

> <r_epik_Ionization_Penalty>
6.1622

> <r_epik_Ionization_Penalty_Charging>
6.16146

> <r_epik_Ionization_Penalty_Neutral>
0.00073675

> <r_epik_State_Penalty>
6.18018

> <r_epik_Charging_Adjusted_Penalty>
12.3416

> <i_epik_Tot_Q>
0

> <i_epik_Tot_abs_Q>
2

> <r_epik_Metal_State_Penalty>
2.12232

> <b_epik_Metal_Only>
1

> <s_lp_Force_Field>
OPLS_2005

> <r_lp_Energy>
12.187

> <b_lp_Chiralities_Consistent>
1

> <s_lp_Variant>
AV-unprocessed.smi:657-8

> <Gold.Version>
5.8.1

> <Gold.Id.Protein>
6NUR|6NUR_protein|mol2

> <Gold.PLP.Fitness>
48.9767

> <Gold.PLP.PLP>
-39.8358

> <Gold.PLP.part.hbond>
-3.0000

> <Gold.PLP.part.metal>
0.0000

> <Gold.PLP.part.buried>
-6.3568

> <Gold.PLP.part.nonpolar>
-31.8616

> <Gold.PLP.part.repulsive>
1.3356

> <Gold.PLP.ligand.clash>
0.7072

> <Gold.PLP.ligand.torsion>
0.8659

> <Gold.PLP.Chemscore.Hbond>
2.6880

> <Gold.PLP.Chemscore.CHOScore>
1.0808

> <Gold.PLP.Chemscore.Metal>
0.0000

> <Gold.Chemscore.Hbonds>
donor molecule, donor type, donor heavy atom, donor atom, acceptor molecule, acceptor atom, score
      L1  H     4    46       P1 10175  2.00
      P1  H  8011  8017       L1    11  0.86
      L1  C    20    45       P1  8028  1.00

> <Gold.PLP.Chemscore.Internal.Correction>
0.2737

> <Gold.Rescore>
     Score         DG    S(hbond)    S(metal)    S(lipo)     H(rot)  DE(clash)    DE(int)     intcor
     12.63     -17.35       1.79        0.00      84.90       1.57       0.49       4.24       ----

> <Gold.Chemscore.Fitness>
12.6272

> <Gold.Chemscore.DG>
-17.3510

> <Gold.Chemscore.ZeroCoef>
-5.4800

> <Gold.Chemscore.Hbond>
1.7866

> <Gold.Chemscore.Metal>
0.0000

> <Gold.Chemscore.Lipo>
84.9010

> <Gold.Chemscore.Internal_Hbond>
0.0000

> <Gold.Chemscore.DEClash>
0.4870

> <Gold.Chemscore.DEInternal>
4.2368

> <Gold.Chemscore.Rot>
1.5741

> <Gold.Chemscore.Internal.Correction>
   9.000000E+99

> <Gold.Chemscore.Hbonds>
donor molecule, donor type, donor heavy atom, donor atom, acceptor molecule, acceptor atom, score
      L1  H     4    46       P1 10175  0.96
      P1  H  7989  7998       L1    11  0.02
      P1  H  8011  8017       L1    11  0.82

> <Gold.Chemscore.Hbond.Weighted>
-5.9673

> <Gold.Chemscore.Metal.Weighted>
-0.0000

> <Gold.Chemscore.Lipo.Weighted>
-9.9334

> <Gold.Chemscore.Internal_Hbond.Weighted>
0.0000

> <Gold.Chemscore.DEClash.Weighted>
0.4870

> <Gold.Chemscore.DEInternal.Weighted>
4.2368

> <Gold.Chemscore.Rot.Weighted>
4.0297

> <Gold.Chemscore.Internal.Correction.Weighted>
   9.000000E+99

> <Gold.Protein.RotatedTorsions>
[ 6907 6896 6895 6894 ] final  145.71 input  -60.11 | X-H torsion
[ 7974 7965 7964 7962 ] final -168.18 input  175.53 | X-H torsion
[ 8008 7997 7996 7995 ] final -147.72 input   59.86 | X-H torsion
[ 10167 10162 10161 10158 ] final  -42.07 input  -65.29 | X-H torsion
[ 10718 10713 10712 10709 ] final   47.72 input   66.30 | X-H torsion
[ 10763 10752 10751 10750 ] final   21.18 input  -60.55 | X-H torsion
[ 11005 11000 10999 10996 ] final -170.01 input  -57.11 | X-H torsion

> <Gold.Protein.ActiveResidues>
 VAL166  LYS551  ARG553  GLY616  TRP617  ASP618  TYR619  PRO620  LYS621  CYS622 
 ASP623  PHE694  ASN695  SER759  ASP760  ASP761  ALA762  ILE779  LEU786  VAL792 
 PHE793  MET794  SER795  GLU796  ALA797  LYS798  CYS799  TRP800  GLU811  SER814 

> <Gold.Protein.RotatedAtoms>
  152.1774  133.4684  159.4939 H   0  0  0  0  0  0  0  0  0  0  0  0  # atno 6907 bound_to 6896
  150.6929  134.1877  159.4282 H   0  0  0  0  0  0  0  0  0  0  0  0  # atno 6908 bound_to 6896
  151.9786  135.0039  160.0607 H   0  0  0  0  0  0  0  0  0  0  0  0  # atno 6909 bound_to 6896
  144.7208  140.2409  143.6291 H   0  0  0  0  0  0  0  0  0  0  0  0  # atno 7974 bound_to 7965
  155.5801  140.0642  157.2785 H   0  0  0  0  0  0  0  0  0  0  0  0  # atno 8008 bound_to 7997
  154.4335  140.1853  156.1014 H   0  0  0  0  0  0  0  0  0  0  0  0  # atno 8009 bound_to 7997
  156.0311  140.3306  155.7145 H   0  0  0  0  0  0  0  0  0  0  0  0  # atno 8010 bound_to 7997
  140.6982  143.3059  151.3156 H   0  0  0  0  0  0  0  0  0  0  0  0  # atno 10167 bound_to 10162
  157.4613  130.8198  149.7890 H   0  0  0  0  0  0  0  0  0  0  0  0  # atno 10718 bound_to 10713
  153.1016  135.6674  153.9662 H   0  0  0  0  0  0  0  0  0  0  0  0  # atno 10763 bound_to 10752
  153.9231  135.3012  155.3448 H   0  0  0  0  0  0  0  0  0  0  0  0  # atno 10764 bound_to 10752
  154.7437  135.5067  153.9242 H   0  0  0  0  0  0  0  0  0  0  0  0  # atno 10765 bound_to 10752
  140.5243  134.5679  157.5057 H   0  0  0  0  0  0  0  0  0  0  0  0  # atno 11005 bound_to 11000
  145.8321  139.2090  143.1877 LP  0  0  0  0  0  0  0  0  0  0  0  0  # atno 17320 bound_to 7965
  146.0422  140.8154  142.9823 LP  0  0  0  0  0  0  0  0  0  0  0  0  # atno 17321 bound_to 7965
  139.6464  144.0443  152.2594 LP  0  0  0  0  0  0  0  0  0  0  0  0  # atno 17342 bound_to 10162
  139.9965  144.6324  150.7767 LP  0  0  0  0  0  0  0  0  0  0  0  0  # atno 17343 bound_to 10162
  156.0030  130.3870  150.2534 LP  0  0  0  0  0  0  0  0  0  0  0  0  # atno 17370 bound_to 10713
  157.0712  131.0117  151.3189 LP  0  0  0  0  0  0  0  0  0  0  0  0  # atno 17371 bound_to 10713
  139.9589  134.7487  156.0281 LP  0  0  0  0  0  0  0  0  0  0  0  0  # atno 17394 bound_to 11000
  141.1317  133.6585  156.3482 LP  0  0  0  0  0  0  0  0  0  0  0  0  # atno 17395 bound_to 11000

$$$$
