AV-unprocessed.smi:2062|AV-procd|sdf|8407|dock1
  -GOLD-   2272011 93D 1   1.00000     0.00000
 Structure written by MMmdl.
 41 42  0  0  0  0  0  0  0  0  2 V2000
  151.0091  136.9342  154.8331 C   0  0  0  0  0  0  0  0  0  0  0  0
  151.5326  138.3788  154.7558 C   0  0  0  0  0  0  0  0  0  0  0  0
  152.8227  138.5125  155.5799 C   0  0  0  0  0  0  0  0  0  0  0  0
  150.4690  139.4013  155.2206 C   0  0  0  0  0  0  0  0  0  0  0  0
  149.4447  139.7406  154.2319 N   0  0  0  0  0  0  0  0  0  0  0  0
  148.9050  141.0730  154.4786 C   0  0  0  0  0  0  0  0  0  0  0  0
  147.8265  141.4560  153.4525 C   0  0  0  0  0  0  0  0  0  0  0  0
  146.7923  140.4790  153.4706 O   0  0  0  0  0  0  0  0  0  0  0  0
  147.2618  139.1658  153.1732 C   0  0  2  0  0  0  0  0  0  0  0  0
  146.0703  138.1984  153.2062 C   0  0  0  0  0  0  0  0  0  0  0  0
  146.4021  136.9485  152.5352 N   0  0  0  0  0  0  0  0  0  0  0  0
  145.5283  135.9797  152.2325 C   0  0  0  0  0  0  0  0  0  0  0  0
  144.3375  136.1148  152.5235 O   0  0  0  0  0  0  0  0  0  0  0  0
  146.0874  134.9160  151.6116 N   0  5  0  0  0  0  0  0  0  0  0  0
  145.3349  133.8494  151.2955 C   0  0  0  0  0  0  0  0  0  0  0  0
  145.6991  132.9451  150.3791 N   0  0  0  0  0  0  0  0  0  0  0  0
  144.7628  131.9246  150.2035 C   0  0  0  0  0  0  0  0  0  0  0  0
  143.6552  132.0601  150.9977 C   0  0  0  0  0  0  0  0  0  0  0  0
  143.7570  133.4812  151.9975 S   0  0  0  0  0  0  0  0  0  0  0  0
  148.3435  138.7806  154.2025 C   0  0  0  0  0  0  0  0  0  0  0  0
  150.7686  136.6561  155.8596 H   0  0  0  0  0  0  0  0  0  0  0  0
  151.7541  136.2280  154.4656 H   0  0  0  0  0  0  0  0  0  0  0  0
  150.1086  136.7959  154.2357 H   0  0  0  0  0  0  0  0  0  0  0  0
  151.7991  138.5917  153.7194 H   0  0  0  0  0  0  0  0  0  0  0  0
  152.6404  138.3203  156.6378 H   0  0  0  0  0  0  0  0  0  0  0  0
  153.2443  139.5140  155.4898 H   0  0  0  0  0  0  0  0  0  0  0  0
  153.5819  137.8081  155.2392 H   0  0  0  0  0  0  0  0  0  0  0  0
  149.9991  139.0606  156.1447 H   0  0  0  0  0  0  0  0  0  0  0  0
  150.9862  140.3234  155.4903 H   0  0  0  0  0  0  0  0  0  0  0  0
  148.4780  141.1190  155.4819 H   0  0  0  0  0  0  0  0  0  0  0  0
  149.7081  141.8104  154.4475 H   0  0  0  0  0  0  0  0  0  0  0  0
  147.4011  142.4301  153.6937 H   0  0  0  0  0  0  0  0  0  0  0  0
  148.2518  141.5300  152.4504 H   0  0  0  0  0  0  0  0  0  0  0  0
  147.6994  139.1598  152.1729 H   0  0  0  0  0  0  0  0  0  0  0  0
  145.7981  137.9809  154.2400 H   0  0  0  0  0  0  0  0  0  0  0  0
  145.1991  138.6523  152.7312 H   0  0  0  0  0  0  0  0  0  0  0  0
  147.3679  136.8074  152.2774 H   0  0  0  0  0  0  0  0  0  0  0  0
  144.9659  131.1412  149.4887 H   0  0  0  0  0  0  0  0  0  0  0  0
  142.7909  131.4161  151.0552 H   0  0  0  0  0  0  0  0  0  0  0  0
  148.7202  137.7901  153.9497 H   0  0  0  0  0  0  0  0  0  0  0  0
  147.8938  138.7039  155.1937 H   0  0  0  0  0  0  0  0  0  0  0  0
  1  2  1  0  0  0  0
  1 21  1  0  0  0  0
  1 22  1  0  0  0  0
  1 23  1  0  0  0  0
  2  3  1  0  0  0  0
  2  4  1  0  0  0  0
  2 24  1  0  0  0  0
  3 25  1  0  0  0  0
  3 26  1  0  0  0  0
  3 27  1  0  0  0  0
  4  5  1  0  0  0  0
  4 28  1  0  0  0  0
  4 29  1  0  0  0  0
  5 20  1  0  0  0  0
  5  6  1  0  0  0  0
  6  7  1  0  0  0  0
  6 30  1  0  0  0  0
  6 31  1  0  0  0  0
  7  8  1  0  0  0  0
  7 32  1  0  0  0  0
  7 33  1  0  0  0  0
  8  9  1  0  0  0  0
  9 10  1  0  0  0  0
  9 20  1  0  0  0  0
  9 34  1  0  0  0  0
 10 11  1  0  0  0  0
 10 35  1  0  0  0  0
 10 36  1  0  0  0  0
 11 12  1  0  0  0  0
 11 37  1  0  0  0  0
 12 13  2  0  0  0  0
 12 14  1  0  0  0  0
 14 15  1  0  0  0  0
 15 19  1  0  0  0  0
 15 16  2  0  0  0  0
 16 17  1  0  0  0  0
 17 18  2  0  0  0  0
 17 38  1  0  0  0  0
 18 19  1  0  0  0  0
 18 39  1  0  0  0  0
 20 40  1  0  0  0  0
 20 41  1  0  0  0  0
M  CHG  1  14  -1
M  END
> <s_m_source_file>
AV-unprocessed.smi

> <i_m_source_file_index>
2062

> <i_lp_mmshare_version>
43012

> <i_f3d_flags>
0

> <s_epik_input>
W0NIM11bQ0hdKFtDSDNdKVtDSDJdTjFbQ0gyXVtDSDJdT1tDQEhdKFtDSDJdMSlbQ0gyXVtOSF1DKD1PKVtOSF1jMm5bY0hdW2NIXXMy

> <s_epik_cmdline>
J2VwaWtfcHl0aG9uJywgJy1waCcsICc3LjAnLCAnLXRuJywgJzgnLCAnLW1hJywgJzIwMCcsICctbWV0YWxfYmluZGluZycsICctaW1hZScsICc8aW5maWxlLm1hZT4nLCAnLW9tYWUnLCAnPG91dGZpbGUubWFlPic=

> <r_lp_tautomer_probability>
0.999

> <r_epik_Ionization_Penalty>
7.76343

> <r_epik_Ionization_Penalty_Charging>
5.65212

> <r_epik_Ionization_Penalty_Neutral>
2.11131

> <r_epik_State_Penalty>
6.82229

> <r_epik_Charging_Adjusted_Penalty>
12.4744

> <i_epik_Tot_Q>
-1

> <i_epik_Tot_abs_Q>
1

> <r_epik_Metal_State_Penalty>
2.82401

> <b_epik_Metal_Only>
1

> <s_lp_Force_Field>
OPLS_2005

> <r_lp_Energy>
20.4401

> <b_lp_Chiralities_Consistent>
1

> <s_lp_Variant>
AV-unprocessed.smi:2062-12

> <Gold.Version>
5.8.1

> <Gold.Id.Protein>
6NUR|6NUR_protein|mol2

> <Gold.PLP.Fitness>
39.9150

> <Gold.PLP.PLP>
-35.2783

> <Gold.PLP.part.hbond>
-1.0000

> <Gold.PLP.part.metal>
0.0000

> <Gold.PLP.part.buried>
-6.5553

> <Gold.PLP.part.nonpolar>
-30.1522

> <Gold.PLP.part.repulsive>
1.9316

> <Gold.PLP.ligand.clash>
0.0869

> <Gold.PLP.ligand.torsion>
0.7527

> <Gold.PLP.Chemscore.Hbond>
1.0000

> <Gold.PLP.Chemscore.CHOScore>
0.9998

> <Gold.PLP.Chemscore.Metal>
0.0000

> <Gold.Chemscore.Hbonds>
donor molecule, donor type, donor heavy atom, donor atom, acceptor molecule, acceptor atom, score
      L1  H    11    37       P1  7948  1.00
      L1  C    18    39       P1 10952  0.47

> <Gold.PLP.Chemscore.Internal.Correction>
0.2297

> <Gold.Rescore>
     Score         DG    S(hbond)    S(metal)    S(lipo)     H(rot)  DE(clash)    DE(int)     intcor
     12.42     -14.32       1.00        0.00      83.70       1.68       0.06       1.84       ----

> <Gold.Chemscore.Fitness>
12.4152

> <Gold.Chemscore.DG>
-14.3166

> <Gold.Chemscore.ZeroCoef>
-5.4800

> <Gold.Chemscore.Hbond>
0.9999

> <Gold.Chemscore.Metal>
0.0000

> <Gold.Chemscore.Lipo>
83.6956

> <Gold.Chemscore.Internal_Hbond>
0.0000

> <Gold.Chemscore.DEClash>
0.0612

> <Gold.Chemscore.DEInternal>
1.8402

> <Gold.Chemscore.Rot>
1.6779

> <Gold.Chemscore.Internal.Correction>
   9.000000E+99

> <Gold.Chemscore.Hbonds>
donor molecule, donor type, donor heavy atom, donor atom, acceptor molecule, acceptor atom, score
      L1  H    11    37       P1  7948  1.00

> <Gold.Chemscore.Hbond.Weighted>
-3.3395

> <Gold.Chemscore.Metal.Weighted>
-0.0000

> <Gold.Chemscore.Lipo.Weighted>
-9.7924

> <Gold.Chemscore.Internal_Hbond.Weighted>
0.0000

> <Gold.Chemscore.DEClash.Weighted>
0.0612

> <Gold.Chemscore.DEInternal.Weighted>
1.8402

> <Gold.Chemscore.Rot.Weighted>
4.2953

> <Gold.Chemscore.Internal.Correction.Weighted>
   9.000000E+99

> <Gold.Protein.RotatedTorsions>
[ 6907 6896 6895 6894 ] final  113.11 input  -60.11 | X-H torsion
[ 7974 7965 7964 7962 ] final -125.58 input  175.53 | X-H torsion
[ 8008 7997 7996 7995 ] final  -95.60 input   59.86 | X-H torsion
[ 10167 10162 10161 10158 ] final  125.12 input  -65.29 | X-H torsion
[ 10718 10713 10712 10709 ] final  -74.19 input   66.30 | X-H torsion
[ 10763 10752 10751 10750 ] final  -51.55 input  -60.55 | X-H torsion
[ 11005 11000 10999 10996 ] final  124.67 input  -57.11 | X-H torsion

> <Gold.Protein.ActiveResidues>
 VAL166  LYS551  ARG553  GLY616  TRP617  ASP618  TYR619  PRO620  LYS621  CYS622 
 ASP623  PHE694  ASN695  SER759  ASP760  ASP761  ALA762  ILE779  LEU786  VAL792 
 PHE793  MET794  SER795  GLU796  ALA797  LYS798  CYS799  TRP800  GLU811  SER814 

> <Gold.Protein.RotatedAtoms>
  152.4879  133.8421  159.7157 H   0  0  0  0  0  0  0  0  0  0  0  0  # atno 6907 bound_to 6896
  150.8981  133.7144  159.2893 H   0  0  0  0  0  0  0  0  0  0  0  0  # atno 6908 bound_to 6896
  151.4595  135.1041  159.9773 H   0  0  0  0  0  0  0  0  0  0  0  0  # atno 6909 bound_to 6896
  144.9961  140.7777  143.4525 H   0  0  0  0  0  0  0  0  0  0  0  0  # atno 7974 bound_to 7965
  154.7635  140.0478  157.0993 H   0  0  0  0  0  0  0  0  0  0  0  0  # atno 8008 bound_to 7997
  154.9908  140.3113  155.4887 H   0  0  0  0  0  0  0  0  0  0  0  0  # atno 8009 bound_to 7997
  156.2908  140.2219  156.5013 H   0  0  0  0  0  0  0  0  0  0  0  0  # atno 8010 bound_to 7997
  139.5703  144.6935  151.3796 H   0  0  0  0  0  0  0  0  0  0  0  0  # atno 10167 bound_to 10162
  156.0252  130.4411  150.2855 H   0  0  0  0  0  0  0  0  0  0  0  0  # atno 10718 bound_to 10713
  154.1284  135.6524  153.4917 H   0  0  0  0  0  0  0  0  0  0  0  0  # atno 10763 bound_to 10752
  153.0203  135.5287  154.7026 H   0  0  0  0  0  0  0  0  0  0  0  0  # atno 10764 bound_to 10752
  154.6254  135.2969  155.0249 H   0  0  0  0  0  0  0  0  0  0  0  0  # atno 10765 bound_to 10752
  139.9369  134.9639  156.8443 H   0  0  0  0  0  0  0  0  0  0  0  0  # atno 11005 bound_to 11000
  145.2218  139.2155  143.5089 LP  0  0  0  0  0  0  0  0  0  0  0  0  # atno 17320 bound_to 7965
  146.3442  140.2077  142.8590 LP  0  0  0  0  0  0  0  0  0  0  0  0  # atno 17321 bound_to 7965
  140.6988  143.7684  150.7369 LP  0  0  0  0  0  0  0  0  0  0  0  0  # atno 17342 bound_to 10162
  140.1188  143.4631  152.2325 LP  0  0  0  0  0  0  0  0  0  0  0  0  # atno 17343 bound_to 10162
  157.0959  131.0182  151.3104 LP  0  0  0  0  0  0  0  0  0  0  0  0  # atno 17370 bound_to 10713
  157.4818  130.7769  149.7421 LP  0  0  0  0  0  0  0  0  0  0  0  0  # atno 17371 bound_to 10713
  140.6051  134.0135  155.7553 LP  0  0  0  0  0  0  0  0  0  0  0  0  # atno 17394 bound_to 11000
  141.0987  133.9802  157.3115 LP  0  0  0  0  0  0  0  0  0  0  0  0  # atno 17395 bound_to 11000

$$$$
