AV-unprocessed.smi:1260|AV-procd|sdf|5297|dock3
  -GOLD-   22720 4413D 1   1.00000     0.00000
 Structure written by MMmdl.
 37 39  0  0  0  0  0  0  0  0  2 V2000
  150.4260  134.3227  156.5916 O   0  0  0  0  0  0  0  0  0  0  0  0
  149.8139  135.3335  156.2492 C   0  0  0  0  0  0  0  0  0  0  0  0
  150.2438  136.7025  156.7834 C   0  0  0  0  0  0  0  0  0  0  0  0
  150.9436  137.4813  155.7771 N   0  0  0  0  0  0  0  0  0  0  0  0
  150.7153  138.7078  155.3032 C   0  0  0  0  0  0  0  0  0  0  0  0
  151.5939  139.0435  154.3712 N   0  0  0  0  0  0  0  0  0  0  0  0
  152.4111  137.9282  154.2927 N   0  0  0  0  0  0  0  0  0  0  0  0
  152.0317  136.9988  155.1261 N   0  0  0  0  0  0  0  0  0  0  0  0
  148.7527  135.3077  155.4260 N   0  0  0  0  0  0  0  0  0  0  0  0
  148.2131  134.1129  154.7795 C   0  0  2  0  0  0  0  0  0  0  0  0
  149.2281  133.4323  153.8411 C   0  0  0  0  0  0  0  0  0  0  0  0
  148.4078  133.0180  152.6150 C   0  0  0  0  0  0  0  0  0  0  0  0
  147.3923  134.0739  152.5258 N   0  3  1  0  0  0  0  0  0  0  0  0
  146.2548  133.8826  151.6034 C   0  0  0  0  0  0  0  0  0  0  0  0
  145.4403  135.1934  151.5549 C   0  0  0  0  0  0  0  0  0  0  0  0
  145.0434  135.6886  152.9643 C   0  0  0  0  0  0  0  0  0  0  0  0
  146.2572  135.7424  153.9173 C   0  0  0  0  0  0  0  0  0  0  0  0
  146.9651  134.3755  153.9031 C   0  0  2  0  0  0  0  0  0  0  0  0
  149.3646  137.2571  157.1135 H   0  0  0  0  0  0  0  0  0  0  0  0
  150.8944  136.5819  157.6510 H   0  0  0  0  0  0  0  0  0  0  0  0
  149.9095  139.3470  155.6336 H   0  0  0  0  0  0  0  0  0  0  0  0
  148.3084  136.1864  155.2024 H   0  0  0  0  0  0  0  0  0  0  0  0
  147.9407  133.3903  155.5518 H   0  0  0  0  0  0  0  0  0  0  0  0
  149.9974  134.1428  153.5347 H   0  0  0  0  0  0  0  0  0  0  0  0
  149.7322  132.5864  154.3100 H   0  0  0  0  0  0  0  0  0  0  0  0
  149.0096  132.9514  151.7081 H   0  0  0  0  0  0  0  0  0  0  0  0
  147.9245  132.0541  152.7833 H   0  0  0  0  0  0  0  0  0  0  0  0
  146.6245  133.6319  150.6086 H   0  0  0  0  0  0  0  0  0  0  0  0
  145.6343  133.0500  151.9384 H   0  0  0  0  0  0  0  0  0  0  0  0
  146.0346  135.9645  151.0627 H   0  0  0  0  0  0  0  0  0  0  0  0
  144.5491  135.0569  150.9419 H   0  0  0  0  0  0  0  0  0  0  0  0
  144.5750  136.6709  152.8988 H   0  0  0  0  0  0  0  0  0  0  0  0
  144.2900  135.0178  153.3794 H   0  0  0  0  0  0  0  0  0  0  0  0
  146.9435  136.5307  153.6051 H   0  0  0  0  0  0  0  0  0  0  0  0
  145.9219  135.9906  154.9247 H   0  0  0  0  0  0  0  0  0  0  0  0
  146.2306  133.6193  154.1891 H   0  0  0  0  0  0  0  0  0  0  0  0
  147.8864  134.8934  152.2026 H   0  0  0  0  0  0  0  0  0  0  0  0
  1  2  2  0  0  0  0
  2  3  1  0  0  0  0
  2  9  1  0  0  0  0
  3  4  1  0  0  0  0
  3 19  1  0  0  0  0
  3 20  1  0  0  0  0
  4  8  1  0  0  0  0
  4  5  1  0  0  0  0
  5  6  2  0  0  0  0
  5 21  1  0  0  0  0
  6  7  1  0  0  0  0
  7  8  2  0  0  0  0
  9 10  1  0  0  0  0
  9 22  1  0  0  0  0
 10 18  1  0  0  0  0
 10 11  1  0  0  0  0
 10 23  1  0  0  0  0
 11 12  1  0  0  0  0
 11 24  1  0  0  0  0
 11 25  1  0  0  0  0
 12 13  1  0  0  0  0
 12 26  1  0  0  0  0
 12 27  1  0  0  0  0
 13 18  1  0  0  0  0
 13 14  1  0  0  0  0
 13 37  1  0  0  0  0
 14 15  1  0  0  0  0
 14 28  1  0  0  0  0
 14 29  1  0  0  0  0
 15 16  1  0  0  0  0
 15 30  1  0  0  0  0
 15 31  1  0  0  0  0
 16 17  1  0  0  0  0
 16 32  1  0  0  0  0
 16 33  1  0  0  0  0
 17 18  1  0  0  0  0
 17 34  1  0  0  0  0
 17 35  1  0  0  0  0
 18 36  1  0  0  0  0
M  CHG  1  13   1
M  END
> <s_m_source_file>
AV-unprocessed.smi

> <i_m_source_file_index>
1260

> <i_lp_mmshare_version>
43012

> <i_f3d_flags>
0

> <s_epik_input>
bjFubltjSF1uMVtDSDJdQyg9TylbTkhdW0NASF0oW0NIMl1bQ0gyXTIpW0NAQEhdKE4yMylbQ0gyXVtDSDJdW0NIMl1bQ0gyXTM=

> <s_epik_cmdline>
J2VwaWtfcHl0aG9uJywgJy1waCcsICc3LjAnLCAnLXRuJywgJzgnLCAnLW1hJywgJzIwMCcsICctbWV0YWxfYmluZGluZycsICctaW1hZScsICc8aW5maWxlLm1hZT4nLCAnLW9tYWUnLCAnPG91dGZpbGUubWFlPic=

> <r_lp_tautomer_probability>
1

> <r_epik_Ionization_Penalty>
0.00234324

> <r_epik_Ionization_Penalty_Charging>
0.00233897

> <r_epik_Ionization_Penalty_Neutral>
4.26861e-06

> <r_epik_State_Penalty>
0.00161477

> <r_epik_Charging_Adjusted_Penalty>
0.00395374

> <i_epik_Tot_Q>
1

> <i_epik_Tot_abs_Q>
1

> <r_epik_Metal_State_Penalty>
-0

> <b_epik_Metal_Only>
0

> <s_lp_Force_Field>
OPLS_2005

> <r_lp_Energy>
44.4325

> <b_lp_Chiralities_Consistent>
1

> <s_lp_Variant>
AV-unprocessed.smi:1260-5

> <Gold.Version>
5.8.1

> <Gold.Id.Protein>
6NUR|6NUR_protein|mol2

> <Gold.PLP.Fitness>
32.8357

> <Gold.PLP.PLP>
-21.3872

> <Gold.PLP.part.hbond>
-4.0000

> <Gold.PLP.part.metal>
0.0000

> <Gold.PLP.part.buried>
-2.7006

> <Gold.PLP.part.nonpolar>
-15.0394

> <Gold.PLP.part.repulsive>
0.3379

> <Gold.PLP.ligand.clash>
0.0000

> <Gold.PLP.ligand.torsion>
0.2274

> <Gold.PLP.Chemscore.Hbond>
3.9673

> <Gold.PLP.Chemscore.CHOScore>
0.0000

> <Gold.PLP.Chemscore.Metal>
0.0000

> <Gold.Chemscore.Hbonds>
donor molecule, donor type, donor heavy atom, donor atom, acceptor molecule, acceptor atom, score
      L1  H    13    37       P1  7948  2.00
      P1  H  7989  7998       L1     6  1.00
      P1  H 10752 10765       L1     8  0.98

> <Gold.PLP.Chemscore.Internal.Correction>
0.0016

> <Gold.Rescore>
     Score         DG    S(hbond)    S(metal)    S(lipo)     H(rot)  DE(clash)    DE(int)     intcor
     13.28     -13.55       2.70        0.00      35.13       1.98       0.10       0.17       ----

> <Gold.Chemscore.Fitness>
13.2821

> <Gold.Chemscore.DG>
-13.5496

> <Gold.Chemscore.ZeroCoef>
-5.4800

> <Gold.Chemscore.Hbond>
2.6999

> <Gold.Chemscore.Metal>
0.0000

> <Gold.Chemscore.Lipo>
35.1268

> <Gold.Chemscore.Internal_Hbond>
0.0000

> <Gold.Chemscore.DEClash>
0.1004

> <Gold.Chemscore.DEInternal>
0.1670

> <Gold.Chemscore.Rot>
1.9757

> <Gold.Chemscore.Internal.Correction>
   9.000000E+99

> <Gold.Chemscore.Hbonds>
donor molecule, donor type, donor heavy atom, donor atom, acceptor molecule, acceptor atom, score
      L1  H    13    37       P1  7948  0.70
      P1  H  7989  7998       L1     6  0.91
      P1  H 10752 10765       L1     8  0.42

> <Gold.Chemscore.Hbond.Weighted>
-9.0175

> <Gold.Chemscore.Metal.Weighted>
-0.0000

> <Gold.Chemscore.Lipo.Weighted>
-4.1098

> <Gold.Chemscore.Internal_Hbond.Weighted>
0.0000

> <Gold.Chemscore.DEClash.Weighted>
0.1004

> <Gold.Chemscore.DEInternal.Weighted>
0.1670

> <Gold.Chemscore.Rot.Weighted>
5.0578

> <Gold.Chemscore.Internal.Correction.Weighted>
   9.000000E+99

> <Gold.Protein.RotatedTorsions>
[ 6907 6896 6895 6894 ] final -175.77 input  -60.11 | X-H torsion
[ 7974 7965 7964 7962 ] final  157.15 input  175.53 | X-H torsion
[ 8008 7997 7996 7995 ] final  -46.82 input   59.86 | X-H torsion
[ 10167 10162 10161 10158 ] final   49.60 input  -65.29 | X-H torsion
[ 10718 10713 10712 10709 ] final   43.27 input   66.30 | X-H torsion
[ 10763 10752 10751 10750 ] final -176.00 input  -60.55 | X-H torsion
[ 11005 11000 10999 10996 ] final -129.05 input  -57.11 | X-H torsion

> <Gold.Protein.ActiveResidues>
 VAL166  LYS551  ARG553  GLY616  TRP617  ASP618  TYR619  PRO620  LYS621  CYS622 
 ASP623  PHE694  ASN695  SER759  ASP760  ASP761  ALA762  ILE779  LEU786  VAL792 
 PHE793  MET794  SER795  GLU796  ALA797  LYS798  CYS799  TRP800  GLU811  SER814 

> <Gold.Protein.RotatedAtoms>
  151.5939  133.3363  159.3033 H   0  0  0  0  0  0  0  0  0  0  0  0  # atno 6907 bound_to 6896
  150.8245  134.7472  159.6812 H   0  0  0  0  0  0  0  0  0  0  0  0  # atno 6908 bound_to 6896
  152.4335  134.5737  159.9980 H   0  0  0  0  0  0  0  0  0  0  0  0  # atno 6909 bound_to 6896
  144.7921  139.7300  143.6217 H   0  0  0  0  0  0  0  0  0  0  0  0  # atno 7974 bound_to 7965
  154.4011  140.1362  156.4074 H   0  0  0  0  0  0  0  0  0  0  0  0  # atno 8008 bound_to 7997
  155.7766  140.3482  155.5255 H   0  0  0  0  0  0  0  0  0  0  0  0  # atno 8009 bound_to 7997
  155.8714  140.0972  157.1538 H   0  0  0  0  0  0  0  0  0  0  0  0  # atno 8010 bound_to 7997
  140.2812  144.3155  150.6264 H   0  0  0  0  0  0  0  0  0  0  0  0  # atno 10167 bound_to 10162
  157.4140  130.7931  149.7456 H   0  0  0  0  0  0  0  0  0  0  0  0  # atno 10718 bound_to 10713
  154.5776  135.2833  155.0765 H   0  0  0  0  0  0  0  0  0  0  0  0  # atno 10763 bound_to 10752
  154.2114  135.6407  153.5120 H   0  0  0  0  0  0  0  0  0  0  0  0  # atno 10764 bound_to 10752
  153.0077  135.5492  154.6419 H   0  0  0  0  0  0  0  0  0  0  0  0  # atno 10765 bound_to 10752
  140.9464  134.1124  157.4103 H   0  0  0  0  0  0  0  0  0  0  0  0  # atno 11005 bound_to 11000
  146.2176  139.5577  142.9640 LP  0  0  0  0  0  0  0  0  0  0  0  0  # atno 17320 bound_to 7965
  145.5769  141.0387  143.2144 LP  0  0  0  0  0  0  0  0  0  0  0  0  # atno 17321 bound_to 7965
  140.5810  143.2173  151.7428 LP  0  0  0  0  0  0  0  0  0  0  0  0  # atno 17342 bound_to 10162
  139.4962  144.4080  152.0111 LP  0  0  0  0  0  0  0  0  0  0  0  0  # atno 17343 bound_to 10162
  155.9859  130.3979  150.3237 LP  0  0  0  0  0  0  0  0  0  0  0  0  # atno 17370 bound_to 10713
  157.1378  131.0288  151.2941 LP  0  0  0  0  0  0  0  0  0  0  0  0  # atno 17371 bound_to 10713
  139.8834  135.0052  156.6302 LP  0  0  0  0  0  0  0  0  0  0  0  0  # atno 17394 bound_to 11000
  140.7663  133.8775  155.8457 LP  0  0  0  0  0  0  0  0  0  0  0  0  # atno 17395 bound_to 11000

$$$$
