AV-unprocessed.smi:2886|AV-procd|sdf|11096|dock9
  -GOLD-   2272015563D 1   1.00000     0.00000
 Structure written by MMmdl.
 27 29  0  0  0  0  0  0  0  0  2 V2000
  151.6422  137.1965  160.0152 O   0  0  0  0  0  0  0  0  0  0  0  0
  151.7659  137.9280  159.0343 C   0  0  0  0  0  0  0  0  0  0  0  0
  152.8694  138.7139  158.8470 N   0  5  0  0  0  0  0  0  0  0  0  0
  152.9647  139.5661  157.6826 N   0  0  0  0  0  0  0  0  0  0  0  0
  152.0354  139.5938  156.8110 C   0  0  0  0  0  0  0  0  0  0  0  0
  150.8121  138.7623  156.9268 C   0  0  0  0  0  0  0  0  0  0  0  0
  149.7984  138.7929  155.9775 N   0  0  0  0  0  0  0  0  0  0  0  0
  149.7184  139.5839  154.7571 C   0  0  1  0  0  0  0  0  0  0  0  0
  148.3715  139.4525  154.0444 C   0  0  0  0  0  0  0  0  0  0  0  0
  147.9511  140.9228  153.9048 C   0  0  1  0  0  0  0  0  0  0  0  0
  147.4749  141.5014  155.2433 C   0  0  0  0  0  0  0  0  0  0  0  0
  148.7894  141.6343  156.0099 C   0  0  0  0  0  0  0  0  0  0  0  0
  149.8090  141.1020  154.9887 C   0  0  2  0  0  0  0  0  0  0  0  0
  149.2136  141.5587  153.7854 O   0  0  0  0  0  0  0  0  0  0  0  0
  150.7036  137.9680  158.0219 C   0  0  0  0  0  0  0  0  0  0  0  0
  149.3052  136.9697  158.2538 Cl  0  0  0  0  0  0  0  0  0  0  0  0
  152.1008  140.2438  155.9355 H   0  0  0  0  0  0  0  0  0  0  0  0
  149.0819  138.0872  156.0691 H   0  0  0  0  0  0  0  0  0  0  0  0
  150.4981  139.2774  154.0599 H   0  0  0  0  0  0  0  0  0  0  0  0
  148.5047  138.9891  153.0664 H   0  0  0  0  0  0  0  0  0  0  0  0
  147.6358  138.8677  154.5987 H   0  0  0  0  0  0  0  0  0  0  0  0
  147.2702  141.1118  153.0745 H   0  0  0  0  0  0  0  0  0  0  0  0
  147.0144  142.4797  155.1025 H   0  0  0  0  0  0  0  0  0  0  0  0
  146.7552  140.8532  155.7446 H   0  0  0  0  0  0  0  0  0  0  0  0
  148.9890  142.6816  156.2390 H   0  0  0  0  0  0  0  0  0  0  0  0
  148.7942  141.0794  156.9484 H   0  0  0  0  0  0  0  0  0  0  0  0
  150.8254  141.4620  155.1508 H   0  0  0  0  0  0  0  0  0  0  0  0
  1  2  2  0  0  0  0
  2 15  1  0  0  0  0
  2  3  1  0  0  0  0
  3  4  1  0  0  0  0
  4  5  2  0  0  0  0
  5  6  1  0  0  0  0
  5 17  1  0  0  0  0
  6  7  1  0  0  0  0
  6 15  2  0  0  0  0
  7  8  1  0  0  0  0
  7 18  1  0  0  0  0
  8 13  1  0  0  0  0
  8  9  1  0  0  0  0
  8 19  1  0  0  0  0
  9 10  1  0  0  0  0
  9 20  1  0  0  0  0
  9 21  1  0  0  0  0
 10 14  1  0  0  0  0
 10 11  1  0  0  0  0
 10 22  1  0  0  0  0
 11 12  1  0  0  0  0
 11 23  1  0  0  0  0
 11 24  1  0  0  0  0
 12 13  1  0  0  0  0
 12 25  1  0  0  0  0
 12 26  1  0  0  0  0
 13 14  1  0  0  0  0
 13 27  1  0  0  0  0
 15 16  1  0  0  0  0
M  CHG  1   3  -1
M  END
> <s_m_source_file>
AV-unprocessed.smi

> <i_m_source_file_index>
2886

> <i_lp_mmshare_version>
43012

> <i_f3d_flags>
0

> <s_epik_input>
Tz1jMVtuSF1uW2NIXWMoYzFDbClbTkhdW0NASF0oW0NIMl1bQ0BASF0yMylbQ0BASF0oTzMpW0NIMl1bQ0gyXTI=

> <s_epik_cmdline>
J2VwaWtfcHl0aG9uJywgJy1waCcsICc3LjAnLCAnLXRuJywgJzgnLCAnLW1hJywgJzIwMCcsICctbWV0YWxfYmluZGluZycsICctaW1hZScsICc8aW5maWxlLm1hZT4nLCAnLW9tYWUnLCAnPG91dGZpbGUubWFlPic=

> <r_lp_tautomer_probability>
0.986175

> <r_epik_Ionization_Penalty>
3.84253

> <r_epik_Ionization_Penalty_Charging>
0.0129711

> <r_epik_Ionization_Penalty_Neutral>
3.82956

> <r_epik_State_Penalty>
3.8249

> <r_epik_Charging_Adjusted_Penalty>
3.83787

> <i_epik_Tot_Q>
-1

> <i_epik_Tot_abs_Q>
1

> <r_epik_Metal_State_Penalty>
0.57612

> <b_epik_Metal_Only>
1

> <s_lp_Force_Field>
OPLS_2005

> <r_lp_Energy>
60.9826

> <b_lp_Chiralities_Consistent>
1

> <s_lp_Variant>
AV-unprocessed.smi:2886-10

> <Gold.Version>
5.8.1

> <Gold.Id.Protein>
6NUR|6NUR_protein|mol2

> <Gold.PLP.Fitness>
29.4944

> <Gold.PLP.PLP>
-21.3674

> <Gold.PLP.part.hbond>
-4.0000

> <Gold.PLP.part.metal>
0.0000

> <Gold.PLP.part.buried>
-0.2459

> <Gold.PLP.part.nonpolar>
-16.1880

> <Gold.PLP.part.repulsive>
0.6268

> <Gold.PLP.ligand.clash>
0.0000

> <Gold.PLP.ligand.torsion>
0.0211

> <Gold.PLP.Chemscore.Hbond>
2.7200

> <Gold.PLP.Chemscore.CHOScore>
0.0000

> <Gold.PLP.Chemscore.Metal>
0.0000

> <Gold.Chemscore.Hbonds>
donor molecule, donor type, donor heavy atom, donor atom, acceptor molecule, acceptor atom, score
      P1  H  6896  6907       L1     1  0.98
      P1  H  7997  8010       L1     4  1.00
      P1  H  8011  8017       L1    14  0.72

> <Gold.PLP.Chemscore.Internal.Correction>
0.0091

> <Gold.Rescore>
     Score         DG    S(hbond)    S(metal)    S(lipo)     H(rot)  DE(clash)    DE(int)     intcor
     17.54     -17.83       2.69        0.00      50.62       1.00       0.28       0.01       ----

> <Gold.Chemscore.Fitness>
17.5397

> <Gold.Chemscore.DG>
-17.8317

> <Gold.Chemscore.ZeroCoef>
-5.4800

> <Gold.Chemscore.Hbond>
2.6912

> <Gold.Chemscore.Metal>
0.0000

> <Gold.Chemscore.Lipo>
50.6241

> <Gold.Chemscore.Internal_Hbond>
0.0000

> <Gold.Chemscore.DEClash>
0.2813

> <Gold.Chemscore.DEInternal>
0.0107

> <Gold.Chemscore.Rot>
1.0000

> <Gold.Chemscore.Internal.Correction>
   9.000000E+99

> <Gold.Chemscore.Hbonds>
donor molecule, donor type, donor heavy atom, donor atom, acceptor molecule, acceptor atom, score
      P1  H  6896  6907       L1     1  0.92
      P1  H  7997  8010       L1     4  0.25
      P1  H  8011  8017       L1    14  0.72

> <Gold.Chemscore.Hbond.Weighted>
-8.9887

> <Gold.Chemscore.Metal.Weighted>
-0.0000

> <Gold.Chemscore.Lipo.Weighted>
-5.9230

> <Gold.Chemscore.Internal_Hbond.Weighted>
0.0000

> <Gold.Chemscore.DEClash.Weighted>
0.2813

> <Gold.Chemscore.DEInternal.Weighted>
0.0107

> <Gold.Chemscore.Rot.Weighted>
2.5600

> <Gold.Chemscore.Internal.Correction.Weighted>
   9.000000E+99

> <Gold.Protein.RotatedTorsions>
[ 6907 6896 6895 6894 ] final    9.38 input  -60.11 | X-H torsion
[ 7974 7965 7964 7962 ] final   52.31 input  175.53 | X-H torsion
[ 8008 7997 7996 7995 ] final   61.23 input   59.86 | X-H torsion
[ 10167 10162 10161 10158 ] final  168.35 input  -65.29 | X-H torsion
[ 10718 10713 10712 10709 ] final  125.15 input   66.30 | X-H torsion
[ 10763 10752 10751 10750 ] final  -38.55 input  -60.55 | X-H torsion
[ 11005 11000 10999 10996 ] final  122.55 input  -57.11 | X-H torsion

> <Gold.Protein.ActiveResidues>
 VAL166  LYS551  ARG553  GLY616  TRP617  ASP618  TYR619  PRO620  LYS621  CYS622 
 ASP623  PHE694  ASN695  SER759  ASP760  ASP761  ALA762  ILE779  LEU786  VAL792 
 PHE793  MET794  SER795  GLU796  ALA797  LYS798  CYS799  TRP800  GLU811  SER814 

> <Gold.Protein.RotatedAtoms>
  151.7212  135.0894  160.0284 H   0  0  0  0  0  0  0  0  0  0  0  0  # atno 6907 bound_to 6896
  152.3601  133.6281  159.6017 H   0  0  0  0  0  0  0  0  0  0  0  0  # atno 6908 bound_to 6896
  150.7598  133.9354  159.3481 H   0  0  0  0  0  0  0  0  0  0  0  0  # atno 6909 bound_to 6896
  145.9826  139.4257  143.0122 H   0  0  0  0  0  0  0  0  0  0  0  0  # atno 7974 bound_to 7965
  155.5951  140.3493  155.4577 H   0  0  0  0  0  0  0  0  0  0  0  0  # atno 8008 bound_to 7997
  156.0272  140.1266  157.0321 H   0  0  0  0  0  0  0  0  0  0  0  0  # atno 8009 bound_to 7997
  154.4338  140.1051  156.6033 H   0  0  0  0  0  0  0  0  0  0  0  0  # atno 8010 bound_to 7997
  139.4966  144.3824  151.9607 H   0  0  0  0  0  0  0  0  0  0  0  0  # atno 10167 bound_to 10162
  157.5527  131.1093  150.8675 H   0  0  0  0  0  0  0  0  0  0  0  0  # atno 10718 bound_to 10713
  153.9147  135.6788  153.4749 H   0  0  0  0  0  0  0  0  0  0  0  0  # atno 10763 bound_to 10752
  153.1060  135.4805  154.8949 H   0  0  0  0  0  0  0  0  0  0  0  0  # atno 10764 bound_to 10752
  154.7509  135.3184  154.8515 H   0  0  0  0  0  0  0  0  0  0  0  0  # atno 10765 bound_to 10752
  139.9273  134.9641  156.8127 H   0  0  0  0  0  0  0  0  0  0  0  0  # atno 11005 bound_to 11000
  145.7747  140.9882  143.1131 LP  0  0  0  0  0  0  0  0  0  0  0  0  # atno 17320 bound_to 7965
  144.6866  139.9490  143.7477 LP  0  0  0  0  0  0  0  0  0  0  0  0  # atno 17321 bound_to 7965
  140.3261  144.3371  150.5998 LP  0  0  0  0  0  0  0  0  0  0  0  0  # atno 17342 bound_to 10162
  140.5683  143.2183  151.7644 LP  0  0  0  0  0  0  0  0  0  0  0  0  # atno 17343 bound_to 10162
  156.9195  130.5310  149.5279 LP  0  0  0  0  0  0  0  0  0  0  0  0  # atno 17370 bound_to 10713
  156.0591  130.5647  150.9154 LP  0  0  0  0  0  0  0  0  0  0  0  0  # atno 17371 bound_to 10713
  140.6299  133.9915  155.7657 LP  0  0  0  0  0  0  0  0  0  0  0  0  # atno 17394 bound_to 11000
  141.0840  134.0019  157.3342 LP  0  0  0  0  0  0  0  0  0  0  0  0  # atno 17395 bound_to 11000

$$$$
