AV-unprocessed.smi:2164|AV-procd|sdf|8811|dock3
  -GOLD-   2272012 03D 1   1.00000     0.00000
 Structure written by MMmdl.
 39 41  0  0  0  0  0  0  0  0  3 V2000
  154.3856  139.0180  158.8747 O   0  0  0  0  0  0  0  0  0  0  0  0
  154.2946  138.9648  160.1081 C   0  0  0  0  0  0  0  0  0  0  0  0
  153.9740  140.0201  160.9174 N   0  5  0  0  0  0  0  0  0  0  0  0
  153.9597  141.4233  160.5077 C   0  0  0  0  0  0  0  0  0  0  0  0
  153.1319  141.5772  159.2166 C   0  0  0  0  0  0  0  0  0  0  0  0
  152.3698  142.8924  159.1350 C   0  0  0  0  0  0  0  0  0  0  0  0
  152.4557  143.8441  160.1778 C   0  0  0  0  0  0  0  0  0  0  0  0
  151.7313  145.0500  160.0777 C   0  0  0  0  0  0  0  0  0  0  0  0
  150.9333  145.2789  158.9384 C   0  0  0  0  0  0  0  0  0  0  0  0
  150.8695  144.3457  157.9636 N   0  3  0  0  0  0  0  0  0  0  0  0
  151.5462  143.1780  158.0223 C   0  0  0  0  0  0  0  0  0  0  0  0
  154.5483  137.6750  160.7672 C   0  0  0  0  0  0  0  0  0  0  0  0
  154.4942  137.5035  162.1063 C   0  0  0  0  0  0  0  0  0  0  0  0
  154.7346  136.2815  162.7401 N   0  0  0  0  0  0  0  0  0  0  0  0
  154.7426  136.2551  164.1984 C   0  0  0  0  0  0  0  0  0  0  0  0
  154.0529  134.9998  164.7090 C   0  0  0  0  0  0  0  0  0  0  0  0
  155.0496  133.5830  164.1083 S   0  0  0  0  0  0  0  0  0  0  0  0
  156.4047  133.7100  164.6673 O   0  0  0  0  0  0  0  0  0  0  0  0
  154.2837  132.3506  164.3489 O   0  0  0  0  0  0  0  0  0  0  0  0
  155.0983  133.9117  162.4653 N   0  0  0  0  0  0  0  0  0  0  0  0
  154.9849  135.1109  161.9795 C   0  0  0  0  0  0  0  0  0  0  0  0
  155.0841  135.2996  160.5418 C   0  0  0  0  0  0  0  0  0  0  0  0
  154.8781  136.5037  159.9705 C   0  0  0  0  0  0  0  0  0  0  0  0
  153.5316  142.0636  161.2800 H   0  0  0  0  0  0  0  0  0  0  0  0
  154.9667  141.8018  160.3276 H   0  0  0  0  0  0  0  0  0  0  0  0
  153.7855  141.5016  158.3462 H   0  0  0  0  0  0  0  0  0  0  0  0
  152.4187  140.7558  159.1328 H   0  0  0  0  0  0  0  0  0  0  0  0
  153.0735  143.6532  161.0434 H   0  0  0  0  0  0  0  0  0  0  0  0
  151.7886  145.7883  160.8640 H   0  0  0  0  0  0  0  0  0  0  0  0
  150.3478  146.1725  158.7789 H   0  0  0  0  0  0  0  0  0  0  0  0
  151.4154  142.5127  157.1811 H   0  0  0  0  0  0  0  0  0  0  0  0
  154.2598  138.3072  162.7895 H   0  0  0  0  0  0  0  0  0  0  0  0
  155.7726  136.3034  164.5534 H   0  0  0  0  0  0  0  0  0  0  0  0
  154.2310  137.1297  164.6011 H   0  0  0  0  0  0  0  0  0  0  0  0
  154.0219  134.9702  165.7979 H   0  0  0  0  0  0  0  0  0  0  0  0
  153.0336  134.9115  164.3313 H   0  0  0  0  0  0  0  0  0  0  0  0
  155.3181  134.4735  159.8859 H   0  0  0  0  0  0  0  0  0  0  0  0
  154.9642  136.5798  158.8965 H   0  0  0  0  0  0  0  0  0  0  0  0
  150.2857  144.5296  157.1474 H   0  0  0  0  0  0  0  0  0  0  0  0
  1  2  2  0  0  0  0
  2  3  1  0  0  0  0
  2 12  1  0  0  0  0
  3  4  1  0  0  0  0
  4  5  1  0  0  0  0
  4 24  1  0  0  0  0
  4 25  1  0  0  0  0
  5  6  1  0  0  0  0
  5 26  1  0  0  0  0
  5 27  1  0  0  0  0
  6 11  1  0  0  0  0
  6  7  2  0  0  0  0
  7  8  1  0  0  0  0
  7 28  1  0  0  0  0
  8  9  2  0  0  0  0
  8 29  1  0  0  0  0
  9 10  1  0  0  0  0
  9 30  1  0  0  0  0
 10 11  2  0  0  0  0
 10 39  1  0  0  0  0
 11 31  1  0  0  0  0
 12 23  1  0  0  0  0
 12 13  2  0  0  0  0
 13 14  1  0  0  0  0
 13 32  1  0  0  0  0
 14 21  1  0  0  0  0
 14 15  1  0  0  0  0
 15 16  1  0  0  0  0
 15 33  1  0  0  0  0
 15 34  1  0  0  0  0
 16 17  1  0  0  0  0
 16 35  1  0  0  0  0
 16 36  1  0  0  0  0
 17 18  2  0  0  0  0
 17 19  2  0  0  0  0
 17 20  1  0  0  0  0
 20 21  2  0  0  0  0
 21 22  1  0  0  0  0
 22 23  2  0  0  0  0
 22 37  1  0  0  0  0
 23 38  1  0  0  0  0
M  CHG  1   3  -1
M  CHG  1  10   1
M  END
> <s_m_source_file>
AV-unprocessed.smi

> <i_m_source_file_index>
2164

> <i_lp_mmshare_version>
43012

> <i_f3d_flags>
0

> <s_epik_input>
W0NIMl0xW0NIMl1TKD1PKSg9TylOPUMoTjEyKVtDSF09W0NIXUMoPVtDSF0yKUMoPU8pW05IXVtDSDJdW0NIMl1jM1tjSF1bY0hdW2NIXW5bY0hdMw==

> <s_epik_cmdline>
J2VwaWtfcHl0aG9uJywgJy1waCcsICc3LjAnLCAnLXRuJywgJzgnLCAnLW1hJywgJzIwMCcsICctbWV0YWxfYmluZGluZycsICctaW1hZScsICc8aW5maWxlLm1hZT4nLCAnLW9tYWUnLCAnPG91dGZpbGUubWFlPic=

> <r_epik_Ionization_Penalty>
6.83439

> <r_epik_Ionization_Penalty_Charging>
6.83439

> <r_epik_Ionization_Penalty_Neutral>
0

> <r_epik_State_Penalty>
7.45298

> <r_epik_Charging_Adjusted_Penalty>
14.2874

> <i_epik_Tot_Q>
0

> <i_epik_Tot_abs_Q>
2

> <r_epik_Metal_State_Penalty>
3.5959

> <b_epik_Metal_Only>
1

> <s_lp_Force_Field>
OPLS_2005

> <r_lp_Energy>
30.4634

> <b_lp_Chiralities_Consistent>
1

> <s_lp_Variant>
AV-unprocessed.smi:2164-4

> <Gold.Version>
5.8.1

> <Gold.Id.Protein>
6NUR|6NUR_protein|mol2

> <Gold.PLP.Fitness>
52.6927

> <Gold.PLP.PLP>
-44.2550

> <Gold.PLP.part.hbond>
-1.9898

> <Gold.PLP.part.metal>
0.0000

> <Gold.PLP.part.buried>
-4.3504

> <Gold.PLP.part.nonpolar>
-37.3543

> <Gold.PLP.part.repulsive>
0.1217

> <Gold.PLP.ligand.clash>
0.0000

> <Gold.PLP.ligand.torsion>
0.3109

> <Gold.PLP.Chemscore.Hbond>
3.0000

> <Gold.PLP.Chemscore.CHOScore>
0.0000

> <Gold.PLP.Chemscore.Metal>
0.0000

> <Gold.Chemscore.Hbonds>
donor molecule, donor type, donor heavy atom, donor atom, acceptor molecule, acceptor atom, score
      L1  H    10    39       P1  8028  2.00
      P1  H  7997  8009       L1     1  1.00

> <Gold.PLP.Chemscore.Internal.Correction>
0.0596

> <Gold.Rescore>
     Score         DG    S(hbond)    S(metal)    S(lipo)     H(rot)  DE(clash)    DE(int)     intcor
     19.76     -21.38       1.88        0.00     115.40       1.51       0.00       1.62       ----

> <Gold.Chemscore.Fitness>
19.7602

> <Gold.Chemscore.DG>
-21.3796

> <Gold.Chemscore.ZeroCoef>
-5.4800

> <Gold.Chemscore.Hbond>
1.8761

> <Gold.Chemscore.Metal>
0.0000

> <Gold.Chemscore.Lipo>
115.3980

> <Gold.Chemscore.Internal_Hbond>
0.0000

> <Gold.Chemscore.DEClash>
0.0000

> <Gold.Chemscore.DEInternal>
1.6194

> <Gold.Chemscore.Rot>
1.5109

> <Gold.Chemscore.Internal.Correction>
   9.000000E+99

> <Gold.Chemscore.Hbonds>
donor molecule, donor type, donor heavy atom, donor atom, acceptor molecule, acceptor atom, score
      L1  H    10    39       P1  8028  0.57
      P1  H  7997  8009       L1     1  0.99

> <Gold.Chemscore.Hbond.Weighted>
-6.2660

> <Gold.Chemscore.Metal.Weighted>
-0.0000

> <Gold.Chemscore.Lipo.Weighted>
-13.5016

> <Gold.Chemscore.Internal_Hbond.Weighted>
0.0000

> <Gold.Chemscore.DEClash.Weighted>
0.0000

> <Gold.Chemscore.DEInternal.Weighted>
1.6194

> <Gold.Chemscore.Rot.Weighted>
3.8680

> <Gold.Chemscore.Internal.Correction.Weighted>
   9.000000E+99

> <Gold.Protein.RotatedTorsions>
[ 6907 6896 6895 6894 ] final   80.89 input  -60.11 | X-H torsion
[ 7974 7965 7964 7962 ] final    7.51 input  175.53 | X-H torsion
[ 8008 7997 7996 7995 ] final  128.36 input   59.86 | X-H torsion
[ 10167 10162 10161 10158 ] final -167.87 input  -65.29 | X-H torsion
[ 10718 10713 10712 10709 ] final  176.47 input   66.30 | X-H torsion
[ 10763 10752 10751 10750 ] final  162.04 input  -60.55 | X-H torsion
[ 11005 11000 10999 10996 ] final  -35.28 input  -57.11 | X-H torsion

> <Gold.Protein.ActiveResidues>
 VAL166  LYS551  ARG553  GLY616  TRP617  ASP618  TYR619  PRO620  LYS621  CYS622 
 ASP623  PHE694  ASN695  SER759  ASP760  ASP761  ALA762  ILE779  LEU786  VAL792 
 PHE793  MET794  SER795  GLU796  ALA797  LYS798  CYS799  TRP800  GLU811  SER814 

> <Gold.Protein.RotatedAtoms>
  152.5250  134.3288  159.9174 H   0  0  0  0  0  0  0  0  0  0  0  0  # atno 6907 bound_to 6896
  151.3237  133.4023  159.2664 H   0  0  0  0  0  0  0  0  0  0  0  0  # atno 6908 bound_to 6896
  150.9938  134.9284  159.7972 H   0  0  0  0  0  0  0  0  0  0  0  0  # atno 6909 bound_to 6896
  146.2426  140.0073  142.8410 H   0  0  0  0  0  0  0  0  0  0  0  0  # atno 7974 bound_to 7965
  156.2913  140.2646  156.2423 H   0  0  0  0  0  0  0  0  0  0  0  0  # atno 8008 bound_to 7997
  154.9965  140.0388  157.2360 H   0  0  0  0  0  0  0  0  0  0  0  0  # atno 8009 bound_to 7997
  154.7639  140.2766  155.6196 H   0  0  0  0  0  0  0  0  0  0  0  0  # atno 8010 bound_to 7997
  139.6021  144.0989  152.1754 H   0  0  0  0  0  0  0  0  0  0  0  0  # atno 10167 bound_to 10162
  156.9197  130.9936  151.3006 H   0  0  0  0  0  0  0  0  0  0  0  0  # atno 10718 bound_to 10713
  154.2722  135.2765  155.2733 H   0  0  0  0  0  0  0  0  0  0  0  0  # atno 10763 bound_to 10752
  154.5291  135.5734  153.6748 H   0  0  0  0  0  0  0  0  0  0  0  0  # atno 10764 bound_to 10752
  152.9943  135.6223  154.2877 H   0  0  0  0  0  0  0  0  0  0  0  0  # atno 10765 bound_to 10752
  140.9784  133.7070  156.1641 H   0  0  0  0  0  0  0  0  0  0  0  0  # atno 11005 bound_to 11000
  145.1360  140.9545  143.4516 LP  0  0  0  0  0  0  0  0  0  0  0  0  # atno 17320 bound_to 7965
  145.0341  139.3315  143.6009 LP  0  0  0  0  0  0  0  0  0  0  0  0  # atno 17321 bound_to 7965
  140.0587  144.5874  150.7279 LP  0  0  0  0  0  0  0  0  0  0  0  0  # atno 17342 bound_to 10162
  140.7257  143.2634  151.4127 LP  0  0  0  0  0  0  0  0  0  0  0  0  # atno 17343 bound_to 10162
  157.5916  130.8447  149.8667 LP  0  0  0  0  0  0  0  0  0  0  0  0  # atno 17370 bound_to 10713
  156.0497  130.3720  150.1231 LP  0  0  0  0  0  0  0  0  0  0  0  0  # atno 17371 bound_to 10713
  140.7224  134.4343  157.5573 LP  0  0  0  0  0  0  0  0  0  0  0  0  # atno 17394 bound_to 11000
  139.8940  134.8718  156.2198 LP  0  0  0  0  0  0  0  0  0  0  0  0  # atno 17395 bound_to 11000

$$$$
