AV-unprocessed.smi:2424|AV-procd|sdf|9574|dock6
  -GOLD-   2272013203D 1   1.00000     0.00000
 Structure written by MMmdl.
 49 50  0  0  0  0  0  0  0  0  2 V2000
  149.3595  137.2665  158.3795 C   0  0  0  0  0  0  0  0  0  0  0  0
  150.3148  137.1959  157.1752 C   0  0  0  0  0  0  0  0  0  0  0  0
  149.6452  137.3163  155.7833 C   0  0  0  0  0  0  0  0  0  0  0  0
  150.6982  136.9583  154.7021 C   0  0  0  0  0  0  0  0  0  0  0  0
  151.7899  138.0189  154.4804 C   0  0  0  0  0  0  0  0  0  0  0  0
  148.2662  136.5989  155.6909 C   0  0  2  0  0  0  0  0  0  0  0  0
  147.9241  136.1642  154.3344 N   0  0  0  0  0  0  0  0  0  0  0  0
  147.0369  135.2108  154.0247 C   0  0  0  0  0  0  0  0  0  0  0  0
  146.3886  134.5909  154.8669 O   0  0  0  0  0  0  0  0  0  0  0  0
  146.9699  135.0422  152.6926 N   0  0  0  0  0  0  0  0  0  0  0  0
  146.1939  134.1341  151.9611 C   0  0  0  0  0  0  0  0  0  0  0  0
  145.3222  134.5879  150.9919 C   0  0  0  0  0  0  0  0  0  0  0  0
  144.5040  133.8760  150.1872 N   0  5  0  0  0  0  0  0  0  0  0  0
  144.5051  132.5178  150.3100 C   0  0  0  0  0  0  0  0  0  0  0  0
  143.7866  131.8044  149.6108 O   0  0  0  0  0  0  0  0  0  0  0  0
  145.3946  131.8936  151.3103 C   0  0  0  0  0  0  0  0  0  0  0  0
  145.3953  130.3802  151.4413 C   0  0  0  0  0  0  0  0  0  0  0  0
  146.1875  132.6766  152.0843 C   0  0  0  0  0  0  0  0  0  0  0  0
  147.5735  137.9219  156.0590 C   0  0  2  0  0  0  0  0  0  0  0  0
  146.2101  138.3039  155.4851 C   0  0  0  0  0  0  0  0  0  0  0  0
  148.8485  138.6400  155.5871 C   0  0  2  0  0  0  0  0  0  0  0  0
  148.7233  139.0491  154.2297 O   0  0  0  0  0  0  0  0  0  0  0  0
  148.2937  140.3931  154.0935 C   0  0  0  0  0  0  0  0  0  0  0  0
  149.8923  137.0315  159.3008 H   0  0  0  0  0  0  0  0  0  0  0  0
  148.5381  136.5563  158.2877 H   0  0  0  0  0  0  0  0  0  0  0  0
  148.9338  138.2613  158.5050 H   0  0  0  0  0  0  0  0  0  0  0  0
  151.0958  137.9462  157.2944 H   0  0  0  0  0  0  0  0  0  0  0  0
  150.8467  136.2472  157.2465 H   0  0  0  0  0  0  0  0  0  0  0  0
  151.2046  136.0294  154.9637 H   0  0  0  0  0  0  0  0  0  0  0  0
  150.2211  136.7376  153.7487 H   0  0  0  0  0  0  0  0  0  0  0  0
  152.5551  137.6424  153.8014 H   0  0  0  0  0  0  0  0  0  0  0  0
  152.2844  138.2880  155.4137 H   0  0  0  0  0  0  0  0  0  0  0  0
  151.3889  138.9295  154.0368 H   0  0  0  0  0  0  0  0  0  0  0  0
  148.1388  135.8262  156.4512 H   0  0  0  0  0  0  0  0  0  0  0  0
  148.4062  136.6262  153.5774 H   0  0  0  0  0  0  0  0  0  0  0  0
  147.5600  135.6408  152.1334 H   0  0  0  0  0  0  0  0  0  0  0  0
  145.2767  135.6879  150.8392 H   0  0  0  0  0  0  0  0  0  0  0  0
  146.0879  130.0475  152.2148 H   0  0  0  0  0  0  0  0  0  0  0  0
  145.6936  129.9168  150.5005 H   0  0  0  0  0  0  0  0  0  0  0  0
  144.3999  130.0200  151.7032 H   0  0  0  0  0  0  0  0  0  0  0  0
  146.8251  132.1857  152.8012 H   0  0  0  0  0  0  0  0  0  0  0  0
  147.5294  137.9857  157.1474 H   0  0  0  0  0  0  0  0  0  0  0  0
  146.2072  138.3019  154.3950 H   0  0  0  0  0  0  0  0  0  0  0  0
  145.9152  139.3021  155.8089 H   0  0  0  0  0  0  0  0  0  0  0  0
  145.4378  137.6090  155.8156 H   0  0  0  0  0  0  0  0  0  0  0  0
  149.1236  139.4559  156.2577 H   0  0  0  0  0  0  0  0  0  0  0  0
  148.2628  140.6614  153.0377 H   0  0  0  0  0  0  0  0  0  0  0  0
  148.9678  141.0851  154.5982 H   0  0  0  0  0  0  0  0  0  0  0  0
  147.2915  140.5256  154.5027 H   0  0  0  0  0  0  0  0  0  0  0  0
  1  2  1  0  0  0  0
  1 24  1  0  0  0  0
  1 25  1  0  0  0  0
  1 26  1  0  0  0  0
  2  3  1  0  0  0  0
  2 27  1  0  0  0  0
  2 28  1  0  0  0  0
  3 21  1  0  0  0  0
  3  4  1  0  0  0  0
  3  6  1  0  0  0  0
  4  5  1  0  0  0  0
  4 29  1  0  0  0  0
  4 30  1  0  0  0  0
  5 31  1  0  0  0  0
  5 32  1  0  0  0  0
  5 33  1  0  0  0  0
  6  7  1  0  0  0  0
  6 19  1  0  0  0  0
  6 34  1  0  0  0  0
  7  8  1  0  0  0  0
  7 35  1  0  0  0  0
  8  9  2  0  0  0  0
  8 10  1  0  0  0  0
 10 11  1  0  0  0  0
 10 36  1  0  0  0  0
 11 18  1  0  0  0  0
 11 12  2  0  0  0  0
 12 13  1  0  0  0  0
 12 37  1  0  0  0  0
 13 14  1  0  0  0  0
 14 15  2  0  0  0  0
 14 16  1  0  0  0  0
 16 17  1  0  0  0  0
 16 18  2  0  0  0  0
 17 38  1  0  0  0  0
 17 39  1  0  0  0  0
 17 40  1  0  0  0  0
 18 41  1  0  0  0  0
 19 20  1  0  0  0  0
 19 21  1  0  0  0  0
 19 42  1  0  0  0  0
 20 43  1  0  0  0  0
 20 44  1  0  0  0  0
 20 45  1  0  0  0  0
 21 22  1  0  0  0  0
 21 46  1  0  0  0  0
 22 23  1  0  0  0  0
 23 47  1  0  0  0  0
 23 48  1  0  0  0  0
 23 49  1  0  0  0  0
M  CHG  1  13  -1
M  END
> <s_m_source_file>
AV-unprocessed.smi

> <i_m_source_file_index>
2424

> <i_lp_mmshare_version>
43012

> <i_f3d_flags>
0

> <s_epik_input>
W0NIM11PW0NAQEhdMVtDQEhdKFtDSDNdKVtDQEBIXShDMShbQ0gyXVtDSDNdKVtDSDJdW0NIM10pW05IXUMoPU8pW05IXWMyW2NIXVtuSF1jKD1PKWMoW0NIM10pW2NIXTI=

> <s_epik_cmdline>
J2VwaWtfcHl0aG9uJywgJy1waCcsICc3LjAnLCAnLXRuJywgJzgnLCAnLW1hJywgJzIwMCcsICctbWV0YWxfYmluZGluZycsICctaW1hZScsICc8aW5maWxlLm1hZT4nLCAnLW9tYWUnLCAnPG91dGZpbGUubWFlPic=

> <r_lp_tautomer_probability>
1

> <r_epik_Ionization_Penalty>
7.6122

> <r_epik_Ionization_Penalty_Charging>
1.53843

> <r_epik_Ionization_Penalty_Neutral>
6.07377

> <r_epik_State_Penalty>
6.07371

> <r_epik_Charging_Adjusted_Penalty>
7.61214

> <i_epik_Tot_Q>
-1

> <i_epik_Tot_abs_Q>
1

> <r_epik_Metal_State_Penalty>
2.02136

> <b_epik_Metal_Only>
1

> <s_lp_Force_Field>
OPLS_2005

> <r_lp_Energy>
42.0535

> <b_lp_Chiralities_Consistent>
1

> <s_lp_Variant>
AV-unprocessed.smi:2424-16

> <Gold.Version>
5.8.1

> <Gold.Id.Protein>
6NUR|6NUR_protein|mol2

> <Gold.PLP.Fitness>
34.7694

> <Gold.PLP.PLP>
-28.9585

> <Gold.PLP.part.hbond>
-2.7407

> <Gold.PLP.part.metal>
0.0000

> <Gold.PLP.part.buried>
-5.8490

> <Gold.PLP.part.nonpolar>
-21.2379

> <Gold.PLP.part.repulsive>
0.6082

> <Gold.PLP.ligand.clash>
0.0000

> <Gold.PLP.ligand.torsion>
1.3924

> <Gold.PLP.Chemscore.Hbond>
2.6400

> <Gold.PLP.Chemscore.CHOScore>
0.0000

> <Gold.PLP.Chemscore.Metal>
0.0000

> <Gold.Chemscore.Hbonds>
donor molecule, donor type, donor heavy atom, donor atom, acceptor molecule, acceptor atom, score
      L1  H     7    35       P1  7948  0.77
      L1  H    10    36       P1  7948  0.95
      P1  H 10785 10796       L1    15  0.85

> <Gold.PLP.Chemscore.Internal.Correction>
0.6756

> <Gold.Rescore>
     Score         DG    S(hbond)    S(metal)    S(lipo)     H(rot)  DE(clash)    DE(int)     intcor
     16.09     -18.52       2.73        0.00      66.78       1.52       0.08       2.34       ----

> <Gold.Chemscore.Fitness>
16.0945

> <Gold.Chemscore.DG>
-18.5175

> <Gold.Chemscore.ZeroCoef>
-5.4800

> <Gold.Chemscore.Hbond>
2.7295

> <Gold.Chemscore.Metal>
0.0000

> <Gold.Chemscore.Lipo>
66.7787

> <Gold.Chemscore.Internal_Hbond>
0.0000

> <Gold.Chemscore.DEClash>
0.0822

> <Gold.Chemscore.DEInternal>
2.3408

> <Gold.Chemscore.Rot>
1.5204

> <Gold.Chemscore.Internal.Correction>
   9.000000E+99

> <Gold.Chemscore.Hbonds>
donor molecule, donor type, donor heavy atom, donor atom, acceptor molecule, acceptor atom, score
      L1  H     7    35       P1  7948  0.76
      L1  H    10    36       P1  7948  0.84
      P1  H 10785 10796       L1    15  0.84

> <Gold.Chemscore.Hbond.Weighted>
-9.1167

> <Gold.Chemscore.Metal.Weighted>
-0.0000

> <Gold.Chemscore.Lipo.Weighted>
-7.8131

> <Gold.Chemscore.Internal_Hbond.Weighted>
0.0000

> <Gold.Chemscore.DEClash.Weighted>
0.0822

> <Gold.Chemscore.DEInternal.Weighted>
2.3408

> <Gold.Chemscore.Rot.Weighted>
3.8922

> <Gold.Chemscore.Internal.Correction.Weighted>
   9.000000E+99

> <Gold.Protein.RotatedTorsions>
[ 6907 6896 6895 6894 ] final   -1.39 input  -60.11 | X-H torsion
[ 7974 7965 7964 7962 ] final -115.44 input  175.53 | X-H torsion
[ 8008 7997 7996 7995 ] final   68.32 input   59.86 | X-H torsion
[ 10167 10162 10161 10158 ] final    2.42 input  -65.29 | X-H torsion
[ 10718 10713 10712 10709 ] final  -18.74 input   66.30 | X-H torsion
[ 10763 10752 10751 10750 ] final  169.41 input  -60.55 | X-H torsion
[ 11005 11000 10999 10996 ] final  -86.05 input  -57.11 | X-H torsion

> <Gold.Protein.ActiveResidues>
 VAL166  LYS551  ARG553  GLY616  TRP617  ASP618  TYR619  PRO620  LYS621  CYS622 
 ASP623  PHE694  ASN695  SER759  ASP760  ASP761  ALA762  ILE779  LEU786  VAL792 
 PHE793  MET794  SER795  GLU796  ALA797  LYS798  CYS799  TRP800  GLU811  SER814 

> <Gold.Protein.RotatedAtoms>
  151.5469  135.1068  159.9939 H   0  0  0  0  0  0  0  0  0  0  0  0  # atno 6907 bound_to 6896
  152.4510  133.7624  159.6765 H   0  0  0  0  0  0  0  0  0  0  0  0  # atno 6908 bound_to 6896
  150.8438  133.7827  159.3075 H   0  0  0  0  0  0  0  0  0  0  0  0  # atno 6909 bound_to 6896
  145.1084  140.8596  143.3884 H   0  0  0  0  0  0  0  0  0  0  0  0  # atno 7974 bound_to 7965
  155.7064  140.3495  155.4955 H   0  0  0  0  0  0  0  0  0  0  0  0  # atno 8008 bound_to 7997
  155.9395  140.1099  157.1089 H   0  0  0  0  0  0  0  0  0  0  0  0  # atno 8009 bound_to 7997
  154.4100  140.1215  156.4894 H   0  0  0  0  0  0  0  0  0  0  0  0  # atno 8010 bound_to 7997
  140.6636  143.7239  150.7784 H   0  0  0  0  0  0  0  0  0  0  0  0  # atno 10167 bound_to 10162
  156.5554  130.4712  149.6432 H   0  0  0  0  0  0  0  0  0  0  0  0  # atno 10718 bound_to 10713
  154.3828  135.2753  155.2201 H   0  0  0  0  0  0  0  0  0  0  0  0  # atno 10763 bound_to 10752
  154.4301  135.5979  153.6067 H   0  0  0  0  0  0  0  0  0  0  0  0  # atno 10764 bound_to 10752
  152.9834  135.5993  154.4072 H   0  0  0  0  0  0  0  0  0  0  0  0  # atno 10765 bound_to 10752
  141.1634  133.7433  156.9105 H   0  0  0  0  0  0  0  0  0  0  0  0  # atno 11005 bound_to 11000
  145.0875  139.2914  143.5752 LP  0  0  0  0  0  0  0  0  0  0  0  0  # atno 17320 bound_to 7965
  146.3527  140.0401  142.8643 LP  0  0  0  0  0  0  0  0  0  0  0  0  # atno 17321 bound_to 7965
  140.0912  143.4875  152.2477 LP  0  0  0  0  0  0  0  0  0  0  0  0  # atno 17342 bound_to 10162
  139.5877  144.7538  151.3478 LP  0  0  0  0  0  0  0  0  0  0  0  0  # atno 17343 bound_to 10162
  156.2847  130.7090  151.1924 LP  0  0  0  0  0  0  0  0  0  0  0  0  # atno 17370 bound_to 10713
  157.7379  131.0546  150.5326 LP  0  0  0  0  0  0  0  0  0  0  0  0  # atno 17371 bound_to 10713
  140.1520  134.9223  157.2605 LP  0  0  0  0  0  0  0  0  0  0  0  0  # atno 17394 bound_to 11000
  140.2711  134.3459  155.7373 LP  0  0  0  0  0  0  0  0  0  0  0  0  # atno 17395 bound_to 11000

$$$$
