AV-unprocessed.smi:1451|AV-procd|sdf|5900|dock3
  -GOLD-   22720 5583D 1   1.00000     0.00000
 Structure written by MMmdl.
 47 48  0  0  0  0  0  0  0  0  2 V2000
  146.2952  137.7793  151.4176 C   0  0  0  0  0  0  0  0  0  0  0  0
  145.4777  137.3513  152.6491 C   0  0  1  0  0  0  0  0  0  0  0  0
  144.9067  135.9273  152.5184 C   0  0  0  0  0  0  0  0  0  0  0  0
  146.0062  134.8701  152.6901 C   0  0  0  0  0  0  0  0  0  0  0  0
  146.7757  135.0832  154.0030 C   0  0  0  0  0  0  0  0  0  0  0  0
  147.3369  136.4561  154.0754 N   0  3  2  0  0  0  0  0  0  0  0  0
  148.2200  136.6490  155.2550 C   0  0  0  0  0  0  0  0  0  0  0  0
  148.3950  138.1299  155.6442 C   0  0  0  0  0  0  0  0  0  0  0  0
  149.7818  138.4253  155.9924 N   0  0  0  0  0  0  0  0  0  0  0  0
  150.2309  139.5668  156.5424 C   0  0  0  0  0  0  0  0  0  0  0  0
  149.4833  140.4832  156.8796 O   0  0  0  0  0  0  0  0  0  0  0  0
  151.7493  139.7448  156.7103 C   0  0  0  0  0  0  0  0  0  0  0  0
  152.1520  140.4544  157.9377 N   0  0  0  0  0  0  0  0  0  0  0  0
  151.8302  141.8241  158.0100 C   0  0  0  0  0  0  0  0  0  0  0  0
  152.1431  142.5959  159.0675 C   0  0  0  0  0  0  0  0  0  0  0  0
  151.8261  144.0827  159.0801 C   0  0  0  0  0  0  0  0  0  0  0  0
  150.5256  144.3064  158.8909 F   0  0  0  0  0  0  0  0  0  0  0  0
  152.1791  144.6265  160.2455 F   0  0  0  0  0  0  0  0  0  0  0  0
  152.5034  144.7013  158.1139 F   0  0  0  0  0  0  0  0  0  0  0  0
  152.8545  141.9474  160.1520 C   0  0  0  0  0  0  0  0  0  0  0  0
  153.1833  140.6420  160.0919 C   0  0  0  0  0  0  0  0  0  0  0  0
  152.8385  139.8163  158.9323 C   0  0  0  0  0  0  0  0  0  0  0  0
  153.1559  138.6299  158.8546 O   0  0  0  0  0  0  0  0  0  0  0  0
  146.2771  137.4938  153.9611 C   0  0  0  0  0  0  0  0  0  0  0  0
  147.1965  137.1786  151.2959 H   0  0  0  0  0  0  0  0  0  0  0  0
  146.6038  138.8218  151.4974 H   0  0  0  0  0  0  0  0  0  0  0  0
  145.7075  137.6837  150.5044 H   0  0  0  0  0  0  0  0  0  0  0  0
  144.6304  138.0359  152.7067 H   0  0  0  0  0  0  0  0  0  0  0  0
  144.1440  135.7743  153.2831 H   0  0  0  0  0  0  0  0  0  0  0  0
  144.4053  135.8005  151.5582 H   0  0  0  0  0  0  0  0  0  0  0  0
  145.5670  133.8723  152.6754 H   0  0  0  0  0  0  0  0  0  0  0  0
  146.6965  134.9119  151.8472 H   0  0  0  0  0  0  0  0  0  0  0  0
  146.1207  134.9102  154.8585 H   0  0  0  0  0  0  0  0  0  0  0  0
  147.5809  134.3501  154.0645 H   0  0  0  0  0  0  0  0  0  0  0  0
  147.8520  136.0674  156.1012 H   0  0  0  0  0  0  0  0  0  0  0  0
  149.2096  136.2536  155.0217 H   0  0  0  0  0  0  0  0  0  0  0  0
  148.0386  138.7790  154.8433 H   0  0  0  0  0  0  0  0  0  0  0  0
  147.7706  138.3558  156.5089 H   0  0  0  0  0  0  0  0  0  0  0  0
  150.4645  137.7166  155.7646 H   0  0  0  0  0  0  0  0  0  0  0  0
  152.2097  138.7554  156.6981 H   0  0  0  0  0  0  0  0  0  0  0  0
  152.1374  140.2439  155.8207 H   0  0  0  0  0  0  0  0  0  0  0  0
  151.3219  142.2126  157.1390 H   0  0  0  0  0  0  0  0  0  0  0  0
  153.1268  142.5138  161.0307 H   0  0  0  0  0  0  0  0  0  0  0  0
  153.7120  140.1913  160.9193 H   0  0  0  0  0  0  0  0  0  0  0  0
  146.7135  138.4912  154.0128 H   0  0  0  0  0  0  0  0  0  0  0  0
  145.6031  137.4074  154.8148 H   0  0  0  0  0  0  0  0  0  0  0  0
  147.9292  136.5580  153.2638 H   0  0  0  0  0  0  0  0  0  0  0  0
  1  2  1  0  0  0  0
  1 25  1  0  0  0  0
  1 26  1  0  0  0  0
  1 27  1  0  0  0  0
  2 24  1  0  0  0  0
  2  3  1  0  0  0  0
  2 28  1  0  0  0  0
  3  4  1  0  0  0  0
  3 29  1  0  0  0  0
  3 30  1  0  0  0  0
  4  5  1  0  0  0  0
  4 31  1  0  0  0  0
  4 32  1  0  0  0  0
  5  6  1  0  0  0  0
  5 33  1  0  0  0  0
  5 34  1  0  0  0  0
  6  7  1  0  0  0  0
  6 24  1  0  0  0  0
  6 47  1  0  0  0  0
  7  8  1  0  0  0  0
  7 35  1  0  0  0  0
  7 36  1  0  0  0  0
  8  9  1  0  0  0  0
  8 37  1  0  0  0  0
  8 38  1  0  0  0  0
  9 10  1  0  0  0  0
  9 39  1  0  0  0  0
 10 11  2  0  0  0  0
 10 12  1  0  0  0  0
 12 13  1  0  0  0  0
 12 40  1  0  0  0  0
 12 41  1  0  0  0  0
 13 22  1  0  0  0  0
 13 14  1  0  0  0  0
 14 15  2  0  0  0  0
 14 42  1  0  0  0  0
 15 16  1  0  0  0  0
 15 20  1  0  0  0  0
 16 17  1  0  0  0  0
 16 18  1  0  0  0  0
 16 19  1  0  0  0  0
 20 21  2  0  0  0  0
 20 43  1  0  0  0  0
 21 22  1  0  0  0  0
 21 44  1  0  0  0  0
 22 23  2  0  0  0  0
 24 45  1  0  0  0  0
 24 46  1  0  0  0  0
M  CHG  1   6   1
M  END
> <s_m_source_file>
AV-unprocessed.smi

> <i_m_source_file_index>
1451

> <i_lp_mmshare_version>
43012

> <i_f3d_flags>
0

> <s_epik_input>
W0NIM11bQ0BASF0xW0NIMl1bQ0gyXVtDSDJdTihbQ0gyXTEpW0NIMl1bQ0gyXVtOSF1DKD1PKVtDSDJdbjJbY0hdYyhDKEYpKEYpRilbY0hdW2NIXWMyPU8=

> <s_epik_cmdline>
J2VwaWtfcHl0aG9uJywgJy1waCcsICc3LjAnLCAnLXRuJywgJzgnLCAnLW1hJywgJzIwMCcsICctbWV0YWxfYmluZGluZycsICctaW1hZScsICc8aW5maWxlLm1hZT4nLCAnLW9tYWUnLCAnPG91dGZpbGUubWFlPic=

> <r_lp_tautomer_probability>
1

> <r_epik_Ionization_Penalty>
0.00192452

> <r_epik_Ionization_Penalty_Charging>
0.00192444

> <r_epik_Ionization_Penalty_Neutral>
8.16761e-08

> <r_epik_State_Penalty>
0.00131115

> <r_epik_Charging_Adjusted_Penalty>
0.00323559

> <i_epik_Tot_Q>
1

> <i_epik_Tot_abs_Q>
1

> <r_epik_Metal_State_Penalty>
-0

> <b_epik_Metal_Only>
0

> <s_lp_Force_Field>
OPLS_2005

> <r_lp_Energy>
37.139

> <b_lp_Chiralities_Consistent>
1

> <s_lp_Variant>
AV-unprocessed.smi:1451-2

> <Gold.Version>
5.8.1

> <Gold.Id.Protein>
6NUR|6NUR_protein|mol2

> <Gold.PLP.Fitness>
44.7902

> <Gold.PLP.PLP>
-40.8871

> <Gold.PLP.part.hbond>
-1.0000

> <Gold.PLP.part.metal>
0.0000

> <Gold.PLP.part.buried>
-2.0864

> <Gold.PLP.part.nonpolar>
-38.2629

> <Gold.PLP.part.repulsive>
0.0394

> <Gold.PLP.ligand.clash>
0.0000

> <Gold.PLP.ligand.torsion>
1.0697

> <Gold.PLP.Chemscore.Hbond>
2.0000

> <Gold.PLP.Chemscore.CHOScore>
0.0000

> <Gold.PLP.Chemscore.Metal>
0.0000

> <Gold.Chemscore.Hbonds>
donor molecule, donor type, donor heavy atom, donor atom, acceptor molecule, acceptor atom, score
      L1  H     6    47       P1  7948  2.00

> <Gold.PLP.Chemscore.Internal.Correction>
0.0424

> <Gold.Rescore>
     Score         DG    S(hbond)    S(metal)    S(lipo)     H(rot)  DE(clash)    DE(int)     intcor
     10.66     -13.63       1.00        0.00      86.57       2.08       0.60       2.37       ----

> <Gold.Chemscore.Fitness>
10.6573

> <Gold.Chemscore.DG>
-13.6302

> <Gold.Chemscore.ZeroCoef>
-5.4800

> <Gold.Chemscore.Hbond>
0.9991

> <Gold.Chemscore.Metal>
0.0000

> <Gold.Chemscore.Lipo>
86.5664

> <Gold.Chemscore.Internal_Hbond>
0.0000

> <Gold.Chemscore.DEClash>
0.6039

> <Gold.Chemscore.DEInternal>
2.3690

> <Gold.Chemscore.Rot>
2.0762

> <Gold.Chemscore.Internal.Correction>
   9.000000E+99

> <Gold.Chemscore.Hbonds>
donor molecule, donor type, donor heavy atom, donor atom, acceptor molecule, acceptor atom, score
      L1  H     6    47       P1  7948  1.00

> <Gold.Chemscore.Hbond.Weighted>
-3.3369

> <Gold.Chemscore.Metal.Weighted>
-0.0000

> <Gold.Chemscore.Lipo.Weighted>
-10.1283

> <Gold.Chemscore.Internal_Hbond.Weighted>
0.0000

> <Gold.Chemscore.DEClash.Weighted>
0.6039

> <Gold.Chemscore.DEInternal.Weighted>
2.3690

> <Gold.Chemscore.Rot.Weighted>
5.3150

> <Gold.Chemscore.Internal.Correction.Weighted>
   9.000000E+99

> <Gold.Protein.RotatedTorsions>
[ 6907 6896 6895 6894 ] final  -21.96 input  -60.11 | X-H torsion
[ 7974 7965 7964 7962 ] final  -17.99 input  175.53 | X-H torsion
[ 8008 7997 7996 7995 ] final    8.61 input   59.86 | X-H torsion
[ 10167 10162 10161 10158 ] final  165.08 input  -65.29 | X-H torsion
[ 10718 10713 10712 10709 ] final   74.00 input   66.30 | X-H torsion
[ 10763 10752 10751 10750 ] final -153.92 input  -60.55 | X-H torsion
[ 11005 11000 10999 10996 ] final  107.49 input  -57.11 | X-H torsion

> <Gold.Protein.ActiveResidues>
 VAL166  LYS551  ARG553  GLY616  TRP617  ASP618  TYR619  PRO620  LYS621  CYS622 
 ASP623  PHE694  ASN695  SER759  ASP760  ASP761  ALA762  ILE779  LEU786  VAL792 
 PHE793  MET794  SER795  GLU796  ALA797  LYS798  CYS799  TRP800  GLU811  SER814 

> <Gold.Protein.RotatedAtoms>
  151.2256  135.0535  159.8966 H   0  0  0  0  0  0  0  0  0  0  0  0  # atno 6907 bound_to 6896
  152.5410  134.0593  159.8155 H   0  0  0  0  0  0  0  0  0  0  0  0  # atno 6908 bound_to 6896
  151.0765  133.5376  159.2655 H   0  0  0  0  0  0  0  0  0  0  0  0  # atno 6909 bound_to 6896
  146.1914  140.3857  142.8456 H   0  0  0  0  0  0  0  0  0  0  0  0  # atno 7974 bound_to 7965
  154.7691  140.2798  155.6152 H   0  0  0  0  0  0  0  0  0  0  0  0  # atno 8008 bound_to 7997
  156.2930  140.2645  156.2416 H   0  0  0  0  0  0  0  0  0  0  0  0  # atno 8009 bound_to 7997
  154.9923  140.0373  157.2314 H   0  0  0  0  0  0  0  0  0  0  0  0  # atno 8010 bound_to 7997
  139.4899  144.4169  151.9233 H   0  0  0  0  0  0  0  0  0  0  0  0  # atno 10167 bound_to 10162
  157.6573  130.9656  150.1149 H   0  0  0  0  0  0  0  0  0  0  0  0  # atno 10718 bound_to 10713
  154.7895  135.3202  154.7811 H   0  0  0  0  0  0  0  0  0  0  0  0  # atno 10763 bound_to 10752
  153.8503  135.6863  153.4797 H   0  0  0  0  0  0  0  0  0  0  0  0  # atno 10764 bound_to 10752
  153.1559  135.4680  154.9643 H   0  0  0  0  0  0  0  0  0  0  0  0  # atno 10765 bound_to 10752
  139.8829  134.9402  156.5828 H   0  0  0  0  0  0  0  0  0  0  0  0  # atno 11005 bound_to 11000
  144.8494  140.6979  143.6178 LP  0  0  0  0  0  0  0  0  0  0  0  0  # atno 17320 bound_to 7965
  145.3780  139.1643  143.4296 LP  0  0  0  0  0  0  0  0  0  0  0  0  # atno 17321 bound_to 7965
  140.3612  144.2971  150.5933 LP  0  0  0  0  0  0  0  0  0  0  0  0  # atno 17342 bound_to 10162
  140.5401  143.2225  151.8098 LP  0  0  0  0  0  0  0  0  0  0  0  0  # atno 17343 bound_to 10162
  156.2036  130.3662  149.8757 LP  0  0  0  0  0  0  0  0  0  0  0  0  # atno 17370 bound_to 10713
  156.6655  130.8799  151.3554 LP  0  0  0  0  0  0  0  0  0  0  0  0  # atno 17371 bound_to 10713
  140.8014  133.8502  155.8730 LP  0  0  0  0  0  0  0  0  0  0  0  0  # atno 17394 bound_to 11000
  140.9589  134.1682  157.4670 LP  0  0  0  0  0  0  0  0  0  0  0  0  # atno 17395 bound_to 11000

$$$$
