AV-unprocessed.smi:3195|AV-procd|sdf|12213|dock1
  -GOLD-   2272018 53D 1   1.00000     0.00000
 Structure written by MMmdl.
 30 31  0  0  0  0  0  0  0  0  1 V2000
  152.6092  139.0216  154.8231 C   0  0  0  0  0  0  0  0  0  0  0  0
  151.4306  139.4791  155.6993 C   0  0  1  0  0  0  0  0  0  0  0  0
  151.9426  140.2882  156.9106 C   0  0  0  0  0  0  0  0  0  0  0  0
  152.8031  139.7934  157.6400 O   0  0  0  0  0  0  0  0  0  0  0  0
  151.3996  141.5063  157.1009 N   0  0  0  0  0  0  0  0  0  0  0  0
  151.6847  142.4591  158.1173 C   0  0  0  0  0  0  0  0  0  0  0  0
  151.9672  142.1131  159.3984 N   0  0  0  0  0  0  0  0  0  0  0  0
  152.2260  143.0791  160.3039 C   0  0  0  0  0  0  0  0  0  0  0  0
  152.2205  144.4497  159.9895 C   0  0  0  0  0  0  0  0  0  0  0  0
  151.9305  144.8238  158.6658 C   0  0  0  0  0  0  0  0  0  0  0  0
  151.6589  143.8192  157.7154 C   0  0  0  0  0  0  0  0  0  0  0  0
  151.3762  144.1766  156.4258 O   0  0  0  0  0  0  0  0  0  0  0  0
  150.3772  140.2693  154.8873 C   0  0  0  0  0  0  0  0  0  0  0  0
  149.1518  139.3732  154.8812 C   0  0  0  0  0  0  0  0  0  0  0  0
  149.3425  138.5444  156.1406 C   0  0  0  0  0  0  0  0  0  0  0  0
  150.7419  138.3058  156.1464 O   0  0  0  0  0  0  0  0  0  0  0  0
  153.1554  139.8707  154.4103 H   0  0  0  0  0  0  0  0  0  0  0  0
  152.2610  138.4162  153.9857 H   0  0  0  0  0  0  0  0  0  0  0  0
  153.3158  138.4164  155.3926 H   0  0  0  0  0  0  0  0  0  0  0  0
  150.6976  141.7877  156.4315 H   0  0  0  0  0  0  0  0  0  0  0  0
  152.4438  142.7488  161.3087 H   0  0  0  0  0  0  0  0  0  0  0  0
  152.4333  145.1925  160.7439 H   0  0  0  0  0  0  0  0  0  0  0  0
  151.9167  145.8667  158.3853 H   0  0  0  0  0  0  0  0  0  0  0  0
  150.4542  144.1332  156.2222 H   0  0  0  0  0  0  0  0  0  0  0  0
  150.1258  141.2192  155.3626 H   0  0  0  0  0  0  0  0  0  0  0  0
  150.7075  140.4993  153.8737 H   0  0  0  0  0  0  0  0  0  0  0  0
  148.2141  139.9293  154.8742 H   0  0  0  0  0  0  0  0  0  0  0  0
  149.1708  138.7236  154.0051 H   0  0  0  0  0  0  0  0  0  0  0  0
  149.0574  139.1104  157.0289 H   0  0  0  0  0  0  0  0  0  0  0  0
  148.7749  137.6140  156.1253 H   0  0  0  0  0  0  0  0  0  0  0  0
  1  2  1  0  0  0  0
  1 17  1  0  0  0  0
  1 18  1  0  0  0  0
  1 19  1  0  0  0  0
  2 16  1  0  0  0  0
  2  3  1  0  0  0  0
  2 13  1  0  0  0  0
  3  4  2  0  0  0  0
  3  5  1  0  0  0  0
  5  6  1  0  0  0  0
  5 20  1  0  0  0  0
  6 11  1  0  0  0  0
  6  7  2  0  0  0  0
  7  8  1  0  0  0  0
  8  9  2  0  0  0  0
  8 21  1  0  0  0  0
  9 10  1  0  0  0  0
  9 22  1  0  0  0  0
 10 11  2  0  0  0  0
 10 23  1  0  0  0  0
 11 12  1  0  0  0  0
 12 24  1  0  0  0  0
 13 14  1  0  0  0  0
 13 25  1  0  0  0  0
 13 26  1  0  0  0  0
 14 15  1  0  0  0  0
 14 27  1  0  0  0  0
 14 28  1  0  0  0  0
 15 16  1  0  0  0  0
 15 29  1  0  0  0  0
 15 30  1  0  0  0  0
M  END
> <s_m_source_file>
AV-unprocessed.smi

> <i_m_source_file_index>
3195

> <i_lp_mmshare_version>
43012

> <i_f3d_flags>
0

> <s_epik_input>
TzFbQ0gyXVtDSDJdW0NIMl1bQ0BAXTEoW0NIM10pQyg9TylbTkhdYzJuW2NIXVtjSF1bY0hdYzJbT0hd

> <s_epik_cmdline>
J2VwaWtfcHl0aG9uJywgJy1waCcsICc3LjAnLCAnLXRuJywgJzgnLCAnLW1hJywgJzIwMCcsICctbWV0YWxfYmluZGluZycsICctaW1hZScsICc8aW5maWxlLm1hZT4nLCAnLW9tYWUnLCAnPG91dGZpbGUubWFlPic=

> <r_lp_tautomer_probability>
0.43658

> <r_epik_Ionization_Penalty>
0.0203228

> <r_epik_Ionization_Penalty_Charging>
0

> <r_epik_Ionization_Penalty_Neutral>
0.0203228

> <r_epik_State_Penalty>
0.430346

> <r_epik_Charging_Adjusted_Penalty>
0.430346

> <i_epik_Tot_Q>
0

> <i_epik_Tot_abs_Q>
0

> <r_epik_Metal_State_Penalty>
0.387439

> <b_epik_Metal_Only>
0

> <s_lp_Force_Field>
OPLS_2005

> <r_lp_Energy>
21.434

> <b_lp_Chiralities_Consistent>
1

> <s_lp_Variant>
AV-unprocessed.smi:3195-1

> <Gold.Version>
5.8.1

> <Gold.Id.Protein>
6NUR|6NUR_protein|mol2

> <Gold.PLP.Fitness>
37.3194

> <Gold.PLP.PLP>
-32.5540

> <Gold.PLP.part.hbond>
-2.0000

> <Gold.PLP.part.metal>
0.0000

> <Gold.PLP.part.buried>
-2.7083

> <Gold.PLP.part.nonpolar>
-27.9407

> <Gold.PLP.part.repulsive>
0.0821

> <Gold.PLP.ligand.clash>
0.5736

> <Gold.PLP.ligand.torsion>
0.3464

> <Gold.PLP.Chemscore.Hbond>
2.0000

> <Gold.PLP.Chemscore.CHOScore>
0.0000

> <Gold.PLP.Chemscore.Metal>
0.0000

> <Gold.Chemscore.Hbonds>
donor molecule, donor type, donor heavy atom, donor atom, acceptor molecule, acceptor atom, score
      L1  H    12    24       P1  8028  1.00
      P1  H  7997  8009       L1     4  1.00

> <Gold.PLP.Chemscore.Internal.Correction>
0.0318

> <Gold.Rescore>
     Score         DG    S(hbond)    S(metal)    S(lipo)     H(rot)  DE(clash)    DE(int)     intcor
     16.99     -17.58       1.98        0.00      78.89       1.46       0.08       0.51       ----

> <Gold.Chemscore.Fitness>
16.9948

> <Gold.Chemscore.DG>
-17.5841

> <Gold.Chemscore.ZeroCoef>
-5.4800

> <Gold.Chemscore.Hbond>
1.9815

> <Gold.Chemscore.Metal>
0.0000

> <Gold.Chemscore.Lipo>
78.8891

> <Gold.Chemscore.Internal_Hbond>
0.0000

> <Gold.Chemscore.DEClash>
0.0809

> <Gold.Chemscore.DEInternal>
0.5085

> <Gold.Chemscore.Rot>
1.4625

> <Gold.Chemscore.Internal.Correction>
   9.000000E+99

> <Gold.Chemscore.Hbonds>
donor molecule, donor type, donor heavy atom, donor atom, acceptor molecule, acceptor atom, score
      L1  H    12    24       P1  8028  0.98
      P1  H  7997  8009       L1     4  0.50

> <Gold.Chemscore.Hbond.Weighted>
-6.6181

> <Gold.Chemscore.Metal.Weighted>
-0.0000

> <Gold.Chemscore.Lipo.Weighted>
-9.2300

> <Gold.Chemscore.Internal_Hbond.Weighted>
0.0000

> <Gold.Chemscore.DEClash.Weighted>
0.0809

> <Gold.Chemscore.DEInternal.Weighted>
0.5085

> <Gold.Chemscore.Rot.Weighted>
3.7440

> <Gold.Chemscore.Internal.Correction.Weighted>
   9.000000E+99

> <Gold.Protein.RotatedTorsions>
[ 6907 6896 6895 6894 ] final   79.43 input  -60.11 | X-H torsion
[ 7974 7965 7964 7962 ] final   68.24 input  175.53 | X-H torsion
[ 8008 7997 7996 7995 ] final  173.60 input   59.86 | X-H torsion
[ 10167 10162 10161 10158 ] final    3.20 input  -65.29 | X-H torsion
[ 10718 10713 10712 10709 ] final   38.29 input   66.30 | X-H torsion
[ 10763 10752 10751 10750 ] final  -19.59 input  -60.55 | X-H torsion
[ 11005 11000 10999 10996 ] final   55.26 input  -57.11 | X-H torsion

> <Gold.Protein.ActiveResidues>
 VAL166  LYS551  ARG553  GLY616  TRP617  ASP618  TYR619  PRO620  LYS621  CYS622 
 ASP623  PHE694  ASN695  SER759  ASP760  ASP761  ALA762  ILE779  LEU786  VAL792 
 PHE793  MET794  SER795  GLU796  ALA797  LYS798  CYS799  TRP800  GLU811  SER814 

> <Gold.Protein.RotatedAtoms>
  152.5198  134.3511  159.9251 H   0  0  0  0  0  0  0  0  0  0  0  0  # atno 6907 bound_to 6896
  151.3462  133.3936  159.2683 H   0  0  0  0  0  0  0  0  0  0  0  0  # atno 6908 bound_to 6896
  150.9763  134.9145  159.7876 H   0  0  0  0  0  0  0  0  0  0  0  0  # atno 6909 bound_to 6896
  145.8050  139.3002  143.1132 H   0  0  0  0  0  0  0  0  0  0  0  0  # atno 7974 bound_to 7965
  156.1059  140.1456  156.9405 H   0  0  0  0  0  0  0  0  0  0  0  0  # atno 8008 bound_to 7997
  154.4733  140.0902  156.7244 H   0  0  0  0  0  0  0  0  0  0  0  0  # atno 8009 bound_to 7997
  155.4681  140.3440  155.4324 H   0  0  0  0  0  0  0  0  0  0  0  0  # atno 8010 bound_to 7997
  140.6598  143.7334  150.7717 H   0  0  0  0  0  0  0  0  0  0  0  0  # atno 10167 bound_to 10162
  157.3571  130.7629  149.7020 H   0  0  0  0  0  0  0  0  0  0  0  0  # atno 10718 bound_to 10713
  153.6072  135.6997  153.5361 H   0  0  0  0  0  0  0  0  0  0  0  0  # atno 10763 bound_to 10752
  153.3047  135.4118  155.1283 H   0  0  0  0  0  0  0  0  0  0  0  0  # atno 10764 bound_to 10752
  154.8571  135.3657  154.5609 H   0  0  0  0  0  0  0  0  0  0  0  0  # atno 10765 bound_to 10752
  140.0621  134.5588  155.9140 H   0  0  0  0  0  0  0  0  0  0  0  0  # atno 11005 bound_to 11000
  145.9838  140.8661  143.0101 LP  0  0  0  0  0  0  0  0  0  0  0  0  # atno 17320 bound_to 7965
  144.6764  140.2117  143.7376 LP  0  0  0  0  0  0  0  0  0  0  0  0  # atno 17321 bound_to 7965
  140.1001  143.4796  152.2430 LP  0  0  0  0  0  0  0  0  0  0  0  0  # atno 17342 bound_to 10162
  139.5828  144.7518  151.3595 LP  0  0  0  0  0  0  0  0  0  0  0  0  # atno 17343 bound_to 10162
  155.9731  130.4124  150.4031 LP  0  0  0  0  0  0  0  0  0  0  0  0  # atno 17370 bound_to 10713
  157.2103  131.0459  151.2603 LP  0  0  0  0  0  0  0  0  0  0  0  0  # atno 17371 bound_to 10713
  141.1977  133.6598  156.5757 LP  0  0  0  0  0  0  0  0  0  0  0  0  # atno 17394 bound_to 11000
  140.3754  134.7569  157.4626 LP  0  0  0  0  0  0  0  0  0  0  0  0  # atno 17395 bound_to 11000

$$$$
