AV-unprocessed.smi:21|AV-procd|sdf|160|dock7
  -GOLD-   2262015393D 1   1.00000     0.00000
 Structure written by MMmdl.
 61 64  0  0  0  0  0  0  0  0  1 V2000
  157.4992  135.4803  153.6155 C   0  0  0  0  0  0  0  0  0  0  0  0
  156.5924  134.5114  153.1131 O   0  0  0  0  0  0  0  0  0  0  0  0
  156.6410  133.2784  153.8171 C   0  0  2  0  0  0  0  0  0  0  0  0
  155.4240  132.3910  153.5068 C   0  0  0  0  0  0  0  0  0  0  0  0
  154.9101  131.9621  154.8880 C   0  0  2  0  0  0  0  0  0  0  0  0
  153.4246  131.5333  154.8969 C   0  0  0  0  0  0  0  0  0  0  0  0
  152.7046  131.9468  156.1022 N   0  0  0  0  0  0  0  0  0  0  0  0
  152.7001  131.0309  157.2389 C   0  0  0  0  0  0  0  0  0  0  0  0
  151.6477  132.7893  155.9536 C   0  0  0  0  0  0  0  0  0  0  0  0
  151.4680  133.7918  156.8555 N   0  0  0  0  0  0  0  0  0  0  0  0
  150.4125  134.6055  156.7650 C   0  0  0  0  0  0  0  0  0  0  0  0
  149.4285  134.5969  155.8653 N   0  0  0  0  0  0  0  0  0  0  0  0
  149.6111  133.6090  154.9440 C   0  0  0  0  0  0  0  0  0  0  0  0
  150.6876  132.6772  154.9058 C   0  0  0  0  0  0  0  0  0  0  0  0
  150.5467  131.8462  153.7998 N   0  0  0  0  0  0  0  0  0  0  0  0
  149.4431  132.2475  153.2319 C   0  0  0  0  0  0  0  0  0  0  0  0
  148.7999  133.2823  153.8714 N   0  0  0  0  0  0  0  0  0  0  0  0
  147.5557  133.9126  153.4683 C   0  0  0  0  0  0  0  0  0  0  0  0
  146.2880  133.0356  153.6722 C   0  0  1  0  0  0  0  0  0  0  0  0
  145.6444  133.3845  155.0365 C   0  0  0  0  0  0  0  0  0  0  0  0
  145.2579  132.2202  155.7375 O   0  0  0  0  0  0  0  0  0  0  0  0
  145.2581  133.1628  152.5086 C   0  0  2  0  0  0  0  0  0  0  0  0
  145.8158  132.8753  151.1219 C   0  0  0  0  0  0  0  0  0  0  0  0
  144.7736  133.5075  150.2115 C   0  0  0  0  0  0  0  0  0  0  0  0
  144.3783  134.6876  150.8902 O   0  0  0  0  0  0  0  0  0  0  0  0
  144.6720  134.5671  152.2782 C   0  0  0  0  0  0  0  0  0  0  0  0
  155.2074  133.1049  155.7363 N   0  0  0  0  0  0  0  0  0  0  0  0
  155.1368  132.8209  157.1636 C   0  0  0  0  0  0  0  0  0  0  0  0
  156.5357  133.5264  155.3274 C   0  0  0  0  0  0  0  0  0  0  0  0
  157.5766  132.7559  153.6089 H   0  0  0  0  0  0  0  0  0  0  0  0
  155.5197  131.1210  155.2230 H   0  0  0  0  0  0  0  0  0  0  0  0
  157.4077  136.3998  153.0377 H   0  0  0  0  0  0  0  0  0  0  0  0
  158.5327  135.1403  153.5422 H   0  0  0  0  0  0  0  0  0  0  0  0
  157.2840  135.7185  154.6579 H   0  0  0  0  0  0  0  0  0  0  0  0
  154.6579  132.9700  152.9879 H   0  0  0  0  0  0  0  0  0  0  0  0
  155.6875  131.5428  152.8754 H   0  0  0  0  0  0  0  0  0  0  0  0
  152.9073  131.9861  154.0516 H   0  0  0  0  0  0  0  0  0  0  0  0
  153.3554  130.4604  154.7320 H   0  0  0  0  0  0  0  0  0  0  0  0
  152.4854  131.5644  158.1655 H   0  0  0  0  0  0  0  0  0  0  0  0
  153.6739  130.5530  157.3481 H   0  0  0  0  0  0  0  0  0  0  0  0
  151.9520  130.2486  157.1065 H   0  0  0  0  0  0  0  0  0  0  0  0
  150.3431  135.3677  157.5268 H   0  0  0  0  0  0  0  0  0  0  0  0
  149.0565  131.7832  152.3364 H   0  0  0  0  0  0  0  0  0  0  0  0
  147.4773  134.8392  154.0372 H   0  0  0  0  0  0  0  0  0  0  0  0
  147.6383  134.2067  152.4212 H   0  0  0  0  0  0  0  0  0  0  0  0
  146.5936  131.9900  153.7254 H   0  0  0  0  0  0  0  0  0  0  0  0
  146.3312  133.9664  155.6520 H   0  0  0  0  0  0  0  0  0  0  0  0
  144.7415  133.9805  154.9126 H   0  0  0  0  0  0  0  0  0  0  0  0
  144.3755  131.9948  155.4843 H   0  0  0  0  0  0  0  0  0  0  0  0
  144.4348  132.4688  152.6856 H   0  0  0  0  0  0  0  0  0  0  0  0
  146.7787  133.3695  150.9857 H   0  0  0  0  0  0  0  0  0  0  0  0
  145.9420  131.8117  150.9181 H   0  0  0  0  0  0  0  0  0  0  0  0
  145.1586  133.7276  149.2156 H   0  0  0  0  0  0  0  0  0  0  0  0
  143.9080  132.8520  150.1083 H   0  0  0  0  0  0  0  0  0  0  0  0
  143.7659  134.7366  152.8578 H   0  0  0  0  0  0  0  0  0  0  0  0
  145.3913  135.3442  152.5377 H   0  0  0  0  0  0  0  0  0  0  0  0
  155.4304  133.6970  157.7428 H   0  0  0  0  0  0  0  0  0  0  0  0
  155.7977  131.9972  157.4368 H   0  0  0  0  0  0  0  0  0  0  0  0
  154.1224  132.5571  157.4618 H   0  0  0  0  0  0  0  0  0  0  0  0
  157.2890  132.9204  155.8335 H   0  0  0  0  0  0  0  0  0  0  0  0
  156.7221  134.5667  155.5958 H   0  0  0  0  0  0  0  0  0  0  0  0
  1  2  1  0  0  0  0
  1 32  1  0  0  0  0
  1 33  1  0  0  0  0
  1 34  1  0  0  0  0
  2  3  1  0  0  0  0
  3 30  1  0  0  0  0
  3 29  1  0  0  0  0
  3  4  1  0  0  0  0
  4  5  1  0  0  0  0
  4 35  1  0  0  0  0
  4 36  1  0  0  0  0
  5 31  1  0  0  0  0
  5  6  1  0  0  0  0
  5 27  1  0  0  0  0
  6  7  1  0  0  0  0
  6 37  1  0  0  0  0
  6 38  1  0  0  0  0
  7  8  1  0  0  0  0
  7  9  1  0  0  0  0
  8 39  1  0  0  0  0
  8 40  1  0  0  0  0
  8 41  1  0  0  0  0
  9 14  1  0  0  0  0
  9 10  2  0  0  0  0
 10 11  1  0  0  0  0
 11 12  2  0  0  0  0
 11 42  1  0  0  0  0
 12 13  1  0  0  0  0
 13 17  1  0  0  0  0
 13 14  2  0  0  0  0
 14 15  1  0  0  0  0
 15 16  2  0  0  0  0
 16 17  1  0  0  0  0
 16 43  1  0  0  0  0
 17 18  1  0  0  0  0
 18 19  1  0  0  0  0
 18 44  1  0  0  0  0
 18 45  1  0  0  0  0
 19 20  1  0  0  0  0
 19 22  1  0  0  0  0
 19 46  1  0  0  0  0
 20 21  1  0  0  0  0
 20 47  1  0  0  0  0
 20 48  1  0  0  0  0
 21 49  1  0  0  0  0
 22 26  1  0  0  0  0
 22 23  1  0  0  0  0
 22 50  1  0  0  0  0
 23 24  1  0  0  0  0
 23 51  1  0  0  0  0
 23 52  1  0  0  0  0
 24 25  1  0  0  0  0
 24 53  1  0  0  0  0
 24 54  1  0  0  0  0
 25 26  1  0  0  0  0
 26 55  1  0  0  0  0
 26 56  1  0  0  0  0
 27 28  1  0  0  0  0
 27 29  1  0  0  0  0
 28 57  1  0  0  0  0
 28 58  1  0  0  0  0
 28 59  1  0  0  0  0
 29 60  1  0  0  0  0
 29 61  1  0  0  0  0
M  END
> <s_m_source_file>
AV-unprocessed.smi

> <i_m_source_file_index>
21

> <i_lp_mmshare_version>
43012

> <i_f3d_flags>
0

> <s_epik_input>
W0NIM11PW0NASF0xW0NIMl1bQ0BIXShOKFtDSDNdKVtDSDJdMSlbQ0gyXU4oW0NIM10pYyhuW2NIXW4yKWMoYzIzKW5bY0hdbjNbQ0gyXVtDQEhdKFtDSDJdW09IXSlbQ0BASF00W0NIMl1bQ0gyXU9bQ0gyXTQ=

> <s_epik_cmdline>
J2VwaWtfcHl0aG9uJywgJy1waCcsICc3LjAnLCAnLXRuJywgJzgnLCAnLW1hJywgJzIwMCcsICctbWV0YWxfYmluZGluZycsICctaW1hZScsICc8aW5maWxlLm1hZT4nLCAnLW9tYWUnLCAnPG91dGZpbGUubWFlPic=

> <r_lp_tautomer_probability>
1

> <r_epik_Ionization_Penalty>
2.17574

> <r_epik_Ionization_Penalty_Charging>
0

> <r_epik_Ionization_Penalty_Neutral>
2.17574

> <r_epik_State_Penalty>
2.31336

> <r_epik_Charging_Adjusted_Penalty>
2.31336

> <i_epik_Tot_Q>
0

> <i_epik_Tot_abs_Q>
0

> <r_epik_Metal_State_Penalty>
2.31025

> <b_epik_Metal_Only>
0

> <s_lp_Force_Field>
OPLS_2005

> <r_lp_Energy>
69.8382

> <b_lp_Chiralities_Consistent>
1

> <s_lp_Variant>
AV-unprocessed.smi:21-40

> <Gold.Version>
5.8.1

> <Gold.Id.Protein>
6NUR|6NUR_protein|mol2

> <Gold.PLP.Fitness>
45.2094

> <Gold.PLP.PLP>
-41.6847

> <Gold.PLP.part.hbond>
-2.0000

> <Gold.PLP.part.metal>
0.0000

> <Gold.PLP.part.buried>
-5.6094

> <Gold.PLP.part.nonpolar>
-32.6809

> <Gold.PLP.part.repulsive>
0.8675

> <Gold.PLP.ligand.clash>
0.0000

> <Gold.PLP.ligand.torsion>
2.9383

> <Gold.PLP.Chemscore.Hbond>
1.9920

> <Gold.PLP.Chemscore.CHOScore>
0.8820

> <Gold.PLP.Chemscore.Metal>
0.0000

> <Gold.Chemscore.Hbonds>
donor molecule, donor type, donor heavy atom, donor atom, acceptor molecule, acceptor atom, score
      L1  H    21    49       P1 10957  1.00
      P1  H  6896  6907       L1    10  0.05
      P1  H 10752 10765       L1     2  0.02
      L1  C    16    43       P1 10747  1.00

> <Gold.PLP.Chemscore.Internal.Correction>
0.7794

> <Gold.Rescore>
     Score         DG    S(hbond)    S(metal)    S(lipo)     H(rot)  DE(clash)    DE(int)     intcor
      7.86     -12.95       1.53        0.00      85.80       3.00       0.63       4.45       ----

> <Gold.Chemscore.Fitness>
7.8642

> <Gold.Chemscore.DG>
-12.9488

> <Gold.Chemscore.ZeroCoef>
-5.4800

> <Gold.Chemscore.Hbond>
1.5325

> <Gold.Chemscore.Metal>
0.0000

> <Gold.Chemscore.Lipo>
85.7978

> <Gold.Chemscore.Internal_Hbond>
0.0000

> <Gold.Chemscore.DEClash>
0.6325

> <Gold.Chemscore.DEInternal>
4.4521

> <Gold.Chemscore.Rot>
3.0031

> <Gold.Chemscore.Internal.Correction>
   9.000000E+99

> <Gold.Chemscore.Hbonds>
donor molecule, donor type, donor heavy atom, donor atom, acceptor molecule, acceptor atom, score
      L1  H    21    49       P1 10957  0.70

> <Gold.Chemscore.Hbond.Weighted>
-5.1184

> <Gold.Chemscore.Metal.Weighted>
-0.0000

> <Gold.Chemscore.Lipo.Weighted>
-10.0383

> <Gold.Chemscore.Internal_Hbond.Weighted>
0.0000

> <Gold.Chemscore.DEClash.Weighted>
0.6325

> <Gold.Chemscore.DEInternal.Weighted>
4.4521

> <Gold.Chemscore.Rot.Weighted>
7.6880

> <Gold.Chemscore.Internal.Correction.Weighted>
   9.000000E+99

> <Gold.Protein.RotatedTorsions>
[ 6907 6896 6895 6894 ] final -147.86 input  -60.11 | X-H torsion
[ 7974 7965 7964 7962 ] final  -38.10 input  175.53 | X-H torsion
[ 8008 7997 7996 7995 ] final   65.47 input   59.86 | X-H torsion
[ 10167 10162 10161 10158 ] final  -15.80 input  -65.29 | X-H torsion
[ 10718 10713 10712 10709 ] final  170.62 input   66.30 | X-H torsion
[ 10763 10752 10751 10750 ] final  -19.84 input  -60.55 | X-H torsion
[ 11005 11000 10999 10996 ] final -142.78 input  -57.11 | X-H torsion

> <Gold.Protein.ActiveResidues>
 VAL166  LYS551  ARG553  GLY616  TRP617  ASP618  TYR619  PRO620  LYS621  CYS622 
 ASP623  PHE694  ASN695  SER759  ASP760  ASP761  ALA762  ILE779  LEU786  VAL792 
 PHE793  MET794  SER795  GLU796  ALA797  LYS798  CYS799  TRP800  GLU811  SER814 

> <Gold.Protein.RotatedAtoms>
  151.1617  133.4841  159.2594 H   0  0  0  0  0  0  0  0  0  0  0  0  # atno 6907 bound_to 6896
  151.1448  135.0197  159.8652 H   0  0  0  0  0  0  0  0  0  0  0  0  # atno 6908 bound_to 6896
  152.5463  134.1507  159.8570 H   0  0  0  0  0  0  0  0  0  0  0  0  # atno 6909 bound_to 6896
  146.0516  140.6473  142.9039 H   0  0  0  0  0  0  0  0  0  0  0  0  # atno 7974 bound_to 7965
  155.6623  140.3497  155.4787 H   0  0  0  0  0  0  0  0  0  0  0  0  # atno 8008 bound_to 7997
  155.9758  140.1165  157.0794 H   0  0  0  0  0  0  0  0  0  0  0  0  # atno 8009 bound_to 7997
  154.4178  140.1148  156.5355 H   0  0  0  0  0  0  0  0  0  0  0  0  # atno 8010 bound_to 7997
  140.7224  143.5181  150.9667 H   0  0  0  0  0  0  0  0  0  0  0  0  # atno 10167 bound_to 10162
  157.0054  131.0188  151.2818 H   0  0  0  0  0  0  0  0  0  0  0  0  # atno 10718 bound_to 10713
  153.6110  135.6996  153.5347 H   0  0  0  0  0  0  0  0  0  0  0  0  # atno 10763 bound_to 10752
  153.3017  135.4127  155.1257 H   0  0  0  0  0  0  0  0  0  0  0  0  # atno 10764 bound_to 10752
  154.8563  135.3650  154.5649 H   0  0  0  0  0  0  0  0  0  0  0  0  # atno 10765 bound_to 10752
  140.8191  134.2653  157.4908 H   0  0  0  0  0  0  0  0  0  0  0  0  # atno 11005 bound_to 11000
  144.7126  140.4094  143.7069 LP  0  0  0  0  0  0  0  0  0  0  0  0  # atno 17320 bound_to 7965
  145.6714  139.1600  143.2752 LP  0  0  0  0  0  0  0  0  0  0  0  0  # atno 17321 bound_to 7965
  139.8898  143.6968  152.3147 LP  0  0  0  0  0  0  0  0  0  0  0  0  # atno 17342 bound_to 10162
  139.7279  144.7589  151.0848 LP  0  0  0  0  0  0  0  0  0  0  0  0  # atno 17343 bound_to 10162
  157.5359  130.8088  149.7971 LP  0  0  0  0  0  0  0  0  0  0  0  0  # atno 17370 bound_to 10713
  156.0155  130.3815  150.2124 LP  0  0  0  0  0  0  0  0  0  0  0  0  # atno 17371 bound_to 10713
  139.8709  134.9525  156.4118 LP  0  0  0  0  0  0  0  0  0  0  0  0  # atno 17394 bound_to 11000
  140.9118  133.7706  155.9800 LP  0  0  0  0  0  0  0  0  0  0  0  0  # atno 17395 bound_to 11000

$$$$
