AV-unprocessed.smi:121|AV-procd|sdf|1139|dock4
  -GOLD-   2262018273D 1   1.00000     0.00000
 Structure written by MMmdl.
 37 39  0  0  0  0  0  0  0  0  1 V2000
  157.8813  138.9759  165.6771 N   0  0  0  0  0  0  0  0  0  0  0  0
  157.1607  138.5454  164.8808 C   0  0  0  0  0  0  0  0  0  0  0  0
  156.2557  138.0040  163.8808 C   0  0  0  0  0  0  0  0  0  0  0  0
  155.4460  136.8922  164.1881 C   0  0  0  0  0  0  0  0  0  0  0  0
  154.5752  136.3673  163.2147 C   0  0  0  0  0  0  0  0  0  0  0  0
  154.5114  136.9528  161.9357 C   0  0  0  0  0  0  0  0  0  0  0  0
  155.3123  138.0700  161.6197 C   0  0  0  0  0  0  0  0  0  0  0  0
  155.2170  138.6706  160.2198 C   0  0  0  0  0  0  0  0  0  0  0  0
  154.0588  139.5123  159.9605 N   0  0  0  0  0  0  0  0  0  0  0  0
  152.8578  138.8648  159.5813 C   0  0  0  0  0  0  0  0  0  0  0  0
  152.7856  137.6408  159.4581 O   0  0  0  0  0  0  0  0  0  0  0  0
  151.7285  139.7623  159.3654 C   0  0  0  0  0  0  0  0  0  0  0  0
  150.5440  139.2577  158.9811 F   0  0  0  0  0  0  0  0  0  0  0  0
  151.8507  141.0951  159.5474 C   0  0  0  0  0  0  0  0  0  0  0  0
  153.0325  141.6984  159.9475 N   0  0  0  0  0  0  0  0  0  0  0  0
  153.1401  143.1934  160.1657 C   0  0  2  0  0  0  0  0  0  0  0  0
  152.1534  143.6546  161.2564 C   0  0  0  0  0  0  0  0  0  0  0  0
  151.4063  144.7861  160.5787 C   0  0  0  0  0  0  0  0  0  0  0  0
  151.4724  144.3769  159.1151 C   0  0  0  0  0  0  0  0  0  0  0  0
  152.7957  143.8724  158.9915 O   0  0  0  0  0  0  0  0  0  0  0  0
  154.1844  140.9086  160.1555 C   0  0  0  0  0  0  0  0  0  0  0  0
  155.2454  141.4263  160.5127 O   0  0  0  0  0  0  0  0  0  0  0  0
  156.1889  138.5902  162.6005 C   0  0  0  0  0  0  0  0  0  0  0  0
  155.4896  136.4366  165.1671 H   0  0  0  0  0  0  0  0  0  0  0  0
  153.9556  135.5141  163.4487 H   0  0  0  0  0  0  0  0  0  0  0  0
  153.8409  136.5417  161.1952 H   0  0  0  0  0  0  0  0  0  0  0  0
  156.1173  139.2459  160.0020 H   0  0  0  0  0  0  0  0  0  0  0  0
  155.2106  137.8825  159.4643 H   0  0  0  0  0  0  0  0  0  0  0  0
  150.9743  141.6983  159.3680 H   0  0  0  0  0  0  0  0  0  0  0  0
  154.1894  143.3815  160.4017 H   0  0  0  0  0  0  0  0  0  0  0  0
  151.4667  142.8461  161.5132 H   0  0  0  0  0  0  0  0  0  0  0  0
  152.6832  143.9683  162.1562 H   0  0  0  0  0  0  0  0  0  0  0  0
  150.3857  144.9038  160.9437 H   0  0  0  0  0  0  0  0  0  0  0  0
  151.9358  145.7279  160.7277 H   0  0  0  0  0  0  0  0  0  0  0  0
  150.7463  143.5918  158.8988 H   0  0  0  0  0  0  0  0  0  0  0  0
  151.2939  145.2092  158.4342 H   0  0  0  0  0  0  0  0  0  0  0  0
  156.8173  139.4400  162.3783 H   0  0  0  0  0  0  0  0  0  0  0  0
  1  2  3  0  0  0  0
  2  3  1  0  0  0  0
  3 23  1  0  0  0  0
  3  4  2  0  0  0  0
  4  5  1  0  0  0  0
  4 24  1  0  0  0  0
  5  6  2  0  0  0  0
  5 25  1  0  0  0  0
  6  7  1  0  0  0  0
  6 26  1  0  0  0  0
  7  8  1  0  0  0  0
  7 23  2  0  0  0  0
  8  9  1  0  0  0  0
  8 27  1  0  0  0  0
  8 28  1  0  0  0  0
  9 21  1  0  0  0  0
  9 10  1  0  0  0  0
 10 11  2  0  0  0  0
 10 12  1  0  0  0  0
 12 13  1  0  0  0  0
 12 14  2  0  0  0  0
 14 15  1  0  0  0  0
 14 29  1  0  0  0  0
 15 16  1  0  0  0  0
 15 21  1  0  0  0  0
 16 20  1  0  0  0  0
 16 17  1  0  0  0  0
 16 30  1  0  0  0  0
 17 18  1  0  0  0  0
 17 31  1  0  0  0  0
 17 32  1  0  0  0  0
 18 19  1  0  0  0  0
 18 33  1  0  0  0  0
 18 34  1  0  0  0  0
 19 20  1  0  0  0  0
 19 35  1  0  0  0  0
 19 36  1  0  0  0  0
 21 22  2  0  0  0  0
 23 37  1  0  0  0  0
M  END
> <s_m_source_file>
AV-unprocessed.smi

> <i_m_source_file_index>
121

> <i_lp_mmshare_version>
43012

> <i_f3d_flags>
0

> <s_epik_input>
TiNDYzFbY0hdW2NIXVtjSF1jKFtjSF0xKVtDSDJdbjJjKD1PKWMoRilbY0hdbihjMj1PKVtDQEBIXTNbQ0gyXVtDSDJdW0NIMl1PMw==

> <s_epik_cmdline>
J2VwaWtfcHl0aG9uJywgJy1waCcsICc3LjAnLCAnLXRuJywgJzgnLCAnLW1hJywgJzIwMCcsICctbWV0YWxfYmluZGluZycsICctaW1hZScsICc8aW5maWxlLm1hZT4nLCAnLW9tYWUnLCAnPG91dGZpbGUubWFlPic=

> <r_lp_tautomer_probability>
1

> <r_epik_Ionization_Penalty>
1.69864e-08

> <r_epik_Ionization_Penalty_Charging>
1.69802e-08

> <r_epik_Ionization_Penalty_Neutral>
6.20402e-12

> <r_epik_State_Penalty>
-0

> <r_epik_Charging_Adjusted_Penalty>
1.69802e-08

> <i_epik_Tot_Q>
0

> <i_epik_Tot_abs_Q>
0

> <r_epik_Metal_State_Penalty>
-0

> <b_epik_Metal_Only>
0

> <s_epik_Chemistry_Notes>
This compound contains an acetal/aminal-like group ( X-CH(R)-Y where X, Y are N, S, or O) that may be acid/base labile, releasing an aldehyde.

> <s_lp_Force_Field>
OPLS_2005

> <r_lp_Energy>
32.9852

> <b_lp_Chiralities_Consistent>
1

> <s_lp_Variant>
AV-unprocessed.smi:121-1

> <Gold.Version>
5.8.1

> <Gold.Id.Protein>
6NUR|6NUR_protein|mol2

> <Gold.PLP.Fitness>
49.5025

> <Gold.PLP.PLP>
-50.6709

> <Gold.PLP.part.hbond>
-1.4605

> <Gold.PLP.part.metal>
0.0000

> <Gold.PLP.part.buried>
-4.6737

> <Gold.PLP.part.nonpolar>
-44.6735

> <Gold.PLP.part.repulsive>
0.0718

> <Gold.PLP.ligand.clash>
0.0000

> <Gold.PLP.ligand.torsion>
0.5892

> <Gold.PLP.Chemscore.Hbond>
0.0000

> <Gold.PLP.Chemscore.CHOScore>
0.0000

> <Gold.PLP.Chemscore.Metal>
0.0000

> <Gold.PLP.Chemscore.Internal.Correction>
0.0099

> <Gold.Rescore>
     Score         DG    S(hbond)    S(metal)    S(lipo)     H(rot)  DE(clash)    DE(int)     intcor
     14.28     -15.08       1.00        0.00      88.31       1.59       0.07       0.73       ----

> <Gold.Chemscore.Fitness>
14.2820

> <Gold.Chemscore.DG>
-15.0780

> <Gold.Chemscore.ZeroCoef>
-5.4800

> <Gold.Chemscore.Hbond>
0.9974

> <Gold.Chemscore.Metal>
0.0000

> <Gold.Chemscore.Lipo>
88.3127

> <Gold.Chemscore.Internal_Hbond>
0.0000

> <Gold.Chemscore.DEClash>
0.0687

> <Gold.Chemscore.DEInternal>
0.7273

> <Gold.Chemscore.Rot>
1.5882

> <Gold.Chemscore.Internal.Correction>
   9.000000E+99

> <Gold.Chemscore.Hbond.Weighted>
-3.3312

> <Gold.Chemscore.Metal.Weighted>
-0.0000

> <Gold.Chemscore.Lipo.Weighted>
-10.3326

> <Gold.Chemscore.Internal_Hbond.Weighted>
0.0000

> <Gold.Chemscore.DEClash.Weighted>
0.0687

> <Gold.Chemscore.DEInternal.Weighted>
0.7273

> <Gold.Chemscore.Rot.Weighted>
4.0657

> <Gold.Chemscore.Internal.Correction.Weighted>
   9.000000E+99

> <Gold.Protein.RotatedTorsions>
[ 6907 6896 6895 6894 ] final  -84.92 input  -60.11 | X-H torsion
[ 7974 7965 7964 7962 ] final  -22.44 input  175.53 | X-H torsion
[ 8008 7997 7996 7995 ] final   21.08 input   59.86 | X-H torsion
[ 10167 10162 10161 10158 ] final -113.97 input  -65.29 | X-H torsion
[ 10718 10713 10712 10709 ] final   86.99 input   66.30 | X-H torsion
[ 10763 10752 10751 10750 ] final  -11.90 input  -60.55 | X-H torsion
[ 11005 11000 10999 10996 ] final   -6.42 input  -57.11 | X-H torsion

> <Gold.Protein.ActiveResidues>
 VAL166  LYS551  ARG553  GLY616  TRP617  ASP618  TYR619  PRO620  LYS621  CYS622 
 ASP623  PHE694  ASN695  SER759  ASP760  ASP761  ALA762  ILE779  LEU786  VAL792 
 PHE793  MET794  SER795  GLU796  ALA797  LYS798  CYS799  TRP800  GLU811  SER814 

> <Gold.Protein.RotatedAtoms>
  150.6873  134.3285  159.4816 H   0  0  0  0  0  0  0  0  0  0  0  0  # atno 6907 bound_to 6896
  152.1152  134.9243  160.0574 H   0  0  0  0  0  0  0  0  0  0  0  0  # atno 6908 bound_to 6896
  152.0470  133.3967  159.4398 H   0  0  0  0  0  0  0  0  0  0  0  0  # atno 6909 bound_to 6896
  146.1675  140.4479  142.8546 H   0  0  0  0  0  0  0  0  0  0  0  0  # atno 7974 bound_to 7965
  154.9452  140.3058  155.5101 H   0  0  0  0  0  0  0  0  0  0  0  0  # atno 8008 bound_to 7997
  156.2992  140.2329  156.4463 H   0  0  0  0  0  0  0  0  0  0  0  0  # atno 8009 bound_to 7997
  154.8107  140.0429  157.1329 H   0  0  0  0  0  0  0  0  0  0  0  0  # atno 8010 bound_to 7997
  140.1060  143.4570  152.1782 H   0  0  0  0  0  0  0  0  0  0  0  0  # atno 10167 bound_to 10162
  157.6935  131.0237  150.3056 H   0  0  0  0  0  0  0  0  0  0  0  0  # atno 10718 bound_to 10713
  153.4906  135.7017  153.5886 H   0  0  0  0  0  0  0  0  0  0  0  0  # atno 10763 bound_to 10752
  153.4060  135.3860  155.2019 H   0  0  0  0  0  0  0  0  0  0  0  0  # atno 10764 bound_to 10752
  154.8717  135.3893  154.4366 H   0  0  0  0  0  0  0  0  0  0  0  0  # atno 10765 bound_to 10752
  140.7018  133.8983  155.8689 H   0  0  0  0  0  0  0  0  0  0  0  0  # atno 11005 bound_to 11000
  144.8114  140.6393  143.6412 LP  0  0  0  0  0  0  0  0  0  0  0  0  # atno 17320 bound_to 7965
  145.4427  139.1533  143.3961 LP  0  0  0  0  0  0  0  0  0  0  0  0  # atno 17321 bound_to 7965
  139.5645  144.7426  151.4061 LP  0  0  0  0  0  0  0  0  0  0  0  0  # atno 17342 bound_to 10162
  140.6952  143.7767  150.7315 LP  0  0  0  0  0  0  0  0  0  0  0  0  # atno 17343 bound_to 10162
  156.3565  130.3839  149.7286 LP  0  0  0  0  0  0  0  0  0  0  0  0  # atno 17370 bound_to 10713
  156.4747  130.8013  151.3029 LP  0  0  0  0  0  0  0  0  0  0  0  0  # atno 17371 bound_to 10713
  141.0157  134.0959  157.4174 LP  0  0  0  0  0  0  0  0  0  0  0  0  # atno 17394 bound_to 11000
  139.8895  135.0105  156.6680 LP  0  0  0  0  0  0  0  0  0  0  0  0  # atno 17395 bound_to 11000

$$$$
