AV-unprocessed.smi:54|AV-procd|sdf|532|dock4
  -GOLD-   2262016413D 1   1.00000     0.00000
 Structure written by MMmdl.
 44 46  0  0  0  0  0  0  0  0  1 V2000
  146.3938  133.0798  150.8429 C   0  0  0  0  0  0  0  0  0  0  0  0
  146.7496  132.2613  152.0942 C   0  0  0  0  0  0  0  0  0  0  0  0
  145.5772  131.3649  152.5259 C   0  0  0  0  0  0  0  0  0  0  0  0
  147.1752  133.1854  153.2407 C   0  0  0  0  0  0  0  0  0  0  0  0
  146.4183  134.0372  153.7082 O   0  0  0  0  0  0  0  0  0  0  0  0
  148.5286  132.9887  153.7292 N   0  0  0  0  0  0  0  0  0  0  0  0
  149.1434  133.6542  154.7344 C   0  0  0  0  0  0  0  0  0  0  0  0
  149.2946  134.9710  154.7459 N   0  0  0  0  0  0  0  0  0  0  0  0
  149.9309  135.4606  155.8523 C   0  0  0  0  0  0  0  0  0  0  0  0
  150.4073  134.7279  156.9190 C   0  0  0  0  0  0  0  0  0  0  0  0
  150.9959  135.5710  157.8548 N   0  0  0  0  0  0  0  0  0  0  0  0
  150.8605  136.7605  157.3380 C   0  0  0  0  0  0  0  0  0  0  0  0
  150.2295  136.7804  156.1158 N   0  0  0  0  0  0  0  0  0  0  0  0
  149.9018  137.9470  155.2338 C   0  0  1  0  0  0  0  0  0  0  0  0
  149.8172  139.0771  156.0503 O   0  0  0  0  0  0  0  0  0  0  0  0
  150.7658  140.0683  155.6557 C   0  0  1  0  0  0  0  0  0  0  0  0
  151.2713  140.8648  156.8716 C   0  0  0  0  0  0  0  0  0  0  0  0
  151.8965  139.9972  157.7926 O   0  0  0  0  0  0  0  0  0  0  0  0
  151.8397  139.3001  154.8717 C   0  0  1  0  0  0  0  0  0  0  0  0
  152.8386  138.7740  155.7303 O   0  0  0  0  0  0  0  0  0  0  0  0
  151.0112  138.2143  154.1999 C   0  0  1  0  0  0  0  0  0  0  0  0
  151.7768  137.0855  153.8142 O   0  0  0  0  0  0  0  0  0  0  0  0
  150.2453  133.3028  156.9250 C   0  0  0  0  0  0  0  0  0  0  0  0
  150.6012  132.4991  157.7840 O   0  0  0  0  0  0  0  0  0  0  0  0
  149.5905  132.8409  155.7758 N   0  0  0  0  0  0  0  0  0  0  0  0
  148.9362  137.6998  154.7911 H   0  0  0  0  0  0  0  0  0  0  0  0
  150.2659  140.7392  154.9544 H   0  0  0  0  0  0  0  0  0  0  0  0
  152.3324  139.9393  154.1382 H   0  0  0  0  0  0  0  0  0  0  0  0
  150.5328  138.6332  153.3136 H   0  0  0  0  0  0  0  0  0  0  0  0
  147.2246  133.7161  150.5353 H   0  0  0  0  0  0  0  0  0  0  0  0
  145.5288  133.7216  151.0158 H   0  0  0  0  0  0  0  0  0  0  0  0
  146.1563  132.4250  150.0041 H   0  0  0  0  0  0  0  0  0  0  0  0
  147.5931  131.6150  151.8474 H   0  0  0  0  0  0  0  0  0  0  0  0
  145.8216  130.7956  153.4237 H   0  0  0  0  0  0  0  0  0  0  0  0
  145.3262  130.6485  151.7433 H   0  0  0  0  0  0  0  0  0  0  0  0
  144.6811  131.9499  152.7365 H   0  0  0  0  0  0  0  0  0  0  0  0
  149.0750  132.2909  153.2464 H   0  0  0  0  0  0  0  0  0  0  0  0
  151.2184  137.6499  157.8352 H   0  0  0  0  0  0  0  0  0  0  0  0
  151.9583  141.6564  156.5716 H   0  0  0  0  0  0  0  0  0  0  0  0
  150.4339  141.3367  157.3868 H   0  0  0  0  0  0  0  0  0  0  0  0
  152.7637  139.7966  157.4750 H   0  0  0  0  0  0  0  0  0  0  0  0
  152.4405  138.5783  156.5649 H   0  0  0  0  0  0  0  0  0  0  0  0
  151.5939  136.9020  152.9050 H   0  0  0  0  0  0  0  0  0  0  0  0
  149.4415  131.8447  155.7119 H   0  0  0  0  0  0  0  0  0  0  0  0
  1  2  1  0  0  0  0
  1 30  1  0  0  0  0
  1 31  1  0  0  0  0
  1 32  1  0  0  0  0
  2  3  1  0  0  0  0
  2  4  1  0  0  0  0
  2 33  1  0  0  0  0
  3 34  1  0  0  0  0
  3 35  1  0  0  0  0
  3 36  1  0  0  0  0
  4  5  2  0  0  0  0
  4  6  1  0  0  0  0
  6 37  1  0  0  0  0
  6  7  1  0  0  0  0
  7 25  1  0  0  0  0
  7  8  2  0  0  0  0
  8  9  1  0  0  0  0
  9 13  1  0  0  0  0
  9 10  2  0  0  0  0
 10 11  1  0  0  0  0
 10 23  1  0  0  0  0
 11 12  2  0  0  0  0
 12 13  1  0  0  0  0
 12 38  1  0  0  0  0
 13 14  1  0  0  0  0
 14 26  1  0  0  0  0
 14 21  1  0  0  0  0
 14 15  1  0  0  0  0
 15 16  1  0  0  0  0
 16 27  1  0  0  0  0
 16 17  1  0  0  0  0
 16 19  1  0  0  0  0
 17 18  1  0  0  0  0
 17 39  1  0  0  0  0
 17 40  1  0  0  0  0
 18 41  1  0  0  0  0
 19 28  1  0  0  0  0
 19 20  1  0  0  0  0
 19 21  1  0  0  0  0
 20 42  1  0  0  0  0
 21 29  1  0  0  0  0
 21 22  1  0  0  0  0
 22 43  1  0  0  0  0
 23 24  2  0  0  0  0
 23 25  1  0  0  0  0
 25 44  1  0  0  0  0
M  END
> <s_m_source_file>
AV-unprocessed.smi

> <i_m_source_file_index>
54

> <i_lp_mmshare_version>
43012

> <i_f3d_flags>
0

> <s_epik_input>
W0NIM11bQ0hdKFtDSDNdKUMoPU8pW05IXWMobjEpW25IXWMoPU8pYyhjMTIpbltjSF1uMltDQEBIXTNPW0NASF0oW0NIMl1bT0hdKVtDQEBIXShbT0hdKVtDQEhdM1tPSF0=

> <s_epik_cmdline>
J2VwaWtfcHl0aG9uJywgJy1waCcsICc3LjAnLCAnLXRuJywgJzgnLCAnLW1hJywgJzIwMCcsICctbWV0YWxfYmluZGluZycsICctaW1hZScsICc8aW5maWxlLm1hZT4nLCAnLW9tYWUnLCAnPG91dGZpbGUubWFlPic=

> <r_lp_tautomer_probability>
0.85571

> <r_epik_Ionization_Penalty>
0.0316551

> <r_epik_Ionization_Penalty_Charging>
0.0316043

> <r_epik_Ionization_Penalty_Neutral>
5.07097e-05

> <r_epik_State_Penalty>
3.15494e-07

> <r_epik_Charging_Adjusted_Penalty>
0.0316047

> <i_epik_Tot_Q>
0

> <i_epik_Tot_abs_Q>
0

> <r_epik_Metal_State_Penalty>
0.421206

> <b_epik_Metal_Only>
0

> <s_epik_Chemistry_Notes>
This compound contains an acetal/aminal-like group ( X-CH(R)-Y where X, Y are N, S, or O) that may be acid/base labile, releasing an aldehyde.

> <s_lp_Force_Field>
OPLS_2005

> <r_lp_Energy>
45.6479

> <b_lp_Chiralities_Consistent>
1

> <s_lp_Variant>
AV-unprocessed.smi:54-4

> <Gold.Version>
5.8.1

> <Gold.Id.Protein>
6NUR|6NUR_protein|mol2

> <Gold.PLP.Fitness>
45.0184

> <Gold.PLP.PLP>
-34.1070

> <Gold.PLP.part.hbond>
-5.0000

> <Gold.PLP.part.metal>
0.0000

> <Gold.PLP.part.buried>
-5.6328

> <Gold.PLP.part.nonpolar>
-25.0802

> <Gold.PLP.part.repulsive>
1.1492

> <Gold.PLP.ligand.clash>
0.0000

> <Gold.PLP.ligand.torsion>
1.2708

> <Gold.PLP.Chemscore.Hbond>
4.3360

> <Gold.PLP.Chemscore.CHOScore>
0.0000

> <Gold.PLP.Chemscore.Metal>
0.0000

> <Gold.Chemscore.Hbonds>
donor molecule, donor type, donor heavy atom, donor atom, acceptor molecule, acceptor atom, score
      L1  H    22    43       P1  7949  1.00
      P1  H  6896  6908       L1    24  1.00
      P1  H  6896  6909       L1    11  0.32
      P1  H  7997  8009       L1    20  0.86
      P1  H 10752 10765       L1    22  1.00

> <Gold.PLP.Chemscore.Internal.Correction>
0.4449

> <Gold.Rescore>
     Score         DG    S(hbond)    S(metal)    S(lipo)     H(rot)  DE(clash)    DE(int)     intcor
      9.10     -10.65       2.87        0.00      50.76       4.05       0.06       1.49       ----

> <Gold.Chemscore.Fitness>
9.1005

> <Gold.Chemscore.DG>
-10.6485

> <Gold.Chemscore.ZeroCoef>
-5.4800

> <Gold.Chemscore.Hbond>
2.8729

> <Gold.Chemscore.Metal>
0.0000

> <Gold.Chemscore.Lipo>
50.7620

> <Gold.Chemscore.Internal_Hbond>
0.0000

> <Gold.Chemscore.DEClash>
0.0590

> <Gold.Chemscore.DEInternal>
1.4890

> <Gold.Chemscore.Rot>
4.0493

> <Gold.Chemscore.Internal.Correction>
   9.000000E+99

> <Gold.Chemscore.Hbonds>
donor molecule, donor type, donor heavy atom, donor atom, acceptor molecule, acceptor atom, score
      L1  H    22    43       P1  7949  0.96
      P1  H  6896  6908       L1    24  0.80
      P1  H  6896  6909       L1    11  0.27
      P1  H  7997  8009       L1    20  0.33
      P1  H 10752 10765       L1    22  0.30

> <Gold.Chemscore.Hbond.Weighted>
-9.5956

> <Gold.Chemscore.Metal.Weighted>
-0.0000

> <Gold.Chemscore.Lipo.Weighted>
-5.9392

> <Gold.Chemscore.Internal_Hbond.Weighted>
0.0000

> <Gold.Chemscore.DEClash.Weighted>
0.0590

> <Gold.Chemscore.DEInternal.Weighted>
1.4890

> <Gold.Chemscore.Rot.Weighted>
10.3662

> <Gold.Chemscore.Internal.Correction.Weighted>
   9.000000E+99

> <Gold.Protein.RotatedTorsions>
[ 6907 6896 6895 6894 ] final   73.36 input  -60.11 | X-H torsion
[ 7974 7965 7964 7962 ] final  -34.31 input  175.53 | X-H torsion
[ 8008 7997 7996 7995 ] final -155.08 input   59.86 | X-H torsion
[ 10167 10162 10161 10158 ] final  -28.82 input  -65.29 | X-H torsion
[ 10718 10713 10712 10709 ] final -154.97 input   66.30 | X-H torsion
[ 10763 10752 10751 10750 ] final  158.64 input  -60.55 | X-H torsion
[ 11005 11000 10999 10996 ] final  110.54 input  -57.11 | X-H torsion

> <Gold.Protein.ActiveResidues>
 VAL166  LYS551  ARG553  GLY616  TRP617  ASP618  TYR619  PRO620  LYS621  CYS622 
 ASP623  PHE694  ASN695  SER759  ASP760  ASP761  ALA762  ILE779  LEU786  VAL792 
 PHE793  MET794  SER795  GLU796  ALA797  LYS798  CYS799  TRP800  GLU811  SER814 

> <Gold.Protein.RotatedAtoms>
  152.4919  134.4433  159.9550 H   0  0  0  0  0  0  0  0  0  0  0  0  # atno 6907 bound_to 6896
  151.4419  133.3635  159.2791 H   0  0  0  0  0  0  0  0  0  0  0  0  # atno 6908 bound_to 6896
  150.9082  134.8521  159.7467 H   0  0  0  0  0  0  0  0  0  0  0  0  # atno 6909 bound_to 6896
  146.0840  140.6023  142.8895 H   0  0  0  0  0  0  0  0  0  0  0  0  # atno 7974 bound_to 7965
  155.6963  140.0761  157.2428 H   0  0  0  0  0  0  0  0  0  0  0  0  # atno 8008 bound_to 7997
  154.4080  140.1655  156.2195 H   0  0  0  0  0  0  0  0  0  0  0  0  # atno 8009 bound_to 7997
  155.9407  140.3384  155.6328 H   0  0  0  0  0  0  0  0  0  0  0  0  # atno 8010 bound_to 7997
  140.7266  143.3979  151.1316 H   0  0  0  0  0  0  0  0  0  0  0  0  # atno 10167 bound_to 10162
  156.5064  130.8415  151.2629 H   0  0  0  0  0  0  0  0  0  0  0  0  # atno 10718 bound_to 10713
  154.2192  135.2783  155.2930 H   0  0  0  0  0  0  0  0  0  0  0  0  # atno 10763 bound_to 10752
  154.5715  135.5617  153.7103 H   0  0  0  0  0  0  0  0  0  0  0  0  # atno 10764 bound_to 10752
  153.0045  135.6322  154.2332 H   0  0  0  0  0  0  0  0  0  0  0  0  # atno 10765 bound_to 10752
  139.8884  134.9486  156.6295 H   0  0  0  0  0  0  0  0  0  0  0  0  # atno 11005 bound_to 11000
  144.7312  140.4678  143.6936 LP  0  0  0  0  0  0  0  0  0  0  0  0  # atno 17320 bound_to 7965
  145.6165  139.1519  143.3046 LP  0  0  0  0  0  0  0  0  0  0  0  0  # atno 17321 bound_to 7965
  139.7594  143.8658  152.3096 LP  0  0  0  0  0  0  0  0  0  0  0  0  # atno 17342 bound_to 10162
  139.8539  144.7151  150.9180 LP  0  0  0  0  0  0  0  0  0  0  0  0  # atno 17343 bound_to 10162
  157.7456  130.9964  150.2779 LP  0  0  0  0  0  0  0  0  0  0  0  0  # atno 17370 bound_to 10713
  156.3282  130.3796  149.7514 LP  0  0  0  0  0  0  0  0  0  0  0  0  # atno 17371 bound_to 10713
  140.7678  133.8764  155.8468 LP  0  0  0  0  0  0  0  0  0  0  0  0  # atno 17394 bound_to 11000
  140.9868  134.1332  157.4445 LP  0  0  0  0  0  0  0  0  0  0  0  0  # atno 17395 bound_to 11000

$$$$
