AV-unprocessed.smi:1912|AV-procd|sdf|7749|dock5
  -GOLD-   22720 9483D 1   1.00000     0.00000
 Structure written by MMmdl.
 43 45  0  0  0  0  0  0  0  0  1 V2000
  144.2388  145.9274  156.7844 C   0  0  0  0  0  0  0  0  0  0  0  0
  145.2359  145.0478  157.2824 O   0  0  0  0  0  0  0  0  0  0  0  0
  145.8167  144.1601  156.4023 C   0  0  0  0  0  0  0  0  0  0  0  0
  145.4669  144.0485  155.0363 C   0  0  0  0  0  0  0  0  0  0  0  0
  146.1063  143.1047  154.2118 C   0  0  0  0  0  0  0  0  0  0  0  0
  147.1109  142.2501  154.7288 C   0  0  0  0  0  0  0  0  0  0  0  0
  147.7505  141.2910  153.9703 O   0  0  0  0  0  0  0  0  0  0  0  0
  147.0403  140.6999  152.8928 C   0  0  0  0  0  0  0  0  0  0  0  0
  147.4708  142.3658  156.0942 C   0  0  0  0  0  0  0  0  0  0  0  0
  148.5208  141.4358  156.7018 C   0  0  1  0  0  0  0  0  0  0  0  0
  148.1390  140.0757  156.6480 O   0  0  0  0  0  0  0  0  0  0  0  0
  149.8944  141.5725  156.0108 C   0  0  0  0  0  0  0  0  0  0  0  0
  151.0047  141.3039  156.9151 N   0  0  0  0  0  0  0  0  0  0  0  0
  151.7231  140.1607  157.0368 C   0  0  0  0  0  0  0  0  0  0  0  0
  151.4534  138.9639  156.1812 C   0  0  0  0  0  0  0  0  0  0  0  0
  152.6772  140.1688  157.9677 N   0  0  0  0  0  0  0  0  0  0  0  0
  152.5692  141.4389  158.5004 C   0  0  0  0  0  0  0  0  0  0  0  0
  153.2980  142.0644  159.5373 C   0  0  0  0  0  0  0  0  0  0  0  0
  153.0013  143.3889  159.9199 C   0  0  0  0  0  0  0  0  0  0  0  0
  151.9749  144.1061  159.2721 C   0  0  0  0  0  0  0  0  0  0  0  0
  151.2383  143.5026  158.2352 C   0  0  0  0  0  0  0  0  0  0  0  0
  151.5362  142.1791  157.8585 C   0  0  0  0  0  0  0  0  0  0  0  0
  146.8188  143.3144  156.9135 C   0  0  0  0  0  0  0  0  0  0  0  0
  143.8718  146.5514  157.5992 H   0  0  0  0  0  0  0  0  0  0  0  0
  143.3875  145.3772  156.3815 H   0  0  0  0  0  0  0  0  0  0  0  0
  144.6380  146.5907  156.0158 H   0  0  0  0  0  0  0  0  0  0  0  0
  144.7060  144.6740  154.5949 H   0  0  0  0  0  0  0  0  0  0  0  0
  145.8022  143.0544  153.1776 H   0  0  0  0  0  0  0  0  0  0  0  0
  147.6404  139.8956  152.4673 H   0  0  0  0  0  0  0  0  0  0  0  0
  146.8456  141.4226  152.0996 H   0  0  0  0  0  0  0  0  0  0  0  0
  146.0980  140.2641  153.2281 H   0  0  0  0  0  0  0  0  0  0  0  0
  148.6280  141.6605  157.7625 H   0  0  0  0  0  0  0  0  0  0  0  0
  148.6291  139.6546  155.9584 H   0  0  0  0  0  0  0  0  0  0  0  0
  149.9642  140.8848  155.1673 H   0  0  0  0  0  0  0  0  0  0  0  0
  150.0144  142.5733  155.5939 H   0  0  0  0  0  0  0  0  0  0  0  0
  152.1189  138.1436  156.4518 H   0  0  0  0  0  0  0  0  0  0  0  0
  151.6173  139.2056  155.1310 H   0  0  0  0  0  0  0  0  0  0  0  0
  150.4254  138.6265  156.3113 H   0  0  0  0  0  0  0  0  0  0  0  0
  154.0856  141.5233  160.0402 H   0  0  0  0  0  0  0  0  0  0  0  0
  153.5637  143.8566  160.7146 H   0  0  0  0  0  0  0  0  0  0  0  0
  151.7521  145.1193  159.5728 H   0  0  0  0  0  0  0  0  0  0  0  0
  150.4474  144.0480  157.7421 H   0  0  0  0  0  0  0  0  0  0  0  0
  147.0778  143.3899  157.9595 H   0  0  0  0  0  0  0  0  0  0  0  0
  1  2  1  0  0  0  0
  1 24  1  0  0  0  0
  1 25  1  0  0  0  0
  1 26  1  0  0  0  0
  2  3  1  0  0  0  0
  3 23  1  0  0  0  0
  3  4  2  0  0  0  0
  4  5  1  0  0  0  0
  4 27  1  0  0  0  0
  5  6  2  0  0  0  0
  5 28  1  0  0  0  0
  6  7  1  0  0  0  0
  6  9  1  0  0  0  0
  7  8  1  0  0  0  0
  8 29  1  0  0  0  0
  8 30  1  0  0  0  0
  8 31  1  0  0  0  0
  9 10  1  0  0  0  0
  9 23  2  0  0  0  0
 10 11  1  0  0  0  0
 10 12  1  0  0  0  0
 10 32  1  0  0  0  0
 11 33  1  0  0  0  0
 12 13  1  0  0  0  0
 12 34  1  0  0  0  0
 12 35  1  0  0  0  0
 13 22  1  0  0  0  0
 13 14  1  0  0  0  0
 14 15  1  0  0  0  0
 14 16  2  0  0  0  0
 15 36  1  0  0  0  0
 15 37  1  0  0  0  0
 15 38  1  0  0  0  0
 16 17  1  0  0  0  0
 17 22  2  0  0  0  0
 17 18  1  0  0  0  0
 18 19  2  0  0  0  0
 18 39  1  0  0  0  0
 19 20  1  0  0  0  0
 19 40  1  0  0  0  0
 20 21  2  0  0  0  0
 20 41  1  0  0  0  0
 21 22  1  0  0  0  0
 21 42  1  0  0  0  0
 23 43  1  0  0  0  0
M  END
> <s_m_source_file>
AV-unprocessed.smi

> <i_m_source_file_index>
1912

> <i_lp_mmshare_version>
43012

> <i_f3d_flags>
0

> <s_epik_input>
W0NIM11PYzFbY0hdW2NIXWMoT1tDSDNdKWMoW2NIXTEpW0NASF0oW09IXSlbQ0gyXW4oYyhuMilbQ0gzXSljKGMyMylbY0hdW2NIXVtjSF1bY0hdMw==

> <s_epik_cmdline>
J2VwaWtfcHl0aG9uJywgJy1waCcsICc3LjAnLCAnLXRuJywgJzgnLCAnLW1hJywgJzIwMCcsICctbWV0YWxfYmluZGluZycsICctaW1hZScsICc8aW5maWxlLm1hZT4nLCAnLW9tYWUnLCAnPG91dGZpbGUubWFlPic=

> <r_lp_tautomer_probability>
1

> <r_epik_Ionization_Penalty>
0.129663

> <r_epik_Ionization_Penalty_Charging>
0

> <r_epik_Ionization_Penalty_Neutral>
0.129663

> <r_epik_State_Penalty>
0.119073

> <r_epik_Charging_Adjusted_Penalty>
0.119073

> <i_epik_Tot_Q>
0

> <i_epik_Tot_abs_Q>
0

> <r_epik_Metal_State_Penalty>
0.000131867

> <b_epik_Metal_Only>
0

> <s_lp_Force_Field>
OPLS_2005

> <r_lp_Energy>
18.0714

> <b_lp_Chiralities_Consistent>
1

> <s_lp_Variant>
AV-unprocessed.smi:1912-2

> <Gold.Version>
5.8.1

> <Gold.Id.Protein>
6NUR|6NUR_protein|mol2

> <Gold.PLP.Fitness>
41.1668

> <Gold.PLP.PLP>
-40.1305

> <Gold.PLP.part.hbond>
-1.0000

> <Gold.PLP.part.metal>
0.0000

> <Gold.PLP.part.buried>
-4.3945

> <Gold.PLP.part.nonpolar>
-34.5440

> <Gold.PLP.part.repulsive>
0.2536

> <Gold.PLP.ligand.clash>
0.0000

> <Gold.PLP.ligand.torsion>
1.0038

> <Gold.PLP.Chemscore.Hbond>
0.9920

> <Gold.PLP.Chemscore.CHOScore>
0.0000

> <Gold.PLP.Chemscore.Metal>
0.0000

> <Gold.Chemscore.Hbonds>
donor molecule, donor type, donor heavy atom, donor atom, acceptor molecule, acceptor atom, score
      P1  H  7997  8010       L1    16  0.79

> <Gold.PLP.Chemscore.Internal.Correction>
0.0678

> <Gold.Rescore>
     Score         DG    S(hbond)    S(metal)    S(lipo)     H(rot)  DE(clash)    DE(int)     intcor
     13.91     -15.28       0.67        0.00     112.03       2.17       0.24       1.13       ----

> <Gold.Chemscore.Fitness>
13.9130

> <Gold.Chemscore.DG>
-15.2819

> <Gold.Chemscore.ZeroCoef>
-5.4800

> <Gold.Chemscore.Hbond>
0.6729

> <Gold.Chemscore.Metal>
0.0000

> <Gold.Chemscore.Lipo>
112.0264

> <Gold.Chemscore.Internal_Hbond>
0.0000

> <Gold.Chemscore.DEClash>
0.2376

> <Gold.Chemscore.DEInternal>
1.1313

> <Gold.Chemscore.Rot>
2.1690

> <Gold.Chemscore.Internal.Correction>
   9.000000E+99

> <Gold.Chemscore.Hbonds>
donor molecule, donor type, donor heavy atom, donor atom, acceptor molecule, acceptor atom, score
      P1  H  7997  8010       L1    16  0.27

> <Gold.Chemscore.Hbond.Weighted>
-2.2474

> <Gold.Chemscore.Metal.Weighted>
-0.0000

> <Gold.Chemscore.Lipo.Weighted>
-13.1071

> <Gold.Chemscore.Internal_Hbond.Weighted>
0.0000

> <Gold.Chemscore.DEClash.Weighted>
0.2376

> <Gold.Chemscore.DEInternal.Weighted>
1.1313

> <Gold.Chemscore.Rot.Weighted>
5.5526

> <Gold.Chemscore.Internal.Correction.Weighted>
   9.000000E+99

> <Gold.Protein.RotatedTorsions>
[ 6907 6896 6895 6894 ] final  -76.70 input  -60.11 | X-H torsion
[ 7974 7965 7964 7962 ] final  -71.93 input  175.53 | X-H torsion
[ 8008 7997 7996 7995 ] final   39.28 input   59.86 | X-H torsion
[ 10167 10162 10161 10158 ] final -155.84 input  -65.29 | X-H torsion
[ 10718 10713 10712 10709 ] final   17.33 input   66.30 | X-H torsion
[ 10763 10752 10751 10750 ] final   32.32 input  -60.55 | X-H torsion
[ 11005 11000 10999 10996 ] final   -2.19 input  -57.11 | X-H torsion

> <Gold.Protein.ActiveResidues>
 VAL166  LYS551  ARG553  GLY616  TRP617  ASP618  TYR619  PRO620  LYS621  CYS622 
 ASP623  PHE694  ASN695  SER759  ASP760  ASP761  ALA762  ILE779  LEU786  VAL792 
 PHE793  MET794  SER795  GLU796  ALA797  LYS798  CYS799  TRP800  GLU811  SER814 

> <Gold.Protein.RotatedAtoms>
  150.7020  134.4532  159.5345 H   0  0  0  0  0  0  0  0  0  0  0  0  # atno 6907 bound_to 6896
  152.2221  134.8400  160.0494 H   0  0  0  0  0  0  0  0  0  0  0  0  # atno 6908 bound_to 6896
  151.9247  133.3560  159.3946 H   0  0  0  0  0  0  0  0  0  0  0  0  # atno 6909 bound_to 6896
  145.6717  140.9219  143.0879 H   0  0  0  0  0  0  0  0  0  0  0  0  # atno 7974 bound_to 7965
  155.2340  140.3340  155.4300 H   0  0  0  0  0  0  0  0  0  0  0  0  # atno 8008 bound_to 7997
  156.2283  140.1839  156.7353 H   0  0  0  0  0  0  0  0  0  0  0  0  # atno 8009 bound_to 7997
  154.5935  140.0634  156.9257 H   0  0  0  0  0  0  0  0  0  0  0  0  # atno 8010 bound_to 7997
  139.6898  143.9439  152.2379 H   0  0  0  0  0  0  0  0  0  0  0  0  # atno 10167 bound_to 10162
  157.0806  130.6386  149.5826 H   0  0  0  0  0  0  0  0  0  0  0  0  # atno 10718 bound_to 10713
  153.0268  135.6416  154.1337 H   0  0  0  0  0  0  0  0  0  0  0  0  # atno 10763 bound_to 10752
  154.1065  135.2856  155.3241 H   0  0  0  0  0  0  0  0  0  0  0  0  # atno 10764 bound_to 10752
  154.6362  135.5475  153.7799 H   0  0  0  0  0  0  0  0  0  0  0  0  # atno 10765 bound_to 10752
  140.6556  133.9365  155.8406 H   0  0  0  0  0  0  0  0  0  0  0  0  # atno 11005 bound_to 11000
  144.7055  139.8581  143.7431 LP  0  0  0  0  0  0  0  0  0  0  0  0  # atno 17320 bound_to 7965
  146.1040  139.4037  143.0329 LP  0  0  0  0  0  0  0  0  0  0  0  0  # atno 17321 bound_to 7965
  139.9252  144.6775  150.8420 LP  0  0  0  0  0  0  0  0  0  0  0  0  # atno 17342 bound_to 10162
  140.7679  143.3347  151.2335 LP  0  0  0  0  0  0  0  0  0  0  0  0  # atno 17343 bound_to 10162
  155.9925  130.4983  150.7341 LP  0  0  0  0  0  0  0  0  0  0  0  0  # atno 17370 bound_to 10713
  157.4803  131.0902  151.0543 LP  0  0  0  0  0  0  0  0  0  0  0  0  # atno 17371 bound_to 10713
  141.0504  134.0493  157.3791 LP  0  0  0  0  0  0  0  0  0  0  0  0  # atno 17394 bound_to 11000
  139.9030  135.0171  156.7359 LP  0  0  0  0  0  0  0  0  0  0  0  0  # atno 17395 bound_to 11000

$$$$
