AV-unprocessed.smi:1702|AV-procd|sdf|6848|dock3
  -GOLD-   22720 8 23D 1   1.00000     0.00000
 Structure written by MMmdl.
 44 46  0  0  0  0  0  0  0  0  2 V2000
  144.0661  141.9966  155.3378 C   0  0  0  0  0  0  0  0  0  0  0  0
  145.0809  143.1194  155.6172 C   0  0  2  0  0  0  0  0  0  0  0  0
  145.7407  143.6605  154.3356 C   0  0  0  0  0  0  0  0  0  0  0  0
  146.7757  142.6806  153.7542 C   0  0  0  0  0  0  0  0  0  0  0  0
  147.8094  142.3294  154.7641 N   0  3  2  0  0  0  0  0  0  0  0  0
  148.9036  141.4858  154.2169 C   0  0  0  0  0  0  0  0  0  0  0  0
  149.8044  140.8952  155.3198 C   0  0  1  0  0  0  0  0  0  0  0  0
  150.6277  139.8961  154.7480 O   0  0  0  0  0  0  0  0  0  0  0  0
  150.6874  141.9738  155.9768 C   0  0  0  0  0  0  0  0  0  0  0  0
  151.1403  141.5898  157.3021 N   0  0  0  0  0  0  0  0  0  0  0  0
  151.4398  140.3467  157.7252 C   0  0  0  0  0  0  0  0  0  0  0  0
  151.8420  140.2118  158.9853 N   0  0  0  0  0  0  0  0  0  0  0  0
  151.7976  141.5203  159.4349 C   0  0  0  0  0  0  0  0  0  0  0  0
  152.1083  142.0659  160.7009 C   0  0  0  0  0  0  0  0  0  0  0  0
  151.9883  143.4523  160.9309 C   0  0  0  0  0  0  0  0  0  0  0  0
  152.2910  143.9586  162.1499 F   0  0  0  0  0  0  0  0  0  0  0  0
  151.5560  144.3127  159.8998 C   0  0  0  0  0  0  0  0  0  0  0  0
  151.4450  145.6427  160.1283 F   0  0  0  0  0  0  0  0  0  0  0  0
  151.2396  143.7919  158.6303 C   0  0  0  0  0  0  0  0  0  0  0  0
  151.3612  142.4081  158.4054 C   0  0  0  0  0  0  0  0  0  0  0  0
  147.2019  141.7413  155.9858 C   0  0  0  0  0  0  0  0  0  0  0  0
  146.1746  142.6990  156.6156 C   0  0  0  0  0  0  0  0  0  0  0  0
  144.5310  141.1247  154.8783 H   0  0  0  0  0  0  0  0  0  0  0  0
  143.2782  142.3411  154.6673 H   0  0  0  0  0  0  0  0  0  0  0  0
  143.5871  141.6655  156.2597 H   0  0  0  0  0  0  0  0  0  0  0  0
  144.5186  143.9374  156.0696 H   0  0  0  0  0  0  0  0  0  0  0  0
  144.9811  143.8918  153.5878 H   0  0  0  0  0  0  0  0  0  0  0  0
  146.2381  144.6048  154.5615 H   0  0  0  0  0  0  0  0  0  0  0  0
  146.2849  141.7732  153.3999 H   0  0  0  0  0  0  0  0  0  0  0  0
  147.2388  143.1412  152.8825 H   0  0  0  0  0  0  0  0  0  0  0  0
  148.4834  140.6610  153.6388 H   0  0  0  0  0  0  0  0  0  0  0  0
  149.4931  142.0765  153.5140 H   0  0  0  0  0  0  0  0  0  0  0  0
  149.1984  140.4285  156.0956 H   0  0  0  0  0  0  0  0  0  0  0  0
  150.1659  139.0715  154.7698 H   0  0  0  0  0  0  0  0  0  0  0  0
  151.5589  142.1892  155.3573 H   0  0  0  0  0  0  0  0  0  0  0  0
  150.1326  142.9087  156.0670 H   0  0  0  0  0  0  0  0  0  0  0  0
  151.3601  139.4921  157.0691 H   0  0  0  0  0  0  0  0  0  0  0  0
  152.4406  141.4173  161.4979 H   0  0  0  0  0  0  0  0  0  0  0  0
  150.9091  144.4498  157.8410 H   0  0  0  0  0  0  0  0  0  0  0  0
  146.7365  140.7856  155.7411 H   0  0  0  0  0  0  0  0  0  0  0  0
  147.9820  141.5317  156.7187 H   0  0  0  0  0  0  0  0  0  0  0  0
  146.6942  143.5897  156.9716 H   0  0  0  0  0  0  0  0  0  0  0  0
  145.7252  142.2401  157.4970 H   0  0  0  0  0  0  0  0  0  0  0  0
  148.2423  143.1946  155.0556 H   0  0  0  0  0  0  0  0  0  0  0  0
  1  2  1  0  0  0  0
  1 23  1  0  0  0  0
  1 24  1  0  0  0  0
  1 25  1  0  0  0  0
  2 22  1  0  0  0  0
  2  3  1  0  0  0  0
  2 26  1  0  0  0  0
  3  4  1  0  0  0  0
  3 27  1  0  0  0  0
  3 28  1  0  0  0  0
  4  5  1  0  0  0  0
  4 29  1  0  0  0  0
  4 30  1  0  0  0  0
  5  6  1  0  0  0  0
  5 21  1  0  0  0  0
  5 44  1  0  0  0  0
  6  7  1  0  0  0  0
  6 31  1  0  0  0  0
  6 32  1  0  0  0  0
  7  8  1  0  0  0  0
  7  9  1  0  0  0  0
  7 33  1  0  0  0  0
  8 34  1  0  0  0  0
  9 10  1  0  0  0  0
  9 35  1  0  0  0  0
  9 36  1  0  0  0  0
 10 20  1  0  0  0  0
 10 11  1  0  0  0  0
 11 12  2  0  0  0  0
 11 37  1  0  0  0  0
 12 13  1  0  0  0  0
 13 20  2  0  0  0  0
 13 14  1  0  0  0  0
 14 15  2  0  0  0  0
 14 38  1  0  0  0  0
 15 16  1  0  0  0  0
 15 17  1  0  0  0  0
 17 18  1  0  0  0  0
 17 19  2  0  0  0  0
 19 20  1  0  0  0  0
 19 39  1  0  0  0  0
 21 22  1  0  0  0  0
 21 40  1  0  0  0  0
 21 41  1  0  0  0  0
 22 42  1  0  0  0  0
 22 43  1  0  0  0  0
M  CHG  1   5   1
M  END
> <s_m_source_file>
AV-unprocessed.smi

> <i_m_source_file_index>
1702

> <i_lp_mmshare_version>
43012

> <i_f3d_flags>
0

> <s_epik_input>
W0NIM11bQ0hdMVtDSDJdW0NIMl1OKFtDSDJdW0NIMl0xKVtDSDJdW0NASF0oW09IXSlbQ0gyXW4oW2NIXW4yKWMoYzIzKVtjSF1jKEYpYyhGKVtjSF0z

> <s_epik_cmdline>
J2VwaWtfcHl0aG9uJywgJy1waCcsICc3LjAnLCAnLXRuJywgJzgnLCAnLW1hJywgJzIwMCcsICctbWV0YWxfYmluZGluZycsICctaW1hZScsICc8aW5maWxlLm1hZT4nLCAnLW9tYWUnLCAnPG91dGZpbGUubWFlPic=

> <r_epik_Ionization_Penalty>
0.0135195

> <r_epik_Ionization_Penalty_Charging>
0.00181365

> <r_epik_Ionization_Penalty_Neutral>
0.0117059

> <r_epik_State_Penalty>
0.00902283

> <r_epik_Charging_Adjusted_Penalty>
0.0108365

> <i_epik_Tot_Q>
1

> <i_epik_Tot_abs_Q>
1

> <r_epik_Metal_State_Penalty>
9.09181e-06

> <b_epik_Metal_Only>
0

> <s_lp_Force_Field>
OPLS_2005

> <r_lp_Energy>
23.8265

> <b_lp_Chiralities_Consistent>
1

> <s_lp_Variant>
AV-unprocessed.smi:1702-4

> <Gold.Version>
5.8.1

> <Gold.Id.Protein>
6NUR|6NUR_protein|mol2

> <Gold.PLP.Fitness>
58.6890

> <Gold.PLP.PLP>
-51.1983

> <Gold.PLP.part.hbond>
-2.0000

> <Gold.PLP.part.metal>
0.0000

> <Gold.PLP.part.buried>
-8.4142

> <Gold.PLP.part.nonpolar>
-40.1468

> <Gold.PLP.part.repulsive>
0.1258

> <Gold.PLP.ligand.clash>
0.0000

> <Gold.PLP.ligand.torsion>
0.7734

> <Gold.PLP.Chemscore.Hbond>
3.0000

> <Gold.PLP.Chemscore.CHOScore>
0.0000

> <Gold.PLP.Chemscore.Metal>
0.0000

> <Gold.Chemscore.Hbonds>
donor molecule, donor type, donor heavy atom, donor atom, acceptor molecule, acceptor atom, score
      L1  H     5    44       P1  8028  2.00
      P1  H  7989  7998       L1     8  1.00

> <Gold.PLP.Chemscore.Internal.Correction>
0.0376

> <Gold.Rescore>
     Score         DG    S(hbond)    S(metal)    S(lipo)     H(rot)  DE(clash)    DE(int)     intcor
     16.22     -17.41       1.68        0.00     103.41       2.26       0.58       0.61       ----

> <Gold.Chemscore.Fitness>
16.2196

> <Gold.Chemscore.DG>
-17.4143

> <Gold.Chemscore.ZeroCoef>
-5.4800

> <Gold.Chemscore.Hbond>
1.6845

> <Gold.Chemscore.Metal>
0.0000

> <Gold.Chemscore.Lipo>
103.4057

> <Gold.Chemscore.Internal_Hbond>
0.0000

> <Gold.Chemscore.DEClash>
0.5833

> <Gold.Chemscore.DEInternal>
0.6114

> <Gold.Chemscore.Rot>
2.2619

> <Gold.Chemscore.Internal.Correction>
   9.000000E+99

> <Gold.Chemscore.Hbonds>
donor molecule, donor type, donor heavy atom, donor atom, acceptor molecule, acceptor atom, score
      L1  H     5    44       P1  8028  0.98
      P1  H  7989  7998       L1     8  0.35

> <Gold.Chemscore.Hbond.Weighted>
-5.6263

> <Gold.Chemscore.Metal.Weighted>
-0.0000

> <Gold.Chemscore.Lipo.Weighted>
-12.0985

> <Gold.Chemscore.Internal_Hbond.Weighted>
0.0000

> <Gold.Chemscore.DEClash.Weighted>
0.5833

> <Gold.Chemscore.DEInternal.Weighted>
0.6114

> <Gold.Chemscore.Rot.Weighted>
5.7904

> <Gold.Chemscore.Internal.Correction.Weighted>
   9.000000E+99

> <Gold.Protein.RotatedTorsions>
[ 6907 6896 6895 6894 ] final -158.52 input  -60.11 | X-H torsion
[ 7974 7965 7964 7962 ] final  -47.02 input  175.53 | X-H torsion
[ 8008 7997 7996 7995 ] final  161.32 input   59.86 | X-H torsion
[ 10167 10162 10161 10158 ] final -116.19 input  -65.29 | X-H torsion
[ 10718 10713 10712 10709 ] final  -93.36 input   66.30 | X-H torsion
[ 10763 10752 10751 10750 ] final   35.53 input  -60.55 | X-H torsion
[ 11005 11000 10999 10996 ] final  -41.66 input  -57.11 | X-H torsion

> <Gold.Protein.ActiveResidues>
 VAL166  LYS551  ARG553  GLY616  TRP617  ASP618  TYR619  PRO620  LYS621  CYS622 
 ASP623  PHE694  ASN695  SER759  ASP760  ASP761  ALA762  ILE779  LEU786  VAL792 
 PHE793  MET794  SER795  GLU796  ALA797  LYS798  CYS799  TRP800  GLU811  SER814 

> <Gold.Protein.RotatedAtoms>
  151.3195  133.4046  159.2653 H   0  0  0  0  0  0  0  0  0  0  0  0  # atno 6907 bound_to 6896
  151.0046  134.9350  159.7984 H   0  0  0  0  0  0  0  0  0  0  0  0  # atno 6908 bound_to 6896
  152.5284  134.3160  159.9183 H   0  0  0  0  0  0  0  0  0  0  0  0  # atno 6909 bound_to 6896
  145.9659  140.7432  142.9434 H   0  0  0  0  0  0  0  0  0  0  0  0  # atno 7974 bound_to 7965
  156.2111  140.1780  156.7692 H   0  0  0  0  0  0  0  0  0  0  0  0  # atno 8008 bound_to 7997
  154.5724  140.0680  156.9014 H   0  0  0  0  0  0  0  0  0  0  0  0  # atno 8009 bound_to 7997
  155.2648  140.3338  155.4272 H   0  0  0  0  0  0  0  0  0  0  0  0  # atno 8010 bound_to 7997
  140.0819  143.4780  152.1921 H   0  0  0  0  0  0  0  0  0  0  0  0  # atno 10167 bound_to 10162
  156.0012  130.5024  150.5765 H   0  0  0  0  0  0  0  0  0  0  0  0  # atno 10718 bound_to 10713
  153.0115  135.6330  154.1842 H   0  0  0  0  0  0  0  0  0  0  0  0  # atno 10763 bound_to 10752
  154.1584  135.2825  155.3117 H   0  0  0  0  0  0  0  0  0  0  0  0  # atno 10764 bound_to 10752
  154.6000  135.5590  153.7426 H   0  0  0  0  0  0  0  0  0  0  0  0  # atno 10765 bound_to 10752
  141.0261  133.6840  156.2487 H   0  0  0  0  0  0  0  0  0  0  0  0  # atno 11005 bound_to 11000
  144.6825  140.2668  143.7311 LP  0  0  0  0  0  0  0  0  0  0  0  0  # atno 17320 bound_to 7965
  145.7974  139.1951  143.2067 LP  0  0  0  0  0  0  0  0  0  0  0  0  # atno 17321 bound_to 7965
  139.5774  144.7494  151.3728 LP  0  0  0  0  0  0  0  0  0  0  0  0  # atno 17342 bound_to 10162
  140.7073  143.7481  150.7504 LP  0  0  0  0  0  0  0  0  0  0  0  0  # atno 17343 bound_to 10162
  157.3652  131.0756  151.1604 LP  0  0  0  0  0  0  0  0  0  0  0  0  # atno 17370 bound_to 10713
  157.2375  130.6554  149.5875 LP  0  0  0  0  0  0  0  0  0  0  0  0  # atno 17371 bound_to 10713
  140.6488  134.5088  157.5576 LP  0  0  0  0  0  0  0  0  0  0  0  0  # atno 17394 bound_to 11000
  139.9177  134.8212  156.1312 LP  0  0  0  0  0  0  0  0  0  0  0  0  # atno 17395 bound_to 11000

$$$$
