AV-unprocessed.smi:1247|AV-procd|sdf|5248|dock10
  -GOLD-   22720 4363D 1   1.00000     0.00000
 Structure written by MMmdl.
 47 48  0  0  0  0  0  0  0  0  2 V2000
  149.9969  137.7873  154.3002 C   0  0  0  0  0  0  0  0  0  0  0  0
  149.7549  139.1288  154.9268 C   0  0  0  0  0  0  0  0  0  0  0  0
  148.5375  139.8684  154.9732 C   0  0  0  0  0  0  0  0  0  0  0  0
  148.8968  140.9979  155.6566 C   0  0  0  0  0  0  0  0  0  0  0  0
  148.1328  142.0701  155.9973 N   0  0  0  0  0  0  0  0  0  0  0  0
  146.8199  142.1070  156.2855 C   0  0  0  0  0  0  0  0  0  0  0  0
  146.0599  141.1383  156.2857 O   0  0  0  0  0  0  0  0  0  0  0  0
  146.4194  143.3524  156.5800 N   0  0  0  0  0  0  0  0  0  0  0  0
  145.0579  143.7173  156.9543 C   0  0  0  0  0  0  0  0  0  0  0  0
  144.8934  143.8038  158.4839 C   0  0  0  0  0  0  0  0  0  0  0  0
  145.8442  144.7642  159.0968 N   0  3  1  0  0  0  0  0  0  0  0  0
  145.3394  146.1564  159.0752 C   0  0  0  0  0  0  0  0  0  0  0  0
  146.4034  147.1229  159.6260 C   0  0  1  0  0  0  0  0  0  0  0  0
  145.8879  148.5643  159.7001 C   0  0  0  0  0  0  0  0  0  0  0  0
  146.7720  146.7214  160.9428 O   0  0  0  0  0  0  0  0  0  0  0  0
  147.2751  145.3896  161.0455 C   0  0  2  0  0  0  0  0  0  0  0  0
  148.6815  145.2480  160.4365 C   0  0  0  0  0  0  0  0  0  0  0  0
  146.2529  144.3879  160.4731 C   0  0  0  0  0  0  0  0  0  0  0  0
  150.2319  140.9131  155.9853 N   0  0  0  0  0  0  0  0  0  0  0  0
  151.0679  141.8556  156.7032 C   0  0  0  0  0  0  0  0  0  0  0  0
  150.7591  139.7564  155.5287 N   0  0  0  0  0  0  0  0  0  0  0  0
  149.0823  137.3861  153.8631 H   0  0  0  0  0  0  0  0  0  0  0  0
  150.3548  137.0681  155.0372 H   0  0  0  0  0  0  0  0  0  0  0  0
  150.7419  137.8530  153.5071 H   0  0  0  0  0  0  0  0  0  0  0  0
  147.5754  139.5955  154.5667 H   0  0  0  0  0  0  0  0  0  0  0  0
  148.6244  142.9508  156.0395 H   0  0  0  0  0  0  0  0  0  0  0  0
  147.1042  144.0943  156.5572 H   0  0  0  0  0  0  0  0  0  0  0  0
  144.7949  144.6575  156.4688 H   0  0  0  0  0  0  0  0  0  0  0  0
  144.3819  142.9626  156.5513 H   0  0  0  0  0  0  0  0  0  0  0  0
  143.8718  144.1233  158.6950 H   0  0  0  0  0  0  0  0  0  0  0  0
  145.0110  142.8250  158.9516 H   0  0  0  0  0  0  0  0  0  0  0  0
  145.0842  146.4409  158.0535 H   0  0  0  0  0  0  0  0  0  0  0  0
  144.4231  146.2215  159.6646 H   0  0  0  0  0  0  0  0  0  0  0  0
  147.2803  147.1113  158.9781 H   0  0  0  0  0  0  0  0  0  0  0  0
  145.6001  148.9301  158.7143 H   0  0  0  0  0  0  0  0  0  0  0  0
  146.6556  149.2329  160.0904 H   0  0  0  0  0  0  0  0  0  0  0  0
  145.0179  148.6402  160.3532 H   0  0  0  0  0  0  0  0  0  0  0  0
  147.3743  145.1878  162.1125 H   0  0  0  0  0  0  0  0  0  0  0  0
  149.0997  144.2650  160.6551 H   0  0  0  0  0  0  0  0  0  0  0  0
  149.3607  145.9931  160.8514 H   0  0  0  0  0  0  0  0  0  0  0  0
  148.6784  145.3638  159.3530 H   0  0  0  0  0  0  0  0  0  0  0  0
  145.3687  144.3674  161.1123 H   0  0  0  0  0  0  0  0  0  0  0  0
  146.6747  143.3836  160.4933 H   0  0  0  0  0  0  0  0  0  0  0  0
  150.5450  142.2114  157.5914 H   0  0  0  0  0  0  0  0  0  0  0  0
  151.2969  142.7046  156.0586 H   0  0  0  0  0  0  0  0  0  0  0  0
  152.0007  141.3818  157.0124 H   0  0  0  0  0  0  0  0  0  0  0  0
  146.6761  144.7553  158.5240 H   0  0  0  0  0  0  0  0  0  0  0  0
  1  2  1  0  0  0  0
  1 22  1  0  0  0  0
  1 23  1  0  0  0  0
  1 24  1  0  0  0  0
  2 21  2  0  0  0  0
  2  3  1  0  0  0  0
  3  4  2  0  0  0  0
  3 25  1  0  0  0  0
  4  5  1  0  0  0  0
  4 19  1  0  0  0  0
  5  6  1  0  0  0  0
  5 26  1  0  0  0  0
  6  7  2  0  0  0  0
  6  8  1  0  0  0  0
  8  9  1  0  0  0  0
  8 27  1  0  0  0  0
  9 10  1  0  0  0  0
  9 28  1  0  0  0  0
  9 29  1  0  0  0  0
 10 11  1  0  0  0  0
 10 30  1  0  0  0  0
 10 31  1  0  0  0  0
 11 18  1  0  0  0  0
 11 12  1  0  0  0  0
 11 47  1  0  0  0  0
 12 13  1  0  0  0  0
 12 32  1  0  0  0  0
 12 33  1  0  0  0  0
 13 14  1  0  0  0  0
 13 15  1  0  0  0  0
 13 34  1  0  0  0  0
 14 35  1  0  0  0  0
 14 36  1  0  0  0  0
 14 37  1  0  0  0  0
 15 16  1  0  0  0  0
 16 17  1  0  0  0  0
 16 18  1  0  0  0  0
 16 38  1  0  0  0  0
 17 39  1  0  0  0  0
 17 40  1  0  0  0  0
 17 41  1  0  0  0  0
 18 42  1  0  0  0  0
 18 43  1  0  0  0  0
 19 20  1  0  0  0  0
 19 21  1  0  0  0  0
 20 44  1  0  0  0  0
 20 45  1  0  0  0  0
 20 46  1  0  0  0  0
M  CHG  1  11   1
M  END
> <s_m_source_file>
AV-unprocessed.smi

> <i_m_source_file_index>
1247

> <i_lp_mmshare_version>
43012

> <i_f3d_flags>
0

> <s_epik_input>
W0NIM11jMVtjSF1jKG4objEpW0NIM10pW05IXUMoPU8pW05IXVtDSDJdW0NIMl1OMltDSDJdW0NAQEhdKFtDSDNdKU9bQ0BASF0oW0NIM10pW0NIMl0y

> <s_epik_cmdline>
J2VwaWtfcHl0aG9uJywgJy1waCcsICc3LjAnLCAnLXRuJywgJzgnLCAnLW1hJywgJzIwMCcsICctbWV0YWxfYmluZGluZycsICctaW1hZScsICc8aW5maWxlLm1hZT4nLCAnLW9tYWUnLCAnPG91dGZpbGUubWFlPic=

> <r_lp_tautomer_probability>
1

> <r_epik_Ionization_Penalty>
0.663902

> <r_epik_Ionization_Penalty_Charging>
0.663826

> <r_epik_Ionization_Penalty_Neutral>
7.65444e-05

> <r_epik_State_Penalty>
0.683414

> <r_epik_Charging_Adjusted_Penalty>
1.34724

> <i_epik_Tot_Q>
1

> <i_epik_Tot_abs_Q>
1

> <r_epik_Metal_State_Penalty>
0.683419

> <b_epik_Metal_Only>
0

> <s_lp_Force_Field>
OPLS_2005

> <r_lp_Energy>
18.4757

> <b_lp_Chiralities_Consistent>
1

> <s_lp_Variant>
AV-unprocessed.smi:1247-6

> <Gold.Version>
5.8.1

> <Gold.Id.Protein>
6NUR|6NUR_protein|mol2

> <Gold.PLP.Fitness>
41.7882

> <Gold.PLP.PLP>
-31.4732

> <Gold.PLP.part.hbond>
-6.0774

> <Gold.PLP.part.metal>
0.0000

> <Gold.PLP.part.buried>
2.5482

> <Gold.PLP.part.nonpolar>
-26.0006

> <Gold.PLP.part.repulsive>
0.4140

> <Gold.PLP.ligand.clash>
0.0000

> <Gold.PLP.ligand.torsion>
0.7093

> <Gold.PLP.Chemscore.Hbond>
3.9032

> <Gold.PLP.Chemscore.CHOScore>
0.0000

> <Gold.PLP.Chemscore.Metal>
0.0000

> <Gold.Chemscore.Hbonds>
donor molecule, donor type, donor heavy atom, donor atom, acceptor molecule, acceptor atom, score
      L1  H     5    26       P1  8028  1.00
      L1  H    11    47       P1  8029  1.46

> <Gold.PLP.Chemscore.Internal.Correction>
0.0240

> <Gold.Rescore>
     Score         DG    S(hbond)    S(metal)    S(lipo)     H(rot)  DE(clash)    DE(int)     intcor
     10.98     -15.17       1.74        0.00      66.35       1.52       2.94       1.26       ----

> <Gold.Chemscore.Fitness>
10.9752

> <Gold.Chemscore.DG>
-15.1678

> <Gold.Chemscore.ZeroCoef>
-5.4800

> <Gold.Chemscore.Hbond>
1.7429

> <Gold.Chemscore.Metal>
0.0000

> <Gold.Chemscore.Lipo>
66.3523

> <Gold.Chemscore.Internal_Hbond>
0.0000

> <Gold.Chemscore.DEClash>
2.9375

> <Gold.Chemscore.DEInternal>
1.2551

> <Gold.Chemscore.Rot>
1.5221

> <Gold.Chemscore.Internal.Correction>
   9.000000E+99

> <Gold.Chemscore.Hbonds>
donor molecule, donor type, donor heavy atom, donor atom, acceptor molecule, acceptor atom, score
      L1  H     5    26       P1  8028  0.96
      L1  H    11    47       P1  8029  0.70

> <Gold.Chemscore.Hbond.Weighted>
-5.8213

> <Gold.Chemscore.Metal.Weighted>
-0.0000

> <Gold.Chemscore.Lipo.Weighted>
-7.7632

> <Gold.Chemscore.Internal_Hbond.Weighted>
0.0000

> <Gold.Chemscore.DEClash.Weighted>
2.9375

> <Gold.Chemscore.DEInternal.Weighted>
1.2551

> <Gold.Chemscore.Rot.Weighted>
3.8967

> <Gold.Chemscore.Internal.Correction.Weighted>
   9.000000E+99

> <Gold.Protein.RotatedTorsions>
[ 6907 6896 6895 6894 ] final  111.08 input  -60.11 | X-H torsion
[ 7974 7965 7964 7962 ] final  -64.93 input  175.53 | X-H torsion
[ 8008 7997 7996 7995 ] final  158.18 input   59.86 | X-H torsion
[ 10167 10162 10161 10158 ] final -154.01 input  -65.29 | X-H torsion
[ 10718 10713 10712 10709 ] final   18.40 input   66.30 | X-H torsion
[ 10763 10752 10751 10750 ] final   66.56 input  -60.55 | X-H torsion
[ 11005 11000 10999 10996 ] final  125.34 input  -57.11 | X-H torsion

> <Gold.Protein.ActiveResidues>
 VAL166  LYS551  ARG553  GLY616  TRP617  ASP618  TYR619  PRO620  LYS621  CYS622 
 ASP623  PHE694  ASN695  SER759  ASP760  ASP761  ALA762  ILE779  LEU786  VAL792 
 PHE793  MET794  SER795  GLU796  ALA797  LYS798  CYS799  TRP800  GLU811  SER814 

> <Gold.Protein.RotatedAtoms>
  152.4987  133.8708  159.7297 H   0  0  0  0  0  0  0  0  0  0  0  0  # atno 6907 bound_to 6896
  150.9195  133.6889  159.2842 H   0  0  0  0  0  0  0  0  0  0  0  0  # atno 6908 bound_to 6896
  151.4270  135.1009  159.9683 H   0  0  0  0  0  0  0  0  0  0  0  0  # atno 6909 bound_to 6896
  145.7606  140.8863  143.0432 H   0  0  0  0  0  0  0  0  0  0  0  0  # atno 7974 bound_to 7965
  156.2318  140.1865  156.7221 H   0  0  0  0  0  0  0  0  0  0  0  0  # atno 8008 bound_to 7997
  154.6037  140.0632  156.9429 H   0  0  0  0  0  0  0  0  0  0  0  0  # atno 8009 bound_to 7997
  155.2132  140.3301  155.4328 H   0  0  0  0  0  0  0  0  0  0  0  0  # atno 8010 bound_to 7997
  139.7049  143.9202  152.2444 H   0  0  0  0  0  0  0  0  0  0  0  0  # atno 10167 bound_to 10162
  157.0958  130.6447  149.5860 H   0  0  0  0  0  0  0  0  0  0  0  0  # atno 10718 bound_to 10713
  153.0145  135.5316  154.6843 H   0  0  0  0  0  0  0  0  0  0  0  0  # atno 10763 bound_to 10752
  154.5994  135.2867  155.0553 H   0  0  0  0  0  0  0  0  0  0  0  0  # atno 10764 bound_to 10752
  154.1616  135.6546  153.5040 H   0  0  0  0  0  0  0  0  0  0  0  0  # atno 10765 bound_to 10752
  139.9402  134.9636  156.8544 H   0  0  0  0  0  0  0  0  0  0  0  0  # atno 11005 bound_to 11000
  144.6831  139.9717  143.7482 LP  0  0  0  0  0  0  0  0  0  0  0  0  # atno 17320 bound_to 7965
  146.0268  139.3299  143.0779 LP  0  0  0  0  0  0  0  0  0  0  0  0  # atno 17321 bound_to 7965
  139.9055  144.6887  150.8618 LP  0  0  0  0  0  0  0  0  0  0  0  0  # atno 17342 bound_to 10162
  140.7719  143.3482  151.2068 LP  0  0  0  0  0  0  0  0  0  0  0  0  # atno 17343 bound_to 10162
  155.9886  130.4930  150.7178 LP  0  0  0  0  0  0  0  0  0  0  0  0  # atno 17370 bound_to 10713
  157.4683  131.0890  151.0671 LP  0  0  0  0  0  0  0  0  0  0  0  0  # atno 17371 bound_to 10713
  140.5972  134.0206  155.7522 LP  0  0  0  0  0  0  0  0  0  0  0  0  # atno 17394 bound_to 11000
  141.1033  133.9734  157.3041 LP  0  0  0  0  0  0  0  0  0  0  0  0  # atno 17395 bound_to 11000

$$$$
