AV-unprocessed.smi:2032|AV-procd|sdf|8250|dock2
  -GOLD-   2272010523D 1   1.00000     0.00000
 Structure written by MMmdl.
 41 42  0  0  0  0  0  0  0  0  2 V2000
  153.2128  140.9416  161.1035 C   0  0  0  0  0  0  0  0  0  0  0  0
  153.4134  141.4385  159.6612 C   0  0  1  0  0  0  0  0  0  0  0  0
  152.5077  140.7254  158.6374 C   0  0  0  0  0  0  0  0  0  0  0  0
  151.1013  141.1382  158.7066 N   0  0  0  0  0  0  0  0  0  0  0  0
  150.2568  140.4520  157.6994 C   0  0  1  0  0  0  0  0  0  0  0  0
  150.7206  140.7235  156.2450 C   0  0  0  0  0  0  0  0  0  0  0  0
  150.1641  138.9159  157.9164 C   0  0  0  0  0  0  0  0  0  0  0  0
  149.1628  138.5517  158.9135 N   0  0  0  0  0  0  0  0  0  0  0  0
  148.9036  137.3055  159.3309 C   0  0  0  0  0  0  0  0  0  0  0  0
  149.5439  136.3580  158.8689 O   0  0  0  0  0  0  0  0  0  0  0  0
  147.9203  137.2339  160.2573 N   0  5  0  0  0  0  0  0  0  0  0  0
  147.6236  136.0563  160.8308 C   0  0  0  0  0  0  0  0  0  0  0  0
  147.6682  134.8922  160.1722 N   0  0  0  0  0  0  0  0  0  0  0  0
  147.3188  133.7944  160.9607 C   0  0  0  0  0  0  0  0  0  0  0  0
  146.9893  134.1316  162.2467 C   0  0  0  0  0  0  0  0  0  0  0  0
  147.1100  135.8482  162.5079 S   0  0  0  0  0  0  0  0  0  0  0  0
  151.0553  142.5986  158.5881 C   0  0  0  0  0  0  0  0  0  0  0  0
  151.9167  143.3129  159.6454 C   0  0  2  0  0  0  0  0  0  0  0  0
  151.9243  144.8327  159.4501 C   0  0  0  0  0  0  0  0  0  0  0  0
  153.2607  142.8520  159.5590 O   0  0  0  0  0  0  0  0  0  0  0  0
  153.4568  139.8823  161.1855 H   0  0  0  0  0  0  0  0  0  0  0  0
  152.1841  141.0645  161.4414 H   0  0  0  0  0  0  0  0  0  0  0  0
  153.8595  141.4828  161.7945 H   0  0  0  0  0  0  0  0  0  0  0  0
  154.4492  141.2257  159.3951 H   0  0  0  0  0  0  0  0  0  0  0  0
  152.8902  140.9169  157.6337 H   0  0  0  0  0  0  0  0  0  0  0  0
  152.6076  139.6553  158.8092 H   0  0  0  0  0  0  0  0  0  0  0  0
  149.2429  140.8456  157.7881 H   0  0  0  0  0  0  0  0  0  0  0  0
  150.1394  140.1686  155.5094 H   0  0  0  0  0  0  0  0  0  0  0  0
  151.7668  140.4483  156.1080 H   0  0  0  0  0  0  0  0  0  0  0  0
  150.6063  141.7690  155.9630 H   0  0  0  0  0  0  0  0  0  0  0  0
  149.9362  138.4190  156.9719 H   0  0  0  0  0  0  0  0  0  0  0  0
  151.1044  138.5041  158.2793 H   0  0  0  0  0  0  0  0  0  0  0  0
  148.6181  139.3014  159.3135 H   0  0  0  0  0  0  0  0  0  0  0  0
  147.3308  132.8072  160.5229 H   0  0  0  0  0  0  0  0  0  0  0  0
  146.6846  133.4802  163.0517 H   0  0  0  0  0  0  0  0  0  0  0  0
  151.3753  142.8971  157.5885 H   0  0  0  0  0  0  0  0  0  0  0  0
  150.0391  142.9642  158.7175 H   0  0  0  0  0  0  0  0  0  0  0  0
  151.5223  143.0997  160.6392 H   0  0  0  0  0  0  0  0  0  0  0  0
  150.9164  145.2426  159.5207 H   0  0  0  0  0  0  0  0  0  0  0  0
  152.3283  145.1030  158.4741 H   0  0  0  0  0  0  0  0  0  0  0  0
  152.5353  145.3198  160.2104 H   0  0  0  0  0  0  0  0  0  0  0  0
  1  2  1  0  0  0  0
  1 21  1  0  0  0  0
  1 22  1  0  0  0  0
  1 23  1  0  0  0  0
  2 20  1  0  0  0  0
  2  3  1  0  0  0  0
  2 24  1  0  0  0  0
  3  4  1  0  0  0  0
  3 25  1  0  0  0  0
  3 26  1  0  0  0  0
  4  5  1  0  0  0  0
  4 17  1  0  0  0  0
  5  6  1  0  0  0  0
  5  7  1  0  0  0  0
  5 27  1  0  0  0  0
  6 28  1  0  0  0  0
  6 29  1  0  0  0  0
  6 30  1  0  0  0  0
  7  8  1  0  0  0  0
  7 31  1  0  0  0  0
  7 32  1  0  0  0  0
  8  9  1  0  0  0  0
  8 33  1  0  0  0  0
  9 10  2  0  0  0  0
  9 11  1  0  0  0  0
 11 12  1  0  0  0  0
 12 16  1  0  0  0  0
 12 13  2  0  0  0  0
 13 14  1  0  0  0  0
 14 15  2  0  0  0  0
 14 34  1  0  0  0  0
 15 16  1  0  0  0  0
 15 35  1  0  0  0  0
 17 18  1  0  0  0  0
 17 36  1  0  0  0  0
 17 37  1  0  0  0  0
 18 19  1  0  0  0  0
 18 20  1  0  0  0  0
 18 38  1  0  0  0  0
 19 39  1  0  0  0  0
 19 40  1  0  0  0  0
 19 41  1  0  0  0  0
M  CHG  1  11  -1
M  END
> <s_m_source_file>
AV-unprocessed.smi

> <i_m_source_file_index>
2032

> <i_lp_mmshare_version>
43012

> <i_f3d_flags>
0

> <s_epik_input>
W0NIM11bQ0BASF0xW0NIMl1OKFtDSDJdW0NASF0oTzEpW0NIM10pW0NASF0oW0NIM10pW0NIMl1bTkhdQyg9TylbTkhdYzJuW2NIXVtjSF1zMg==

> <s_epik_cmdline>
J2VwaWtfcHl0aG9uJywgJy1waCcsICc3LjAnLCAnLXRuJywgJzgnLCAnLW1hJywgJzIwMCcsICctbWV0YWxfYmluZGluZycsICctaW1hZScsICc8aW5maWxlLm1hZT4nLCAnLW9tYWUnLCAnPG91dGZpbGUubWFlPic=

> <r_lp_tautomer_probability>
0.999

> <r_epik_Ionization_Penalty>
7.22375

> <r_epik_Ionization_Penalty_Charging>
5.82415

> <r_epik_Ionization_Penalty_Neutral>
1.39959

> <r_epik_State_Penalty>
6.03347

> <r_epik_Charging_Adjusted_Penalty>
11.8576

> <i_epik_Tot_Q>
-1

> <i_epik_Tot_abs_Q>
1

> <r_epik_Metal_State_Penalty>
2.01024

> <b_epik_Metal_Only>
1

> <s_lp_Force_Field>
OPLS_2005

> <r_lp_Energy>
26.7829

> <b_lp_Chiralities_Consistent>
1

> <s_lp_Variant>
AV-unprocessed.smi:2032-20

> <Gold.Version>
5.8.1

> <Gold.Id.Protein>
6NUR|6NUR_protein|mol2

> <Gold.PLP.Fitness>
49.6468

> <Gold.PLP.PLP>
-41.1820

> <Gold.PLP.part.hbond>
-3.0000

> <Gold.PLP.part.metal>
0.0000

> <Gold.PLP.part.buried>
-4.8281

> <Gold.PLP.part.nonpolar>
-34.8294

> <Gold.PLP.part.repulsive>
0.3909

> <Gold.PLP.ligand.clash>
0.0000

> <Gold.PLP.ligand.torsion>
0.5689

> <Gold.PLP.Chemscore.Hbond>
3.1776

> <Gold.PLP.Chemscore.CHOScore>
0.0000

> <Gold.PLP.Chemscore.Metal>
0.0000

> <Gold.Chemscore.Hbonds>
donor molecule, donor type, donor heavy atom, donor atom, acceptor molecule, acceptor atom, score
      P1  H  6896  6908       L1    10  0.68
      P1  H  6931  6943       L1    11  0.56
      P1  H  6934  6947       L1    11  1.53

> <Gold.PLP.Chemscore.Internal.Correction>
0.0699

> <Gold.Rescore>
     Score         DG    S(hbond)    S(metal)    S(lipo)     H(rot)  DE(clash)    DE(int)     intcor
     16.34     -18.61       1.63        0.00      99.47       1.54       0.08       2.20       ----

> <Gold.Chemscore.Fitness>
16.3351

> <Gold.Chemscore.DG>
-18.6115

> <Gold.Chemscore.ZeroCoef>
-5.4800

> <Gold.Chemscore.Hbond>
1.6299

> <Gold.Chemscore.Metal>
0.0000

> <Gold.Chemscore.Lipo>
99.4699

> <Gold.Chemscore.Internal_Hbond>
0.0000

> <Gold.Chemscore.DEClash>
0.0771

> <Gold.Chemscore.DEInternal>
2.1993

> <Gold.Chemscore.Rot>
1.5431

> <Gold.Chemscore.Internal.Correction>
   9.000000E+99

> <Gold.Chemscore.Hbonds>
donor molecule, donor type, donor heavy atom, donor atom, acceptor molecule, acceptor atom, score
      P1  H  6896  6908       L1    10  0.67
      P1  H  6931  6943       L1    11  0.01
      P1  H  6934  6947       L1    11  0.64

> <Gold.Chemscore.Hbond.Weighted>
-5.4438

> <Gold.Chemscore.Metal.Weighted>
-0.0000

> <Gold.Chemscore.Lipo.Weighted>
-11.6380

> <Gold.Chemscore.Internal_Hbond.Weighted>
0.0000

> <Gold.Chemscore.DEClash.Weighted>
0.0771

> <Gold.Chemscore.DEInternal.Weighted>
2.1993

> <Gold.Chemscore.Rot.Weighted>
3.9503

> <Gold.Chemscore.Internal.Correction.Weighted>
   9.000000E+99

> <Gold.Protein.RotatedTorsions>
[ 6907 6896 6895 6894 ] final -161.49 input  -60.11 | X-H torsion
[ 7974 7965 7964 7962 ] final  -91.97 input  175.53 | X-H torsion
[ 8008 7997 7996 7995 ] final  148.74 input   59.86 | X-H torsion
[ 10167 10162 10161 10158 ] final -110.54 input  -65.29 | X-H torsion
[ 10718 10713 10712 10709 ] final  -82.37 input   66.30 | X-H torsion
[ 10763 10752 10751 10750 ] final  -79.99 input  -60.55 | X-H torsion
[ 11005 11000 10999 10996 ] final -146.88 input  -57.11 | X-H torsion

> <Gold.Protein.ActiveResidues>
 VAL166  LYS551  ARG553  GLY616  TRP617  ASP618  TYR619  PRO620  LYS621  CYS622 
 ASP623  PHE694  ASN695  SER759  ASP760  ASP761  ALA762  ILE779  LEU786  VAL792 
 PHE793  MET794  SER795  GLU796  ALA797  LYS798  CYS799  TRP800  GLU811  SER814 

> <Gold.Protein.RotatedAtoms>
  151.3654  133.3874  159.2693 H   0  0  0  0  0  0  0  0  0  0  0  0  # atno 6907 bound_to 6896
  150.9692  134.9069  159.7788 H   0  0  0  0  0  0  0  0  0  0  0  0  # atno 6908 bound_to 6896
  152.5178  134.3616  159.9339 H   0  0  0  0  0  0  0  0  0  0  0  0  # atno 6909 bound_to 6896
  145.4061  140.9541  143.2260 H   0  0  0  0  0  0  0  0  0  0  0  0  # atno 7974 bound_to 7965
  156.2780  140.2120  156.5746 H   0  0  0  0  0  0  0  0  0  0  0  0  # atno 8008 bound_to 7997
  154.7108  140.0512  157.0571 H   0  0  0  0  0  0  0  0  0  0  0  0  # atno 8009 bound_to 7997
  155.0608  140.3166  155.4664 H   0  0  0  0  0  0  0  0  0  0  0  0  # atno 8010 bound_to 7997
  140.1433  143.4260  152.1546 H   0  0  0  0  0  0  0  0  0  0  0  0  # atno 10167 bound_to 10162
  156.0034  130.4632  150.4094 H   0  0  0  0  0  0  0  0  0  0  0  0  # atno 10718 bound_to 10713
  154.5455  135.5676  153.6877 H   0  0  0  0  0  0  0  0  0  0  0  0  # atno 10763 bound_to 10752
  152.9975  135.6238  154.2444 H   0  0  0  0  0  0  0  0  0  0  0  0  # atno 10764 bound_to 10752
  154.2377  135.2863  155.2846 H   0  0  0  0  0  0  0  0  0  0  0  0  # atno 10765 bound_to 10752
  140.7775  134.3118  157.5056 H   0  0  0  0  0  0  0  0  0  0  0  0  # atno 11005 bound_to 11000
  144.8341  139.5580  143.6930 LP  0  0  0  0  0  0  0  0  0  0  0  0  # atno 17320 bound_to 7965
  146.2728  139.6677  142.9284 LP  0  0  0  0  0  0  0  0  0  0  0  0  # atno 17321 bound_to 7965
  139.5461  144.7299  151.4579 LP  0  0  0  0  0  0  0  0  0  0  0  0  # atno 17342 bound_to 10162
  140.6747  143.8216  150.7043 LP  0  0  0  0  0  0  0  0  0  0  0  0  # atno 17343 bound_to 10162
  157.2158  131.0471  151.2574 LP  0  0  0  0  0  0  0  0  0  0  0  0  # atno 17370 bound_to 10713
  157.3847  130.7250  149.6654 LP  0  0  0  0  0  0  0  0  0  0  0  0  # atno 17371 bound_to 10713
  139.8747  134.9298  156.3486 LP  0  0  0  0  0  0  0  0  0  0  0  0  # atno 17394 bound_to 11000
  140.9515  133.7448  156.0278 LP  0  0  0  0  0  0  0  0  0  0  0  0  # atno 17395 bound_to 11000

$$$$
