AV-unprocessed.smi:610|AV-procd|sdf|3058|dock2
  -GOLD-   2262023583D 1   1.00000     0.00000
 Structure written by MMmdl.
 38 39  0  0  0  0  0  0  0  0  2 V2000
  144.4575  137.4777  153.3315 C   0  0  0  0  0  0  0  0  0  0  0  0
  145.9063  137.6182  152.8427 C   0  0  1  0  0  0  0  0  0  0  0  0
  146.0421  137.2584  151.3515 C   0  0  0  0  0  0  0  0  0  0  0  0
  145.3752  135.9942  151.0215 N   0  0  0  0  0  0  0  0  0  0  0  0
  145.9496  134.7521  150.9342 C   0  0  0  0  0  0  0  0  0  0  0  0
  144.9469  133.8808  150.5947 C   0  0  0  0  0  0  0  0  0  0  0  0
  143.8033  134.6269  150.4918 N   0  3  0  0  0  0  0  0  0  0  0  0
  144.0655  135.9116  150.7530 C   0  0  0  0  0  0  0  0  0  0  0  0
  146.3734  138.9839  153.0693 N   0  0  0  0  0  0  0  0  0  0  0  0
  147.4878  139.3374  153.7328 C   0  0  0  0  0  0  0  0  0  0  0  0
  148.2329  138.5085  154.2571 O   0  0  0  0  0  0  0  0  0  0  0  0
  147.8186  140.8481  153.8330 C   0  0  0  0  0  0  0  0  0  0  0  0
  149.1529  141.1403  153.3233 N   0  0  0  0  0  0  0  0  0  0  0  0
  146.7734  141.6943  153.0593 C   0  0  0  0  0  0  0  0  0  0  0  0
  146.1278  142.6473  154.0725 C   0  0  0  0  0  0  0  0  0  0  0  0
  146.3588  141.9983  155.4325 C   0  0  0  0  0  0  0  0  0  0  0  0
  147.7367  141.3523  155.2951 C   0  0  0  0  0  0  0  0  0  0  0  0
  144.0899  136.4624  153.1801 H   0  0  0  0  0  0  0  0  0  0  0  0
  143.7899  138.1562  152.7990 H   0  0  0  0  0  0  0  0  0  0  0  0
  144.3778  137.6991  154.3964 H   0  0  0  0  0  0  0  0  0  0  0  0
  146.5216  136.9196  153.4129 H   0  0  0  0  0  0  0  0  0  0  0  0
  145.5897  138.0329  150.7306 H   0  0  0  0  0  0  0  0  0  0  0  0
  147.0911  137.1891  151.0579 H   0  0  0  0  0  0  0  0  0  0  0  0
  147.0023  134.5860  151.1124 H   0  0  0  0  0  0  0  0  0  0  0  0
  144.9612  132.8143  150.4234 H   0  0  0  0  0  0  0  0  0  0  0  0
  143.3589  136.7224  150.7440 H   0  0  0  0  0  0  0  0  0  0  0  0
  145.8079  139.7298  152.6896 H   0  0  0  0  0  0  0  0  0  0  0  0
  149.8202  140.5390  153.7854 H   0  0  0  0  0  0  0  0  0  0  0  0
  149.1902  140.8997  152.3435 H   0  0  0  0  0  0  0  0  0  0  0  0
  147.2087  142.2546  152.2301 H   0  0  0  0  0  0  0  0  0  0  0  0
  145.9965  141.0646  152.6216 H   0  0  0  0  0  0  0  0  0  0  0  0
  146.6367  143.6116  154.0403 H   0  0  0  0  0  0  0  0  0  0  0  0
  145.0717  142.8245  153.8672 H   0  0  0  0  0  0  0  0  0  0  0  0
  146.3100  142.7140  156.2535 H   0  0  0  0  0  0  0  0  0  0  0  0
  145.6025  141.2328  155.6112 H   0  0  0  0  0  0  0  0  0  0  0  0
  147.8876  140.5662  156.0368 H   0  0  0  0  0  0  0  0  0  0  0  0
  148.4966  142.1112  155.4904 H   0  0  0  0  0  0  0  0  0  0  0  0
  142.8898  134.2609  150.2538 H   0  0  0  0  0  0  0  0  0  0  0  0
  1  2  1  0  0  0  0
  1 18  1  0  0  0  0
  1 19  1  0  0  0  0
  1 20  1  0  0  0  0
  2  3  1  0  0  0  0
  2  9  1  0  0  0  0
  2 21  1  0  0  0  0
  3  4  1  0  0  0  0
  3 22  1  0  0  0  0
  3 23  1  0  0  0  0
  4  8  1  0  0  0  0
  4  5  1  0  0  0  0
  5  6  2  0  0  0  0
  5 24  1  0  0  0  0
  6  7  1  0  0  0  0
  6 25  1  0  0  0  0
  7  8  2  0  0  0  0
  7 38  1  0  0  0  0
  8 26  1  0  0  0  0
  9 10  1  0  0  0  0
  9 27  1  0  0  0  0
 10 11  2  0  0  0  0
 10 12  1  0  0  0  0
 12 17  1  0  0  0  0
 12 13  1  0  0  0  0
 12 14  1  0  0  0  0
 13 28  1  0  0  0  0
 13 29  1  0  0  0  0
 14 15  1  0  0  0  0
 14 30  1  0  0  0  0
 14 31  1  0  0  0  0
 15 16  1  0  0  0  0
 15 32  1  0  0  0  0
 15 33  1  0  0  0  0
 16 17  1  0  0  0  0
 16 34  1  0  0  0  0
 16 35  1  0  0  0  0
 17 36  1  0  0  0  0
 17 37  1  0  0  0  0
M  CHG  1   7   1
M  END
> <s_m_source_file>
AV-unprocessed.smi

> <i_m_source_file_index>
610

> <i_lp_mmshare_version>
43012

> <i_f3d_flags>
0

> <s_epik_input>
W2NIXTFuW2NIXVtjSF1uMVtDSDJdW0NAQEhdKFtDSDNdKVtOSF1DKD1PKUMyKFtOSDJdKVtDSDJdW0NIMl1bQ0gyXVtDSDJdMg==

> <s_epik_cmdline>
J2VwaWtfcHl0aG9uJywgJy1waCcsICc3LjAnLCAnLXRuJywgJzgnLCAnLW1hJywgJzIwMCcsICctbWV0YWxfYmluZGluZycsICctaW1hZScsICc8aW5maWxlLm1hZT4nLCAnLW9tYWUnLCAnPG91dGZpbGUubWFlPic=

> <r_epik_Ionization_Penalty>
1.50287

> <r_epik_Ionization_Penalty_Charging>
0

> <r_epik_Ionization_Penalty_Neutral>
1.50287

> <r_epik_State_Penalty>
1.57152

> <r_epik_Charging_Adjusted_Penalty>
1.57152

> <i_epik_Tot_Q>
1

> <i_epik_Tot_abs_Q>
1

> <r_epik_Metal_State_Penalty>
1.8522

> <b_epik_Metal_Only>
0

> <s_lp_Force_Field>
OPLS_2005

> <r_lp_Energy>
23.5797

> <b_lp_Chiralities_Consistent>
1

> <s_lp_Variant>
AV-unprocessed.smi:610-6

> <Gold.Version>
5.8.1

> <Gold.Id.Protein>
6NUR|6NUR_protein|mol2

> <Gold.PLP.Fitness>
41.5759

> <Gold.PLP.PLP>
-27.8692

> <Gold.PLP.part.hbond>
-4.6516

> <Gold.PLP.part.metal>
0.0000

> <Gold.PLP.part.buried>
-0.7306

> <Gold.PLP.part.nonpolar>
-23.4915

> <Gold.PLP.part.repulsive>
0.1742

> <Gold.PLP.ligand.clash>
0.3692

> <Gold.PLP.ligand.torsion>
0.5183

> <Gold.PLP.Chemscore.Hbond>
3.3335

> <Gold.PLP.Chemscore.CHOScore>
1.6907

> <Gold.PLP.Chemscore.Metal>
0.0000

> <Gold.Chemscore.Hbonds>
donor molecule, donor type, donor heavy atom, donor atom, acceptor molecule, acceptor atom, score
      L1  H     7    38       P1 10186  2.00
      L1  H     9    27       P1 10175  0.37
      L1  H    13    29       P1  7957  0.94
      L1  C     5    24       P1  7948  0.83
      L1  C     8    26       P1 10171  0.82

> <Gold.PLP.Chemscore.Internal.Correction>
0.0398

> <Gold.Rescore>
     Score         DG    S(hbond)    S(metal)    S(lipo)     H(rot)  DE(clash)    DE(int)     intcor
     13.12     -15.02       2.55        0.00      52.82       2.02       1.39       0.51       ----

> <Gold.Chemscore.Fitness>
13.1235

> <Gold.Chemscore.DG>
-15.0234

> <Gold.Chemscore.ZeroCoef>
-5.4800

> <Gold.Chemscore.Hbond>
2.5516

> <Gold.Chemscore.Metal>
0.0000

> <Gold.Chemscore.Lipo>
52.8187

> <Gold.Chemscore.Internal_Hbond>
0.0000

> <Gold.Chemscore.DEClash>
1.3919

> <Gold.Chemscore.DEInternal>
0.5080

> <Gold.Chemscore.Rot>
2.0152

> <Gold.Chemscore.Internal.Correction>
   9.000000E+99

> <Gold.Chemscore.Hbonds>
donor molecule, donor type, donor heavy atom, donor atom, acceptor molecule, acceptor atom, score
      L1  H     7    38       P1 10186  0.81
      L1  H     9    27       P1 10175  0.37
      L1  H    13    29       P1  7957  0.88

> <Gold.Chemscore.Hbond.Weighted>
-8.5225

> <Gold.Chemscore.Metal.Weighted>
-0.0000

> <Gold.Chemscore.Lipo.Weighted>
-6.1798

> <Gold.Chemscore.Internal_Hbond.Weighted>
0.0000

> <Gold.Chemscore.DEClash.Weighted>
1.3919

> <Gold.Chemscore.DEInternal.Weighted>
0.5080

> <Gold.Chemscore.Rot.Weighted>
5.1589

> <Gold.Chemscore.Internal.Correction.Weighted>
   9.000000E+99

> <Gold.Protein.RotatedTorsions>
[ 6907 6896 6895 6894 ] final   94.86 input  -60.11 | X-H torsion
[ 7974 7965 7964 7962 ] final  -88.10 input  175.53 | X-H torsion
[ 8008 7997 7996 7995 ] final   25.41 input   59.86 | X-H torsion
[ 10167 10162 10161 10158 ] final -147.26 input  -65.29 | X-H torsion
[ 10718 10713 10712 10709 ] final -135.15 input   66.30 | X-H torsion
[ 10763 10752 10751 10750 ] final -157.28 input  -60.55 | X-H torsion
[ 11005 11000 10999 10996 ] final  173.31 input  -57.11 | X-H torsion

> <Gold.Protein.ActiveResidues>
 VAL166  LYS551  ARG553  GLY616  TRP617  ASP618  TYR619  PRO620  LYS621  CYS622 
 ASP623  PHE694  ASN695  SER759  ASP760  ASP761  ALA762  ILE779  LEU786  VAL792 
 PHE793  MET794  SER795  GLU796  ALA797  LYS798  CYS799  TRP800  GLU811  SER814 

> <Gold.Protein.RotatedAtoms>
  152.5447  134.1129  159.8365 H   0  0  0  0  0  0  0  0  0  0  0  0  # atno 6907 bound_to 6896
  151.1193  133.5108  159.2610 H   0  0  0  0  0  0  0  0  0  0  0  0  # atno 6908 bound_to 6896
  151.1796  135.0365  159.8841 H   0  0  0  0  0  0  0  0  0  0  0  0  # atno 6909 bound_to 6896
  145.4577  140.9561  143.1987 H   0  0  0  0  0  0  0  0  0  0  0  0  # atno 7974 bound_to 7965
  155.0113  140.3137  155.4829 H   0  0  0  0  0  0  0  0  0  0  0  0  # atno 8008 bound_to 7997
  156.2908  140.2214  156.5169 H   0  0  0  0  0  0  0  0  0  0  0  0  # atno 8009 bound_to 7997
  154.7532  140.0464  157.0899 H   0  0  0  0  0  0  0  0  0  0  0  0  # atno 8010 bound_to 7997
  139.7638  143.8338  152.2612 H   0  0  0  0  0  0  0  0  0  0  0  0  # atno 10167 bound_to 10162
  156.2631  130.7221  151.1163 H   0  0  0  0  0  0  0  0  0  0  0  0  # atno 10718 bound_to 10713
  154.7648  135.3128  154.8308 H   0  0  0  0  0  0  0  0  0  0  0  0  # atno 10763 bound_to 10752
  153.9059  135.6811  153.4757 H   0  0  0  0  0  0  0  0  0  0  0  0  # atno 10764 bound_to 10752
  153.1252  135.4804  154.9194 H   0  0  0  0  0  0  0  0  0  0  0  0  # atno 10765 bound_to 10752
  140.3392  134.7291  157.4190 H   0  0  0  0  0  0  0  0  0  0  0  0  # atno 11005 bound_to 11000
  144.8022  139.6119  143.7066 LP  0  0  0  0  0  0  0  0  0  0  0  0  # atno 17320 bound_to 7965
  146.2469  139.6117  142.9454 LP  0  0  0  0  0  0  0  0  0  0  0  0  # atno 17321 bound_to 7965
  139.8352  144.7235  150.9400 LP  0  0  0  0  0  0  0  0  0  0  0  0  # atno 17342 bound_to 10162
  140.7809  143.4033  151.1112 LP  0  0  0  0  0  0  0  0  0  0  0  0  # atno 17343 bound_to 10162
  157.7258  131.0651  150.5939 LP  0  0  0  0  0  0  0  0  0  0  0  0  # atno 17370 bound_to 10713
  156.6028  130.4359  149.5890 LP  0  0  0  0  0  0  0  0  0  0  0  0  # atno 17371 bound_to 10713
  140.0796  134.5750  155.8555 LP  0  0  0  0  0  0  0  0  0  0  0  0  # atno 17394 bound_to 11000
  141.2043  133.6638  156.6113 LP  0  0  0  0  0  0  0  0  0  0  0  0  # atno 17395 bound_to 11000

$$$$
