AV-unprocessed.smi:1086|AV-procd|sdf|4724|dock4
  -GOLD-   22720 3253D 1   1.00000     0.00000
 Structure written by MMmdl.
 41 42  0  0  0  0  0  0  0  0  1 V2000
  147.7313  129.4452  153.4519 C   0  0  0  0  0  0  0  0  0  0  0  0
  148.7277  129.8915  154.3654 O   0  0  0  0  0  0  0  0  0  0  0  0
  149.0394  131.2356  154.3884 C   0  0  0  0  0  0  0  0  0  0  0  0
  150.0254  131.6841  155.2895 C   0  0  0  0  0  0  0  0  0  0  0  0
  150.3453  133.0551  155.3235 C   0  0  0  0  0  0  0  0  0  0  0  0
  149.6593  133.9387  154.4565 C   0  0  0  0  0  0  0  0  0  0  0  0
  149.8946  135.3385  154.3870 N   0  0  0  0  0  0  0  0  0  0  0  0
  150.7804  136.0742  155.0802 C   0  0  0  0  0  0  0  0  0  0  0  0
  151.5759  135.6368  155.9114 O   0  0  0  0  0  0  0  0  0  0  0  0
  150.6823  137.3743  154.7649 N   0  0  0  0  0  0  0  0  0  0  0  0
  151.5025  138.4415  155.3363 C   0  0  0  0  0  0  0  0  0  0  0  0
  150.7742  139.7967  155.4184 C   0  0  0  0  0  0  0  0  0  0  0  0
  150.3155  140.2925  154.3870 O   0  0  0  0  0  0  0  0  0  0  0  0
  150.6551  140.4039  156.6244 N   0  0  0  0  0  0  0  0  0  0  0  0
  151.1996  139.9003  157.8929 C   0  0  0  0  0  0  0  0  0  0  0  0
  152.3832  140.7924  158.3084 C   0  0  0  0  0  0  0  0  0  0  0  0
  151.9471  142.2667  158.4135 C   0  0  0  0  0  0  0  0  0  0  0  0
  151.1890  142.7303  157.1543 C   0  0  0  0  0  0  0  0  0  0  0  0
  150.0679  141.7405  156.7852 C   0  0  0  0  0  0  0  0  0  0  0  0
  148.7026  133.3863  153.5800 C   0  0  0  0  0  0  0  0  0  0  0  0
  148.3906  132.0739  153.5431 N   0  0  0  0  0  0  0  0  0  0  0  0
  147.6000  128.3685  153.5585 H   0  0  0  0  0  0  0  0  0  0  0  0
  148.0203  129.6423  152.4185 H   0  0  0  0  0  0  0  0  0  0  0  0
  146.7678  129.9168  153.6510 H   0  0  0  0  0  0  0  0  0  0  0  0
  150.5302  130.9874  155.9423 H   0  0  0  0  0  0  0  0  0  0  0  0
  151.1132  133.3941  156.0010 H   0  0  0  0  0  0  0  0  0  0  0  0
  149.2643  135.8529  153.7893 H   0  0  0  0  0  0  0  0  0  0  0  0
  150.0036  137.6462  154.0690 H   0  0  0  0  0  0  0  0  0  0  0  0
  151.7971  138.1375  156.3409 H   0  0  0  0  0  0  0  0  0  0  0  0
  152.4173  138.5441  154.7502 H   0  0  0  0  0  0  0  0  0  0  0  0
  150.4209  139.9397  158.6561 H   0  0  0  0  0  0  0  0  0  0  0  0
  151.5094  138.8571  157.8566 H   0  0  0  0  0  0  0  0  0  0  0  0
  152.7925  140.4552  159.2611 H   0  0  0  0  0  0  0  0  0  0  0  0
  153.1851  140.6982  157.5747 H   0  0  0  0  0  0  0  0  0  0  0  0
  151.2980  142.3841  159.2822 H   0  0  0  0  0  0  0  0  0  0  0  0
  152.8138  142.9050  158.5883 H   0  0  0  0  0  0  0  0  0  0  0  0
  150.7743  143.7261  157.3134 H   0  0  0  0  0  0  0  0  0  0  0  0
  151.8866  142.8148  156.3197 H   0  0  0  0  0  0  0  0  0  0  0  0
  149.5484  142.0870  155.8908 H   0  0  0  0  0  0  0  0  0  0  0  0
  149.3140  141.7135  157.5732 H   0  0  0  0  0  0  0  0  0  0  0  0
  148.1629  134.0178  152.8893 H   0  0  0  0  0  0  0  0  0  0  0  0
  1  2  1  0  0  0  0
  1 22  1  0  0  0  0
  1 23  1  0  0  0  0
  1 24  1  0  0  0  0
  2  3  1  0  0  0  0
  3 21  1  0  0  0  0
  3  4  2  0  0  0  0
  4  5  1  0  0  0  0
  4 25  1  0  0  0  0
  5  6  2  0  0  0  0
  5 26  1  0  0  0  0
  6  7  1  0  0  0  0
  6 20  1  0  0  0  0
  7  8  1  0  0  0  0
  7 27  1  0  0  0  0
  8  9  2  0  0  0  0
  8 10  1  0  0  0  0
 10 11  1  0  0  0  0
 10 28  1  0  0  0  0
 11 12  1  0  0  0  0
 11 29  1  0  0  0  0
 11 30  1  0  0  0  0
 12 13  2  0  0  0  0
 12 14  1  0  0  0  0
 14 19  1  0  0  0  0
 14 15  1  0  0  0  0
 15 16  1  0  0  0  0
 15 31  1  0  0  0  0
 15 32  1  0  0  0  0
 16 17  1  0  0  0  0
 16 33  1  0  0  0  0
 16 34  1  0  0  0  0
 17 18  1  0  0  0  0
 17 35  1  0  0  0  0
 17 36  1  0  0  0  0
 18 19  1  0  0  0  0
 18 37  1  0  0  0  0
 18 38  1  0  0  0  0
 19 39  1  0  0  0  0
 19 40  1  0  0  0  0
 20 21  2  0  0  0  0
 20 41  1  0  0  0  0
M  END
> <s_m_source_file>
AV-unprocessed.smi

> <i_m_source_file_index>
1086

> <i_lp_mmshare_version>
43012

> <i_f3d_flags>
0

> <s_epik_input>
W0NIM11PYzFbY0hdW2NIXWMoW2NIXW4xKVtOSF1DKD1PKVtOSF1bQ0gyXUMoPU8pTjJbQ0gyXVtDSDJdW0NIMl1bQ0gyXVtDSDJdMg==

> <s_epik_cmdline>
J2VwaWtfcHl0aG9uJywgJy1waCcsICc3LjAnLCAnLXRuJywgJzgnLCAnLW1hJywgJzIwMCcsICctbWV0YWxfYmluZGluZycsICctaW1hZScsICc8aW5maWxlLm1hZT4nLCAnLW9tYWUnLCAnPG91dGZpbGUubWFlPic=

> <r_lp_tautomer_probability>
1

> <r_epik_Ionization_Penalty>
0.0001417

> <r_epik_Ionization_Penalty_Charging>
0

> <r_epik_Ionization_Penalty_Neutral>
0.0001417

> <r_epik_State_Penalty>
-0

> <r_epik_Charging_Adjusted_Penalty>
0

> <i_epik_Tot_Q>
0

> <i_epik_Tot_abs_Q>
0

> <r_epik_Metal_State_Penalty>
-0

> <b_epik_Metal_Only>
0

> <s_lp_Force_Field>
OPLS_2005

> <r_lp_Energy>
23.1479

> <b_lp_Chiralities_Consistent>
1

> <s_lp_Variant>
AV-unprocessed.smi:1086-1

> <Gold.Version>
5.8.1

> <Gold.Id.Protein>
6NUR|6NUR_protein|mol2

> <Gold.PLP.Fitness>
45.6872

> <Gold.PLP.PLP>
-35.0693

> <Gold.PLP.part.hbond>
-3.5028

> <Gold.PLP.part.metal>
0.0000

> <Gold.PLP.part.buried>
-5.0135

> <Gold.PLP.part.nonpolar>
-27.5750

> <Gold.PLP.part.repulsive>
0.4358

> <Gold.PLP.ligand.clash>
0.0000

> <Gold.PLP.ligand.torsion>
0.2017

> <Gold.PLP.Chemscore.Hbond>
2.8480

> <Gold.PLP.Chemscore.CHOScore>
0.8188

> <Gold.PLP.Chemscore.Metal>
0.0000

> <Gold.Chemscore.Hbonds>
donor molecule, donor type, donor heavy atom, donor atom, acceptor molecule, acceptor atom, score
      L1  H     7    27       P1  7948  0.77
      P1  H  7989  7998       L1    13  1.00
      P1  H 10752 10765       L1     9  1.00
      L1  C    20    41       P1  7948  0.89

> <Gold.PLP.Chemscore.Internal.Correction>
0.0208

> <Gold.Rescore>
     Score         DG    S(hbond)    S(metal)    S(lipo)     H(rot)  DE(clash)    DE(int)     intcor
     15.42     -17.05       2.19        0.00      70.24       1.55       0.17       1.46       ----

> <Gold.Chemscore.Fitness>
15.4201

> <Gold.Chemscore.DG>
-17.0460

> <Gold.Chemscore.ZeroCoef>
-5.4800

> <Gold.Chemscore.Hbond>
2.1920

> <Gold.Chemscore.Metal>
0.0000

> <Gold.Chemscore.Lipo>
70.2393

> <Gold.Chemscore.Internal_Hbond>
0.0000

> <Gold.Chemscore.DEClash>
0.1651

> <Gold.Chemscore.DEInternal>
1.4608

> <Gold.Chemscore.Rot>
1.5521

> <Gold.Chemscore.Internal.Correction>
   9.000000E+99

> <Gold.Chemscore.Hbonds>
donor molecule, donor type, donor heavy atom, donor atom, acceptor molecule, acceptor atom, score
      L1  H     7    27       P1  7948  0.57
      P1  H  7989  7998       L1    13  0.63
      P1  H 10752 10765       L1     9  0.64

> <Gold.Chemscore.Hbond.Weighted>
-7.3214

> <Gold.Chemscore.Metal.Weighted>
-0.0000

> <Gold.Chemscore.Lipo.Weighted>
-8.2180

> <Gold.Chemscore.Internal_Hbond.Weighted>
0.0000

> <Gold.Chemscore.DEClash.Weighted>
0.1651

> <Gold.Chemscore.DEInternal.Weighted>
1.4608

> <Gold.Chemscore.Rot.Weighted>
3.9734

> <Gold.Chemscore.Internal.Correction.Weighted>
   9.000000E+99

> <Gold.Protein.RotatedTorsions>
[ 6907 6896 6895 6894 ] final  142.95 input  -60.11 | X-H torsion
[ 7974 7965 7964 7962 ] final -174.26 input  175.53 | X-H torsion
[ 8008 7997 7996 7995 ] final  -45.90 input   59.86 | X-H torsion
[ 10167 10162 10161 10158 ] final   85.78 input  -65.29 | X-H torsion
[ 10718 10713 10712 10709 ] final  -44.14 input   66.30 | X-H torsion
[ 10763 10752 10751 10750 ] final -145.04 input  -60.55 | X-H torsion
[ 11005 11000 10999 10996 ] final  -87.13 input  -57.11 | X-H torsion

> <Gold.Protein.ActiveResidues>
 VAL166  LYS551  ARG553  GLY616  TRP617  ASP618  TYR619  PRO620  LYS621  CYS622 
 ASP623  PHE694  ASN695  SER759  ASP760  ASP761  ALA762  ILE779  LEU786  VAL792 
 PHE793  MET794  SER795  GLU796  ALA797  LYS798  CYS799  TRP800  GLU811  SER814 

> <Gold.Protein.RotatedAtoms>
  152.2123  133.4920  159.5116 H   0  0  0  0  0  0  0  0  0  0  0  0  # atno 6907 bound_to 6896
  150.6993  134.1451  159.4128 H   0  0  0  0  0  0  0  0  0  0  0  0  # atno 6908 bound_to 6896
  151.9370  135.0230  160.0584 H   0  0  0  0  0  0  0  0  0  0  0  0  # atno 6909 bound_to 6896
  144.7133  140.1499  143.6385 H   0  0  0  0  0  0  0  0  0  0  0  0  # atno 7974 bound_to 7965
  154.4003  140.1385  156.3923 H   0  0  0  0  0  0  0  0  0  0  0  0  # atno 8008 bound_to 7997
  155.7902  140.3479  155.5325 H   0  0  0  0  0  0  0  0  0  0  0  0  # atno 8009 bound_to 7997
  155.8587  140.0953  157.1618 H   0  0  0  0  0  0  0  0  0  0  0  0  # atno 8010 bound_to 7997
  139.8943  144.6367  150.8705 H   0  0  0  0  0  0  0  0  0  0  0  0  # atno 10167 bound_to 10162
  156.2417  130.4180  149.8753 H   0  0  0  0  0  0  0  0  0  0  0  0  # atno 10718 bound_to 10713
  154.8401  135.3424  154.6441 H   0  0  0  0  0  0  0  0  0  0  0  0  # atno 10763 bound_to 10752
  153.7053  135.6967  153.5056 H   0  0  0  0  0  0  0  0  0  0  0  0  # atno 10764 bound_to 10752
  153.2492  135.4359  155.0734 H   0  0  0  0  0  0  0  0  0  0  0  0  # atno 10765 bound_to 10752
  141.1621  133.7494  156.9262 H   0  0  0  0  0  0  0  0  0  0  0  0  # atno 11005 bound_to 11000
  145.9126  139.2496  143.1428 LP  0  0  0  0  0  0  0  0  0  0  0  0  # atno 17320 bound_to 7965
  145.9701  140.8767  143.0167 LP  0  0  0  0  0  0  0  0  0  0  0  0  # atno 17321 bound_to 7965
  140.7720  143.3486  151.2061 LP  0  0  0  0  0  0  0  0  0  0  0  0  # atno 17342 bound_to 10162
  139.7082  143.9420  152.2936 LP  0  0  0  0  0  0  0  0  0  0  0  0  # atno 17343 bound_to 10162
  156.6332  130.8674  151.3499 LP  0  0  0  0  0  0  0  0  0  0  0  0  # atno 17370 bound_to 10713
  157.7178  130.9519  150.1320 LP  0  0  0  0  0  0  0  0  0  0  0  0  # atno 17371 bound_to 10713
  140.1417  134.9289  157.2476 LP  0  0  0  0  0  0  0  0  0  0  0  0  # atno 17394 bound_to 11000
  140.2828  134.3330  155.7338 LP  0  0  0  0  0  0  0  0  0  0  0  0  # atno 17395 bound_to 11000

$$$$
