AV-unprocessed.smi:912|AV-procd|sdf|4142|dock3
  -GOLD-   22720 2 43D 1   1.00000     0.00000
 Structure written by MMmdl.
 27 27  0  0  0  0  0  0  0  0  2 V2000
  146.5660  138.7337  151.9797 C   0  0  0  0  0  0  0  0  0  0  0  0
  147.9535  138.6009  152.4827 N   0  3  0  0  0  0  0  0  0  0  0  0
  148.2018  138.8406  153.9344 C   0  0  1  0  0  0  0  0  0  0  0  0
  147.5570  137.7083  154.7761 C   0  0  0  0  0  0  0  0  0  0  0  0
  149.7356  138.9100  154.1493 C   0  0  0  0  0  0  0  0  0  0  0  0
  150.4625  137.8350  153.8210 N   0  0  0  0  0  0  0  0  0  0  0  0
  150.2641  139.9153  154.6206 O   0  0  0  0  0  0  0  0  0  0  0  0
  147.5879  140.1896  154.3662 C   0  0  0  0  0  0  0  0  0  0  0  0
  147.9609  141.4244  153.7758 C   0  0  0  0  0  0  0  0  0  0  0  0
  147.3488  142.6115  154.2262 C   0  0  0  0  0  0  0  0  0  0  0  0
  146.4157  142.6444  155.1990 N   0  0  0  0  0  0  0  0  0  0  0  0
  146.0557  141.4737  155.7626 C   0  0  0  0  0  0  0  0  0  0  0  0
  146.6055  140.2330  155.3856 C   0  0  0  0  0  0  0  0  0  0  0  0
  146.5341  138.4313  150.9332 H   0  0  0  0  0  0  0  0  0  0  0  0
  146.2183  139.7653  152.0292 H   0  0  0  0  0  0  0  0  0  0  0  0
  145.8687  138.1002  152.5277 H   0  0  0  0  0  0  0  0  0  0  0  0
  148.2712  137.6655  152.2733 H   0  0  0  0  0  0  0  0  0  0  0  0
  147.6921  137.8671  155.8463 H   0  0  0  0  0  0  0  0  0  0  0  0
  147.9823  136.7284  154.5582 H   0  0  0  0  0  0  0  0  0  0  0  0
  146.4837  137.6475  154.5930 H   0  0  0  0  0  0  0  0  0  0  0  0
  151.4609  137.8267  153.9718 H   0  0  0  0  0  0  0  0  0  0  0  0
  150.0010  137.0178  153.4470 H   0  0  0  0  0  0  0  0  0  0  0  0
  148.6986  141.4942  152.9912 H   0  0  0  0  0  0  0  0  0  0  0  0
  147.6186  143.5624  153.7914 H   0  0  0  0  0  0  0  0  0  0  0  0
  145.3073  141.5261  156.5395 H   0  0  0  0  0  0  0  0  0  0  0  0
  146.2753  139.3318  155.8815 H   0  0  0  0  0  0  0  0  0  0  0  0
  148.5272  139.2508  151.9644 H   0  0  0  0  0  0  0  0  0  0  0  0
  1  2  1  0  0  0  0
  1 14  1  0  0  0  0
  1 15  1  0  0  0  0
  1 16  1  0  0  0  0
  2  3  1  0  0  0  0
  2 17  1  0  0  0  0
  2 27  1  0  0  0  0
  3  4  1  0  0  0  0
  3  5  1  0  0  0  0
  3  8  1  0  0  0  0
  4 18  1  0  0  0  0
  4 19  1  0  0  0  0
  4 20  1  0  0  0  0
  5  6  1  0  0  0  0
  5  7  2  0  0  0  0
  6 21  1  0  0  0  0
  6 22  1  0  0  0  0
  8 13  1  0  0  0  0
  8  9  2  0  0  0  0
  9 10  1  0  0  0  0
  9 23  1  0  0  0  0
 10 11  2  0  0  0  0
 10 24  1  0  0  0  0
 11 12  1  0  0  0  0
 12 13  2  0  0  0  0
 12 25  1  0  0  0  0
 13 26  1  0  0  0  0
M  CHG  1   2   1
M  END
> <s_m_source_file>
AV-unprocessed.smi

> <i_m_source_file_index>
912

> <i_lp_mmshare_version>
43012

> <i_f3d_flags>
0

> <s_epik_input>
W0NIM11bTkhdW0NAQF0oW0NIM10pKEMoPU8pW05IMl0pYzFbY0hdW2NIXW5bY0hdW2NIXTE=

> <s_epik_cmdline>
J2VwaWtfcHl0aG9uJywgJy1waCcsICc3LjAnLCAnLXRuJywgJzgnLCAnLW1hJywgJzIwMCcsICctbWV0YWxfYmluZGluZycsICctaW1hZScsICc8aW5maWxlLm1hZT4nLCAnLW9tYWUnLCAnPG91dGZpbGUubWFlPic=

> <r_epik_Ionization_Penalty>
0.8426

> <r_epik_Ionization_Penalty_Charging>
0.842363

> <r_epik_Ionization_Penalty_Neutral>
0.000236815

> <r_epik_State_Penalty>
0.498415

> <r_epik_Charging_Adjusted_Penalty>
1.34078

> <i_epik_Tot_Q>
1

> <i_epik_Tot_abs_Q>
1

> <r_epik_Metal_State_Penalty>
0.661775

> <b_epik_Metal_Only>
0

> <s_lp_Force_Field>
OPLS_2005

> <r_lp_Energy>
11.5285

> <b_lp_Chiralities_Consistent>
1

> <s_lp_Variant>
AV-unprocessed.smi:912-3

> <Gold.Version>
5.8.1

> <Gold.Id.Protein>
6NUR|6NUR_protein|mol2

> <Gold.PLP.Fitness>
38.0507

> <Gold.PLP.PLP>
-21.9308

> <Gold.PLP.part.hbond>
-4.8808

> <Gold.PLP.part.metal>
0.0000

> <Gold.PLP.part.buried>
-2.7169

> <Gold.PLP.part.nonpolar>
-16.2628

> <Gold.PLP.part.repulsive>
0.4213

> <Gold.PLP.ligand.clash>
0.0000

> <Gold.PLP.ligand.torsion>
0.0747

> <Gold.PLP.Chemscore.Hbond>
4.9199

> <Gold.PLP.Chemscore.CHOScore>
0.4991

> <Gold.PLP.Chemscore.Metal>
0.0000

> <Gold.Chemscore.Hbonds>
donor molecule, donor type, donor heavy atom, donor atom, acceptor molecule, acceptor atom, score
      L1  H     2    17       P1  7948  2.00
      L1  H     2    27       P1  7957  1.00
      L1  H     6    22       P1  7948  0.91
      P1  H  7989  7998       L1     7  1.00
      L1  C    10    24       P1  8028  0.49

> <Gold.PLP.Chemscore.Internal.Correction>
0.0123

> <Gold.Rescore>
     Score         DG    S(hbond)    S(metal)    S(lipo)     H(rot)  DE(clash)    DE(int)     intcor
     15.18     -16.40       3.28        0.00      39.84       1.83       0.05       1.17       ----

> <Gold.Chemscore.Fitness>
15.1841

> <Gold.Chemscore.DG>
-16.4046

> <Gold.Chemscore.ZeroCoef>
-5.4800

> <Gold.Chemscore.Hbond>
3.2757

> <Gold.Chemscore.Metal>
0.0000

> <Gold.Chemscore.Lipo>
39.8356

> <Gold.Chemscore.Internal_Hbond>
0.0000

> <Gold.Chemscore.DEClash>
0.0474

> <Gold.Chemscore.DEInternal>
1.1731

> <Gold.Chemscore.Rot>
1.8270

> <Gold.Chemscore.Internal.Correction>
   9.000000E+99

> <Gold.Chemscore.Hbonds>
donor molecule, donor type, donor heavy atom, donor atom, acceptor molecule, acceptor atom, score
      L1  H     2    17       P1  7948  0.99
      L1  H     2    27       P1  7957  0.94
      L1  H     6    22       P1  7948  0.21
      P1  H  7989  7998       L1     7  0.91

> <Gold.Chemscore.Hbond.Weighted>
-10.9410

> <Gold.Chemscore.Metal.Weighted>
-0.0000

> <Gold.Chemscore.Lipo.Weighted>
-4.6608

> <Gold.Chemscore.Internal_Hbond.Weighted>
0.0000

> <Gold.Chemscore.DEClash.Weighted>
0.0474

> <Gold.Chemscore.DEInternal.Weighted>
1.1731

> <Gold.Chemscore.Rot.Weighted>
4.6771

> <Gold.Chemscore.Internal.Correction.Weighted>
   9.000000E+99

> <Gold.Protein.RotatedTorsions>
[ 6907 6896 6895 6894 ] final    8.82 input  -60.11 | X-H torsion
[ 7974 7965 7964 7962 ] final   -7.38 input  175.53 | X-H torsion
[ 8008 7997 7996 7995 ] final -145.99 input   59.86 | X-H torsion
[ 10167 10162 10161 10158 ] final -153.18 input  -65.29 | X-H torsion
[ 10718 10713 10712 10709 ] final  120.68 input   66.30 | X-H torsion
[ 10763 10752 10751 10750 ] final  131.21 input  -60.55 | X-H torsion
[ 11005 11000 10999 10996 ] final   49.33 input  -57.11 | X-H torsion

> <Gold.Protein.ActiveResidues>
 VAL166  LYS551  ARG553  GLY616  TRP617  ASP618  TYR619  PRO620  LYS621  CYS622 
 ASP623  PHE694  ASN695  SER759  ASP760  ASP761  ALA762  ILE779  LEU786  VAL792 
 PHE793  MET794  SER795  GLU796  ALA797  LYS798  CYS799  TRP800  GLU811  SER814 

> <Gold.Protein.RotatedAtoms>
  151.7122  135.0910  160.0269 H   0  0  0  0  0  0  0  0  0  0  0  0  # atno 6907 bound_to 6896
  152.3654  133.6346  159.6055 H   0  0  0  0  0  0  0  0  0  0  0  0  # atno 6908 bound_to 6896
  150.7634  133.9272  159.3457 H   0  0  0  0  0  0  0  0  0  0  0  0  # atno 6909 bound_to 6896
  146.2308  140.2311  142.8340 H   0  0  0  0  0  0  0  0  0  0  0  0  # atno 7974 bound_to 7965
  155.5521  140.0617  157.2847 H   0  0  0  0  0  0  0  0  0  0  0  0  # atno 8008 bound_to 7997
  154.4417  140.1900  156.0742 H   0  0  0  0  0  0  0  0  0  0  0  0  # atno 8009 bound_to 7997
  156.0508  140.3284  155.7353 H   0  0  0  0  0  0  0  0  0  0  0  0  # atno 8010 bound_to 7997
  139.7119  143.9096  152.2471 H   0  0  0  0  0  0  0  0  0  0  0  0  # atno 10167 bound_to 10162
  157.5873  131.1068  150.8069 H   0  0  0  0  0  0  0  0  0  0  0  0  # atno 10718 bound_to 10713
  153.7707  135.3182  155.3351 H   0  0  0  0  0  0  0  0  0  0  0  0  # atno 10763 bound_to 10752
  154.8197  135.4612  154.0747 H   0  0  0  0  0  0  0  0  0  0  0  0  # atno 10764 bound_to 10752
  153.2006  135.6922  153.8321 H   0  0  0  0  0  0  0  0  0  0  0  0  # atno 10765 bound_to 10752
  140.1113  134.4951  155.8676 H   0  0  0  0  0  0  0  0  0  0  0  0  # atno 11005 bound_to 11000
  144.9557  140.8224  143.5544 LP  0  0  0  0  0  0  0  0  0  0  0  0  # atno 17320 bound_to 7965
  145.2277  139.2129  143.5059 LP  0  0  0  0  0  0  0  0  0  0  0  0  # atno 17321 bound_to 7965
  139.8967  144.6935  150.8710 LP  0  0  0  0  0  0  0  0  0  0  0  0  # atno 17342 bound_to 10162
  140.7735  143.3545  151.1949 LP  0  0  0  0  0  0  0  0  0  0  0  0  # atno 17343 bound_to 10162
  156.8500  130.5077  149.5313 LP  0  0  0  0  0  0  0  0  0  0  0  0  # atno 17370 bound_to 10713
  156.0924  130.5906  150.9755 LP  0  0  0  0  0  0  0  0  0  0  0  0  # atno 17371 bound_to 10713
  141.2131  133.6728  156.6709 LP  0  0  0  0  0  0  0  0  0  0  0  0  # atno 17394 bound_to 11000
  140.3088  134.8103  157.4159 LP  0  0  0  0  0  0  0  0  0  0  0  0  # atno 17395 bound_to 11000

$$$$
