AV-unprocessed.smi:369|AV-procd|sdf|2435|dock1
  -GOLD-   2262022373D 1   1.00000     0.00000
 Structure written by MMmdl.
 50 51  0  0  0  0  0  0  0  0  1 V2000
  146.8797  133.5473  151.3984 C   0  0  0  0  0  0  0  0  0  0  0  0
  145.7421  134.4289  151.9662 C   0  0  0  0  0  0  0  0  0  0  0  0
  145.5867  135.6821  151.0808 C   0  0  0  0  0  0  0  0  0  0  0  0
  144.4269  133.6227  151.9337 C   0  0  0  0  0  0  0  0  0  0  0  0
  146.0129  134.8833  153.4212 C   0  0  0  0  0  0  0  0  0  0  0  0
  145.2210  134.5741  154.3132 O   0  0  0  0  0  0  0  0  0  0  0  0
  147.1149  135.6133  153.6661 N   0  0  0  0  0  0  0  0  0  0  0  0
  147.5280  136.1075  154.9765 C   0  0  0  0  0  0  0  0  0  0  0  0
  147.7772  137.6198  154.9853 C   0  0  0  0  0  0  0  0  0  0  0  0
  147.4860  138.2995  155.9705 O   0  0  0  0  0  0  0  0  0  0  0  0
  148.3522  138.1268  153.8843 N   0  0  0  0  0  0  0  0  0  0  0  0
  148.7160  139.5276  153.6906 C   0  0  0  0  0  0  0  0  0  0  0  0
  149.5671  140.1379  154.7987 C   0  0  0  0  0  0  0  0  0  0  0  0
  150.7650  139.5029  155.1808 C   0  0  0  0  0  0  0  0  0  0  0  0
  151.5404  140.0596  156.2157 C   0  0  0  0  0  0  0  0  0  0  0  0
  151.0975  141.2450  156.8484 C   0  0  0  0  0  0  0  0  0  0  0  0
  151.8529  141.8150  157.8960 N   0  0  0  0  0  0  0  0  0  0  0  0
  151.5169  143.1733  158.3199 C   0  0  0  0  0  0  0  0  0  0  0  0
  152.5984  143.7239  159.2646 C   0  0  0  0  0  0  0  0  0  0  0  0
  152.7756  142.8340  160.3615 O   0  0  0  0  0  0  0  0  0  0  0  0
  153.2108  141.5477  159.9344 C   0  0  0  0  0  0  0  0  0  0  0  0
  152.1535  140.9192  159.0103 C   0  0  0  0  0  0  0  0  0  0  0  0
  149.9498  141.8611  156.4732 N   0  0  0  0  0  0  0  0  0  0  0  0
  149.2090  141.3216  155.4826 C   0  0  0  0  0  0  0  0  0  0  0  0
  146.6556  133.2278  150.3801 H   0  0  0  0  0  0  0  0  0  0  0  0
  147.0258  132.6439  151.9926 H   0  0  0  0  0  0  0  0  0  0  0  0
  147.8295  134.0830  151.3619 H   0  0  0  0  0  0  0  0  0  0  0  0
  146.4960  136.2848  151.0800 H   0  0  0  0  0  0  0  0  0  0  0  0
  144.7691  136.3203  151.4191 H   0  0  0  0  0  0  0  0  0  0  0  0
  145.3761  135.4101  150.0460 H   0  0  0  0  0  0  0  0  0  0  0  0
  144.2002  133.2790  150.9239 H   0  0  0  0  0  0  0  0  0  0  0  0
  143.5757  134.2173  152.2685 H   0  0  0  0  0  0  0  0  0  0  0  0
  144.4839  132.7404  152.5726 H   0  0  0  0  0  0  0  0  0  0  0  0
  147.7234  135.8243  152.8884 H   0  0  0  0  0  0  0  0  0  0  0  0
  146.7343  135.8867  155.6904 H   0  0  0  0  0  0  0  0  0  0  0  0
  148.4155  135.5737  155.3218 H   0  0  0  0  0  0  0  0  0  0  0  0
  148.5584  137.4943  153.1245 H   0  0  0  0  0  0  0  0  0  0  0  0
  149.2760  139.5976  152.7579 H   0  0  0  0  0  0  0  0  0  0  0  0
  147.8202  140.1358  153.5531 H   0  0  0  0  0  0  0  0  0  0  0  0
  151.0875  138.5973  154.6883 H   0  0  0  0  0  0  0  0  0  0  0  0
  152.4643  139.5805  156.5031 H   0  0  0  0  0  0  0  0  0  0  0  0
  151.4282  143.8277  157.4518 H   0  0  0  0  0  0  0  0  0  0  0  0
  150.5499  143.1668  158.8247 H   0  0  0  0  0  0  0  0  0  0  0  0
  153.5435  143.8609  158.7364 H   0  0  0  0  0  0  0  0  0  0  0  0
  152.3015  144.7015  159.6447 H   0  0  0  0  0  0  0  0  0  0  0  0
  154.1733  141.6269  159.4263 H   0  0  0  0  0  0  0  0  0  0  0  0
  153.3650  140.9174  160.8102 H   0  0  0  0  0  0  0  0  0  0  0  0
  151.2351  140.7326  159.5683 H   0  0  0  0  0  0  0  0  0  0  0  0
  152.5159  139.9524  158.6641 H   0  0  0  0  0  0  0  0  0  0  0  0
  148.3033  141.8587  155.2443 H   0  0  0  0  0  0  0  0  0  0  0  0
  1  2  1  0  0  0  0
  1 25  1  0  0  0  0
  1 26  1  0  0  0  0
  1 27  1  0  0  0  0
  2  3  1  0  0  0  0
  2  4  1  0  0  0  0
  2  5  1  0  0  0  0
  3 28  1  0  0  0  0
  3 29  1  0  0  0  0
  3 30  1  0  0  0  0
  4 31  1  0  0  0  0
  4 32  1  0  0  0  0
  4 33  1  0  0  0  0
  5  6  2  0  0  0  0
  5  7  1  0  0  0  0
  7  8  1  0  0  0  0
  7 34  1  0  0  0  0
  8  9  1  0  0  0  0
  8 35  1  0  0  0  0
  8 36  1  0  0  0  0
  9 10  2  0  0  0  0
  9 11  1  0  0  0  0
 11 12  1  0  0  0  0
 11 37  1  0  0  0  0
 12 13  1  0  0  0  0
 12 38  1  0  0  0  0
 12 39  1  0  0  0  0
 13 24  1  0  0  0  0
 13 14  2  0  0  0  0
 14 15  1  0  0  0  0
 14 40  1  0  0  0  0
 15 16  2  0  0  0  0
 15 41  1  0  0  0  0
 16 17  1  0  0  0  0
 16 23  1  0  0  0  0
 17 22  1  0  0  0  0
 17 18  1  0  0  0  0
 18 19  1  0  0  0  0
 18 42  1  0  0  0  0
 18 43  1  0  0  0  0
 19 20  1  0  0  0  0
 19 44  1  0  0  0  0
 19 45  1  0  0  0  0
 20 21  1  0  0  0  0
 21 22  1  0  0  0  0
 21 46  1  0  0  0  0
 21 47  1  0  0  0  0
 22 48  1  0  0  0  0
 22 49  1  0  0  0  0
 23 24  2  0  0  0  0
 24 50  1  0  0  0  0
M  END
> <s_m_source_file>
AV-unprocessed.smi

> <i_m_source_file_index>
369

> <i_lp_mmshare_version>
43012

> <i_f3d_flags>
0

> <s_epik_input>
W0NIM11DKFtDSDNdKShbQ0gzXSlDKD1PKVtOSF1bQ0gyXUMoPU8pW05IXVtDSDJdYzFbY0hdW2NIXWMobltjSF0xKU4yW0NIMl1bQ0gyXU9bQ0gyXVtDSDJdMg==

> <s_epik_cmdline>
J2VwaWtfcHl0aG9uJywgJy1waCcsICc3LjAnLCAnLXRuJywgJzgnLCAnLW1hJywgJzIwMCcsICctbWV0YWxfYmluZGluZycsICctaW1hZScsICc8aW5maWxlLm1hZT4nLCAnLW9tYWUnLCAnPG91dGZpbGUubWFlPic=

> <r_lp_tautomer_probability>
1

> <r_epik_Ionization_Penalty>
0.00465227

> <r_epik_Ionization_Penalty_Charging>
0

> <r_epik_Ionization_Penalty_Neutral>
0.00465227

> <r_epik_State_Penalty>
0.0033653

> <r_epik_Charging_Adjusted_Penalty>
0.0033653

> <i_epik_Tot_Q>
0

> <i_epik_Tot_abs_Q>
0

> <r_epik_Metal_State_Penalty>
-0

> <b_epik_Metal_Only>
0

> <s_lp_Force_Field>
OPLS_2005

> <r_lp_Energy>
18.739

> <b_lp_Chiralities_Consistent>
1

> <s_lp_Variant>
AV-unprocessed.smi:369-1

> <Gold.Version>
5.8.1

> <Gold.Id.Protein>
6NUR|6NUR_protein|mol2

> <Gold.PLP.Fitness>
44.8509

> <Gold.PLP.PLP>
-38.5933

> <Gold.PLP.part.hbond>
-2.0000

> <Gold.PLP.part.metal>
0.0000

> <Gold.PLP.part.buried>
-0.7487

> <Gold.PLP.part.nonpolar>
-36.5723

> <Gold.PLP.part.repulsive>
0.6984

> <Gold.PLP.ligand.clash>
0.0000

> <Gold.PLP.ligand.torsion>
0.5912

> <Gold.PLP.Chemscore.Hbond>
2.0000

> <Gold.PLP.Chemscore.CHOScore>
0.3345

> <Gold.PLP.Chemscore.Metal>
0.0000

> <Gold.Chemscore.Hbonds>
donor molecule, donor type, donor heavy atom, donor atom, acceptor molecule, acceptor atom, score
      L1  H     7    34       P1  7948  1.00
      L1  H    11    37       P1  7948  1.00

> <Gold.PLP.Chemscore.Internal.Correction>
0.4366

> <Gold.Rescore>
     Score         DG    S(hbond)    S(metal)    S(lipo)     H(rot)  DE(clash)    DE(int)     intcor
     16.33     -18.52       2.00        0.00     100.40       2.10       1.67       0.52       ----

> <Gold.Chemscore.Fitness>
16.3350

> <Gold.Chemscore.DG>
-18.5215

> <Gold.Chemscore.ZeroCoef>
-5.4800

> <Gold.Chemscore.Hbond>
1.9994

> <Gold.Chemscore.Metal>
0.0000

> <Gold.Chemscore.Lipo>
100.3999

> <Gold.Chemscore.Internal_Hbond>
0.0000

> <Gold.Chemscore.DEClash>
1.6692

> <Gold.Chemscore.DEInternal>
0.5173

> <Gold.Chemscore.Rot>
2.1028

> <Gold.Chemscore.Internal.Correction>
   9.000000E+99

> <Gold.Chemscore.Hbonds>
donor molecule, donor type, donor heavy atom, donor atom, acceptor molecule, acceptor atom, score
      L1  H     7    34       P1  7948  1.00
      L1  H    11    37       P1  7948  1.00

> <Gold.Chemscore.Hbond.Weighted>
-6.6779

> <Gold.Chemscore.Metal.Weighted>
-0.0000

> <Gold.Chemscore.Lipo.Weighted>
-11.7468

> <Gold.Chemscore.Internal_Hbond.Weighted>
0.0000

> <Gold.Chemscore.DEClash.Weighted>
1.6692

> <Gold.Chemscore.DEInternal.Weighted>
0.5173

> <Gold.Chemscore.Rot.Weighted>
5.3832

> <Gold.Chemscore.Internal.Correction.Weighted>
   9.000000E+99

> <Gold.Protein.RotatedTorsions>
[ 6907 6896 6895 6894 ] final  -13.38 input  -60.11 | X-H torsion
[ 7974 7965 7964 7962 ] final   42.98 input  175.53 | X-H torsion
[ 8008 7997 7996 7995 ] final  144.64 input   59.86 | X-H torsion
[ 10167 10162 10161 10158 ] final   94.96 input  -65.29 | X-H torsion
[ 10718 10713 10712 10709 ] final   86.72 input   66.30 | X-H torsion
[ 10763 10752 10751 10750 ] final  -62.78 input  -60.55 | X-H torsion
[ 11005 11000 10999 10996 ] final  156.20 input  -57.11 | X-H torsion

> <Gold.Protein.ActiveResidues>
 VAL166  LYS551  ARG553  GLY616  TRP617  ASP618  TYR619  PRO620  LYS621  CYS622 
 ASP623  PHE694  ASN695  SER759  ASP760  ASP761  ALA762  ILE779  LEU786  VAL792 
 PHE793  MET794  SER795  GLU796  ALA797  LYS798  CYS799  TRP800  GLU811  SER814 

> <Gold.Protein.RotatedAtoms>
  151.3559  135.0894  159.9418 H   0  0  0  0  0  0  0  0  0  0  0  0  # atno 6907 bound_to 6896
  152.5175  133.9306  159.7589 H   0  0  0  0  0  0  0  0  0  0  0  0  # atno 6908 bound_to 6896
  150.9691  133.6309  159.2770 H   0  0  0  0  0  0  0  0  0  0  0  0  # atno 6909 bound_to 6896
  146.0694  139.5239  142.9607 H   0  0  0  0  0  0  0  0  0  0  0  0  # atno 7974 bound_to 7965
  156.2903  140.2230  156.5086 H   0  0  0  0  0  0  0  0  0  0  0  0  # atno 8008 bound_to 7997
  154.7628  140.0472  157.1009 H   0  0  0  0  0  0  0  0  0  0  0  0  # atno 8009 bound_to 7997
  154.9970  140.3097  155.4886 H   0  0  0  0  0  0  0  0  0  0  0  0  # atno 8010 bound_to 7997
  139.8034  144.6804  150.9735 H   0  0  0  0  0  0  0  0  0  0  0  0  # atno 10167 bound_to 10162
  157.6932  131.0227  150.3016 H   0  0  0  0  0  0  0  0  0  0  0  0  # atno 10718 bound_to 10713
  154.3051  135.6227  153.5441 H   0  0  0  0  0  0  0  0  0  0  0  0  # atno 10763 bound_to 10752
  152.9836  135.5688  154.5240 H   0  0  0  0  0  0  0  0  0  0  0  0  # atno 10764 bound_to 10752
  154.4878  135.2866  155.1496 H   0  0  0  0  0  0  0  0  0  0  0  0  # atno 10765 bound_to 10752
  140.1652  134.8581  157.2624 H   0  0  0  0  0  0  0  0  0  0  0  0  # atno 11005 bound_to 11000
  145.6418  141.0282  143.1808 LP  0  0  0  0  0  0  0  0  0  0  0  0  # atno 17320 bound_to 7965
  144.7222  139.7991  143.7377 LP  0  0  0  0  0  0  0  0  0  0  0  0  # atno 17321 bound_to 7965
  140.7820  143.4258  151.0770 LP  0  0  0  0  0  0  0  0  0  0  0  0  # atno 17342 bound_to 10162
  139.7929  143.8193  152.3154 LP  0  0  0  0  0  0  0  0  0  0  0  0  # atno 17343 bound_to 10162
  156.3531  130.3834  149.7313 LP  0  0  0  0  0  0  0  0  0  0  0  0  # atno 17370 bound_to 10713
  156.4784  130.8029  151.3045 LP  0  0  0  0  0  0  0  0  0  0  0  0  # atno 17371 bound_to 10713
  140.2442  134.3760  155.7468 LP  0  0  0  0  0  0  0  0  0  0  0  0  # atno 17394 bound_to 11000
  141.2213  133.7281  156.8835 LP  0  0  0  0  0  0  0  0  0  0  0  0  # atno 17395 bound_to 11000

$$$$
