AV-unprocessed.smi:1506|AV-procd|sdf|6079|dock4
  -GOLD-   22720 6203D 1   1.00000     0.00000
 Structure written by MMmdl.
 40 42  0  0  0  0  0  0  0  0  2 V2000
  146.2385  138.5800  152.4289 C   0  0  0  0  0  0  0  0  0  0  0  0
  147.1288  139.4010  153.3389 C   0  0  0  0  0  0  0  0  0  0  0  0
  146.9692  140.7985  153.4205 C   0  0  0  0  0  0  0  0  0  0  0  0
  147.8007  141.5514  154.2699 C   0  0  0  0  0  0  0  0  0  0  0  0
  148.7921  140.9130  155.0398 C   0  0  0  0  0  0  0  0  0  0  0  0
  148.9612  139.5070  154.9678 C   0  0  0  0  0  0  0  0  0  0  0  0
  149.9033  138.8015  155.6858 O   0  0  0  0  0  0  0  0  0  0  0  0
  150.3002  139.3077  156.9535 C   0  0  0  0  0  0  0  0  0  0  0  0
  151.8340  139.3496  157.0208 C   0  0  1  0  0  0  0  0  0  0  0  0
  152.3241  139.7701  155.7629 O   0  0  0  0  0  0  0  0  0  0  0  0
  152.3504  140.2851  158.1326 C   0  0  0  0  0  0  0  0  0  0  0  0
  151.8370  141.6566  158.0047 N   0  0  0  0  0  0  0  0  0  0  0  0
  151.1027  142.2159  157.0049 C   0  0  0  0  0  0  0  0  0  0  0  0
  150.8665  143.5137  157.3433 N   0  3  0  0  0  0  0  0  0  0  0  0
  151.4583  143.7888  158.5778 C   0  0  0  0  0  0  0  0  0  0  0  0
  151.4914  144.9587  159.3305 C   0  0  0  0  0  0  0  0  0  0  0  0
  152.1836  144.9025  160.5579 C   0  0  0  0  0  0  0  0  0  0  0  0
  152.8084  143.7165  160.9948 C   0  0  0  0  0  0  0  0  0  0  0  0
  152.7691  142.5363  160.2232 C   0  0  0  0  0  0  0  0  0  0  0  0
  152.0840  142.5998  159.0099 C   0  0  0  0  0  0  0  0  0  0  0  0
  148.1210  138.7646  154.1122 C   0  0  0  0  0  0  0  0  0  0  0  0
  145.7032  139.2138  151.7210 H   0  0  0  0  0  0  0  0  0  0  0  0
  145.5053  138.0289  153.0180 H   0  0  0  0  0  0  0  0  0  0  0  0
  146.8317  137.8637  151.8598 H   0  0  0  0  0  0  0  0  0  0  0  0
  146.2111  141.2969  152.8342 H   0  0  0  0  0  0  0  0  0  0  0  0
  147.6783  142.6228  154.3314 H   0  0  0  0  0  0  0  0  0  0  0  0
  149.4103  141.5258  155.6776 H   0  0  0  0  0  0  0  0  0  0  0  0
  149.9005  140.3156  157.0797 H   0  0  0  0  0  0  0  0  0  0  0  0
  149.9085  138.6840  157.7591 H   0  0  0  0  0  0  0  0  0  0  0  0
  152.2096  138.3403  157.1942 H   0  0  0  0  0  0  0  0  0  0  0  0
  151.6429  139.6497  155.1194 H   0  0  0  0  0  0  0  0  0  0  0  0
  152.1097  139.8974  159.1225 H   0  0  0  0  0  0  0  0  0  0  0  0
  153.4383  140.3484  158.0882 H   0  0  0  0  0  0  0  0  0  0  0  0
  150.7663  141.7190  156.1063 H   0  0  0  0  0  0  0  0  0  0  0  0
  151.0124  145.8683  158.9986 H   0  0  0  0  0  0  0  0  0  0  0  0
  152.2354  145.7864  161.1772 H   0  0  0  0  0  0  0  0  0  0  0  0
  153.3281  143.7113  161.9419 H   0  0  0  0  0  0  0  0  0  0  0  0
  153.2485  141.6337  160.5713 H   0  0  0  0  0  0  0  0  0  0  0  0
  148.2406  137.6928  154.0497 H   0  0  0  0  0  0  0  0  0  0  0  0
  150.3379  144.1609  156.7726 H   0  0  0  0  0  0  0  0  0  0  0  0
  1  2  1  0  0  0  0
  1 22  1  0  0  0  0
  1 23  1  0  0  0  0
  1 24  1  0  0  0  0
  2 21  1  0  0  0  0
  2  3  2  0  0  0  0
  3  4  1  0  0  0  0
  3 25  1  0  0  0  0
  4  5  2  0  0  0  0
  4 26  1  0  0  0  0
  5  6  1  0  0  0  0
  5 27  1  0  0  0  0
  6  7  1  0  0  0  0
  6 21  2  0  0  0  0
  7  8  1  0  0  0  0
  8  9  1  0  0  0  0
  8 28  1  0  0  0  0
  8 29  1  0  0  0  0
  9 10  1  0  0  0  0
  9 11  1  0  0  0  0
  9 30  1  0  0  0  0
 10 31  1  0  0  0  0
 11 12  1  0  0  0  0
 11 32  1  0  0  0  0
 11 33  1  0  0  0  0
 12 20  1  0  0  0  0
 12 13  1  0  0  0  0
 13 14  2  0  0  0  0
 13 34  1  0  0  0  0
 14 15  1  0  0  0  0
 14 40  1  0  0  0  0
 15 20  2  0  0  0  0
 15 16  1  0  0  0  0
 16 17  2  0  0  0  0
 16 35  1  0  0  0  0
 17 18  1  0  0  0  0
 17 36  1  0  0  0  0
 18 19  2  0  0  0  0
 18 37  1  0  0  0  0
 19 20  1  0  0  0  0
 19 38  1  0  0  0  0
 21 39  1  0  0  0  0
M  CHG  1  14   1
M  END
> <s_m_source_file>
AV-unprocessed.smi

> <i_m_source_file_index>
1506

> <i_lp_mmshare_version>
43012

> <i_f3d_flags>
0

> <s_epik_input>
W0NIM11jMVtjSF1bY0hdW2NIXWMoW2NIXTEpT1tDSDJdW0NASF0oW09IXSlbQ0gyXW4oW2NIXW4yKWMoYzIzKVtjSF1bY0hdW2NIXVtjSF0z

> <s_epik_cmdline>
J2VwaWtfcHl0aG9uJywgJy1waCcsICc3LjAnLCAnLXRuJywgJzgnLCAnLW1hJywgJzIwMCcsICctbWV0YWxfYmluZGluZycsICctaW1hZScsICc8aW5maWxlLm1hZT4nLCAnLW9tYWUnLCAnPG91dGZpbGUubWFlPic=

> <r_lp_tautomer_probability>
1

> <r_epik_Ionization_Penalty>
1.37864

> <r_epik_Ionization_Penalty_Charging>
1.37864

> <r_epik_Ionization_Penalty_Neutral>
2.3993e-06

> <r_epik_State_Penalty>
1.45896

> <r_epik_Charging_Adjusted_Penalty>
2.8376

> <i_epik_Tot_Q>
1

> <i_epik_Tot_abs_Q>
1

> <r_epik_Metal_State_Penalty>
5.49899

> <b_epik_Metal_Only>
0

> <s_lp_Force_Field>
OPLS_2005

> <r_lp_Energy>
20.0977

> <b_lp_Chiralities_Consistent>
1

> <s_lp_Variant>
AV-unprocessed.smi:1506-4

> <Gold.Version>
5.8.1

> <Gold.Id.Protein>
6NUR|6NUR_protein|mol2

> <Gold.PLP.Fitness>
54.8874

> <Gold.PLP.PLP>
-47.7556

> <Gold.PLP.part.hbond>
-2.3063

> <Gold.PLP.part.metal>
0.0000

> <Gold.PLP.part.buried>
-4.3132

> <Gold.PLP.part.nonpolar>
-42.3077

> <Gold.PLP.part.repulsive>
0.0487

> <Gold.PLP.ligand.clash>
0.0000

> <Gold.PLP.ligand.torsion>
0.9639

> <Gold.PLP.Chemscore.Hbond>
3.0000

> <Gold.PLP.Chemscore.CHOScore>
0.0000

> <Gold.PLP.Chemscore.Metal>
0.0000

> <Gold.Chemscore.Hbonds>
donor molecule, donor type, donor heavy atom, donor atom, acceptor molecule, acceptor atom, score
      L1  H    14    40       P1  8028  2.00
      P1  H  7997  8009       L1    10  0.83

> <Gold.PLP.Chemscore.Internal.Correction>
0.0595

> <Gold.Rescore>
     Score         DG    S(hbond)    S(metal)    S(lipo)     H(rot)  DE(clash)    DE(int)     intcor
     17.95     -21.22       1.87        0.00     131.00       2.27       0.28       2.99       ----

> <Gold.Chemscore.Fitness>
17.9469

> <Gold.Chemscore.DG>
-21.2249

> <Gold.Chemscore.ZeroCoef>
-5.4800

> <Gold.Chemscore.Hbond>
1.8669

> <Gold.Chemscore.Metal>
0.0000

> <Gold.Chemscore.Lipo>
130.9966

> <Gold.Chemscore.Internal_Hbond>
0.0000

> <Gold.Chemscore.DEClash>
0.2835

> <Gold.Chemscore.DEInternal>
2.9945

> <Gold.Chemscore.Rot>
2.2723

> <Gold.Chemscore.Internal.Correction>
   9.000000E+99

> <Gold.Chemscore.Hbonds>
donor molecule, donor type, donor heavy atom, donor atom, acceptor molecule, acceptor atom, score
      L1  H    14    40       P1  8028  0.98
      P1  H  7997  8009       L1    10  0.36

> <Gold.Chemscore.Hbond.Weighted>
-6.2353

> <Gold.Chemscore.Metal.Weighted>
-0.0000

> <Gold.Chemscore.Lipo.Weighted>
-15.3266

> <Gold.Chemscore.Internal_Hbond.Weighted>
0.0000

> <Gold.Chemscore.DEClash.Weighted>
0.2835

> <Gold.Chemscore.DEInternal.Weighted>
2.9945

> <Gold.Chemscore.Rot.Weighted>
5.8170

> <Gold.Chemscore.Internal.Correction.Weighted>
   9.000000E+99

> <Gold.Protein.RotatedTorsions>
[ 6907 6896 6895 6894 ] final   65.31 input  -60.11 | X-H torsion
[ 7974 7965 7964 7962 ] final  127.92 input  175.53 | X-H torsion
[ 8008 7997 7996 7995 ] final -150.24 input   59.86 | X-H torsion
[ 10167 10162 10161 10158 ] final    9.01 input  -65.29 | X-H torsion
[ 10718 10713 10712 10709 ] final   69.23 input   66.30 | X-H torsion
[ 10763 10752 10751 10750 ] final  105.83 input  -60.55 | X-H torsion
[ 11005 11000 10999 10996 ] final -176.24 input  -57.11 | X-H torsion

> <Gold.Protein.ActiveResidues>
 VAL166  LYS551  ARG553  GLY616  TRP617  ASP618  TYR619  PRO620  LYS621  CYS622 
 ASP623  PHE694  ASN695  SER759  ASP760  ASP761  ALA762  ILE779  LEU786  VAL792 
 PHE793  MET794  SER795  GLU796  ALA797  LYS798  CYS799  TRP800  GLU811  SER814 

> <Gold.Protein.RotatedAtoms>
  152.4398  134.5614  159.9894 H   0  0  0  0  0  0  0  0  0  0  0  0  # atno 6907 bound_to 6896
  151.5715  133.3383  159.2998 H   0  0  0  0  0  0  0  0  0  0  0  0  # atno 6908 bound_to 6896
  150.8302  134.7585  159.6911 H   0  0  0  0  0  0  0  0  0  0  0  0  # atno 6909 bound_to 6896
  145.0453  139.3928  143.5081 H   0  0  0  0  0  0  0  0  0  0  0  0  # atno 7974 bound_to 7965
  155.6203  140.0681  157.2680 H   0  0  0  0  0  0  0  0  0  0  0  0  # atno 8008 bound_to 7997
  154.4231  140.1785  156.1414 H   0  0  0  0  0  0  0  0  0  0  0  0  # atno 8009 bound_to 7997
  156.0014  140.3335  155.6853 H   0  0  0  0  0  0  0  0  0  0  0  0  # atno 8010 bound_to 7997
  140.6280  143.8057  150.7259 H   0  0  0  0  0  0  0  0  0  0  0  0  # atno 10167 bound_to 10162
  157.6334  130.9415  150.0485 H   0  0  0  0  0  0  0  0  0  0  0  0  # atno 10718 bound_to 10713
  153.3847  135.3897  155.1881 H   0  0  0  0  0  0  0  0  0  0  0  0  # atno 10763 bound_to 10752
  154.8712  135.3734  154.4813 H   0  0  0  0  0  0  0  0  0  0  0  0  # atno 10764 bound_to 10752
  153.5293  135.7086  153.5752 H   0  0  0  0  0  0  0  0  0  0  0  0  # atno 10765 bound_to 10752
  140.4543  134.6314  157.4815 H   0  0  0  0  0  0  0  0  0  0  0  0  # atno 11005 bound_to 11000
  146.3513  140.0075  142.8670 LP  0  0  0  0  0  0  0  0  0  0  0  0  # atno 17320 bound_to 7965
  145.1596  140.9666  143.4385 LP  0  0  0  0  0  0  0  0  0  0  0  0  # atno 17321 bound_to 7965
  140.1662  143.4233  152.2033 LP  0  0  0  0  0  0  0  0  0  0  0  0  # atno 17342 bound_to 10162
  139.5498  144.7328  151.4470 LP  0  0  0  0  0  0  0  0  0  0  0  0  # atno 17343 bound_to 10162
  156.1555  130.3643  149.9376 LP  0  0  0  0  0  0  0  0  0  0  0  0  # atno 17370 bound_to 10713
  156.7386  130.9071  151.3630 LP  0  0  0  0  0  0  0  0  0  0  0  0  # atno 17371 bound_to 10713
  139.9986  134.6871  155.9567 LP  0  0  0  0  0  0  0  0  0  0  0  0  # atno 17394 bound_to 11000
  141.1650  133.6537  156.4448 LP  0  0  0  0  0  0  0  0  0  0  0  0  # atno 17395 bound_to 11000

$$$$
