AV-unprocessed.smi:3287|AV-procd|sdf|12598|dock10
  -GOLD-   2272018523D 1   1.00000     0.00000
 Structure written by MMmdl.
 43 44  0  0  0  0  0  0  0  0  2 V2000
  153.6814  142.3572  160.4936 C   0  0  0  0  0  0  0  0  0  0  0  0
  152.2985  142.2533  159.8296 C   0  0  2  0  0  0  0  0  0  0  0  0
  152.2798  141.1992  158.7054 C   0  0  0  0  0  0  0  0  0  0  0  0
  150.8741  141.0378  158.1048 C   0  0  0  0  0  0  0  0  0  0  0  0
  150.3101  142.3824  157.6014 C   0  0  1  0  0  0  0  0  0  0  0  0
  148.9268  142.2369  157.0966 N   0  3  0  0  0  0  0  0  0  0  0  0
  148.7089  141.1200  156.1516 C   0  0  0  0  0  0  0  0  0  0  0  0
  149.7902  141.0933  155.0572 C   0  0  2  0  0  0  0  0  0  0  0  0
  149.1890  141.4086  153.8163 O   0  0  0  0  0  0  0  0  0  0  0  0
  150.4964  139.7474  155.0132 C   0  0  0  0  0  0  0  0  0  0  0  0
  149.8104  138.5928  154.5819 C   0  0  0  0  0  0  0  0  0  0  0  0
  150.5054  137.3670  154.5525 C   0  0  0  0  0  0  0  0  0  0  0  0
  151.8000  137.2399  154.9136 N   0  0  0  0  0  0  0  0  0  0  0  0
  152.4531  138.3480  155.3237 C   0  0  0  0  0  0  0  0  0  0  0  0
  151.8508  139.6203  155.3913 C   0  0  0  0  0  0  0  0  0  0  0  0
  150.3399  143.4306  158.7320 C   0  0  0  0  0  0  0  0  0  0  0  0
  151.7463  143.6165  159.3403 C   0  0  2  0  0  0  0  0  0  0  0  0
  152.6878  144.3737  158.3818 C   0  0  0  0  0  0  0  0  0  0  0  0
  154.4574  142.6217  159.7751 H   0  0  0  0  0  0  0  0  0  0  0  0
  153.9675  141.4070  160.9455 H   0  0  0  0  0  0  0  0  0  0  0  0
  153.6837  143.1087  161.2836 H   0  0  0  0  0  0  0  0  0  0  0  0
  151.6169  141.8997  160.6051 H   0  0  0  0  0  0  0  0  0  0  0  0
  152.9864  141.4717  157.9210 H   0  0  0  0  0  0  0  0  0  0  0  0
  152.6169  140.2378  159.0950 H   0  0  0  0  0  0  0  0  0  0  0  0
  150.9198  140.3108  157.2942 H   0  0  0  0  0  0  0  0  0  0  0  0
  150.2064  140.6173  158.8582 H   0  0  0  0  0  0  0  0  0  0  0  0
  150.9290  142.7451  156.7798 H   0  0  0  0  0  0  0  0  0  0  0  0
  148.3009  142.1276  157.8821 H   0  0  0  0  0  0  0  0  0  0  0  0
  148.7327  140.1833  156.7102 H   0  0  0  0  0  0  0  0  0  0  0  0
  147.7207  141.1969  155.6977 H   0  0  0  0  0  0  0  0  0  0  0  0
  150.5321  141.8660  155.2650 H   0  0  0  0  0  0  0  0  0  0  0  0
  148.3566  140.9627  153.7648 H   0  0  0  0  0  0  0  0  0  0  0  0
  148.7748  138.6382  154.2790 H   0  0  0  0  0  0  0  0  0  0  0  0
  150.0077  136.4648  154.2293 H   0  0  0  0  0  0  0  0  0  0  0  0
  153.4876  138.2178  155.6052 H   0  0  0  0  0  0  0  0  0  0  0  0
  152.4204  140.4753  155.7255 H   0  0  0  0  0  0  0  0  0  0  0  0
  149.9659  144.3876  158.3656 H   0  0  0  0  0  0  0  0  0  0  0  0
  149.6529  143.1246  159.5228 H   0  0  0  0  0  0  0  0  0  0  0  0
  151.6289  144.2540  160.2178 H   0  0  0  0  0  0  0  0  0  0  0  0
  152.9268  143.7923  157.4919 H   0  0  0  0  0  0  0  0  0  0  0  0
  153.6278  144.6333  158.8683 H   0  0  0  0  0  0  0  0  0  0  0  0
  152.2353  145.3089  158.0508 H   0  0  0  0  0  0  0  0  0  0  0  0
  148.6848  143.0900  156.6135 H   0  0  0  0  0  0  0  0  0  0  0  0
  1  2  1  0  0  0  0
  1 19  1  0  0  0  0
  1 20  1  0  0  0  0
  1 21  1  0  0  0  0
  2 17  1  0  0  0  0
  2  3  1  0  0  0  0
  2 22  1  0  0  0  0
  3  4  1  0  0  0  0
  3 23  1  0  0  0  0
  3 24  1  0  0  0  0
  4  5  1  0  0  0  0
  4 25  1  0  0  0  0
  4 26  1  0  0  0  0
  5  6  1  0  0  0  0
  5 16  1  0  0  0  0
  5 27  1  0  0  0  0
  6  7  1  0  0  0  0
  6 28  1  0  0  0  0
  6 43  1  0  0  0  0
  7  8  1  0  0  0  0
  7 29  1  0  0  0  0
  7 30  1  0  0  0  0
  8  9  1  0  0  0  0
  8 10  1  0  0  0  0
  8 31  1  0  0  0  0
  9 32  1  0  0  0  0
 10 15  1  0  0  0  0
 10 11  2  0  0  0  0
 11 12  1  0  0  0  0
 11 33  1  0  0  0  0
 12 13  2  0  0  0  0
 12 34  1  0  0  0  0
 13 14  1  0  0  0  0
 14 15  2  0  0  0  0
 14 35  1  0  0  0  0
 15 36  1  0  0  0  0
 16 17  1  0  0  0  0
 16 37  1  0  0  0  0
 16 38  1  0  0  0  0
 17 18  1  0  0  0  0
 17 39  1  0  0  0  0
 18 40  1  0  0  0  0
 18 41  1  0  0  0  0
 18 42  1  0  0  0  0
M  CHG  1   6   1
M  END
> <s_m_source_file>
AV-unprocessed.smi

> <i_m_source_file_index>
3287

> <i_lp_mmshare_version>
43012

> <i_f3d_flags>
0

> <s_epik_input>
W0NIM11bQ0BASF0xW0NIMl1bQ0gyXVtDQEhdKFtDSDJdW0NASF0xW0NIM10pW05IXVtDSDJdW0NASF0oW09IXSljMltjSF1bY0hdbltjSF1bY0hdMg==

> <s_epik_cmdline>
J2VwaWtfcHl0aG9uJywgJy1waCcsICc3LjAnLCAnLXRuJywgJzgnLCAnLW1hJywgJzIwMCcsICctbWV0YWxfYmluZGluZycsICctaW1hZScsICc8aW5maWxlLm1hZT4nLCAnLW9tYWUnLCAnPG91dGZpbGUubWFlPic=

> <r_lp_tautomer_probability>
1

> <r_epik_Ionization_Penalty>
0.00537262

> <r_epik_Ionization_Penalty_Charging>
0.00321624

> <r_epik_Ionization_Penalty_Neutral>
0.00215638

> <r_epik_State_Penalty>
-0

> <r_epik_Charging_Adjusted_Penalty>
0.00321624

> <i_epik_Tot_Q>
1

> <i_epik_Tot_abs_Q>
1

> <r_epik_Metal_State_Penalty>
-0

> <b_epik_Metal_Only>
0

> <s_lp_Force_Field>
OPLS_2005

> <r_lp_Energy>
18.5341

> <b_lp_Chiralities_Consistent>
1

> <s_lp_Variant>
AV-unprocessed.smi:3287-9

> <Gold.Version>
5.8.1

> <Gold.Id.Protein>
6NUR|6NUR_protein|mol2

> <Gold.PLP.Fitness>
56.1055

> <Gold.PLP.PLP>
-43.9984

> <Gold.PLP.part.hbond>
-5.0000

> <Gold.PLP.part.metal>
0.0000

> <Gold.PLP.part.buried>
-0.9350

> <Gold.PLP.part.nonpolar>
-37.8265

> <Gold.PLP.part.repulsive>
0.1373

> <Gold.PLP.ligand.clash>
0.0000

> <Gold.PLP.ligand.torsion>
0.9300

> <Gold.PLP.Chemscore.Hbond>
3.7120

> <Gold.PLP.Chemscore.CHOScore>
0.9392

> <Gold.PLP.Chemscore.Metal>
0.0000

> <Gold.Chemscore.Hbonds>
donor molecule, donor type, donor heavy atom, donor atom, acceptor molecule, acceptor atom, score
      L1  H     6    43       P1  8028  2.00
      P1  H  8011  8017       L1     9  0.78
      P1  H 10752 10763       L1    13  0.99
      L1  C    12    34       P1  7948  0.77

> <Gold.PLP.Chemscore.Internal.Correction>
0.0137

> <Gold.Rescore>
     Score         DG    S(hbond)    S(metal)    S(lipo)     H(rot)  DE(clash)    DE(int)     intcor
     22.21     -23.29       2.51        0.00     122.14       1.90       0.16       0.91       ----

> <Gold.Chemscore.Fitness>
22.2142

> <Gold.Chemscore.DG>
-23.2908

> <Gold.Chemscore.ZeroCoef>
-5.4800

> <Gold.Chemscore.Hbond>
2.5129

> <Gold.Chemscore.Metal>
0.0000

> <Gold.Chemscore.Lipo>
122.1422

> <Gold.Chemscore.Internal_Hbond>
0.0000

> <Gold.Chemscore.DEClash>
0.1648

> <Gold.Chemscore.DEInternal>
0.9118

> <Gold.Chemscore.Rot>
1.9035

> <Gold.Chemscore.Internal.Correction>
   9.000000E+99

> <Gold.Chemscore.Hbonds>
donor molecule, donor type, donor heavy atom, donor atom, acceptor molecule, acceptor atom, score
      L1  H     6    43       P1  8028  0.85
      P1  H  8011  8017       L1     9  0.75
      P1  H 10752 10763       L1    13  0.82

> <Gold.Chemscore.Hbond.Weighted>
-8.3930

> <Gold.Chemscore.Metal.Weighted>
-0.0000

> <Gold.Chemscore.Lipo.Weighted>
-14.2906

> <Gold.Chemscore.Internal_Hbond.Weighted>
0.0000

> <Gold.Chemscore.DEClash.Weighted>
0.1648

> <Gold.Chemscore.DEInternal.Weighted>
0.9118

> <Gold.Chemscore.Rot.Weighted>
4.8729

> <Gold.Chemscore.Internal.Correction.Weighted>
   9.000000E+99

> <Gold.Protein.RotatedTorsions>
[ 6907 6896 6895 6894 ] final  139.57 input  -60.11 | X-H torsion
[ 7974 7965 7964 7962 ] final   50.65 input  175.53 | X-H torsion
[ 8008 7997 7996 7995 ] final -177.11 input   59.86 | X-H torsion
[ 10167 10162 10161 10158 ] final -104.94 input  -65.29 | X-H torsion
[ 10718 10713 10712 10709 ] final  157.23 input   66.30 | X-H torsion
[ 10763 10752 10751 10750 ] final   53.89 input  -60.55 | X-H torsion
[ 11005 11000 10999 10996 ] final  -89.39 input  -57.11 | X-H torsion

> <Gold.Protein.ActiveResidues>
 VAL166  LYS551  ARG553  GLY616  TRP617  ASP618  TYR619  PRO620  LYS621  CYS622 
 ASP623  PHE694  ASN695  SER759  ASP760  ASP761  ALA762  ILE779  LEU786  VAL792 
 PHE793  MET794  SER795  GLU796  ALA797  LYS798  CYS799  TRP800  GLU811  SER814 

> <Gold.Protein.RotatedAtoms>
  152.2534  133.5234  159.5338 H   0  0  0  0  0  0  0  0  0  0  0  0  # atno 6907 bound_to 6896
  150.7101  134.0929  159.3947 H   0  0  0  0  0  0  0  0  0  0  0  0  # atno 6908 bound_to 6896
  151.8848  135.0439  160.0543 H   0  0  0  0  0  0  0  0  0  0  0  0  # atno 6909 bound_to 6896
  145.9991  139.4420  143.0026 H   0  0  0  0  0  0  0  0  0  0  0  0  # atno 7974 bound_to 7965
  156.0029  140.1224  157.0529 H   0  0  0  0  0  0  0  0  0  0  0  0  # atno 8008 bound_to 7997
  154.4249  140.1103  156.5791 H   0  0  0  0  0  0  0  0  0  0  0  0  # atno 8009 bound_to 7997
  155.6187  140.3472  155.4647 H   0  0  0  0  0  0  0  0  0  0  0  0  # atno 8010 bound_to 7997
  140.2038  143.3798  152.1107 H   0  0  0  0  0  0  0  0  0  0  0  0  # atno 10167 bound_to 10162
  157.1942  131.0661  151.2062 H   0  0  0  0  0  0  0  0  0  0  0  0  # atno 10718 bound_to 10713
  152.9799  135.5763  154.4815 H   0  0  0  0  0  0  0  0  0  0  0  0  # atno 10763 bound_to 10752
  154.4363  135.2775  155.1880 H   0  0  0  0  0  0  0  0  0  0  0  0  # atno 10764 bound_to 10752
  154.3567  135.6197  153.5724 H   0  0  0  0  0  0  0  0  0  0  0  0  # atno 10765 bound_to 10752
  141.1585  133.7627  156.9588 H   0  0  0  0  0  0  0  0  0  0  0  0  # atno 11005 bound_to 11000
  145.7514  140.9971  143.1248 LP  0  0  0  0  0  0  0  0  0  0  0  0  # atno 17320 bound_to 7965
  144.6913  139.9219  143.7468 LP  0  0  0  0  0  0  0  0  0  0  0  0  # atno 17321 bound_to 7965
  139.5206  144.7035  151.5422 LP  0  0  0  0  0  0  0  0  0  0  0  0  # atno 17342 bound_to 10162
  140.6371  143.8962  150.6657 LP  0  0  0  0  0  0  0  0  0  0  0  0  # atno 17343 bound_to 10162
  157.3830  130.7241  149.6643 LP  0  0  0  0  0  0  0  0  0  0  0  0  # atno 17370 bound_to 10713
  155.9708  130.4167  150.4244 LP  0  0  0  0  0  0  0  0  0  0  0  0  # atno 17371 bound_to 10713
  140.1207  134.9419  157.2199 LP  0  0  0  0  0  0  0  0  0  0  0  0  # atno 17394 bound_to 11000
  140.3076  134.3060  155.7274 LP  0  0  0  0  0  0  0  0  0  0  0  0  # atno 17395 bound_to 11000

$$$$
