AV-unprocessed.smi:907|AV-procd|sdf|4106|dock1
  -GOLD-   22720 2 03D 1   1.00000     0.00000
 Structure written by MMmdl.
 53 56  0  0  0  0  0  0  0  0  2 V2000
  149.6659  140.7858  153.6567 O   0  0  0  0  0  0  0  0  0  0  0  0
  148.6492  141.0122  154.3140 C   0  0  0  0  0  0  0  0  0  0  0  0
  148.7008  141.4304  155.5903 N   0  0  0  0  0  0  0  0  0  0  0  0
  149.9268  141.6887  156.3372 C   0  0  0  0  0  0  0  0  0  0  0  0
  149.6301  142.0811  157.7944 C   0  0  0  0  0  0  0  0  0  0  0  0
  150.8258  142.7247  158.4700 C   0  0  0  0  0  0  0  0  0  0  0  0
  151.3997  143.9019  157.9443 C   0  0  0  0  0  0  0  0  0  0  0  0
  152.5045  144.4654  158.6112 C   0  0  0  0  0  0  0  0  0  0  0  0
  152.9891  143.8342  159.7729 C   0  0  0  0  0  0  0  0  0  0  0  0
  152.3443  142.6627  160.2179 C   0  0  0  0  0  0  0  0  0  0  0  0
  151.2843  142.1139  159.5858 N   0  0  0  0  0  0  0  0  0  0  0  0
  147.3975  140.8011  153.8359 N   0  0  0  0  0  0  0  0  0  0  0  0
  147.0554  140.2911  152.5019 C   0  0  0  0  0  0  0  0  0  0  0  0
  146.6231  138.8183  152.6280 C   0  0  0  0  0  0  0  0  0  0  0  0
  145.4969  138.6506  153.5923 N   0  3  0  0  0  0  0  0  0  0  0  0
  145.0674  137.2289  153.7282 C   0  0  2  0  0  0  0  0  0  0  0  0
  144.4742  136.6153  152.4360 C   0  0  0  0  0  0  0  0  0  0  0  0
  143.1597  135.9760  152.9229 C   0  0  2  0  0  0  0  0  0  0  0  0
  142.1246  137.0893  153.1578 C   0  0  0  0  0  0  0  0  0  0  0  0
  142.6674  137.7886  154.4165 C   0  0  0  0  0  0  0  0  0  0  0  0
  143.9331  136.9692  154.7516 C   0  0  1  0  0  0  0  0  0  0  0  0
  143.4993  135.5632  154.3501 C   0  0  0  0  0  0  0  0  0  0  0  0
  145.7752  139.3095  154.9012 C   0  0  0  0  0  0  0  0  0  0  0  0
  146.2277  140.7688  154.7163 C   0  0  0  0  0  0  0  0  0  0  0  0
  147.8300  141.5716  156.0811 H   0  0  0  0  0  0  0  0  0  0  0  0
  150.5761  140.8122  156.3028 H   0  0  0  0  0  0  0  0  0  0  0  0
  150.4666  142.4933  155.8370 H   0  0  0  0  0  0  0  0  0  0  0  0
  148.7872  142.7726  157.8319 H   0  0  0  0  0  0  0  0  0  0  0  0
  149.3309  141.2038  158.3694 H   0  0  0  0  0  0  0  0  0  0  0  0
  151.0033  144.3647  157.0523 H   0  0  0  0  0  0  0  0  0  0  0  0
  152.9708  145.3653  158.2386 H   0  0  0  0  0  0  0  0  0  0  0  0
  153.8338  144.2384  160.3107 H   0  0  0  0  0  0  0  0  0  0  0  0
  152.6895  142.1530  161.1051 H   0  0  0  0  0  0  0  0  0  0  0  0
  146.2378  140.8856  152.0915 H   0  0  0  0  0  0  0  0  0  0  0  0
  147.8655  140.3733  151.7772 H   0  0  0  0  0  0  0  0  0  0  0  0
  146.3419  138.4487  151.6427 H   0  0  0  0  0  0  0  0  0  0  0  0
  147.4711  138.2157  152.9575 H   0  0  0  0  0  0  0  0  0  0  0  0
  145.9387  136.6445  154.0306 H   0  0  0  0  0  0  0  0  0  0  0  0
  144.2808  137.3494  151.6531 H   0  0  0  0  0  0  0  0  0  0  0  0
  145.1494  135.8632  152.0261 H   0  0  0  0  0  0  0  0  0  0  0  0
  142.7977  135.1721  152.2813 H   0  0  0  0  0  0  0  0  0  0  0  0
  142.0376  137.7665  152.3073 H   0  0  0  0  0  0  0  0  0  0  0  0
  141.1374  136.6666  153.3495 H   0  0  0  0  0  0  0  0  0  0  0  0
  142.8757  138.8450  154.2472 H   0  0  0  0  0  0  0  0  0  0  0  0
  141.9416  137.7233  155.2282 H   0  0  0  0  0  0  0  0  0  0  0  0
  144.2487  137.0533  155.7918 H   0  0  0  0  0  0  0  0  0  0  0  0
  142.6373  135.1974  154.9113 H   0  0  0  0  0  0  0  0  0  0  0  0
  144.3019  134.8256  154.4081 H   0  0  0  0  0  0  0  0  0  0  0  0
  144.8853  139.3021  155.5296 H   0  0  0  0  0  0  0  0  0  0  0  0
  146.5448  138.7474  155.4328 H   0  0  0  0  0  0  0  0  0  0  0  0
  146.4196  141.2282  155.6872 H   0  0  0  0  0  0  0  0  0  0  0  0
  145.4242  141.3560  154.2687 H   0  0  0  0  0  0  0  0  0  0  0  0
  144.7113  139.1468  153.1964 H   0  0  0  0  0  0  0  0  0  0  0  0
  1  2  2  0  0  0  0
  2  3  1  0  0  0  0
  2 12  1  0  0  0  0
  3  4  1  0  0  0  0
  3 25  1  0  0  0  0
  4  5  1  0  0  0  0
  4 26  1  0  0  0  0
  4 27  1  0  0  0  0
  5  6  1  0  0  0  0
  5 28  1  0  0  0  0
  5 29  1  0  0  0  0
  6 11  1  0  0  0  0
  6  7  2  0  0  0  0
  7  8  1  0  0  0  0
  7 30  1  0  0  0  0
  8  9  2  0  0  0  0
  8 31  1  0  0  0  0
  9 10  1  0  0  0  0
  9 32  1  0  0  0  0
 10 11  2  0  0  0  0
 10 33  1  0  0  0  0
 12 24  1  0  0  0  0
 12 13  1  0  0  0  0
 13 14  1  0  0  0  0
 13 34  1  0  0  0  0
 13 35  1  0  0  0  0
 14 15  1  0  0  0  0
 14 36  1  0  0  0  0
 14 37  1  0  0  0  0
 15 16  1  0  0  0  0
 15 23  1  0  0  0  0
 15 53  1  0  0  0  0
 16 21  1  0  0  0  0
 16 17  1  0  0  0  0
 16 38  1  0  0  0  0
 17 18  1  0  0  0  0
 17 39  1  0  0  0  0
 17 40  1  0  0  0  0
 18 22  1  0  0  0  0
 18 19  1  0  0  0  0
 18 41  1  0  0  0  0
 19 20  1  0  0  0  0
 19 42  1  0  0  0  0
 19 43  1  0  0  0  0
 20 21  1  0  0  0  0
 20 44  1  0  0  0  0
 20 45  1  0  0  0  0
 21 22  1  0  0  0  0
 21 46  1  0  0  0  0
 22 47  1  0  0  0  0
 22 48  1  0  0  0  0
 23 24  1  0  0  0  0
 23 49  1  0  0  0  0
 23 50  1  0  0  0  0
 24 51  1  0  0  0  0
 24 52  1  0  0  0  0
M  CHG  1  15   1
M  END
> <s_m_source_file>
AV-unprocessed.smi

> <i_m_source_file_index>
907

> <i_lp_mmshare_version>
43012

> <i_f3d_flags>
0

> <s_epik_input>
W0NIMl0xW0NIMl1bQ0BASF0oW0NIMl0yKVtDQEBIXShbQ0gyXVtDQEhdMTIpTihbQ0gyXVtDSDJdMylbQ0gyXVtDSDJdTjNDKD1PKVtOSF1bQ0gyXVtDSDJdYzRbY0hdW2NIXVtjSF1bY0hdbjQ=

> <s_epik_cmdline>
J2VwaWtfcHl0aG9uJywgJy1waCcsICc3LjAnLCAnLXRuJywgJzgnLCAnLW1hJywgJzIwMCcsICctbWV0YWxfYmluZGluZycsICctaW1hZScsICc8aW5maWxlLm1hZT4nLCAnLW9tYWUnLCAnPG91dGZpbGUubWFlPic=

> <r_epik_Ionization_Penalty>
0.0419258

> <r_epik_Ionization_Penalty_Charging>
0.00262064

> <r_epik_Ionization_Penalty_Neutral>
0.0393052

> <r_epik_State_Penalty>
0.0329887

> <r_epik_Charging_Adjusted_Penalty>
0.0356093

> <i_epik_Tot_Q>
1

> <i_epik_Tot_abs_Q>
1

> <r_epik_Metal_State_Penalty>
0.0309172

> <b_epik_Metal_Only>
0

> <s_lp_Force_Field>
OPLS_2005

> <r_lp_Energy>
94.5265

> <b_lp_Chiralities_Consistent>
1

> <s_lp_Variant>
AV-unprocessed.smi:907-1

> <Gold.Version>
5.8.1

> <Gold.Id.Protein>
6NUR|6NUR_protein|mol2

> <Gold.PLP.Fitness>
48.7397

> <Gold.PLP.PLP>
-40.4637

> <Gold.PLP.part.hbond>
-3.5718

> <Gold.PLP.part.metal>
0.0000

> <Gold.PLP.part.buried>
-4.7548

> <Gold.PLP.part.nonpolar>
-36.4653

> <Gold.PLP.part.repulsive>
3.7833

> <Gold.PLP.ligand.clash>
1.6177

> <Gold.PLP.ligand.torsion>
0.1855

> <Gold.PLP.Chemscore.Hbond>
3.3680

> <Gold.PLP.Chemscore.CHOScore>
0.0000

> <Gold.PLP.Chemscore.Metal>
0.0000

> <Gold.Chemscore.Hbonds>
donor molecule, donor type, donor heavy atom, donor atom, acceptor molecule, acceptor atom, score
      L1  H    15    53       P1 10175  2.00
      P1  H  7989  7998       L1     1  0.42
      P1  H  8011  8017       L1     1  0.83

> <Gold.PLP.Chemscore.Internal.Correction>
0.1607

> <Gold.Rescore>
     Score         DG    S(hbond)    S(metal)    S(lipo)     H(rot)  DE(clash)    DE(int)     intcor
     20.23     -22.25       2.16        0.00     111.72       1.37       1.73       0.29       ----

> <Gold.Chemscore.Fitness>
20.2332

> <Gold.Chemscore.DG>
-22.2463

> <Gold.Chemscore.ZeroCoef>
-5.4800

> <Gold.Chemscore.Hbond>
2.1588

> <Gold.Chemscore.Metal>
0.0000

> <Gold.Chemscore.Lipo>
111.7190

> <Gold.Chemscore.Internal_Hbond>
0.0000

> <Gold.Chemscore.DEClash>
1.7279

> <Gold.Chemscore.DEInternal>
0.2852

> <Gold.Chemscore.Rot>
1.3731

> <Gold.Chemscore.Internal.Correction>
   9.000000E+99

> <Gold.Chemscore.Hbonds>
donor molecule, donor type, donor heavy atom, donor atom, acceptor molecule, acceptor atom, score
      L1  H    15    53       P1 10175  1.00
      P1  H  7989  7998       L1     1  0.42
      P1  H  8011  8017       L1     1  0.39

> <Gold.Chemscore.Hbond.Weighted>
-7.2104

> <Gold.Chemscore.Metal.Weighted>
-0.0000

> <Gold.Chemscore.Lipo.Weighted>
-13.0711

> <Gold.Chemscore.Internal_Hbond.Weighted>
0.0000

> <Gold.Chemscore.DEClash.Weighted>
1.7279

> <Gold.Chemscore.DEInternal.Weighted>
0.2852

> <Gold.Chemscore.Rot.Weighted>
3.5152

> <Gold.Chemscore.Internal.Correction.Weighted>
   9.000000E+99

> <Gold.Protein.RotatedTorsions>
[ 6907 6896 6895 6894 ] final  -39.02 input  -60.11 | X-H torsion
[ 7974 7965 7964 7962 ] final   40.65 input  175.53 | X-H torsion
[ 8008 7997 7996 7995 ] final  119.10 input   59.86 | X-H torsion
[ 10167 10162 10161 10158 ] final -119.74 input  -65.29 | X-H torsion
[ 10718 10713 10712 10709 ] final  104.48 input   66.30 | X-H torsion
[ 10763 10752 10751 10750 ] final -132.41 input  -60.55 | X-H torsion
[ 11005 11000 10999 10996 ] final -100.00 input  -57.11 | X-H torsion

> <Gold.Protein.ActiveResidues>
 VAL166  LYS551  ARG553  GLY616  TRP617  ASP618  TYR619  PRO620  LYS621  CYS622 
 ASP623  PHE694  ASN695  SER759  ASP760  ASP761  ALA762  ILE779  LEU786  VAL792 
 PHE793  MET794  SER795  GLU796  ALA797  LYS798  CYS799  TRP800  GLU811  SER814 

> <Gold.Protein.RotatedAtoms>
  150.9953  134.9278  159.7922 H   0  0  0  0  0  0  0  0  0  0  0  0  # atno 6907 bound_to 6896
  152.5263  134.3226  159.9164 H   0  0  0  0  0  0  0  0  0  0  0  0  # atno 6908 bound_to 6896
  151.3232  133.3990  159.2690 H   0  0  0  0  0  0  0  0  0  0  0  0  # atno 6909 bound_to 6896
  146.0888  139.5508  142.9489 H   0  0  0  0  0  0  0  0  0  0  0  0  # atno 7974 bound_to 7965
  156.2579  140.2860  156.0938 H   0  0  0  0  0  0  0  0  0  0  0  0  # atno 8008 bound_to 7997
  155.1434  140.0396  157.2821 H   0  0  0  0  0  0  0  0  0  0  0  0  # atno 8009 bound_to 7997
  154.6513  140.2545  155.7217 H   0  0  0  0  0  0  0  0  0  0  0  0  # atno 8010 bound_to 7997
  140.0434  143.5131  152.2119 H   0  0  0  0  0  0  0  0  0  0  0  0  # atno 10167 bound_to 10162
  157.6738  131.0805  150.5713 H   0  0  0  0  0  0  0  0  0  0  0  0  # atno 10718 bound_to 10713
  154.8743  135.3799  154.4404 H   0  0  0  0  0  0  0  0  0  0  0  0  # atno 10763 bound_to 10752
  153.5090  135.7030  153.5796 H   0  0  0  0  0  0  0  0  0  0  0  0  # atno 10764 bound_to 10752
  153.4094  135.3928  155.2006 H   0  0  0  0  0  0  0  0  0  0  0  0  # atno 10765 bound_to 10752
  141.1287  133.8365  157.1045 H   0  0  0  0  0  0  0  0  0  0  0  0  # atno 11005 bound_to 11000
  145.6079  141.0344  143.1983 LP  0  0  0  0  0  0  0  0  0  0  0  0  # atno 17320 bound_to 7965
  144.7345  139.7627  143.7334 LP  0  0  0  0  0  0  0  0  0  0  0  0  # atno 17321 bound_to 7965
  139.5999  144.7579  151.3196 LP  0  0  0  0  0  0  0  0  0  0  0  0  # atno 17342 bound_to 10162
  140.7250  143.7029  150.7830 LP  0  0  0  0  0  0  0  0  0  0  0  0  # atno 17343 bound_to 10162
  156.6015  130.4355  149.5895 LP  0  0  0  0  0  0  0  0  0  0  0  0  # atno 17370 bound_to 10713
  156.2503  130.6903  151.1638 LP  0  0  0  0  0  0  0  0  0  0  0  0  # atno 17371 bound_to 10713
  140.0313  134.9900  157.0785 LP  0  0  0  0  0  0  0  0  0  0  0  0  # atno 17394 bound_to 11000
  140.4281  134.1809  155.7167 LP  0  0  0  0  0  0  0  0  0  0  0  0  # atno 17395 bound_to 11000

$$$$
