AV-unprocessed.smi:1535|AV-procd|sdf|6179|dock8
  -GOLD-   22720 6333D 1   1.00000     0.00000
 Structure written by MMmdl.
 47 48  0  0  0  0  0  0  0  0  2 V2000
  151.6244  143.7758  160.0734 C   0  0  0  0  0  0  0  0  0  0  0  0
  151.5366  142.6086  159.1059 C   0  0  0  0  0  0  0  0  0  0  0  0
  150.7252  142.7299  157.9552 C   0  0  0  0  0  0  0  0  0  0  0  0
  150.6179  141.6689  157.0296 C   0  0  0  0  0  0  0  0  0  0  0  0
  149.8953  141.5710  155.8531 N   0  0  0  0  0  0  0  0  0  0  0  0
  150.2046  140.3423  155.4494 C   0  0  0  0  0  0  0  0  0  0  0  0
  151.0418  139.6302  156.2285 N   0  0  0  0  0  0  0  0  0  0  0  0
  151.5154  138.2761  156.0047 C   0  0  0  0  0  0  0  0  0  0  0  0
  150.6473  137.5163  154.9839 C   0  0  1  0  0  0  0  0  0  0  0  0
  151.4477  136.5671  154.3047 O   0  0  0  0  0  0  0  0  0  0  0  0
  149.4719  136.7819  155.6582 C   0  0  0  0  0  0  0  0  0  0  0  0
  148.7256  135.9180  154.7050 N   0  3  2  0  0  0  0  0  0  0  0  0
  147.2940  136.2930  154.5986 C   0  0  0  0  0  0  0  0  0  0  0  0
  148.9178  134.4688  154.9785 C   0  0  0  0  0  0  0  0  0  0  0  0
  148.6696  133.5837  153.7412 C   0  0  2  0  0  0  0  0  0  0  0  0
  147.1853  133.5654  153.3543 C   0  0  0  0  0  0  0  0  0  0  0  0
  149.1683  132.2151  153.9541 C   0  0  0  0  0  0  0  0  0  0  0  0
  149.5640  131.1416  154.1223 N   0  0  0  0  0  0  0  0  0  0  0  0
  151.3478  140.4727  157.2910 C   0  0  0  0  0  0  0  0  0  0  0  0
  152.1579  140.3393  158.4322 C   0  0  0  0  0  0  0  0  0  0  0  0
  152.2570  141.4106  159.3446 C   0  0  0  0  0  0  0  0  0  0  0  0
  153.1387  141.2597  160.5716 C   0  0  0  0  0  0  0  0  0  0  0  0
  150.9793  144.5986  159.7639 H   0  0  0  0  0  0  0  0  0  0  0  0
  152.6463  144.1519  160.1246 H   0  0  0  0  0  0  0  0  0  0  0  0
  151.3170  143.4692  161.0734 H   0  0  0  0  0  0  0  0  0  0  0  0
  150.1771  143.6424  157.7727 H   0  0  0  0  0  0  0  0  0  0  0  0
  149.7940  139.9339  154.5375 H   0  0  0  0  0  0  0  0  0  0  0  0
  152.5544  138.3169  155.6741 H   0  0  0  0  0  0  0  0  0  0  0  0
  151.5136  137.7551  156.9630 H   0  0  0  0  0  0  0  0  0  0  0  0
  150.2759  138.2301  154.2492 H   0  0  0  0  0  0  0  0  0  0  0  0
  151.2112  136.5679  153.3893 H   0  0  0  0  0  0  0  0  0  0  0  0
  149.8723  136.1880  156.4812 H   0  0  0  0  0  0  0  0  0  0  0  0
  148.7817  137.4951  156.1120 H   0  0  0  0  0  0  0  0  0  0  0  0
  146.7653  136.0836  155.5291 H   0  0  0  0  0  0  0  0  0  0  0  0
  146.7992  135.7470  153.7967 H   0  0  0  0  0  0  0  0  0  0  0  0
  147.1717  137.3520  154.3751 H   0  0  0  0  0  0  0  0  0  0  0  0
  149.9434  134.2941  155.3074 H   0  0  0  0  0  0  0  0  0  0  0  0
  148.2731  134.1653  155.8047 H   0  0  0  0  0  0  0  0  0  0  0  0
  149.2210  133.9797  152.8894 H   0  0  0  0  0  0  0  0  0  0  0  0
  147.0221  132.9599  152.4623 H   0  0  0  0  0  0  0  0  0  0  0  0
  146.8206  134.5706  153.1418 H   0  0  0  0  0  0  0  0  0  0  0  0
  146.5725  133.1487  154.1544 H   0  0  0  0  0  0  0  0  0  0  0  0
  152.6998  139.4210  158.6025 H   0  0  0  0  0  0  0  0  0  0  0  0
  153.6461  140.2946  160.5812 H   0  0  0  0  0  0  0  0  0  0  0  0
  152.5426  141.3340  161.4812 H   0  0  0  0  0  0  0  0  0  0  0  0
  153.9017  142.0383  160.5921 H   0  0  0  0  0  0  0  0  0  0  0  0
  149.1468  136.0891  153.8023 H   0  0  0  0  0  0  0  0  0  0  0  0
  1  2  1  0  0  0  0
  1 23  1  0  0  0  0
  1 24  1  0  0  0  0
  1 25  1  0  0  0  0
  2 21  1  0  0  0  0
  2  3  2  0  0  0  0
  3  4  1  0  0  0  0
  3 26  1  0  0  0  0
  4 19  2  0  0  0  0
  4  5  1  0  0  0  0
  5  6  2  0  0  0  0
  6  7  1  0  0  0  0
  6 27  1  0  0  0  0
  7  8  1  0  0  0  0
  7 19  1  0  0  0  0
  8  9  1  0  0  0  0
  8 28  1  0  0  0  0
  8 29  1  0  0  0  0
  9 10  1  0  0  0  0
  9 11  1  0  0  0  0
  9 30  1  0  0  0  0
 10 31  1  0  0  0  0
 11 12  1  0  0  0  0
 11 32  1  0  0  0  0
 11 33  1  0  0  0  0
 12 13  1  0  0  0  0
 12 14  1  0  0  0  0
 12 47  1  0  0  0  0
 13 34  1  0  0  0  0
 13 35  1  0  0  0  0
 13 36  1  0  0  0  0
 14 15  1  0  0  0  0
 14 37  1  0  0  0  0
 14 38  1  0  0  0  0
 15 16  1  0  0  0  0
 15 17  1  0  0  0  0
 15 39  1  0  0  0  0
 16 40  1  0  0  0  0
 16 41  1  0  0  0  0
 16 42  1  0  0  0  0
 17 18  3  0  0  0  0
 19 20  1  0  0  0  0
 20 21  2  0  0  0  0
 20 43  1  0  0  0  0
 21 22  1  0  0  0  0
 22 44  1  0  0  0  0
 22 45  1  0  0  0  0
 22 46  1  0  0  0  0
M  CHG  1  12   1
M  END
> <s_m_source_file>
AV-unprocessed.smi

> <i_m_source_file_index>
1535

> <i_lp_mmshare_version>
43012

> <i_f3d_flags>
0

> <s_epik_input>
W0NIM11jKFtjSF0xKWMoW0NIM10pW2NIXWMoYzEyKW4oW2NIXW4yKVtDSDJdW0NASF0oW09IXSlbQ0gyXU4oW0NIM10pW0NIMl1bQ0BIXShbQ0gzXSlDI04=

> <s_epik_cmdline>
J2VwaWtfcHl0aG9uJywgJy1waCcsICc3LjAnLCAnLXRuJywgJzgnLCAnLW1hJywgJzIwMCcsICctbWV0YWxfYmluZGluZycsICctaW1hZScsICc8aW5maWxlLm1hZT4nLCAnLW9tYWUnLCAnPG91dGZpbGUubWFlPic=

> <r_epik_Ionization_Penalty>
2.21058

> <r_epik_Ionization_Penalty_Charging>
2.12381

> <r_epik_Ionization_Penalty_Neutral>
0.0867699

> <r_epik_State_Penalty>
2.36208

> <r_epik_Charging_Adjusted_Penalty>
4.48589

> <i_epik_Tot_Q>
1

> <i_epik_Tot_abs_Q>
1

> <r_epik_Metal_State_Penalty>
2.2818

> <b_epik_Metal_Only>
0

> <s_lp_Force_Field>
OPLS_2005

> <r_lp_Energy>
14.9944

> <b_lp_Chiralities_Consistent>
1

> <s_lp_Variant>
AV-unprocessed.smi:1535-10

> <Gold.Version>
5.8.1

> <Gold.Id.Protein>
6NUR|6NUR_protein|mol2

> <Gold.PLP.Fitness>
52.1371

> <Gold.PLP.PLP>
-43.2057

> <Gold.PLP.part.hbond>
-3.0000

> <Gold.PLP.part.metal>
0.0000

> <Gold.PLP.part.buried>
-2.7016

> <Gold.PLP.part.nonpolar>
-36.8172

> <Gold.PLP.part.repulsive>
0.1640

> <Gold.PLP.ligand.clash>
0.0009

> <Gold.PLP.ligand.torsion>
1.5978

> <Gold.PLP.Chemscore.Hbond>
4.0000

> <Gold.PLP.Chemscore.CHOScore>
0.0000

> <Gold.PLP.Chemscore.Metal>
0.0000

> <Gold.Chemscore.Hbonds>
donor molecule, donor type, donor heavy atom, donor atom, acceptor molecule, acceptor atom, score
      L1  H    10    31       P1  7949  1.00
      L1  H    12    47       P1  7948  2.00
      P1  H 10752 10763       L1    10  0.80

> <Gold.PLP.Chemscore.Internal.Correction>
0.1280

> <Gold.Rescore>
     Score         DG    S(hbond)    S(metal)    S(lipo)     H(rot)  DE(clash)    DE(int)     intcor
     15.49     -17.30       2.08        0.00      98.73       2.60       0.08       1.73       ----

> <Gold.Chemscore.Fitness>
15.4928

> <Gold.Chemscore.DG>
-17.3021

> <Gold.Chemscore.ZeroCoef>
-5.4800

> <Gold.Chemscore.Hbond>
2.0761

> <Gold.Chemscore.Metal>
0.0000

> <Gold.Chemscore.Lipo>
98.7326

> <Gold.Chemscore.Internal_Hbond>
0.0000

> <Gold.Chemscore.DEClash>
0.0790

> <Gold.Chemscore.DEInternal>
1.7303

> <Gold.Chemscore.Rot>
2.6031

> <Gold.Chemscore.Internal.Correction>
   9.000000E+99

> <Gold.Chemscore.Hbonds>
donor molecule, donor type, donor heavy atom, donor atom, acceptor molecule, acceptor atom, score
      L1  H    10    31       P1  7949  0.53
      L1  H    12    47       P1  7948  0.87
      P1  H 10752 10763       L1    10  0.12

> <Gold.Chemscore.Hbond.Weighted>
-6.9343

> <Gold.Chemscore.Metal.Weighted>
-0.0000

> <Gold.Chemscore.Lipo.Weighted>
-11.5517

> <Gold.Chemscore.Internal_Hbond.Weighted>
0.0000

> <Gold.Chemscore.DEClash.Weighted>
0.0790

> <Gold.Chemscore.DEInternal.Weighted>
1.7303

> <Gold.Chemscore.Rot.Weighted>
6.6640

> <Gold.Chemscore.Internal.Correction.Weighted>
   9.000000E+99

> <Gold.Protein.RotatedTorsions>
[ 6907 6896 6895 6894 ] final  -10.33 input  -60.11 | X-H torsion
[ 7974 7965 7964 7962 ] final  108.16 input  175.53 | X-H torsion
[ 8008 7997 7996 7995 ] final -176.15 input   59.86 | X-H torsion
[ 10167 10162 10161 10158 ] final   48.81 input  -65.29 | X-H torsion
[ 10718 10713 10712 10709 ] final -129.21 input   66.30 | X-H torsion
[ 10763 10752 10751 10750 ] final   29.07 input  -60.55 | X-H torsion
[ 11005 11000 10999 10996 ] final -106.60 input  -57.11 | X-H torsion

> <Gold.Protein.ActiveResidues>
 VAL166  LYS551  ARG553  GLY616  TRP617  ASP618  TYR619  PRO620  LYS621  CYS622 
 ASP623  PHE694  ASN695  SER759  ASP760  ASP761  ALA762  ILE779  LEU786  VAL792 
 PHE793  MET794  SER795  GLU796  ALA797  LYS798  CYS799  TRP800  GLU811  SER814 

> <Gold.Protein.RotatedAtoms>
  151.4037  135.0975  159.9563 H   0  0  0  0  0  0  0  0  0  0  0  0  # atno 6907 bound_to 6896
  152.5042  133.8864  159.7382 H   0  0  0  0  0  0  0  0  0  0  0  0  # atno 6908 bound_to 6896
  150.9343  133.6673  159.2832 H   0  0  0  0  0  0  0  0  0  0  0  0  # atno 6909 bound_to 6896
  145.2843  139.2622  143.3899 H   0  0  0  0  0  0  0  0  0  0  0  0  # atno 7974 bound_to 7965
  155.9914  140.1201  157.0635 H   0  0  0  0  0  0  0  0  0  0  0  0  # atno 8008 bound_to 7997
  154.4212  140.1125  156.5639 H   0  0  0  0  0  0  0  0  0  0  0  0  # atno 8009 bound_to 7997
  155.6338  140.3473  155.4694 H   0  0  0  0  0  0  0  0  0  0  0  0  # atno 8010 bound_to 7997
  140.2894  144.3064  150.6244 H   0  0  0  0  0  0  0  0  0  0  0  0  # atno 10167 bound_to 10162
  156.2025  130.6866  151.0556 H   0  0  0  0  0  0  0  0  0  0  0  0  # atno 10718 bound_to 10713
  153.0453  135.6498  154.0834 H   0  0  0  0  0  0  0  0  0  0  0  0  # atno 10763 bound_to 10752
  154.0533  135.2894  155.3338 H   0  0  0  0  0  0  0  0  0  0  0  0  # atno 10764 bound_to 10752
  154.6706  135.5357  153.8199 H   0  0  0  0  0  0  0  0  0  0  0  0  # atno 10765 bound_to 10752
  141.0996  133.8907  157.1875 H   0  0  0  0  0  0  0  0  0  0  0  0  # atno 11005 bound_to 11000
  146.3206  140.3318  142.8641 LP  0  0  0  0  0  0  0  0  0  0  0  0  # atno 17320 bound_to 7965
  144.9227  140.7886  143.5738 LP  0  0  0  0  0  0  0  0  0  0  0  0  # atno 17321 bound_to 7965
  140.5745  143.2178  151.7540 LP  0  0  0  0  0  0  0  0  0  0  0  0  # atno 17342 bound_to 10162
  139.4942  144.4169  152.0020 LP  0  0  0  0  0  0  0  0  0  0  0  0  # atno 17343 bound_to 10162
  157.6994  131.0782  150.6869 LP  0  0  0  0  0  0  0  0  0  0  0  0  # atno 17370 bound_to 10713
  156.6926  130.4599  149.5595 LP  0  0  0  0  0  0  0  0  0  0  0  0  # atno 17371 bound_to 10713
  139.9844  135.0087  156.9827 LP  0  0  0  0  0  0  0  0  0  0  0  0  # atno 17394 bound_to 11000
  140.5054  134.1055  155.7259 LP  0  0  0  0  0  0  0  0  0  0  0  0  # atno 17395 bound_to 11000

$$$$
