AV-unprocessed.smi:2124|AV-procd|sdf|8662|dock9
  -GOLD-   2272011413D 1   1.00000     0.00000
 Structure written by MMmdl.
 47 49  0  0  0  0  0  0  0  0  1 V2000
  151.2290  142.9230  157.2679 C   0  0  0  0  0  0  0  0  0  0  0  0
  150.6833  141.9036  156.2917 C   0  0  0  0  0  0  0  0  0  0  0  0
  149.5172  142.3055  155.6613 N   0  0  0  0  0  0  0  0  0  0  0  0
  148.9339  141.4322  154.7601 C   0  0  0  0  0  0  0  0  0  0  0  0
  147.6544  141.9458  154.1229 C   0  0  0  0  0  0  0  0  0  0  0  0
  149.4908  140.2234  154.4936 C   0  0  0  0  0  0  0  0  0  0  0  0
  148.8888  139.2265  153.5049 C   0  0  0  0  0  0  0  0  0  0  0  0
  147.5136  138.6648  153.8745 C   0  0  0  0  0  0  0  0  0  0  0  0
  146.8526  139.1745  154.7794 O   0  0  0  0  0  0  0  0  0  0  0  0
  147.0957  137.6107  153.1577 N   0  0  0  0  0  0  0  0  0  0  0  0
  145.8115  136.9296  153.3125 C   0  0  2  0  0  0  0  0  0  0  0  0
  145.5842  136.6285  154.8051 C   0  0  0  0  0  0  0  0  0  0  0  0
  145.7962  135.6550  152.4323 C   0  0  2  0  0  0  0  0  0  0  0  0
  145.6095  135.9441  150.9208 C   0  0  0  0  0  0  0  0  0  0  0  0
  144.4186  135.0513  150.5317 C   0  0  1  0  0  0  0  0  0  0  0  0
  144.8422  133.5722  150.5853 C   0  0  0  0  0  0  0  0  0  0  0  0
  144.9535  133.3080  152.0982 C   0  0  0  0  0  0  0  0  0  0  0  0
  144.6209  134.6829  152.7097 C   0  0  2  0  0  0  0  0  0  0  0  0
  143.5315  135.1764  151.7626 C   0  0  0  0  0  0  0  0  0  0  0  0
  150.7493  139.8574  155.1848 C   0  0  0  0  0  0  0  0  0  0  0  0
  151.3145  138.7866  154.9657 O   0  0  0  0  0  0  0  0  0  0  0  0
  151.2919  140.7726  156.1013 N   0  0  0  0  0  0  0  0  0  0  0  0
  149.0704  143.1953  155.8297 H   0  0  0  0  0  0  0  0  0  0  0  0
  152.1369  142.5561  157.7486 H   0  0  0  0  0  0  0  0  0  0  0  0
  150.4946  143.1362  158.0454 H   0  0  0  0  0  0  0  0  0  0  0  0
  151.4693  143.8529  156.7517 H   0  0  0  0  0  0  0  0  0  0  0  0
  146.8123  141.3091  154.3942 H   0  0  0  0  0  0  0  0  0  0  0  0
  147.7448  141.9548  153.0366 H   0  0  0  0  0  0  0  0  0  0  0  0
  147.4230  142.9615  154.4465 H   0  0  0  0  0  0  0  0  0  0  0  0
  149.5650  138.3792  153.3939 H   0  0  0  0  0  0  0  0  0  0  0  0
  148.8450  139.6763  152.5117 H   0  0  0  0  0  0  0  0  0  0  0  0
  147.7070  137.2622  152.4337 H   0  0  0  0  0  0  0  0  0  0  0  0
  145.0154  137.5930  152.9705 H   0  0  0  0  0  0  0  0  0  0  0  0
  144.6046  136.1887  154.9868 H   0  0  0  0  0  0  0  0  0  0  0  0
  145.6373  137.5399  155.4014 H   0  0  0  0  0  0  0  0  0  0  0  0
  146.3359  135.9382  155.1892 H   0  0  0  0  0  0  0  0  0  0  0  0
  146.7421  135.1326  152.5855 H   0  0  0  0  0  0  0  0  0  0  0  0
  145.3565  136.9896  150.7393 H   0  0  0  0  0  0  0  0  0  0  0  0
  146.5057  135.7176  150.3417 H   0  0  0  0  0  0  0  0  0  0  0  0
  143.9465  135.3384  149.5917 H   0  0  0  0  0  0  0  0  0  0  0  0
  144.0811  132.9311  150.1384 H   0  0  0  0  0  0  0  0  0  0  0  0
  145.7818  133.3937  150.0612 H   0  0  0  0  0  0  0  0  0  0  0  0
  144.2222  132.5610  152.4095 H   0  0  0  0  0  0  0  0  0  0  0  0
  145.9407  132.9469  152.3887 H   0  0  0  0  0  0  0  0  0  0  0  0
  144.3179  134.6157  153.7536 H   0  0  0  0  0  0  0  0  0  0  0  0
  143.2079  136.1992  151.9620 H   0  0  0  0  0  0  0  0  0  0  0  0
  142.6560  134.5249  151.7326 H   0  0  0  0  0  0  0  0  0  0  0  0
  1 24  1  0  0  0  0
  1 25  1  0  0  0  0
  1 26  1  0  0  0  0
  1  2  1  0  0  0  0
  2  3  1  0  0  0  0
  2 22  2  0  0  0  0
  3  4  1  0  0  0  0
  3 23  1  0  0  0  0
  4  6  2  0  0  0  0
  4  5  1  0  0  0  0
  5 27  1  0  0  0  0
  5 28  1  0  0  0  0
  5 29  1  0  0  0  0
  6 20  1  0  0  0  0
  6  7  1  0  0  0  0
  7  8  1  0  0  0  0
  7 30  1  0  0  0  0
  7 31  1  0  0  0  0
  8  9  2  0  0  0  0
  8 10  1  0  0  0  0
 10 11  1  0  0  0  0
 10 32  1  0  0  0  0
 11 12  1  0  0  0  0
 11 13  1  0  0  0  0
 11 33  1  0  0  0  0
 12 34  1  0  0  0  0
 12 35  1  0  0  0  0
 12 36  1  0  0  0  0
 13 18  1  0  0  0  0
 13 14  1  0  0  0  0
 13 37  1  0  0  0  0
 14 15  1  0  0  0  0
 14 38  1  0  0  0  0
 14 39  1  0  0  0  0
 15 19  1  0  0  0  0
 15 16  1  0  0  0  0
 15 40  1  0  0  0  0
 16 17  1  0  0  0  0
 16 41  1  0  0  0  0
 16 42  1  0  0  0  0
 17 18  1  0  0  0  0
 17 43  1  0  0  0  0
 17 44  1  0  0  0  0
 18 19  1  0  0  0  0
 18 45  1  0  0  0  0
 19 46  1  0  0  0  0
 19 47  1  0  0  0  0
 20 21  2  0  0  0  0
 20 22  1  0  0  0  0
M  END
> <s_m_source_file>
AV-unprocessed.smi

> <i_m_source_file_index>
2124

> <i_lp_mmshare_version>
43012

> <i_f3d_flags>
0

> <s_epik_input>
W0NIM11jMW5jKFtDSDNdKWMoYyg9TylbbkhdMSlbQ0gyXUMoPU8pW05IXVtDQEhdKFtDSDNdKVtDQEhdKFtDSDJdW0NASF0yMylbQ0BIXShbQ0gyXTMpW0NIMl1bQ0gyXTI=

> <s_epik_cmdline>
J2VwaWtfcHl0aG9uJywgJy1waCcsICc3LjAnLCAnLXRuJywgJzgnLCAnLW1hJywgJzIwMCcsICctbWV0YWxfYmluZGluZycsICctaW1hZScsICc8aW5maWxlLm1hZT4nLCAnLW9tYWUnLCAnPG91dGZpbGUubWFlPic=

> <r_lp_tautomer_probability>
0.156392

> <r_epik_Ionization_Penalty>
0.0139374

> <r_epik_Ionization_Penalty_Charging>
0.0138122

> <r_epik_Ionization_Penalty_Neutral>
0.000125146

> <r_epik_State_Penalty>
1.15342

> <r_epik_Charging_Adjusted_Penalty>
1.16723

> <i_epik_Tot_Q>
0

> <i_epik_Tot_abs_Q>
0

> <r_epik_Metal_State_Penalty>
1.3173

> <b_epik_Metal_Only>
0

> <s_lp_Force_Field>
OPLS_2005

> <r_lp_Energy>
56.0301

> <b_lp_Chiralities_Consistent>
1

> <s_lp_Variant>
AV-unprocessed.smi:2124-13

> <Gold.Version>
5.8.1

> <Gold.Id.Protein>
6NUR|6NUR_protein|mol2

> <Gold.PLP.Fitness>
41.4848

> <Gold.PLP.PLP>
-36.3513

> <Gold.PLP.part.hbond>
-1.9135

> <Gold.PLP.part.metal>
0.0000

> <Gold.PLP.part.buried>
-2.2877

> <Gold.PLP.part.nonpolar>
-32.5824

> <Gold.PLP.part.repulsive>
0.3632

> <Gold.PLP.ligand.clash>
0.0000

> <Gold.PLP.ligand.torsion>
0.4435

> <Gold.PLP.Chemscore.Hbond>
2.0000

> <Gold.PLP.Chemscore.CHOScore>
0.0000

> <Gold.PLP.Chemscore.Metal>
0.0000

> <Gold.Chemscore.Hbonds>
donor molecule, donor type, donor heavy atom, donor atom, acceptor molecule, acceptor atom, score
      L1  H     3    23       P1  8028  1.00
      L1  H    10    32       P1  7948  1.00

> <Gold.PLP.Chemscore.Internal.Correction>
0.0205

> <Gold.Rescore>
     Score         DG    S(hbond)    S(metal)    S(lipo)     H(rot)  DE(clash)    DE(int)     intcor
     14.33     -16.36       2.00        0.00      72.19       1.65       0.23       1.79       ----

> <Gold.Chemscore.Fitness>
14.3346

> <Gold.Chemscore.DG>
-16.3578

> <Gold.Chemscore.ZeroCoef>
-5.4800

> <Gold.Chemscore.Hbond>
1.9951

> <Gold.Chemscore.Metal>
0.0000

> <Gold.Chemscore.Lipo>
72.1945

> <Gold.Chemscore.Internal_Hbond>
0.0000

> <Gold.Chemscore.DEClash>
0.2302

> <Gold.Chemscore.DEInternal>
1.7931

> <Gold.Chemscore.Rot>
1.6534

> <Gold.Chemscore.Internal.Correction>
   9.000000E+99

> <Gold.Chemscore.Hbonds>
donor molecule, donor type, donor heavy atom, donor atom, acceptor molecule, acceptor atom, score
      L1  H     3    23       P1  8028  0.93
      L1  H    10    32       P1  7948  0.98

> <Gold.Chemscore.Hbond.Weighted>
-6.6637

> <Gold.Chemscore.Metal.Weighted>
-0.0000

> <Gold.Chemscore.Lipo.Weighted>
-8.4468

> <Gold.Chemscore.Internal_Hbond.Weighted>
0.0000

> <Gold.Chemscore.DEClash.Weighted>
0.2302

> <Gold.Chemscore.DEInternal.Weighted>
1.7931

> <Gold.Chemscore.Rot.Weighted>
4.2326

> <Gold.Chemscore.Internal.Correction.Weighted>
   9.000000E+99

> <Gold.Protein.RotatedTorsions>
[ 6907 6896 6895 6894 ] final -164.09 input  -60.11 | X-H torsion
[ 7974 7965 7964 7962 ] final  157.62 input  175.53 | X-H torsion
[ 8008 7997 7996 7995 ] final -136.27 input   59.86 | X-H torsion
[ 10167 10162 10161 10158 ] final -165.80 input  -65.29 | X-H torsion
[ 10718 10713 10712 10709 ] final   85.13 input   66.30 | X-H torsion
[ 10763 10752 10751 10750 ] final   19.94 input  -60.55 | X-H torsion
[ 11005 11000 10999 10996 ] final   95.29 input  -57.11 | X-H torsion

> <Gold.Protein.ActiveResidues>
 VAL166  LYS551  ARG553  GLY616  TRP617  ASP618  TYR619  PRO620  LYS621  CYS622 
 ASP623  PHE694  ASN695  SER759  ASP760  ASP761  ALA762  ILE779  LEU786  VAL792 
 PHE793  MET794  SER795  GLU796  ALA797  LYS798  CYS799  TRP800  GLU811  SER814 

> <Gold.Protein.RotatedAtoms>
  151.4063  133.3741  159.2738 H   0  0  0  0  0  0  0  0  0  0  0  0  # atno 6907 bound_to 6896
  150.9396  134.8807  159.7614 H   0  0  0  0  0  0  0  0  0  0  0  0  # atno 6908 bound_to 6896
  152.5065  134.4013  159.9469 H   0  0  0  0  0  0  0  0  0  0  0  0  # atno 6909 bound_to 6896
  144.7892  139.7366  143.6228 H   0  0  0  0  0  0  0  0  0  0  0  0  # atno 7974 bound_to 7965
  155.3924  140.0501  157.3040 H   0  0  0  0  0  0  0  0  0  0  0  0  # atno 8008 bound_to 7997
  154.5029  140.2163  155.9270 H   0  0  0  0  0  0  0  0  0  0  0  0  # atno 8009 bound_to 7997
  156.1490  140.3139  155.8623 H   0  0  0  0  0  0  0  0  0  0  0  0  # atno 8010 bound_to 7997
  139.6158  144.0723  152.1886 H   0  0  0  0  0  0  0  0  0  0  0  0  # atno 10167 bound_to 10162
  157.6910  131.0162  150.2777 H   0  0  0  0  0  0  0  0  0  0  0  0  # atno 10718 bound_to 10713
  153.1119  135.6699  153.9485 H   0  0  0  0  0  0  0  0  0  0  0  0  # atno 10763 bound_to 10752
  153.9025  135.3034  155.3450 H   0  0  0  0  0  0  0  0  0  0  0  0  # atno 10764 bound_to 10752
  154.7538  135.5021  153.9415 H   0  0  0  0  0  0  0  0  0  0  0  0  # atno 10765 bound_to 10752
  139.8790  134.8891  156.3989 H   0  0  0  0  0  0  0  0  0  0  0  0  # atno 11005 bound_to 11000
  146.2138  139.5512  142.9664 LP  0  0  0  0  0  0  0  0  0  0  0  0  # atno 17320 bound_to 7965
  145.5838  141.0379  143.2107 LP  0  0  0  0  0  0  0  0  0  0  0  0  # atno 17321 bound_to 7965
  140.0353  144.6049  150.7455 LP  0  0  0  0  0  0  0  0  0  0  0  0  # atno 17342 bound_to 10162
  140.7350  143.2735  151.3814 LP  0  0  0  0  0  0  0  0  0  0  0  0  # atno 17343 bound_to 10162
  156.3329  130.3803  149.7475 LP  0  0  0  0  0  0  0  0  0  0  0  0  # atno 17370 bound_to 10713
  156.5009  130.8128  151.3132 LP  0  0  0  0  0  0  0  0  0  0  0  0  # atno 17371 bound_to 10713
  140.9281  133.7598  155.9990 LP  0  0  0  0  0  0  0  0  0  0  0  0  # atno 17394 bound_to 11000
  140.8363  134.3120  157.5330 LP  0  0  0  0  0  0  0  0  0  0  0  0  # atno 17395 bound_to 11000

$$$$
