AV-unprocessed.smi:110|AV-procd|sdf|1071|dock8
  -GOLD-   2262018153D 1   1.00000     0.00000
 Structure written by MMmdl.
 46 50  0  0  0  0  0  0  0  0  1 V2000
  152.9606  139.5456  157.2384 O   0  0  0  0  0  0  0  0  0  0  0  0
  152.4036  138.2691  157.0093 C   0  0  0  0  0  0  0  0  0  0  0  0
  152.4242  137.9516  155.4950 C   0  0  1  0  0  0  0  0  0  0  0  0
  151.8738  136.6614  155.2481 O   0  0  0  0  0  0  0  0  0  0  0  0
  150.4845  136.7198  155.0970 C   0  0  1  0  0  0  0  0  0  0  0  0
  149.8379  136.2608  156.3754 N   0  0  0  0  0  0  0  0  0  0  0  0
  149.9479  135.0372  157.0035 C   0  0  0  0  0  0  0  0  0  0  0  0
  149.2954  134.9213  158.1271 N   0  0  0  0  0  0  0  0  0  0  0  0
  148.7203  136.1706  158.3194 C   0  0  0  0  0  0  0  0  0  0  0  0
  147.9024  136.7468  159.3333 C   0  0  0  0  0  0  0  0  0  0  0  0
  147.4575  136.0881  160.4285 N   0  0  0  0  0  0  0  0  0  0  0  0
  148.0309  134.7775  160.7655 C   0  0  0  0  0  0  0  0  0  0  0  0
  147.0680  134.0891  161.7514 C   0  0  0  0  0  0  0  0  0  0  0  0
  146.0529  135.1665  161.9597 C   0  0  0  0  0  0  0  0  0  0  0  0
  144.9455  135.1380  162.8250 C   0  0  0  0  0  0  0  0  0  0  0  0
  144.1209  136.2816  162.8879 C   0  0  0  0  0  0  0  0  0  0  0  0
  144.4185  137.4211  162.1048 C   0  0  0  0  0  0  0  0  0  0  0  0
  145.5380  137.4277  161.2440 C   0  0  0  0  0  0  0  0  0  0  0  0
  146.3446  136.2735  161.1692 C   0  0  0  0  0  0  0  0  0  0  0  0
  147.5907  138.0625  159.2185 N   0  0  0  0  0  0  0  0  0  0  0  0
  148.0145  138.7619  158.1631 C   0  0  0  0  0  0  0  0  0  0  0  0
  148.7544  138.3493  157.1333 N   0  0  0  0  0  0  0  0  0  0  0  0
  149.0911  137.0314  157.2475 C   0  0  0  0  0  0  0  0  0  0  0  0
  150.1408  138.1913  154.7779 C   0  0  2  0  0  0  0  0  0  0  0  0
  149.4139  138.3110  153.5720 O   0  0  0  0  0  0  0  0  0  0  0  0
  151.5176  138.8257  154.6188 C   0  0  1  0  0  0  0  0  0  0  0  0
  151.5180  140.1862  155.0056 O   0  0  0  0  0  0  0  0  0  0  0  0
  153.4507  137.9979  155.1287 H   0  0  0  0  0  0  0  0  0  0  0  0
  150.1456  136.0000  154.3511 H   0  0  0  0  0  0  0  0  0  0  0  0
  149.6047  138.6582  155.6042 H   0  0  0  0  0  0  0  0  0  0  0  0
  151.8547  138.7466  153.5836 H   0  0  0  0  0  0  0  0  0  0  0  0
  153.0229  139.6835  158.1713 H   0  0  0  0  0  0  0  0  0  0  0  0
  152.9205  137.5203  157.6070 H   0  0  0  0  0  0  0  0  0  0  0  0
  151.3790  138.3096  157.3778 H   0  0  0  0  0  0  0  0  0  0  0  0
  150.5272  134.2181  156.6037 H   0  0  0  0  0  0  0  0  0  0  0  0
  148.1677  134.1736  159.8674 H   0  0  0  0  0  0  0  0  0  0  0  0
  149.0100  134.9196  161.2245 H   0  0  0  0  0  0  0  0  0  0  0  0
  146.6013  133.2045  161.3172 H   0  0  0  0  0  0  0  0  0  0  0  0
  147.5570  133.8197  162.6878 H   0  0  0  0  0  0  0  0  0  0  0  0
  144.7347  134.2681  163.4288 H   0  0  0  0  0  0  0  0  0  0  0  0
  143.2632  136.2899  163.5440 H   0  0  0  0  0  0  0  0  0  0  0  0
  143.7876  138.2952  162.1691 H   0  0  0  0  0  0  0  0  0  0  0  0
  145.7677  138.3071  160.6609 H   0  0  0  0  0  0  0  0  0  0  0  0
  147.7170  139.7998  158.1387 H   0  0  0  0  0  0  0  0  0  0  0  0
  149.2617  137.4451  153.2254 H   0  0  0  0  0  0  0  0  0  0  0  0
  151.0152  140.2690  155.8017 H   0  0  0  0  0  0  0  0  0  0  0  0
  1  2  1  0  0  0  0
  1 32  1  0  0  0  0
  2  3  1  0  0  0  0
  2 33  1  0  0  0  0
  2 34  1  0  0  0  0
  3 28  1  0  0  0  0
  3 26  1  0  0  0  0
  3  4  1  0  0  0  0
  4  5  1  0  0  0  0
  5 29  1  0  0  0  0
  5  6  1  0  0  0  0
  5 24  1  0  0  0  0
  6 23  1  0  0  0  0
  6  7  1  0  0  0  0
  7  8  2  0  0  0  0
  7 35  1  0  0  0  0
  8  9  1  0  0  0  0
  9 23  2  0  0  0  0
  9 10  1  0  0  0  0
 10 11  1  0  0  0  0
 10 20  2  0  0  0  0
 11 19  1  0  0  0  0
 11 12  1  0  0  0  0
 12 13  1  0  0  0  0
 12 36  1  0  0  0  0
 12 37  1  0  0  0  0
 13 14  1  0  0  0  0
 13 38  1  0  0  0  0
 13 39  1  0  0  0  0
 14 19  2  0  0  0  0
 14 15  1  0  0  0  0
 15 16  2  0  0  0  0
 15 40  1  0  0  0  0
 16 17  1  0  0  0  0
 16 41  1  0  0  0  0
 17 18  2  0  0  0  0
 17 42  1  0  0  0  0
 18 19  1  0  0  0  0
 18 43  1  0  0  0  0
 20 21  1  0  0  0  0
 21 22  2  0  0  0  0
 21 44  1  0  0  0  0
 22 23  1  0  0  0  0
 24 30  1  0  0  0  0
 24 25  1  0  0  0  0
 24 26  1  0  0  0  0
 25 45  1  0  0  0  0
 26 31  1  0  0  0  0
 26 27  1  0  0  0  0
 27 46  1  0  0  0  0
M  END
> <s_m_source_file>
AV-unprocessed.smi

> <i_m_source_file_index>
110

> <i_lp_mmshare_version>
43012

> <i_f3d_flags>
0

> <s_epik_input>
W09IXVtDSDJdW0NASF0xT1tDQEhdKFtDQEhdKFtPSF0pW0NAQEhdMVtPSF0pbihbY0hdbjIpYyhjMjMpbltjSF1uYzNOKFtDSDJdW0NIMl00KWMoYzQ1KVtjSF1bY0hdW2NIXVtjSF01

> <s_epik_cmdline>
J2VwaWtfcHl0aG9uJywgJy1waCcsICc3LjAnLCAnLXRuJywgJzgnLCAnLW1hJywgJzIwMCcsICctbWV0YWxfYmluZGluZycsICctaW1hZScsICc8aW5maWxlLm1hZT4nLCAnLW9tYWUnLCAnPG91dGZpbGUubWFlPic=

> <r_lp_tautomer_probability>
1

> <r_epik_Ionization_Penalty>
0.00068475

> <r_epik_Ionization_Penalty_Charging>
0

> <r_epik_Ionization_Penalty_Neutral>
0.00068475

> <r_epik_State_Penalty>
0.000417442

> <r_epik_Charging_Adjusted_Penalty>
0.000417442

> <i_epik_Tot_Q>
0

> <i_epik_Tot_abs_Q>
0

> <r_epik_Metal_State_Penalty>
-0

> <b_epik_Metal_Only>
0

> <s_epik_Chemistry_Notes>
This compound contains an acetal/aminal-like group ( X-CH(R)-Y where X, Y are N, S, or O) that may be acid/base labile, releasing an aldehyde.

> <s_lp_Force_Field>
OPLS_2005

> <r_lp_Energy>
59.87

> <b_lp_Chiralities_Consistent>
1

> <s_lp_Variant>
AV-unprocessed.smi:110-9

> <Gold.Version>
5.8.1

> <Gold.Id.Protein>
6NUR|6NUR_protein|mol2

> <Gold.PLP.Fitness>
52.4591

> <Gold.PLP.PLP>
-36.9897

> <Gold.PLP.part.hbond>
-7.0000

> <Gold.PLP.part.metal>
0.0000

> <Gold.PLP.part.buried>
-6.6725

> <Gold.PLP.part.nonpolar>
-24.5972

> <Gold.PLP.part.repulsive>
0.0826

> <Gold.PLP.ligand.clash>
0.4466

> <Gold.PLP.ligand.torsion>
0.2688

> <Gold.PLP.Chemscore.Hbond>
5.4441

> <Gold.PLP.Chemscore.CHOScore>
0.0000

> <Gold.PLP.Chemscore.Metal>
0.0000

> <Gold.Chemscore.Hbonds>
donor molecule, donor type, donor heavy atom, donor atom, acceptor molecule, acceptor atom, score
      L1  H    25    45       P1  7948  1.00
      P1  H  6896  6909       L1     8  1.00
      P1  H  6934  6947       L1    20  0.43
      P1  H  7989  7998       L1    27  0.95
      P1  H  7997  8010       L1     1  1.00
      P1  H 10752 10763       L1     4  1.00

> <Gold.PLP.Chemscore.Internal.Correction>
0.1213

> <Gold.Rescore>
     Score         DG    S(hbond)    S(metal)    S(lipo)     H(rot)  DE(clash)    DE(int)     intcor
     13.89     -18.07       3.83        0.00      72.24       3.38       0.11       4.07       ----

> <Gold.Chemscore.Fitness>
13.8883

> <Gold.Chemscore.DG>
-18.0655

> <Gold.Chemscore.ZeroCoef>
-5.4800

> <Gold.Chemscore.Hbond>
3.8310

> <Gold.Chemscore.Metal>
0.0000

> <Gold.Chemscore.Lipo>
72.2395

> <Gold.Chemscore.Internal_Hbond>
0.0000

> <Gold.Chemscore.DEClash>
0.1074

> <Gold.Chemscore.DEInternal>
4.0698

> <Gold.Chemscore.Rot>
3.3837

> <Gold.Chemscore.Internal.Correction>
   9.000000E+99

> <Gold.Chemscore.Hbonds>
donor molecule, donor type, donor heavy atom, donor atom, acceptor molecule, acceptor atom, score
      L1  H    25    45       P1  7948  0.95
      P1  H  6896  6909       L1     8  0.38
      P1  H  6934  6947       L1    20  0.38
      P1  H  7989  7998       L1    27  0.21
      P1  H  7997  8010       L1     1  0.60
      P1  H 10752 10763       L1     4  0.84

> <Gold.Chemscore.Hbond.Weighted>
-12.7956

> <Gold.Chemscore.Metal.Weighted>
-0.0000

> <Gold.Chemscore.Lipo.Weighted>
-8.4520

> <Gold.Chemscore.Internal_Hbond.Weighted>
0.0000

> <Gold.Chemscore.DEClash.Weighted>
0.1074

> <Gold.Chemscore.DEInternal.Weighted>
4.0698

> <Gold.Chemscore.Rot.Weighted>
8.6622

> <Gold.Chemscore.Internal.Correction.Weighted>
   9.000000E+99

> <Gold.Protein.RotatedTorsions>
[ 6907 6896 6895 6894 ] final   21.07 input  -60.11 | X-H torsion
[ 7974 7965 7964 7962 ] final    1.05 input  175.53 | X-H torsion
[ 8008 7997 7996 7995 ] final   64.36 input   59.86 | X-H torsion
[ 10167 10162 10161 10158 ] final  103.02 input  -65.29 | X-H torsion
[ 10718 10713 10712 10709 ] final  -92.91 input   66.30 | X-H torsion
[ 10763 10752 10751 10750 ] final   69.43 input  -60.55 | X-H torsion
[ 11005 11000 10999 10996 ] final  -67.96 input  -57.11 | X-H torsion

> <Gold.Protein.ActiveResidues>
 VAL166  LYS551  ARG553  GLY616  TRP617  ASP618  TYR619  PRO620  LYS621  CYS622 
 ASP623  PHE694  ASN695  SER759  ASP760  ASP761  ALA762  ILE779  LEU786  VAL792 
 PHE793  MET794  SER795  GLU796  ALA797  LYS798  CYS799  TRP800  GLU811  SER814 

> <Gold.Protein.RotatedAtoms>
  151.9062  135.0358  160.0510 H   0  0  0  0  0  0  0  0  0  0  0  0  # atno 6907 bound_to 6896
  152.2317  133.5059  159.5228 H   0  0  0  0  0  0  0  0  0  0  0  0  # atno 6908 bound_to 6896
  150.7027  134.1124  159.4047 H   0  0  0  0  0  0  0  0  0  0  0  0  # atno 6909 bound_to 6896
  146.2438  140.1045  142.8346 H   0  0  0  0  0  0  0  0  0  0  0  0  # atno 7974 bound_to 7965
  155.6448  140.3497  155.4727 H   0  0  0  0  0  0  0  0  0  0  0  0  # atno 8008 bound_to 7997
  155.9897  140.1191  157.0673 H   0  0  0  0  0  0  0  0  0  0  0  0  # atno 8009 bound_to 7997
  154.4215  140.1122  156.5534 H   0  0  0  0  0  0  0  0  0  0  0  0  # atno 8010 bound_to 7997
  139.7299  144.7038  151.0738 H   0  0  0  0  0  0  0  0  0  0  0  0  # atno 10167 bound_to 10162
  156.0007  130.5006  150.5696 H   0  0  0  0  0  0  0  0  0  0  0  0  # atno 10718 bound_to 10713
  153.0287  135.5211  154.7287 H   0  0  0  0  0  0  0  0  0  0  0  0  # atno 10763 bound_to 10752
  154.6321  135.2901  155.0206 H   0  0  0  0  0  0  0  0  0  0  0  0  # atno 10764 bound_to 10752
  154.1154  135.6615  153.4945 H   0  0  0  0  0  0  0  0  0  0  0  0  # atno 10765 bound_to 10752
  141.1521  133.6730  156.6373 H   0  0  0  0  0  0  0  0  0  0  0  0  # atno 11005 bound_to 11000
  145.0540  140.9039  143.4978 LP  0  0  0  0  0  0  0  0  0  0  0  0  # atno 17320 bound_to 7965
  145.1148  139.2733  143.5619 LP  0  0  0  0  0  0  0  0  0  0  0  0  # atno 17321 bound_to 7965
  140.7769  143.5057  150.9716 LP  0  0  0  0  0  0  0  0  0  0  0  0  # atno 17342 bound_to 10162
  139.8745  143.7151  152.3163 LP  0  0  0  0  0  0  0  0  0  0  0  0  # atno 17343 bound_to 10162
  157.3593  131.0747  151.1649 LP  0  0  0  0  0  0  0  0  0  0  0  0  # atno 17370 bound_to 10713
  157.2439  130.6582  149.5902 LP  0  0  0  0  0  0  0  0  0  0  0  0  # atno 17371 bound_to 10713
  140.3420  134.7841  157.4405 LP  0  0  0  0  0  0  0  0  0  0  0  0  # atno 17394 bound_to 11000
  140.0930  134.5575  155.8426 LP  0  0  0  0  0  0  0  0  0  0  0  0  # atno 17395 bound_to 11000

$$$$
