AV-unprocessed.smi:1592|AV-procd|sdf|6408|dock4
  -GOLD-   22720 7 43D 1   1.00000     0.00000
 Structure written by MMmdl.
 26 27  0  0  0  0  0  0  0  0  2 V2000
  150.0724  142.8004  157.7589 O   0  0  0  0  0  0  0  0  0  0  0  0
  151.2516  142.4451  157.7967 C   0  0  0  0  0  0  0  0  0  0  0  0
  151.7827  141.4654  157.0426 N   0  0  0  0  0  0  0  0  0  0  0  0
  151.1513  140.6577  156.0563 C   0  0  0  0  0  0  0  0  0  0  0  0
  149.9236  140.9378  155.5502 N   0  0  0  0  0  0  0  0  0  0  0  0
  149.3913  140.1226  154.6167 C   0  0  0  0  0  0  0  0  0  0  0  0
  150.0467  138.9791  154.1274 C   0  0  0  0  0  0  0  0  0  0  0  0
  151.3192  138.6757  154.6415 C   0  0  0  0  0  0  0  0  0  0  0  0
  151.8827  139.5220  155.6175 C   0  0  0  0  0  0  0  0  0  0  0  0
  153.1227  139.2260  156.1161 O   0  5  0  0  0  0  0  0  0  0  0  0
  152.2192  143.1301  158.7683 C   0  0  1  0  0  0  0  0  0  0  0  0
  152.4316  144.6288  158.4825 C   0  0  0  0  0  0  0  0  0  0  0  0
  151.7928  145.3200  159.6720 C   0  0  0  0  0  0  0  0  0  0  0  0
  151.9423  144.2710  160.7639 C   0  0  0  0  0  0  0  0  0  0  0  0
  151.6602  143.0619  160.0787 O   0  0  0  0  0  0  0  0  0  0  0  0
  152.7639  141.2708  157.1814 H   0  0  0  0  0  0  0  0  0  0  0  0
  148.4123  140.3914  154.2488 H   0  0  0  0  0  0  0  0  0  0  0  0
  149.5865  138.3519  153.3788 H   0  0  0  0  0  0  0  0  0  0  0  0
  151.8544  137.8056  154.2901 H   0  0  0  0  0  0  0  0  0  0  0  0
  153.1833  142.6180  158.7695 H   0  0  0  0  0  0  0  0  0  0  0  0
  153.4997  144.8474  158.4517 H   0  0  0  0  0  0  0  0  0  0  0  0
  152.0042  144.9678  157.5376 H   0  0  0  0  0  0  0  0  0  0  0  0
  152.2668  146.2694  159.9222 H   0  0  0  0  0  0  0  0  0  0  0  0
  150.7355  145.5039  159.4752 H   0  0  0  0  0  0  0  0  0  0  0  0
  152.9636  144.2469  161.1473 H   0  0  0  0  0  0  0  0  0  0  0  0
  151.2604  144.4287  161.5997 H   0  0  0  0  0  0  0  0  0  0  0  0
  1  2  2  0  0  0  0
  2  3  1  0  0  0  0
  2 11  1  0  0  0  0
  3 16  1  0  0  0  0
  3  4  1  0  0  0  0
  4  9  2  0  0  0  0
  4  5  1  0  0  0  0
  5  6  2  0  0  0  0
  6 17  1  0  0  0  0
  6  7  1  0  0  0  0
  7 18  1  0  0  0  0
  7  8  2  0  0  0  0
  8  9  1  0  0  0  0
  8 19  1  0  0  0  0
  9 10  1  0  0  0  0
 11 15  1  0  0  0  0
 11 12  1  0  0  0  0
 11 20  1  0  0  0  0
 12 13  1  0  0  0  0
 12 21  1  0  0  0  0
 12 22  1  0  0  0  0
 13 14  1  0  0  0  0
 13 23  1  0  0  0  0
 13 24  1  0  0  0  0
 14 15  1  0  0  0  0
 14 25  1  0  0  0  0
 14 26  1  0  0  0  0
M  CHG  1  10  -1
M  END
> <s_m_source_file>
AV-unprocessed.smi

> <i_m_source_file_index>
1592

> <i_lp_mmshare_version>
43012

> <i_f3d_flags>
0

> <s_epik_input>
TzFbQ0gyXVtDSDJdW0NIMl1bQ0BIXTFDKD1PKVtOSF1jMm5bY0hdW2NIXVtjSF1jMltPSF0=

> <s_epik_cmdline>
J2VwaWtfcHl0aG9uJywgJy1waCcsICc3LjAnLCAnLXRuJywgJzgnLCAnLW1hJywgJzIwMCcsICctbWV0YWxfYmluZGluZycsICctaW1hZScsICc8aW5maWxlLm1hZT4nLCAnLW9tYWUnLCAnPG91dGZpbGUubWFlPic=

> <r_epik_Ionization_Penalty>
4.05601

> <r_epik_Ionization_Penalty_Charging>
2.06015

> <r_epik_Ionization_Penalty_Neutral>
1.99585

> <r_epik_State_Penalty>
2.62166

> <r_epik_Charging_Adjusted_Penalty>
4.68182

> <i_epik_Tot_Q>
-1

> <i_epik_Tot_abs_Q>
1

> <r_epik_Metal_State_Penalty>
0.603772

> <b_epik_Metal_Only>
0

> <s_lp_Force_Field>
OPLS_2005

> <r_lp_Energy>
18.4071

> <b_lp_Chiralities_Consistent>
1

> <s_lp_Variant>
AV-unprocessed.smi:1592-8

> <Gold.Version>
5.8.1

> <Gold.Id.Protein>
6NUR|6NUR_protein|mol2

> <Gold.PLP.Fitness>
40.9244

> <Gold.PLP.PLP>
-35.0808

> <Gold.PLP.part.hbond>
-1.0000

> <Gold.PLP.part.metal>
0.0000

> <Gold.PLP.part.buried>
-2.8060

> <Gold.PLP.part.nonpolar>
-32.0296

> <Gold.PLP.part.repulsive>
1.0324

> <Gold.PLP.ligand.clash>
0.0000

> <Gold.PLP.ligand.torsion>
0.0823

> <Gold.PLP.Chemscore.Hbond>
2.0000

> <Gold.PLP.Chemscore.CHOScore>
0.0000

> <Gold.PLP.Chemscore.Metal>
0.0000

> <Gold.Chemscore.Hbonds>
donor molecule, donor type, donor heavy atom, donor atom, acceptor molecule, acceptor atom, score
      P1  H  7997  8008       L1    10  2.00

> <Gold.PLP.Chemscore.Internal.Correction>
0.0082

> <Gold.Rescore>
     Score         DG    S(hbond)    S(metal)    S(lipo)     H(rot)  DE(clash)    DE(int)     intcor
     14.07     -15.42       1.00        0.00      78.29       1.00       0.04       1.31       ----

> <Gold.Chemscore.Fitness>
14.0678

> <Gold.Chemscore.DG>
-15.4202

> <Gold.Chemscore.ZeroCoef>
-5.4800

> <Gold.Chemscore.Hbond>
1.0000

> <Gold.Chemscore.Metal>
0.0000

> <Gold.Chemscore.Lipo>
78.2928

> <Gold.Chemscore.Internal_Hbond>
0.0000

> <Gold.Chemscore.DEClash>
0.0424

> <Gold.Chemscore.DEInternal>
1.3100

> <Gold.Chemscore.Rot>
1.0000

> <Gold.Chemscore.Internal.Correction>
   9.000000E+99

> <Gold.Chemscore.Hbonds>
donor molecule, donor type, donor heavy atom, donor atom, acceptor molecule, acceptor atom, score
      P1  H  7997  8008       L1    10  0.93

> <Gold.Chemscore.Hbond.Weighted>
-3.3399

> <Gold.Chemscore.Metal.Weighted>
-0.0000

> <Gold.Chemscore.Lipo.Weighted>
-9.1603

> <Gold.Chemscore.Internal_Hbond.Weighted>
0.0000

> <Gold.Chemscore.DEClash.Weighted>
0.0424

> <Gold.Chemscore.DEInternal.Weighted>
1.3100

> <Gold.Chemscore.Rot.Weighted>
2.5600

> <Gold.Chemscore.Internal.Correction.Weighted>
   9.000000E+99

> <Gold.Protein.RotatedTorsions>
[ 6907 6896 6895 6894 ] final    8.02 input  -60.11 | X-H torsion
[ 7974 7965 7964 7962 ] final   -5.29 input  175.53 | X-H torsion
[ 8008 7997 7996 7995 ] final  -32.11 input   59.86 | X-H torsion
[ 10167 10162 10161 10158 ] final  176.60 input  -65.29 | X-H torsion
[ 10718 10713 10712 10709 ] final   74.45 input   66.30 | X-H torsion
[ 10763 10752 10751 10750 ] final  -79.66 input  -60.55 | X-H torsion
[ 11005 11000 10999 10996 ] final    9.27 input  -57.11 | X-H torsion

> <Gold.Protein.ActiveResidues>
 VAL166  LYS551  ARG553  GLY616  TRP617  ASP618  TYR619  PRO620  LYS621  CYS622 
 ASP623  PHE694  ASN695  SER759  ASP760  ASP761  ALA762  ILE779  LEU786  VAL792 
 PHE793  MET794  SER795  GLU796  ALA797  LYS798  CYS799  TRP800  GLU811  SER814 

> <Gold.Protein.RotatedAtoms>
  151.6993  135.0933  160.0247 H   0  0  0  0  0  0  0  0  0  0  0  0  # atno 6907 bound_to 6896
  152.3730  133.6440  159.6110 H   0  0  0  0  0  0  0  0  0  0  0  0  # atno 6908 bound_to 6896
  150.7688  133.9155  159.3423 H   0  0  0  0  0  0  0  0  0  0  0  0  # atno 6909 bound_to 6896
  146.2356  140.1999  142.8333 H   0  0  0  0  0  0  0  0  0  0  0  0  # atno 7974 bound_to 7965
  154.4191  140.1746  156.1675 H   0  0  0  0  0  0  0  0  0  0  0  0  # atno 8008 bound_to 7997
  155.9787  140.3379  155.6619 H   0  0  0  0  0  0  0  0  0  0  0  0  # atno 8009 bound_to 7997
  155.6528  140.0692  157.2571 H   0  0  0  0  0  0  0  0  0  0  0  0  # atno 8010 bound_to 7997
  139.5220  144.2897  152.0475 H   0  0  0  0  0  0  0  0  0  0  0  0  # atno 10167 bound_to 10162
  157.6593  130.9678  150.1213 H   0  0  0  0  0  0  0  0  0  0  0  0  # atno 10718 bound_to 10713
  154.5414  135.5688  153.6842 H   0  0  0  0  0  0  0  0  0  0  0  0  # atno 10763 bound_to 10752
  152.9964  135.6228  154.2497 H   0  0  0  0  0  0  0  0  0  0  0  0  # atno 10764 bound_to 10752
  154.2428  135.2862  155.2827 H   0  0  0  0  0  0  0  0  0  0  0  0  # atno 10765 bound_to 10752
  140.5276  134.0498  155.7863 H   0  0  0  0  0  0  0  0  0  0  0  0  # atno 11005 bound_to 11000
  144.9790  140.8441  143.5409 LP  0  0  0  0  0  0  0  0  0  0  0  0  # atno 17320 bound_to 7965
  145.1990  139.2262  143.5203 LP  0  0  0  0  0  0  0  0  0  0  0  0  # atno 17321 bound_to 7965
  140.2348  144.4330  150.6284 LP  0  0  0  0  0  0  0  0  0  0  0  0  # atno 17342 bound_to 10162
  140.6330  143.2190  151.6454 LP  0  0  0  0  0  0  0  0  0  0  0  0  # atno 17343 bound_to 10162
  156.2084  130.3665  149.8701 LP  0  0  0  0  0  0  0  0  0  0  0  0  # atno 17370 bound_to 10713
  156.6586  130.8773  151.3543 LP  0  0  0  0  0  0  0  0  0  0  0  0  # atno 17371 bound_to 10713
  141.1299  133.9319  157.2557 LP  0  0  0  0  0  0  0  0  0  0  0  0  # atno 17394 bound_to 11000
  139.9572  135.0163  156.9160 LP  0  0  0  0  0  0  0  0  0  0  0  0  # atno 17395 bound_to 11000

$$$$
