AV-unprocessed.smi:1815|AV-procd|sdf|7356|dock2
  -GOLD-   22720 9 13D 1   1.00000     0.00000
 Structure written by MMmdl.
 40 41  0  0  0  0  0  0  0  0  2 V2000
  147.8692  134.1057  153.8416 C   0  0  0  0  0  0  0  0  0  0  0  0
  146.3522  134.0800  153.5833 C   0  0  1  0  0  0  0  0  0  0  0  0
  145.7946  135.4174  153.0580 C   0  0  0  0  0  0  0  0  0  0  0  0
  146.1713  135.6382  151.6413 N   0  3  2  0  0  0  0  0  0  0  0  0
  145.7035  136.9519  151.1338 C   0  0  0  0  0  0  0  0  0  0  0  0
  146.0350  138.1098  152.0948 C   0  0  0  0  0  0  0  0  0  0  0  0
  147.4455  138.1086  152.4648 N   0  0  0  0  0  0  0  0  0  0  0  0
  147.9778  138.8576  153.4415 C   0  0  0  0  0  0  0  0  0  0  0  0
  147.3177  139.6368  154.1299 O   0  0  0  0  0  0  0  0  0  0  0  0
  149.3006  138.6460  153.5562 N   0  0  0  0  0  0  0  0  0  0  0  0
  150.2083  139.2468  154.4678 C   0  0  0  0  0  0  0  0  0  0  0  0
  149.9538  140.3632  155.1605 N   0  0  0  0  0  0  0  0  0  0  0  0
  151.0240  140.7260  155.9822 C   0  0  0  0  0  0  0  0  0  0  0  0
  152.0936  139.8693  155.9007 C   0  0  0  0  0  0  0  0  0  0  0  0
  151.7966  138.5639  154.7837 S   0  0  0  0  0  0  0  0  0  0  0  0
  145.7419  134.4873  150.8110 C   0  0  0  0  0  0  0  0  0  0  0  0
  146.3467  133.1802  151.3544 C   0  0  2  0  0  0  0  0  0  0  0  0
  145.8602  131.9536  150.5746 C   0  0  0  0  0  0  0  0  0  0  0  0
  145.9679  133.0118  152.7180 O   0  0  0  0  0  0  0  0  0  0  0  0
  148.1172  134.8384  154.6101 H   0  0  0  0  0  0  0  0  0  0  0  0
  148.4379  134.3681  152.9499 H   0  0  0  0  0  0  0  0  0  0  0  0
  148.2205  133.1341  154.1893 H   0  0  0  0  0  0  0  0  0  0  0  0
  145.8746  133.8767  154.5424 H   0  0  0  0  0  0  0  0  0  0  0  0
  144.7065  135.4184  153.1392 H   0  0  0  0  0  0  0  0  0  0  0  0
  146.1571  136.2384  153.6783 H   0  0  0  0  0  0  0  0  0  0  0  0
  146.1234  137.1384  150.1442 H   0  0  0  0  0  0  0  0  0  0  0  0
  144.6209  136.9078  151.0058 H   0  0  0  0  0  0  0  0  0  0  0  0
  145.7671  139.0686  151.6475 H   0  0  0  0  0  0  0  0  0  0  0  0
  145.4609  138.0255  153.0168 H   0  0  0  0  0  0  0  0  0  0  0  0
  148.0555  137.4930  151.9466 H   0  0  0  0  0  0  0  0  0  0  0  0
  149.7069  137.9772  152.9189 H   0  0  0  0  0  0  0  0  0  0  0  0
  150.9390  141.6118  156.5941 H   0  0  0  0  0  0  0  0  0  0  0  0
  153.0339  139.9269  156.4286 H   0  0  0  0  0  0  0  0  0  0  0  0
  144.6522  134.4276  150.8047 H   0  0  0  0  0  0  0  0  0  0  0  0
  146.0601  134.6233  149.7781 H   0  0  0  0  0  0  0  0  0  0  0  0
  147.4334  133.2197  151.2757 H   0  0  0  0  0  0  0  0  0  0  0  0
  146.1282  132.0265  149.5203 H   0  0  0  0  0  0  0  0  0  0  0  0
  144.7767  131.8485  150.6382 H   0  0  0  0  0  0  0  0  0  0  0  0
  146.3067  131.0401  150.9679 H   0  0  0  0  0  0  0  0  0  0  0  0
  147.1809  135.6635  151.6166 H   0  0  0  0  0  0  0  0  0  0  0  0
  1  2  1  0  0  0  0
  1 20  1  0  0  0  0
  1 21  1  0  0  0  0
  1 22  1  0  0  0  0
  2 19  1  0  0  0  0
  2  3  1  0  0  0  0
  2 23  1  0  0  0  0
  3  4  1  0  0  0  0
  3 24  1  0  0  0  0
  3 25  1  0  0  0  0
  4  5  1  0  0  0  0
  4 16  1  0  0  0  0
  4 40  1  0  0  0  0
  5  6  1  0  0  0  0
  5 26  1  0  0  0  0
  5 27  1  0  0  0  0
  6  7  1  0  0  0  0
  6 28  1  0  0  0  0
  6 29  1  0  0  0  0
  7  8  1  0  0  0  0
  7 30  1  0  0  0  0
  8  9  2  0  0  0  0
  8 10  1  0  0  0  0
 10 11  1  0  0  0  0
 10 31  1  0  0  0  0
 11 15  1  0  0  0  0
 11 12  2  0  0  0  0
 12 13  1  0  0  0  0
 13 14  2  0  0  0  0
 13 32  1  0  0  0  0
 14 15  1  0  0  0  0
 14 33  1  0  0  0  0
 16 17  1  0  0  0  0
 16 34  1  0  0  0  0
 16 35  1  0  0  0  0
 17 18  1  0  0  0  0
 17 19  1  0  0  0  0
 17 36  1  0  0  0  0
 18 37  1  0  0  0  0
 18 38  1  0  0  0  0
 18 39  1  0  0  0  0
M  CHG  1   4   1
M  END
> <s_m_source_file>
AV-unprocessed.smi

> <i_m_source_file_index>
1815

> <i_lp_mmshare_version>
43012

> <i_f3d_flags>
0

> <s_epik_input>
W0NIM11bQ0BASF0xW0NIMl1OKFtDSDJdW0NASF0oTzEpW0NIM10pW0NIMl1bQ0gyXVtOSF1DKD1PKVtOSF1jMm5bY0hdW2NIXXMy

> <s_epik_cmdline>
J2VwaWtfcHl0aG9uJywgJy1waCcsICc3LjAnLCAnLXRuJywgJzgnLCAnLW1hJywgJzIwMCcsICctbWV0YWxfYmluZGluZycsICctaW1hZScsICc8aW5maWxlLm1hZT4nLCAnLW9tYWUnLCAnPG91dGZpbGUubWFlPic=

> <r_lp_tautomer_probability>
0.999

> <r_epik_Ionization_Penalty>
0.695838

> <r_epik_Ionization_Penalty_Charging>
0.695697

> <r_epik_Ionization_Penalty_Neutral>
0.000141198

> <r_epik_State_Penalty>
0.717972

> <r_epik_Charging_Adjusted_Penalty>
1.41367

> <i_epik_Tot_Q>
1

> <i_epik_Tot_abs_Q>
1

> <r_epik_Metal_State_Penalty>
0.756405

> <b_epik_Metal_Only>
0

> <s_lp_Force_Field>
OPLS_2005

> <r_lp_Energy>
15.0285

> <b_lp_Chiralities_Consistent>
1

> <s_lp_Variant>
AV-unprocessed.smi:1815-7

> <Gold.Version>
5.8.1

> <Gold.Id.Protein>
6NUR|6NUR_protein|mol2

> <Gold.PLP.Fitness>
41.5787

> <Gold.PLP.PLP>
-31.3044

> <Gold.PLP.part.hbond>
-4.7168

> <Gold.PLP.part.metal>
0.0000

> <Gold.PLP.part.buried>
3.3823

> <Gold.PLP.part.nonpolar>
-30.0699

> <Gold.PLP.part.repulsive>
0.5441

> <Gold.PLP.ligand.clash>
0.0000

> <Gold.PLP.ligand.torsion>
0.1850

> <Gold.PLP.Chemscore.Hbond>
3.5356

> <Gold.PLP.Chemscore.CHOScore>
0.0000

> <Gold.PLP.Chemscore.Metal>
0.0000

> <Gold.Chemscore.Hbonds>
donor molecule, donor type, donor heavy atom, donor atom, acceptor molecule, acceptor atom, score
      L1  H     4    40       P1  7948  2.00
      L1  H     7    30       P1  7948  0.98
      L1  H    10    31       P1  7948  0.54

> <Gold.PLP.Chemscore.Internal.Correction>
0.0376

> <Gold.Rescore>
     Score         DG    S(hbond)    S(metal)    S(lipo)     H(rot)  DE(clash)    DE(int)     intcor
     14.88     -17.71       2.56        0.00      67.24       1.64       1.40       1.43       ----

> <Gold.Chemscore.Fitness>
14.8755

> <Gold.Chemscore.DG>
-17.7090

> <Gold.Chemscore.ZeroCoef>
-5.4800

> <Gold.Chemscore.Hbond>
2.5617

> <Gold.Chemscore.Metal>
0.0000

> <Gold.Chemscore.Lipo>
67.2415

> <Gold.Chemscore.Internal_Hbond>
0.0000

> <Gold.Chemscore.DEClash>
1.3992

> <Gold.Chemscore.DEInternal>
1.4343

> <Gold.Chemscore.Rot>
1.6385

> <Gold.Chemscore.Internal.Correction>
   9.000000E+99

> <Gold.Chemscore.Hbonds>
donor molecule, donor type, donor heavy atom, donor atom, acceptor molecule, acceptor atom, score
      L1  H     4    40       P1  7948  1.00
      L1  H     7    30       P1  7948  0.90
      L1  H    10    31       P1  7948  0.35

> <Gold.Chemscore.Hbond.Weighted>
-8.5562

> <Gold.Chemscore.Metal.Weighted>
-0.0000

> <Gold.Chemscore.Lipo.Weighted>
-7.8673

> <Gold.Chemscore.Internal_Hbond.Weighted>
0.0000

> <Gold.Chemscore.DEClash.Weighted>
1.3992

> <Gold.Chemscore.DEInternal.Weighted>
1.4343

> <Gold.Chemscore.Rot.Weighted>
4.1945

> <Gold.Chemscore.Internal.Correction.Weighted>
   9.000000E+99

> <Gold.Protein.RotatedTorsions>
[ 6907 6896 6895 6894 ] final  -57.04 input  -60.11 | X-H torsion
[ 7974 7965 7964 7962 ] final  -79.95 input  175.53 | X-H torsion
[ 8008 7997 7996 7995 ] final  -60.74 input   59.86 | X-H torsion
[ 10167 10162 10161 10158 ] final  106.87 input  -65.29 | X-H torsion
[ 10718 10713 10712 10709 ] final  -55.21 input   66.30 | X-H torsion
[ 10763 10752 10751 10750 ] final   75.35 input  -60.55 | X-H torsion
[ 11005 11000 10999 10996 ] final  124.46 input  -57.11 | X-H torsion

> <Gold.Protein.ActiveResidues>
 VAL166  LYS551  ARG553  GLY616  TRP617  ASP618  TYR619  PRO620  LYS621  CYS622 
 ASP623  PHE694  ASN695  SER759  ASP760  ASP761  ALA762  ILE779  LEU786  VAL792 
 PHE793  MET794  SER795  GLU796  ALA797  LYS798  CYS799  TRP800  GLU811  SER814 

> <Gold.Protein.RotatedAtoms>
  150.8119  134.7278  159.6694 H   0  0  0  0  0  0  0  0  0  0  0  0  # atno 6907 bound_to 6896
  152.4238  134.5902  159.9982 H   0  0  0  0  0  0  0  0  0  0  0  0  # atno 6908 bound_to 6896
  151.6110  133.3310  159.3103 H   0  0  0  0  0  0  0  0  0  0  0  0  # atno 6909 bound_to 6896
  145.5664  140.9473  143.1419 H   0  0  0  0  0  0  0  0  0  0  0  0  # atno 7974 bound_to 7965
  154.4413  140.1033  156.6322 H   0  0  0  0  0  0  0  0  0  0  0  0  # atno 8008 bound_to 7997
  155.5593  140.3487  155.4468 H   0  0  0  0  0  0  0  0  0  0  0  0  # atno 8009 bound_to 7997
  156.0472  140.1295  157.0080 H   0  0  0  0  0  0  0  0  0  0  0  0  # atno 8010 bound_to 7997
  139.6973  144.7099  151.1245 H   0  0  0  0  0  0  0  0  0  0  0  0  # atno 10167 bound_to 10162
  156.1387  130.4155  150.0140 H   0  0  0  0  0  0  0  0  0  0  0  0  # atno 10718 bound_to 10713
  153.0649  135.4992  154.8177 H   0  0  0  0  0  0  0  0  0  0  0  0  # atno 10763 bound_to 10752
  154.6938  135.2989  154.9443 H   0  0  0  0  0  0  0  0  0  0  0  0  # atno 10764 bound_to 10752
  154.0189  135.6744  153.4824 H   0  0  0  0  0  0  0  0  0  0  0  0  # atno 10765 bound_to 10752
  139.9360  134.9639  156.8413 H   0  0  0  0  0  0  0  0  0  0  0  0  # atno 11005 bound_to 11000
  144.7458  139.7323  143.7292 LP  0  0  0  0  0  0  0  0  0  0  0  0  # atno 17320 bound_to 7965
  146.1815  139.5010  142.9863 LP  0  0  0  0  0  0  0  0  0  0  0  0  # atno 17321 bound_to 7965
  140.7700  143.5473  150.9244 LP  0  0  0  0  0  0  0  0  0  0  0  0  # atno 17342 bound_to 10162
  139.9153  143.6670  152.3107 LP  0  0  0  0  0  0  0  0  0  0  0  0  # atno 17343 bound_to 10162
  156.8032  130.9298  151.3645 LP  0  0  0  0  0  0  0  0  0  0  0  0  # atno 17370 bound_to 10713
  157.6556  130.8921  149.9722 LP  0  0  0  0  0  0  0  0  0  0  0  0  # atno 17371 bound_to 10713
  140.6075  134.0113  155.7563 LP  0  0  0  0  0  0  0  0  0  0  0  0  # atno 17394 bound_to 11000
  141.0973  133.9823  157.3138 LP  0  0  0  0  0  0  0  0  0  0  0  0  # atno 17395 bound_to 11000

$$$$
