AV-unprocessed.smi:160|AV-procd|sdf|1361|dock10
  -GOLD-   2262019 73D 1   1.00000     0.00000
 Structure written by MMmdl.
 28 29  0  0  0  0  0  0  0  0  2 V2000
  149.5723  133.4166  155.0840 N   0  5  0  0  0  0  0  0  0  0  0  0
  150.3558  133.8963  156.0746 C   0  0  0  0  0  0  0  0  0  0  0  0
  150.7901  133.2578  157.0329 O   0  0  0  0  0  0  0  0  0  0  0  0
  150.7053  135.3598  155.9435 C   0  0  0  0  0  0  0  0  0  0  0  0
  151.4715  135.9816  156.8906 N   0  0  0  0  0  0  0  0  0  0  0  0
  151.5112  137.1988  156.3653 C   0  0  0  0  0  0  0  0  0  0  0  0
  150.8562  137.3200  155.2072 N   0  0  0  0  0  0  0  0  0  0  0  0
  150.6557  138.5329  154.3495 C   0  0  2  0  0  0  0  0  0  0  0  0
  151.2862  139.6074  154.9796 O   0  0  0  0  0  0  0  0  0  0  0  0
  150.3267  140.3758  155.6982 C   0  0  1  0  0  0  0  0  0  0  0  0
  150.8642  141.7825  156.0174 C   0  0  0  0  0  0  0  0  0  0  0  0
  149.9482  142.4802  156.8341 O   0  0  0  0  0  0  0  0  0  0  0  0
  149.1110  140.3253  154.7622 C   0  0  1  0  0  0  0  0  0  0  0  0
  149.2265  141.3058  153.7425 O   0  0  0  0  0  0  0  0  0  0  0  0
  149.1630  138.8977  154.2125 C   0  0  1  0  0  0  0  0  0  0  0  0
  148.6872  138.8083  152.8816 O   0  0  0  0  0  0  0  0  0  0  0  0
  150.2987  136.1168  154.9200 N   0  0  0  0  0  0  0  0  0  0  0  0
  151.1489  138.2936  153.4065 H   0  0  0  0  0  0  0  0  0  0  0  0
  150.0686  139.8616  156.6253 H   0  0  0  0  0  0  0  0  0  0  0  0
  148.1818  140.5105  155.3021 H   0  0  0  0  0  0  0  0  0  0  0  0
  148.5547  138.2419  154.8358 H   0  0  0  0  0  0  0  0  0  0  0  0
  149.3545  134.0324  154.2915 H   0  0  0  0  0  0  0  0  0  0  0  0
  152.0307  138.0206  156.8359 H   0  0  0  0  0  0  0  0  0  0  0  0
  151.8405  141.7366  156.5011 H   0  0  0  0  0  0  0  0  0  0  0  0
  150.9818  142.3562  155.0976 H   0  0  0  0  0  0  0  0  0  0  0  0
  149.7388  143.3016  156.4169 H   0  0  0  0  0  0  0  0  0  0  0  0
  149.4451  140.8664  152.9348 H   0  0  0  0  0  0  0  0  0  0  0  0
  148.8151  137.9226  152.5780 H   0  0  0  0  0  0  0  0  0  0  0  0
  1  2  1  0  0  0  0
  1 22  1  0  0  0  0
  2  3  2  0  0  0  0
  2  4  1  0  0  0  0
  4 17  2  0  0  0  0
  4  5  1  0  0  0  0
  5  6  2  0  0  0  0
  6  7  1  0  0  0  0
  6 23  1  0  0  0  0
  7  8  1  0  0  0  0
  7 17  1  0  0  0  0
  8 18  1  0  0  0  0
  8 15  1  0  0  0  0
  8  9  1  0  0  0  0
  9 10  1  0  0  0  0
 10 19  1  0  0  0  0
 10 11  1  0  0  0  0
 10 13  1  0  0  0  0
 11 12  1  0  0  0  0
 11 24  1  0  0  0  0
 11 25  1  0  0  0  0
 12 26  1  0  0  0  0
 13 20  1  0  0  0  0
 13 14  1  0  0  0  0
 13 15  1  0  0  0  0
 14 27  1  0  0  0  0
 15 21  1  0  0  0  0
 15 16  1  0  0  0  0
 16 28  1  0  0  0  0
M  CHG  1   1  -1
M  END
> <s_m_source_file>
AV-unprocessed.smi

> <i_m_source_file_index>
160

> <i_lp_mmshare_version>
43012

> <i_f3d_flags>
0

> <s_epik_input>
W05IMl1DKD1PKWMxbltjSF1uKG4xKVtDQEBIXTJPW0NASF0oW0NIMl1bT0hdKVtDQEBIXShbT0hdKVtDQEhdMltPSF0=

> <s_epik_cmdline>
J2VwaWtfcHl0aG9uJywgJy1waCcsICc3LjAnLCAnLXRuJywgJzgnLCAnLW1hJywgJzIwMCcsICctbWV0YWxfYmluZGluZycsICctaW1hZScsICc8aW5maWxlLm1hZT4nLCAnLW9tYWUnLCAnPG91dGZpbGUubWFlPic=

> <r_lp_tautomer_probability>
1

> <r_epik_Ionization_Penalty>
6.6993

> <r_epik_Ionization_Penalty_Charging>
6.6993

> <r_epik_Ionization_Penalty_Neutral>
6.01698e-06

> <r_epik_State_Penalty>
6.69929

> <r_epik_Charging_Adjusted_Penalty>
13.3986

> <i_epik_Tot_Q>
-1

> <i_epik_Tot_abs_Q>
1

> <r_epik_Metal_State_Penalty>
2.62798

> <b_epik_Metal_Only>
1

> <s_epik_Chemistry_Notes>
This compound contains an acetal/aminal-like group ( X-CH(R)-Y where X, Y are N, S, or O) that may be acid/base labile, releasing an aldehyde.

> <s_lp_Force_Field>
OPLS_2005

> <r_lp_Energy>
44.8838

> <b_lp_Chiralities_Consistent>
1

> <s_lp_Variant>
AV-unprocessed.smi:160-19

> <Gold.Version>
5.8.1

> <Gold.Id.Protein>
6NUR|6NUR_protein|mol2

> <Gold.PLP.Fitness>
42.4702

> <Gold.PLP.PLP>
-28.1802

> <Gold.PLP.part.hbond>
-7.4265

> <Gold.PLP.part.metal>
0.0000

> <Gold.PLP.part.buried>
-6.8335

> <Gold.PLP.part.nonpolar>
-14.3249

> <Gold.PLP.part.repulsive>
0.2030

> <Gold.PLP.ligand.clash>
0.0000

> <Gold.PLP.ligand.torsion>
0.0428

> <Gold.PLP.Chemscore.Hbond>
4.7840

> <Gold.PLP.Chemscore.CHOScore>
0.0000

> <Gold.PLP.Chemscore.Metal>
0.0000

> <Gold.Chemscore.Hbonds>
donor molecule, donor type, donor heavy atom, donor atom, acceptor molecule, acceptor atom, score
      L1  H    12    26       P1  8028  1.00
      L1  H    14    27       P1  7957  1.00
      L1  H    16    28       P1  7948  1.00
      P1  H  6896  6909       L1     3  0.45
      P1  H  7989  7998       L1     9  0.95

> <Gold.PLP.Chemscore.Internal.Correction>
0.0237

> <Gold.Rescore>
     Score         DG    S(hbond)    S(metal)    S(lipo)     H(rot)  DE(clash)    DE(int)     intcor
     12.46     -12.59       4.40        0.00      23.46       4.04       0.00       0.13       ----

> <Gold.Chemscore.Fitness>
12.4565

> <Gold.Chemscore.DG>
-12.5881

> <Gold.Chemscore.ZeroCoef>
-5.4800

> <Gold.Chemscore.Hbond>
4.4029

> <Gold.Chemscore.Metal>
0.0000

> <Gold.Chemscore.Lipo>
23.4648

> <Gold.Chemscore.Internal_Hbond>
0.0000

> <Gold.Chemscore.DEClash>
0.0048

> <Gold.Chemscore.DEInternal>
0.1268

> <Gold.Chemscore.Rot>
4.0403

> <Gold.Chemscore.Internal.Correction>
   9.000000E+99

> <Gold.Chemscore.Hbonds>
donor molecule, donor type, donor heavy atom, donor atom, acceptor molecule, acceptor atom, score
      L1  H    12    26       P1  8028  1.00
      L1  H    14    27       P1  7957  0.99
      L1  H    16    28       P1  7948  1.00
      P1  H  6896  6909       L1     3  0.45
      P1  H  7989  7998       L1     9  0.08

> <Gold.Chemscore.Hbond.Weighted>
-14.7058

> <Gold.Chemscore.Metal.Weighted>
-0.0000

> <Gold.Chemscore.Lipo.Weighted>
-2.7454

> <Gold.Chemscore.Internal_Hbond.Weighted>
0.0000

> <Gold.Chemscore.DEClash.Weighted>
0.0048

> <Gold.Chemscore.DEInternal.Weighted>
0.1268

> <Gold.Chemscore.Rot.Weighted>
10.3431

> <Gold.Chemscore.Internal.Correction.Weighted>
   9.000000E+99

> <Gold.Protein.RotatedTorsions>
[ 6907 6896 6895 6894 ] final  -34.07 input  -60.11 | X-H torsion
[ 7974 7965 7964 7962 ] final -124.83 input  175.53 | X-H torsion
[ 8008 7997 7996 7995 ] final  -89.27 input   59.86 | X-H torsion
[ 10167 10162 10161 10158 ] final  -92.75 input  -65.29 | X-H torsion
[ 10718 10713 10712 10709 ] final  149.21 input   66.30 | X-H torsion
[ 10763 10752 10751 10750 ] final  -19.27 input  -60.55 | X-H torsion
[ 11005 11000 10999 10996 ] final   24.11 input  -57.11 | X-H torsion

> <Gold.Protein.ActiveResidues>
 VAL166  LYS551  ARG553  GLY616  TRP617  ASP618  TYR619  PRO620  LYS621  CYS622 
 ASP623  PHE694  ASN695  SER759  ASP760  ASP761  ALA762  ILE779  LEU786  VAL792 
 PHE793  MET794  SER795  GLU796  ALA797  LYS798  CYS799  TRP800  GLU811  SER814 

> <Gold.Protein.RotatedAtoms>
  151.0574  134.9713  159.8242 H   0  0  0  0  0  0  0  0  0  0  0  0  # atno 6907 bound_to 6896
  152.5390  134.2461  159.8891 H   0  0  0  0  0  0  0  0  0  0  0  0  # atno 6908 bound_to 6896
  151.2479  133.4322  159.2644 H   0  0  0  0  0  0  0  0  0  0  0  0  # atno 6909 bound_to 6896
  145.0039  140.7845  143.4479 H   0  0  0  0  0  0  0  0  0  0  0  0  # atno 7974 bound_to 7965
  154.6846  140.0544  157.0301 H   0  0  0  0  0  0  0  0  0  0  0  0  # atno 8008 bound_to 7997
  155.0903  140.3218  155.4557 H   0  0  0  0  0  0  0  0  0  0  0  0  # atno 8009 bound_to 7997
  156.2706  140.2049  156.6030 H   0  0  0  0  0  0  0  0  0  0  0  0  # atno 8010 bound_to 7997
  140.3317  143.2991  151.9935 H   0  0  0  0  0  0  0  0  0  0  0  0  # atno 10167 bound_to 10162
  157.2989  131.0867  151.1405 H   0  0  0  0  0  0  0  0  0  0  0  0  # atno 10718 bound_to 10713
  153.6022  135.6999  153.5380 H   0  0  0  0  0  0  0  0  0  0  0  0  # atno 10763 bound_to 10752
  153.3087  135.4107  155.1316 H   0  0  0  0  0  0  0  0  0  0  0  0  # atno 10764 bound_to 10752
  154.8580  135.3667  154.5558 H   0  0  0  0  0  0  0  0  0  0  0  0  # atno 10765 bound_to 10752
  140.3622  134.2113  155.7671 H   0  0  0  0  0  0  0  0  0  0  0  0  # atno 11005 bound_to 11000
  145.2115  139.2202  143.5140 LP  0  0  0  0  0  0  0  0  0  0  0  0  # atno 17320 bound_to 7965
  146.3457  140.1954  142.8589 LP  0  0  0  0  0  0  0  0  0  0  0  0  # atno 17321 bound_to 7965
  139.4855  144.6230  151.7219 LP  0  0  0  0  0  0  0  0  0  0  0  0  # atno 17342 bound_to 10162
  140.5391  144.0608  150.6081 LP  0  0  0  0  0  0  0  0  0  0  0  0  # atno 17343 bound_to 10162
  157.2772  130.6732  149.6048 LP  0  0  0  0  0  0  0  0  0  0  0  0  # atno 17370 bound_to 10713
  155.9670  130.4461  150.5527 LP  0  0  0  0  0  0  0  0  0  0  0  0  # atno 17371 bound_to 10713
  141.1980  133.8045  157.0600 LP  0  0  0  0  0  0  0  0  0  0  0  0  # atno 17394 bound_to 11000
  140.0617  134.9751  157.1317 LP  0  0  0  0  0  0  0  0  0  0  0  0  # atno 17395 bound_to 11000

$$$$
