AV-unprocessed.smi:34|AV-procd|sdf|245|dock7
  -GOLD-   2262016 03D 1   1.00000     0.00000
 Structure written by MMmdl.
 54 58  0  0  0  0  0  0  0  0  2 V2000
  155.0551  128.7621  161.4312 O   0  0  0  0  0  0  0  0  0  0  0  0
  154.4640  129.8403  161.3436 C   0  0  0  0  0  0  0  0  0  0  0  0
  155.0011  131.0867  161.3318 N   0  5  0  0  0  0  0  0  0  0  0  0
  154.6657  131.9704  162.2841 C   0  0  0  0  0  0  0  0  0  0  0  0
  154.2132  131.5419  163.4897 N   0  0  0  0  0  0  0  0  0  0  0  0
  153.8926  132.4241  164.4431 C   0  0  0  0  0  0  0  0  0  0  0  0
  153.9537  133.7584  164.4076 N   0  0  0  0  0  0  0  0  0  0  0  0
  154.4102  134.2044  163.2008 C   0  0  0  0  0  0  0  0  0  0  0  0
  154.7867  133.3757  162.1031 C   0  0  0  0  0  0  0  0  0  0  0  0
  155.2159  134.1423  161.0300 N   0  0  0  0  0  0  0  0  0  0  0  0
  155.0823  135.3755  161.5118 C   0  0  0  0  0  0  0  0  0  0  0  0
  154.6159  135.5066  162.7698 N   0  0  0  0  0  0  0  0  0  0  0  0
  154.3850  136.7853  163.5150 C   0  0  2  0  0  0  0  0  0  0  0  0
  154.5087  137.8496  162.6205 O   0  0  0  0  0  0  0  0  0  0  0  0
  155.2118  138.9093  163.2567 C   0  0  2  0  0  0  0  0  0  0  0  0
  155.8129  139.8648  162.2175 C   0  0  0  0  0  0  0  0  0  0  0  0
  154.8906  140.9072  161.9423 O   0  0  0  0  0  0  0  0  0  0  0  0
  154.3960  141.0574  160.6975 C   0  0  0  0  0  0  0  0  0  0  0  0
  154.6463  140.2882  159.7672 O   0  0  0  0  0  0  0  0  0  0  0  0
  153.5080  142.2484  160.5641 C   0  0  0  0  0  0  0  0  0  0  0  0
  153.3394  142.8480  159.2940 C   0  0  0  0  0  0  0  0  0  0  0  0
  152.5041  143.9708  159.1355 C   0  0  0  0  0  0  0  0  0  0  0  0
  151.8280  144.5091  160.2458 C   0  0  0  0  0  0  0  0  0  0  0  0
  151.9893  143.9236  161.5152 C   0  0  0  0  0  0  0  0  0  0  0  0
  152.8237  142.8000  161.6755 C   0  0  0  0  0  0  0  0  0  0  0  0
  156.2245  138.1870  164.1476 C   0  0  2  0  0  0  0  0  0  0  0  0
  157.2535  137.7678  163.4079 F   0  0  0  0  0  0  0  0  0  0  0  0
  155.3993  137.0142  164.6568 C   0  0  2  0  0  0  0  0  0  0  0  0
  156.2004  135.9002  165.0093 O   0  0  0  0  0  0  0  0  0  0  0  0
  152.9693  129.8363  161.1645 C   0  0  0  0  0  0  0  0  0  0  0  0
  152.4015  129.2209  160.0255 C   0  0  0  0  0  0  0  0  0  0  0  0
  151.0040  129.1836  159.8531 C   0  0  0  0  0  0  0  0  0  0  0  0
  150.1584  129.7529  160.8236 C   0  0  0  0  0  0  0  0  0  0  0  0
  150.7113  130.3560  161.9686 C   0  0  0  0  0  0  0  0  0  0  0  0
  152.1087  130.3940  162.1415 C   0  0  0  0  0  0  0  0  0  0  0  0
  153.5379  131.9991  165.3702 H   0  0  0  0  0  0  0  0  0  0  0  0
  155.3369  136.2369  160.9122 H   0  0  0  0  0  0  0  0  0  0  0  0
  153.3578  136.7086  163.8743 H   0  0  0  0  0  0  0  0  0  0  0  0
  154.4970  139.4489  163.8809 H   0  0  0  0  0  0  0  0  0  0  0  0
  156.7602  140.2755  162.5694 H   0  0  0  0  0  0  0  0  0  0  0  0
  156.0191  139.3182  161.2963 H   0  0  0  0  0  0  0  0  0  0  0  0
  153.8472  142.4516  158.4265 H   0  0  0  0  0  0  0  0  0  0  0  0
  152.3818  144.4187  158.1603 H   0  0  0  0  0  0  0  0  0  0  0  0
  151.1869  145.3698  160.1240 H   0  0  0  0  0  0  0  0  0  0  0  0
  151.4717  144.3371  162.3685 H   0  0  0  0  0  0  0  0  0  0  0  0
  152.9255  142.3755  162.6636 H   0  0  0  0  0  0  0  0  0  0  0  0
  156.6256  138.8136  164.9447 H   0  0  0  0  0  0  0  0  0  0  0  0
  154.8328  137.3285  165.5343 H   0  0  0  0  0  0  0  0  0  0  0  0
  155.6351  135.1627  165.1808 H   0  0  0  0  0  0  0  0  0  0  0  0
  153.0370  128.7771  159.2725 H   0  0  0  0  0  0  0  0  0  0  0  0
  150.5817  128.7160  158.9760 H   0  0  0  0  0  0  0  0  0  0  0  0
  149.0869  129.7235  160.6923 H   0  0  0  0  0  0  0  0  0  0  0  0
  150.0640  130.7873  162.7177 H   0  0  0  0  0  0  0  0  0  0  0  0
  152.5123  130.8517  163.0332 H   0  0  0  0  0  0  0  0  0  0  0  0
  1  2  2  0  0  0  0
  2  3  1  0  0  0  0
  2 30  1  0  0  0  0
  3  4  1  0  0  0  0
  4  9  1  0  0  0  0
  4  5  2  0  0  0  0
  5  6  1  0  0  0  0
  6  7  2  0  0  0  0
  6 36  1  0  0  0  0
  7  8  1  0  0  0  0
  8 12  1  0  0  0  0
  8  9  2  0  0  0  0
  9 10  1  0  0  0  0
 10 11  2  0  0  0  0
 11 12  1  0  0  0  0
 11 37  1  0  0  0  0
 12 13  1  0  0  0  0
 13 28  1  0  0  0  0
 13 14  1  0  0  0  0
 13 38  1  0  0  0  0
 14 15  1  0  0  0  0
 15 16  1  0  0  0  0
 15 26  1  0  0  0  0
 15 39  1  0  0  0  0
 16 17  1  0  0  0  0
 16 40  1  0  0  0  0
 16 41  1  0  0  0  0
 17 18  1  0  0  0  0
 18 19  2  0  0  0  0
 18 20  1  0  0  0  0
 20 25  1  0  0  0  0
 20 21  2  0  0  0  0
 21 22  1  0  0  0  0
 21 42  1  0  0  0  0
 22 23  2  0  0  0  0
 22 43  1  0  0  0  0
 23 24  1  0  0  0  0
 23 44  1  0  0  0  0
 24 25  2  0  0  0  0
 24 45  1  0  0  0  0
 25 46  1  0  0  0  0
 26 27  1  0  0  0  0
 26 28  1  0  0  0  0
 26 47  1  0  0  0  0
 28 29  1  0  0  0  0
 28 48  1  0  0  0  0
 29 49  1  0  0  0  0
 30 35  1  0  0  0  0
 30 31  2  0  0  0  0
 31 32  1  0  0  0  0
 31 50  1  0  0  0  0
 32 33  2  0  0  0  0
 32 51  1  0  0  0  0
 33 34  1  0  0  0  0
 33 52  1  0  0  0  0
 34 35  2  0  0  0  0
 34 53  1  0  0  0  0
 35 54  1  0  0  0  0
M  CHG  1   3  -1
M  END
> <s_m_source_file>
AV-unprocessed.smi

> <i_m_source_file_index>
34

> <i_lp_mmshare_version>
43012

> <i_f3d_flags>
0

> <s_epik_input>
W2NIXTFbY0hdW2NIXVtjSF1bY0hdYzFDKD1PKVtOSF1jKG5bY0hdbjIpYyhjMjMpbltjSF1uM1tDQEBIXTRPW0NASF0oW0NAQEhdKEYpW0NASF00W09IXSlbQ0gyXU9DKD1PKWM1W2NIXVtjSF1bY0hdW2NIXVtjSF01

> <s_epik_cmdline>
J2VwaWtfcHl0aG9uJywgJy1waCcsICc3LjAnLCAnLXRuJywgJzgnLCAnLW1hJywgJzIwMCcsICctbWV0YWxfYmluZGluZycsICctaW1hZScsICc8aW5maWxlLm1hZT4nLCAnLW9tYWUnLCAnPG91dGZpbGUubWFlPic=

> <r_lp_tautomer_probability>
1

> <r_epik_Ionization_Penalty>
4.33227

> <r_epik_Ionization_Penalty_Charging>
3.41027

> <r_epik_Ionization_Penalty_Neutral>
0.922001

> <r_epik_State_Penalty>
3.41358

> <r_epik_Charging_Adjusted_Penalty>
6.82385

> <i_epik_Tot_Q>
-1

> <i_epik_Tot_abs_Q>
1

> <r_epik_Metal_State_Penalty>
0.496292

> <b_epik_Metal_Only>
1

> <s_epik_Chemistry_Notes>
This compound has an ester and may undergo hydrolysis at high or low pH. This compound contains an acetal/aminal-like group ( X-CH(R)-Y where X, Y are N, S, or O) that may be acid/base labile, releasing an aldehyde.

> <s_lp_Force_Field>
OPLS_2005

> <r_lp_Energy>
53.545

> <b_lp_Chiralities_Consistent>
1

> <s_lp_Variant>
AV-unprocessed.smi:34-31

> <Gold.Version>
5.8.1

> <Gold.Id.Protein>
6NUR|6NUR_protein|mol2

> <Gold.PLP.Fitness>
55.6174

> <Gold.PLP.PLP>
-61.3663

> <Gold.PLP.part.hbond>
-1.5442

> <Gold.PLP.part.metal>
0.0000

> <Gold.PLP.part.buried>
-8.0592

> <Gold.PLP.part.nonpolar>
-52.1657

> <Gold.PLP.part.repulsive>
0.5485

> <Gold.PLP.ligand.clash>
0.0000

> <Gold.PLP.ligand.torsion>
3.1306

> <Gold.PLP.Chemscore.Hbond>
0.0000

> <Gold.PLP.Chemscore.CHOScore>
0.0000

> <Gold.PLP.Chemscore.Metal>
0.0000

> <Gold.PLP.Chemscore.Internal.Correction>
0.5123

> <Gold.Rescore>
     Score         DG    S(hbond)    S(metal)    S(lipo)     H(rot)  DE(clash)    DE(int)     intcor
     10.74     -16.46       0.99        0.00     124.52       2.69       0.25       5.47       ----

> <Gold.Chemscore.Fitness>
10.7395

> <Gold.Chemscore.DG>
-16.4619

> <Gold.Chemscore.ZeroCoef>
-5.4800

> <Gold.Chemscore.Hbond>
0.9911

> <Gold.Chemscore.Metal>
0.0000

> <Gold.Chemscore.Lipo>
124.5219

> <Gold.Chemscore.Internal_Hbond>
0.0000

> <Gold.Chemscore.DEClash>
0.2501

> <Gold.Chemscore.DEInternal>
5.4723

> <Gold.Chemscore.Rot>
2.6944

> <Gold.Chemscore.Internal.Correction>
   9.000000E+99

> <Gold.Chemscore.Hbonds>
donor molecule, donor type, donor heavy atom, donor atom, acceptor molecule, acceptor atom, score
      P1  H  7997  8009       L1    19  0.01

> <Gold.Chemscore.Hbond.Weighted>
-3.3104

> <Gold.Chemscore.Metal.Weighted>
-0.0000

> <Gold.Chemscore.Lipo.Weighted>
-14.5691

> <Gold.Chemscore.Internal_Hbond.Weighted>
0.0000

> <Gold.Chemscore.DEClash.Weighted>
0.2501

> <Gold.Chemscore.DEInternal.Weighted>
5.4723

> <Gold.Chemscore.Rot.Weighted>
6.8975

> <Gold.Chemscore.Internal.Correction.Weighted>
   9.000000E+99

> <Gold.Protein.RotatedTorsions>
[ 6907 6896 6895 6894 ] final -159.72 input  -60.11 | X-H torsion
[ 7974 7965 7964 7962 ] final  164.76 input  175.53 | X-H torsion
[ 8008 7997 7996 7995 ] final  128.53 input   59.86 | X-H torsion
[ 10167 10162 10161 10158 ] final -177.42 input  -65.29 | X-H torsion
[ 10718 10713 10712 10709 ] final -156.30 input   66.30 | X-H torsion
[ 10763 10752 10751 10750 ] final  145.97 input  -60.55 | X-H torsion
[ 11005 11000 10999 10996 ] final  106.92 input  -57.11 | X-H torsion

> <Gold.Protein.ActiveResidues>
 VAL166  LYS551  ARG553  GLY616  TRP617  ASP618  TYR619  PRO620  LYS621  CYS622 
 ASP623  PHE694  ASN695  SER759  ASP760  ASP761  ALA762  ILE779  LEU786  VAL792 
 PHE793  MET794  SER795  GLU796  ALA797  LYS798  CYS799  TRP800  GLU811  SER814 

> <Gold.Protein.RotatedAtoms>
  151.3380  133.3974  159.2668 H   0  0  0  0  0  0  0  0  0  0  0  0  # atno 6907 bound_to 6896
  150.9901  134.9239  159.7905 H   0  0  0  0  0  0  0  0  0  0  0  0  # atno 6908 bound_to 6896
  152.5244  134.3345  159.9247 H   0  0  0  0  0  0  0  0  0  0  0  0  # atno 6909 bound_to 6896
  144.7531  139.8373  143.6359 H   0  0  0  0  0  0  0  0  0  0  0  0  # atno 7974 bound_to 7965
  156.2917  140.2642  156.2452 H   0  0  0  0  0  0  0  0  0  0  0  0  # atno 8008 bound_to 7997
  154.9938  140.0388  157.2349 H   0  0  0  0  0  0  0  0  0  0  0  0  # atno 8009 bound_to 7997
  154.7662  140.2770  155.6179 H   0  0  0  0  0  0  0  0  0  0  0  0  # atno 8010 bound_to 7997
  139.5481  144.2181  152.1026 H   0  0  0  0  0  0  0  0  0  0  0  0  # atno 10167 bound_to 10162
  156.5246  130.8493  151.2694 H   0  0  0  0  0  0  0  0  0  0  0  0  # atno 10718 bound_to 10713
  154.0141  135.2912  155.3389 H   0  0  0  0  0  0  0  0  0  0  0  0  # atno 10763 bound_to 10752
  154.7085  135.5159  153.8635 H   0  0  0  0  0  0  0  0  0  0  0  0  # atno 10764 bound_to 10752
  153.0710  135.6647  154.0370 H   0  0  0  0  0  0  0  0  0  0  0  0  # atno 10765 bound_to 10752
  139.8820  134.9384  156.5740 H   0  0  0  0  0  0  0  0  0  0  0  0  # atno 11005 bound_to 11000
  146.1507  139.4590  143.0050 LP  0  0  0  0  0  0  0  0  0  0  0  0  # atno 17320 bound_to 7965
  145.6873  141.0174  143.1574 LP  0  0  0  0  0  0  0  0  0  0  0  0  # atno 17321 bound_to 7965
  140.1672  144.4970  150.6599 LP  0  0  0  0  0  0  0  0  0  0  0  0  # atno 17342 bound_to 10162
  140.6736  143.2295  151.5564 LP  0  0  0  0  0  0  0  0  0  0  0  0  # atno 17343 bound_to 10162
  157.7431  130.9905  150.2570 LP  0  0  0  0  0  0  0  0  0  0  0  0  # atno 17370 bound_to 10713
  156.3117  130.3773  149.7656 LP  0  0  0  0  0  0  0  0  0  0  0  0  # atno 17371 bound_to 10713
  140.8077  133.8454  155.8782 LP  0  0  0  0  0  0  0  0  0  0  0  0  # atno 17394 bound_to 11000
  140.9535  134.1748  157.4710 LP  0  0  0  0  0  0  0  0  0  0  0  0  # atno 17395 bound_to 11000

$$$$
