AV-unprocessed.smi:2180|AV-procd|sdf|8859|dock3
  -GOLD-   2272012 53D 1   1.00000     0.00000
 Structure written by MMmdl.
 39 40  0  0  0  0  0  0  0  0  1 V2000
  151.2771  145.5209  160.0160 C   0  0  0  0  0  0  0  0  0  0  0  0
  151.8954  144.1601  160.1472 C   0  0  0  0  0  0  0  0  0  0  0  0
  152.4829  143.5664  161.2989 C   0  0  0  0  0  0  0  0  0  0  0  0
  152.8871  142.3318  160.8748 C   0  0  0  0  0  0  0  0  0  0  0  0
  153.5769  141.2402  161.6264 C   0  0  0  0  0  0  0  0  0  0  0  0
  152.5422  142.2346  159.5367 N   0  0  0  0  0  0  0  0  0  0  0  0
  152.7486  141.1341  158.6072 C   0  0  0  0  0  0  0  0  0  0  0  0
  151.4659  140.8104  157.8397 C   0  0  0  0  0  0  0  0  0  0  0  0
  150.8981  139.7322  158.0126 O   0  0  0  0  0  0  0  0  0  0  0  0
  151.0190  141.7578  157.0007 N   0  0  0  0  0  0  0  0  0  0  0  0
  149.7929  141.6917  156.2073 C   0  0  2  0  0  0  0  0  0  0  0  0
  148.5921  141.2622  157.0887 C   0  0  0  0  0  0  0  0  0  0  0  0
  147.4145  140.5922  156.3499 C   0  0  0  0  0  0  0  0  0  0  0  0
  146.8411  141.3847  155.1575 C   0  0  0  0  0  0  0  0  0  0  0  0
  147.8404  141.7960  154.0497 C   0  0  0  0  0  0  0  0  0  0  0  0
  149.0362  140.9574  153.9718 N   0  0  0  0  0  0  0  0  0  0  0  0
  149.9912  140.8768  154.9144 C   0  0  0  0  0  0  0  0  0  0  0  0
  150.9825  140.1632  154.7648 O   0  0  0  0  0  0  0  0  0  0  0  0
  151.9312  143.3569  159.0972 N   0  0  0  0  0  0  0  0  0  0  0  0
  151.5102  146.1437  160.8797 H   0  0  0  0  0  0  0  0  0  0  0  0
  150.1919  145.4515  159.9388 H   0  0  0  0  0  0  0  0  0  0  0  0
  151.6429  146.0375  159.1280 H   0  0  0  0  0  0  0  0  0  0  0  0
  152.5925  143.9853  162.2883 H   0  0  0  0  0  0  0  0  0  0  0  0
  153.5312  141.4207  162.7005 H   0  0  0  0  0  0  0  0  0  0  0  0
  154.6278  141.1801  161.3439 H   0  0  0  0  0  0  0  0  0  0  0  0
  153.1152  140.2721  161.4327 H   0  0  0  0  0  0  0  0  0  0  0  0
  153.5563  141.3930  157.9216 H   0  0  0  0  0  0  0  0  0  0  0  0
  153.0746  140.2493  159.1566 H   0  0  0  0  0  0  0  0  0  0  0  0
  151.5524  142.6123  156.9268 H   0  0  0  0  0  0  0  0  0  0  0  0
  149.6000  142.7111  155.8702 H   0  0  0  0  0  0  0  0  0  0  0  0
  148.9367  140.5641  157.8532 H   0  0  0  0  0  0  0  0  0  0  0  0
  148.2255  142.1337  157.6324 H   0  0  0  0  0  0  0  0  0  0  0  0
  147.7170  139.6007  156.0104 H   0  0  0  0  0  0  0  0  0  0  0  0
  146.6126  140.4109  157.0660 H   0  0  0  0  0  0  0  0  0  0  0  0
  146.0599  140.7737  154.7038 H   0  0  0  0  0  0  0  0  0  0  0  0
  146.3340  142.2781  155.5239 H   0  0  0  0  0  0  0  0  0  0  0  0
  147.3395  141.7709  153.0818 H   0  0  0  0  0  0  0  0  0  0  0  0
  148.1432  142.8347  154.1870 H   0  0  0  0  0  0  0  0  0  0  0  0
  149.1575  140.4115  153.1306 H   0  0  0  0  0  0  0  0  0  0  0  0
  1  2  1  0  0  0  0
  1 20  1  0  0  0  0
  1 21  1  0  0  0  0
  1 22  1  0  0  0  0
  2 19  2  0  0  0  0
  2  3  1  0  0  0  0
  3  4  2  0  0  0  0
  3 23  1  0  0  0  0
  4  5  1  0  0  0  0
  4  6  1  0  0  0  0
  5 24  1  0  0  0  0
  5 25  1  0  0  0  0
  5 26  1  0  0  0  0
  6  7  1  0  0  0  0
  6 19  1  0  0  0  0
  7  8  1  0  0  0  0
  7 27  1  0  0  0  0
  7 28  1  0  0  0  0
  8  9  2  0  0  0  0
  8 10  1  0  0  0  0
 10 11  1  0  0  0  0
 10 29  1  0  0  0  0
 11 17  1  0  0  0  0
 11 12  1  0  0  0  0
 11 30  1  0  0  0  0
 12 13  1  0  0  0  0
 12 31  1  0  0  0  0
 12 32  1  0  0  0  0
 13 14  1  0  0  0  0
 13 33  1  0  0  0  0
 13 34  1  0  0  0  0
 14 15  1  0  0  0  0
 14 35  1  0  0  0  0
 14 36  1  0  0  0  0
 15 16  1  0  0  0  0
 15 37  1  0  0  0  0
 15 38  1  0  0  0  0
 16 17  1  0  0  0  0
 16 39  1  0  0  0  0
 17 18  2  0  0  0  0
M  END
> <s_m_source_file>
AV-unprocessed.smi

> <i_m_source_file_index>
2180

> <i_lp_mmshare_version>
43012

> <i_f3d_flags>
0

> <s_epik_input>
W0NIM11jMVtjSF1jKFtDSDNdKW4objEpW0NIMl1DKD1PKVtOSF1bQ0BASF0yW0NIMl1bQ0gyXVtDSDJdW0NIMl1bTkhdQzI9Tw==

> <s_epik_cmdline>
J2VwaWtfcHl0aG9uJywgJy1waCcsICc3LjAnLCAnLXRuJywgJzgnLCAnLW1hJywgJzIwMCcsICctbWV0YWxfYmluZGluZycsICctaW1hZScsICc8aW5maWxlLm1hZT4nLCAnLW9tYWUnLCAnPG91dGZpbGUubWFlPic=

> <r_lp_tautomer_probability>
1

> <r_epik_Ionization_Penalty>
0.000287215

> <r_epik_Ionization_Penalty_Charging>
0

> <r_epik_Ionization_Penalty_Neutral>
0.000287215

> <r_epik_State_Penalty>
-0

> <r_epik_Charging_Adjusted_Penalty>
0

> <i_epik_Tot_Q>
0

> <i_epik_Tot_abs_Q>
0

> <r_epik_Metal_State_Penalty>
-0

> <b_epik_Metal_Only>
0

> <s_lp_Force_Field>
OPLS_2005

> <r_lp_Energy>
13.5369

> <b_lp_Chiralities_Consistent>
1

> <s_lp_Variant>
AV-unprocessed.smi:2180-1

> <Gold.Version>
5.8.1

> <Gold.Id.Protein>
6NUR|6NUR_protein|mol2

> <Gold.PLP.Fitness>
44.8935

> <Gold.PLP.PLP>
-39.8062

> <Gold.PLP.part.hbond>
-2.0000

> <Gold.PLP.part.metal>
0.0000

> <Gold.PLP.part.buried>
-5.3518

> <Gold.PLP.part.nonpolar>
-32.0997

> <Gold.PLP.part.repulsive>
0.3462

> <Gold.PLP.ligand.clash>
0.0000

> <Gold.PLP.ligand.torsion>
0.3725

> <Gold.PLP.Chemscore.Hbond>
1.9263

> <Gold.PLP.Chemscore.CHOScore>
0.0000

> <Gold.PLP.Chemscore.Metal>
0.0000

> <Gold.Chemscore.Hbonds>
donor molecule, donor type, donor heavy atom, donor atom, acceptor molecule, acceptor atom, score
      L1  H    16    39       P1  7957  0.94
      P1  H  7989  7998       L1    18  1.00

> <Gold.PLP.Chemscore.Internal.Correction>
0.0534

> <Gold.Rescore>
     Score         DG    S(hbond)    S(metal)    S(lipo)     H(rot)  DE(clash)    DE(int)     intcor
     13.62     -17.01       1.63        0.00      84.60       1.48       0.41       2.97       ----

> <Gold.Chemscore.Fitness>
13.6247

> <Gold.Chemscore.DG>
-17.0074

> <Gold.Chemscore.ZeroCoef>
-5.4800

> <Gold.Chemscore.Hbond>
1.6251

> <Gold.Chemscore.Metal>
0.0000

> <Gold.Chemscore.Lipo>
84.6038

> <Gold.Chemscore.Internal_Hbond>
0.0000

> <Gold.Chemscore.DEClash>
0.4117

> <Gold.Chemscore.DEInternal>
2.9711

> <Gold.Chemscore.Rot>
1.4840

> <Gold.Chemscore.Internal.Correction>
   9.000000E+99

> <Gold.Chemscore.Hbonds>
donor molecule, donor type, donor heavy atom, donor atom, acceptor molecule, acceptor atom, score
      L1  H    16    39       P1  7957  0.89
      P1  H  7989  7998       L1    18  0.25

> <Gold.Chemscore.Hbond.Weighted>
-5.4279

> <Gold.Chemscore.Metal.Weighted>
-0.0000

> <Gold.Chemscore.Lipo.Weighted>
-9.8986

> <Gold.Chemscore.Internal_Hbond.Weighted>
0.0000

> <Gold.Chemscore.DEClash.Weighted>
0.4117

> <Gold.Chemscore.DEInternal.Weighted>
2.9711

> <Gold.Chemscore.Rot.Weighted>
3.7991

> <Gold.Chemscore.Internal.Correction.Weighted>
   9.000000E+99

> <Gold.Protein.RotatedTorsions>
[ 6907 6896 6895 6894 ] final   14.57 input  -60.11 | X-H torsion
[ 7974 7965 7964 7962 ] final -128.44 input  175.53 | X-H torsion
[ 8008 7997 7996 7995 ] final -170.45 input   59.86 | X-H torsion
[ 10167 10162 10161 10158 ] final -125.01 input  -65.29 | X-H torsion
[ 10718 10713 10712 10709 ] final  170.64 input   66.30 | X-H torsion
[ 10763 10752 10751 10750 ] final -153.95 input  -60.55 | X-H torsion
[ 11005 11000 10999 10996 ] final  -40.49 input  -57.11 | X-H torsion

> <Gold.Protein.ActiveResidues>
 VAL166  LYS551  ARG553  GLY616  TRP617  ASP618  TYR619  PRO620  LYS621  CYS622 
 ASP623  PHE694  ASN695  SER759  ASP760  ASP761  ALA762  ILE779  LEU786  VAL792 
 PHE793  MET794  SER795  GLU796  ALA797  LYS798  CYS799  TRP800  GLU811  SER814 

> <Gold.Protein.RotatedAtoms>
  151.8043  135.0699  160.0404 H   0  0  0  0  0  0  0  0  0  0  0  0  # atno 6907 bound_to 6896
  152.3066  133.5705  159.5661 H   0  0  0  0  0  0  0  0  0  0  0  0  # atno 6908 bound_to 6896
  150.7299  134.0130  159.3718 H   0  0  0  0  0  0  0  0  0  0  0  0  # atno 6909 bound_to 6896
  144.9671  140.7507  143.4693 H   0  0  0  0  0  0  0  0  0  0  0  0  # atno 7974 bound_to 7965
  155.9185  140.1070  157.1225 H   0  0  0  0  0  0  0  0  0  0  0  0  # atno 8008 bound_to 7997
  154.4050  140.1260  156.4714 H   0  0  0  0  0  0  0  0  0  0  0  0  # atno 8009 bound_to 7997
  155.7224  140.3469  155.5024 H   0  0  0  0  0  0  0  0  0  0  0  0  # atno 8010 bound_to 7997
  139.9866  143.5685  152.2358 H   0  0  0  0  0  0  0  0  0  0  0  0  # atno 10167 bound_to 10162
  157.0051  131.0188  151.2819 H   0  0  0  0  0  0  0  0  0  0  0  0  # atno 10718 bound_to 10713
  154.7892  135.3201  154.7815 H   0  0  0  0  0  0  0  0  0  0  0  0  # atno 10763 bound_to 10752
  153.8508  135.6862  153.4797 H   0  0  0  0  0  0  0  0  0  0  0  0  # atno 10764 bound_to 10752
  153.1556  135.4681  154.9639 H   0  0  0  0  0  0  0  0  0  0  0  0  # atno 10765 bound_to 10752
  141.0179  133.6877  156.2329 H   0  0  0  0  0  0  0  0  0  0  0  0  # atno 11005 bound_to 11000
  145.2614  139.1991  143.4890 LP  0  0  0  0  0  0  0  0  0  0  0  0  # atno 17320 bound_to 7965
  146.3371  140.2545  142.8599 LP  0  0  0  0  0  0  0  0  0  0  0  0  # atno 17321 bound_to 7965
  139.6370  144.7651  151.2416 LP  0  0  0  0  0  0  0  0  0  0  0  0  # atno 17342 bound_to 10162
  140.7470  143.6381  150.8360 LP  0  0  0  0  0  0  0  0  0  0  0  0  # atno 17343 bound_to 10162
  157.5361  130.8090  149.7974 LP  0  0  0  0  0  0  0  0  0  0  0  0  # atno 17370 bound_to 10713
  156.0156  130.3815  150.2121 LP  0  0  0  0  0  0  0  0  0  0  0  0  # atno 17371 bound_to 10713
  140.6624  134.4954  157.5584 LP  0  0  0  0  0  0  0  0  0  0  0  0  # atno 17394 bound_to 11000
  139.9128  134.8309  156.1469 LP  0  0  0  0  0  0  0  0  0  0  0  0  # atno 17395 bound_to 11000

$$$$
