AV-unprocessed.smi:99|AV-procd|sdf|869|dock6
  -GOLD-   2262017323D 1   1.00000     0.00000
 Structure written by MMmdl.
 53 56  0  0  0  0  0  0  0  0  1 V2000
  151.2425  140.3417  155.0414 O   0  0  0  0  0  0  0  0  0  0  0  0
  151.4367  140.1468  156.2431 C   0  0  0  0  0  0  0  0  0  0  0  0
  151.6017  138.9226  156.7819 O   0  0  0  0  0  0  0  0  0  0  0  0
  151.5933  137.7759  155.9480 C   0  0  0  0  0  0  0  0  0  0  0  0
  151.0921  136.5641  156.7493 C   0  0  2  0  0  0  0  0  0  0  0  0
  151.4898  135.3688  156.0884 O   0  0  0  0  0  0  0  0  0  0  0  0
  150.5126  134.9789  155.1755 C   0  0  1  0  0  0  0  0  0  0  0  0
  150.4340  133.4656  155.2264 N   0  0  0  0  0  0  0  0  0  0  0  0
  151.3708  132.7202  155.9334 C   0  0  0  0  0  0  0  0  0  0  0  0
  151.3964  131.3666  155.9392 C   0  0  0  0  0  0  0  0  0  0  0  0
  150.4285  130.6061  155.1577 C   0  0  0  0  0  0  0  0  0  0  0  0
  150.3611  129.3797  155.1101 O   0  0  0  0  0  0  0  0  0  0  0  0
  149.5400  131.3904  154.4176 N   0  0  0  0  0  0  0  0  0  0  0  0
  149.5141  132.7861  154.3933 C   0  0  0  0  0  0  0  0  0  0  0  0
  148.7055  133.3644  153.6682 O   0  0  0  0  0  0  0  0  0  0  0  0
  149.1894  135.6774  155.5488 C   0  0  2  0  0  0  0  0  0  0  0  0
  148.7426  136.5580  154.5367 O   0  0  0  0  0  0  0  0  0  0  0  0
  149.5625  136.4853  156.7910 C   0  0  1  0  0  0  0  0  0  0  0  0
  149.1685  135.8152  157.9822 O   0  0  0  0  0  0  0  0  0  0  0  0
  148.5392  136.4758  158.9772 C   0  0  0  0  0  0  0  0  0  0  0  0
  148.4440  137.7034  159.0297 O   0  0  0  0  0  0  0  0  0  0  0  0
  147.9615  135.5593  160.0014 C   0  0  0  0  0  0  0  0  0  0  0  0
  147.8631  134.1770  159.7187 C   0  0  0  0  0  0  0  0  0  0  0  0
  147.3246  133.2875  160.6688 C   0  0  0  0  0  0  0  0  0  0  0  0
  146.8790  133.7692  161.9135 C   0  0  0  0  0  0  0  0  0  0  0  0
  146.9731  135.1420  162.2074 C   0  0  0  0  0  0  0  0  0  0  0  0
  147.5108  136.0333  161.2586 C   0  0  0  0  0  0  0  0  0  0  0  0
  151.5130  141.2420  157.2525 C   0  0  0  0  0  0  0  0  0  0  0  0
  152.0921  140.9801  158.5161 C   0  0  0  0  0  0  0  0  0  0  0  0
  152.1787  141.9941  159.4899 C   0  0  0  0  0  0  0  0  0  0  0  0
  151.6876  143.2828  159.2117 C   0  0  0  0  0  0  0  0  0  0  0  0
  151.1086  143.5561  157.9588 C   0  0  0  0  0  0  0  0  0  0  0  0
  151.0209  142.5432  156.9837 C   0  0  0  0  0  0  0  0  0  0  0  0
  148.8675  130.9060  153.8406 H   0  0  0  0  0  0  0  0  0  0  0  0
  150.9258  137.9618  155.1055 H   0  0  0  0  0  0  0  0  0  0  0  0
  152.5887  137.5909  155.5421 H   0  0  0  0  0  0  0  0  0  0  0  0
  151.5102  136.6007  157.7565 H   0  0  0  0  0  0  0  0  0  0  0  0
  150.8296  135.2591  154.1699 H   0  0  0  0  0  0  0  0  0  0  0  0
  152.1319  133.2237  156.5069 H   0  0  0  0  0  0  0  0  0  0  0  0
  152.1438  130.8437  156.5186 H   0  0  0  0  0  0  0  0  0  0  0  0
  148.3867  134.9630  155.7310 H   0  0  0  0  0  0  0  0  0  0  0  0
  149.3016  136.4592  153.7813 H   0  0  0  0  0  0  0  0  0  0  0  0
  149.1266  137.4861  156.7817 H   0  0  0  0  0  0  0  0  0  0  0  0
  148.1987  133.7837  158.7696 H   0  0  0  0  0  0  0  0  0  0  0  0
  147.2533  132.2340  160.4415 H   0  0  0  0  0  0  0  0  0  0  0  0
  146.4658  133.0870  162.6417 H   0  0  0  0  0  0  0  0  0  0  0  0
  146.6324  135.5129  163.1630 H   0  0  0  0  0  0  0  0  0  0  0  0
  147.5700  137.0804  161.5180 H   0  0  0  0  0  0  0  0  0  0  0  0
  152.4768  139.9984  158.7525 H   0  0  0  0  0  0  0  0  0  0  0  0
  152.6232  141.7822  160.4511 H   0  0  0  0  0  0  0  0  0  0  0  0
  151.7553  144.0604  159.9583 H   0  0  0  0  0  0  0  0  0  0  0  0
  150.7310  144.5451  157.7441 H   0  0  0  0  0  0  0  0  0  0  0  0
  150.5709  142.7868  156.0324 H   0  0  0  0  0  0  0  0  0  0  0  0
  1  2  2  0  0  0  0
  2  3  1  0  0  0  0
  2 28  1  0  0  0  0
  3  4  1  0  0  0  0
  4  5  1  0  0  0  0
  4 35  1  0  0  0  0
  4 36  1  0  0  0  0
  5 18  1  0  0  0  0
  5  6  1  0  0  0  0
  5 37  1  0  0  0  0
  6  7  1  0  0  0  0
  7  8  1  0  0  0  0
  7 16  1  0  0  0  0
  7 38  1  0  0  0  0
  8 14  1  0  0  0  0
  8  9  1  0  0  0  0
  9 10  2  0  0  0  0
  9 39  1  0  0  0  0
 10 11  1  0  0  0  0
 10 40  1  0  0  0  0
 11 12  2  0  0  0  0
 11 13  1  0  0  0  0
 13 34  1  0  0  0  0
 13 14  1  0  0  0  0
 14 15  2  0  0  0  0
 16 17  1  0  0  0  0
 16 18  1  0  0  0  0
 16 41  1  0  0  0  0
 17 42  1  0  0  0  0
 18 19  1  0  0  0  0
 18 43  1  0  0  0  0
 19 20  1  0  0  0  0
 20 21  2  0  0  0  0
 20 22  1  0  0  0  0
 22 27  1  0  0  0  0
 22 23  2  0  0  0  0
 23 24  1  0  0  0  0
 23 44  1  0  0  0  0
 24 25  2  0  0  0  0
 24 45  1  0  0  0  0
 25 26  1  0  0  0  0
 25 46  1  0  0  0  0
 26 27  2  0  0  0  0
 26 47  1  0  0  0  0
 27 48  1  0  0  0  0
 28 33  1  0  0  0  0
 28 29  2  0  0  0  0
 29 30  1  0  0  0  0
 29 49  1  0  0  0  0
 30 31  2  0  0  0  0
 30 50  1  0  0  0  0
 31 32  1  0  0  0  0
 31 51  1  0  0  0  0
 32 33  2  0  0  0  0
 32 52  1  0  0  0  0
 33 53  1  0  0  0  0
M  END
> <s_m_source_file>
AV-unprocessed.smi

> <i_m_source_file_index>
99

> <i_lp_mmshare_version>
43012

> <i_f3d_flags>
0

> <s_epik_input>
W2NIXTFbY0hdW2NIXVtjSF1bY0hdYzFDKD1PKU9bQ0gyXVtDQEBIXTJPW0NAQEhdKG4zW2NIXVtjSF1jKD1PKVtuSF1jMz1PKVtDQEBIXShbT0hdKVtDQEhdMk9DKD1PKWM0W2NIXVtjSF1bY0hdW2NIXVtjSF00

> <s_epik_cmdline>
J2VwaWtfcHl0aG9uJywgJy1waCcsICc3LjAnLCAnLXRuJywgJzgnLCAnLW1hJywgJzIwMCcsICctbWV0YWxfYmluZGluZycsICctaW1hZScsICc8aW5maWxlLm1hZT4nLCAnLW9tYWUnLCAnPG91dGZpbGUubWFlPic=

> <r_lp_tautomer_probability>
1

> <r_epik_Ionization_Penalty>
0.00454555

> <r_epik_Ionization_Penalty_Charging>
0.0045191

> <r_epik_Ionization_Penalty_Neutral>
2.64449e-05

> <r_epik_State_Penalty>
-0

> <r_epik_Charging_Adjusted_Penalty>
0.0045191

> <i_epik_Tot_Q>
0

> <i_epik_Tot_abs_Q>
0

> <r_epik_Metal_State_Penalty>
1.27877

> <b_epik_Metal_Only>
0

> <s_epik_Chemistry_Notes>
This compound has an ester and may undergo hydrolysis at high or low pH. This compound contains an acetal/aminal-like group ( X-CH(R)-Y where X, Y are N, S, or O) that may be acid/base labile, releasing an aldehyde.

> <s_lp_Force_Field>
OPLS_2005

> <r_lp_Energy>
32.4523

> <b_lp_Chiralities_Consistent>
1

> <s_lp_Variant>
AV-unprocessed.smi:99-5

> <Gold.Version>
5.8.1

> <Gold.Id.Protein>
6NUR|6NUR_protein|mol2

> <Gold.PLP.Fitness>
62.8542

> <Gold.PLP.PLP>
-56.5288

> <Gold.PLP.part.hbond>
-4.3258

> <Gold.PLP.part.metal>
0.0000

> <Gold.PLP.part.buried>
-8.4713

> <Gold.PLP.part.nonpolar>
-43.4036

> <Gold.PLP.part.repulsive>
0.2875

> <Gold.PLP.ligand.clash>
0.0000

> <Gold.PLP.ligand.torsion>
1.4882

> <Gold.PLP.Chemscore.Hbond>
2.9913

> <Gold.PLP.Chemscore.CHOScore>
0.0000

> <Gold.PLP.Chemscore.Metal>
0.0000

> <Gold.Chemscore.Hbonds>
donor molecule, donor type, donor heavy atom, donor atom, acceptor molecule, acceptor atom, score
      L1  H    17    42       P1  7948  0.70
      P1  H  7989  7998       L1     1  1.00
      P1  H 10752 10763       L1     6  1.00

> <Gold.PLP.Chemscore.Internal.Correction>
0.3281

> <Gold.Rescore>
     Score         DG    S(hbond)    S(metal)    S(lipo)     H(rot)  DE(clash)    DE(int)     intcor
     17.43     -20.06       2.70        0.00     117.26       3.19       0.13       2.50       ----

> <Gold.Chemscore.Fitness>
17.4294

> <Gold.Chemscore.DG>
-20.0644

> <Gold.Chemscore.ZeroCoef>
-5.4800

> <Gold.Chemscore.Hbond>
2.7042

> <Gold.Chemscore.Metal>
0.0000

> <Gold.Chemscore.Lipo>
117.2597

> <Gold.Chemscore.Internal_Hbond>
0.0000

> <Gold.Chemscore.DEClash>
0.1312

> <Gold.Chemscore.DEInternal>
2.5038

> <Gold.Chemscore.Rot>
3.1903

> <Gold.Chemscore.Internal.Correction>
   9.000000E+99

> <Gold.Chemscore.Hbonds>
donor molecule, donor type, donor heavy atom, donor atom, acceptor molecule, acceptor atom, score
      L1  H    17    42       P1  7948  0.64
      P1  H  7989  7998       L1     1  0.97
      P1  H 10752 10763       L1     6  0.28

> <Gold.Chemscore.Hbond.Weighted>
-9.0321

> <Gold.Chemscore.Metal.Weighted>
-0.0000

> <Gold.Chemscore.Lipo.Weighted>
-13.7194

> <Gold.Chemscore.Internal_Hbond.Weighted>
0.0000

> <Gold.Chemscore.DEClash.Weighted>
0.1312

> <Gold.Chemscore.DEInternal.Weighted>
2.5038

> <Gold.Chemscore.Rot.Weighted>
8.1671

> <Gold.Chemscore.Internal.Correction.Weighted>
   9.000000E+99

> <Gold.Protein.RotatedTorsions>
[ 6907 6896 6895 6894 ] final  104.69 input  -60.11 | X-H torsion
[ 7974 7965 7964 7962 ] final  171.42 input  175.53 | X-H torsion
[ 8008 7997 7996 7995 ] final  174.72 input   59.86 | X-H torsion
[ 10167 10162 10161 10158 ] final  113.90 input  -65.29 | X-H torsion
[ 10718 10713 10712 10709 ] final  169.63 input   66.30 | X-H torsion
[ 10763 10752 10751 10750 ] final   81.82 input  -60.55 | X-H torsion
[ 11005 11000 10999 10996 ] final   17.97 input  -57.11 | X-H torsion

> <Gold.Protein.ActiveResidues>
 VAL166  LYS551  ARG553  GLY616  TRP617  ASP618  TYR619  PRO620  LYS621  CYS622 
 ASP623  PHE694  ASN695  SER759  ASP760  ASP761  ALA762  ILE779  LEU786  VAL792 
 PHE793  MET794  SER795  GLU796  ALA797  LYS798  CYS799  TRP800  GLU811  SER814 

> <Gold.Protein.RotatedAtoms>
  152.5256  133.9639  159.7729 H   0  0  0  0  0  0  0  0  0  0  0  0  # atno 6907 bound_to 6896
  150.9924  133.6128  159.2713 H   0  0  0  0  0  0  0  0  0  0  0  0  # atno 6908 bound_to 6896
  151.3266  135.0838  159.9377 H   0  0  0  0  0  0  0  0  0  0  0  0  # atno 6909 bound_to 6896
  144.7295  139.9348  143.6426 H   0  0  0  0  0  0  0  0  0  0  0  0  # atno 7974 bound_to 7965
  156.0945  140.1427  156.9548 H   0  0  0  0  0  0  0  0  0  0  0  0  # atno 8008 bound_to 7997
  154.4663  140.0925  156.7074 H   0  0  0  0  0  0  0  0  0  0  0  0  # atno 8009 bound_to 7997
  155.4863  140.3446  155.4350 H   0  0  0  0  0  0  0  0  0  0  0  0  # atno 8010 bound_to 7997
  139.6427  144.7125  151.2204 H   0  0  0  0  0  0  0  0  0  0  0  0  # atno 10167 bound_to 10162
  157.0198  131.0228  151.2778 H   0  0  0  0  0  0  0  0  0  0  0  0  # atno 10718 bound_to 10713
  153.1150  135.4751  154.9099 H   0  0  0  0  0  0  0  0  0  0  0  0  # atno 10763 bound_to 10752
  154.7519  135.3108  154.8544 H   0  0  0  0  0  0  0  0  0  0  0  0  # atno 10764 bound_to 10752
  153.9123  135.6864  153.4804 H   0  0  0  0  0  0  0  0  0  0  0  0  # atno 10765 bound_to 10752
  140.4300  134.1430  155.7680 H   0  0  0  0  0  0  0  0  0  0  0  0  # atno 11005 bound_to 11000
  146.0830  139.3818  143.0453 LP  0  0  0  0  0  0  0  0  0  0  0  0  # atno 17320 bound_to 7965
  145.7815  140.9854  143.1097 LP  0  0  0  0  0  0  0  0  0  0  0  0  # atno 17321 bound_to 7965
  140.7499  143.6284  150.8447 LP  0  0  0  0  0  0  0  0  0  0  0  0  # atno 17342 bound_to 10162
  139.9923  143.5834  152.2906 LP  0  0  0  0  0  0  0  0  0  0  0  0  # atno 17343 bound_to 10162
  157.5258  130.8027  149.7860 LP  0  0  0  0  0  0  0  0  0  0  0  0  # atno 17370 bound_to 10713
  156.0106  130.3835  150.2277 LP  0  0  0  0  0  0  0  0  0  0  0  0  # atno 17371 bound_to 10713
  141.1749  133.8533  157.1452 LP  0  0  0  0  0  0  0  0  0  0  0  0  # atno 17394 bound_to 11000
  140.0141  134.9975  157.0456 LP  0  0  0  0  0  0  0  0  0  0  0  0  # atno 17395 bound_to 11000

$$$$
