AV-unprocessed.smi:1862|AV-procd|sdf|7549|dock2
  -GOLD-   22720 9263D 1   1.00000     0.00000
 Structure written by MMmdl.
 40 41  0  0  0  0  0  0  0  0  1 V2000
  153.1102  142.2079  160.5060 C   0  0  0  0  0  0  0  0  0  0  0  0
  153.3320  143.3295  159.4759 C   0  0  0  0  0  0  0  0  0  0  0  0
  152.0481  143.9072  158.8180 C   0  0  0  0  0  0  0  0  0  0  0  0
  150.9683  144.1408  159.8970 C   0  0  0  0  0  0  0  0  0  0  0  0
  152.3573  145.2625  158.1521 C   0  0  0  0  0  0  0  0  0  0  0  0
  151.5267  143.0224  157.7671 N   0  0  0  0  0  0  0  0  0  0  0  0
  151.1235  141.7433  157.8748 C   0  0  0  0  0  0  0  0  0  0  0  0
  151.1462  141.1047  158.9274 O   0  0  0  0  0  0  0  0  0  0  0  0
  150.6292  141.0841  156.5829 C   0  0  0  0  0  0  0  0  0  0  0  0
  149.1750  141.3791  156.3491 C   0  0  0  0  0  0  0  0  0  0  0  0
  148.5034  141.3194  155.1522 C   0  0  0  0  0  0  0  0  0  0  0  0
  146.8230  141.7467  155.3239 S   0  0  0  0  0  0  0  0  0  0  0  0
  147.0959  141.9892  157.0518 C   0  0  0  0  0  0  0  0  0  0  0  0
  146.1240  142.3932  158.0147 N   0  0  0  0  0  0  0  0  0  0  0  0
  144.7938  142.8448  157.6183 C   0  0  0  0  0  0  0  0  0  0  0  0
  144.1054  143.1629  158.9418 C   0  0  0  0  0  0  0  0  0  0  0  0
  145.1356  142.8474  159.9032 N   0  0  0  0  0  0  0  0  0  0  0  0
  146.2720  142.4118  159.3544 C   0  0  0  0  0  0  0  0  0  0  0  0
  147.2678  142.0905  160.0001 O   0  0  0  0  0  0  0  0  0  0  0  0
  148.3589  141.7529  157.4222 N   0  0  0  0  0  0  0  0  0  0  0  0
  154.0634  141.8756  160.9173 H   0  0  0  0  0  0  0  0  0  0  0  0
  152.6298  141.3375  160.0602 H   0  0  0  0  0  0  0  0  0  0  0  0
  152.4961  142.5416  161.3424 H   0  0  0  0  0  0  0  0  0  0  0  0
  153.8893  144.1305  159.9622 H   0  0  0  0  0  0  0  0  0  0  0  0
  153.9959  142.9565  158.6952 H   0  0  0  0  0  0  0  0  0  0  0  0
  151.3026  144.8714  160.6346 H   0  0  0  0  0  0  0  0  0  0  0  0
  150.7254  143.2282  160.4413 H   0  0  0  0  0  0  0  0  0  0  0  0
  150.0431  144.5184  159.4598 H   0  0  0  0  0  0  0  0  0  0  0  0
  152.7796  145.9691  158.8672 H   0  0  0  0  0  0  0  0  0  0  0  0
  151.4549  145.7166  157.7404 H   0  0  0  0  0  0  0  0  0  0  0  0
  153.0672  145.1618  157.3309 H   0  0  0  0  0  0  0  0  0  0  0  0
  151.4662  143.4350  156.8477 H   0  0  0  0  0  0  0  0  0  0  0  0
  151.2230  141.4312  155.7362 H   0  0  0  0  0  0  0  0  0  0  0  0
  150.8001  140.0095  156.6578 H   0  0  0  0  0  0  0  0  0  0  0  0
  148.8962  141.0561  154.1815 H   0  0  0  0  0  0  0  0  0  0  0  0
  144.8603  143.7278  156.9809 H   0  0  0  0  0  0  0  0  0  0  0  0
  144.2664  142.0599  157.0739 H   0  0  0  0  0  0  0  0  0  0  0  0
  143.8206  144.2131  159.0142 H   0  0  0  0  0  0  0  0  0  0  0  0
  143.2237  142.5423  159.1054 H   0  0  0  0  0  0  0  0  0  0  0  0
  144.9960  142.9490  160.8982 H   0  0  0  0  0  0  0  0  0  0  0  0
  1  2  1  0  0  0  0
  1 21  1  0  0  0  0
  1 22  1  0  0  0  0
  1 23  1  0  0  0  0
  2  3  1  0  0  0  0
  2 24  1  0  0  0  0
  2 25  1  0  0  0  0
  3  4  1  0  0  0  0
  3  5  1  0  0  0  0
  3  6  1  0  0  0  0
  4 26  1  0  0  0  0
  4 27  1  0  0  0  0
  4 28  1  0  0  0  0
  5 29  1  0  0  0  0
  5 30  1  0  0  0  0
  5 31  1  0  0  0  0
  6  7  1  0  0  0  0
  6 32  1  0  0  0  0
  7  8  2  0  0  0  0
  7  9  1  0  0  0  0
  9 10  1  0  0  0  0
  9 33  1  0  0  0  0
  9 34  1  0  0  0  0
 10 20  1  0  0  0  0
 10 11  2  0  0  0  0
 11 12  1  0  0  0  0
 11 35  1  0  0  0  0
 12 13  1  0  0  0  0
 13 14  1  0  0  0  0
 13 20  2  0  0  0  0
 14 18  1  0  0  0  0
 14 15  1  0  0  0  0
 15 16  1  0  0  0  0
 15 36  1  0  0  0  0
 15 37  1  0  0  0  0
 16 17  1  0  0  0  0
 16 38  1  0  0  0  0
 16 39  1  0  0  0  0
 17 18  1  0  0  0  0
 17 40  1  0  0  0  0
 18 19  2  0  0  0  0
M  END
> <s_m_source_file>
AV-unprocessed.smi

> <i_m_source_file_index>
1862

> <i_lp_mmshare_version>
43012

> <i_f3d_flags>
0

> <s_epik_input>
W0NIM11bQ0gyXUMoW0NIM10pKFtDSDNdKVtOSF1DKD1PKVtDSDJdYzFbY0hdc2MobjEpTjJbQ0gyXVtDSDJdW05IXUMyPU8=

> <s_epik_cmdline>
J2VwaWtfcHl0aG9uJywgJy1waCcsICc3LjAnLCAnLXRuJywgJzgnLCAnLW1hJywgJzIwMCcsICctbWV0YWxfYmluZGluZycsICctaW1hZScsICc8aW5maWxlLm1hZT4nLCAnLW9tYWUnLCAnPG91dGZpbGUubWFlPic=

> <r_lp_tautomer_probability>
1

> <r_epik_Ionization_Penalty>
0.000124031

> <r_epik_Ionization_Penalty_Charging>
0

> <r_epik_Ionization_Penalty_Neutral>
0.000124031

> <r_epik_State_Penalty>
-0

> <r_epik_Charging_Adjusted_Penalty>
0

> <i_epik_Tot_Q>
0

> <i_epik_Tot_abs_Q>
0

> <r_epik_Metal_State_Penalty>
-0

> <b_epik_Metal_Only>
0

> <s_lp_Force_Field>
OPLS_2005

> <r_lp_Energy>
34.1106

> <b_lp_Chiralities_Consistent>
1

> <s_lp_Variant>
AV-unprocessed.smi:1862-1

> <Gold.Version>
5.8.1

> <Gold.Id.Protein>
6NUR|6NUR_protein|mol2

> <Gold.PLP.Fitness>
36.8682

> <Gold.PLP.PLP>
-34.3913

> <Gold.PLP.part.hbond>
-2.1959

> <Gold.PLP.part.metal>
0.0000

> <Gold.PLP.part.buried>
-4.3616

> <Gold.PLP.part.nonpolar>
-28.4991

> <Gold.PLP.part.repulsive>
0.2378

> <Gold.PLP.ligand.clash>
0.0000

> <Gold.PLP.ligand.torsion>
0.9044

> <Gold.PLP.Chemscore.Hbond>
1.4041

> <Gold.PLP.Chemscore.CHOScore>
0.0000

> <Gold.PLP.Chemscore.Metal>
0.0000

> <Gold.Chemscore.Hbonds>
donor molecule, donor type, donor heavy atom, donor atom, acceptor molecule, acceptor atom, score
      P1  H  6933  6944       L1    19  0.42
      P1  H  6934  6946       L1    19  0.53

> <Gold.PLP.Chemscore.Internal.Correction>
0.0733

> <Gold.Rescore>
     Score         DG    S(hbond)    S(metal)    S(lipo)     H(rot)  DE(clash)    DE(int)     intcor
     12.28     -15.92       1.53        0.00      83.18       1.72       0.00       3.63       ----

> <Gold.Chemscore.Fitness>
12.2847

> <Gold.Chemscore.DG>
-15.9158

> <Gold.Chemscore.ZeroCoef>
-5.4800

> <Gold.Chemscore.Hbond>
1.5310

> <Gold.Chemscore.Metal>
0.0000

> <Gold.Chemscore.Lipo>
83.1848

> <Gold.Chemscore.Internal_Hbond>
0.0000

> <Gold.Chemscore.DEClash>
0.0019

> <Gold.Chemscore.DEInternal>
3.6292

> <Gold.Chemscore.Rot>
1.7228

> <Gold.Chemscore.Internal.Correction>
   9.000000E+99

> <Gold.Chemscore.Hbonds>
donor molecule, donor type, donor heavy atom, donor atom, acceptor molecule, acceptor atom, score
      P1  H  6933  6944       L1    19  0.42
      P1  H  6934  6946       L1    19  0.34

> <Gold.Chemscore.Hbond.Weighted>
-5.1135

> <Gold.Chemscore.Metal.Weighted>
-0.0000

> <Gold.Chemscore.Lipo.Weighted>
-9.7326

> <Gold.Chemscore.Internal_Hbond.Weighted>
0.0000

> <Gold.Chemscore.DEClash.Weighted>
0.0019

> <Gold.Chemscore.DEInternal.Weighted>
3.6292

> <Gold.Chemscore.Rot.Weighted>
4.4103

> <Gold.Chemscore.Internal.Correction.Weighted>
   9.000000E+99

> <Gold.Protein.RotatedTorsions>
[ 6907 6896 6895 6894 ] final -167.79 input  -60.11 | X-H torsion
[ 7974 7965 7964 7962 ] final   92.53 input  175.53 | X-H torsion
[ 8008 7997 7996 7995 ] final -178.53 input   59.86 | X-H torsion
[ 10167 10162 10161 10158 ] final -127.22 input  -65.29 | X-H torsion
[ 10718 10713 10712 10709 ] final -174.88 input   66.30 | X-H torsion
[ 10763 10752 10751 10750 ] final  -29.91 input  -60.55 | X-H torsion
[ 11005 11000 10999 10996 ] final  133.33 input  -57.11 | X-H torsion

> <Gold.Protein.ActiveResidues>
 VAL166  LYS551  ARG553  GLY616  TRP617  ASP618  TYR619  PRO620  LYS621  CYS622 
 ASP623  PHE694  ASN695  SER759  ASP760  ASP761  ALA762  ILE779  LEU786  VAL792 
 PHE793  MET794  SER795  GLU796  ALA797  LYS798  CYS799  TRP800  GLU811  SER814 

> <Gold.Protein.RotatedAtoms>
  151.4651  133.3583  159.2814 H   0  0  0  0  0  0  0  0  0  0  0  0  # atno 6907 bound_to 6896
  150.8999  134.8412  159.7363 H   0  0  0  0  0  0  0  0  0  0  0  0  # atno 6908 bound_to 6896
  152.4873  134.4570  159.9645 H   0  0  0  0  0  0  0  0  0  0  0  0  # atno 6909 bound_to 6896
  145.4910  139.2276  143.2830 H   0  0  0  0  0  0  0  0  0  0  0  0  # atno 7974 bound_to 7965
  156.0199  140.1259  157.0368 H   0  0  0  0  0  0  0  0  0  0  0  0  # atno 8008 bound_to 7997
  154.4307  140.1071  156.6019 H   0  0  0  0  0  0  0  0  0  0  0  0  # atno 8009 bound_to 7997
  155.5960  140.3470  155.4582 H   0  0  0  0  0  0  0  0  0  0  0  0  # atno 8010 bound_to 7997
  139.9632  143.5927  152.2438 H   0  0  0  0  0  0  0  0  0  0  0  0  # atno 10167 bound_to 10162
  156.7917  130.9520  151.3120 H   0  0  0  0  0  0  0  0  0  0  0  0  # atno 10718 bound_to 10713
  153.7723  135.6911  153.4904 H   0  0  0  0  0  0  0  0  0  0  0  0  # atno 10763 bound_to 10752
  153.1866  135.4486  155.0095 H   0  0  0  0  0  0  0  0  0  0  0  0  # atno 10764 bound_to 10752
  154.8113  135.3379  154.7231 H   0  0  0  0  0  0  0  0  0  0  0  0  # atno 10765 bound_to 10752
  139.9845  134.9537  156.9710 H   0  0  0  0  0  0  0  0  0  0  0  0  # atno 11005 bound_to 11000
  146.2284  140.5704  142.8986 LP  0  0  0  0  0  0  0  0  0  0  0  0  # atno 17320 bound_to 7965
  144.7834  140.5887  143.6590 LP  0  0  0  0  0  0  0  0  0  0  0  0  # atno 17321 bound_to 7965
  139.6538  144.7661  151.2096 LP  0  0  0  0  0  0  0  0  0  0  0  0  # atno 17342 bound_to 10162
  140.7546  143.6118  150.8598 LP  0  0  0  0  0  0  0  0  0  0  0  0  # atno 17343 bound_to 10162
  157.6597  130.8955  149.9804 LP  0  0  0  0  0  0  0  0  0  0  0  0  # atno 17370 bound_to 10713
  156.1155  130.3648  149.9976 LP  0  0  0  0  0  0  0  0  0  0  0  0  # atno 17371 bound_to 10713
  140.5029  134.1079  155.7254 LP  0  0  0  0  0  0  0  0  0  0  0  0  # atno 17394 bound_to 11000
  141.1512  133.8965  157.2092 LP  0  0  0  0  0  0  0  0  0  0  0  0  # atno 17395 bound_to 11000

$$$$
