AV-unprocessed.smi:99|AV-procd|sdf|872|dock6
  -GOLD-   2262017333D 1   1.00000     0.00000
 Structure written by MMmdl.
 53 56  0  0  0  0  0  0  0  0  1 V2000
  147.2736  137.3291  161.1542 O   0  0  0  0  0  0  0  0  0  0  0  0
  147.6226  136.2148  160.7587 C   0  0  0  0  0  0  0  0  0  0  0  0
  148.6702  136.0103  159.9363 O   0  0  0  0  0  0  0  0  0  0  0  0
  149.3665  137.1164  159.3872 C   0  0  0  0  0  0  0  0  0  0  0  0
  150.1496  136.6558  158.1419 C   0  0  1  0  0  0  0  0  0  0  0  0
  149.4007  135.6362  157.4934 O   0  0  0  0  0  0  0  0  0  0  0  0
  148.5069  136.2079  156.5879 C   0  0  2  0  0  0  0  0  0  0  0  0
  148.4643  135.3227  155.3602 N   0  0  0  0  0  0  0  0  0  0  0  0
  149.4078  134.3198  155.1843 C   0  0  0  0  0  0  0  0  0  0  0  0
  149.4151  133.4906  154.1140 C   0  0  0  0  0  0  0  0  0  0  0  0
  148.4020  133.6200  153.0715 C   0  0  0  0  0  0  0  0  0  0  0  0
  148.3237  132.9150  152.0677 O   0  0  0  0  0  0  0  0  0  0  0  0
  147.4753  134.6446  153.2868 N   0  0  0  0  0  0  0  0  0  0  0  0
  147.4594  135.5074  154.3845 C   0  0  0  0  0  0  0  0  0  0  0  0
  146.5996  136.3841  154.4621 O   0  0  0  0  0  0  0  0  0  0  0  0
  148.9804  137.6494  156.2899 C   0  0  2  0  0  0  0  0  0  0  0  0
  149.1731  137.9365  154.9161 O   0  0  0  0  0  0  0  0  0  0  0  0
  150.3007  137.7241  157.0501 C   0  0  1  0  0  0  0  0  0  0  0  0
  150.5134  139.0088  157.6251 O   0  0  0  0  0  0  0  0  0  0  0  0
  151.6401  139.2854  158.3145 C   0  0  0  0  0  0  0  0  0  0  0  0
  152.4371  138.4261  158.6957 O   0  0  0  0  0  0  0  0  0  0  0  0
  151.8233  140.7446  158.5604 C   0  0  0  0  0  0  0  0  0  0  0  0
  151.1993  141.6762  157.6982 C   0  0  0  0  0  0  0  0  0  0  0  0
  151.3527  143.0606  157.9062 C   0  0  0  0  0  0  0  0  0  0  0  0
  152.1325  143.5305  158.9786 C   0  0  0  0  0  0  0  0  0  0  0  0
  152.7593  142.6142  159.8429 C   0  0  0  0  0  0  0  0  0  0  0  0
  152.6067  141.2292  159.6372 C   0  0  0  0  0  0  0  0  0  0  0  0
  146.9287  134.9511  161.1404 C   0  0  0  0  0  0  0  0  0  0  0  0
  145.6709  135.0181  161.7842 C   0  0  0  0  0  0  0  0  0  0  0  0
  144.9913  133.8415  162.1548 C   0  0  0  0  0  0  0  0  0  0  0  0
  145.5611  132.5832  161.8869 C   0  0  0  0  0  0  0  0  0  0  0  0
  146.8119  132.5030  161.2474 C   0  0  0  0  0  0  0  0  0  0  0  0
  147.4929  133.6786  160.8751 C   0  0  0  0  0  0  0  0  0  0  0  0
  146.7590  134.7734  152.5869 H   0  0  0  0  0  0  0  0  0  0  0  0
  148.6715  137.9201  159.1403 H   0  0  0  0  0  0  0  0  0  0  0  0
  150.0529  137.4982  160.1440 H   0  0  0  0  0  0  0  0  0  0  0  0
  151.1274  136.2780  158.4429 H   0  0  0  0  0  0  0  0  0  0  0  0
  147.5172  136.1863  157.0460 H   0  0  0  0  0  0  0  0  0  0  0  0
  150.1805  134.1927  155.9290 H   0  0  0  0  0  0  0  0  0  0  0  0
  150.1755  132.7281  154.0279 H   0  0  0  0  0  0  0  0  0  0  0  0
  148.2481  138.3391  156.7123 H   0  0  0  0  0  0  0  0  0  0  0  0
  148.8774  138.8184  154.7483 H   0  0  0  0  0  0  0  0  0  0  0  0
  151.1273  137.4301  156.4005 H   0  0  0  0  0  0  0  0  0  0  0  0
  150.5953  141.3394  156.8680 H   0  0  0  0  0  0  0  0  0  0  0  0
  150.8710  143.7623  157.2413 H   0  0  0  0  0  0  0  0  0  0  0  0
  152.2499  144.5923  159.1380 H   0  0  0  0  0  0  0  0  0  0  0  0
  153.3585  142.9744  160.6662 H   0  0  0  0  0  0  0  0  0  0  0  0
  153.1016  140.5537  160.3195 H   0  0  0  0  0  0  0  0  0  0  0  0
  145.2131  135.9727  161.9999 H   0  0  0  0  0  0  0  0  0  0  0  0
  144.0306  133.9050  162.6445 H   0  0  0  0  0  0  0  0  0  0  0  0
  145.0394  131.6812  162.1710 H   0  0  0  0  0  0  0  0  0  0  0  0
  147.2503  131.5377  161.0409 H   0  0  0  0  0  0  0  0  0  0  0  0
  148.4505  133.5809  160.3848 H   0  0  0  0  0  0  0  0  0  0  0  0
  1  2  2  0  0  0  0
  2  3  1  0  0  0  0
  2 28  1  0  0  0  0
  3  4  1  0  0  0  0
  4  5  1  0  0  0  0
  4 35  1  0  0  0  0
  4 36  1  0  0  0  0
  5 18  1  0  0  0  0
  5  6  1  0  0  0  0
  5 37  1  0  0  0  0
  6  7  1  0  0  0  0
  7  8  1  0  0  0  0
  7 16  1  0  0  0  0
  7 38  1  0  0  0  0
  8 14  1  0  0  0  0
  8  9  1  0  0  0  0
  9 10  2  0  0  0  0
  9 39  1  0  0  0  0
 10 11  1  0  0  0  0
 10 40  1  0  0  0  0
 11 12  2  0  0  0  0
 11 13  1  0  0  0  0
 13 34  1  0  0  0  0
 13 14  1  0  0  0  0
 14 15  2  0  0  0  0
 16 17  1  0  0  0  0
 16 18  1  0  0  0  0
 16 41  1  0  0  0  0
 17 42  1  0  0  0  0
 18 19  1  0  0  0  0
 18 43  1  0  0  0  0
 19 20  1  0  0  0  0
 20 21  2  0  0  0  0
 20 22  1  0  0  0  0
 22 27  1  0  0  0  0
 22 23  2  0  0  0  0
 23 24  1  0  0  0  0
 23 44  1  0  0  0  0
 24 25  2  0  0  0  0
 24 45  1  0  0  0  0
 25 26  1  0  0  0  0
 25 46  1  0  0  0  0
 26 27  2  0  0  0  0
 26 47  1  0  0  0  0
 27 48  1  0  0  0  0
 28 33  1  0  0  0  0
 28 29  2  0  0  0  0
 29 30  1  0  0  0  0
 29 49  1  0  0  0  0
 30 31  2  0  0  0  0
 30 50  1  0  0  0  0
 31 32  1  0  0  0  0
 31 51  1  0  0  0  0
 32 33  2  0  0  0  0
 32 52  1  0  0  0  0
 33 53  1  0  0  0  0
M  END
> <s_m_source_file>
AV-unprocessed.smi

> <i_m_source_file_index>
99

> <i_lp_mmshare_version>
43012

> <i_f3d_flags>
0

> <s_epik_input>
W2NIXTFbY0hdW2NIXVtjSF1bY0hdYzFDKD1PKU9bQ0gyXVtDQEBIXTJPW0NAQEhdKG4zW2NIXVtjSF1jKD1PKVtuSF1jMz1PKVtDQEBIXShbT0hdKVtDQEhdMk9DKD1PKWM0W2NIXVtjSF1bY0hdW2NIXVtjSF00

> <s_epik_cmdline>
J2VwaWtfcHl0aG9uJywgJy1waCcsICc3LjAnLCAnLXRuJywgJzgnLCAnLW1hJywgJzIwMCcsICctbWV0YWxfYmluZGluZycsICctaW1hZScsICc8aW5maWxlLm1hZT4nLCAnLW9tYWUnLCAnPG91dGZpbGUubWFlPic=

> <r_lp_tautomer_probability>
1

> <r_epik_Ionization_Penalty>
0.00454555

> <r_epik_Ionization_Penalty_Charging>
0.0045191

> <r_epik_Ionization_Penalty_Neutral>
2.64449e-05

> <r_epik_State_Penalty>
-0

> <r_epik_Charging_Adjusted_Penalty>
0.0045191

> <i_epik_Tot_Q>
0

> <i_epik_Tot_abs_Q>
0

> <r_epik_Metal_State_Penalty>
1.27877

> <b_epik_Metal_Only>
0

> <s_epik_Chemistry_Notes>
This compound has an ester and may undergo hydrolysis at high or low pH. This compound contains an acetal/aminal-like group ( X-CH(R)-Y where X, Y are N, S, or O) that may be acid/base labile, releasing an aldehyde.

> <s_lp_Force_Field>
OPLS_2005

> <r_lp_Energy>
42.9918

> <b_lp_Chiralities_Consistent>
1

> <s_lp_Variant>
AV-unprocessed.smi:99-8

> <Gold.Version>
5.8.1

> <Gold.Id.Protein>
6NUR|6NUR_protein|mol2

> <Gold.PLP.Fitness>
50.3665

> <Gold.PLP.PLP>
-46.9101

> <Gold.PLP.part.hbond>
-3.1013

> <Gold.PLP.part.metal>
0.0000

> <Gold.PLP.part.buried>
-4.5242

> <Gold.PLP.part.nonpolar>
-40.6241

> <Gold.PLP.part.repulsive>
1.0790

> <Gold.PLP.ligand.clash>
0.0000

> <Gold.PLP.ligand.torsion>
1.2290

> <Gold.PLP.Chemscore.Hbond>
1.7600

> <Gold.PLP.Chemscore.CHOScore>
0.0000

> <Gold.PLP.Chemscore.Metal>
0.0000

> <Gold.Chemscore.Hbonds>
donor molecule, donor type, donor heavy atom, donor atom, acceptor molecule, acceptor atom, score
      P1  H  6931  6943       L1     1  0.60
      P1  H  6934  6947       L1     1  1.00

> <Gold.PLP.Chemscore.Internal.Correction>
0.6344

> <Gold.Rescore>
     Score         DG    S(hbond)    S(metal)    S(lipo)     H(rot)  DE(clash)    DE(int)     intcor
     14.08     -16.68       1.62        0.00     119.24       3.19       0.24       2.36       ----

> <Gold.Chemscore.Fitness>
14.0816

> <Gold.Chemscore.DG>
-16.6792

> <Gold.Chemscore.ZeroCoef>
-5.4800

> <Gold.Chemscore.Hbond>
1.6214

> <Gold.Chemscore.Metal>
0.0000

> <Gold.Chemscore.Lipo>
119.2382

> <Gold.Chemscore.Internal_Hbond>
0.0000

> <Gold.Chemscore.DEClash>
0.2400

> <Gold.Chemscore.DEInternal>
2.3575

> <Gold.Chemscore.Rot>
3.1903

> <Gold.Chemscore.Internal.Correction>
   9.000000E+99

> <Gold.Chemscore.Hbonds>
donor molecule, donor type, donor heavy atom, donor atom, acceptor molecule, acceptor atom, score
      P1  H  6931  6943       L1     1  0.33
      P1  H  6934  6947       L1     1  0.97

> <Gold.Chemscore.Hbond.Weighted>
-5.4154

> <Gold.Chemscore.Metal.Weighted>
-0.0000

> <Gold.Chemscore.Lipo.Weighted>
-13.9509

> <Gold.Chemscore.Internal_Hbond.Weighted>
0.0000

> <Gold.Chemscore.DEClash.Weighted>
0.2400

> <Gold.Chemscore.DEInternal.Weighted>
2.3575

> <Gold.Chemscore.Rot.Weighted>
8.1671

> <Gold.Chemscore.Internal.Correction.Weighted>
   9.000000E+99

> <Gold.Protein.RotatedTorsions>
[ 6907 6896 6895 6894 ] final  160.33 input  -60.11 | X-H torsion
[ 7974 7965 7964 7962 ] final  119.12 input  175.53 | X-H torsion
[ 8008 7997 7996 7995 ] final  158.15 input   59.86 | X-H torsion
[ 10167 10162 10161 10158 ] final -135.35 input  -65.29 | X-H torsion
[ 10718 10713 10712 10709 ] final    1.38 input   66.30 | X-H torsion
[ 10763 10752 10751 10750 ] final    7.07 input  -60.55 | X-H torsion
[ 11005 11000 10999 10996 ] final  134.73 input  -57.11 | X-H torsion

> <Gold.Protein.ActiveResidues>
 VAL166  LYS551  ARG553  GLY616  TRP617  ASP618  TYR619  PRO620  LYS621  CYS622 
 ASP623  PHE694  ASN695  SER759  ASP760  ASP761  ALA762  ILE779  LEU786  VAL792 
 PHE793  MET794  SER795  GLU796  ALA797  LYS798  CYS799  TRP800  GLU811  SER814 

> <Gold.Protein.RotatedAtoms>
  151.9722  133.3730  159.4075 H   0  0  0  0  0  0  0  0  0  0  0  0  # atno 6907 bound_to 6896
  150.6947  134.4127  159.5178 H   0  0  0  0  0  0  0  0  0  0  0  0  # atno 6908 bound_to 6896
  152.1833  134.8735  160.0575 H   0  0  0  0  0  0  0  0  0  0  0  0  # atno 6909 bound_to 6896
  145.1470  139.3233  143.4586 H   0  0  0  0  0  0  0  0  0  0  0  0  # atno 7974 bound_to 7965
  156.2320  140.1866  156.7217 H   0  0  0  0  0  0  0  0  0  0  0  0  # atno 8008 bound_to 7997
  154.6040  140.0632  156.9433 H   0  0  0  0  0  0  0  0  0  0  0  0  # atno 8009 bound_to 7997
  155.2127  140.3301  155.4329 H   0  0  0  0  0  0  0  0  0  0  0  0  # atno 8010 bound_to 7997
  139.8787  143.6866  152.2630 H   0  0  0  0  0  0  0  0  0  0  0  0  # atno 10167 bound_to 10162
  156.8474  130.5542  149.5672 H   0  0  0  0  0  0  0  0  0  0  0  0  # atno 10718 bound_to 10713
  153.2404  135.6903  153.7789 H   0  0  0  0  0  0  0  0  0  0  0  0  # atno 10763 bound_to 10752
  153.6920  135.3311  155.3205 H   0  0  0  0  0  0  0  0  0  0  0  0  # atno 10764 bound_to 10752
  154.8353  135.4547  154.1324 H   0  0  0  0  0  0  0  0  0  0  0  0  # atno 10765 bound_to 10752
  139.9934  134.9506  156.9908 H   0  0  0  0  0  0  0  0  0  0  0  0  # atno 11005 bound_to 11000
  146.3499  140.1530  142.8592 LP  0  0  0  0  0  0  0  0  0  0  0  0  # atno 17320 bound_to 7965
  145.0471  140.8990  143.5018 LP  0  0  0  0  0  0  0  0  0  0  0  0  # atno 17321 bound_to 7965
  139.7216  144.7601  151.0946 LP  0  0  0  0  0  0  0  0  0  0  0  0  # atno 17342 bound_to 10162
  140.7748  143.5201  150.9547 LP  0  0  0  0  0  0  0  0  0  0  0  0  # atno 17343 bound_to 10162
  156.0847  130.5849  150.9627 LP  0  0  0  0  0  0  0  0  0  0  0  0  # atno 17370 bound_to 10713
  157.6322  131.0920  150.8418 LP  0  0  0  0  0  0  0  0  0  0  0  0  # atno 17371 bound_to 10713
  140.4865  134.1236  155.7225 LP  0  0  0  0  0  0  0  0  0  0  0  0  # atno 17394 bound_to 11000
  141.1584  133.8839  157.1914 LP  0  0  0  0  0  0  0  0  0  0  0  0  # atno 17395 bound_to 11000

$$$$
