AV-unprocessed.smi:1757|AV-procd|sdf|7078|dock10
  -GOLD-   22720 8303D 1   1.00000     0.00000
 Structure written by MMmdl.
 39 40  0  0  0  0  0  0  0  0  3 V2000
  144.1393  138.9782  155.3864 C   0  0  0  0  0  0  0  0  0  0  0  0
  145.1359  139.5305  154.4437 N   0  3  2  0  0  0  0  0  0  0  0  0
  146.0605  138.4912  153.9263 C   0  0  0  0  0  0  0  0  0  0  0  0
  147.0033  139.0690  152.8541 C   0  0  0  0  0  0  0  0  0  0  0  0
  147.7806  140.2941  153.3682 C   0  0  2  0  0  0  0  0  0  0  0  0
  148.7912  139.8850  154.3428 N   0  0  0  0  0  0  0  0  0  0  0  0
  149.4685  140.7110  155.1535 C   0  0  0  0  0  0  0  0  0  0  0  0
  149.2990  141.9297  155.1644 O   0  0  0  0  0  0  0  0  0  0  0  0
  150.3136  140.0198  155.9392 N   0  0  0  0  0  0  0  0  0  0  0  0
  151.2062  140.4847  156.9204 C   0  0  0  0  0  0  0  0  0  0  0  0
  151.2059  141.7428  157.4422 C   0  0  0  0  0  0  0  0  0  0  0  0
  152.1668  142.1681  158.4523 C   0  0  0  0  0  0  0  0  0  0  0  0
  152.1336  143.5273  159.1283 C   0  0  0  0  0  0  0  0  0  0  0  0
  152.5651  144.4826  158.3045 F   0  0  0  0  0  0  0  0  0  0  0  0
  150.8863  143.8237  159.4903 F   0  0  0  0  0  0  0  0  0  0  0  0
  152.8975  143.5374  160.2208 F   0  0  0  0  0  0  0  0  0  0  0  0
  153.0420  141.1583  158.8021 C   0  0  0  0  0  0  0  0  0  0  0  0
  153.1277  139.9006  158.3160 N   0  5  0  0  0  0  0  0  0  0  0  0
  152.2237  139.5131  157.3725 C   0  0  0  0  0  0  0  0  0  0  0  0
  152.2385  138.3786  156.8930 O   0  0  0  0  0  0  0  0  0  0  0  0
  146.7958  141.3240  153.9595 C   0  0  0  0  0  0  0  0  0  0  0  0
  145.8648  140.6926  155.0095 C   0  0  0  0  0  0  0  0  0  0  0  0
  144.6235  138.5816  156.2798 H   0  0  0  0  0  0  0  0  0  0  0  0
  143.5711  138.1737  154.9182 H   0  0  0  0  0  0  0  0  0  0  0  0
  143.4317  139.7491  155.6939 H   0  0  0  0  0  0  0  0  0  0  0  0
  146.6368  138.0704  154.7520 H   0  0  0  0  0  0  0  0  0  0  0  0
  145.4833  137.6721  153.4956 H   0  0  0  0  0  0  0  0  0  0  0  0
  147.6944  138.2995  152.5077 H   0  0  0  0  0  0  0  0  0  0  0  0
  146.4141  139.3600  151.9831 H   0  0  0  0  0  0  0  0  0  0  0  0
  148.2981  140.7472  152.5204 H   0  0  0  0  0  0  0  0  0  0  0  0
  148.9982  138.8985  154.3999 H   0  0  0  0  0  0  0  0  0  0  0  0
  150.2914  139.0146  155.8484 H   0  0  0  0  0  0  0  0  0  0  0  0
  150.4974  142.4821  157.1077 H   0  0  0  0  0  0  0  0  0  0  0  0
  153.7815  141.3955  159.5965 H   0  0  0  0  0  0  0  0  0  0  0  0
  147.3332  142.1670  154.3954 H   0  0  0  0  0  0  0  0  0  0  0  0
  146.1907  141.7407  153.1534 H   0  0  0  0  0  0  0  0  0  0  0  0
  145.1489  141.4400  155.3539 H   0  0  0  0  0  0  0  0  0  0  0  0
  146.4368  140.3777  155.8839 H   0  0  0  0  0  0  0  0  0  0  0  0
  144.6167  139.8757  153.6488 H   0  0  0  0  0  0  0  0  0  0  0  0
  1  2  1  0  0  0  0
  1 23  1  0  0  0  0
  1 24  1  0  0  0  0
  1 25  1  0  0  0  0
  2 22  1  0  0  0  0
  2  3  1  0  0  0  0
  2 39  1  0  0  0  0
  3  4  1  0  0  0  0
  3 26  1  0  0  0  0
  3 27  1  0  0  0  0
  4  5  1  0  0  0  0
  4 28  1  0  0  0  0
  4 29  1  0  0  0  0
  5  6  1  0  0  0  0
  5 21  1  0  0  0  0
  5 30  1  0  0  0  0
  6  7  1  0  0  0  0
  6 31  1  0  0  0  0
  7  8  2  0  0  0  0
  7  9  1  0  0  0  0
  9 10  1  0  0  0  0
  9 32  1  0  0  0  0
 10 19  1  0  0  0  0
 10 11  2  0  0  0  0
 11 12  1  0  0  0  0
 11 33  1  0  0  0  0
 12 13  1  0  0  0  0
 12 17  2  0  0  0  0
 13 14  1  0  0  0  0
 13 15  1  0  0  0  0
 13 16  1  0  0  0  0
 17 18  1  0  0  0  0
 17 34  1  0  0  0  0
 18 19  1  0  0  0  0
 19 20  2  0  0  0  0
 21 22  1  0  0  0  0
 21 35  1  0  0  0  0
 21 36  1  0  0  0  0
 22 37  1  0  0  0  0
 22 38  1  0  0  0  0
M  CHG  1   2   1
M  CHG  1  18  -1
M  END
> <s_m_source_file>
AV-unprocessed.smi

> <i_m_source_file_index>
1757

> <i_lp_mmshare_version>
43012

> <i_f3d_flags>
0

> <s_epik_input>
W0NIM11OMVtDSDJdW0NIMl1bQ0hdKFtDSDJdW0NIMl0xKVtOSF1DKD1PKVtOSF1jMltjSF1jKEMoRikoRilGKVtjSF1bbkhdYzI9Tw==

> <s_epik_cmdline>
J2VwaWtfcHl0aG9uJywgJy1waCcsICc3LjAnLCAnLXRuJywgJzgnLCAnLW1hJywgJzIwMCcsICctbWV0YWxfYmluZGluZycsICctaW1hZScsICc8aW5maWxlLm1hZT4nLCAnLW9tYWUnLCAnPG91dGZpbGUubWFlPic=

> <r_lp_tautomer_probability>
1

> <r_epik_Ionization_Penalty>
3.04759

> <r_epik_Ionization_Penalty_Charging>
0.155898

> <r_epik_Ionization_Penalty_Neutral>
2.89169

> <r_epik_State_Penalty>
2.88714

> <r_epik_Charging_Adjusted_Penalty>
3.04304

> <i_epik_Tot_Q>
0

> <i_epik_Tot_abs_Q>
2

> <r_epik_Metal_State_Penalty>
0.445786

> <b_epik_Metal_Only>
1

> <s_lp_Force_Field>
OPLS_2005

> <r_lp_Energy>
26.2534

> <b_lp_Chiralities_Consistent>
1

> <s_lp_Variant>
AV-unprocessed.smi:1757-4

> <Gold.Version>
5.8.1

> <Gold.Id.Protein>
6NUR|6NUR_protein|mol2

> <Gold.PLP.Fitness>
45.0623

> <Gold.PLP.PLP>
-34.2565

> <Gold.PLP.part.hbond>
-2.2529

> <Gold.PLP.part.metal>
0.0000

> <Gold.PLP.part.buried>
-2.8246

> <Gold.PLP.part.nonpolar>
-31.3703

> <Gold.PLP.part.repulsive>
2.0448

> <Gold.PLP.ligand.clash>
0.0000

> <Gold.PLP.ligand.torsion>
0.6223

> <Gold.PLP.Chemscore.Hbond>
4.0000

> <Gold.PLP.Chemscore.CHOScore>
0.0000

> <Gold.PLP.Chemscore.Metal>
0.0000

> <Gold.Chemscore.Hbonds>
donor molecule, donor type, donor heavy atom, donor atom, acceptor molecule, acceptor atom, score
      L1  H     2    39       P1 10175  2.00
      P1  H  7997  8010       L1    18  1.80

> <Gold.PLP.Chemscore.Internal.Correction>
0.0503

> <Gold.Rescore>
     Score         DG    S(hbond)    S(metal)    S(lipo)     H(rot)  DE(clash)    DE(int)     intcor
     10.60     -14.65       1.01        0.00      71.42       1.00       1.01       3.05       ----

> <Gold.Chemscore.Fitness>
10.6008

> <Gold.Chemscore.DG>
-14.6526

> <Gold.Chemscore.ZeroCoef>
-5.4800

> <Gold.Chemscore.Hbond>
1.0108

> <Gold.Chemscore.Metal>
0.0000

> <Gold.Chemscore.Lipo>
71.4224

> <Gold.Chemscore.Internal_Hbond>
0.0000

> <Gold.Chemscore.DEClash>
1.0067

> <Gold.Chemscore.DEInternal>
3.0452

> <Gold.Chemscore.Rot>
1.0000

> <Gold.Chemscore.Internal.Correction>
   9.000000E+99

> <Gold.Chemscore.Hbonds>
donor molecule, donor type, donor heavy atom, donor atom, acceptor molecule, acceptor atom, score
      L1  H     2    39       P1 10175  0.99
      P1  H  7997  8010       L1    18  0.05

> <Gold.Chemscore.Hbond.Weighted>
-3.3762

> <Gold.Chemscore.Metal.Weighted>
-0.0000

> <Gold.Chemscore.Lipo.Weighted>
-8.3564

> <Gold.Chemscore.Internal_Hbond.Weighted>
0.0000

> <Gold.Chemscore.DEClash.Weighted>
1.0067

> <Gold.Chemscore.DEInternal.Weighted>
3.0452

> <Gold.Chemscore.Rot.Weighted>
2.5600

> <Gold.Chemscore.Internal.Correction.Weighted>
   9.000000E+99

> <Gold.Protein.RotatedTorsions>
[ 6907 6896 6895 6894 ] final -169.46 input  -60.11 | X-H torsion
[ 7974 7965 7964 7962 ] final  -52.48 input  175.53 | X-H torsion
[ 8008 7997 7996 7995 ] final   24.74 input   59.86 | X-H torsion
[ 10167 10162 10161 10158 ] final  108.57 input  -65.29 | X-H torsion
[ 10718 10713 10712 10709 ] final   30.81 input   66.30 | X-H torsion
[ 10763 10752 10751 10750 ] final -125.43 input  -60.55 | X-H torsion
[ 11005 11000 10999 10996 ] final -122.54 input  -57.11 | X-H torsion

> <Gold.Protein.ActiveResidues>
 VAL166  LYS551  ARG553  GLY616  TRP617  ASP618  TYR619  PRO620  LYS621  CYS622 
 ASP623  PHE694  ASN695  SER759  ASP760  ASP761  ALA762  ILE779  LEU786  VAL792 
 PHE793  MET794  SER795  GLU796  ALA797  LYS798  CYS799  TRP800  GLU811  SER814 

> <Gold.Protein.RotatedAtoms>
  151.4920  133.3523  159.2854 H   0  0  0  0  0  0  0  0  0  0  0  0  # atno 6907 bound_to 6896
  150.8828  134.8224  159.7248 H   0  0  0  0  0  0  0  0  0  0  0  0  # atno 6908 bound_to 6896
  152.4774  134.4820  159.9720 H   0  0  0  0  0  0  0  0  0  0  0  0  # atno 6909 bound_to 6896
  145.9075  140.7943  142.9712 H   0  0  0  0  0  0  0  0  0  0  0  0  # atno 7974 bound_to 7965
  155.0009  140.3125  155.4867 H   0  0  0  0  0  0  0  0  0  0  0  0  # atno 8008 bound_to 7997
  156.2925  140.2232  156.5060 H   0  0  0  0  0  0  0  0  0  0  0  0  # atno 8009 bound_to 7997
  154.7619  140.0458  157.0968 H   0  0  0  0  0  0  0  0  0  0  0  0  # atno 8010 bound_to 7997
  139.6835  144.7116  151.1473 H   0  0  0  0  0  0  0  0  0  0  0  0  # atno 10167 bound_to 10162
  157.2643  130.7177  149.6470 H   0  0  0  0  0  0  0  0  0  0  0  0  # atno 10718 bound_to 10713
  154.8735  135.4030  154.3267 H   0  0  0  0  0  0  0  0  0  0  0  0  # atno 10763 bound_to 10752
  153.4087  135.7020  153.6380 H   0  0  0  0  0  0  0  0  0  0  0  0  # atno 10764 bound_to 10752
  153.5092  135.3711  155.2549 H   0  0  0  0  0  0  0  0  0  0  0  0  # atno 10765 bound_to 10752
  140.9988  134.0433  157.3564 H   0  0  0  0  0  0  0  0  0  0  0  0  # atno 11005 bound_to 11000
  144.6740  140.1773  143.7409 LP  0  0  0  0  0  0  0  0  0  0  0  0  # atno 17320 bound_to 7965
  145.8714  139.2274  143.1659 LP  0  0  0  0  0  0  0  0  0  0  0  0  # atno 17321 bound_to 7965
  140.7660  143.5663  150.9044 LP  0  0  0  0  0  0  0  0  0  0  0  0  # atno 17342 bound_to 10162
  139.9337  143.6463  152.3070 LP  0  0  0  0  0  0  0  0  0  0  0  0  # atno 17343 bound_to 10162
  155.9663  130.4387  150.5230 LP  0  0  0  0  0  0  0  0  0  0  0  0  # atno 17370 bound_to 10713
  157.3141  131.0669  151.1980 LP  0  0  0  0  0  0  0  0  0  0  0  0  # atno 17371 bound_to 10713
  139.9028  135.0170  156.7348 LP  0  0  0  0  0  0  0  0  0  0  0  0  # atno 17394 bound_to 11000
  140.6923  133.9379  155.7974 LP  0  0  0  0  0  0  0  0  0  0  0  0  # atno 17395 bound_to 11000

$$$$
