AV-unprocessed.smi:415|AV-procd|sdf|2523|dock2
  -GOLD-   2262022473D 1   1.00000     0.00000
 Structure written by MMmdl.
 53 54  0  0  0  0  0  0  0  0  1 V2000
  145.6634  136.5831  160.8532 C   0  0  0  0  0  0  0  0  0  0  0  0
  146.1373  137.6871  160.1032 O   0  0  0  0  0  0  0  0  0  0  0  0
  146.7304  137.2948  158.8764 C   0  0  0  0  0  0  0  0  0  0  0  0
  148.1607  136.7932  159.1351 C   0  0  0  0  0  0  0  0  0  0  0  0
  148.9434  136.6473  157.9219 N   0  0  0  0  0  0  0  0  0  0  0  0
  149.3515  135.4171  157.4127 C   0  0  0  0  0  0  0  0  0  0  0  0
  149.0282  134.2540  158.0876 N   0  0  0  0  0  0  0  0  0  0  0  0
  150.0725  135.3315  156.2726 C   0  0  0  0  0  0  0  0  0  0  0  0
  150.4675  136.5141  155.5202 C   0  0  0  0  0  0  0  0  0  0  0  0
  151.1056  136.4546  154.4688 O   0  0  0  0  0  0  0  0  0  0  0  0
  150.0672  137.7533  156.0705 N   0  0  0  0  0  0  0  0  0  0  0  0
  150.4196  139.0019  155.3592 C   0  0  0  0  0  0  0  0  0  0  0  0
  151.4972  139.8179  156.0875 C   0  0  0  0  0  0  0  0  0  0  0  0
  152.6932  139.5957  155.8939 O   0  0  0  0  0  0  0  0  0  0  0  0
  151.0513  140.7581  156.9344 N   0  0  0  0  0  0  0  0  0  0  0  0
  151.8929  141.6584  157.7208 C   0  0  1  0  0  0  0  0  0  0  0  0
  151.3330  143.0916  157.6256 C   0  0  0  0  0  0  0  0  0  0  0  0
  152.1581  144.0697  158.4662 C   0  0  0  0  0  0  0  0  0  0  0  0
  152.2149  143.6098  159.9266 C   0  0  0  0  0  0  0  0  0  0  0  0
  152.7926  142.1864  160.0584 C   0  0  1  0  0  0  0  0  0  0  0  0
  152.8592  141.7956  161.5464 C   0  0  0  0  0  0  0  0  0  0  0  0
  151.9888  141.1736  159.1933 C   0  0  2  0  0  0  0  0  0  0  0  0
  152.5797  139.7486  159.2707 C   0  0  0  0  0  0  0  0  0  0  0  0
  149.3128  137.8472  157.2622 C   0  0  0  0  0  0  0  0  0  0  0  0
  148.9865  138.9519  157.7065 O   0  0  0  0  0  0  0  0  0  0  0  0
  145.2272  136.9354  161.7878 H   0  0  0  0  0  0  0  0  0  0  0  0
  146.4729  135.8942  161.0975 H   0  0  0  0  0  0  0  0  0  0  0  0
  144.8927  136.0383  160.3066 H   0  0  0  0  0  0  0  0  0  0  0  0
  146.1407  136.4936  158.4288 H   0  0  0  0  0  0  0  0  0  0  0  0
  146.7331  138.1262  158.1699 H   0  0  0  0  0  0  0  0  0  0  0  0
  148.7036  137.4638  159.8001 H   0  0  0  0  0  0  0  0  0  0  0  0
  148.1648  135.8282  159.6453 H   0  0  0  0  0  0  0  0  0  0  0  0
  148.4993  134.2701  158.9479 H   0  0  0  0  0  0  0  0  0  0  0  0
  149.1647  133.3458  157.6669 H   0  0  0  0  0  0  0  0  0  0  0  0
  150.3704  134.3614  155.9006 H   0  0  0  0  0  0  0  0  0  0  0  0
  150.7550  138.7778  154.3448 H   0  0  0  0  0  0  0  0  0  0  0  0
  149.5509  139.6449  155.2129 H   0  0  0  0  0  0  0  0  0  0  0  0
  150.0526  140.8672  157.0349 H   0  0  0  0  0  0  0  0  0  0  0  0
  152.9009  141.6532  157.3010 H   0  0  0  0  0  0  0  0  0  0  0  0
  151.3241  143.4266  156.5876 H   0  0  0  0  0  0  0  0  0  0  0  0
  150.2956  143.1081  157.9631 H   0  0  0  0  0  0  0  0  0  0  0  0
  153.1683  144.1445  158.0616 H   0  0  0  0  0  0  0  0  0  0  0  0
  151.7243  145.0682  158.4071 H   0  0  0  0  0  0  0  0  0  0  0  0
  152.8195  144.3131  160.5002 H   0  0  0  0  0  0  0  0  0  0  0  0
  151.2131  143.6435  160.3574 H   0  0  0  0  0  0  0  0  0  0  0  0
  153.8166  142.2121  159.6822 H   0  0  0  0  0  0  0  0  0  0  0  0
  151.8621  141.6606  161.9664 H   0  0  0  0  0  0  0  0  0  0  0  0
  153.3618  142.5670  162.1305 H   0  0  0  0  0  0  0  0  0  0  0  0
  153.4187  140.8738  161.7014 H   0  0  0  0  0  0  0  0  0  0  0  0
  150.9746  141.1283  159.5939 H   0  0  0  0  0  0  0  0  0  0  0  0
  153.6127  139.7311  158.9225 H   0  0  0  0  0  0  0  0  0  0  0  0
  152.0159  139.0405  158.6638 H   0  0  0  0  0  0  0  0  0  0  0  0
  152.5616  139.3559  160.2864 H   0  0  0  0  0  0  0  0  0  0  0  0
  1  2  1  0  0  0  0
  1 26  1  0  0  0  0
  1 27  1  0  0  0  0
  1 28  1  0  0  0  0
  2  3  1  0  0  0  0
  3  4  1  0  0  0  0
  3 29  1  0  0  0  0
  3 30  1  0  0  0  0
  4  5  1  0  0  0  0
  4 31  1  0  0  0  0
  4 32  1  0  0  0  0
  5 24  1  0  0  0  0
  5  6  1  0  0  0  0
  6  7  1  0  0  0  0
  6  8  2  0  0  0  0
  7 33  1  0  0  0  0
  7 34  1  0  0  0  0
  8  9  1  0  0  0  0
  8 35  1  0  0  0  0
  9 10  2  0  0  0  0
  9 11  1  0  0  0  0
 11 12  1  0  0  0  0
 11 24  1  0  0  0  0
 12 13  1  0  0  0  0
 12 36  1  0  0  0  0
 12 37  1  0  0  0  0
 13 14  2  0  0  0  0
 13 15  1  0  0  0  0
 15 16  1  0  0  0  0
 15 38  1  0  0  0  0
 16 22  1  0  0  0  0
 16 17  1  0  0  0  0
 16 39  1  0  0  0  0
 17 18  1  0  0  0  0
 17 40  1  0  0  0  0
 17 41  1  0  0  0  0
 18 19  1  0  0  0  0
 18 42  1  0  0  0  0
 18 43  1  0  0  0  0
 19 20  1  0  0  0  0
 19 44  1  0  0  0  0
 19 45  1  0  0  0  0
 20 21  1  0  0  0  0
 20 22  1  0  0  0  0
 20 46  1  0  0  0  0
 21 47  1  0  0  0  0
 21 48  1  0  0  0  0
 21 49  1  0  0  0  0
 22 23  1  0  0  0  0
 22 50  1  0  0  0  0
 23 51  1  0  0  0  0
 23 52  1  0  0  0  0
 23 53  1  0  0  0  0
 24 25  2  0  0  0  0
M  END
> <s_m_source_file>
AV-unprocessed.smi

> <i_m_source_file_index>
415

> <i_lp_mmshare_version>
43012

> <i_f3d_flags>
0

> <s_epik_input>
W0NIM11PW0NIMl1bQ0gyXW4xYyhbTkgyXSlbY0hdYyg9TyluKGMxPU8pW0NIMl1DKD1PKVtOSF1bQ0BASF0yW0NIMl1bQ0gyXVtDSDJdW0NAQEhdKFtDSDNdKVtDQEhdMltDSDNd

> <s_epik_cmdline>
J2VwaWtfcHl0aG9uJywgJy1waCcsICc3LjAnLCAnLXRuJywgJzgnLCAnLW1hJywgJzIwMCcsICctbWV0YWxfYmluZGluZycsICctaW1hZScsICc8aW5maWxlLm1hZT4nLCAnLW9tYWUnLCAnPG91dGZpbGUubWFlPic=

> <r_lp_tautomer_probability>
1

> <r_epik_Ionization_Penalty>
8.6647e-06

> <r_epik_Ionization_Penalty_Charging>
1.81162e-08

> <r_epik_Ionization_Penalty_Neutral>
8.64658e-06

> <r_epik_State_Penalty>
-0

> <r_epik_Charging_Adjusted_Penalty>
1.81162e-08

> <i_epik_Tot_Q>
0

> <i_epik_Tot_abs_Q>
0

> <r_epik_Metal_State_Penalty>
-0

> <b_epik_Metal_Only>
0

> <s_lp_Force_Field>
OPLS_2005

> <r_lp_Energy>
22.0049

> <b_lp_Chiralities_Consistent>
1

> <s_lp_Variant>
AV-unprocessed.smi:415-6

> <Gold.Version>
5.8.1

> <Gold.Id.Protein>
6NUR|6NUR_protein|mol2

> <Gold.PLP.Fitness>
45.2401

> <Gold.PLP.PLP>
-38.0007

> <Gold.PLP.part.hbond>
-3.0000

> <Gold.PLP.part.metal>
0.0000

> <Gold.PLP.part.buried>
-7.2219

> <Gold.PLP.part.nonpolar>
-29.7690

> <Gold.PLP.part.repulsive>
1.0679

> <Gold.PLP.ligand.clash>
0.0000

> <Gold.PLP.ligand.torsion>
0.9132

> <Gold.PLP.Chemscore.Hbond>
2.9760

> <Gold.PLP.Chemscore.CHOScore>
0.0000

> <Gold.PLP.Chemscore.Metal>
0.0000

> <Gold.Chemscore.Hbonds>
donor molecule, donor type, donor heavy atom, donor atom, acceptor molecule, acceptor atom, score
      P1  H  6934  6947       L1     2  1.00
      P1  H  7997  8009       L1    14  1.00
      P1  H 10752 10765       L1    10  1.00

> <Gold.PLP.Chemscore.Internal.Correction>
0.1377

> <Gold.Rescore>
     Score         DG    S(hbond)    S(metal)    S(lipo)     H(rot)  DE(clash)    DE(int)     intcor
     16.90     -20.11       2.78        0.00      95.25       2.26       0.77       2.43       ----

> <Gold.Chemscore.Fitness>
16.9041

> <Gold.Chemscore.DG>
-20.1051

> <Gold.Chemscore.ZeroCoef>
-5.4800

> <Gold.Chemscore.Hbond>
2.7779

> <Gold.Chemscore.Metal>
0.0000

> <Gold.Chemscore.Lipo>
95.2498

> <Gold.Chemscore.Internal_Hbond>
0.0000

> <Gold.Chemscore.DEClash>
0.7750

> <Gold.Chemscore.DEInternal>
2.4261

> <Gold.Chemscore.Rot>
2.2645

> <Gold.Chemscore.Internal.Correction>
   9.000000E+99

> <Gold.Chemscore.Hbonds>
donor molecule, donor type, donor heavy atom, donor atom, acceptor molecule, acceptor atom, score
      P1  H  6934  6947       L1     2  0.72
      P1  H  7997  8009       L1    14  1.00
      P1  H 10752 10765       L1    10  0.94

> <Gold.Chemscore.Hbond.Weighted>
-9.2780

> <Gold.Chemscore.Metal.Weighted>
-0.0000

> <Gold.Chemscore.Lipo.Weighted>
-11.1442

> <Gold.Chemscore.Internal_Hbond.Weighted>
0.0000

> <Gold.Chemscore.DEClash.Weighted>
0.7750

> <Gold.Chemscore.DEInternal.Weighted>
2.4261

> <Gold.Chemscore.Rot.Weighted>
5.7972

> <Gold.Chemscore.Internal.Correction.Weighted>
   9.000000E+99

> <Gold.Protein.RotatedTorsions>
[ 6907 6896 6895 6894 ] final  -53.18 input  -60.11 | X-H torsion
[ 7974 7965 7964 7962 ] final   19.66 input  175.53 | X-H torsion
[ 8008 7997 7996 7995 ] final -147.30 input   59.86 | X-H torsion
[ 10167 10162 10161 10158 ] final  -32.22 input  -65.29 | X-H torsion
[ 10718 10713 10712 10709 ] final   62.78 input   66.30 | X-H torsion
[ 10763 10752 10751 10750 ] final  157.38 input  -60.55 | X-H torsion
[ 11005 11000 10999 10996 ] final -155.39 input  -57.11 | X-H torsion

> <Gold.Protein.ActiveResidues>
 VAL166  LYS551  ARG553  GLY616  TRP617  ASP618  TYR619  PRO620  LYS621  CYS622 
 ASP623  PHE694  ASN695  SER759  ASP760  ASP761  ALA762  ILE779  LEU786  VAL792 
 PHE793  MET794  SER795  GLU796  ALA797  LYS798  CYS799  TRP800  GLU811  SER814 

> <Gold.Protein.RotatedAtoms>
  150.8450  134.7755  159.6962 H   0  0  0  0  0  0  0  0  0  0  0  0  # atno 6907 bound_to 6896
  152.4529  134.5352  159.9832 H   0  0  0  0  0  0  0  0  0  0  0  0  # atno 6908 bound_to 6896
  151.5484  133.3383  159.2984 H   0  0  0  0  0  0  0  0  0  0  0  0  # atno 6909 bound_to 6896
  146.2141  139.8281  142.8666 H   0  0  0  0  0  0  0  0  0  0  0  0  # atno 7974 bound_to 7965
  155.5733  140.0636  157.2801 H   0  0  0  0  0  0  0  0  0  0  0  0  # atno 8008 bound_to 7997
  154.4354  140.1865  156.0947 H   0  0  0  0  0  0  0  0  0  0  0  0  # atno 8009 bound_to 7997
  156.0360  140.3301  155.7195 H   0  0  0  0  0  0  0  0  0  0  0  0  # atno 8010 bound_to 7997
  140.7224  143.3711  151.1777 H   0  0  0  0  0  0  0  0  0  0  0  0  # atno 10167 bound_to 10162
  157.5925  130.9069  149.9631 H   0  0  0  0  0  0  0  0  0  0  0  0  # atno 10718 bound_to 10713
  154.1993  135.2791  155.2996 H   0  0  0  0  0  0  0  0  0  0  0  0  # atno 10763 bound_to 10752
  154.5867  135.5572  153.7241 H   0  0  0  0  0  0  0  0  0  0  0  0  # atno 10764 bound_to 10752
  153.0092  135.6358  154.2132 H   0  0  0  0  0  0  0  0  0  0  0  0  # atno 10765 bound_to 10752
  140.6870  134.4082  157.5222 H   0  0  0  0  0  0  0  0  0  0  0  0  # atno 11005 bound_to 11000
  145.3026  141.0198  143.3600 LP  0  0  0  0  0  0  0  0  0  0  0  0  # atno 17320 bound_to 7965
  144.8995  139.4668  143.6639 LP  0  0  0  0  0  0  0  0  0  0  0  0  # atno 17321 bound_to 7965
  139.7282  143.9114  152.3010 LP  0  0  0  0  0  0  0  0  0  0  0  0  # atno 17342 bound_to 10162
  139.8894  144.6974  150.8787 LP  0  0  0  0  0  0  0  0  0  0  0  0  # atno 17343 bound_to 10162
  156.0982  130.3658  150.0267 LP  0  0  0  0  0  0  0  0  0  0  0  0  # atno 17370 bound_to 10713
  156.8387  130.9418  151.3633 LP  0  0  0  0  0  0  0  0  0  0  0  0  # atno 17371 bound_to 10713
  139.8934  134.8730  156.2223 LP  0  0  0  0  0  0  0  0  0  0  0  0  # atno 17394 bound_to 11000
  141.0272  133.7009  156.1367 LP  0  0  0  0  0  0  0  0  0  0  0  0  # atno 17395 bound_to 11000

$$$$
