AV-unprocessed.smi:500|AV-procd|sdf|2736|dock8
  -GOLD-   2262023193D 1   1.00000     0.00000
 Structure written by MMmdl.
 46 48  0  0  0  0  0  0  0  0  2 V2000
  150.5729  135.8118  154.9790 C   0  0  0  0  0  0  0  0  0  0  0  0
  151.2095  137.2023  155.0317 C   0  0  0  0  0  0  0  0  0  0  0  0
  151.0789  137.7115  156.3472 O   0  0  0  0  0  0  0  0  0  0  0  0
  151.8480  138.8826  156.5658 C   0  0  0  0  0  0  0  0  0  0  0  0
  151.3344  139.6105  157.8156 C   0  0  0  0  0  0  0  0  0  0  0  0
  151.0481  141.0299  157.5556 N   0  0  0  0  0  0  0  0  0  0  0  0
  150.1518  141.6074  156.7027 C   0  0  0  0  0  0  0  0  0  0  0  0
  149.1816  140.9012  155.8027 C   0  0  2  0  0  0  0  0  0  0  0  0
  149.8879  140.2586  154.5989 C   0  0  0  0  0  0  0  0  0  0  0  0
  148.1495  141.8197  155.3310 N   0  0  0  0  0  0  0  0  0  0  0  0
  146.8253  141.6687  155.4941 C   0  0  0  0  0  0  0  0  0  0  0  0
  146.3128  140.7015  156.0563 O   0  0  0  0  0  0  0  0  0  0  0  0
  145.9851  142.7466  154.9394 C   0  0  0  0  0  0  0  0  0  0  0  0
  146.0998  143.4877  153.7922 C   0  0  0  0  0  0  0  0  0  0  0  0
  145.0018  144.3919  153.7800 C   0  0  0  0  0  0  0  0  0  0  0  0
  144.2969  144.1418  154.9220 C   0  0  0  0  0  0  0  0  0  0  0  0
  144.8834  143.1454  155.6393 O   0  0  0  0  0  0  0  0  0  0  0  0
  150.2710  142.9583  156.8537 N   0  3  0  0  0  0  0  0  0  0  0  0
  151.2702  143.2471  157.7827 C   0  0  0  0  0  0  0  0  0  0  0  0
  151.7576  144.4652  158.2467 C   0  0  0  0  0  0  0  0  0  0  0  0
  152.7959  144.4096  159.1994 C   0  0  0  0  0  0  0  0  0  0  0  0
  153.3082  143.1777  159.6552 C   0  0  0  0  0  0  0  0  0  0  0  0
  152.8031  141.9497  159.1796 C   0  0  0  0  0  0  0  0  0  0  0  0
  151.7763  142.0128  158.2372 C   0  0  0  0  0  0  0  0  0  0  0  0
  150.6585  135.3817  153.9808 H   0  0  0  0  0  0  0  0  0  0  0  0
  149.5140  135.8564  155.2346 H   0  0  0  0  0  0  0  0  0  0  0  0
  151.0588  135.1323  155.6796 H   0  0  0  0  0  0  0  0  0  0  0  0
  152.2630  137.1404  154.7550 H   0  0  0  0  0  0  0  0  0  0  0  0
  150.7171  137.8658  154.3191 H   0  0  0  0  0  0  0  0  0  0  0  0
  152.8994  138.6205  156.6944 H   0  0  0  0  0  0  0  0  0  0  0  0
  151.7799  139.5422  155.6996 H   0  0  0  0  0  0  0  0  0  0  0  0
  150.4166  139.1433  158.1693 H   0  0  0  0  0  0  0  0  0  0  0  0
  152.0475  139.5301  158.6360 H   0  0  0  0  0  0  0  0  0  0  0  0
  148.7288  140.0887  156.3725 H   0  0  0  0  0  0  0  0  0  0  0  0
  150.6533  139.5537  154.9253 H   0  0  0  0  0  0  0  0  0  0  0  0
  150.3683  141.0046  153.9647 H   0  0  0  0  0  0  0  0  0  0  0  0
  149.1787  139.7080  153.9799 H   0  0  0  0  0  0  0  0  0  0  0  0
  148.4672  142.6470  154.8471 H   0  0  0  0  0  0  0  0  0  0  0  0
  146.8783  143.3933  153.0495 H   0  0  0  0  0  0  0  0  0  0  0  0
  144.7589  145.1319  153.0319 H   0  0  0  0  0  0  0  0  0  0  0  0
  143.4010  144.5587  155.3581 H   0  0  0  0  0  0  0  0  0  0  0  0
  151.3679  145.4100  157.8974 H   0  0  0  0  0  0  0  0  0  0  0  0
  153.2090  145.3296  159.5871 H   0  0  0  0  0  0  0  0  0  0  0  0
  154.1060  143.1737  160.3837 H   0  0  0  0  0  0  0  0  0  0  0  0
  153.2082  141.0127  159.5316 H   0  0  0  0  0  0  0  0  0  0  0  0
  149.7131  143.6327  156.3459 H   0  0  0  0  0  0  0  0  0  0  0  0
  1  2  1  0  0  0  0
  1 25  1  0  0  0  0
  1 26  1  0  0  0  0
  1 27  1  0  0  0  0
  2  3  1  0  0  0  0
  2 28  1  0  0  0  0
  2 29  1  0  0  0  0
  3  4  1  0  0  0  0
  4  5  1  0  0  0  0
  4 30  1  0  0  0  0
  4 31  1  0  0  0  0
  5  6  1  0  0  0  0
  5 32  1  0  0  0  0
  5 33  1  0  0  0  0
  6 24  1  0  0  0  0
  6  7  1  0  0  0  0
  7  8  1  0  0  0  0
  7 18  2  0  0  0  0
  8  9  1  0  0  0  0
  8 10  1  0  0  0  0
  8 34  1  0  0  0  0
  9 35  1  0  0  0  0
  9 36  1  0  0  0  0
  9 37  1  0  0  0  0
 10 11  1  0  0  0  0
 10 38  1  0  0  0  0
 11 12  2  0  0  0  0
 11 13  1  0  0  0  0
 13 17  1  0  0  0  0
 13 14  2  0  0  0  0
 14 15  1  0  0  0  0
 14 39  1  0  0  0  0
 15 16  2  0  0  0  0
 15 40  1  0  0  0  0
 16 17  1  0  0  0  0
 16 41  1  0  0  0  0
 18 19  1  0  0  0  0
 18 46  1  0  0  0  0
 19 24  2  0  0  0  0
 19 20  1  0  0  0  0
 20 21  2  0  0  0  0
 20 42  1  0  0  0  0
 21 22  1  0  0  0  0
 21 43  1  0  0  0  0
 22 23  2  0  0  0  0
 22 44  1  0  0  0  0
 23 24  1  0  0  0  0
 23 45  1  0  0  0  0
M  CHG  1  18   1
M  END
> <s_m_source_file>
AV-unprocessed.smi

> <i_m_source_file_index>
500

> <i_lp_mmshare_version>
43012

> <i_f3d_flags>
0

> <s_epik_input>
W0NIM11bQ0gyXU9bQ0gyXVtDSDJdbihjKGMxMilbY0hdW2NIXVtjSF1bY0hdMiljKG4xKVtDQEhdKFtDSDNdKVtOSF1DKD1PKWMzW2NIXVtjSF1bY0hdbzM=

> <s_epik_cmdline>
J2VwaWtfcHl0aG9uJywgJy1waCcsICc3LjAnLCAnLXRuJywgJzgnLCAnLW1hJywgJzIwMCcsICctbWV0YWxfYmluZGluZycsICctaW1hZScsICc8aW5maWxlLm1hZT4nLCAnLW9tYWUnLCAnPG91dGZpbGUubWFlPic=

> <r_epik_Ionization_Penalty>
1.05286

> <r_epik_Ionization_Penalty_Charging>
1.05283

> <r_epik_Ionization_Penalty_Neutral>
2.09263e-05

> <r_epik_State_Penalty>
1.10586

> <r_epik_Charging_Adjusted_Penalty>
2.15869

> <i_epik_Tot_Q>
1

> <i_epik_Tot_abs_Q>
1

> <r_epik_Metal_State_Penalty>
1.22833

> <b_epik_Metal_Only>
0

> <s_lp_Force_Field>
OPLS_2005

> <r_lp_Energy>
11.0053

> <b_lp_Chiralities_Consistent>
1

> <s_lp_Variant>
AV-unprocessed.smi:500-3

> <Gold.Version>
5.8.1

> <Gold.Id.Protein>
6NUR|6NUR_protein|mol2

> <Gold.PLP.Fitness>
51.8716

> <Gold.PLP.PLP>
-47.7752

> <Gold.PLP.part.hbond>
-2.0000

> <Gold.PLP.part.metal>
0.0000

> <Gold.PLP.part.buried>
-6.0698

> <Gold.PLP.part.nonpolar>
-40.2134

> <Gold.PLP.part.repulsive>
0.3119

> <Gold.PLP.ligand.clash>
0.0000

> <Gold.PLP.ligand.torsion>
1.3924

> <Gold.PLP.Chemscore.Hbond>
2.2690

> <Gold.PLP.Chemscore.CHOScore>
0.0000

> <Gold.PLP.Chemscore.Metal>
0.0000

> <Gold.Chemscore.Hbonds>
donor molecule, donor type, donor heavy atom, donor atom, acceptor molecule, acceptor atom, score
      L1  H    10    38       P1  8028  0.29
      L1  H    18    46       P1  8028  1.98

> <Gold.PLP.Chemscore.Internal.Correction>
0.0742

> <Gold.Rescore>
     Score         DG    S(hbond)    S(metal)    S(lipo)     H(rot)  DE(clash)    DE(int)     intcor
     18.14     -19.76       1.50        0.00     122.43       1.97       0.17       1.46       ----

> <Gold.Chemscore.Fitness>
18.1371

> <Gold.Chemscore.DG>
-19.7613

> <Gold.Chemscore.ZeroCoef>
-5.4800

> <Gold.Chemscore.Hbond>
1.5004

> <Gold.Chemscore.Metal>
0.0000

> <Gold.Chemscore.Lipo>
122.4349

> <Gold.Chemscore.Internal_Hbond>
0.0000

> <Gold.Chemscore.DEClash>
0.1680

> <Gold.Chemscore.DEInternal>
1.4562

> <Gold.Chemscore.Rot>
1.9746

> <Gold.Chemscore.Internal.Correction>
   9.000000E+99

> <Gold.Chemscore.Hbonds>
donor molecule, donor type, donor heavy atom, donor atom, acceptor molecule, acceptor atom, score
      L1  H    10    38       P1  8028  0.27
      L1  H    18    46       P1  8028  0.92

> <Gold.Chemscore.Hbond.Weighted>
-5.0114

> <Gold.Chemscore.Metal.Weighted>
-0.0000

> <Gold.Chemscore.Lipo.Weighted>
-14.3249

> <Gold.Chemscore.Internal_Hbond.Weighted>
0.0000

> <Gold.Chemscore.DEClash.Weighted>
0.1680

> <Gold.Chemscore.DEInternal.Weighted>
1.4562

> <Gold.Chemscore.Rot.Weighted>
5.0550

> <Gold.Chemscore.Internal.Correction.Weighted>
   9.000000E+99

> <Gold.Protein.RotatedTorsions>
[ 6907 6896 6895 6894 ] final -114.82 input  -60.11 | X-H torsion
[ 7974 7965 7964 7962 ] final  -39.88 input  175.53 | X-H torsion
[ 8008 7997 7996 7995 ] final  168.89 input   59.86 | X-H torsion
[ 10167 10162 10161 10158 ] final  -51.03 input  -65.29 | X-H torsion
[ 10718 10713 10712 10709 ] final  163.03 input   66.30 | X-H torsion
[ 10763 10752 10751 10750 ] final -152.75 input  -60.55 | X-H torsion
[ 11005 11000 10999 10996 ] final -130.19 input  -57.11 | X-H torsion

> <Gold.Protein.ActiveResidues>
 VAL166  LYS551  ARG553  GLY616  TRP617  ASP618  TYR619  PRO620  LYS621  CYS622 
 ASP623  PHE694  ASN695  SER759  ASP760  ASP761  ALA762  ILE779  LEU786  VAL792 
 PHE793  MET794  SER795  GLU796  ALA797  LYS798  CYS799  TRP800  GLU811  SER814 

> <Gold.Protein.RotatedAtoms>
  150.7931  133.8746  159.3268 H   0  0  0  0  0  0  0  0  0  0  0  0  # atno 6907 bound_to 6896
  151.6578  135.0991  160.0183 H   0  0  0  0  0  0  0  0  0  0  0  0  # atno 6908 bound_to 6896
  152.4009  133.6777  159.6350 H   0  0  0  0  0  0  0  0  0  0  0  0  # atno 6909 bound_to 6896
  146.0356  140.6676  142.9112 H   0  0  0  0  0  0  0  0  0  0  0  0  # atno 7974 bound_to 7965
  156.1507  140.1578  156.8775 H   0  0  0  0  0  0  0  0  0  0  0  0  # atno 8008 bound_to 7997
  154.5068  140.0811  156.7948 H   0  0  0  0  0  0  0  0  0  0  0  0  # atno 8009 bound_to 7997
  155.3902  140.3409  155.4253 H   0  0  0  0  0  0  0  0  0  0  0  0  # atno 8010 bound_to 7997
  140.6608  143.2635  151.4445 H   0  0  0  0  0  0  0  0  0  0  0  0  # atno 10167 bound_to 10162
  157.1143  131.0476  151.2443 H   0  0  0  0  0  0  0  0  0  0  0  0  # atno 10718 bound_to 10713
  154.7973  135.3229  154.7635 H   0  0  0  0  0  0  0  0  0  0  0  0  # atno 10763 bound_to 10752
  153.8311  135.6879  153.4819 H   0  0  0  0  0  0  0  0  0  0  0  0  # atno 10764 bound_to 10752
  153.1671  135.4637  154.9795 H   0  0  0  0  0  0  0  0  0  0  0  0  # atno 10765 bound_to 10752
  140.9367  134.1248  157.4187 H   0  0  0  0  0  0  0  0  0  0  0  0  # atno 11005 bound_to 11000
  144.7050  140.3814  143.7125 LP  0  0  0  0  0  0  0  0  0  0  0  0  # atno 17320 bound_to 7965
  145.6970  139.1652  143.2614 LP  0  0  0  0  0  0  0  0  0  0  0  0  # atno 17321 bound_to 7965
  139.5842  144.1642  152.2007 LP  0  0  0  0  0  0  0  0  0  0  0  0  # atno 17342 bound_to 10162
  140.0976  144.5567  150.7011 LP  0  0  0  0  0  0  0  0  0  0  0  0  # atno 17343 bound_to 10162
  157.4532  130.7610  149.7170 LP  0  0  0  0  0  0  0  0  0  0  0  0  # atno 17370 bound_to 10713
  155.9843  130.3993  150.3318 LP  0  0  0  0  0  0  0  0  0  0  0  0  # atno 17371 bound_to 10713
  139.8809  135.0023  156.6119 LP  0  0  0  0  0  0  0  0  0  0  0  0  # atno 17394 bound_to 11000
  140.7790  133.8676  155.8552 LP  0  0  0  0  0  0  0  0  0  0  0  0  # atno 17395 bound_to 11000

$$$$
