AV-unprocessed.smi:86|AV-procd|sdf|819|dock5
  -GOLD-   2262017223D 1   1.00000     0.00000
 Structure written by MMmdl.
 51 55  0  0  0  0  0  0  0  0  1 V2000
  154.8755  130.8791  158.1157 O   0  0  0  0  0  0  0  0  0  0  0  0
  153.7270  131.0638  158.9188 C   0  0  0  0  0  0  0  0  0  0  0  0
  152.4373  131.0025  158.0859 C   0  0  0  0  0  0  0  0  0  0  0  0
  152.5632  132.0405  156.9450 C   0  0  0  0  0  0  0  0  0  0  0  0
  151.3716  132.2115  156.1267 N   0  0  0  0  0  0  0  0  0  0  0  0
  150.6242  133.3578  155.9850 C   0  0  0  0  0  0  0  0  0  0  0  0
  149.6022  133.2584  155.1805 N   0  0  0  0  0  0  0  0  0  0  0  0
  149.6537  131.9494  154.7127 C   0  0  0  0  0  0  0  0  0  0  0  0
  148.8640  131.1726  153.8126 C   0  0  0  0  0  0  0  0  0  0  0  0
  147.7593  131.6243  153.1655 N   0  0  0  0  0  0  0  0  0  0  0  0
  147.6497  132.9478  152.5612 C   0  0  0  0  0  0  0  0  0  0  0  0
  146.2280  132.9668  152.0021 C   0  0  1  0  0  0  0  0  0  0  0  0
  145.8936  133.9329  150.8596 C   0  0  0  0  0  0  0  0  0  0  0  0
  144.4350  133.6948  150.4113 C   0  0  0  0  0  0  0  0  0  0  0  0
  144.1594  132.2111  150.0618 C   0  0  2  0  0  0  0  0  0  0  0  0
  142.7855  132.0386  149.7861 O   0  0  0  0  0  0  0  0  0  0  0  0
  144.5821  131.2469  151.1939 C   0  0  0  0  0  0  0  0  0  0  0  0
  146.0464  131.5219  151.5564 C   0  0  2  0  0  0  0  0  0  0  0  0
  146.6834  130.7449  152.7092 C   0  0  0  0  0  0  0  0  0  0  0  0
  149.2490  129.8865  153.6001 N   0  0  0  0  0  0  0  0  0  0  0  0
  150.3262  129.3889  154.2128 C   0  0  0  0  0  0  0  0  0  0  0  0
  151.1510  129.9922  155.0691 N   0  0  0  0  0  0  0  0  0  0  0  0
  150.7711  131.2823  155.2943 C   0  0  0  0  0  0  0  0  0  0  0  0
  151.9995  129.5732  157.7179 C   0  0  0  0  0  0  0  0  0  0  0  0
  151.0145  129.5442  158.7716 O   0  0  0  0  0  0  0  0  0  0  0  0
  151.1365  130.9755  158.9066 C   0  0  0  0  0  0  0  0  0  0  0  0
  154.6606  131.1155  157.2261 H   0  0  0  0  0  0  0  0  0  0  0  0
  153.7225  130.3095  159.7061 H   0  0  0  0  0  0  0  0  0  0  0  0
  153.8202  132.0293  159.4177 H   0  0  0  0  0  0  0  0  0  0  0  0
  152.8195  133.0206  157.3489 H   0  0  0  0  0  0  0  0  0  0  0  0
  153.3844  131.7740  156.2786 H   0  0  0  0  0  0  0  0  0  0  0  0
  150.8599  134.2760  156.5034 H   0  0  0  0  0  0  0  0  0  0  0  0
  147.8002  133.7436  153.2912 H   0  0  0  0  0  0  0  0  0  0  0  0
  148.3890  133.0516  151.7660 H   0  0  0  0  0  0  0  0  0  0  0  0
  145.5483  133.1664  152.8333 H   0  0  0  0  0  0  0  0  0  0  0  0
  146.0258  134.9656  151.1838 H   0  0  0  0  0  0  0  0  0  0  0  0
  146.5729  133.7747  150.0211 H   0  0  0  0  0  0  0  0  0  0  0  0
  143.7646  134.0089  151.2127 H   0  0  0  0  0  0  0  0  0  0  0  0
  144.2053  134.3298  149.5547 H   0  0  0  0  0  0  0  0  0  0  0  0
  144.7118  131.9559  149.1565 H   0  0  0  0  0  0  0  0  0  0  0  0
  142.3619  132.8820  149.8328 H   0  0  0  0  0  0  0  0  0  0  0  0
  143.9484  131.3898  152.0705 H   0  0  0  0  0  0  0  0  0  0  0  0
  144.4589  130.2105  150.8778 H   0  0  0  0  0  0  0  0  0  0  0  0
  146.6583  131.3509  150.6682 H   0  0  0  0  0  0  0  0  0  0  0  0
  147.0467  129.7722  152.3752 H   0  0  0  0  0  0  0  0  0  0  0  0
  145.9755  130.5914  153.5245 H   0  0  0  0  0  0  0  0  0  0  0  0
  150.5597  128.3595  153.9843 H   0  0  0  0  0  0  0  0  0  0  0  0
  151.5332  129.4593  156.7404 H   0  0  0  0  0  0  0  0  0  0  0  0
  152.7798  128.8238  157.8546 H   0  0  0  0  0  0  0  0  0  0  0  0
  151.2601  131.2873  159.9442 H   0  0  0  0  0  0  0  0  0  0  0  0
  150.2925  131.4927  158.4518 H   0  0  0  0  0  0  0  0  0  0  0  0
  1  2  1  0  0  0  0
  1 27  1  0  0  0  0
  2  3  1  0  0  0  0
  2 28  1  0  0  0  0
  2 29  1  0  0  0  0
  3 26  1  0  0  0  0
  3  4  1  0  0  0  0
  3 24  1  0  0  0  0
  4  5  1  0  0  0  0
  4 30  1  0  0  0  0
  4 31  1  0  0  0  0
  5 23  1  0  0  0  0
  5  6  1  0  0  0  0
  6  7  2  0  0  0  0
  6 32  1  0  0  0  0
  7  8  1  0  0  0  0
  8 23  2  0  0  0  0
  8  9  1  0  0  0  0
  9 10  1  0  0  0  0
  9 20  2  0  0  0  0
 10 19  1  0  0  0  0
 10 11  1  0  0  0  0
 11 12  1  0  0  0  0
 11 33  1  0  0  0  0
 11 34  1  0  0  0  0
 12 18  1  0  0  0  0
 12 13  1  0  0  0  0
 12 35  1  0  0  0  0
 13 14  1  0  0  0  0
 13 36  1  0  0  0  0
 13 37  1  0  0  0  0
 14 15  1  0  0  0  0
 14 38  1  0  0  0  0
 14 39  1  0  0  0  0
 15 16  1  0  0  0  0
 15 17  1  0  0  0  0
 15 40  1  0  0  0  0
 16 41  1  0  0  0  0
 17 18  1  0  0  0  0
 17 42  1  0  0  0  0
 17 43  1  0  0  0  0
 18 19  1  0  0  0  0
 18 44  1  0  0  0  0
 19 45  1  0  0  0  0
 19 46  1  0  0  0  0
 20 21  1  0  0  0  0
 21 22  2  0  0  0  0
 21 47  1  0  0  0  0
 22 23  1  0  0  0  0
 24 25  1  0  0  0  0
 24 48  1  0  0  0  0
 24 49  1  0  0  0  0
 25 26  1  0  0  0  0
 26 50  1  0  0  0  0
 26 51  1  0  0  0  0
M  END
> <s_m_source_file>
AV-unprocessed.smi

> <i_m_source_file_index>
86

> <i_lp_mmshare_version>
43012

> <i_f3d_flags>
0

> <s_epik_input>
W0NIMl0xT1tDSDJdQzEoW0NIMl1bT0hdKVtDSDJdbihbY0hdbjIpYyhjMjMpbltjSF1uYzNOKFtDSDJdNClbQ0gyXVtDQEBIXShbQ0BIXTQ1KVtDSDJdW0NASF0oW09IXSlbQ0gyXVtDSDJdNQ==

> <s_epik_cmdline>
J2VwaWtfcHl0aG9uJywgJy1waCcsICc3LjAnLCAnLXRuJywgJzgnLCAnLW1hJywgJzIwMCcsICctbWV0YWxfYmluZGluZycsICctaW1hZScsICc8aW5maWxlLm1hZT4nLCAnLW9tYWUnLCAnPG91dGZpbGUubWFlPic=

> <r_lp_tautomer_probability>
1

> <r_epik_Ionization_Penalty>
0.00425795

> <r_epik_Ionization_Penalty_Charging>
0

> <r_epik_Ionization_Penalty_Neutral>
0.00425795

> <r_epik_State_Penalty>
0.00299946

> <r_epik_Charging_Adjusted_Penalty>
0.00299946

> <i_epik_Tot_Q>
0

> <i_epik_Tot_abs_Q>
0

> <r_epik_Metal_State_Penalty>
-0

> <b_epik_Metal_Only>
0

> <s_lp_Force_Field>
OPLS_2005

> <r_lp_Energy>
53.3624

> <b_lp_Chiralities_Consistent>
1

> <s_lp_Variant>
AV-unprocessed.smi:86-8

> <Gold.Version>
5.8.1

> <Gold.Id.Protein>
6NUR|6NUR_protein|mol2

> <Gold.PLP.Fitness>
45.8753

> <Gold.PLP.PLP>
-39.6948

> <Gold.PLP.part.hbond>
-2.5518

> <Gold.PLP.part.metal>
0.0000

> <Gold.PLP.part.buried>
-3.6647

> <Gold.PLP.part.nonpolar>
-32.0728

> <Gold.PLP.part.repulsive>
0.2055

> <Gold.PLP.ligand.clash>
0.0000

> <Gold.PLP.ligand.torsion>
0.6766

> <Gold.PLP.Chemscore.Hbond>
1.4463

> <Gold.PLP.Chemscore.CHOScore>
0.9401

> <Gold.PLP.Chemscore.Metal>
0.0000

> <Gold.Chemscore.Hbonds>
donor molecule, donor type, donor heavy atom, donor atom, acceptor molecule, acceptor atom, score
      L1  H    16    41       P1 10186  0.91
      P1  H 10785 10796       L1    16  0.31
      L1  C    21    47       P1 10737  0.31

> <Gold.PLP.Chemscore.Internal.Correction>
0.3747

> <Gold.Rescore>
     Score         DG    S(hbond)    S(metal)    S(lipo)     H(rot)  DE(clash)    DE(int)     intcor
     11.08     -11.86       1.00        0.00      86.36       2.76       0.03       0.74       ----

> <Gold.Chemscore.Fitness>
11.0825

> <Gold.Chemscore.DG>
-11.8557

> <Gold.Chemscore.ZeroCoef>
-5.4800

> <Gold.Chemscore.Hbond>
1.0015

> <Gold.Chemscore.Metal>
0.0000

> <Gold.Chemscore.Lipo>
86.3585

> <Gold.Chemscore.Internal_Hbond>
0.0000

> <Gold.Chemscore.DEClash>
0.0309

> <Gold.Chemscore.DEInternal>
0.7423

> <Gold.Chemscore.Rot>
2.7630

> <Gold.Chemscore.Internal.Correction>
   9.000000E+99

> <Gold.Chemscore.Hbonds>
donor molecule, donor type, donor heavy atom, donor atom, acceptor molecule, acceptor atom, score
      L1  H    16    41       P1 10186  0.88
      P1  H 10785 10796       L1    16  0.02

> <Gold.Chemscore.Hbond.Weighted>
-3.3451

> <Gold.Chemscore.Metal.Weighted>
-0.0000

> <Gold.Chemscore.Lipo.Weighted>
-10.1039

> <Gold.Chemscore.Internal_Hbond.Weighted>
0.0000

> <Gold.Chemscore.DEClash.Weighted>
0.0309

> <Gold.Chemscore.DEInternal.Weighted>
0.7423

> <Gold.Chemscore.Rot.Weighted>
7.0734

> <Gold.Chemscore.Internal.Correction.Weighted>
   9.000000E+99

> <Gold.Protein.RotatedTorsions>
[ 6907 6896 6895 6894 ] final  -77.70 input  -60.11 | X-H torsion
[ 7974 7965 7964 7962 ] final  -81.16 input  175.53 | X-H torsion
[ 8008 7997 7996 7995 ] final  -15.62 input   59.86 | X-H torsion
[ 10167 10162 10161 10158 ] final -104.96 input  -65.29 | X-H torsion
[ 10718 10713 10712 10709 ] final  -51.48 input   66.30 | X-H torsion
[ 10763 10752 10751 10750 ] final   49.71 input  -60.55 | X-H torsion
[ 11005 11000 10999 10996 ] final   22.64 input  -57.11 | X-H torsion

> <Gold.Protein.ActiveResidues>
 VAL166  LYS551  ARG553  GLY616  TRP617  ASP618  TYR619  PRO620  LYS621  CYS622 
 ASP623  PHE694  ASN695  SER759  ASP760  ASP761  ALA762  ILE779  LEU786  VAL792 
 PHE793  MET794  SER795  GLU796  ALA797  LYS798  CYS799  TRP800  GLU811  SER814 

> <Gold.Protein.RotatedAtoms>
  150.6992  134.4382  159.5279 H   0  0  0  0  0  0  0  0  0  0  0  0  # atno 6907 bound_to 6896
  152.2097  134.8510  160.0508 H   0  0  0  0  0  0  0  0  0  0  0  0  # atno 6908 bound_to 6896
  151.9400  133.3600  159.3998 H   0  0  0  0  0  0  0  0  0  0  0  0  # atno 6909 bound_to 6896
  145.5504  140.9497  143.1502 H   0  0  0  0  0  0  0  0  0  0  0  0  # atno 7974 bound_to 7965
  154.5116  140.2191  155.9145 H   0  0  0  0  0  0  0  0  0  0  0  0  # atno 8008 bound_to 7997
  156.1559  140.3152  155.8691 H   0  0  0  0  0  0  0  0  0  0  0  0  # atno 8009 bound_to 7997
  155.3848  140.0474  157.3033 H   0  0  0  0  0  0  0  0  0  0  0  0  # atno 8010 bound_to 7997
  140.2037  143.3799  152.1108 H   0  0  0  0  0  0  0  0  0  0  0  0  # atno 10167 bound_to 10162
  156.1707  130.4149  149.9652 H   0  0  0  0  0  0  0  0  0  0  0  0  # atno 10718 bound_to 10713
  152.9786  135.5902  154.4134 H   0  0  0  0  0  0  0  0  0  0  0  0  # atno 10763 bound_to 10752
  154.3767  135.2767  155.2237 H   0  0  0  0  0  0  0  0  0  0  0  0  # atno 10764 bound_to 10752
  154.4169  135.6068  153.6041 H   0  0  0  0  0  0  0  0  0  0  0  0  # atno 10765 bound_to 10752
  140.3783  134.1948  155.7664 H   0  0  0  0  0  0  0  0  0  0  0  0  # atno 11005 bound_to 11000
  144.7532  139.7140  143.7264 LP  0  0  0  0  0  0  0  0  0  0  0  0  # atno 17320 bound_to 7965
  146.1920  139.5166  142.9798 LP  0  0  0  0  0  0  0  0  0  0  0  0  # atno 17321 bound_to 7965
  139.5207  144.7036  151.5420 LP  0  0  0  0  0  0  0  0  0  0  0  0  # atno 17342 bound_to 10162
  140.6372  143.8960  150.6658 LP  0  0  0  0  0  0  0  0  0  0  0  0  # atno 17343 bound_to 10162
  156.7453  130.9095  151.3634 LP  0  0  0  0  0  0  0  0  0  0  0  0  # atno 17370 bound_to 10713
  157.6800  130.9131  150.0244 LP  0  0  0  0  0  0  0  0  0  0  0  0  # atno 17371 bound_to 10713
  141.1932  133.8156  157.0809 LP  0  0  0  0  0  0  0  0  0  0  0  0  # atno 17394 bound_to 11000
  140.0498  134.9811  157.1115 LP  0  0  0  0  0  0  0  0  0  0  0  0  # atno 17395 bound_to 11000

$$$$
