AV-unprocessed.smi:2840|AV-procd|sdf|10932|dock5
  -GOLD-   2272015383D 1   1.00000     0.00000
 Structure written by MMmdl.
 36 37  0  0  0  0  0  0  0  0  1 V2000
  149.5986  136.6059  155.5719 C   0  0  0  0  0  0  0  0  0  0  0  0
  148.6061  137.7476  155.2932 C   0  0  1  0  0  0  0  0  0  0  0  0
  149.1550  138.7314  154.2391 C   0  0  0  0  0  0  0  0  0  0  0  0
  148.1923  139.9071  154.0089 C   0  0  0  0  0  0  0  0  0  0  0  0
  146.7921  139.4143  153.6150 C   0  0  0  0  0  0  0  0  0  0  0  0
  146.2342  138.4298  154.6578 C   0  0  0  0  0  0  0  0  0  0  0  0
  147.1890  137.2458  154.9130 C   0  0  1  0  0  0  0  0  0  0  0  0
  147.2142  136.3697  153.7393 N   0  0  0  0  0  0  0  0  0  0  0  0
  146.2374  135.5350  153.3534 C   0  0  0  0  0  0  0  0  0  0  0  0
  145.1864  135.3796  153.9760 O   0  0  0  0  0  0  0  0  0  0  0  0
  146.5647  134.9045  152.2118 N   0  0  0  0  0  0  0  0  0  0  0  0
  145.7915  133.9722  151.4697 C   0  0  0  0  0  0  0  0  0  0  0  0
  146.5373  133.0925  150.6527 C   0  0  0  0  0  0  0  0  0  0  0  0
  145.8640  132.1338  149.8709 C   0  0  0  0  0  0  0  0  0  0  0  0
  144.4601  132.0782  149.9276 C   0  0  0  0  0  0  0  0  0  0  0  0
  143.7939  132.9882  150.7689 C   0  0  0  0  0  0  0  0  0  0  0  0
  144.4372  133.9085  151.5182 N   0  0  0  0  0  0  0  0  0  0  0  0
  149.8186  136.0327  154.6712 H   0  0  0  0  0  0  0  0  0  0  0  0
  149.2027  135.9167  156.3183 H   0  0  0  0  0  0  0  0  0  0  0  0
  150.5435  136.9946  155.9522 H   0  0  0  0  0  0  0  0  0  0  0  0
  148.5044  138.3033  156.2266 H   0  0  0  0  0  0  0  0  0  0  0  0
  150.1247  139.1150  154.5582 H   0  0  0  0  0  0  0  0  0  0  0  0
  149.3273  138.2103  153.2965 H   0  0  0  0  0  0  0  0  0  0  0  0
  148.1255  140.5071  154.9174 H   0  0  0  0  0  0  0  0  0  0  0  0
  148.5867  140.5638  153.2331 H   0  0  0  0  0  0  0  0  0  0  0  0
  146.1169  140.2639  153.5098 H   0  0  0  0  0  0  0  0  0  0  0  0
  146.8348  138.9341  152.6369 H   0  0  0  0  0  0  0  0  0  0  0  0
  146.0684  138.9631  155.5946 H   0  0  0  0  0  0  0  0  0  0  0  0
  145.2560  138.0653  154.3414 H   0  0  0  0  0  0  0  0  0  0  0  0
  146.7889  136.6913  155.7636 H   0  0  0  0  0  0  0  0  0  0  0  0
  148.0428  136.4185  153.1650 H   0  0  0  0  0  0  0  0  0  0  0  0
  147.4646  135.1329  151.8165 H   0  0  0  0  0  0  0  0  0  0  0  0
  147.6157  133.1494  150.6207 H   0  0  0  0  0  0  0  0  0  0  0  0
  146.4158  131.4541  149.2383 H   0  0  0  0  0  0  0  0  0  0  0  0
  143.9084  131.3574  149.3426 H   0  0  0  0  0  0  0  0  0  0  0  0
  142.7164  132.9780  150.8418 H   0  0  0  0  0  0  0  0  0  0  0  0
  1  2  1  0  0  0  0
  1 18  1  0  0  0  0
  1 19  1  0  0  0  0
  1 20  1  0  0  0  0
  2  7  1  0  0  0  0
  2  3  1  0  0  0  0
  2 21  1  0  0  0  0
  3  4  1  0  0  0  0
  3 22  1  0  0  0  0
  3 23  1  0  0  0  0
  4  5  1  0  0  0  0
  4 24  1  0  0  0  0
  4 25  1  0  0  0  0
  5  6  1  0  0  0  0
  5 26  1  0  0  0  0
  5 27  1  0  0  0  0
  6  7  1  0  0  0  0
  6 28  1  0  0  0  0
  6 29  1  0  0  0  0
  7  8  1  0  0  0  0
  7 30  1  0  0  0  0
  8  9  1  0  0  0  0
  8 31  1  0  0  0  0
  9 10  2  0  0  0  0
  9 11  1  0  0  0  0
 11 12  1  0  0  0  0
 11 32  1  0  0  0  0
 12 17  1  0  0  0  0
 12 13  2  0  0  0  0
 13 14  1  0  0  0  0
 13 33  1  0  0  0  0
 14 15  2  0  0  0  0
 14 34  1  0  0  0  0
 15 16  1  0  0  0  0
 15 35  1  0  0  0  0
 16 17  2  0  0  0  0
 16 36  1  0  0  0  0
M  END
> <s_m_source_file>
AV-unprocessed.smi

> <i_m_source_file_index>
2840

> <i_lp_mmshare_version>
43012

> <i_f3d_flags>
0

> <s_epik_input>
W0NIM11bQ0BASF0xW0NIMl1bQ0gyXVtDSDJdW0NIMl1bQ0BIXTFbTkhdQyg9TylbTkhdYzJbY0hdW2NIXVtjSF1bY0hdbjI=

> <s_epik_cmdline>
J2VwaWtfcHl0aG9uJywgJy1waCcsICc3LjAnLCAnLXRuJywgJzgnLCAnLW1hJywgJzIwMCcsICctbWV0YWxfYmluZGluZycsICctaW1hZScsICc8aW5maWxlLm1hZT4nLCAnLW9tYWUnLCAnPG91dGZpbGUubWFlPic=

> <r_lp_tautomer_probability>
1

> <r_epik_Ionization_Penalty>
5.29956e-05

> <r_epik_Ionization_Penalty_Charging>
0

> <r_epik_Ionization_Penalty_Neutral>
5.29956e-05

> <r_epik_State_Penalty>
-0

> <r_epik_Charging_Adjusted_Penalty>
0

> <i_epik_Tot_Q>
0

> <i_epik_Tot_abs_Q>
0

> <r_epik_Metal_State_Penalty>
-0

> <b_epik_Metal_Only>
0

> <s_lp_Force_Field>
OPLS_2005

> <r_lp_Energy>
11.7155

> <b_lp_Chiralities_Consistent>
1

> <s_lp_Variant>
AV-unprocessed.smi:2840-2

> <Gold.Version>
5.8.1

> <Gold.Id.Protein>
6NUR|6NUR_protein|mol2

> <Gold.PLP.Fitness>
33.4715

> <Gold.PLP.PLP>
-25.1184

> <Gold.PLP.part.hbond>
-2.0000

> <Gold.PLP.part.metal>
0.0000

> <Gold.PLP.part.buried>
-3.4803

> <Gold.PLP.part.nonpolar>
-20.7546

> <Gold.PLP.part.repulsive>
0.1970

> <Gold.PLP.ligand.clash>
0.0000

> <Gold.PLP.ligand.torsion>
0.3150

> <Gold.PLP.Chemscore.Hbond>
1.9920

> <Gold.PLP.Chemscore.CHOScore>
1.0000

> <Gold.PLP.Chemscore.Metal>
0.0000

> <Gold.Chemscore.Hbonds>
donor molecule, donor type, donor heavy atom, donor atom, acceptor molecule, acceptor atom, score
      L1  H     8    31       P1  7948  1.00
      L1  H    11    32       P1  7948  0.99
      L1  C    16    36       P1 10186  0.86

> <Gold.PLP.Chemscore.Internal.Correction>
0.0071

> <Gold.Rescore>
     Score         DG    S(hbond)    S(metal)    S(lipo)     H(rot)  DE(clash)    DE(int)     intcor
     15.43     -16.87       1.90        0.00      65.02       1.00       0.03       1.42       ----

> <Gold.Chemscore.Fitness>
15.4297

> <Gold.Chemscore.DG>
-16.8747

> <Gold.Chemscore.ZeroCoef>
-5.4800

> <Gold.Chemscore.Hbond>
1.9005

> <Gold.Chemscore.Metal>
0.0000

> <Gold.Chemscore.Lipo>
65.0182

> <Gold.Chemscore.Internal_Hbond>
0.0000

> <Gold.Chemscore.DEClash>
0.0257

> <Gold.Chemscore.DEInternal>
1.4193

> <Gold.Chemscore.Rot>
1.0000

> <Gold.Chemscore.Internal.Correction>
   9.000000E+99

> <Gold.Chemscore.Hbonds>
donor molecule, donor type, donor heavy atom, donor atom, acceptor molecule, acceptor atom, score
      L1  H     8    31       P1  7948  0.98
      L1  H    11    32       P1  7948  0.85

> <Gold.Chemscore.Hbond.Weighted>
-6.3476

> <Gold.Chemscore.Metal.Weighted>
-0.0000

> <Gold.Chemscore.Lipo.Weighted>
-7.6071

> <Gold.Chemscore.Internal_Hbond.Weighted>
0.0000

> <Gold.Chemscore.DEClash.Weighted>
0.0257

> <Gold.Chemscore.DEInternal.Weighted>
1.4193

> <Gold.Chemscore.Rot.Weighted>
2.5600

> <Gold.Chemscore.Internal.Correction.Weighted>
   9.000000E+99

> <Gold.Protein.RotatedTorsions>
[ 6907 6896 6895 6894 ] final   73.84 input  -60.11 | X-H torsion
[ 7974 7965 7964 7962 ] final  -75.94 input  175.53 | X-H torsion
[ 8008 7997 7996 7995 ] final -127.35 input   59.86 | X-H torsion
[ 10167 10162 10161 10158 ] final  163.33 input  -65.29 | X-H torsion
[ 10718 10713 10712 10709 ] final  129.08 input   66.30 | X-H torsion
[ 10763 10752 10751 10750 ] final -144.85 input  -60.55 | X-H torsion
[ 11005 11000 10999 10996 ] final  177.94 input  -57.11 | X-H torsion

> <Gold.Protein.ActiveResidues>
 VAL166  LYS551  ARG553  GLY616  TRP617  ASP618  TYR619  PRO620  LYS621  CYS622 
 ASP623  PHE694  ASN695  SER759  ASP760  ASP761  ALA762  ILE779  LEU786  VAL792 
 PHE793  MET794  SER795  GLU796  ALA797  LYS798  CYS799  TRP800  GLU811  SER814 

> <Gold.Protein.RotatedAtoms>
  152.4944  134.4361  159.9528 H   0  0  0  0  0  0  0  0  0  0  0  0  # atno 6907 bound_to 6896
  151.4343  133.3655  159.2781 H   0  0  0  0  0  0  0  0  0  0  0  0  # atno 6908 bound_to 6896
  150.9133  134.8573  159.7499 H   0  0  0  0  0  0  0  0  0  0  0  0  # atno 6909 bound_to 6896
  145.6195  140.9366  143.1146 H   0  0  0  0  0  0  0  0  0  0  0  0  # atno 7974 bound_to 7965
  155.2447  140.0430  157.2979 H   0  0  0  0  0  0  0  0  0  0  0  0  # atno 8008 bound_to 7997
  154.5806  140.2399  155.8029 H   0  0  0  0  0  0  0  0  0  0  0  0  # atno 8009 bound_to 7997
  156.2190  140.2976  155.9915 H   0  0  0  0  0  0  0  0  0  0  0  0  # atno 8010 bound_to 7997
  139.4872  144.4347  151.9026 H   0  0  0  0  0  0  0  0  0  0  0  0  # atno 10167 bound_to 10162
  157.5186  131.1098  150.9187 H   0  0  0  0  0  0  0  0  0  0  0  0  # atno 10718 bound_to 10713
  154.8410  135.3429  154.6412 H   0  0  0  0  0  0  0  0  0  0  0  0  # atno 10763 bound_to 10752
  153.7023  135.6969  153.5064 H   0  0  0  0  0  0  0  0  0  0  0  0  # atno 10764 bound_to 10752
  153.2513  135.4352  155.0755 H   0  0  0  0  0  0  0  0  0  0  0  0  # atno 10765 bound_to 10752
  140.3896  134.6874  157.4499 H   0  0  0  0  0  0  0  0  0  0  0  0  # atno 11005 bound_to 11000
  144.7237  139.7945  143.7373 LP  0  0  0  0  0  0  0  0  0  0  0  0  # atno 17320 bound_to 7965
  146.1442  139.4507  143.0089 LP  0  0  0  0  0  0  0  0  0  0  0  0  # atno 17321 bound_to 7965
  140.3797  144.2752  150.5910 LP  0  0  0  0  0  0  0  0  0  0  0  0  # atno 17342 bound_to 10162
  140.5245  143.2258  151.8337 LP  0  0  0  0  0  0  0  0  0  0  0  0  # atno 17343 bound_to 10162
  156.9804  130.5525  149.5296 LP  0  0  0  0  0  0  0  0  0  0  0  0  # atno 17370 bound_to 10713
  156.0338  130.5427  150.8601 LP  0  0  0  0  0  0  0  0  0  0  0  0  # atno 17371 bound_to 10713
  140.0417  134.6258  155.8973 LP  0  0  0  0  0  0  0  0  0  0  0  0  # atno 17394 bound_to 11000
  141.1895  133.6565  156.5372 LP  0  0  0  0  0  0  0  0  0  0  0  0  # atno 17395 bound_to 11000

$$$$
