AV-unprocessed.smi:332|AV-procd|sdf|2354|dock1
  -GOLD-   2262022263D 1   1.00000     0.00000
 Structure written by MMmdl.
 42 44  0  0  0  0  0  0  0  0  1 V2000
  148.6968  141.4255  155.7957 C   0  0  0  0  0  0  0  0  0  0  0  0
  149.9618  140.7571  156.3556 C   0  0  2  0  0  0  0  0  0  0  0  0
  150.8318  141.7948  156.9077 N   0  0  0  0  0  0  0  0  0  0  0  0
  150.4872  142.7153  157.8220 C   0  0  0  0  0  0  0  0  0  0  0  0
  149.3667  142.7825  158.3293 O   0  0  0  0  0  0  0  0  0  0  0  0
  151.5979  143.6911  158.2359 C   0  0  0  0  0  0  0  0  0  0  0  0
  152.0969  143.4645  159.6025 N   0  0  0  0  0  0  0  0  0  0  0  0
  152.6887  142.2137  159.8699 C   0  0  0  0  0  0  0  0  0  0  0  0
  153.1747  141.9027  161.0820 C   0  0  0  0  0  0  0  0  0  0  0  0
  153.0794  142.8912  162.1298 C   0  0  0  0  0  0  0  0  0  0  0  0
  152.5117  144.0893  161.8860 C   0  0  0  0  0  0  0  0  0  0  0  0
  151.9776  144.4329  160.5628 C   0  0  0  0  0  0  0  0  0  0  0  0
  151.4564  145.5244  160.3319 O   0  0  0  0  0  0  0  0  0  0  0  0
  150.7287  139.9476  155.2814 C   0  0  1  0  0  0  0  0  0  0  0  0
  152.1614  139.5213  155.6798 C   0  0  0  0  0  0  0  0  0  0  0  0
  152.1881  138.0218  155.3312 C   0  0  1  0  0  0  0  0  0  0  0  0
  151.3670  137.2493  156.3798 C   0  0  0  0  0  0  0  0  0  0  0  0
  149.9193  137.6297  156.0205 C   0  0  0  0  0  0  0  0  0  0  0  0
  150.1032  138.6016  154.8365 C   0  0  2  0  0  0  0  0  0  0  0  0
  151.2796  137.9575  154.1092 C   0  0  0  0  0  0  0  0  0  0  0  0
  147.9831  140.6855  155.4338 H   0  0  0  0  0  0  0  0  0  0  0  0
  148.9329  142.0942  154.9672 H   0  0  0  0  0  0  0  0  0  0  0  0
  148.1918  142.0122  156.5639 H   0  0  0  0  0  0  0  0  0  0  0  0
  149.6509  140.0855  157.1561 H   0  0  0  0  0  0  0  0  0  0  0  0
  151.7791  141.8169  156.5584 H   0  0  0  0  0  0  0  0  0  0  0  0
  152.4106  143.6052  157.5134 H   0  0  0  0  0  0  0  0  0  0  0  0
  151.2349  144.7158  158.1353 H   0  0  0  0  0  0  0  0  0  0  0  0
  152.7147  141.5283  159.0350 H   0  0  0  0  0  0  0  0  0  0  0  0
  153.6216  140.9372  161.2690 H   0  0  0  0  0  0  0  0  0  0  0  0
  153.4635  142.6686  163.1143 H   0  0  0  0  0  0  0  0  0  0  0  0
  152.4476  144.8157  162.6827 H   0  0  0  0  0  0  0  0  0  0  0  0
  150.8045  140.5759  154.3914 H   0  0  0  0  0  0  0  0  0  0  0  0
  152.8997  140.0739  155.0976 H   0  0  0  0  0  0  0  0  0  0  0  0
  152.3821  139.6884  156.7346 H   0  0  0  0  0  0  0  0  0  0  0  0
  153.1925  137.6243  155.1831 H   0  0  0  0  0  0  0  0  0  0  0  0
  151.5174  136.1737  156.2793 H   0  0  0  0  0  0  0  0  0  0  0  0
  151.6296  137.5300  157.4007 H   0  0  0  0  0  0  0  0  0  0  0  0
  149.3673  136.7447  155.7008 H   0  0  0  0  0  0  0  0  0  0  0  0
  149.3739  138.0614  156.8586 H   0  0  0  0  0  0  0  0  0  0  0  0
  149.2081  138.7175  154.2248 H   0  0  0  0  0  0  0  0  0  0  0  0
  151.6462  138.5457  153.2658 H   0  0  0  0  0  0  0  0  0  0  0  0
  151.0780  136.9387  153.7730 H   0  0  0  0  0  0  0  0  0  0  0  0
  1  2  1  0  0  0  0
  1 21  1  0  0  0  0
  1 22  1  0  0  0  0
  1 23  1  0  0  0  0
  2  3  1  0  0  0  0
  2 14  1  0  0  0  0
  2 24  1  0  0  0  0
  3  4  1  0  0  0  0
  3 25  1  0  0  0  0
  4  5  2  0  0  0  0
  4  6  1  0  0  0  0
  6  7  1  0  0  0  0
  6 26  1  0  0  0  0
  6 27  1  0  0  0  0
  7 12  1  0  0  0  0
  7  8  1  0  0  0  0
  8  9  2  0  0  0  0
  8 28  1  0  0  0  0
  9 10  1  0  0  0  0
  9 29  1  0  0  0  0
 10 11  2  0  0  0  0
 10 30  1  0  0  0  0
 11 12  1  0  0  0  0
 11 31  1  0  0  0  0
 12 13  2  0  0  0  0
 14 19  1  0  0  0  0
 14 15  1  0  0  0  0
 14 32  1  0  0  0  0
 15 16  1  0  0  0  0
 15 33  1  0  0  0  0
 15 34  1  0  0  0  0
 16 20  1  0  0  0  0
 16 17  1  0  0  0  0
 16 35  1  0  0  0  0
 17 18  1  0  0  0  0
 17 36  1  0  0  0  0
 17 37  1  0  0  0  0
 18 19  1  0  0  0  0
 18 38  1  0  0  0  0
 18 39  1  0  0  0  0
 19 20  1  0  0  0  0
 19 40  1  0  0  0  0
 20 41  1  0  0  0  0
 20 42  1  0  0  0  0
M  END
> <s_m_source_file>
AV-unprocessed.smi

> <i_m_source_file_index>
332

> <i_lp_mmshare_version>
43012

> <i_f3d_flags>
0

> <s_epik_input>
W0NIMl0xW0NIMl1bQ0BIXShbQ0gyXTIpW0NAQEhdKFtDSDJdW0NAQEhdMTIpW0NASF0oW0NIM10pW05IXUMoPU8pW0NIMl1uM1tjSF1bY0hdW2NIXVtjSF1jMz1P

> <s_epik_cmdline>
J2VwaWtfcHl0aG9uJywgJy1waCcsICc3LjAnLCAnLXRuJywgJzgnLCAnLW1hJywgJzIwMCcsICctbWV0YWxfYmluZGluZycsICctaW1hZScsICc8aW5maWxlLm1hZT4nLCAnLW9tYWUnLCAnPG91dGZpbGUubWFlPic=

> <r_lp_tautomer_probability>
1

> <r_epik_Ionization_Penalty>
4.05802e-07

> <r_epik_Ionization_Penalty_Charging>
3.84175e-07

> <r_epik_Ionization_Penalty_Neutral>
2.16269e-08

> <r_epik_State_Penalty>
-0

> <r_epik_Charging_Adjusted_Penalty>
3.84175e-07

> <i_epik_Tot_Q>
0

> <i_epik_Tot_abs_Q>
0

> <r_epik_Metal_State_Penalty>
-0

> <b_epik_Metal_Only>
0

> <s_lp_Force_Field>
OPLS_2005

> <r_lp_Energy>
60.6012

> <b_lp_Chiralities_Consistent>
1

> <s_lp_Variant>
AV-unprocessed.smi:332-3

> <Gold.Version>
5.8.1

> <Gold.Id.Protein>
6NUR|6NUR_protein|mol2

> <Gold.PLP.Fitness>
44.9580

> <Gold.PLP.PLP>
-45.5428

> <Gold.PLP.part.hbond>
0.0000

> <Gold.PLP.part.metal>
0.0000

> <Gold.PLP.part.buried>
-5.8918

> <Gold.PLP.part.nonpolar>
-39.4710

> <Gold.PLP.part.repulsive>
0.4338

> <Gold.PLP.ligand.clash>
0.0000

> <Gold.PLP.ligand.torsion>
0.3218

> <Gold.PLP.Chemscore.Hbond>
0.0000

> <Gold.PLP.Chemscore.CHOScore>
0.0000

> <Gold.PLP.Chemscore.Metal>
0.0000

> <Gold.PLP.Chemscore.Internal.Correction>
0.0589

> <Gold.Rescore>
     Score         DG    S(hbond)    S(metal)    S(lipo)     H(rot)  DE(clash)    DE(int)     intcor
     13.17     -14.62       0.00        0.00     111.81       1.54       0.07       1.38       ----

> <Gold.Chemscore.Fitness>
13.1732

> <Gold.Chemscore.DG>
-14.6199

> <Gold.Chemscore.ZeroCoef>
-5.4800

> <Gold.Chemscore.Hbond>
0.0000

> <Gold.Chemscore.Metal>
0.0000

> <Gold.Chemscore.Lipo>
111.8098

> <Gold.Chemscore.Internal_Hbond>
0.0000

> <Gold.Chemscore.DEClash>
0.0673

> <Gold.Chemscore.DEInternal>
1.3793

> <Gold.Chemscore.Rot>
1.5398

> <Gold.Chemscore.Internal.Correction>
   9.000000E+99

> <Gold.Chemscore.Hbond.Weighted>
-0.0000

> <Gold.Chemscore.Metal.Weighted>
-0.0000

> <Gold.Chemscore.Lipo.Weighted>
-13.0817

> <Gold.Chemscore.Internal_Hbond.Weighted>
0.0000

> <Gold.Chemscore.DEClash.Weighted>
0.0673

> <Gold.Chemscore.DEInternal.Weighted>
1.3793

> <Gold.Chemscore.Rot.Weighted>
3.9419

> <Gold.Chemscore.Internal.Correction.Weighted>
   9.000000E+99

> <Gold.Protein.RotatedTorsions>
[ 6907 6896 6895 6894 ] final   78.54 input  -60.11 | X-H torsion
[ 7974 7965 7964 7962 ] final   73.04 input  175.53 | X-H torsion
[ 8008 7997 7996 7995 ] final   53.20 input   59.86 | X-H torsion
[ 10167 10162 10161 10158 ] final  135.52 input  -65.29 | X-H torsion
[ 10718 10713 10712 10709 ] final -156.69 input   66.30 | X-H torsion
[ 10763 10752 10751 10750 ] final  -66.60 input  -60.55 | X-H torsion
[ 11005 11000 10999 10996 ] final  132.25 input  -57.11 | X-H torsion

> <Gold.Protein.ActiveResidues>
 VAL166  LYS551  ARG553  GLY616  TRP617  ASP618  TYR619  PRO620  LYS621  CYS622 
 ASP623  PHE694  ASN695  SER759  ASP760  ASP761  ALA762  ILE779  LEU786  VAL792 
 PHE793  MET794  SER795  GLU796  ALA797  LYS798  CYS799  TRP800  GLU811  SER814 

> <Gold.Protein.RotatedAtoms>
  152.5163  134.3649  159.9297 H   0  0  0  0  0  0  0  0  0  0  0  0  # atno 6907 bound_to 6896
  151.3602  133.3886  159.2696 H   0  0  0  0  0  0  0  0  0  0  0  0  # atno 6908 bound_to 6896
  150.9658  134.9058  159.7816 H   0  0  0  0  0  0  0  0  0  0  0  0  # atno 6909 bound_to 6896
  145.7459  139.2740  143.1459 H   0  0  0  0  0  0  0  0  0  0  0  0  # atno 7974 bound_to 7965
  155.4644  140.3463  155.4317 H   0  0  0  0  0  0  0  0  0  0  0  0  # atno 8008 bound_to 7997
  156.1140  140.1469  156.9328 H   0  0  0  0  0  0  0  0  0  0  0  0  # atno 8009 bound_to 7997
  154.4776  140.0880  156.7279 H   0  0  0  0  0  0  0  0  0  0  0  0  # atno 8010 bound_to 7997
  139.5214  144.6512  151.5295 H   0  0  0  0  0  0  0  0  0  0  0  0  # atno 10167 bound_to 10162
  156.5300  130.8516  151.2713 H   0  0  0  0  0  0  0  0  0  0  0  0  # atno 10718 bound_to 10713
  154.3622  135.6113  153.5696 H   0  0  0  0  0  0  0  0  0  0  0  0  # atno 10763 bound_to 10752
  152.9793  135.5818  154.4619 H   0  0  0  0  0  0  0  0  0  0  0  0  # atno 10764 bound_to 10752
  154.4359  135.2849  155.1858 H   0  0  0  0  0  0  0  0  0  0  0  0  # atno 10765 bound_to 10752
  139.9779  134.9558  156.9555 H   0  0  0  0  0  0  0  0  0  0  0  0  # atno 11005 bound_to 11000
  146.0403  140.8171  142.9832 LP  0  0  0  0  0  0  0  0  0  0  0  0  # atno 17320 bound_to 7965
  144.6860  140.2900  143.7279 LP  0  0  0  0  0  0  0  0  0  0  0  0  # atno 17321 bound_to 7965
  140.6318  143.9060  150.6612 LP  0  0  0  0  0  0  0  0  0  0  0  0  # atno 17342 bound_to 10162
  140.2367  143.3694  152.1521 LP  0  0  0  0  0  0  0  0  0  0  0  0  # atno 17343 bound_to 10162
  157.7423  130.9888  150.2508 LP  0  0  0  0  0  0  0  0  0  0  0  0  # atno 17370 bound_to 10713
  156.3068  130.3766  149.7698 LP  0  0  0  0  0  0  0  0  0  0  0  0  # atno 17371 bound_to 10713
  140.5157  134.0957  155.7280 LP  0  0  0  0  0  0  0  0  0  0  0  0  # atno 17394 bound_to 11000
  141.1454  133.9064  157.2228 LP  0  0  0  0  0  0  0  0  0  0  0  0  # atno 17395 bound_to 11000

$$$$
