AV-unprocessed.smi:1373|AV-procd|sdf|5586|dock3
  -GOLD-   22720 5183D 1   1.00000     0.00000
 Structure written by MMmdl.
 42 43  0  0  0  0  0  0  0  0  1 V2000
  151.0883  144.8212  158.6496 C   0  0  0  0  0  0  0  0  0  0  0  0
  152.1239  144.4589  159.7199 C   0  0  0  0  0  0  0  0  0  0  0  0
  152.0703  142.9764  160.1137 C   0  0  0  0  0  0  0  0  0  0  0  0
  152.3632  142.0428  158.9286 C   0  0  0  0  0  0  0  0  0  0  0  0
  152.3041  140.6419  159.3276 N   0  0  0  0  0  0  0  0  0  0  0  0
  152.4888  139.5940  158.5077 C   0  0  0  0  0  0  0  0  0  0  0  0
  152.7458  139.7114  157.3096 O   0  0  0  0  0  0  0  0  0  0  0  0
  152.3884  138.1987  159.1325 C   0  0  0  0  0  0  0  0  0  0  0  0
  151.0005  137.6506  159.0188 C   0  0  0  0  0  0  0  0  0  0  0  0
  150.0180  138.3590  158.4736 N   0  0  0  0  0  0  0  0  0  0  0  0
  148.9048  137.5142  158.5919 O   0  0  0  0  0  0  0  0  0  0  0  0
  149.3584  136.3882  159.1928 C   0  0  0  0  0  0  0  0  0  0  0  0
  148.3929  135.2889  159.4961 C   0  0  0  0  0  0  0  0  0  0  0  0
  148.3274  134.9452  160.9155 N   0  0  0  0  0  0  0  0  0  0  0  0
  147.8819  136.0826  161.7121 C   0  0  0  0  0  0  0  0  0  0  0  0
  147.8098  135.7400  163.2102 C   0  0  0  0  0  0  0  0  0  0  0  0
  146.9509  134.6204  163.4024 O   0  0  0  0  0  0  0  0  0  0  0  0
  147.3762  133.4713  162.6769 C   0  0  0  0  0  0  0  0  0  0  0  0
  147.4501  133.8051  161.1768 C   0  0  0  0  0  0  0  0  0  0  0  0
  150.6595  136.4109  159.4692 N   0  0  0  0  0  0  0  0  0  0  0  0
  151.1459  145.8799  158.3954 H   0  0  0  0  0  0  0  0  0  0  0  0
  150.0750  144.6175  158.9971 H   0  0  0  0  0  0  0  0  0  0  0  0
  151.2510  144.2501  157.7351 H   0  0  0  0  0  0  0  0  0  0  0  0
  153.1207  144.7055  159.3526 H   0  0  0  0  0  0  0  0  0  0  0  0
  151.9587  145.0770  160.6031 H   0  0  0  0  0  0  0  0  0  0  0  0
  152.7888  142.7907  160.9133 H   0  0  0  0  0  0  0  0  0  0  0  0
  151.0861  142.7448  160.5230 H   0  0  0  0  0  0  0  0  0  0  0  0
  151.6261  142.2002  158.1405 H   0  0  0  0  0  0  0  0  0  0  0  0
  153.3371  142.2707  158.4918 H   0  0  0  0  0  0  0  0  0  0  0  0
  152.1010  140.4530  160.2988 H   0  0  0  0  0  0  0  0  0  0  0  0
  153.0905  137.5217  158.6435 H   0  0  0  0  0  0  0  0  0  0  0  0
  152.6784  138.2522  160.1826 H   0  0  0  0  0  0  0  0  0  0  0  0
  147.4097  135.6103  159.1503 H   0  0  0  0  0  0  0  0  0  0  0  0
  148.6590  134.4108  158.9055 H   0  0  0  0  0  0  0  0  0  0  0  0
  148.5597  136.9243  161.5671 H   0  0  0  0  0  0  0  0  0  0  0  0
  146.8988  136.4114  161.3709 H   0  0  0  0  0  0  0  0  0  0  0  0
  148.8030  135.5177  163.6037 H   0  0  0  0  0  0  0  0  0  0  0  0
  147.4230  136.5882  163.7753 H   0  0  0  0  0  0  0  0  0  0  0  0
  148.3475  133.1381  163.0461 H   0  0  0  0  0  0  0  0  0  0  0  0
  146.6714  132.6580  162.8497 H   0  0  0  0  0  0  0  0  0  0  0  0
  146.4467  134.0172  160.8041 H   0  0  0  0  0  0  0  0  0  0  0  0
  147.8028  132.9248  160.6392 H   0  0  0  0  0  0  0  0  0  0  0  0
  1  2  1  0  0  0  0
  1 21  1  0  0  0  0
  1 22  1  0  0  0  0
  1 23  1  0  0  0  0
  2  3  1  0  0  0  0
  2 24  1  0  0  0  0
  2 25  1  0  0  0  0
  3  4  1  0  0  0  0
  3 26  1  0  0  0  0
  3 27  1  0  0  0  0
  4  5  1  0  0  0  0
  4 28  1  0  0  0  0
  4 29  1  0  0  0  0
  5  6  1  0  0  0  0
  5 30  1  0  0  0  0
  6  7  2  0  0  0  0
  6  8  1  0  0  0  0
  8  9  1  0  0  0  0
  8 31  1  0  0  0  0
  8 32  1  0  0  0  0
  9 20  1  0  0  0  0
  9 10  2  0  0  0  0
 10 11  1  0  0  0  0
 11 12  1  0  0  0  0
 12 13  1  0  0  0  0
 12 20  2  0  0  0  0
 13 14  1  0  0  0  0
 13 33  1  0  0  0  0
 13 34  1  0  0  0  0
 14 19  1  0  0  0  0
 14 15  1  0  0  0  0
 15 16  1  0  0  0  0
 15 35  1  0  0  0  0
 15 36  1  0  0  0  0
 16 17  1  0  0  0  0
 16 37  1  0  0  0  0
 16 38  1  0  0  0  0
 17 18  1  0  0  0  0
 18 19  1  0  0  0  0
 18 39  1  0  0  0  0
 18 40  1  0  0  0  0
 19 41  1  0  0  0  0
 19 42  1  0  0  0  0
M  END
> <s_m_source_file>
AV-unprocessed.smi

> <i_m_source_file_index>
1373

> <i_lp_mmshare_version>
43012

> <i_f3d_flags>
0

> <s_epik_input>
W0NIM11bQ0gyXVtDSDJdW0NIMl1bTkhdQyg9TylbQ0gyXWMxbm9jKG4xKVtDSDJdTjJbQ0gyXVtDSDJdT1tDSDJdW0NIMl0y

> <s_epik_cmdline>
J2VwaWtfcHl0aG9uJywgJy1waCcsICc3LjAnLCAnLXRuJywgJzgnLCAnLW1hJywgJzIwMCcsICctbWV0YWxfYmluZGluZycsICctaW1hZScsICc8aW5maWxlLm1hZT4nLCAnLW9tYWUnLCAnPG91dGZpbGUubWFlPic=

> <r_lp_tautomer_probability>
1

> <r_epik_Ionization_Penalty>
0.0010147

> <r_epik_Ionization_Penalty_Charging>
0

> <r_epik_Ionization_Penalty_Neutral>
0.0010147

> <r_epik_State_Penalty>
0.00066205

> <r_epik_Charging_Adjusted_Penalty>
0.00066205

> <i_epik_Tot_Q>
0

> <i_epik_Tot_abs_Q>
0

> <r_epik_Metal_State_Penalty>
-0

> <b_epik_Metal_Only>
0

> <s_lp_Force_Field>
OPLS_2005

> <r_lp_Energy>
19.0751

> <b_lp_Chiralities_Consistent>
1

> <s_lp_Variant>
AV-unprocessed.smi:1373-1

> <Gold.Version>
5.8.1

> <Gold.Id.Protein>
6NUR|6NUR_protein|mol2

> <Gold.PLP.Fitness>
45.1710

> <Gold.PLP.PLP>
-39.8195

> <Gold.PLP.part.hbond>
-2.5972

> <Gold.PLP.part.metal>
0.0000

> <Gold.PLP.part.buried>
-6.7523

> <Gold.PLP.part.nonpolar>
-30.0435

> <Gold.PLP.part.repulsive>
0.1280

> <Gold.PLP.ligand.clash>
0.0000

> <Gold.PLP.ligand.torsion>
0.3828

> <Gold.PLP.Chemscore.Hbond>
2.0000

> <Gold.PLP.Chemscore.CHOScore>
0.0000

> <Gold.PLP.Chemscore.Metal>
0.0000

> <Gold.Chemscore.Hbonds>
donor molecule, donor type, donor heavy atom, donor atom, acceptor molecule, acceptor atom, score
      P1  H  6896  6909       L1    20  0.93
      P1  H  7997  8008       L1     7  1.00

> <Gold.PLP.Chemscore.Internal.Correction>
0.1171

> <Gold.Rescore>
     Score         DG    S(hbond)    S(metal)    S(lipo)     H(rot)  DE(clash)    DE(int)     intcor
     16.05     -16.53       1.99        0.00      87.80       2.29       0.00       0.48       ----

> <Gold.Chemscore.Fitness>
16.0478

> <Gold.Chemscore.DG>
-16.5329

> <Gold.Chemscore.ZeroCoef>
-5.4800

> <Gold.Chemscore.Hbond>
1.9898

> <Gold.Chemscore.Metal>
0.0000

> <Gold.Chemscore.Lipo>
87.7979

> <Gold.Chemscore.Internal_Hbond>
0.0000

> <Gold.Chemscore.DEClash>
0.0048

> <Gold.Chemscore.DEInternal>
0.4803

> <Gold.Chemscore.Rot>
2.2912

> <Gold.Chemscore.Internal.Correction>
   9.000000E+99

> <Gold.Chemscore.Hbonds>
donor molecule, donor type, donor heavy atom, donor atom, acceptor molecule, acceptor atom, score
      P1  H  6896  6909       L1    20  0.30
      P1  H  7997  8008       L1     7  1.00

> <Gold.Chemscore.Hbond.Weighted>
-6.6460

> <Gold.Chemscore.Metal.Weighted>
-0.0000

> <Gold.Chemscore.Lipo.Weighted>
-10.2724

> <Gold.Chemscore.Internal_Hbond.Weighted>
0.0000

> <Gold.Chemscore.DEClash.Weighted>
0.0048

> <Gold.Chemscore.DEInternal.Weighted>
0.4803

> <Gold.Chemscore.Rot.Weighted>
5.8654

> <Gold.Chemscore.Internal.Correction.Weighted>
   9.000000E+99

> <Gold.Protein.RotatedTorsions>
[ 6907 6896 6895 6894 ] final   77.85 input  -60.11 | X-H torsion
[ 7974 7965 7964 7962 ] final   -9.37 input  175.53 | X-H torsion
[ 8008 7997 7996 7995 ] final  -56.67 input   59.86 | X-H torsion
[ 10167 10162 10161 10158 ] final  173.18 input  -65.29 | X-H torsion
[ 10718 10713 10712 10709 ] final -144.42 input   66.30 | X-H torsion
[ 10763 10752 10751 10750 ] final  -64.18 input  -60.55 | X-H torsion
[ 11005 11000 10999 10996 ] final   40.42 input  -57.11 | X-H torsion

> <Gold.Protein.ActiveResidues>
 VAL166  LYS551  ARG553  GLY616  TRP617  ASP618  TYR619  PRO620  LYS621  CYS622 
 ASP623  PHE694  ASN695  SER759  ASP760  ASP761  ALA762  ILE779  LEU786  VAL792 
 PHE793  MET794  SER795  GLU796  ALA797  LYS798  CYS799  TRP800  GLU811  SER814 

> <Gold.Protein.RotatedAtoms>
  152.5135  134.3753  159.9332 H   0  0  0  0  0  0  0  0  0  0  0  0  # atno 6907 bound_to 6896
  151.3709  133.3849  159.2707 H   0  0  0  0  0  0  0  0  0  0  0  0  # atno 6908 bound_to 6896
  150.9578  134.8990  159.7770 H   0  0  0  0  0  0  0  0  0  0  0  0  # atno 6909 bound_to 6896
  146.2254  140.2606  142.8351 H   0  0  0  0  0  0  0  0  0  0  0  0  # atno 7974 bound_to 7965
  154.4239  140.1124  156.5675 H   0  0  0  0  0  0  0  0  0  0  0  0  # atno 8008 bound_to 7997
  155.6247  140.3495  155.4644 H   0  0  0  0  0  0  0  0  0  0  0  0  # atno 8009 bound_to 7997
  155.9996  140.1196  157.0550 H   0  0  0  0  0  0  0  0  0  0  0  0  # atno 8010 bound_to 7997
  139.5100  144.3290  152.0130 H   0  0  0  0  0  0  0  0  0  0  0  0  # atno 10167 bound_to 10162
  156.3699  130.7782  151.1962 H   0  0  0  0  0  0  0  0  0  0  0  0  # atno 10718 bound_to 10713
  154.3262  135.6186  153.5530 H   0  0  0  0  0  0  0  0  0  0  0  0  # atno 10763 bound_to 10752
  152.9815  135.5736  154.5014 H   0  0  0  0  0  0  0  0  0  0  0  0  # atno 10764 bound_to 10752
  154.4691  135.2858  155.1632 H   0  0  0  0  0  0  0  0  0  0  0  0  # atno 10765 bound_to 10752
  140.1933  134.3960  155.8135 H   0  0  0  0  0  0  0  0  0  0  0  0  # atno 11005 bound_to 11000
  144.9342  140.8009  143.5670 LP  0  0  0  0  0  0  0  0  0  0  0  0  # atno 17320 bound_to 7965
  145.2552  139.2015  143.4921 LP  0  0  0  0  0  0  0  0  0  0  0  0  # atno 17321 bound_to 7965
  140.2730  144.3944  150.6145 LP  0  0  0  0  0  0  0  0  0  0  0  0  # atno 17342 bound_to 10162
  140.6075  143.2168  151.6952 LP  0  0  0  0  0  0  0  0  0  0  0  0  # atno 17343 bound_to 10162
  157.7483  131.0375  150.4459 LP  0  0  0  0  0  0  0  0  0  0  0  0  # atno 17370 bound_to 10713
  156.4685  130.4047  149.6533 LP  0  0  0  0  0  0  0  0  0  0  0  0  # atno 17371 bound_to 10713
  141.2226  133.7057  156.8132 LP  0  0  0  0  0  0  0  0  0  0  0  0  # atno 17394 bound_to 11000
  140.2136  134.8809  157.3301 LP  0  0  0  0  0  0  0  0  0  0  0  0  # atno 17395 bound_to 11000

$$$$
