AV-unprocessed.smi:3239|AV-procd|sdf|12380|dock1
  -GOLD-   2272018243D 1   1.00000     0.00000
 Structure written by MMmdl.
 35 35  0  0  0  0  0  0  0  0  1 V2000
  152.2218  144.0364  161.5599 C   0  0  0  0  0  0  0  0  0  0  0  0
  152.5040  142.9908  160.9959 C   0  0  0  0  0  0  0  0  0  0  0  0
  152.8471  141.7217  160.3324 C   0  0  0  0  0  0  0  0  0  0  0  0
  152.0939  141.5104  159.1015 N   0  0  0  0  0  0  0  0  0  0  0  0
  152.3376  140.5463  158.1974 C   0  0  0  0  0  0  0  0  0  0  0  0
  153.2319  139.7088  158.3203 O   0  0  0  0  0  0  0  0  0  0  0  0
  151.3933  140.4963  157.0310 C   0  0  0  0  0  0  0  0  0  0  0  0
  150.0718  140.9888  157.1208 C   0  0  0  0  0  0  0  0  0  0  0  0
  149.2418  140.9341  155.9844 C   0  0  0  0  0  0  0  0  0  0  0  0
  149.7586  140.3958  154.7879 C   0  0  0  0  0  0  0  0  0  0  0  0
  148.9252  140.3502  153.6601 N   0  0  0  0  0  0  0  0  0  0  0  0
  147.4727  140.4509  153.7635 C   0  0  1  0  0  0  0  0  0  0  0  0
  147.0255  141.9234  153.7886 C   0  0  0  0  0  0  0  0  0  0  0  0
  146.8113  139.6814  152.6093 C   0  0  0  0  0  0  0  0  0  0  0  0
  146.7955  138.2962  152.9128 O   0  0  0  0  0  0  0  0  0  0  0  0
  145.8926  137.5708  152.0969 C   0  0  0  0  0  0  0  0  0  0  0  0
  151.0274  139.9342  154.6917 N   0  0  0  0  0  0  0  0  0  0  0  0
  151.8191  139.9886  155.7840 C   0  0  0  0  0  0  0  0  0  0  0  0
  151.9775  144.9490  162.0557 H   0  0  0  0  0  0  0  0  0  0  0  0
  153.9109  141.7435  160.0958 H   0  0  0  0  0  0  0  0  0  0  0  0
  152.6923  140.9041  161.0382 H   0  0  0  0  0  0  0  0  0  0  0  0
  151.3209  142.1365  158.9295 H   0  0  0  0  0  0  0  0  0  0  0  0
  149.6901  141.4074  158.0407 H   0  0  0  0  0  0  0  0  0  0  0  0
  148.2277  141.3032  156.0338 H   0  0  0  0  0  0  0  0  0  0  0  0
  149.3406  140.3629  152.7400 H   0  0  0  0  0  0  0  0  0  0  0  0
  147.1585  139.9722  154.6916 H   0  0  0  0  0  0  0  0  0  0  0  0
  145.9431  142.0036  153.8915 H   0  0  0  0  0  0  0  0  0  0  0  0
  147.3103  142.4401  152.8717 H   0  0  0  0  0  0  0  0  0  0  0  0
  147.4701  142.4632  154.6248 H   0  0  0  0  0  0  0  0  0  0  0  0
  145.7967  140.0458  152.4374 H   0  0  0  0  0  0  0  0  0  0  0  0
  147.3752  139.8377  151.6878 H   0  0  0  0  0  0  0  0  0  0  0  0
  145.9208  136.5155  152.3680 H   0  0  0  0  0  0  0  0  0  0  0  0
  146.1588  137.6546  151.0425 H   0  0  0  0  0  0  0  0  0  0  0  0
  144.8696  137.9252  152.2296 H   0  0  0  0  0  0  0  0  0  0  0  0
  152.8219  139.6086  155.6524 H   0  0  0  0  0  0  0  0  0  0  0  0
  1  2  3  0  0  0  0
  1 19  1  0  0  0  0
  2  3  1  0  0  0  0
  3  4  1  0  0  0  0
  3 20  1  0  0  0  0
  3 21  1  0  0  0  0
  4  5  1  0  0  0  0
  4 22  1  0  0  0  0
  5  6  2  0  0  0  0
  5  7  1  0  0  0  0
  7 18  1  0  0  0  0
  7  8  2  0  0  0  0
  8  9  1  0  0  0  0
  8 23  1  0  0  0  0
  9 10  2  0  0  0  0
  9 24  1  0  0  0  0
 10 11  1  0  0  0  0
 10 17  1  0  0  0  0
 11 12  1  0  0  0  0
 11 25  1  0  0  0  0
 12 13  1  0  0  0  0
 12 14  1  0  0  0  0
 12 26  1  0  0  0  0
 13 27  1  0  0  0  0
 13 28  1  0  0  0  0
 13 29  1  0  0  0  0
 14 15  1  0  0  0  0
 14 30  1  0  0  0  0
 14 31  1  0  0  0  0
 15 16  1  0  0  0  0
 16 32  1  0  0  0  0
 16 33  1  0  0  0  0
 16 34  1  0  0  0  0
 17 18  2  0  0  0  0
 18 35  1  0  0  0  0
M  END
> <s_m_source_file>
AV-unprocessed.smi

> <i_m_source_file_index>
3239

> <i_lp_mmshare_version>
43012

> <i_f3d_flags>
0

> <s_epik_input>
W0NIXSNDW0NIMl1bTkhdQyg9TyljMVtjSF1bY0hdYyhuW2NIXTEpW05IXVtDQEhdKFtDSDNdKVtDSDJdT1tDSDNd

> <s_epik_cmdline>
J2VwaWtfcHl0aG9uJywgJy1waCcsICc3LjAnLCAnLXRuJywgJzgnLCAnLW1hJywgJzIwMCcsICctbWV0YWxfYmluZGluZycsICctaW1hZScsICc8aW5maWxlLm1hZT4nLCAnLW9tYWUnLCAnPG91dGZpbGUubWFlPic=

> <r_lp_tautomer_probability>
1

> <r_epik_Ionization_Penalty>
0.00321854

> <r_epik_Ionization_Penalty_Charging>
0

> <r_epik_Ionization_Penalty_Neutral>
0.00321854

> <r_epik_State_Penalty>
0.00226446

> <r_epik_Charging_Adjusted_Penalty>
0.00226446

> <i_epik_Tot_Q>
0

> <i_epik_Tot_abs_Q>
0

> <r_epik_Metal_State_Penalty>
-0

> <b_epik_Metal_Only>
0

> <s_lp_Force_Field>
OPLS_2005

> <r_lp_Energy>
6.06936

> <b_lp_Chiralities_Consistent>
1

> <s_lp_Variant>
AV-unprocessed.smi:3239-2

> <Gold.Version>
5.8.1

> <Gold.Id.Protein>
6NUR|6NUR_protein|mol2

> <Gold.PLP.Fitness>
44.4582

> <Gold.PLP.PLP>
-37.5684

> <Gold.PLP.part.hbond>
-3.0000

> <Gold.PLP.part.metal>
0.0000

> <Gold.PLP.part.buried>
-4.0052

> <Gold.PLP.part.nonpolar>
-31.6798

> <Gold.PLP.part.repulsive>
0.6183

> <Gold.PLP.ligand.clash>
0.0000

> <Gold.PLP.ligand.torsion>
1.1071

> <Gold.PLP.Chemscore.Hbond>
3.0000

> <Gold.PLP.Chemscore.CHOScore>
0.0000

> <Gold.PLP.Chemscore.Metal>
0.0000

> <Gold.Chemscore.Hbonds>
donor molecule, donor type, donor heavy atom, donor atom, acceptor molecule, acceptor atom, score
      L1  H    11    25       P1  7957  1.00
      P1  H  7989  7998       L1    17  1.00
      P1  H  7997  8010       L1     6  1.00

> <Gold.PLP.Chemscore.Internal.Correction>
0.1039

> <Gold.Rescore>
     Score         DG    S(hbond)    S(metal)    S(lipo)     H(rot)  DE(clash)    DE(int)     intcor
     18.25     -19.34       2.47        0.00      83.45       1.62       0.06       1.03       ----

> <Gold.Chemscore.Fitness>
18.2485

> <Gold.Chemscore.DG>
-19.3383

> <Gold.Chemscore.ZeroCoef>
-5.4800

> <Gold.Chemscore.Hbond>
2.4670

> <Gold.Chemscore.Metal>
0.0000

> <Gold.Chemscore.Lipo>
83.4469

> <Gold.Chemscore.Internal_Hbond>
0.0000

> <Gold.Chemscore.DEClash>
0.0568

> <Gold.Chemscore.DEInternal>
1.0329

> <Gold.Chemscore.Rot>
1.6190

> <Gold.Chemscore.Internal.Correction>
   9.000000E+99

> <Gold.Chemscore.Hbonds>
donor molecule, donor type, donor heavy atom, donor atom, acceptor molecule, acceptor atom, score
      L1  H    11    25       P1  7957  0.99
      P1  H  7989  7998       L1    17  0.26
      P1  H  7997  8010       L1     6  0.65

> <Gold.Chemscore.Hbond.Weighted>
-8.2396

> <Gold.Chemscore.Metal.Weighted>
-0.0000

> <Gold.Chemscore.Lipo.Weighted>
-9.7633

> <Gold.Chemscore.Internal_Hbond.Weighted>
0.0000

> <Gold.Chemscore.DEClash.Weighted>
0.0568

> <Gold.Chemscore.DEInternal.Weighted>
1.0329

> <Gold.Chemscore.Rot.Weighted>
4.1447

> <Gold.Chemscore.Internal.Correction.Weighted>
   9.000000E+99

> <Gold.Protein.RotatedTorsions>
[ 6907 6896 6895 6894 ] final -160.29 input  -60.11 | X-H torsion
[ 7974 7965 7964 7962 ] final  139.00 input  175.53 | X-H torsion
[ 8008 7997 7996 7995 ] final   40.43 input   59.86 | X-H torsion
[ 10167 10162 10161 10158 ] final -111.32 input  -65.29 | X-H torsion
[ 10718 10713 10712 10709 ] final   67.45 input   66.30 | X-H torsion
[ 10763 10752 10751 10750 ] final -106.46 input  -60.55 | X-H torsion
[ 11005 11000 10999 10996 ] final  -98.75 input  -57.11 | X-H torsion

> <Gold.Protein.ActiveResidues>
 VAL166  LYS551  ARG553  GLY616  TRP617  ASP618  TYR619  PRO620  LYS621  CYS622 
 ASP623  PHE694  ASN695  SER759  ASP760  ASP761  ALA762  ILE779  LEU786  VAL792 
 PHE793  MET794  SER795  GLU796  ALA797  LYS798  CYS799  TRP800  GLU811  SER814 

> <Gold.Protein.RotatedAtoms>
  151.3467  133.3941  159.2676 H   0  0  0  0  0  0  0  0  0  0  0  0  # atno 6907 bound_to 6896
  150.9834  134.9185  159.7868 H   0  0  0  0  0  0  0  0  0  0  0  0  # atno 6908 bound_to 6896
  152.5224  134.3431  159.9276 H   0  0  0  0  0  0  0  0  0  0  0  0  # atno 6909 bound_to 6896
  144.9319  139.5036  143.5613 H   0  0  0  0  0  0  0  0  0  0  0  0  # atno 7974 bound_to 7965
  155.2530  140.3354  155.4280 H   0  0  0  0  0  0  0  0  0  0  0  0  # atno 8008 bound_to 7997
  156.2207  140.1808  156.7526 H   0  0  0  0  0  0  0  0  0  0  0  0  # atno 8009 bound_to 7997
  154.5822  140.0652  156.9104 H   0  0  0  0  0  0  0  0  0  0  0  0  # atno 8010 bound_to 7997
  140.1348  143.4329  152.1602 H   0  0  0  0  0  0  0  0  0  0  0  0  # atno 10167 bound_to 10162
  157.6231  130.9321  150.0244 H   0  0  0  0  0  0  0  0  0  0  0  0  # atno 10718 bound_to 10713
  154.8013  135.4711  154.0283 H   0  0  0  0  0  0  0  0  0  0  0  0  # atno 10763 bound_to 10752
  153.1786  135.6837  153.8515 H   0  0  0  0  0  0  0  0  0  0  0  0  # atno 10764 bound_to 10752
  153.8073  135.3222  155.3374 H   0  0  0  0  0  0  0  0  0  0  0  0  # atno 10765 bound_to 10752
  141.1333  133.8269  157.0881 H   0  0  0  0  0  0  0  0  0  0  0  0  # atno 11005 bound_to 11000
  146.3250  139.8276  142.8914 LP  0  0  0  0  0  0  0  0  0  0  0  0  # atno 17320 bound_to 7965
  145.3128  141.0224  143.3545 LP  0  0  0  0  0  0  0  0  0  0  0  0  # atno 17321 bound_to 7965
  139.5501  144.7331  151.4461 LP  0  0  0  0  0  0  0  0  0  0  0  0  # atno 17342 bound_to 10162
  140.6795  143.8113  150.7103 LP  0  0  0  0  0  0  0  0  0  0  0  0  # atno 17343 bound_to 10162
  156.1387  130.3642  149.9616 LP  0  0  0  0  0  0  0  0  0  0  0  0  # atno 17370 bound_to 10713
  156.7662  130.9169  151.3643 LP  0  0  0  0  0  0  0  0  0  0  0  0  # atno 17371 bound_to 10713
  140.0409  134.9854  157.0960 LP  0  0  0  0  0  0  0  0  0  0  0  0  # atno 17394 bound_to 11000
  140.4136  134.1955  155.7163 LP  0  0  0  0  0  0  0  0  0  0  0  0  # atno 17395 bound_to 11000

$$$$
