AV-unprocessed.smi:1292|AV-procd|sdf|5397|dock8
  -GOLD-   22720 4553D 1   1.00000     0.00000
 Structure written by MMmdl.
 39 40  0  0  0  0  0  0  0  0  2 V2000
  151.6464  144.4874  159.0820 C   0  0  0  0  0  0  0  0  0  0  0  0
  151.7941  143.2376  159.9611 C   0  0  2  0  0  0  0  0  0  0  0  0
  152.4514  143.5705  161.3077 C   0  0  0  0  0  0  0  0  0  0  0  0
  152.5604  142.2985  162.1528 C   0  0  0  0  0  0  0  0  0  0  0  0
  153.3421  141.2032  161.4114 C   0  0  0  0  0  0  0  0  0  0  0  0
  152.7621  140.9333  160.0795 N   0  0  0  0  0  0  0  0  0  0  0  0
  153.1926  139.4458  159.2902 S   0  0  0  0  0  0  0  0  0  0  0  0
  154.5936  139.5860  158.8611 O   0  0  0  0  0  0  0  0  0  0  0  0
  152.8690  138.3671  160.2388 O   0  0  0  0  0  0  0  0  0  0  0  0
  152.1360  139.5725  158.0692 N   0  5  0  0  0  0  0  0  0  0  0  0
  152.3957  138.8818  156.8189 C   0  0  0  0  0  0  0  0  0  0  0  0
  152.2164  139.8453  155.6219 C   0  0  0  0  0  0  0  0  0  0  0  0
  150.7900  139.9616  155.0854 C   0  0  0  0  0  0  0  0  0  0  0  0
  150.0566  141.1608  155.2390 C   0  0  0  0  0  0  0  0  0  0  0  0
  148.7464  141.2212  154.7261 C   0  0  0  0  0  0  0  0  0  0  0  0
  148.2140  140.0856  154.0864 C   0  0  0  0  0  0  0  0  0  0  0  0
  149.0185  138.9331  153.9903 C   0  0  0  0  0  0  0  0  0  0  0  0
  150.2735  138.8630  154.4816 N   0  0  0  0  0  0  0  0  0  0  0  0
  152.5865  142.1340  159.2342 C   0  0  0  0  0  0  0  0  0  0  0  0
  152.6182  144.9205  158.8429 H   0  0  0  0  0  0  0  0  0  0  0  0
  151.0534  145.2528  159.5830 H   0  0  0  0  0  0  0  0  0  0  0  0
  151.1486  144.2480  158.1419 H   0  0  0  0  0  0  0  0  0  0  0  0
  150.7914  142.8557  160.1590 H   0  0  0  0  0  0  0  0  0  0  0  0
  153.4432  143.9958  161.1477 H   0  0  0  0  0  0  0  0  0  0  0  0
  151.8676  144.3213  161.8409 H   0  0  0  0  0  0  0  0  0  0  0  0
  153.0483  142.5223  163.1017 H   0  0  0  0  0  0  0  0  0  0  0  0
  151.5621  141.9327  162.3971 H   0  0  0  0  0  0  0  0  0  0  0  0
  154.3850  141.4998  161.2905 H   0  0  0  0  0  0  0  0  0  0  0  0
  153.3407  140.2910  162.0074 H   0  0  0  0  0  0  0  0  0  0  0  0
  153.4096  138.4813  156.7969 H   0  0  0  0  0  0  0  0  0  0  0  0
  151.7363  138.0237  156.6832 H   0  0  0  0  0  0  0  0  0  0  0  0
  152.5774  140.8390  155.8922 H   0  0  0  0  0  0  0  0  0  0  0  0
  152.8580  139.5141  154.8047 H   0  0  0  0  0  0  0  0  0  0  0  0
  150.4927  142.0175  155.7310 H   0  0  0  0  0  0  0  0  0  0  0  0
  148.1606  142.1237  154.8204 H   0  0  0  0  0  0  0  0  0  0  0  0
  147.2139  140.0965  153.6795 H   0  0  0  0  0  0  0  0  0  0  0  0
  148.6434  138.0426  153.5082 H   0  0  0  0  0  0  0  0  0  0  0  0
  152.0663  141.8610  158.3164 H   0  0  0  0  0  0  0  0  0  0  0  0
  153.5695  142.5034  158.9381 H   0  0  0  0  0  0  0  0  0  0  0  0
  1  2  1  0  0  0  0
  1 20  1  0  0  0  0
  1 21  1  0  0  0  0
  1 22  1  0  0  0  0
  2 19  1  0  0  0  0
  2  3  1  0  0  0  0
  2 23  1  0  0  0  0
  3  4  1  0  0  0  0
  3 24  1  0  0  0  0
  3 25  1  0  0  0  0
  4  5  1  0  0  0  0
  4 26  1  0  0  0  0
  4 27  1  0  0  0  0
  5  6  1  0  0  0  0
  5 28  1  0  0  0  0
  5 29  1  0  0  0  0
  6  7  1  0  0  0  0
  6 19  1  0  0  0  0
  7  8  2  0  0  0  0
  7  9  2  0  0  0  0
  7 10  1  0  0  0  0
 10 11  1  0  0  0  0
 11 12  1  0  0  0  0
 11 30  1  0  0  0  0
 11 31  1  0  0  0  0
 12 13  1  0  0  0  0
 12 32  1  0  0  0  0
 12 33  1  0  0  0  0
 13 18  1  0  0  0  0
 13 14  2  0  0  0  0
 14 15  1  0  0  0  0
 14 34  1  0  0  0  0
 15 16  2  0  0  0  0
 15 35  1  0  0  0  0
 16 17  1  0  0  0  0
 16 36  1  0  0  0  0
 17 18  2  0  0  0  0
 17 37  1  0  0  0  0
 19 38  1  0  0  0  0
 19 39  1  0  0  0  0
M  CHG  1  10  -1
M  END
> <s_m_source_file>
AV-unprocessed.smi

> <i_m_source_file_index>
1292

> <i_lp_mmshare_version>
43012

> <i_f3d_flags>
0

> <s_epik_input>
W0NIM11bQ0BASF0xW0NIMl1bQ0gyXVtDSDJdTihbQ0gyXTEpUyg9TykoPU8pW05IXVtDSDJdW0NIMl1jMltjSF1bY0hdW2NIXVtjSF1uMg==

> <s_epik_cmdline>
J2VwaWtfcHl0aG9uJywgJy1waCcsICc3LjAnLCAnLXRuJywgJzgnLCAnLW1hJywgJzIwMCcsICctbWV0YWxfYmluZGluZycsICctaW1hZScsICc8aW5maWxlLm1hZT4nLCAnLW9tYWUnLCAnPG91dGZpbGUubWFlPic=

> <r_epik_Ionization_Penalty>
2.02944

> <r_epik_Ionization_Penalty_Charging>
1.95606

> <r_epik_Ionization_Penalty_Neutral>
0.0733799

> <r_epik_State_Penalty>
2.47711

> <r_epik_Charging_Adjusted_Penalty>
4.43317

> <i_epik_Tot_Q>
-1

> <i_epik_Tot_abs_Q>
1

> <r_epik_Metal_State_Penalty>
0.729901

> <b_epik_Metal_Only>
0

> <s_lp_Force_Field>
OPLS_2005

> <r_lp_Energy>
8.05256

> <b_lp_Chiralities_Consistent>
1

> <s_lp_Variant>
AV-unprocessed.smi:1292-3

> <Gold.Version>
5.8.1

> <Gold.Id.Protein>
6NUR|6NUR_protein|mol2

> <Gold.PLP.Fitness>
46.5581

> <Gold.PLP.PLP>
-41.5695

> <Gold.PLP.part.hbond>
-0.9062

> <Gold.PLP.part.metal>
0.0000

> <Gold.PLP.part.buried>
-0.3259

> <Gold.PLP.part.nonpolar>
-38.4064

> <Gold.PLP.part.repulsive>
0.1657

> <Gold.PLP.ligand.clash>
0.0000

> <Gold.PLP.ligand.torsion>
2.0519

> <Gold.PLP.Chemscore.Hbond>
1.0000

> <Gold.PLP.Chemscore.CHOScore>
1.0000

> <Gold.PLP.Chemscore.Metal>
0.0000

> <Gold.Chemscore.Hbonds>
donor molecule, donor type, donor heavy atom, donor atom, acceptor molecule, acceptor atom, score
      P1  H  7997  8008       L1     8  1.00
      L1  C    17    37       P1  7948  1.00

> <Gold.PLP.Chemscore.Internal.Correction>
3.0924

> <Gold.Rescore>
     Score         DG    S(hbond)    S(metal)    S(lipo)     H(rot)  DE(clash)    DE(int)     intcor
     16.48     -18.95       0.97        0.00     115.40       1.27       0.35       2.11       ----

> <Gold.Chemscore.Fitness>
16.4823

> <Gold.Chemscore.DG>
-18.9514

> <Gold.Chemscore.ZeroCoef>
-5.4800

> <Gold.Chemscore.Hbond>
0.9673

> <Gold.Chemscore.Metal>
0.0000

> <Gold.Chemscore.Lipo>
115.3993

> <Gold.Chemscore.Internal_Hbond>
0.0000

> <Gold.Chemscore.DEClash>
0.3547

> <Gold.Chemscore.DEInternal>
2.1143

> <Gold.Chemscore.Rot>
1.2738

> <Gold.Chemscore.Internal.Correction>
   9.000000E+99

> <Gold.Chemscore.Hbonds>
donor molecule, donor type, donor heavy atom, donor atom, acceptor molecule, acceptor atom, score
      P1  H  7997  8008       L1     8  0.90

> <Gold.Chemscore.Hbond.Weighted>
-3.2307

> <Gold.Chemscore.Metal.Weighted>
-0.0000

> <Gold.Chemscore.Lipo.Weighted>
-13.5017

> <Gold.Chemscore.Internal_Hbond.Weighted>
0.0000

> <Gold.Chemscore.DEClash.Weighted>
0.3547

> <Gold.Chemscore.DEInternal.Weighted>
2.1143

> <Gold.Chemscore.Rot.Weighted>
3.2610

> <Gold.Chemscore.Internal.Correction.Weighted>
   9.000000E+99

> <Gold.Protein.RotatedTorsions>
[ 6907 6896 6895 6894 ] final   27.68 input  -60.11 | X-H torsion
[ 7974 7965 7964 7962 ] final  143.61 input  175.53 | X-H torsion
[ 8008 7997 7996 7995 ] final -101.66 input   59.86 | X-H torsion
[ 10167 10162 10161 10158 ] final   60.81 input  -65.29 | X-H torsion
[ 10718 10713 10712 10709 ] final   48.60 input   66.30 | X-H torsion
[ 10763 10752 10751 10750 ] final   14.00 input  -60.55 | X-H torsion
[ 11005 11000 10999 10996 ] final   45.07 input  -57.11 | X-H torsion

> <Gold.Protein.ActiveResidues>
 VAL166  LYS551  ARG553  GLY616  TRP617  ASP618  TYR619  PRO620  LYS621  CYS622 
 ASP623  PHE694  ASN695  SER759  ASP760  ASP761  ALA762  ILE779  LEU786  VAL792 
 PHE793  MET794  SER795  GLU796  ALA797  LYS798  CYS799  TRP800  GLU811  SER814 

> <Gold.Protein.RotatedAtoms>
  152.0058  134.9903  160.0566 H   0  0  0  0  0  0  0  0  0  0  0  0  # atno 6907 bound_to 6896
  152.1476  133.4497  159.4805 H   0  0  0  0  0  0  0  0  0  0  0  0  # atno 6908 bound_to 6896
  150.6872  134.2147  159.4416 H   0  0  0  0  0  0  0  0  0  0  0  0  # atno 6909 bound_to 6896
  144.8906  139.5564  143.5800 H   0  0  0  0  0  0  0  0  0  0  0  0  # atno 7974 bound_to 7965
  154.8457  140.0433  157.1571 H   0  0  0  0  0  0  0  0  0  0  0  0  # atno 8008 bound_to 7997
  154.8998  140.2998  155.5303 H   0  0  0  0  0  0  0  0  0  0  0  0  # atno 8009 bound_to 7997
  156.2994  140.2378  156.4024 H   0  0  0  0  0  0  0  0  0  0  0  0  # atno 8010 bound_to 7997
  140.1616  144.4365  150.6706 H   0  0  0  0  0  0  0  0  0  0  0  0  # atno 10167 bound_to 10162
  157.4703  130.8251  149.7980 H   0  0  0  0  0  0  0  0  0  0  0  0  # atno 10718 bound_to 10713
  153.1665  135.6805  153.8668 H   0  0  0  0  0  0  0  0  0  0  0  0  # atno 10763 bound_to 10752
  153.8047  135.3151  155.3395 H   0  0  0  0  0  0  0  0  0  0  0  0  # atno 10764 bound_to 10752
  154.7969  135.4802  154.0272 H   0  0  0  0  0  0  0  0  0  0  0  0  # atno 10765 bound_to 10752
  140.1493  134.4482  155.8393 H   0  0  0  0  0  0  0  0  0  0  0  0  # atno 11005 bound_to 11000
  146.3051  139.7554  142.9062 LP  0  0  0  0  0  0  0  0  0  0  0  0  # atno 17320 bound_to 7965
  145.3790  141.0355  143.3188 LP  0  0  0  0  0  0  0  0  0  0  0  0  # atno 17321 bound_to 7965
  140.6639  143.2261  151.5789 LP  0  0  0  0  0  0  0  0  0  0  0  0  # atno 17342 bound_to 10162
  139.5378  144.2731  152.1289 LP  0  0  0  0  0  0  0  0  0  0  0  0  # atno 17343 bound_to 10162
  156.0070  130.3851  150.2397 LP  0  0  0  0  0  0  0  0  0  0  0  0  # atno 17370 bound_to 10713
  157.0579  131.0081  151.3232 LP  0  0  0  0  0  0  0  0  0  0  0  0  # atno 17371 bound_to 10713
  141.2197  133.6865  156.7392 LP  0  0  0  0  0  0  0  0  0  0  0  0  # atno 17394 bound_to 11000
  140.2624  134.8456  157.3771 LP  0  0  0  0  0  0  0  0  0  0  0  0  # atno 17395 bound_to 11000

$$$$
