AV-unprocessed.smi:163|AV-procd|sdf|1380|dock1
  -GOLD-   2262019103D 1   1.00000     0.00000
 Structure written by MMmdl.
 48 51  0  0  0  0  0  0  0  0  1 V2000
  151.5966  136.4894  155.9449 N   0  0  0  0  0  0  0  0  0  0  0  0
  151.0064  137.0898  155.1508 C   0  0  0  0  0  0  0  0  0  0  0  0
  150.2578  137.8535  154.1384 C   0  0  0  0  0  0  0  0  0  0  0  0
  149.6568  139.1593  154.6750 C   0  0  0  0  0  0  0  0  0  0  0  0
  148.4330  139.2984  154.6710 O   0  0  0  0  0  0  0  0  0  0  0  0
  150.4942  140.1183  155.1345 N   0  0  0  0  0  0  0  0  0  0  0  0
  150.0770  141.3876  155.7411 C   0  0  0  0  0  0  0  0  0  0  0  0
  150.4418  141.3677  157.2369 C   0  0  0  0  0  0  0  0  0  0  0  0
  151.8628  141.0629  157.4222 N   0  0  0  0  0  0  0  0  0  0  0  0
  152.3379  141.2796  158.6756 C   0  0  0  0  0  0  0  0  0  0  0  0
  151.8345  142.2988  159.4228 N   0  0  0  0  0  0  0  0  0  0  0  0
  152.2983  142.5276  160.6547 C   0  0  0  0  0  0  0  0  0  0  0  0
  153.2448  141.8691  161.3252 N   0  0  0  0  0  0  0  0  0  0  0  0
  153.7512  140.8417  160.5853 C   0  0  0  0  0  0  0  0  0  0  0  0
  153.3562  140.4781  159.2665 C   0  0  0  0  0  0  0  0  0  0  0  0
  154.0775  139.3651  158.8496 N   0  0  0  0  0  0  0  0  0  0  0  0
  154.8596  139.0938  159.8580 C   0  0  0  0  0  0  0  0  0  0  0  0
  154.7379  139.9373  160.9392 N   0  0  0  0  0  0  0  0  0  0  0  0
  155.4790  139.8680  162.1901 C   0  0  0  0  0  0  0  0  0  0  0  0
  155.7065  138.4245  162.7020 C   0  0  1  0  0  0  0  0  0  0  0  0
  156.6962  137.8028  161.9029 O   0  0  0  0  0  0  0  0  0  0  0  0
  156.1538  138.3889  164.1652 C   0  0  0  0  0  0  0  0  0  0  0  0
  154.9353  137.8447  164.9006 C   0  0  0  0  0  0  0  0  0  0  0  0
  154.3953  136.9270  163.9670 O   0  0  0  0  0  0  0  0  0  0  0  0
  154.4312  137.5575  162.6949 C   0  0  0  0  0  0  0  0  0  0  0  0
  152.3617  139.8898  156.6973 C   0  0  0  0  0  0  0  0  0  0  0  0
  151.9489  139.9432  155.2148 C   0  0  0  0  0  0  0  0  0  0  0  0
  150.9451  138.0679  153.3197 H   0  0  0  0  0  0  0  0  0  0  0  0
  149.4667  137.2040  153.7618 H   0  0  0  0  0  0  0  0  0  0  0  0
  150.5981  142.2070  155.2436 H   0  0  0  0  0  0  0  0  0  0  0  0
  149.0161  141.6017  155.6229 H   0  0  0  0  0  0  0  0  0  0  0  0
  150.1777  142.3261  157.6812 H   0  0  0  0  0  0  0  0  0  0  0  0
  149.8508  140.6101  157.7537 H   0  0  0  0  0  0  0  0  0  0  0  0
  151.8459  143.3570  161.1780 H   0  0  0  0  0  0  0  0  0  0  0  0
  155.5507  138.2637  159.8392 H   0  0  0  0  0  0  0  0  0  0  0  0
  156.4357  140.3725  162.0482 H   0  0  0  0  0  0  0  0  0  0  0  0
  154.9375  140.4492  162.9376 H   0  0  0  0  0  0  0  0  0  0  0  0
  157.4984  137.7572  162.4004 H   0  0  0  0  0  0  0  0  0  0  0  0
  156.9877  137.6986  164.3039 H   0  0  0  0  0  0  0  0  0  0  0  0
  156.4688  139.3602  164.5482 H   0  0  0  0  0  0  0  0  0  0  0  0
  155.1916  137.3596  165.8427 H   0  0  0  0  0  0  0  0  0  0  0  0
  154.2122  138.6366  165.1026 H   0  0  0  0  0  0  0  0  0  0  0  0
  153.5358  138.1740  162.6126 H   0  0  0  0  0  0  0  0  0  0  0  0
  154.4031  136.8264  161.8858 H   0  0  0  0  0  0  0  0  0  0  0  0
  153.4490  139.8421  156.7710 H   0  0  0  0  0  0  0  0  0  0  0  0
  151.9651  138.9837  157.1580 H   0  0  0  0  0  0  0  0  0  0  0  0
  152.2989  139.0467  154.7016 H   0  0  0  0  0  0  0  0  0  0  0  0
  152.4392  140.7824  154.7193 H   0  0  0  0  0  0  0  0  0  0  0  0
  1  2  3  0  0  0  0
  2  3  1  0  0  0  0
  3  4  1  0  0  0  0
  3 28  1  0  0  0  0
  3 29  1  0  0  0  0
  4  5  2  0  0  0  0
  4  6  1  0  0  0  0
  6 27  1  0  0  0  0
  6  7  1  0  0  0  0
  7  8  1  0  0  0  0
  7 30  1  0  0  0  0
  7 31  1  0  0  0  0
  8  9  1  0  0  0  0
  8 32  1  0  0  0  0
  8 33  1  0  0  0  0
  9 10  1  0  0  0  0
  9 26  1  0  0  0  0
 10 15  1  0  0  0  0
 10 11  2  0  0  0  0
 11 12  1  0  0  0  0
 12 13  2  0  0  0  0
 12 34  1  0  0  0  0
 13 14  1  0  0  0  0
 14 18  1  0  0  0  0
 14 15  2  0  0  0  0
 15 16  1  0  0  0  0
 16 17  2  0  0  0  0
 17 18  1  0  0  0  0
 17 35  1  0  0  0  0
 18 19  1  0  0  0  0
 19 20  1  0  0  0  0
 19 36  1  0  0  0  0
 19 37  1  0  0  0  0
 20 25  1  0  0  0  0
 20 21  1  0  0  0  0
 20 22  1  0  0  0  0
 21 38  1  0  0  0  0
 22 23  1  0  0  0  0
 22 39  1  0  0  0  0
 22 40  1  0  0  0  0
 23 24  1  0  0  0  0
 23 41  1  0  0  0  0
 23 42  1  0  0  0  0
 24 25  1  0  0  0  0
 25 43  1  0  0  0  0
 25 44  1  0  0  0  0
 26 27  1  0  0  0  0
 26 45  1  0  0  0  0
 26 46  1  0  0  0  0
 27 47  1  0  0  0  0
 27 48  1  0  0  0  0
M  END
> <s_m_source_file>
AV-unprocessed.smi

> <i_m_source_file_index>
163

> <i_lp_mmshare_version>
43012

> <i_f3d_flags>
0

> <s_epik_input>
TiNDW0NIMl1DKD1PKU4xW0NIMl1bQ0gyXU4oW0NIMl1bQ0gyXTEpYyhuW2NIXW4yKWMoYzIzKW5bY0hdbjNbQ0gyXVtDQEBdNChbT0hdKVtDSDJdW0NIMl1PW0NIMl00

> <s_epik_cmdline>
J2VwaWtfcHl0aG9uJywgJy1waCcsICc3LjAnLCAnLXRuJywgJzgnLCAnLW1hJywgJzIwMCcsICctbWV0YWxfYmluZGluZycsICctaW1hZScsICc8aW5maWxlLm1hZT4nLCAnLW9tYWUnLCAnPG91dGZpbGUubWFlPic=

> <r_lp_tautomer_probability>
1

> <r_epik_Ionization_Penalty>
0.000981096

> <r_epik_Ionization_Penalty_Charging>
0

> <r_epik_Ionization_Penalty_Neutral>
0.000981096

> <r_epik_State_Penalty>
0.000482875

> <r_epik_Charging_Adjusted_Penalty>
0.000482875

> <i_epik_Tot_Q>
0

> <i_epik_Tot_abs_Q>
0

> <r_epik_Metal_State_Penalty>
-0

> <b_epik_Metal_Only>
0

> <s_lp_Force_Field>
OPLS_2005

> <r_lp_Energy>
52.1528

> <b_lp_Chiralities_Consistent>
1

> <s_lp_Variant>
AV-unprocessed.smi:163-1

> <Gold.Version>
5.8.1

> <Gold.Id.Protein>
6NUR|6NUR_protein|mol2

> <Gold.PLP.Fitness>
45.1563

> <Gold.PLP.PLP>
-40.3034

> <Gold.PLP.part.hbond>
-2.0000

> <Gold.PLP.part.metal>
0.0000

> <Gold.PLP.part.buried>
0.9889

> <Gold.PLP.part.nonpolar>
-38.7121

> <Gold.PLP.part.repulsive>
0.2123

> <Gold.PLP.ligand.clash>
0.0000

> <Gold.PLP.ligand.torsion>
0.8159

> <Gold.PLP.Chemscore.Hbond>
2.0000

> <Gold.PLP.Chemscore.CHOScore>
0.0000

> <Gold.PLP.Chemscore.Metal>
0.0000

> <Gold.Chemscore.Hbonds>
donor molecule, donor type, donor heavy atom, donor atom, acceptor molecule, acceptor atom, score
      P1  H  7997  8009       L1    16  1.00
      P1  H 10752 10763       L1     1  1.00

> <Gold.PLP.Chemscore.Internal.Correction>
0.4847

> <Gold.Rescore>
     Score         DG    S(hbond)    S(metal)    S(lipo)     H(rot)  DE(clash)    DE(int)     intcor
      8.72     -12.42       1.77        0.00      68.43       2.72       1.50       2.20       ----

> <Gold.Chemscore.Fitness>
8.7236

> <Gold.Chemscore.DG>
-12.4248

> <Gold.Chemscore.ZeroCoef>
-5.4800

> <Gold.Chemscore.Hbond>
1.7693

> <Gold.Chemscore.Metal>
0.0000

> <Gold.Chemscore.Lipo>
68.4286

> <Gold.Chemscore.Internal_Hbond>
0.0000

> <Gold.Chemscore.DEClash>
1.5006

> <Gold.Chemscore.DEInternal>
2.2006

> <Gold.Chemscore.Rot>
2.7230

> <Gold.Chemscore.Internal.Correction>
   9.000000E+99

> <Gold.Chemscore.Hbonds>
donor molecule, donor type, donor heavy atom, donor atom, acceptor molecule, acceptor atom, score
      P1  H  7997  8009       L1    16  0.32
      P1  H 10752 10763       L1     1  0.42

> <Gold.Chemscore.Hbond.Weighted>
-5.9096

> <Gold.Chemscore.Metal.Weighted>
-0.0000

> <Gold.Chemscore.Lipo.Weighted>
-8.0061

> <Gold.Chemscore.Internal_Hbond.Weighted>
0.0000

> <Gold.Chemscore.DEClash.Weighted>
1.5006

> <Gold.Chemscore.DEInternal.Weighted>
2.2006

> <Gold.Chemscore.Rot.Weighted>
6.9709

> <Gold.Chemscore.Internal.Correction.Weighted>
   9.000000E+99

> <Gold.Protein.RotatedTorsions>
[ 6907 6896 6895 6894 ] final  100.87 input  -60.11 | X-H torsion
[ 7974 7965 7964 7962 ] final -142.21 input  175.53 | X-H torsion
[ 8008 7997 7996 7995 ] final  130.57 input   59.86 | X-H torsion
[ 10167 10162 10161 10158 ] final  122.51 input  -65.29 | X-H torsion
[ 10718 10713 10712 10709 ] final  -57.20 input   66.30 | X-H torsion
[ 10763 10752 10751 10750 ] final   77.32 input  -60.55 | X-H torsion
[ 11005 11000 10999 10996 ] final  141.89 input  -57.11 | X-H torsion

> <Gold.Protein.ActiveResidues>
 VAL166  LYS551  ARG553  GLY616  TRP617  ASP618  TYR619  PRO620  LYS621  CYS622 
 ASP623  PHE694  ASN695  SER759  ASP760  ASP761  ALA762  ILE779  LEU786  VAL792 
 PHE793  MET794  SER795  GLU796  ALA797  LYS798  CYS799  TRP800  GLU811  SER814 

> <Gold.Protein.RotatedAtoms>
  152.5362  134.0212  159.7982 H   0  0  0  0  0  0  0  0  0  0  0  0  # atno 6907 bound_to 6896
  151.0398  133.5708  159.2659 H   0  0  0  0  0  0  0  0  0  0  0  0  # atno 6908 bound_to 6896
  151.2682  135.0683  159.9178 H   0  0  0  0  0  0  0  0  0  0  0  0  # atno 6909 bound_to 6896
  144.8461  140.5986  143.5421 H   0  0  0  0  0  0  0  0  0  0  0  0  # atno 7974 bound_to 7965
  156.2956  140.2592  156.2784 H   0  0  0  0  0  0  0  0  0  0  0  0  # atno 8008 bound_to 7997
  154.9626  140.0392  157.2216 H   0  0  0  0  0  0  0  0  0  0  0  0  # atno 8009 bound_to 7997
  154.7932  140.2815  155.5980 H   0  0  0  0  0  0  0  0  0  0  0  0  # atno 8010 bound_to 7997
  139.5854  144.7004  151.3422 H   0  0  0  0  0  0  0  0  0  0  0  0  # atno 10167 bound_to 10162
  156.1229  130.4165  150.0408 H   0  0  0  0  0  0  0  0  0  0  0  0  # atno 10718 bound_to 10713
  153.0790  135.4918  154.8464 H   0  0  0  0  0  0  0  0  0  0  0  0  # atno 10763 bound_to 10752
  154.7126  135.3023  154.9176 H   0  0  0  0  0  0  0  0  0  0  0  0  # atno 10764 bound_to 10752
  153.9865  135.6783  153.4805 H   0  0  0  0  0  0  0  0  0  0  0  0  # atno 10765 bound_to 10752
  140.0435  134.9292  157.0888 H   0  0  0  0  0  0  0  0  0  0  0  0  # atno 11005 bound_to 11000
  145.4595  139.1514  143.3874 LP  0  0  0  0  0  0  0  0  0  0  0  0  # atno 17320 bound_to 7965
  146.2745  140.4724  142.8801 LP  0  0  0  0  0  0  0  0  0  0  0  0  # atno 17321 bound_to 7965
  140.7127  143.7349  150.7596 LP  0  0  0  0  0  0  0  0  0  0  0  0  # atno 17342 bound_to 10162
  140.0892  143.4894  152.2488 LP  0  0  0  0  0  0  0  0  0  0  0  0  # atno 17343 bound_to 10162
  156.8342  130.9403  151.3635 LP  0  0  0  0  0  0  0  0  0  0  0  0  # atno 17370 bound_to 10713
  157.6412  130.8807  149.9451 LP  0  0  0  0  0  0  0  0  0  0  0  0  # atno 17371 bound_to 10713
  140.4030  134.2062  155.7163 LP  0  0  0  0  0  0  0  0  0  0  0  0  # atno 17394 bound_to 11000
  141.1895  133.8236  157.0953 LP  0  0  0  0  0  0  0  0  0  0  0  0  # atno 17395 bound_to 11000

$$$$
