AV-unprocessed.smi:3348|AV-procd|sdf|12921|dock7
  -GOLD-   2272019343D 1   1.00000     0.00000
 Structure written by MMmdl.
 47 48  0  0  0  0  0  0  0  0  2 V2000
  145.6386  129.4408  151.8403 C   0  0  0  0  0  0  0  0  0  0  0  0
  146.6202  130.2372  152.7153 C   0  0  2  0  0  0  0  0  0  0  0  0
  146.6220  131.7269  152.3207 C   0  0  0  0  0  0  0  0  0  0  0  0
  145.6465  132.0255  151.2869 N   0  0  0  0  0  0  0  0  0  0  0  0
  145.8316  132.0582  149.9206 C   0  0  0  0  0  0  0  0  0  0  0  0
  144.6308  132.3791  149.3557 C   0  0  0  0  0  0  0  0  0  0  0  0
  143.7602  132.5267  150.4716 C   0  0  0  0  0  0  0  0  0  0  0  0
  144.3704  132.3113  151.6264 N   0  0  0  0  0  0  0  0  0  0  0  0
  147.9868  129.6773  152.6100 N   0  3  0  0  0  0  0  0  0  0  0  0
  148.8816  129.9822  153.7455 C   0  0  0  0  0  0  0  0  0  0  0  0
  149.7656  128.7776  154.0823 C   0  0  0  0  0  0  0  0  0  0  0  0
  150.1108  128.8454  155.4579 O   0  0  0  0  0  0  0  0  0  0  0  0
  151.5045  128.9742  155.7129 C   0  0  1  0  0  0  0  0  0  0  0  0
  152.2766  127.8706  154.9583 C   0  0  0  0  0  0  0  0  0  0  0  0
  153.7957  128.0502  155.0937 C   0  0  0  0  0  0  0  0  0  0  0  0
  154.2302  129.4428  154.6172 C   0  0  0  0  0  0  0  0  0  0  0  0
  153.4712  130.5452  155.3708 C   0  0  0  0  0  0  0  0  0  0  0  0
  151.9436  130.3794  155.2412 C   0  0  2  0  0  0  0  0  0  0  0  0
  151.2116  131.4927  156.0085 C   0  0  0  0  0  0  0  0  0  0  0  0
  144.6309  129.8510  151.9115 H   0  0  0  0  0  0  0  0  0  0  0  0
  145.5813  128.3957  152.1442 H   0  0  0  0  0  0  0  0  0  0  0  0
  145.9324  129.4671  150.7904 H   0  0  0  0  0  0  0  0  0  0  0  0
  146.2932  130.1665  153.7541 H   0  0  0  0  0  0  0  0  0  0  0  0
  146.4293  132.3606  153.1882 H   0  0  0  0  0  0  0  0  0  0  0  0
  147.6042  132.0124  151.9414 H   0  0  0  0  0  0  0  0  0  0  0  0
  146.7911  131.8526  149.4688 H   0  0  0  0  0  0  0  0  0  0  0  0
  144.4082  132.4932  148.3051 H   0  0  0  0  0  0  0  0  0  0  0  0
  142.7106  132.7807  150.4760 H   0  0  0  0  0  0  0  0  0  0  0  0
  147.9221  128.6755  152.4963 H   0  0  0  0  0  0  0  0  0  0  0  0
  149.5112  130.8307  153.4758 H   0  0  0  0  0  0  0  0  0  0  0  0
  148.3048  130.2755  154.6225 H   0  0  0  0  0  0  0  0  0  0  0  0
  149.2421  127.8466  153.8582 H   0  0  0  0  0  0  0  0  0  0  0  0
  150.6640  128.8051  153.4660 H   0  0  0  0  0  0  0  0  0  0  0  0
  151.7014  128.8929  156.7837 H   0  0  0  0  0  0  0  0  0  0  0  0
  152.0007  126.8839  155.3292 H   0  0  0  0  0  0  0  0  0  0  0  0
  152.0028  127.8900  153.9024 H   0  0  0  0  0  0  0  0  0  0  0  0
  154.0900  127.9097  156.1345 H   0  0  0  0  0  0  0  0  0  0  0  0
  154.3140  127.2826  154.5184 H   0  0  0  0  0  0  0  0  0  0  0  0
  155.3041  129.5668  154.7590 H   0  0  0  0  0  0  0  0  0  0  0  0
  154.0463  129.5378  153.5465 H   0  0  0  0  0  0  0  0  0  0  0  0
  153.7564  130.5260  156.4237 H   0  0  0  0  0  0  0  0  0  0  0  0
  153.7743  131.5203  154.9877 H   0  0  0  0  0  0  0  0  0  0  0  0
  151.6859  130.4795  154.1855 H   0  0  0  0  0  0  0  0  0  0  0  0
  151.4133  131.4349  157.0784 H   0  0  0  0  0  0  0  0  0  0  0  0
  150.1322  131.4297  155.8691 H   0  0  0  0  0  0  0  0  0  0  0  0
  151.5270  132.4778  155.6635 H   0  0  0  0  0  0  0  0  0  0  0  0
  148.4116  130.0647  151.7786 H   0  0  0  0  0  0  0  0  0  0  0  0
  1  2  1  0  0  0  0
  1 20  1  0  0  0  0
  1 21  1  0  0  0  0
  1 22  1  0  0  0  0
  2  3  1  0  0  0  0
  2  9  1  0  0  0  0
  2 23  1  0  0  0  0
  3  4  1  0  0  0  0
  3 24  1  0  0  0  0
  3 25  1  0  0  0  0
  4  8  1  0  0  0  0
  4  5  1  0  0  0  0
  5  6  2  0  0  0  0
  5 26  1  0  0  0  0
  6  7  1  0  0  0  0
  6 27  1  0  0  0  0
  7  8  2  0  0  0  0
  7 28  1  0  0  0  0
  9 10  1  0  0  0  0
  9 29  1  0  0  0  0
  9 47  1  0  0  0  0
 10 11  1  0  0  0  0
 10 30  1  0  0  0  0
 10 31  1  0  0  0  0
 11 12  1  0  0  0  0
 11 32  1  0  0  0  0
 11 33  1  0  0  0  0
 12 13  1  0  0  0  0
 13 18  1  0  0  0  0
 13 14  1  0  0  0  0
 13 34  1  0  0  0  0
 14 15  1  0  0  0  0
 14 35  1  0  0  0  0
 14 36  1  0  0  0  0
 15 16  1  0  0  0  0
 15 37  1  0  0  0  0
 15 38  1  0  0  0  0
 16 17  1  0  0  0  0
 16 39  1  0  0  0  0
 16 40  1  0  0  0  0
 17 18  1  0  0  0  0
 17 41  1  0  0  0  0
 17 42  1  0  0  0  0
 18 19  1  0  0  0  0
 18 43  1  0  0  0  0
 19 44  1  0  0  0  0
 19 45  1  0  0  0  0
 19 46  1  0  0  0  0
M  CHG  1   9   1
M  END
> <s_m_source_file>
AV-unprocessed.smi

> <i_m_source_file_index>
3348

> <i_lp_mmshare_version>
43012

> <i_f3d_flags>
0

> <s_epik_input>
bjFbY0hdW2NIXVtjSF1uMVtDSDJdW0NAQEhdKFtDSDNdKVtOSF1bQ0gyXVtDSDJdT1tDQEBIXTJbQ0gyXVtDSDJdW0NIMl1bQ0gyXVtDQEhdMltDSDNd

> <s_epik_cmdline>
J2VwaWtfcHl0aG9uJywgJy1waCcsICc3LjAnLCAnLXRuJywgJzgnLCAnLW1hJywgJzIwMCcsICctbWV0YWxfYmluZGluZycsICctaW1hZScsICc8aW5maWxlLm1hZT4nLCAnLW9tYWUnLCAnPG91dGZpbGUubWFlPic=

> <r_lp_tautomer_probability>
1

> <r_epik_Ionization_Penalty>
0.00925088

> <r_epik_Ionization_Penalty_Charging>
0.00924645

> <r_epik_Ionization_Penalty_Neutral>
4.42413e-06

> <r_epik_State_Penalty>
0.0070118

> <r_epik_Charging_Adjusted_Penalty>
0.0162583

> <i_epik_Tot_Q>
1

> <i_epik_Tot_abs_Q>
1

> <r_epik_Metal_State_Penalty>
0.00701222

> <b_epik_Metal_Only>
0

> <s_lp_Force_Field>
OPLS_2005

> <r_lp_Energy>
15.6253

> <b_lp_Chiralities_Consistent>
1

> <s_lp_Variant>
AV-unprocessed.smi:3348-7

> <Gold.Version>
5.8.1

> <Gold.Id.Protein>
6NUR|6NUR_protein|mol2

> <Gold.PLP.Fitness>
42.7343

> <Gold.PLP.PLP>
-37.9144

> <Gold.PLP.part.hbond>
-1.0000

> <Gold.PLP.part.metal>
0.0000

> <Gold.PLP.part.buried>
-4.1738

> <Gold.PLP.part.nonpolar>
-32.1451

> <Gold.PLP.part.repulsive>
0.2149

> <Gold.PLP.ligand.clash>
0.0000

> <Gold.PLP.ligand.torsion>
2.1465

> <Gold.PLP.Chemscore.Hbond>
1.0000

> <Gold.PLP.Chemscore.CHOScore>
1.9992

> <Gold.PLP.Chemscore.Metal>
0.0000

> <Gold.Chemscore.Hbonds>
donor molecule, donor type, donor heavy atom, donor atom, acceptor molecule, acceptor atom, score
      L1  H     9    47       P1 10747  1.00
      L1  C     5    26       P1 10747  1.00
      L1  C     7    28       P1 10186  0.99

> <Gold.PLP.Chemscore.Internal.Correction>
0.1154

> <Gold.Rescore>
     Score         DG    S(hbond)    S(metal)    S(lipo)     H(rot)  DE(clash)    DE(int)     intcor
     13.45     -15.98       0.91        0.00     103.60       1.82       0.40       2.13       ----

> <Gold.Chemscore.Fitness>
13.4492

> <Gold.Chemscore.DG>
-15.9785

> <Gold.Chemscore.ZeroCoef>
-5.4800

> <Gold.Chemscore.Hbond>
0.9062

> <Gold.Chemscore.Metal>
0.0000

> <Gold.Chemscore.Lipo>
103.6028

> <Gold.Chemscore.Internal_Hbond>
0.0000

> <Gold.Chemscore.DEClash>
0.3953

> <Gold.Chemscore.DEInternal>
2.1340

> <Gold.Chemscore.Rot>
1.8163

> <Gold.Chemscore.Internal.Correction>
   9.000000E+99

> <Gold.Chemscore.Hbonds>
donor molecule, donor type, donor heavy atom, donor atom, acceptor molecule, acceptor atom, score
      L1  H     9    47       P1 10747  0.70

> <Gold.Chemscore.Hbond.Weighted>
-3.0267

> <Gold.Chemscore.Metal.Weighted>
-0.0000

> <Gold.Chemscore.Lipo.Weighted>
-12.1215

> <Gold.Chemscore.Internal_Hbond.Weighted>
0.0000

> <Gold.Chemscore.DEClash.Weighted>
0.3953

> <Gold.Chemscore.DEInternal.Weighted>
2.1340

> <Gold.Chemscore.Rot.Weighted>
4.6497

> <Gold.Chemscore.Internal.Correction.Weighted>
   9.000000E+99

> <Gold.Protein.RotatedTorsions>
[ 6907 6896 6895 6894 ] final  -54.07 input  -60.11 | X-H torsion
[ 7974 7965 7964 7962 ] final   -2.38 input  175.53 | X-H torsion
[ 8008 7997 7996 7995 ] final  126.78 input   59.86 | X-H torsion
[ 10167 10162 10161 10158 ] final   86.20 input  -65.29 | X-H torsion
[ 10718 10713 10712 10709 ] final   53.86 input   66.30 | X-H torsion
[ 10763 10752 10751 10750 ] final   63.10 input  -60.55 | X-H torsion
[ 11005 11000 10999 10996 ] final  137.27 input  -57.11 | X-H torsion

> <Gold.Protein.ActiveResidues>
 VAL166  LYS551  ARG553  GLY616  TRP617  ASP618  TYR619  PRO620  LYS621  CYS622 
 ASP623  PHE694  ASN695  SER759  ASP760  ASP761  ALA762  ILE779  LEU786  VAL792 
 PHE793  MET794  SER795  GLU796  ALA797  LYS798  CYS799  TRP800  GLU811  SER814 

> <Gold.Protein.RotatedAtoms>
  150.8371  134.7648  159.6901 H   0  0  0  0  0  0  0  0  0  0  0  0  # atno 6907 bound_to 6896
  152.4465  134.5480  159.9868 H   0  0  0  0  0  0  0  0  0  0  0  0  # atno 6908 bound_to 6896
  151.5628  133.3363  159.3010 H   0  0  0  0  0  0  0  0  0  0  0  0  # atno 6909 bound_to 6896
  146.2405  140.1561  142.8333 H   0  0  0  0  0  0  0  0  0  0  0  0  # atno 7974 bound_to 7965
  156.2873  140.2684  156.2167 H   0  0  0  0  0  0  0  0  0  0  0  0  # atno 8008 bound_to 7997
  155.0209  140.0386  157.2455 H   0  0  0  0  0  0  0  0  0  0  0  0  # atno 8009 bound_to 7997
  154.7436  140.2729  155.6357 H   0  0  0  0  0  0  0  0  0  0  0  0  # atno 8010 bound_to 7997
  139.8899  144.6391  150.8750 H   0  0  0  0  0  0  0  0  0  0  0  0  # atno 10167 bound_to 10162
  157.5205  130.8562  149.8552 H   0  0  0  0  0  0  0  0  0  0  0  0  # atno 10718 bound_to 10713
  153.0006  135.5441  154.6299 H   0  0  0  0  0  0  0  0  0  0  0  0  # atno 10763 bound_to 10752
  154.5579  135.2831  155.0949 H   0  0  0  0  0  0  0  0  0  0  0  0  # atno 10764 bound_to 10752
  154.2164  135.6458  153.5183 H   0  0  0  0  0  0  0  0  0  0  0  0  # atno 10765 bound_to 10752
  140.0103  134.9442  157.0263 H   0  0  0  0  0  0  0  0  0  0  0  0  # atno 11005 bound_to 11000
  145.0127  140.8728  143.5214 LP  0  0  0  0  0  0  0  0  0  0  0  0  # atno 17320 bound_to 7965
  145.1598  139.2465  143.5397 LP  0  0  0  0  0  0  0  0  0  0  0  0  # atno 17321 bound_to 7965
  140.7728  143.3518  151.1999 LP  0  0  0  0  0  0  0  0  0  0  0  0  # atno 17342 bound_to 10162
  139.7119  143.9363  152.2951 LP  0  0  0  0  0  0  0  0  0  0  0  0  # atno 17343 bound_to 10162
  156.0350  130.3754  150.1585 LP  0  0  0  0  0  0  0  0  0  0  0  0  # atno 17370 bound_to 10713
  156.9772  130.9853  151.3445 LP  0  0  0  0  0  0  0  0  0  0  0  0  # atno 17371 bound_to 10713
  140.4567  134.1526  155.7187 LP  0  0  0  0  0  0  0  0  0  0  0  0  # atno 17394 bound_to 11000
  141.1706  133.8616  157.1582 LP  0  0  0  0  0  0  0  0  0  0  0  0  # atno 17395 bound_to 11000

$$$$
