AV-unprocessed.smi:3152|AV-procd|sdf|12017|dock9
  -GOLD-   2272017433D 1   1.00000     0.00000
 Structure written by MMmdl.
 41 42  0  0  0  0  0  0  0  0  2 V2000
  143.7450  132.9280  151.8617 C   0  0  0  0  0  0  0  0  0  0  0  0
  144.4131  134.2691  151.7626 C   0  0  0  0  0  0  0  0  0  0  0  0
  144.9144  134.9096  150.5939 C   0  0  0  0  0  0  0  0  0  0  0  0
  145.4463  136.0948  150.8452 N   0  0  0  0  0  0  0  0  0  0  0  0
  145.3025  136.2533  152.1777 N   0  0  0  0  0  0  0  0  0  0  0  0
  145.7809  137.4670  152.8104 C   0  0  0  0  0  0  0  0  0  0  0  0
  146.3976  138.4316  151.7875 C   0  0  0  0  0  0  0  0  0  0  0  0
  147.8325  138.6462  152.0550 N   0  3  0  0  0  0  0  0  0  0  0  0
  148.1222  139.1348  153.4198 C   0  0  0  0  0  0  0  0  0  0  0  0
  149.5224  139.7778  153.5330 C   0  0  0  0  0  0  0  0  0  0  0  0
  149.5797  140.8299  152.5861 O   0  0  0  0  0  0  0  0  0  0  0  0
  149.7858  140.3433  154.9508 C   0  0  0  0  0  0  0  0  0  0  0  0
  151.2232  140.8629  155.1326 C   0  0  0  0  0  0  0  0  0  0  0  0
  152.2584  139.7871  154.7763 C   0  0  0  0  0  0  0  0  0  0  0  0
  152.0403  139.2674  153.3488 C   0  0  0  0  0  0  0  0  0  0  0  0
  150.6069  138.7392  153.1593 C   0  0  0  0  0  0  0  0  0  0  0  0
  144.6843  135.1657  152.7575 C   0  0  0  0  0  0  0  0  0  0  0  0
  144.1438  132.2230  151.1321 H   0  0  0  0  0  0  0  0  0  0  0  0
  142.6720  133.0012  151.6847 H   0  0  0  0  0  0  0  0  0  0  0  0
  143.8792  132.4798  152.8466 H   0  0  0  0  0  0  0  0  0  0  0  0
  144.9066  134.5499  149.5754 H   0  0  0  0  0  0  0  0  0  0  0  0
  144.9465  137.9422  153.3282 H   0  0  0  0  0  0  0  0  0  0  0  0
  146.5136  137.1944  153.5714 H   0  0  0  0  0  0  0  0  0  0  0  0
  146.2817  138.0336  150.7783 H   0  0  0  0  0  0  0  0  0  0  0  0
  145.8776  139.3900  151.8184 H   0  0  0  0  0  0  0  0  0  0  0  0
  148.3241  137.7739  151.9209 H   0  0  0  0  0  0  0  0  0  0  0  0
  147.3584  139.8612  153.7020 H   0  0  0  0  0  0  0  0  0  0  0  0
  148.0343  138.3002  154.1172 H   0  0  0  0  0  0  0  0  0  0  0  0
  149.1208  140.5560  151.8059 H   0  0  0  0  0  0  0  0  0  0  0  0
  149.0838  141.1453  155.1823 H   0  0  0  0  0  0  0  0  0  0  0  0
  149.6031  139.5602  155.6882 H   0  0  0  0  0  0  0  0  0  0  0  0
  151.3803  141.7430  154.5077 H   0  0  0  0  0  0  0  0  0  0  0  0
  151.3701  141.1894  156.1626 H   0  0  0  0  0  0  0  0  0  0  0  0
  153.2660  140.1923  154.8754 H   0  0  0  0  0  0  0  0  0  0  0  0
  152.1866  138.9595  155.4833 H   0  0  0  0  0  0  0  0  0  0  0  0
  152.2407  140.0652  152.6329 H   0  0  0  0  0  0  0  0  0  0  0  0
  152.7571  138.4750  153.1312 H   0  0  0  0  0  0  0  0  0  0  0  0
  150.4822  137.8512  153.7807 H   0  0  0  0  0  0  0  0  0  0  0  0
  150.4736  138.4054  152.1292 H   0  0  0  0  0  0  0  0  0  0  0  0
  144.4878  135.1199  153.8186 H   0  0  0  0  0  0  0  0  0  0  0  0
  148.1865  139.3207  151.3918 H   0  0  0  0  0  0  0  0  0  0  0  0
  1  2  1  0  0  0  0
  1 18  1  0  0  0  0
  1 19  1  0  0  0  0
  1 20  1  0  0  0  0
  2 17  2  0  0  0  0
  2  3  1  0  0  0  0
  3  4  2  0  0  0  0
  3 21  1  0  0  0  0
  4  5  1  0  0  0  0
  5  6  1  0  0  0  0
  5 17  1  0  0  0  0
  6  7  1  0  0  0  0
  6 22  1  0  0  0  0
  6 23  1  0  0  0  0
  7  8  1  0  0  0  0
  7 24  1  0  0  0  0
  7 25  1  0  0  0  0
  8  9  1  0  0  0  0
  8 26  1  0  0  0  0
  8 41  1  0  0  0  0
  9 10  1  0  0  0  0
  9 27  1  0  0  0  0
  9 28  1  0  0  0  0
 10 16  1  0  0  0  0
 10 11  1  0  0  0  0
 10 12  1  0  0  0  0
 11 29  1  0  0  0  0
 12 13  1  0  0  0  0
 12 30  1  0  0  0  0
 12 31  1  0  0  0  0
 13 14  1  0  0  0  0
 13 32  1  0  0  0  0
 13 33  1  0  0  0  0
 14 15  1  0  0  0  0
 14 34  1  0  0  0  0
 14 35  1  0  0  0  0
 15 16  1  0  0  0  0
 15 36  1  0  0  0  0
 15 37  1  0  0  0  0
 16 38  1  0  0  0  0
 16 39  1  0  0  0  0
 17 40  1  0  0  0  0
M  CHG  1   8   1
M  END
> <s_m_source_file>
AV-unprocessed.smi

> <i_m_source_file_index>
3152

> <i_lp_mmshare_version>
43012

> <i_f3d_flags>
0

> <s_epik_input>
W0NIM11jMVtjSF1ubihbY0hdMSlbQ0gyXVtDSDJdW05IXVtDSDJdQzIoW09IXSlbQ0gyXVtDSDJdW0NIMl1bQ0gyXVtDSDJdMg==

> <s_epik_cmdline>
J2VwaWtfcHl0aG9uJywgJy1waCcsICc3LjAnLCAnLXRuJywgJzgnLCAnLW1hJywgJzIwMCcsICctbWV0YWxfYmluZGluZycsICctaW1hZScsICc8aW5maWxlLm1hZT4nLCAnLW9tYWUnLCAnPG91dGZpbGUubWFlPic=

> <r_lp_tautomer_probability>
1

> <r_epik_Ionization_Penalty>
0.0240188

> <r_epik_Ionization_Penalty_Charging>
0.0240119

> <r_epik_Ionization_Penalty_Neutral>
6.9154e-06

> <r_epik_State_Penalty>
0.0194671

> <r_epik_Charging_Adjusted_Penalty>
0.043479

> <i_epik_Tot_Q>
1

> <i_epik_Tot_abs_Q>
1

> <r_epik_Metal_State_Penalty>
0.0195537

> <b_epik_Metal_Only>
0

> <s_lp_Force_Field>
OPLS_2005

> <r_lp_Energy>
14.7618

> <b_lp_Chiralities_Consistent>
1

> <s_lp_Variant>
AV-unprocessed.smi:3152-1

> <Gold.Version>
5.8.1

> <Gold.Id.Protein>
6NUR|6NUR_protein|mol2

> <Gold.PLP.Fitness>
51.8068

> <Gold.PLP.PLP>
-36.6228

> <Gold.PLP.part.hbond>
-4.6476

> <Gold.PLP.part.metal>
0.0000

> <Gold.PLP.part.buried>
-4.6630

> <Gold.PLP.part.nonpolar>
-28.8507

> <Gold.PLP.part.repulsive>
0.9018

> <Gold.PLP.ligand.clash>
0.0000

> <Gold.PLP.ligand.torsion>
0.4638

> <Gold.PLP.Chemscore.Hbond>
4.3680

> <Gold.PLP.Chemscore.CHOScore>
1.0000

> <Gold.PLP.Chemscore.Metal>
0.0000

> <Gold.Chemscore.Hbonds>
donor molecule, donor type, donor heavy atom, donor atom, acceptor molecule, acceptor atom, score
      L1  H     8    26       P1  7948  2.00
      L1  H     8    41       P1  7957  0.72
      P1  H  8011  8017       L1    11  1.00
      L1  C     3    21       P1  7921  1.00

> <Gold.PLP.Chemscore.Internal.Correction>
0.0075

> <Gold.Rescore>
     Score         DG    S(hbond)    S(metal)    S(lipo)     H(rot)  DE(clash)    DE(int)     intcor
     18.89     -19.94       3.33        0.00      75.82       2.17       0.32       0.73       ----

> <Gold.Chemscore.Fitness>
18.8894

> <Gold.Chemscore.DG>
-19.9361

> <Gold.Chemscore.ZeroCoef>
-5.4800

> <Gold.Chemscore.Hbond>
3.3343

> <Gold.Chemscore.Metal>
0.0000

> <Gold.Chemscore.Lipo>
75.8195

> <Gold.Chemscore.Internal_Hbond>
0.0000

> <Gold.Chemscore.DEClash>
0.3168

> <Gold.Chemscore.DEInternal>
0.7299

> <Gold.Chemscore.Rot>
2.1685

> <Gold.Chemscore.Internal.Correction>
   9.000000E+99

> <Gold.Chemscore.Hbonds>
donor molecule, donor type, donor heavy atom, donor atom, acceptor molecule, acceptor atom, score
      L1  H     8    26       P1  7948  0.99
      L1  H     8    41       P1  7957  0.61
      P1  H  8011  8017       L1    11  0.34

> <Gold.Chemscore.Hbond.Weighted>
-11.1366

> <Gold.Chemscore.Metal.Weighted>
-0.0000

> <Gold.Chemscore.Lipo.Weighted>
-8.8709

> <Gold.Chemscore.Internal_Hbond.Weighted>
0.0000

> <Gold.Chemscore.DEClash.Weighted>
0.3168

> <Gold.Chemscore.DEInternal.Weighted>
0.7299

> <Gold.Chemscore.Rot.Weighted>
5.5514

> <Gold.Chemscore.Internal.Correction.Weighted>
   9.000000E+99

> <Gold.Protein.RotatedTorsions>
[ 6907 6896 6895 6894 ] final  161.31 input  -60.11 | X-H torsion
[ 7974 7965 7964 7962 ] final -139.15 input  175.53 | X-H torsion
[ 8008 7997 7996 7995 ] final  -97.38 input   59.86 | X-H torsion
[ 10167 10162 10161 10158 ] final -124.53 input  -65.29 | X-H torsion
[ 10718 10713 10712 10709 ] final  142.25 input   66.30 | X-H torsion
[ 10763 10752 10751 10750 ] final   74.29 input  -60.55 | X-H torsion
[ 11005 11000 10999 10996 ] final  179.47 input  -57.11 | X-H torsion

> <Gold.Protein.ActiveResidues>
 VAL166  LYS551  ARG553  GLY616  TRP617  ASP618  TYR619  PRO620  LYS621  CYS622 
 ASP623  PHE694  ASN695  SER759  ASP760  ASP761  ALA762  ILE779  LEU786  VAL792 
 PHE793  MET794  SER795  GLU796  ALA797  LYS798  CYS799  TRP800  GLU811  SER814 

> <Gold.Protein.RotatedAtoms>
  151.9575  133.3685  159.4022 H   0  0  0  0  0  0  0  0  0  0  0  0  # atno 6907 bound_to 6896
  150.6970  134.4275  159.5242 H   0  0  0  0  0  0  0  0  0  0  0  0  # atno 6908 bound_to 6896
  152.1959  134.8631  160.0563 H   0  0  0  0  0  0  0  0  0  0  0  0  # atno 6909 bound_to 6896
  144.8700  140.6352  143.5273 H   0  0  0  0  0  0  0  0  0  0  0  0  # atno 7974 bound_to 7965
  154.7870  140.0463  157.1172 H   0  0  0  0  0  0  0  0  0  0  0  0  # atno 8008 bound_to 7997
  154.9636  140.3080  155.5000 H   0  0  0  0  0  0  0  0  0  0  0  0  # atno 8009 bound_to 7997
  156.2944  140.2266  156.4723 H   0  0  0  0  0  0  0  0  0  0  0  0  # atno 8010 bound_to 7997
  139.9918  143.5633  152.2339 H   0  0  0  0  0  0  0  0  0  0  0  0  # atno 10167 bound_to 10162
  157.3827  131.0994  151.0723 H   0  0  0  0  0  0  0  0  0  0  0  0  # atno 10718 bound_to 10713
  153.0577  135.5031  154.8021 H   0  0  0  0  0  0  0  0  0  0  0  0  # atno 10763 bound_to 10752
  154.6834  135.2972  154.9584 H   0  0  0  0  0  0  0  0  0  0  0  0  # atno 10764 bound_to 10752
  154.0363  135.6723  153.4838 H   0  0  0  0  0  0  0  0  0  0  0  0  # atno 10765 bound_to 10752
  140.4066  134.6730  157.4591 H   0  0  0  0  0  0  0  0  0  0  0  0  # atno 11005 bound_to 11000
  145.4148  139.1574  143.4106 LP  0  0  0  0  0  0  0  0  0  0  0  0  # atno 17320 bound_to 7965
  146.2923  140.4255  142.8735 LP  0  0  0  0  0  0  0  0  0  0  0  0  # atno 17321 bound_to 7965
  139.6334  144.7647  151.2488 LP  0  0  0  0  0  0  0  0  0  0  0  0  # atno 17342 bound_to 10162
  140.7452  143.6439  150.8309 LP  0  0  0  0  0  0  0  0  0  0  0  0  # atno 17343 bound_to 10162
  157.1786  130.6299  149.5664 LP  0  0  0  0  0  0  0  0  0  0  0  0  # atno 17370 bound_to 10713
  155.9779  130.4761  150.6624 LP  0  0  0  0  0  0  0  0  0  0  0  0  # atno 17371 bound_to 10713
  140.0298  134.6423  155.9122 LP  0  0  0  0  0  0  0  0  0  0  0  0  # atno 17394 bound_to 11000
  141.1837  133.6551  156.5127 LP  0  0  0  0  0  0  0  0  0  0  0  0  # atno 17395 bound_to 11000

$$$$
