AV-unprocessed.smi:1579|AV-procd|sdf|6354|dock1
  -GOLD-   22720 6573D 1   1.00000     0.00000
 Structure written by MMmdl.
 47 48  0  0  0  0  0  0  0  0  2 V2000
  147.4025  137.3283  157.9430 C   0  0  0  0  0  0  0  0  0  0  0  0
  148.2508  138.0799  156.9527 C   0  0  0  0  0  0  0  0  0  0  0  0
  147.6631  138.4857  155.8752 N   0  0  0  0  0  0  0  0  0  0  0  0
  148.3485  139.1822  154.8991 N   0  0  0  0  0  0  0  0  0  0  0  0
  147.5200  139.5502  153.7428 C   0  0  0  0  0  0  0  0  0  0  0  0
  147.3666  138.3930  152.7316 C   0  0  2  0  0  0  0  0  0  0  0  0
  147.4027  138.9587  151.4361 O   0  0  0  0  0  0  0  0  0  0  0  0
  146.0488  137.6038  152.9010 C   0  0  0  0  0  0  0  0  0  0  0  0
  146.1314  136.2108  152.3916 N   0  3  2  0  0  0  0  0  0  0  0  0
  145.0528  135.9121  151.4144 C   0  0  0  0  0  0  0  0  0  0  0  0
  145.2303  134.5149  150.7976 C   0  0  0  0  0  0  0  0  0  0  0  0
  145.2798  133.4276  151.8837 C   0  0  1  0  0  0  0  0  0  0  0  0
  145.4818  132.0302  151.2812 C   0  0  0  0  0  0  0  0  0  0  0  0
  146.3818  133.7781  152.8973 C   0  0  0  0  0  0  0  0  0  0  0  0
  146.1825  135.1904  153.4731 C   0  0  0  0  0  0  0  0  0  0  0  0
  149.6689  139.5175  154.9688 C   0  0  0  0  0  0  0  0  0  0  0  0
  150.2369  140.1643  154.0876 O   0  0  0  0  0  0  0  0  0  0  0  0
  150.3299  139.0511  156.1894 C   0  0  0  0  0  0  0  0  0  0  0  0
  151.7159  139.3747  156.2971 C   0  0  0  0  0  0  0  0  0  0  0  0
  152.8414  139.6360  156.3652 N   0  0  0  0  0  0  0  0  0  0  0  0
  149.6684  138.3621  157.1526 C   0  0  0  0  0  0  0  0  0  0  0  0
  150.3091  137.8581  158.4384 C   0  0  0  0  0  0  0  0  0  0  0  0
  147.8177  136.3390  158.1371 H   0  0  0  0  0  0  0  0  0  0  0  0
  146.3814  137.1911  157.5839 H   0  0  0  0  0  0  0  0  0  0  0  0
  147.3481  137.8645  158.8905 H   0  0  0  0  0  0  0  0  0  0  0  0
  146.5383  139.9168  154.0481 H   0  0  0  0  0  0  0  0  0  0  0  0
  147.9924  140.4010  153.2476 H   0  0  0  0  0  0  0  0  0  0  0  0
  148.2292  137.7349  152.8275 H   0  0  0  0  0  0  0  0  0  0  0  0
  148.0321  139.6630  151.4245 H   0  0  0  0  0  0  0  0  0  0  0  0
  145.7476  137.5653  153.9478 H   0  0  0  0  0  0  0  0  0  0  0  0
  145.2573  138.1437  152.3788 H   0  0  0  0  0  0  0  0  0  0  0  0
  144.0819  135.9870  151.9069 H   0  0  0  0  0  0  0  0  0  0  0  0
  145.0622  136.6559  150.6167 H   0  0  0  0  0  0  0  0  0  0  0  0
  144.4125  134.3140  150.1044 H   0  0  0  0  0  0  0  0  0  0  0  0
  146.1475  134.4919  150.2070 H   0  0  0  0  0  0  0  0  0  0  0  0
  144.3233  133.4266  152.4088 H   0  0  0  0  0  0  0  0  0  0  0  0
  146.4268  131.9623  150.7410 H   0  0  0  0  0  0  0  0  0  0  0  0
  144.6810  131.7851  150.5829 H   0  0  0  0  0  0  0  0  0  0  0  0
  145.4862  131.2648  152.0577 H   0  0  0  0  0  0  0  0  0  0  0  0
  146.3879  133.0495  153.7088 H   0  0  0  0  0  0  0  0  0  0  0  0
  147.3603  133.7147  152.4190 H   0  0  0  0  0  0  0  0  0  0  0  0
  146.9981  135.4048  154.1623 H   0  0  0  0  0  0  0  0  0  0  0  0
  145.2608  135.2294  154.0562 H   0  0  0  0  0  0  0  0  0  0  0  0
  151.3461  138.1783  158.5361 H   0  0  0  0  0  0  0  0  0  0  0  0
  150.2979  136.7682  158.4674 H   0  0  0  0  0  0  0  0  0  0  0  0
  149.7713  138.2316  159.3103 H   0  0  0  0  0  0  0  0  0  0  0  0
  146.9985  136.1454  151.8783 H   0  0  0  0  0  0  0  0  0  0  0  0
  1  2  1  0  0  0  0
  1 23  1  0  0  0  0
  1 24  1  0  0  0  0
  1 25  1  0  0  0  0
  2 21  1  0  0  0  0
  2  3  2  0  0  0  0
  3  4  1  0  0  0  0
  4  5  1  0  0  0  0
  4 16  1  0  0  0  0
  5  6  1  0  0  0  0
  5 26  1  0  0  0  0
  5 27  1  0  0  0  0
  6  7  1  0  0  0  0
  6  8  1  0  0  0  0
  6 28  1  0  0  0  0
  7 29  1  0  0  0  0
  8  9  1  0  0  0  0
  8 30  1  0  0  0  0
  8 31  1  0  0  0  0
  9 15  1  0  0  0  0
  9 10  1  0  0  0  0
  9 47  1  0  0  0  0
 10 11  1  0  0  0  0
 10 32  1  0  0  0  0
 10 33  1  0  0  0  0
 11 12  1  0  0  0  0
 11 34  1  0  0  0  0
 11 35  1  0  0  0  0
 12 13  1  0  0  0  0
 12 14  1  0  0  0  0
 12 36  1  0  0  0  0
 13 37  1  0  0  0  0
 13 38  1  0  0  0  0
 13 39  1  0  0  0  0
 14 15  1  0  0  0  0
 14 40  1  0  0  0  0
 14 41  1  0  0  0  0
 15 42  1  0  0  0  0
 15 43  1  0  0  0  0
 16 17  2  0  0  0  0
 16 18  1  0  0  0  0
 18 19  1  0  0  0  0
 18 21  2  0  0  0  0
 19 20  3  0  0  0  0
 21 22  1  0  0  0  0
 22 44  1  0  0  0  0
 22 45  1  0  0  0  0
 22 46  1  0  0  0  0
M  CHG  1   9   1
M  END
> <s_m_source_file>
AV-unprocessed.smi

> <i_m_source_file_index>
1579

> <i_lp_mmshare_version>
43012

> <i_f3d_flags>
0

> <s_epik_input>
TiNDYyhjMVtDSDNdKWMoPU8pbihuYzFbQ0gzXSlbQ0gyXVtDQEhdKFtPSF0pW0NIMl1OMltDSDJdW0NIMl1bQ0hdKFtDSDNdKVtDSDJdW0NIMl0y

> <s_epik_cmdline>
J2VwaWtfcHl0aG9uJywgJy1waCcsICc3LjAnLCAnLXRuJywgJzgnLCAnLW1hJywgJzIwMCcsICctbWV0YWxfYmluZGluZycsICctaW1hZScsICc8aW5maWxlLm1hZT4nLCAnLW9tYWUnLCAnPG91dGZpbGUubWFlPic=

> <r_epik_Ionization_Penalty>
0.00136816

> <r_epik_Ionization_Penalty_Charging>
0.00136813

> <r_epik_Ionization_Penalty_Neutral>
3.19884e-08

> <r_epik_State_Penalty>
0.000910892

> <r_epik_Charging_Adjusted_Penalty>
0.00227902

> <i_epik_Tot_Q>
1

> <i_epik_Tot_abs_Q>
1

> <r_epik_Metal_State_Penalty>
-0

> <b_epik_Metal_Only>
0

> <s_lp_Force_Field>
OPLS_2005

> <r_lp_Energy>
36.6054

> <b_lp_Chiralities_Consistent>
1

> <s_lp_Variant>
AV-unprocessed.smi:1579-1

> <Gold.Version>
5.8.1

> <Gold.Id.Protein>
6NUR|6NUR_protein|mol2

> <Gold.PLP.Fitness>
40.6007

> <Gold.PLP.PLP>
-27.3868

> <Gold.PLP.part.hbond>
-5.2618

> <Gold.PLP.part.metal>
0.0000

> <Gold.PLP.part.buried>
-0.6016

> <Gold.PLP.part.nonpolar>
-21.1150

> <Gold.PLP.part.repulsive>
0.9794

> <Gold.PLP.ligand.clash>
0.0000

> <Gold.PLP.ligand.torsion>
1.8147

> <Gold.PLP.Chemscore.Hbond>
5.5888

> <Gold.PLP.Chemscore.CHOScore>
0.0000

> <Gold.PLP.Chemscore.Metal>
0.0000

> <Gold.Chemscore.Hbonds>
donor molecule, donor type, donor heavy atom, donor atom, acceptor molecule, acceptor atom, score
      L1  H     7    29       P1  7957  0.88
      L1  H     9    47       P1  7948  2.00
      P1  H  7954  7966       L1     7  0.72
      P1  H  7989  7998       L1    17  0.98
      P1  H  7997  8008       L1    20  1.00

> <Gold.PLP.Chemscore.Internal.Correction>
0.0769

> <Gold.Rescore>
     Score         DG    S(hbond)    S(metal)    S(lipo)     H(rot)  DE(clash)    DE(int)     intcor
     17.04     -19.51       3.84        0.00      57.87       2.17       0.62       1.85       ----

> <Gold.Chemscore.Fitness>
17.0442

> <Gold.Chemscore.DG>
-19.5063

> <Gold.Chemscore.ZeroCoef>
-5.4800

> <Gold.Chemscore.Hbond>
3.8366

> <Gold.Chemscore.Metal>
0.0000

> <Gold.Chemscore.Lipo>
57.8719

> <Gold.Chemscore.Internal_Hbond>
0.0000

> <Gold.Chemscore.DEClash>
0.6158

> <Gold.Chemscore.DEInternal>
1.8463

> <Gold.Chemscore.Rot>
2.1715

> <Gold.Chemscore.Internal.Correction>
   9.000000E+99

> <Gold.Chemscore.Hbonds>
donor molecule, donor type, donor heavy atom, donor atom, acceptor molecule, acceptor atom, score
      L1  H     7    29       P1  7957  0.85
      L1  H     9    47       P1  7948  0.95
      P1  H  7954  7966       L1     7  0.11
      P1  H  7989  7998       L1    17  0.92
      P1  H  7997  8008       L1    20  0.97

> <Gold.Chemscore.Hbond.Weighted>
-12.8144

> <Gold.Chemscore.Metal.Weighted>
-0.0000

> <Gold.Chemscore.Lipo.Weighted>
-6.7710

> <Gold.Chemscore.Internal_Hbond.Weighted>
0.0000

> <Gold.Chemscore.DEClash.Weighted>
0.6158

> <Gold.Chemscore.DEInternal.Weighted>
1.8463

> <Gold.Chemscore.Rot.Weighted>
5.5591

> <Gold.Chemscore.Internal.Correction.Weighted>
   9.000000E+99

> <Gold.Protein.RotatedTorsions>
[ 6907 6896 6895 6894 ] final   97.60 input  -60.11 | X-H torsion
[ 7974 7965 7964 7962 ] final -116.76 input  175.53 | X-H torsion
[ 8008 7997 7996 7995 ] final  -42.87 input   59.86 | X-H torsion
[ 10167 10162 10161 10158 ] final  148.98 input  -65.29 | X-H torsion
[ 10718 10713 10712 10709 ] final -128.15 input   66.30 | X-H torsion
[ 10763 10752 10751 10750 ] final  -22.38 input  -60.55 | X-H torsion
[ 11005 11000 10999 10996 ] final   -0.32 input  -57.11 | X-H torsion

> <Gold.Protein.ActiveResidues>
 VAL166  LYS551  ARG553  GLY616  TRP617  ASP618  TYR619  PRO620  LYS621  CYS622 
 ASP623  PHE694  ASN695  SER759  ASP760  ASP761  ALA762  ILE779  LEU786  VAL792 
 PHE793  MET794  SER795  GLU796  ALA797  LYS798  CYS799  TRP800  GLU811  SER814 

> <Gold.Protein.RotatedAtoms>
  152.5421  134.0708  159.8192 H   0  0  0  0  0  0  0  0  0  0  0  0  # atno 6907 bound_to 6896
  151.0823  133.5373  159.2627 H   0  0  0  0  0  0  0  0  0  0  0  0  # atno 6908 bound_to 6896
  151.2196  135.0521  159.8998 H   0  0  0  0  0  0  0  0  0  0  0  0  # atno 6909 bound_to 6896
  145.0930  140.8502  143.3971 H   0  0  0  0  0  0  0  0  0  0  0  0  # atno 7974 bound_to 7965
  154.3998  140.1462  156.3426 H   0  0  0  0  0  0  0  0  0  0  0  0  # atno 8008 bound_to 7997
  155.8342  140.3464  155.5570 H   0  0  0  0  0  0  0  0  0  0  0  0  # atno 8009 bound_to 7997
  155.8155  140.0890  157.1869 H   0  0  0  0  0  0  0  0  0  0  0  0  # atno 8010 bound_to 7997
  139.4867  144.5637  151.7183 H   0  0  0  0  0  0  0  0  0  0  0  0  # atno 10167 bound_to 10162
  156.1924  130.6804  151.0440 H   0  0  0  0  0  0  0  0  0  0  0  0  # atno 10718 bound_to 10713
  153.6510  135.6981  153.5209 H   0  0  0  0  0  0  0  0  0  0  0  0  # atno 10763 bound_to 10752
  153.2707  135.4216  155.0984 H   0  0  0  0  0  0  0  0  0  0  0  0  # atno 10764 bound_to 10752
  154.8476  135.3577  154.6054 H   0  0  0  0  0  0  0  0  0  0  0  0  # atno 10765 bound_to 10752
  140.6349  133.9541  155.8294 H   0  0  0  0  0  0  0  0  0  0  0  0  # atno 11005 bound_to 11000
  145.1044  139.2800  143.5670 LP  0  0  0  0  0  0  0  0  0  0  0  0  # atno 17320 bound_to 7965
  146.3531  140.0621  142.8628 LP  0  0  0  0  0  0  0  0  0  0  0  0  # atno 17321 bound_to 7965
  140.5212  144.0876  150.6023 LP  0  0  0  0  0  0  0  0  0  0  0  0  # atno 17342 bound_to 10162
  140.3835  143.2790  152.0143 LP  0  0  0  0  0  0  0  0  0  0  0  0  # atno 17343 bound_to 10162
  157.6937  131.0801  150.7032 LP  0  0  0  0  0  0  0  0  0  0  0  0  # atno 17370 bound_to 10713
  156.7089  130.4646  149.5552 LP  0  0  0  0  0  0  0  0  0  0  0  0  # atno 17371 bound_to 10713
  141.0648  134.0292  157.3608 LP  0  0  0  0  0  0  0  0  0  0  0  0  # atno 17394 bound_to 11000
  139.9102  135.0188  156.7658 LP  0  0  0  0  0  0  0  0  0  0  0  0  # atno 17395 bound_to 11000

$$$$
