AV-unprocessed.smi:2368|AV-procd|sdf|9429|dock4
  -GOLD-   2272013 63D 1   1.00000     0.00000
 Structure written by MMmdl.
 36 37  0  0  0  0  0  0  0  0  2 V2000
  150.7053  140.9291  155.7759 C   0  0  0  0  0  0  0  0  0  0  0  0
  149.4452  140.8456  154.9361 C   0  0  0  0  0  0  0  0  0  0  0  0
  148.6528  141.9388  154.8818 N   0  3  0  0  0  0  0  0  0  0  0  0
  147.5137  141.9862  154.1607 C   0  0  0  0  0  0  0  0  0  0  0  0
  147.1008  140.8588  153.4248 C   0  0  0  0  0  0  0  0  0  0  0  0
  147.8844  139.6775  153.4608 C   0  0  0  0  0  0  0  0  0  0  0  0
  147.5473  138.5017  152.7337 N   0  0  0  0  0  0  0  0  0  0  0  0
  146.3275  138.0018  152.4724 C   0  0  0  0  0  0  0  0  0  0  0  0
  145.2623  138.5006  152.8353 O   0  0  0  0  0  0  0  0  0  0  0  0
  146.4089  136.8634  151.7701 N   0  0  0  0  0  0  0  0  0  0  0  0
  145.2641  136.0704  151.3358 C   0  0  2  0  0  0  0  0  0  0  0  0
  144.5051  135.5475  152.5243 C   0  0  0  0  0  0  0  0  0  0  0  0
  144.3707  134.2237  152.5064 C   0  0  0  0  0  0  0  0  0  0  0  0
  145.0190  133.5858  151.3041 C   0  0  2  0  0  0  0  0  0  0  0  0
  146.0211  132.4809  151.6802 C   0  0  0  0  0  0  0  0  0  0  0  0
  146.5346  131.8597  150.5209 O   0  0  0  0  0  0  0  0  0  0  0  0
  145.6777  134.7837  150.5735 C   0  0  0  0  0  0  0  0  0  0  0  0
  149.0820  139.6813  154.2186 C   0  0  0  0  0  0  0  0  0  0  0  0
  150.0918  138.2754  154.2767 Cl  0  0  0  0  0  0  0  0  0  0  0  0
  144.5857  136.6794  150.7359 H   0  0  0  0  0  0  0  0  0  0  0  0
  144.2282  133.1685  150.6789 H   0  0  0  0  0  0  0  0  0  0  0  0
  150.6955  140.1640  156.5526 H   0  0  0  0  0  0  0  0  0  0  0  0
  150.7981  141.9018  156.2603 H   0  0  0  0  0  0  0  0  0  0  0  0
  151.5864  140.7766  155.1523 H   0  0  0  0  0  0  0  0  0  0  0  0
  146.9730  142.9212  154.1883 H   0  0  0  0  0  0  0  0  0  0  0  0
  146.1975  140.9258  152.8375 H   0  0  0  0  0  0  0  0  0  0  0  0
  148.3300  137.9320  152.4467 H   0  0  0  0  0  0  0  0  0  0  0  0
  147.3232  136.5188  151.5160 H   0  0  0  0  0  0  0  0  0  0  0  0
  144.1085  136.2012  153.2872 H   0  0  0  0  0  0  0  0  0  0  0  0
  143.8499  133.6433  153.2538 H   0  0  0  0  0  0  0  0  0  0  0  0
  146.8543  132.9018  152.2440 H   0  0  0  0  0  0  0  0  0  0  0  0
  145.5499  131.7272  152.3124 H   0  0  0  0  0  0  0  0  0  0  0  0
  147.4394  131.6351  150.6757 H   0  0  0  0  0  0  0  0  0  0  0  0
  145.3546  134.8304  149.5329 H   0  0  0  0  0  0  0  0  0  0  0  0
  146.7630  134.6714  150.5562 H   0  0  0  0  0  0  0  0  0  0  0  0
  148.9320  142.7688  155.4058 H   0  0  0  0  0  0  0  0  0  0  0  0
  1  2  1  0  0  0  0
  1 22  1  0  0  0  0
  1 23  1  0  0  0  0
  1 24  1  0  0  0  0
  2 18  1  0  0  0  0
  2  3  2  0  0  0  0
  3  4  1  0  0  0  0
  3 36  1  0  0  0  0
  4  5  2  0  0  0  0
  4 25  1  0  0  0  0
  5  6  1  0  0  0  0
  5 26  1  0  0  0  0
  6  7  1  0  0  0  0
  6 18  2  0  0  0  0
  7  8  1  0  0  0  0
  7 27  1  0  0  0  0
  8  9  2  0  0  0  0
  8 10  1  0  0  0  0
 10 11  1  0  0  0  0
 10 28  1  0  0  0  0
 11 20  1  0  0  0  0
 11 17  1  0  0  0  0
 11 12  1  0  0  0  0
 12 13  2  0  0  0  0
 12 29  1  0  0  0  0
 13 14  1  0  0  0  0
 13 30  1  0  0  0  0
 14 21  1  0  0  0  0
 14 15  1  0  0  0  0
 14 17  1  0  0  0  0
 15 16  1  0  0  0  0
 15 31  1  0  0  0  0
 15 32  1  0  0  0  0
 16 33  1  0  0  0  0
 17 34  1  0  0  0  0
 17 35  1  0  0  0  0
 18 19  1  0  0  0  0
M  CHG  1   3   1
M  END
> <s_m_source_file>
AV-unprocessed.smi

> <i_m_source_file_index>
2368

> <i_lp_mmshare_version>
43012

> <i_f3d_flags>
0

> <s_epik_input>
W0NIM11jMW5bY0hdW2NIXWMoYzFDbClbTkhdQyg9TylbTkhdW0NAQEhdMltDSF09W0NIXVtDQEBIXShbQ0gyXTIpW0NIMl1bT0hd

> <s_epik_cmdline>
J2VwaWtfcHl0aG9uJywgJy1waCcsICc3LjAnLCAnLXRuJywgJzgnLCAnLW1hJywgJzIwMCcsICctbWV0YWxfYmluZGluZycsICctaW1hZScsICc8aW5maWxlLm1hZT4nLCAnLW9tYWUnLCAnPG91dGZpbGUubWFlPic=

> <r_epik_Ionization_Penalty>
2.4467

> <r_epik_Ionization_Penalty_Charging>
2.44668

> <r_epik_Ionization_Penalty_Neutral>
1.95078e-05

> <r_epik_State_Penalty>
2.60786

> <r_epik_Charging_Adjusted_Penalty>
5.05454

> <i_epik_Tot_Q>
1

> <i_epik_Tot_abs_Q>
1

> <r_epik_Metal_State_Penalty>
2.61736

> <b_epik_Metal_Only>
0

> <s_lp_Force_Field>
OPLS_2005

> <r_lp_Energy>
25.4266

> <b_lp_Chiralities_Consistent>
1

> <s_lp_Variant>
AV-unprocessed.smi:2368-5

> <Gold.Version>
5.8.1

> <Gold.Id.Protein>
6NUR|6NUR_protein|mol2

> <Gold.PLP.Fitness>
47.2268

> <Gold.PLP.PLP>
-32.8034

> <Gold.PLP.part.hbond>
-5.0000

> <Gold.PLP.part.metal>
0.0000

> <Gold.PLP.part.buried>
-2.5761

> <Gold.PLP.part.nonpolar>
-30.1812

> <Gold.PLP.part.repulsive>
4.0980

> <Gold.PLP.ligand.clash>
0.0000

> <Gold.PLP.ligand.torsion>
0.2593

> <Gold.PLP.Chemscore.Hbond>
4.9760

> <Gold.PLP.Chemscore.CHOScore>
0.0000

> <Gold.PLP.Chemscore.Metal>
0.0000

> <Gold.Chemscore.Hbonds>
donor molecule, donor type, donor heavy atom, donor atom, acceptor molecule, acceptor atom, score
      L1  H     3    36       P1  8028  1.95
      L1  H     7    27       P1  7948  0.98
      L1  H    10    28       P1  7948  1.00
      L1  H    16    33       P1 10747  1.00

> <Gold.PLP.Chemscore.Internal.Correction>
0.0140

> <Gold.Rescore>
     Score         DG    S(hbond)    S(metal)    S(lipo)     H(rot)  DE(clash)    DE(int)     intcor
     20.35     -23.08       3.92        0.00      78.01       1.81       1.73       1.00       ----

> <Gold.Chemscore.Fitness>
20.3549

> <Gold.Chemscore.DG>
-23.0813

> <Gold.Chemscore.ZeroCoef>
-5.4800

> <Gold.Chemscore.Hbond>
3.9215

> <Gold.Chemscore.Metal>
0.0000

> <Gold.Chemscore.Lipo>
78.0110

> <Gold.Chemscore.Internal_Hbond>
0.0000

> <Gold.Chemscore.DEClash>
1.7290

> <Gold.Chemscore.DEInternal>
0.9974

> <Gold.Chemscore.Rot>
1.8061

> <Gold.Chemscore.Internal.Correction>
   9.000000E+99

> <Gold.Chemscore.Hbonds>
donor molecule, donor type, donor heavy atom, donor atom, acceptor molecule, acceptor atom, score
      L1  H     3    36       P1  8028  0.92
      L1  H     7    27       P1  7948  0.93
      L1  H    10    28       P1  7948  0.97
      L1  H    16    33       P1 10747  0.98

> <Gold.Chemscore.Hbond.Weighted>
-13.0977

> <Gold.Chemscore.Metal.Weighted>
-0.0000

> <Gold.Chemscore.Lipo.Weighted>
-9.1273

> <Gold.Chemscore.Internal_Hbond.Weighted>
0.0000

> <Gold.Chemscore.DEClash.Weighted>
1.7290

> <Gold.Chemscore.DEInternal.Weighted>
0.9974

> <Gold.Chemscore.Rot.Weighted>
4.6237

> <Gold.Chemscore.Internal.Correction.Weighted>
   9.000000E+99

> <Gold.Protein.RotatedTorsions>
[ 6907 6896 6895 6894 ] final  -86.47 input  -60.11 | X-H torsion
[ 7974 7965 7964 7962 ] final  177.16 input  175.53 | X-H torsion
[ 8008 7997 7996 7995 ] final   89.85 input   59.86 | X-H torsion
[ 10167 10162 10161 10158 ] final  -32.26 input  -65.29 | X-H torsion
[ 10718 10713 10712 10709 ] final -166.10 input   66.30 | X-H torsion
[ 10763 10752 10751 10750 ] final   -0.54 input  -60.55 | X-H torsion
[ 11005 11000 10999 10996 ] final   81.79 input  -57.11 | X-H torsion

> <Gold.Protein.ActiveResidues>
 VAL166  LYS551  ARG553  GLY616  TRP617  ASP618  TYR619  PRO620  LYS621  CYS622 
 ASP623  PHE694  ASN695  SER759  ASP760  ASP761  ALA762  ILE779  LEU786  VAL792 
 PHE793  MET794  SER795  GLU796  ALA797  LYS798  CYS799  TRP800  GLU811  SER814 

> <Gold.Protein.RotatedAtoms>
  150.6867  134.3046  159.4720 H   0  0  0  0  0  0  0  0  0  0  0  0  # atno 6907 bound_to 6896
  152.0938  134.9386  160.0580 H   0  0  0  0  0  0  0  0  0  0  0  0  # atno 6908 bound_to 6896
  152.0692  133.4064  159.4488 H   0  0  0  0  0  0  0  0  0  0  0  0  # atno 6909 bound_to 6896
  144.7173  140.0205  143.6440 H   0  0  0  0  0  0  0  0  0  0  0  0  # atno 7974 bound_to 7965
  156.0049  140.3356  155.6882 H   0  0  0  0  0  0  0  0  0  0  0  0  # atno 8008 bound_to 7997
  155.6239  140.0678  157.2687 H   0  0  0  0  0  0  0  0  0  0  0  0  # atno 8009 bound_to 7997
  154.4261  140.1772  156.1388 H   0  0  0  0  0  0  0  0  0  0  0  0  # atno 8010 bound_to 7997
  140.7224  143.3708  151.1783 H   0  0  0  0  0  0  0  0  0  0  0  0  # atno 10167 bound_to 10162
  156.6630  130.9054  151.3032 H   0  0  0  0  0  0  0  0  0  0  0  0  # atno 10718 bound_to 10713
  153.3332  135.6976  153.6930 H   0  0  0  0  0  0  0  0  0  0  0  0  # atno 10763 bound_to 10752
  153.5724  135.3514  155.2843 H   0  0  0  0  0  0  0  0  0  0  0  0  # atno 10764 bound_to 10752
  154.8622  135.4275  154.2526 H   0  0  0  0  0  0  0  0  0  0  0  0  # atno 10765 bound_to 10752
  139.9086  134.8023  156.2089 H   0  0  0  0  0  0  0  0  0  0  0  0  # atno 11005 bound_to 11000
  146.0185  139.3230  143.0827 LP  0  0  0  0  0  0  0  0  0  0  0  0  # atno 17320 bound_to 7965
  145.8597  140.9482  143.0706 LP  0  0  0  0  0  0  0  0  0  0  0  0  # atno 17321 bound_to 7965
  139.7278  143.9120  152.3009 LP  0  0  0  0  0  0  0  0  0  0  0  0  # atno 17342 bound_to 10162
  139.8899  144.6971  150.8782 LP  0  0  0  0  0  0  0  0  0  0  0  0  # atno 17343 bound_to 10162
  157.7103  130.9432  150.1067 LP  0  0  0  0  0  0  0  0  0  0  0  0  # atno 17370 bound_to 10713
  156.1996  130.3659  149.8805 LP  0  0  0  0  0  0  0  0  0  0  0  0  # atno 17371 bound_to 10713
  141.0478  133.6904  156.1715 LP  0  0  0  0  0  0  0  0  0  0  0  0  # atno 17394 bound_to 11000
  140.6857  134.4719  157.5589 LP  0  0  0  0  0  0  0  0  0  0  0  0  # atno 17395 bound_to 11000

$$$$
