AV-unprocessed.smi:2126|AV-procd|sdf|8678|dock5
  -GOLD-   2272011433D 1   1.00000     0.00000
 Structure written by MMmdl.
 41 43  0  0  0  0  0  0  0  0  2 V2000
  143.1719  146.9955  153.7851 C   0  0  0  0  0  0  0  0  0  0  0  0
  143.3836  145.9798  154.7546 O   0  0  0  0  0  0  0  0  0  0  0  0
  144.3872  145.0636  154.5249 C   0  0  0  0  0  0  0  0  0  0  0  0
  145.0182  144.8694  153.2717 C   0  0  0  0  0  0  0  0  0  0  0  0
  146.0393  143.9103  153.1297 C   0  0  0  0  0  0  0  0  0  0  0  0
  146.4531  143.1240  154.2230 C   0  0  0  0  0  0  0  0  0  0  0  0
  147.4596  142.2107  153.9932 O   0  0  0  0  0  0  0  0  0  0  0  0
  147.7872  141.2939  155.0292 C   0  0  0  0  0  0  0  0  0  0  0  0
  149.2763  140.9363  154.9192 C   0  0  1  0  0  0  0  0  0  0  0  0
  149.6025  140.7649  153.5539 O   0  0  0  0  0  0  0  0  0  0  0  0
  150.1859  142.0169  155.5374 C   0  0  0  0  0  0  0  0  0  0  0  0
  150.5772  141.7115  156.9191 N   0  0  0  0  0  0  0  0  0  0  0  0
  150.3816  140.5842  157.6554 C   0  0  0  0  0  0  0  0  0  0  0  0
  150.9329  140.7947  158.8829 N   0  3  0  0  0  0  0  0  0  0  0  0
  151.4875  142.0756  158.9316 C   0  0  0  0  0  0  0  0  0  0  0  0
  152.1523  142.7439  159.9551 C   0  0  0  0  0  0  0  0  0  0  0  0
  152.5926  144.0542  159.6740 C   0  0  0  0  0  0  0  0  0  0  0  0
  152.3678  144.6513  158.4162 C   0  0  0  0  0  0  0  0  0  0  0  0
  151.6940  143.9640  157.3851 C   0  0  0  0  0  0  0  0  0  0  0  0
  151.2619  142.6700  157.6721 C   0  0  0  0  0  0  0  0  0  0  0  0
  145.8207  143.3167  155.4756 C   0  0  0  0  0  0  0  0  0  0  0  0
  144.8014  144.2777  155.6183 C   0  0  0  0  0  0  0  0  0  0  0  0
  142.3549  147.6393  154.1104 H   0  0  0  0  0  0  0  0  0  0  0  0
  142.8937  146.5718  152.8192 H   0  0  0  0  0  0  0  0  0  0  0  0
  144.0562  147.6225  153.6640 H   0  0  0  0  0  0  0  0  0  0  0  0
  144.7380  145.4446  152.4026 H   0  0  0  0  0  0  0  0  0  0  0  0
  146.5107  143.7764  152.1670 H   0  0  0  0  0  0  0  0  0  0  0  0
  147.5918  141.7564  155.9984 H   0  0  0  0  0  0  0  0  0  0  0  0
  147.1780  140.3913  154.9540 H   0  0  0  0  0  0  0  0  0  0  0  0
  149.4468  139.9815  155.4172 H   0  0  0  0  0  0  0  0  0  0  0  0
  149.3497  139.8925  153.2920 H   0  0  0  0  0  0  0  0  0  0  0  0
  151.1014  142.1209  154.9532 H   0  0  0  0  0  0  0  0  0  0  0  0
  149.7002  142.9935  155.5272 H   0  0  0  0  0  0  0  0  0  0  0  0
  149.8780  139.6869  157.3259 H   0  0  0  0  0  0  0  0  0  0  0  0
  152.3258  142.2891  160.9194 H   0  0  0  0  0  0  0  0  0  0  0  0
  153.1131  144.6125  160.4386 H   0  0  0  0  0  0  0  0  0  0  0  0
  152.7194  145.6572  158.2381 H   0  0  0  0  0  0  0  0  0  0  0  0
  151.5253  144.4286  156.4247 H   0  0  0  0  0  0  0  0  0  0  0  0
  146.1002  142.7418  156.3451 H   0  0  0  0  0  0  0  0  0  0  0  0
  144.3309  144.4133  156.5811 H   0  0  0  0  0  0  0  0  0  0  0  0
  150.9283  140.1126  159.6304 H   0  0  0  0  0  0  0  0  0  0  0  0
  1  2  1  0  0  0  0
  1 23  1  0  0  0  0
  1 24  1  0  0  0  0
  1 25  1  0  0  0  0
  2  3  1  0  0  0  0
  3 22  1  0  0  0  0
  3  4  2  0  0  0  0
  4  5  1  0  0  0  0
  4 26  1  0  0  0  0
  5  6  2  0  0  0  0
  5 27  1  0  0  0  0
  6  7  1  0  0  0  0
  6 21  1  0  0  0  0
  7  8  1  0  0  0  0
  8  9  1  0  0  0  0
  8 28  1  0  0  0  0
  8 29  1  0  0  0  0
  9 10  1  0  0  0  0
  9 11  1  0  0  0  0
  9 30  1  0  0  0  0
 10 31  1  0  0  0  0
 11 12  1  0  0  0  0
 11 32  1  0  0  0  0
 11 33  1  0  0  0  0
 12 20  1  0  0  0  0
 12 13  1  0  0  0  0
 13 14  2  0  0  0  0
 13 34  1  0  0  0  0
 14 15  1  0  0  0  0
 14 41  1  0  0  0  0
 15 20  2  0  0  0  0
 15 16  1  0  0  0  0
 16 17  2  0  0  0  0
 16 35  1  0  0  0  0
 17 18  1  0  0  0  0
 17 36  1  0  0  0  0
 18 19  2  0  0  0  0
 18 37  1  0  0  0  0
 19 20  1  0  0  0  0
 19 38  1  0  0  0  0
 21 22  2  0  0  0  0
 21 39  1  0  0  0  0
 22 40  1  0  0  0  0
M  CHG  1  14   1
M  END
> <s_m_source_file>
AV-unprocessed.smi

> <i_m_source_file_index>
2126

> <i_lp_mmshare_version>
43012

> <i_f3d_flags>
0

> <s_epik_input>
W0NIM11PYzFbY0hdW2NIXWMoW2NIXVtjSF0xKU9bQ0gyXVtDQEhdKFtPSF0pW0NIMl1uKFtjSF1uMiljKGMyMylbY0hdW2NIXVtjSF1bY0hdMw==

> <s_epik_cmdline>
J2VwaWtfcHl0aG9uJywgJy1waCcsICc3LjAnLCAnLXRuJywgJzgnLCAnLW1hJywgJzIwMCcsICctbWV0YWxfYmluZGluZycsICctaW1hZScsICc8aW5maWxlLm1hZT4nLCAnLW9tYWUnLCAnPG91dGZpbGUubWFlPic=

> <r_lp_tautomer_probability>
1

> <r_epik_Ionization_Penalty>
1.37822

> <r_epik_Ionization_Penalty_Charging>
1.37822

> <r_epik_Ionization_Penalty_Neutral>
2.3993e-06

> <r_epik_State_Penalty>
1.45852

> <r_epik_Charging_Adjusted_Penalty>
2.83674

> <i_epik_Tot_Q>
1

> <i_epik_Tot_abs_Q>
1

> <r_epik_Metal_State_Penalty>
5.4985

> <b_epik_Metal_Only>
0

> <s_lp_Force_Field>
OPLS_2005

> <r_lp_Energy>
22.1455

> <b_lp_Chiralities_Consistent>
1

> <s_lp_Variant>
AV-unprocessed.smi:2126-4

> <Gold.Version>
5.8.1

> <Gold.Id.Protein>
6NUR|6NUR_protein|mol2

> <Gold.PLP.Fitness>
52.7441

> <Gold.PLP.PLP>
-50.6779

> <Gold.PLP.part.hbond>
-2.8105

> <Gold.PLP.part.metal>
0.0000

> <Gold.PLP.part.buried>
-5.8954

> <Gold.PLP.part.nonpolar>
-43.4510

> <Gold.PLP.part.repulsive>
0.3614

> <Gold.PLP.ligand.clash>
0.0000

> <Gold.PLP.ligand.torsion>
1.1767

> <Gold.PLP.Chemscore.Hbond>
1.4427

> <Gold.PLP.Chemscore.CHOScore>
0.0000

> <Gold.PLP.Chemscore.Metal>
0.0000

> <Gold.Chemscore.Hbonds>
donor molecule, donor type, donor heavy atom, donor atom, acceptor molecule, acceptor atom, score
      P1  H  7989  7998       L1    10  0.38
      P1  H  8011  8017       L1    10  0.93

> <Gold.PLP.Chemscore.Internal.Correction>
0.0915

> <Gold.Rescore>
     Score         DG    S(hbond)    S(metal)    S(lipo)     H(rot)  DE(clash)    DE(int)     intcor
     16.18     -18.93       1.28        0.00     135.47       2.60       1.99       0.75       ----

> <Gold.Chemscore.Fitness>
16.1832

> <Gold.Chemscore.DG>
-18.9270

> <Gold.Chemscore.ZeroCoef>
-5.4800

> <Gold.Chemscore.Hbond>
1.2765

> <Gold.Chemscore.Metal>
0.0000

> <Gold.Chemscore.Lipo>
135.4741

> <Gold.Chemscore.Internal_Hbond>
0.0000

> <Gold.Chemscore.DEClash>
1.9893

> <Gold.Chemscore.DEInternal>
0.7545

> <Gold.Chemscore.Rot>
2.6043

> <Gold.Chemscore.Internal.Correction>
   9.000000E+99

> <Gold.Chemscore.Hbonds>
donor molecule, donor type, donor heavy atom, donor atom, acceptor molecule, acceptor atom, score
      L1  H    10    31       P1  7957  0.04
      P1  H  7989  7998       L1    10  0.13
      P1  H  8011  8017       L1    10  0.85

> <Gold.Chemscore.Hbond.Weighted>
-4.2636

> <Gold.Chemscore.Metal.Weighted>
-0.0000

> <Gold.Chemscore.Lipo.Weighted>
-15.8505

> <Gold.Chemscore.Internal_Hbond.Weighted>
0.0000

> <Gold.Chemscore.DEClash.Weighted>
1.9893

> <Gold.Chemscore.DEInternal.Weighted>
0.7545

> <Gold.Chemscore.Rot.Weighted>
6.6670

> <Gold.Chemscore.Internal.Correction.Weighted>
   9.000000E+99

> <Gold.Protein.RotatedTorsions>
[ 6907 6896 6895 6894 ] final   78.45 input  -60.11 | X-H torsion
[ 7974 7965 7964 7962 ] final  -47.89 input  175.53 | X-H torsion
[ 8008 7997 7996 7995 ] final  -75.39 input   59.86 | X-H torsion
[ 10167 10162 10161 10158 ] final   67.24 input  -65.29 | X-H torsion
[ 10718 10713 10712 10709 ] final   35.28 input   66.30 | X-H torsion
[ 10763 10752 10751 10750 ] final -133.09 input  -60.55 | X-H torsion
[ 11005 11000 10999 10996 ] final  -28.35 input  -57.11 | X-H torsion

> <Gold.Protein.ActiveResidues>
 VAL166  LYS551  ARG553  GLY616  TRP617  ASP618  TYR619  PRO620  LYS621  CYS622 
 ASP623  PHE694  ASN695  SER759  ASP760  ASP761  ALA762  ILE779  LEU786  VAL792 
 PHE793  MET794  SER795  GLU796  ALA797  LYS798  CYS799  TRP800  GLU811  SER814 

> <Gold.Protein.RotatedAtoms>
  152.5160  134.3662  159.9301 H   0  0  0  0  0  0  0  0  0  0  0  0  # atno 6907 bound_to 6896
  151.3615  133.3881  159.2698 H   0  0  0  0  0  0  0  0  0  0  0  0  # atno 6908 bound_to 6896
  150.9648  134.9050  159.7811 H   0  0  0  0  0  0  0  0  0  0  0  0  # atno 6909 bound_to 6896
  145.9569  140.7517  142.9477 H   0  0  0  0  0  0  0  0  0  0  0  0  # atno 7974 bound_to 7965
  154.5413  140.0745  156.8514 H   0  0  0  0  0  0  0  0  0  0  0  0  # atno 8008 bound_to 7997
  155.3176  140.3394  155.4224 H   0  0  0  0  0  0  0  0  0  0  0  0  # atno 8009 bound_to 7997
  156.1877  140.1674  156.8140 H   0  0  0  0  0  0  0  0  0  0  0  0  # atno 8010 bound_to 7997
  140.0917  144.4982  150.7095 H   0  0  0  0  0  0  0  0  0  0  0  0  # atno 10167 bound_to 10162
  157.3207  130.7447  149.6783 H   0  0  0  0  0  0  0  0  0  0  0  0  # atno 10718 bound_to 10713
  154.8736  135.3777  154.4516 H   0  0  0  0  0  0  0  0  0  0  0  0  # atno 10763 bound_to 10752
  153.5192  135.7029  153.5745 H   0  0  0  0  0  0  0  0  0  0  0  0  # atno 10764 bound_to 10752
  153.4000  135.3950  155.1947 H   0  0  0  0  0  0  0  0  0  0  0  0  # atno 10765 bound_to 10752
  140.9200  133.7405  156.0788 H   0  0  0  0  0  0  0  0  0  0  0  0  # atno 11005 bound_to 11000
  144.6807  140.2527  143.7329 LP  0  0  0  0  0  0  0  0  0  0  0  0  # atno 17320 bound_to 7965
  145.8094  139.1997  143.2002 LP  0  0  0  0  0  0  0  0  0  0  0  0  # atno 17321 bound_to 7965
  140.7025  143.2445  151.4823 LP  0  0  0  0  0  0  0  0  0  0  0  0  # atno 17342 bound_to 10162
  139.5721  144.1904  152.1851 LP  0  0  0  0  0  0  0  0  0  0  0  0  # atno 17343 bound_to 10162
  155.9685  130.4224  150.4514 LP  0  0  0  0  0  0  0  0  0  0  0  0  # atno 17370 bound_to 10713
  157.2529  131.0550  151.2368 LP  0  0  0  0  0  0  0  0  0  0  0  0  # atno 17371 bound_to 10713
  140.8000  134.3520  157.5442 LP  0  0  0  0  0  0  0  0  0  0  0  0  # atno 17394 bound_to 11000
  139.8773  134.9192  156.3220 LP  0  0  0  0  0  0  0  0  0  0  0  0  # atno 17395 bound_to 11000

$$$$
