AV-unprocessed.smi:697|AV-procd|sdf|3391|dock2
  -GOLD-   22720 0373D 1   1.00000     0.00000
 Structure written by MMmdl.
 44 45  0  0  0  0  0  0  0  0  1 V2000
  150.9566  139.3904  158.4073 C   0  0  0  0  0  0  0  0  0  0  0  0
  149.7838  139.4312  157.6038 O   0  0  0  0  0  0  0  0  0  0  0  0
  149.9615  139.5460  156.1852 C   0  0  1  0  0  0  0  0  0  0  0  0
  150.9539  140.6684  155.8555 C   0  0  0  0  0  0  0  0  0  0  0  0
  150.1620  138.1518  155.5607 C   0  0  0  0  0  0  0  0  0  0  0  0
  148.6408  138.0143  155.5605 C   0  0  2  0  0  0  0  0  0  0  0  0
  148.1386  137.3277  154.3751 N   0  0  0  0  0  0  0  0  0  0  0  0
  146.9837  136.6508  154.3244 C   0  0  0  0  0  0  0  0  0  0  0  0
  146.2344  136.5260  155.2926 O   0  0  0  0  0  0  0  0  0  0  0  0
  146.7806  136.1419  153.0952 N   0  0  0  0  0  0  0  0  0  0  0  0
  145.6896  135.4078  152.5993 C   0  0  0  0  0  0  0  0  0  0  0  0
  145.7820  134.3405  151.7629 C   0  0  0  0  0  0  0  0  0  0  0  0
  144.6081  133.6208  151.2976 C   0  0  0  0  0  0  0  0  0  0  0  0
  144.7191  132.4817  150.2961 C   0  0  0  0  0  0  0  0  0  0  0  0
  145.9667  132.3548  149.8425 F   0  0  0  0  0  0  0  0  0  0  0  0
  144.3544  131.3238  150.8471 F   0  0  0  0  0  0  0  0  0  0  0  0
  143.9207  132.7148  149.2554 F   0  0  0  0  0  0  0  0  0  0  0  0
  143.4167  134.0700  151.7328 C   0  0  0  0  0  0  0  0  0  0  0  0
  143.3142  135.1511  152.6107 N   0  0  0  0  0  0  0  0  0  0  0  0
  144.3704  135.8537  153.0778 C   0  0  0  0  0  0  0  0  0  0  0  0
  144.1960  136.7955  153.8506 O   0  0  0  0  0  0  0  0  0  0  0  0
  148.5508  139.5617  155.5101 C   0  0  0  0  0  0  0  0  0  0  0  0
  147.4117  140.1941  156.3174 C   0  0  0  0  0  0  0  0  0  0  0  0
  148.4796  140.2067  154.1126 C   0  0  0  0  0  0  0  0  0  0  0  0
  142.3855  135.4161  152.9064 H   0  0  0  0  0  0  0  0  0  0  0  0
  150.6774  139.1406  159.4306 H   0  0  0  0  0  0  0  0  0  0  0  0
  151.4555  140.3588  158.4381 H   0  0  0  0  0  0  0  0  0  0  0  0
  151.6691  138.6401  158.0665 H   0  0  0  0  0  0  0  0  0  0  0  0
  151.0280  140.8421  154.7825 H   0  0  0  0  0  0  0  0  0  0  0  0
  151.9632  140.4338  156.1928 H   0  0  0  0  0  0  0  0  0  0  0  0
  150.6549  141.6089  156.3186 H   0  0  0  0  0  0  0  0  0  0  0  0
  150.5971  138.1942  154.5605 H   0  0  0  0  0  0  0  0  0  0  0  0
  150.6771  137.4172  156.1788 H   0  0  0  0  0  0  0  0  0  0  0  0
  148.2746  137.5967  156.5015 H   0  0  0  0  0  0  0  0  0  0  0  0
  148.7030  137.3798  153.5399 H   0  0  0  0  0  0  0  0  0  0  0  0
  147.5235  136.2851  152.4265 H   0  0  0  0  0  0  0  0  0  0  0  0
  146.7383  133.9754  151.4270 H   0  0  0  0  0  0  0  0  0  0  0  0
  142.4649  133.6491  151.4437 H   0  0  0  0  0  0  0  0  0  0  0  0
  146.4544  140.0996  155.8038 H   0  0  0  0  0  0  0  0  0  0  0  0
  147.5893  141.2555  156.4926 H   0  0  0  0  0  0  0  0  0  0  0  0
  147.2893  139.7202  157.2915 H   0  0  0  0  0  0  0  0  0  0  0  0
  147.5160  140.0278  153.6343 H   0  0  0  0  0  0  0  0  0  0  0  0
  149.2446  139.8188  153.4400 H   0  0  0  0  0  0  0  0  0  0  0  0
  148.6157  141.2874  154.1645 H   0  0  0  0  0  0  0  0  0  0  0  0
  1  2  1  0  0  0  0
  1 26  1  0  0  0  0
  1 27  1  0  0  0  0
  1 28  1  0  0  0  0
  2  3  1  0  0  0  0
  3 22  1  0  0  0  0
  3  4  1  0  0  0  0
  3  5  1  0  0  0  0
  4 29  1  0  0  0  0
  4 30  1  0  0  0  0
  4 31  1  0  0  0  0
  5  6  1  0  0  0  0
  5 32  1  0  0  0  0
  5 33  1  0  0  0  0
  6  7  1  0  0  0  0
  6 22  1  0  0  0  0
  6 34  1  0  0  0  0
  7  8  1  0  0  0  0
  7 35  1  0  0  0  0
  8  9  2  0  0  0  0
  8 10  1  0  0  0  0
 10 11  1  0  0  0  0
 10 36  1  0  0  0  0
 11 20  1  0  0  0  0
 11 12  2  0  0  0  0
 12 13  1  0  0  0  0
 12 37  1  0  0  0  0
 13 14  1  0  0  0  0
 13 18  2  0  0  0  0
 14 15  1  0  0  0  0
 14 16  1  0  0  0  0
 14 17  1  0  0  0  0
 18 19  1  0  0  0  0
 18 38  1  0  0  0  0
 19 25  1  0  0  0  0
 19 20  1  0  0  0  0
 20 21  2  0  0  0  0
 22 23  1  0  0  0  0
 22 24  1  0  0  0  0
 23 39  1  0  0  0  0
 23 40  1  0  0  0  0
 23 41  1  0  0  0  0
 24 42  1  0  0  0  0
 24 43  1  0  0  0  0
 24 44  1  0  0  0  0
M  END
> <s_m_source_file>
AV-unprocessed.smi

> <i_m_source_file_index>
697

> <i_lp_mmshare_version>
43012

> <i_f3d_flags>
0

> <s_epik_input>
W0NIM11PW0NAQF0xKFtDSDNdKVtDSDJdW0NASF0oQzEoW0NIM10pW0NIM10pW05IXUMoPU8pW05IXWMyW2NIXWMoQyhGKShGKUYpW2NIXVtuSF1jMj1P

> <s_epik_cmdline>
J2VwaWtfcHl0aG9uJywgJy1waCcsICc3LjAnLCAnLXRuJywgJzgnLCAnLW1hJywgJzIwMCcsICctbWV0YWxfYmluZGluZycsICctaW1hZScsICc8aW5maWxlLm1hZT4nLCAnLW9tYWUnLCAnPG91dGZpbGUubWFlPic=

> <r_lp_tautomer_probability>
1

> <r_epik_Ionization_Penalty>
0.0036482

> <r_epik_Ionization_Penalty_Charging>
0.00362828

> <r_epik_Ionization_Penalty_Neutral>
1.99208e-05

> <r_epik_State_Penalty>
-0

> <r_epik_Charging_Adjusted_Penalty>
0.00362828

> <i_epik_Tot_Q>
0

> <i_epik_Tot_abs_Q>
0

> <r_epik_Metal_State_Penalty>
0.369362

> <b_epik_Metal_Only>
0

> <s_lp_Force_Field>
OPLS_2005

> <r_lp_Energy>
34.6264

> <b_lp_Chiralities_Consistent>
1

> <s_lp_Variant>
AV-unprocessed.smi:697-3

> <Gold.Version>
5.8.1

> <Gold.Id.Protein>
6NUR|6NUR_protein|mol2

> <Gold.PLP.Fitness>
37.8376

> <Gold.PLP.PLP>
-31.2724

> <Gold.PLP.part.hbond>
-1.8643

> <Gold.PLP.part.metal>
0.0000

> <Gold.PLP.part.buried>
-4.5566

> <Gold.PLP.part.nonpolar>
-25.8650

> <Gold.PLP.part.repulsive>
0.1185

> <Gold.PLP.ligand.clash>
0.0000

> <Gold.PLP.ligand.torsion>
0.9313

> <Gold.PLP.Chemscore.Hbond>
1.7208

> <Gold.PLP.Chemscore.CHOScore>
0.9288

> <Gold.PLP.Chemscore.Metal>
0.0000

> <Gold.Chemscore.Hbonds>
donor molecule, donor type, donor heavy atom, donor atom, acceptor molecule, acceptor atom, score
      L1  H     7    35       P1  7948  0.73
      L1  H    10    36       P1  7948  0.99
      L1  C    18    38       P1 10186  0.94

> <Gold.PLP.Chemscore.Internal.Correction>
0.4790

> <Gold.Rescore>
     Score         DG    S(hbond)    S(metal)    S(lipo)     H(rot)  DE(clash)    DE(int)     intcor
     10.12     -15.11       1.89        0.00      57.06       1.31       0.07       4.93       ----

> <Gold.Chemscore.Fitness>
10.1158

> <Gold.Chemscore.DG>
-15.1121

> <Gold.Chemscore.ZeroCoef>
-5.4800

> <Gold.Chemscore.Hbond>
1.8864

> <Gold.Chemscore.Metal>
0.0000

> <Gold.Chemscore.Lipo>
57.0563

> <Gold.Chemscore.Internal_Hbond>
0.0000

> <Gold.Chemscore.DEClash>
0.0667

> <Gold.Chemscore.DEInternal>
4.9297

> <Gold.Chemscore.Rot>
1.3062

> <Gold.Chemscore.Internal.Correction>
   9.000000E+99

> <Gold.Chemscore.Hbonds>
donor molecule, donor type, donor heavy atom, donor atom, acceptor molecule, acceptor atom, score
      L1  H     7    35       P1  7948  0.68
      L1  H    10    36       P1  7948  0.92

> <Gold.Chemscore.Hbond.Weighted>
-6.3005

> <Gold.Chemscore.Metal.Weighted>
-0.0000

> <Gold.Chemscore.Lipo.Weighted>
-6.6756

> <Gold.Chemscore.Internal_Hbond.Weighted>
0.0000

> <Gold.Chemscore.DEClash.Weighted>
0.0667

> <Gold.Chemscore.DEInternal.Weighted>
4.9297

> <Gold.Chemscore.Rot.Weighted>
3.3440

> <Gold.Chemscore.Internal.Correction.Weighted>
   9.000000E+99

> <Gold.Protein.RotatedTorsions>
[ 6907 6896 6895 6894 ] final  149.12 input  -60.11 | X-H torsion
[ 7974 7965 7964 7962 ] final -136.61 input  175.53 | X-H torsion
[ 8008 7997 7996 7995 ] final   90.25 input   59.86 | X-H torsion
[ 10167 10162 10161 10158 ] final -172.38 input  -65.29 | X-H torsion
[ 10718 10713 10712 10709 ] final -153.17 input   66.30 | X-H torsion
[ 10763 10752 10751 10750 ] final   41.21 input  -60.55 | X-H torsion
[ 11005 11000 10999 10996 ] final  -97.00 input  -57.11 | X-H torsion

> <Gold.Protein.ActiveResidues>
 VAL166  LYS551  ARG553  GLY616  TRP617  ASP618  TYR619  PRO620  LYS621  CYS622 
 ASP623  PHE694  ASN695  SER759  ASP760  ASP761  ALA762  ILE779  LEU786  VAL792 
 PHE793  MET794  SER795  GLU796  ALA797  LYS798  CYS799  TRP800  GLU811  SER814 

> <Gold.Protein.RotatedAtoms>
  152.1323  133.4415  159.4726 H   0  0  0  0  0  0  0  0  0  0  0  0  # atno 6907 bound_to 6896
  150.6879  134.2406  159.4480 H   0  0  0  0  0  0  0  0  0  0  0  0  # atno 6908 bound_to 6896
  152.0290  134.9778  160.0623 H   0  0  0  0  0  0  0  0  0  0  0  0  # atno 6909 bound_to 6896
  144.8912  140.6645  143.5144 H   0  0  0  0  0  0  0  0  0  0  0  0  # atno 7974 bound_to 7965
  156.0098  140.3351  155.6929 H   0  0  0  0  0  0  0  0  0  0  0  0  # atno 8008 bound_to 7997
  155.6174  140.0671  157.2706 H   0  0  0  0  0  0  0  0  0  0  0  0  # atno 8009 bound_to 7997
  154.4277  140.1782  156.1323 H   0  0  0  0  0  0  0  0  0  0  0  0  # atno 8010 bound_to 7997
  139.5748  144.1558  152.1435 H   0  0  0  0  0  0  0  0  0  0  0  0  # atno 10167 bound_to 10162
  156.4822  130.8308  151.2535 H   0  0  0  0  0  0  0  0  0  0  0  0  # atno 10718 bound_to 10713
  152.9914  135.6168  154.2751 H   0  0  0  0  0  0  0  0  0  0  0  0  # atno 10763 bound_to 10752
  154.2482  135.2786  155.2829 H   0  0  0  0  0  0  0  0  0  0  0  0  # atno 10764 bound_to 10752
  154.5311  135.5788  153.6817 H   0  0  0  0  0  0  0  0  0  0  0  0  # atno 10765 bound_to 10752
  141.1393  133.8139  157.0647 H   0  0  0  0  0  0  0  0  0  0  0  0  # atno 11005 bound_to 11000
  145.3779  139.1643  143.4296 LP  0  0  0  0  0  0  0  0  0  0  0  0  # atno 17320 bound_to 7965
  146.3055  140.3857  142.8689 LP  0  0  0  0  0  0  0  0  0  0  0  0  # atno 17321 bound_to 7965
  140.1098  144.5467  150.6932 LP  0  0  0  0  0  0  0  0  0  0  0  0  # atno 17342 bound_to 10162
  140.7031  143.2449  151.4806 LP  0  0  0  0  0  0  0  0  0  0  0  0  # atno 17343 bound_to 10162
  157.7482  131.0041  150.3063 LP  0  0  0  0  0  0  0  0  0  0  0  0  # atno 17370 bound_to 10713
  156.3510  130.3831  149.7329 LP  0  0  0  0  0  0  0  0  0  0  0  0  # atno 17371 bound_to 10713
  140.0549  134.9786  157.1202 LP  0  0  0  0  0  0  0  0  0  0  0  0  # atno 17394 bound_to 11000
  140.3935  134.2159  155.7165 LP  0  0  0  0  0  0  0  0  0  0  0  0  # atno 17395 bound_to 11000

$$$$
