AV-unprocessed.smi:877|AV-procd|sdf|4027|dock1
  -GOLD-   22720 1513D 1   1.00000     0.00000
 Structure written by MMmdl.
 43 45  0  0  0  0  0  0  0  0  1 V2000
  152.8515  143.0473  162.5157 C   0  0  0  0  0  0  0  0  0  0  0  0
  153.4187  142.0440  161.6861 O   0  0  0  0  0  0  0  0  0  0  0  0
  152.8376  141.8135  160.4576 C   0  0  0  0  0  0  0  0  0  0  0  0
  152.8389  140.5583  159.7983 C   0  0  0  0  0  0  0  0  0  0  0  0
  152.2184  140.4112  158.5426 C   0  0  0  0  0  0  0  0  0  0  0  0
  151.5893  141.5115  157.9261 C   0  0  0  0  0  0  0  0  0  0  0  0
  150.9200  141.3538  156.5716 C   0  0  0  0  0  0  0  0  0  0  0  0
  149.4379  141.6057  156.6125 C   0  0  0  0  0  0  0  0  0  0  0  0
  148.8422  142.1129  157.6939 N   0  0  0  0  0  0  0  0  0  0  0  0
  147.5171  142.1810  157.3127 C   0  0  0  0  0  0  0  0  0  0  0  0
  146.3811  142.6392  158.0175 C   0  0  0  0  0  0  0  0  0  0  0  0
  145.1076  142.6145  157.4121 C   0  0  0  0  0  0  0  0  0  0  0  0
  144.9523  142.1317  156.0967 C   0  0  0  0  0  0  0  0  0  0  0  0
  146.0713  141.6685  155.3781 C   0  0  0  0  0  0  0  0  0  0  0  0
  147.3406  141.6958  155.9867 C   0  0  0  0  0  0  0  0  0  0  0  0
  148.6155  141.3250  155.5681 N   0  0  0  0  0  0  0  0  0  0  0  0
  148.9567  140.7516  154.2722 C   0  0  0  0  0  0  0  0  0  0  0  0
  148.3617  139.3444  154.0645 C   0  0  2  0  0  0  0  0  0  0  0  0
  149.1923  138.6153  153.1810 O   0  0  0  0  0  0  0  0  0  0  0  0
  146.9455  139.4085  153.4688 C   0  0  0  0  0  0  0  0  0  0  0  0
  146.9859  139.9689  152.1738 O   0  0  0  0  0  0  0  0  0  0  0  0
  151.5867  142.7619  158.5761 C   0  0  0  0  0  0  0  0  0  0  0  0
  152.2059  142.9076  159.8320 C   0  0  0  0  0  0  0  0  0  0  0  0
  153.4223  143.1128  163.4419 H   0  0  0  0  0  0  0  0  0  0  0  0
  151.8201  142.8101  162.7801 H   0  0  0  0  0  0  0  0  0  0  0  0
  152.8866  144.0268  162.0370 H   0  0  0  0  0  0  0  0  0  0  0  0
  153.3091  139.6909  160.2358 H   0  0  0  0  0  0  0  0  0  0  0  0
  152.2268  139.4469  158.0557 H   0  0  0  0  0  0  0  0  0  0  0  0
  151.4163  142.0298  155.8778 H   0  0  0  0  0  0  0  0  0  0  0  0
  151.0860  140.3463  156.1891 H   0  0  0  0  0  0  0  0  0  0  0  0
  146.4900  143.0116  159.0254 H   0  0  0  0  0  0  0  0  0  0  0  0
  144.2462  142.9683  157.9595 H   0  0  0  0  0  0  0  0  0  0  0  0
  143.9738  142.1168  155.6391 H   0  0  0  0  0  0  0  0  0  0  0  0
  145.9542  141.2997  154.3698 H   0  0  0  0  0  0  0  0  0  0  0  0
  148.6234  141.4323  153.4886 H   0  0  0  0  0  0  0  0  0  0  0  0
  150.0432  140.7145  154.1845 H   0  0  0  0  0  0  0  0  0  0  0  0
  148.3303  138.8227  155.0211 H   0  0  0  0  0  0  0  0  0  0  0  0
  149.2625  139.0964  152.3704 H   0  0  0  0  0  0  0  0  0  0  0  0
  146.5282  138.4050  153.3791 H   0  0  0  0  0  0  0  0  0  0  0  0
  146.2703  139.9820  154.1052 H   0  0  0  0  0  0  0  0  0  0  0  0
  147.8803  139.9436  151.8685 H   0  0  0  0  0  0  0  0  0  0  0  0
  151.1060  143.6126  158.1163 H   0  0  0  0  0  0  0  0  0  0  0  0
  152.1951  143.8704  160.3216 H   0  0  0  0  0  0  0  0  0  0  0  0
  1  2  1  0  0  0  0
  1 24  1  0  0  0  0
  1 25  1  0  0  0  0
  1 26  1  0  0  0  0
  2  3  1  0  0  0  0
  3 23  1  0  0  0  0
  3  4  2  0  0  0  0
  4  5  1  0  0  0  0
  4 27  1  0  0  0  0
  5  6  2  0  0  0  0
  5 28  1  0  0  0  0
  6  7  1  0  0  0  0
  6 22  1  0  0  0  0
  7  8  1  0  0  0  0
  7 29  1  0  0  0  0
  7 30  1  0  0  0  0
  8 16  1  0  0  0  0
  8  9  2  0  0  0  0
  9 10  1  0  0  0  0
 10 15  2  0  0  0  0
 10 11  1  0  0  0  0
 11 12  2  0  0  0  0
 11 31  1  0  0  0  0
 12 13  1  0  0  0  0
 12 32  1  0  0  0  0
 13 14  2  0  0  0  0
 13 33  1  0  0  0  0
 14 15  1  0  0  0  0
 14 34  1  0  0  0  0
 15 16  1  0  0  0  0
 16 17  1  0  0  0  0
 17 18  1  0  0  0  0
 17 35  1  0  0  0  0
 17 36  1  0  0  0  0
 18 19  1  0  0  0  0
 18 20  1  0  0  0  0
 18 37  1  0  0  0  0
 19 38  1  0  0  0  0
 20 21  1  0  0  0  0
 20 39  1  0  0  0  0
 20 40  1  0  0  0  0
 21 41  1  0  0  0  0
 22 23  2  0  0  0  0
 22 42  1  0  0  0  0
 23 43  1  0  0  0  0
M  END
> <s_m_source_file>
AV-unprocessed.smi

> <i_m_source_file_index>
877

> <i_lp_mmshare_version>
43012

> <i_f3d_flags>
0

> <s_epik_input>
W0NIM11PYzFbY0hdW2NIXWMoW2NIXVtjSF0xKVtDSDJdYyhuMiluKFtDSDJdW0NASF0oW09IXSlbQ0gyXVtPSF0pYyhjMjMpW2NIXVtjSF1bY0hdW2NIXTM=

> <s_epik_cmdline>
J2VwaWtfcHl0aG9uJywgJy1waCcsICc3LjAnLCAnLXRuJywgJzgnLCAnLW1hJywgJzIwMCcsICctbWV0YWxfYmluZGluZycsICctaW1hZScsICc8aW5maWxlLm1hZT4nLCAnLW9tYWUnLCAnPG91dGZpbGUubWFlPic=

> <r_lp_tautomer_probability>
1

> <r_epik_Ionization_Penalty>
0.0616669

> <r_epik_Ionization_Penalty_Charging>
0

> <r_epik_Ionization_Penalty_Neutral>
0.0616669

> <r_epik_State_Penalty>
0.0535415

> <r_epik_Charging_Adjusted_Penalty>
0.0535415

> <i_epik_Tot_Q>
0

> <i_epik_Tot_abs_Q>
0

> <r_epik_Metal_State_Penalty>
5.60326e-05

> <b_epik_Metal_Only>
0

> <s_lp_Force_Field>
OPLS_2005

> <r_lp_Energy>
20.6154

> <b_lp_Chiralities_Consistent>
1

> <s_lp_Variant>
AV-unprocessed.smi:877-1

> <Gold.Version>
5.8.1

> <Gold.Id.Protein>
6NUR|6NUR_protein|mol2

> <Gold.PLP.Fitness>
48.5053

> <Gold.PLP.PLP>
-44.1581

> <Gold.PLP.part.hbond>
-2.9123

> <Gold.PLP.part.metal>
0.0000

> <Gold.PLP.part.buried>
-5.3915

> <Gold.PLP.part.nonpolar>
-35.8663

> <Gold.PLP.part.repulsive>
0.1883

> <Gold.PLP.ligand.clash>
0.0000

> <Gold.PLP.ligand.torsion>
0.8659

> <Gold.PLP.Chemscore.Hbond>
2.0000

> <Gold.PLP.Chemscore.CHOScore>
0.0000

> <Gold.PLP.Chemscore.Metal>
0.0000

> <Gold.Chemscore.Hbonds>
donor molecule, donor type, donor heavy atom, donor atom, acceptor molecule, acceptor atom, score
      L1  H    19    38       P1  7957  1.00
      L1  H    21    41       P1  7957  1.00

> <Gold.PLP.Chemscore.Internal.Correction>
0.0789

> <Gold.Rescore>
     Score         DG    S(hbond)    S(metal)    S(lipo)     H(rot)  DE(clash)    DE(int)     intcor
     14.08     -16.20       1.92        0.00     105.72       3.15       0.04       2.08       ----

> <Gold.Chemscore.Fitness>
14.0811

> <Gold.Chemscore.DG>
-16.1997

> <Gold.Chemscore.ZeroCoef>
-5.4800

> <Gold.Chemscore.Hbond>
1.9195

> <Gold.Chemscore.Metal>
0.0000

> <Gold.Chemscore.Lipo>
105.7208

> <Gold.Chemscore.Internal_Hbond>
0.0000

> <Gold.Chemscore.DEClash>
0.0384

> <Gold.Chemscore.DEInternal>
2.0801

> <Gold.Chemscore.Rot>
3.1488

> <Gold.Chemscore.Internal.Correction>
   9.000000E+99

> <Gold.Chemscore.Hbonds>
donor molecule, donor type, donor heavy atom, donor atom, acceptor molecule, acceptor atom, score
      L1  H    19    38       P1  7957  0.93
      L1  H    21    41       P1  7957  1.00

> <Gold.Chemscore.Hbond.Weighted>
-6.4112

> <Gold.Chemscore.Metal.Weighted>
-0.0000

> <Gold.Chemscore.Lipo.Weighted>
-12.3693

> <Gold.Chemscore.Internal_Hbond.Weighted>
0.0000

> <Gold.Chemscore.DEClash.Weighted>
0.0384

> <Gold.Chemscore.DEInternal.Weighted>
2.0801

> <Gold.Chemscore.Rot.Weighted>
8.0608

> <Gold.Chemscore.Internal.Correction.Weighted>
   9.000000E+99

> <Gold.Protein.RotatedTorsions>
[ 6907 6896 6895 6894 ] final -145.45 input  -60.11 | X-H torsion
[ 7974 7965 7964 7962 ] final -101.94 input  175.53 | X-H torsion
[ 8008 7997 7996 7995 ] final  -61.61 input   59.86 | X-H torsion
[ 10167 10162 10161 10158 ] final  -18.97 input  -65.29 | X-H torsion
[ 10718 10713 10712 10709 ] final   17.65 input   66.30 | X-H torsion
[ 10763 10752 10751 10750 ] final   63.04 input  -60.55 | X-H torsion
[ 11005 11000 10999 10996 ] final   63.11 input  -57.11 | X-H torsion

> <Gold.Protein.ActiveResidues>
 VAL166  LYS551  ARG553  GLY616  TRP617  ASP618  TYR619  PRO620  LYS621  CYS622 
 ASP623  PHE694  ASN695  SER759  ASP760  ASP761  ALA762  ILE779  LEU786  VAL792 
 PHE793  MET794  SER795  GLU796  ALA797  LYS798  CYS799  TRP800  GLU811  SER814 

> <Gold.Protein.RotatedAtoms>
  151.1279  133.5057  159.2599 H   0  0  0  0  0  0  0  0  0  0  0  0  # atno 6907 bound_to 6896
  151.1789  135.0351  159.8794 H   0  0  0  0  0  0  0  0  0  0  0  0  # atno 6908 bound_to 6896
  152.5458  134.1134  159.8421 H   0  0  0  0  0  0  0  0  0  0  0  0  # atno 6909 bound_to 6896
  145.2751  140.9310  143.2964 H   0  0  0  0  0  0  0  0  0  0  0  0  # atno 7974 bound_to 7965
  154.4456  140.1014  156.6457 H   0  0  0  0  0  0  0  0  0  0  0  0  # atno 8008 bound_to 7997
  155.5452  140.3484  155.4437 H   0  0  0  0  0  0  0  0  0  0  0  0  # atno 8009 bound_to 7997
  156.0568  140.1317  156.9976 H   0  0  0  0  0  0  0  0  0  0  0  0  # atno 8010 bound_to 7997
  140.7264  143.4864  151.0049 H   0  0  0  0  0  0  0  0  0  0  0  0  # atno 10167 bound_to 10162
  157.0852  130.6404  149.5835 H   0  0  0  0  0  0  0  0  0  0  0  0  # atno 10718 bound_to 10713
  153.0003  135.5443  154.6288 H   0  0  0  0  0  0  0  0  0  0  0  0  # atno 10763 bound_to 10752
  154.5570  135.2831  155.0957 H   0  0  0  0  0  0  0  0  0  0  0  0  # atno 10764 bound_to 10752
  154.2174  135.6456  153.5186 H   0  0  0  0  0  0  0  0  0  0  0  0  # atno 10765 bound_to 10752
  140.0046  134.6389  155.9875 H   0  0  0  0  0  0  0  0  0  0  0  0  # atno 11005 bound_to 11000
  144.9301  139.4308  143.6499 LP  0  0  0  0  0  0  0  0  0  0  0  0  # atno 17320 bound_to 7965
  146.3234  139.8208  142.8927 LP  0  0  0  0  0  0  0  0  0  0  0  0  # atno 17321 bound_to 7965
  139.8566  143.7369  152.3175 LP  0  0  0  0  0  0  0  0  0  0  0  0  # atno 17342 bound_to 10162
  139.7569  144.7518  151.0421 LP  0  0  0  0  0  0  0  0  0  0  0  0  # atno 17343 bound_to 10162
  155.9913  130.4967  150.7292 LP  0  0  0  0  0  0  0  0  0  0  0  0  # atno 17370 bound_to 10713
  157.4767  131.0898  151.0582 LP  0  0  0  0  0  0  0  0  0  0  0  0  # atno 17371 bound_to 10713
  141.1668  133.6537  156.4507 LP  0  0  0  0  0  0  0  0  0  0  0  0  # atno 17394 bound_to 11000
  140.4664  134.6794  157.5109 LP  0  0  0  0  0  0  0  0  0  0  0  0  # atno 17395 bound_to 11000

$$$$
