AV-unprocessed.smi:40|AV-procd|sdf|373|dock6
  -GOLD-   2262016223D 1   1.00000     0.00000
 Structure written by MMmdl.
 47 48  0  0  0  0  0  0  0  0  1 V2000
  151.9775  144.3460  157.8134 C   0  0  0  0  0  0  0  0  0  0  0  0
  152.1768  143.0172  158.5544 C   0  0  0  0  0  0  0  0  0  0  0  0
  153.3792  143.0148  159.5126 C   0  0  0  0  0  0  0  0  0  0  0  0
  153.4817  141.7430  160.3738 C   0  0  0  0  0  0  0  0  0  0  0  0
  153.9776  140.5208  159.5891 C   0  0  0  0  0  0  0  0  0  0  0  0
  153.0699  140.2505  158.5335 O   0  0  0  0  0  0  0  0  0  0  0  0
  152.4260  139.0709  158.4561 C   0  0  0  0  0  0  0  0  0  0  0  0
  152.6234  138.1193  159.2109 O   0  0  0  0  0  0  0  0  0  0  0  0
  151.4986  139.0666  157.3423 N   0  0  0  0  0  0  0  0  0  0  0  0
  150.6925  138.0461  156.9754 C   0  0  0  0  0  0  0  0  0  0  0  0
  150.2818  137.2257  157.9236 N   0  0  0  0  0  0  0  0  0  0  0  0
  149.4792  136.1407  157.6934 C   0  0  0  0  0  0  0  0  0  0  0  0
  149.1601  135.3907  158.6146 O   0  0  0  0  0  0  0  0  0  0  0  0
  149.0405  135.9152  156.3657 N   0  0  0  0  0  0  0  0  0  0  0  0
  148.1792  134.6917  156.0987 C   0  0  2  0  0  0  0  0  0  0  0  0
  148.9309  133.7074  155.4544 O   0  0  0  0  0  0  0  0  0  0  0  0
  148.7455  133.8145  154.0500 C   0  0  1  0  0  0  0  0  0  0  0  0
  149.1375  132.5003  153.3659 C   0  0  0  0  0  0  0  0  0  0  0  0
  147.2659  134.1745  153.9198 C   0  0  2  0  0  0  0  0  0  0  0  0
  147.0490  134.9213  152.7394 O   0  0  0  0  0  0  0  0  0  0  0  0
  146.9936  135.0240  155.1614 C   0  0  1  0  0  0  0  0  0  0  0  0
  145.7570  134.6562  155.7387 O   0  0  0  0  0  0  0  0  0  0  0  0
  149.4722  136.7654  155.3545 C   0  0  0  0  0  0  0  0  0  0  0  0
  150.2706  137.8253  155.6036 C   0  0  0  0  0  0  0  0  0  0  0  0
  150.6457  138.6411  154.6028 F   0  0  0  0  0  0  0  0  0  0  0  0
  147.8860  134.3419  157.0906 H   0  0  0  0  0  0  0  0  0  0  0  0
  149.3643  134.6295  153.6712 H   0  0  0  0  0  0  0  0  0  0  0  0
  146.6547  133.2703  153.9168 H   0  0  0  0  0  0  0  0  0  0  0  0
  146.9864  136.0891  154.9239 H   0  0  0  0  0  0  0  0  0  0  0  0
  151.1533  144.2713  157.1039 H   0  0  0  0  0  0  0  0  0  0  0  0
  152.8716  144.6231  157.2544 H   0  0  0  0  0  0  0  0  0  0  0  0
  151.7444  145.1589  158.5007 H   0  0  0  0  0  0  0  0  0  0  0  0
  151.2683  142.7583  159.0994 H   0  0  0  0  0  0  0  0  0  0  0  0
  152.3195  142.2286  157.8150 H   0  0  0  0  0  0  0  0  0  0  0  0
  154.2865  143.1146  158.9157 H   0  0  0  0  0  0  0  0  0  0  0  0
  153.3423  143.8961  160.1540 H   0  0  0  0  0  0  0  0  0  0  0  0
  154.1638  141.9187  161.2051 H   0  0  0  0  0  0  0  0  0  0  0  0
  152.5108  141.5170  160.8161 H   0  0  0  0  0  0  0  0  0  0  0  0
  154.9737  140.6981  159.1822 H   0  0  0  0  0  0  0  0  0  0  0  0
  154.0457  139.6653  160.2627 H   0  0  0  0  0  0  0  0  0  0  0  0
  151.4085  139.9480  156.8586 H   0  0  0  0  0  0  0  0  0  0  0  0
  148.9713  132.5550  152.2898 H   0  0  0  0  0  0  0  0  0  0  0  0
  148.5556  131.6636  153.7531 H   0  0  0  0  0  0  0  0  0  0  0  0
  150.1917  132.2765  153.5298 H   0  0  0  0  0  0  0  0  0  0  0  0
  147.7796  135.5074  152.6152 H   0  0  0  0  0  0  0  0  0  0  0  0
  145.8201  134.7600  156.6758 H   0  0  0  0  0  0  0  0  0  0  0  0
  149.1825  136.6046  154.3276 H   0  0  0  0  0  0  0  0  0  0  0  0
  1  2  1  0  0  0  0
  1 30  1  0  0  0  0
  1 31  1  0  0  0  0
  1 32  1  0  0  0  0
  2  3  1  0  0  0  0
  2 33  1  0  0  0  0
  2 34  1  0  0  0  0
  3  4  1  0  0  0  0
  3 35  1  0  0  0  0
  3 36  1  0  0  0  0
  4  5  1  0  0  0  0
  4 37  1  0  0  0  0
  4 38  1  0  0  0  0
  5  6  1  0  0  0  0
  5 39  1  0  0  0  0
  5 40  1  0  0  0  0
  6  7  1  0  0  0  0
  7  8  2  0  0  0  0
  7  9  1  0  0  0  0
  9 10  1  0  0  0  0
  9 41  1  0  0  0  0
 10 24  1  0  0  0  0
 10 11  2  0  0  0  0
 11 12  1  0  0  0  0
 12 13  2  0  0  0  0
 12 14  1  0  0  0  0
 14 15  1  0  0  0  0
 14 23  1  0  0  0  0
 15 26  1  0  0  0  0
 15 21  1  0  0  0  0
 15 16  1  0  0  0  0
 16 17  1  0  0  0  0
 17 27  1  0  0  0  0
 17 18  1  0  0  0  0
 17 19  1  0  0  0  0
 18 42  1  0  0  0  0
 18 43  1  0  0  0  0
 18 44  1  0  0  0  0
 19 28  1  0  0  0  0
 19 20  1  0  0  0  0
 19 21  1  0  0  0  0
 20 45  1  0  0  0  0
 21 29  1  0  0  0  0
 21 22  1  0  0  0  0
 22 46  1  0  0  0  0
 23 24  2  0  0  0  0
 23 47  1  0  0  0  0
 24 25  1  0  0  0  0
M  END
> <s_m_source_file>
AV-unprocessed.smi

> <i_m_source_file_index>
40

> <i_lp_mmshare_version>
43012

> <i_f3d_flags>
0

> <s_epik_input>
W0NIM11bQ0gyXVtDSDJdW0NIMl1bQ0gyXU9DKD1PKVtOSF1jMW5jKD1PKW4oW2NIXWMxRilbQ0BASF0yT1tDQEhdKFtDSDNdKVtDQEBIXShbT0hdKVtDQEhdMltPSF0=

> <s_epik_cmdline>
J2VwaWtfcHl0aG9uJywgJy1waCcsICc3LjAnLCAnLXRuJywgJzgnLCAnLW1hJywgJzIwMCcsICctbWV0YWxfYmluZGluZycsICctaW1hZScsICc8aW5maWxlLm1hZT4nLCAnLW9tYWUnLCAnPG91dGZpbGUubWFlPic=

> <r_lp_tautomer_probability>
1

> <r_epik_Ionization_Penalty>
2.29506e-06

> <r_epik_Ionization_Penalty_Charging>
8.26867e-09

> <r_epik_Ionization_Penalty_Neutral>
2.2868e-06

> <r_epik_State_Penalty>
-0

> <r_epik_Charging_Adjusted_Penalty>
8.26867e-09

> <i_epik_Tot_Q>
0

> <i_epik_Tot_abs_Q>
0

> <r_epik_Metal_State_Penalty>
-0

> <b_epik_Metal_Only>
0

> <s_epik_Chemistry_Notes>
This compound has an ester and may undergo hydrolysis at high or low pH. This compound contains an acetal/aminal-like group ( X-CH(R)-Y where X, Y are N, S, or O) that may be acid/base labile, releasing an aldehyde.

> <s_lp_Force_Field>
OPLS_2005

> <r_lp_Energy>
31.7957

> <b_lp_Chiralities_Consistent>
1

> <s_lp_Variant>
AV-unprocessed.smi:40-7

> <Gold.Version>
5.8.1

> <Gold.Id.Protein>
6NUR|6NUR_protein|mol2

> <Gold.PLP.Fitness>
42.1796

> <Gold.PLP.PLP>
-35.0429

> <Gold.PLP.part.hbond>
-2.6267

> <Gold.PLP.part.metal>
0.0000

> <Gold.PLP.part.buried>
-4.6499

> <Gold.PLP.part.nonpolar>
-27.1586

> <Gold.PLP.part.repulsive>
0.0761

> <Gold.PLP.ligand.clash>
0.0000

> <Gold.PLP.ligand.torsion>
0.9656

> <Gold.PLP.Chemscore.Hbond>
2.0000

> <Gold.PLP.Chemscore.CHOScore>
1.0000

> <Gold.PLP.Chemscore.Metal>
0.0000

> <Gold.Chemscore.Hbonds>
donor molecule, donor type, donor heavy atom, donor atom, acceptor molecule, acceptor atom, score
      L1  H    20    45       P1  7948  1.00
      P1  H  6896  6907       L1    13  1.00
      L1  C    23    47       P1  7948  1.00

> <Gold.PLP.Chemscore.Internal.Correction>
0.0678

> <Gold.Rescore>
     Score         DG    S(hbond)    S(metal)    S(lipo)     H(rot)  DE(clash)    DE(int)     intcor
      8.42     -12.18       1.94        0.00      82.62       3.70       0.14       3.62       ----

> <Gold.Chemscore.Fitness>
8.4211

> <Gold.Chemscore.DG>
-12.1798

> <Gold.Chemscore.ZeroCoef>
-5.4800

> <Gold.Chemscore.Hbond>
1.9445

> <Gold.Chemscore.Metal>
0.0000

> <Gold.Chemscore.Lipo>
82.6167

> <Gold.Chemscore.Internal_Hbond>
0.0000

> <Gold.Chemscore.DEClash>
0.1363

> <Gold.Chemscore.DEInternal>
3.6224

> <Gold.Chemscore.Rot>
3.6957

> <Gold.Chemscore.Internal.Correction>
   9.000000E+99

> <Gold.Chemscore.Hbonds>
donor molecule, donor type, donor heavy atom, donor atom, acceptor molecule, acceptor atom, score
      L1  H    20    45       P1  7948  0.94
      P1  H  6896  6907       L1    13  0.87

> <Gold.Chemscore.Hbond.Weighted>
-6.4946

> <Gold.Chemscore.Metal.Weighted>
-0.0000

> <Gold.Chemscore.Lipo.Weighted>
-9.6662

> <Gold.Chemscore.Internal_Hbond.Weighted>
0.0000

> <Gold.Chemscore.DEClash.Weighted>
0.1363

> <Gold.Chemscore.DEInternal.Weighted>
3.6224

> <Gold.Chemscore.Rot.Weighted>
9.4610

> <Gold.Chemscore.Internal.Correction.Weighted>
   9.000000E+99

> <Gold.Protein.RotatedTorsions>
[ 6907 6896 6895 6894 ] final  -70.78 input  -60.11 | X-H torsion
[ 7974 7965 7964 7962 ] final   66.96 input  175.53 | X-H torsion
[ 8008 7997 7996 7995 ] final -165.14 input   59.86 | X-H torsion
[ 10167 10162 10161 10158 ] final  141.41 input  -65.29 | X-H torsion
[ 10718 10713 10712 10709 ] final  -36.11 input   66.30 | X-H torsion
[ 10763 10752 10751 10750 ] final  -49.18 input  -60.55 | X-H torsion
[ 11005 11000 10999 10996 ] final -130.22 input  -57.11 | X-H torsion

> <Gold.Protein.ActiveResidues>
 VAL166  LYS551  ARG553  GLY616  TRP617  ASP618  TYR619  PRO620  LYS621  CYS622 
 ASP623  PHE694  ASN695  SER759  ASP760  ASP761  ALA762  ILE779  LEU786  VAL792 
 PHE793  MET794  SER795  GLU796  ALA797  LYS798  CYS799  TRP800  GLU811  SER814 

> <Gold.Protein.RotatedAtoms>
  150.7242  134.5404  159.5743 H   0  0  0  0  0  0  0  0  0  0  0  0  # atno 6907 bound_to 6896
  152.2916  134.7712  160.0386 H   0  0  0  0  0  0  0  0  0  0  0  0  # atno 6908 bound_to 6896
  151.8324  133.3375  159.3654 H   0  0  0  0  0  0  0  0  0  0  0  0  # atno 6909 bound_to 6896
  145.8204  139.3081  143.1047 H   0  0  0  0  0  0  0  0  0  0  0  0  # atno 7974 bound_to 7965
  155.8455  140.0955  157.1707 H   0  0  0  0  0  0  0  0  0  0  0  0  # atno 8008 bound_to 7997
  154.3983  140.1393  156.3842 H   0  0  0  0  0  0  0  0  0  0  0  0  # atno 8009 bound_to 7997
  155.8018  140.3452  155.5409 H   0  0  0  0  0  0  0  0  0  0  0  0  # atno 8010 bound_to 7997
  139.5021  144.6173  151.6133 H   0  0  0  0  0  0  0  0  0  0  0  0  # atno 10167 bound_to 10162
  156.3307  130.4279  149.7875 H   0  0  0  0  0  0  0  0  0  0  0  0  # atno 10718 bound_to 10713
  154.0899  135.6579  153.4851 H   0  0  0  0  0  0  0  0  0  0  0  0  # atno 10763 bound_to 10752
  153.0325  135.5200  154.7391 H   0  0  0  0  0  0  0  0  0  0  0  0  # atno 10764 bound_to 10752
  154.6511  135.3001  154.9954 H   0  0  0  0  0  0  0  0  0  0  0  0  # atno 10765 bound_to 10752
  140.9365  134.1250  157.4189 H   0  0  0  0  0  0  0  0  0  0  0  0  # atno 11005 bound_to 11000
  145.9681  140.8782  143.0176 LP  0  0  0  0  0  0  0  0  0  0  0  0  # atno 17320 bound_to 7965
  144.6748  140.1907  143.7397 LP  0  0  0  0  0  0  0  0  0  0  0  0  # atno 17321 bound_to 7965
  140.5865  143.9855  150.6299 LP  0  0  0  0  0  0  0  0  0  0  0  0  # atno 17342 bound_to 10162
  140.3021  143.3253  152.0961 LP  0  0  0  0  0  0  0  0  0  0  0  0  # atno 17343 bound_to 10162
  156.5149  130.8189  151.3182 LP  0  0  0  0  0  0  0  0  0  0  0  0  # atno 17370 bound_to 10713
  157.7430  130.9902  150.2556 LP  0  0  0  0  0  0  0  0  0  0  0  0  # atno 17371 bound_to 10713
  139.8809  135.0022  156.6115 LP  0  0  0  0  0  0  0  0  0  0  0  0  # atno 17394 bound_to 11000
  140.7793  133.8674  155.8554 LP  0  0  0  0  0  0  0  0  0  0  0  0  # atno 17395 bound_to 11000

$$$$
