AV-unprocessed.smi:1712|AV-procd|sdf|6901|dock3
  -GOLD-   22720 8103D 1   1.00000     0.00000
 Structure written by MMmdl.
 37 38  0  0  0  0  0  0  0  0  1 V2000
  148.0234  141.4233  153.8031 C   0  0  0  0  0  0  0  0  0  0  0  0
  148.6548  140.0213  153.6469 C   0  0  2  0  0  0  0  0  0  0  0  0
  147.6795  138.9751  154.2469 C   0  0  0  0  0  0  0  0  0  0  0  0
  147.4979  137.8200  153.3695 N   0  0  0  0  0  0  0  0  0  0  0  0
  146.3243  137.2543  153.0548 C   0  0  0  0  0  0  0  0  0  0  0  0
  145.2367  137.6629  153.4626 O   0  0  0  0  0  0  0  0  0  0  0  0
  146.4966  136.1913  152.2524 N   0  0  0  0  0  0  0  0  0  0  0  0
  145.4920  135.3546  151.7041 C   0  0  0  0  0  0  0  0  0  0  0  0
  145.6079  133.9466  151.5490 C   0  0  0  0  0  0  0  0  0  0  0  0
  144.5165  133.4282  151.0040 N   0  0  0  0  0  0  0  0  0  0  0  0
  143.7053  134.4924  150.8088 N   0  0  0  0  0  0  0  0  0  0  0  0
  144.2573  135.6856  151.2203 C   0  0  0  0  0  0  0  0  0  0  0  0
  150.0336  139.9336  154.1763 N   0  0  0  0  0  0  0  0  0  0  0  0
  150.1502  140.4639  155.5381 C   0  0  0  0  0  0  0  0  0  0  0  0
  151.5816  140.3589  156.0920 C   0  0  0  0  0  0  0  0  0  0  0  0
  152.0110  139.0044  156.0547 O   0  0  0  0  0  0  0  0  0  0  0  0
  151.9776  138.4666  154.7392 C   0  0  0  0  0  0  0  0  0  0  0  0
  150.5489  138.5613  154.1764 C   0  0  0  0  0  0  0  0  0  0  0  0
  142.7883  134.3899  150.3976 H   0  0  0  0  0  0  0  0  0  0  0  0
  146.9721  141.4173  153.5142 H   0  0  0  0  0  0  0  0  0  0  0  0
  148.5080  142.1640  153.1678 H   0  0  0  0  0  0  0  0  0  0  0  0
  148.0791  141.7758  154.8335 H   0  0  0  0  0  0  0  0  0  0  0  0
  148.6945  139.8206  152.5752 H   0  0  0  0  0  0  0  0  0  0  0  0
  148.0296  138.6640  155.2325 H   0  0  0  0  0  0  0  0  0  0  0  0
  146.7018  139.4162  154.4373 H   0  0  0  0  0  0  0  0  0  0  0  0
  148.3383  137.4071  152.9922 H   0  0  0  0  0  0  0  0  0  0  0  0
  147.4471  135.9544  152.0083 H   0  0  0  0  0  0  0  0  0  0  0  0
  146.4311  133.2970  151.8083 H   0  0  0  0  0  0  0  0  0  0  0  0
  143.7350  136.6263  151.1303 H   0  0  0  0  0  0  0  0  0  0  0  0
  149.8660  141.5145  155.5665 H   0  0  0  0  0  0  0  0  0  0  0  0
  149.4657  139.9332  156.2016 H   0  0  0  0  0  0  0  0  0  0  0  0
  152.2660  140.9821  155.5139 H   0  0  0  0  0  0  0  0  0  0  0  0
  151.6168  140.7149  157.1216 H   0  0  0  0  0  0  0  0  0  0  0  0
  152.6809  139.0035  154.1003 H   0  0  0  0  0  0  0  0  0  0  0  0
  152.3036  137.4268  154.7714 H   0  0  0  0  0  0  0  0  0  0  0  0
  149.8873  137.9181  154.7589 H   0  0  0  0  0  0  0  0  0  0  0  0
  150.5689  138.1598  153.1644 H   0  0  0  0  0  0  0  0  0  0  0  0
  1  2  1  0  0  0  0
  1 20  1  0  0  0  0
  1 21  1  0  0  0  0
  1 22  1  0  0  0  0
  2  3  1  0  0  0  0
  2 13  1  0  0  0  0
  2 23  1  0  0  0  0
  3  4  1  0  0  0  0
  3 24  1  0  0  0  0
  3 25  1  0  0  0  0
  4  5  1  0  0  0  0
  4 26  1  0  0  0  0
  5  6  2  0  0  0  0
  5  7  1  0  0  0  0
  7  8  1  0  0  0  0
  7 27  1  0  0  0  0
  8 12  2  0  0  0  0
  8  9  1  0  0  0  0
  9 10  2  0  0  0  0
  9 28  1  0  0  0  0
 10 11  1  0  0  0  0
 11 19  1  0  0  0  0
 11 12  1  0  0  0  0
 12 29  1  0  0  0  0
 13 18  1  0  0  0  0
 13 14  1  0  0  0  0
 14 15  1  0  0  0  0
 14 30  1  0  0  0  0
 14 31  1  0  0  0  0
 15 16  1  0  0  0  0
 15 32  1  0  0  0  0
 15 33  1  0  0  0  0
 16 17  1  0  0  0  0
 17 18  1  0  0  0  0
 17 34  1  0  0  0  0
 17 35  1  0  0  0  0
 18 36  1  0  0  0  0
 18 37  1  0  0  0  0
M  END
> <s_m_source_file>
AV-unprocessed.smi

> <i_m_source_file_index>
1712

> <i_lp_mmshare_version>
43012

> <i_f3d_flags>
0

> <s_epik_input>
W0NIMl0xW0NIMl1PW0NIMl1bQ0gyXU4xW0NASF0oW0NIM10pW0NIMl1bTkhdQyg9TylbTkhdYzJbY0hdbltuSF1bY0hdMg==

> <s_epik_cmdline>
J2VwaWtfcHl0aG9uJywgJy1waCcsICc3LjAnLCAnLXRuJywgJzgnLCAnLW1hJywgJzIwMCcsICctbWV0YWxfYmluZGluZycsICctaW1hZScsICc8aW5maWxlLm1hZT4nLCAnLW9tYWUnLCAnPG91dGZpbGUubWFlPic=

> <r_lp_tautomer_probability>
0.5

> <r_epik_Ionization_Penalty>
0.242772

> <r_epik_Ionization_Penalty_Charging>
0

> <r_epik_Ionization_Penalty_Neutral>
0.242772

> <r_epik_State_Penalty>
0.233765

> <r_epik_Charging_Adjusted_Penalty>
0.233765

> <i_epik_Tot_Q>
0

> <i_epik_Tot_abs_Q>
0

> <r_epik_Metal_State_Penalty>
0.233764

> <b_epik_Metal_Only>
0

> <s_lp_Force_Field>
OPLS_2005

> <r_lp_Energy>
36.7302

> <b_lp_Chiralities_Consistent>
1

> <s_lp_Variant>
AV-unprocessed.smi:1712-1

> <Gold.Version>
5.8.1

> <Gold.Id.Protein>
6NUR|6NUR_protein|mol2

> <Gold.PLP.Fitness>
39.7274

> <Gold.PLP.PLP>
-27.7848

> <Gold.PLP.part.hbond>
-3.8355

> <Gold.PLP.part.metal>
0.0000

> <Gold.PLP.part.buried>
-1.5096

> <Gold.PLP.part.nonpolar>
-23.4115

> <Gold.PLP.part.repulsive>
1.0148

> <Gold.PLP.ligand.clash>
0.0000

> <Gold.PLP.ligand.torsion>
1.1021

> <Gold.PLP.Chemscore.Hbond>
3.7033

> <Gold.PLP.Chemscore.CHOScore>
1.0000

> <Gold.PLP.Chemscore.Metal>
0.0000

> <Gold.Chemscore.Hbonds>
donor molecule, donor type, donor heavy atom, donor atom, acceptor molecule, acceptor atom, score
      L1  H     4    26       P1  7948  0.90
      L1  H     7    27       P1  7948  0.96
      L1  H    11    19       P1 10186  1.00
      P1  H  7989  7998       L1    13  0.76
      L1  C    12    29       P1 10171  1.00

> <Gold.PLP.Chemscore.Internal.Correction>
0.0370

> <Gold.Rescore>
     Score         DG    S(hbond)    S(metal)    S(lipo)     H(rot)  DE(clash)    DE(int)     intcor
     15.52     -17.91       2.78        0.00      62.67       1.63       1.23       1.16       ----

> <Gold.Chemscore.Fitness>
15.5217

> <Gold.Chemscore.DG>
-17.9087

> <Gold.Chemscore.ZeroCoef>
-5.4800

> <Gold.Chemscore.Hbond>
2.7759

> <Gold.Chemscore.Metal>
0.0000

> <Gold.Chemscore.Lipo>
62.6744

> <Gold.Chemscore.Internal_Hbond>
0.0000

> <Gold.Chemscore.DEClash>
1.2287

> <Gold.Chemscore.DEInternal>
1.1583

> <Gold.Chemscore.Rot>
1.6311

> <Gold.Chemscore.Internal.Correction>
   9.000000E+99

> <Gold.Chemscore.Hbonds>
donor molecule, donor type, donor heavy atom, donor atom, acceptor molecule, acceptor atom, score
      L1  H     4    26       P1  7948  0.88
      L1  H     7    27       P1  7948  0.90
      L1  H    11    19       P1 10186  0.64
      P1  H  7989  7998       L1    13  0.02

> <Gold.Chemscore.Hbond.Weighted>
-9.2715

> <Gold.Chemscore.Metal.Weighted>
-0.0000

> <Gold.Chemscore.Lipo.Weighted>
-7.3329

> <Gold.Chemscore.Internal_Hbond.Weighted>
0.0000

> <Gold.Chemscore.DEClash.Weighted>
1.2287

> <Gold.Chemscore.DEInternal.Weighted>
1.1583

> <Gold.Chemscore.Rot.Weighted>
4.1757

> <Gold.Chemscore.Internal.Correction.Weighted>
   9.000000E+99

> <Gold.Protein.RotatedTorsions>
[ 6907 6896 6895 6894 ] final -135.84 input  -60.11 | X-H torsion
[ 7974 7965 7964 7962 ] final -156.27 input  175.53 | X-H torsion
[ 8008 7997 7996 7995 ] final  132.33 input   59.86 | X-H torsion
[ 10167 10162 10161 10158 ] final  128.09 input  -65.29 | X-H torsion
[ 10718 10713 10712 10709 ] final  -67.78 input   66.30 | X-H torsion
[ 10763 10752 10751 10750 ] final -171.92 input  -60.55 | X-H torsion
[ 11005 11000 10999 10996 ] final   16.57 input  -57.11 | X-H torsion

> <Gold.Protein.ActiveResidues>
 VAL166  LYS551  ARG553  GLY616  TRP617  ASP618  TYR619  PRO620  LYS621  CYS622 
 ASP623  PHE694  ASN695  SER759  ASP760  ASP761  ALA762  ILE779  LEU786  VAL792 
 PHE793  MET794  SER795  GLU796  ALA797  LYS798  CYS799  TRP800  GLU811  SER814 

> <Gold.Protein.RotatedAtoms>
  151.0027  133.6040  159.2692 H   0  0  0  0  0  0  0  0  0  0  0  0  # atno 6907 bound_to 6896
  151.3220  135.0820  159.9319 H   0  0  0  0  0  0  0  0  0  0  0  0  # atno 6908 bound_to 6896
  152.5278  133.9673  159.7799 H   0  0  0  0  0  0  0  0  0  0  0  0  # atno 6909 bound_to 6896
  144.7601  140.4133  143.5983 H   0  0  0  0  0  0  0  0  0  0  0  0  # atno 7974 bound_to 7965
  156.2981  140.2549  156.3072 H   0  0  0  0  0  0  0  0  0  0  0  0  # atno 8008 bound_to 7997
  154.9361  140.0397  157.2092 H   0  0  0  0  0  0  0  0  0  0  0  0  # atno 8009 bound_to 7997
  154.8171  140.2854  155.5817 H   0  0  0  0  0  0  0  0  0  0  0  0  # atno 8010 bound_to 7997
  139.5545  144.6838  151.4225 H   0  0  0  0  0  0  0  0  0  0  0  0  # atno 10167 bound_to 10162
  156.0539  130.4283  150.1904 H   0  0  0  0  0  0  0  0  0  0  0  0  # atno 10718 bound_to 10713
  154.6251  135.2880  155.0281 H   0  0  0  0  0  0  0  0  0  0  0  0  # atno 10763 bound_to 10752
  154.1462  135.6511  153.4957 H   0  0  0  0  0  0  0  0  0  0  0  0  # atno 10764 bound_to 10752
  153.0254  135.5344  154.7057 H   0  0  0  0  0  0  0  0  0  0  0  0  # atno 10765 bound_to 10752
  140.4457  134.1276  155.7696 H   0  0  0  0  0  0  0  0  0  0  0  0  # atno 11005 bound_to 11000
  145.6649  139.1588  143.2787 LP  0  0  0  0  0  0  0  0  0  0  0  0  # atno 17320 bound_to 7965
  146.1654  140.6726  142.9258 LP  0  0  0  0  0  0  0  0  0  0  0  0  # atno 17321 bound_to 7965
  140.6814  143.8072  150.7127 LP  0  0  0  0  0  0  0  0  0  0  0  0  # atno 17342 bound_to 10162
  140.1527  143.4344  152.2120 LP  0  0  0  0  0  0  0  0  0  0  0  0  # atno 17343 bound_to 10162
  156.9984  130.9914  151.3397 LP  0  0  0  0  0  0  0  0  0  0  0  0  # atno 17370 bound_to 10713
  157.5492  130.8171  149.8123 LP  0  0  0  0  0  0  0  0  0  0  0  0  # atno 17371 bound_to 10713
  141.1686  133.8653  157.1639 LP  0  0  0  0  0  0  0  0  0  0  0  0  # atno 17394 bound_to 11000
  140.0040  135.0016  157.0252 LP  0  0  0  0  0  0  0  0  0  0  0  0  # atno 17395 bound_to 11000

$$$$
