AV-unprocessed.smi:345|AV-procd|sdf|2391|dock7
  -GOLD-   2262022323D 1   1.00000     0.00000
 Structure written by MMmdl.
 34 36  0  0  0  0  0  0  0  0  1 V2000
  147.3032  140.0273  153.6221 C   0  0  0  0  0  0  0  0  0  0  0  0
  148.6246  140.1815  154.2935 C   0  0  0  0  0  0  0  0  0  0  0  0
  149.0303  140.8670  155.4042 C   0  0  0  0  0  0  0  0  0  0  0  0
  150.4169  140.5686  155.4756 C   0  0  0  0  0  0  0  0  0  0  0  0
  151.2212  141.0936  156.5191 N   0  0  0  0  0  0  0  0  0  0  0  0
  150.8084  141.6686  157.6614 C   0  0  0  0  0  0  0  0  0  0  0  0
  149.6327  141.8052  158.0008 O   0  0  0  0  0  0  0  0  0  0  0  0
  151.8489  142.0843  158.3991 N   0  0  0  0  0  0  0  0  0  0  0  0
  151.7615  142.7707  159.6840 C   0  0  0  0  0  0  0  0  0  0  0  0
  151.2665  144.2022  159.5481 C   0  0  0  0  0  0  0  0  0  0  0  0
  152.1205  145.2718  158.9084 C   0  0  0  0  0  0  0  0  0  0  0  0
  151.8347  145.3196  160.3914 C   0  0  0  0  0  0  0  0  0  0  0  0
  153.0900  142.7438  160.4186 C   0  0  0  0  0  0  0  0  0  0  0  0
  153.7655  141.4382  160.7635 C   0  0  0  0  0  0  0  0  0  0  0  0
  153.1863  142.3031  161.8603 C   0  0  0  0  0  0  0  0  0  0  0  0
  150.8228  139.7782  154.4937 N   0  0  0  0  0  0  0  0  0  0  0  0
  149.6761  139.5260  153.7313 O   0  0  0  0  0  0  0  0  0  0  0  0
  146.5465  140.6475  154.1030 H   0  0  0  0  0  0  0  0  0  0  0  0
  146.9673  138.9912  153.6658 H   0  0  0  0  0  0  0  0  0  0  0  0
  147.3648  140.3195  152.5737 H   0  0  0  0  0  0  0  0  0  0  0  0
  148.4286  141.4785  156.0601 H   0  0  0  0  0  0  0  0  0  0  0  0
  152.2181  141.0418  156.3716 H   0  0  0  0  0  0  0  0  0  0  0  0
  152.7780  141.9217  158.0396 H   0  0  0  0  0  0  0  0  0  0  0  0
  151.0445  142.2313  160.3070 H   0  0  0  0  0  0  0  0  0  0  0  0
  150.2010  144.2702  159.3351 H   0  0  0  0  0  0  0  0  0  0  0  0
  153.1313  145.0069  158.6058 H   0  0  0  0  0  0  0  0  0  0  0  0
  151.6202  146.0013  158.2752 H   0  0  0  0  0  0  0  0  0  0  0  0
  151.1426  146.0795  160.7477 H   0  0  0  0  0  0  0  0  0  0  0  0
  152.6563  145.0851  161.0651 H   0  0  0  0  0  0  0  0  0  0  0  0
  153.7568  143.5559  160.1335 H   0  0  0  0  0  0  0  0  0  0  0  0
  153.2409  140.5154  160.5235 H   0  0  0  0  0  0  0  0  0  0  0  0
  154.8492  141.3949  160.6771 H   0  0  0  0  0  0  0  0  0  0  0  0
  153.8832  142.8385  162.5018 H   0  0  0  0  0  0  0  0  0  0  0  0
  152.2821  141.9466  162.3492 H   0  0  0  0  0  0  0  0  0  0  0  0
  1  2  1  0  0  0  0
  1 18  1  0  0  0  0
  1 19  1  0  0  0  0
  1 20  1  0  0  0  0
  2 17  1  0  0  0  0
  2  3  2  0  0  0  0
  3  4  1  0  0  0  0
  3 21  1  0  0  0  0
  4  5  1  0  0  0  0
  4 16  2  0  0  0  0
  5  6  1  0  0  0  0
  5 22  1  0  0  0  0
  6  7  2  0  0  0  0
  6  8  1  0  0  0  0
  8  9  1  0  0  0  0
  8 23  1  0  0  0  0
  9 10  1  0  0  0  0
  9 13  1  0  0  0  0
  9 24  1  0  0  0  0
 10 12  1  0  0  0  0
 10 11  1  0  0  0  0
 10 25  1  0  0  0  0
 11 12  1  0  0  0  0
 11 26  1  0  0  0  0
 11 27  1  0  0  0  0
 12 28  1  0  0  0  0
 12 29  1  0  0  0  0
 13 15  1  0  0  0  0
 13 14  1  0  0  0  0
 13 30  1  0  0  0  0
 14 15  1  0  0  0  0
 14 31  1  0  0  0  0
 14 32  1  0  0  0  0
 15 33  1  0  0  0  0
 15 34  1  0  0  0  0
 16 17  1  0  0  0  0
M  END
> <s_m_source_file>
AV-unprocessed.smi

> <i_m_source_file_index>
345

> <i_lp_mmshare_version>
43012

> <i_f3d_flags>
0

> <s_epik_input>
W0NIM11jMVtjSF1jKG5vMSlbTkhdQyg9TylbTkhdW0NIXShbQ0hdMltDSDJdW0NIMl0yKVtDSF0zW0NIMl1bQ0gyXTM=

> <s_epik_cmdline>
J2VwaWtfcHl0aG9uJywgJy1waCcsICc3LjAnLCAnLXRuJywgJzgnLCAnLW1hJywgJzIwMCcsICctbWV0YWxfYmluZGluZycsICctaW1hZScsICc8aW5maWxlLm1hZT4nLCAnLW9tYWUnLCAnPG91dGZpbGUubWFlPic=

> <r_lp_tautomer_probability>
1

> <r_epik_Ionization_Penalty>
2.39082e-05

> <r_epik_Ionization_Penalty_Charging>
0

> <r_epik_Ionization_Penalty_Neutral>
2.39082e-05

> <r_epik_State_Penalty>
-0

> <r_epik_Charging_Adjusted_Penalty>
0

> <i_epik_Tot_Q>
0

> <i_epik_Tot_abs_Q>
0

> <r_epik_Metal_State_Penalty>
-0

> <b_epik_Metal_Only>
0

> <s_lp_Force_Field>
OPLS_2005

> <r_lp_Energy>
21.3823

> <b_lp_Chiralities_Consistent>
1

> <s_lp_Variant>
AV-unprocessed.smi:345-1

> <Gold.Version>
5.8.1

> <Gold.Id.Protein>
6NUR|6NUR_protein|mol2

> <Gold.PLP.Fitness>
40.3049

> <Gold.PLP.PLP>
-38.1779

> <Gold.PLP.part.hbond>
-1.3473

> <Gold.PLP.part.metal>
0.0000

> <Gold.PLP.part.buried>
-7.0494

> <Gold.PLP.part.nonpolar>
-33.9996

> <Gold.PLP.part.repulsive>
3.5996

> <Gold.PLP.ligand.clash>
0.0000

> <Gold.PLP.ligand.torsion>
1.4919

> <Gold.PLP.Chemscore.Hbond>
1.0000

> <Gold.PLP.Chemscore.CHOScore>
0.0000

> <Gold.PLP.Chemscore.Metal>
0.0000

> <Gold.Chemscore.Hbonds>
donor molecule, donor type, donor heavy atom, donor atom, acceptor molecule, acceptor atom, score
      P1  H  7989  7998       L1    16  1.00

> <Gold.PLP.Chemscore.Internal.Correction>
2.1107

> <Gold.Rescore>
     Score         DG    S(hbond)    S(metal)    S(lipo)     H(rot)  DE(clash)    DE(int)     intcor
     10.27     -13.29       0.04        0.00      96.74       1.42       0.16       2.86       ----

> <Gold.Chemscore.Fitness>
10.2708

> <Gold.Chemscore.DG>
-13.2908

> <Gold.Chemscore.ZeroCoef>
-5.4800

> <Gold.Chemscore.Hbond>
0.0367

> <Gold.Chemscore.Metal>
0.0000

> <Gold.Chemscore.Lipo>
96.7424

> <Gold.Chemscore.Internal_Hbond>
0.0000

> <Gold.Chemscore.DEClash>
0.1617

> <Gold.Chemscore.DEInternal>
2.8583

> <Gold.Chemscore.Rot>
1.4183

> <Gold.Chemscore.Internal.Correction>
   9.000000E+99

> <Gold.Chemscore.Hbonds>
donor molecule, donor type, donor heavy atom, donor atom, acceptor molecule, acceptor atom, score
      P1  H  7989  7998       L1    16  0.10

> <Gold.Chemscore.Hbond.Weighted>
-0.1227

> <Gold.Chemscore.Metal.Weighted>
-0.0000

> <Gold.Chemscore.Lipo.Weighted>
-11.3189

> <Gold.Chemscore.Internal_Hbond.Weighted>
0.0000

> <Gold.Chemscore.DEClash.Weighted>
0.1617

> <Gold.Chemscore.DEInternal.Weighted>
2.8583

> <Gold.Chemscore.Rot.Weighted>
3.6308

> <Gold.Chemscore.Internal.Correction.Weighted>
   9.000000E+99

> <Gold.Protein.RotatedTorsions>
[ 6907 6896 6895 6894 ] final  -41.07 input  -60.11 | X-H torsion
[ 7974 7965 7964 7962 ] final -113.42 input  175.53 | X-H torsion
[ 8008 7997 7996 7995 ] final    5.00 input   59.86 | X-H torsion
[ 10167 10162 10161 10158 ] final  133.96 input  -65.29 | X-H torsion
[ 10718 10713 10712 10709 ] final  -16.94 input   66.30 | X-H torsion
[ 10763 10752 10751 10750 ] final   39.11 input  -60.55 | X-H torsion
[ 11005 11000 10999 10996 ] final -129.53 input  -57.11 | X-H torsion

> <Gold.Protein.ActiveResidues>
 VAL166  LYS551  ARG553  GLY616  TRP617  ASP618  TYR619  PRO620  LYS621  CYS622 
 ASP623  PHE694  ASN695  SER759  ASP760  ASP761  ALA762  ILE779  LEU786  VAL792 
 PHE793  MET794  SER795  GLU796  ALA797  LYS798  CYS799  TRP800  GLU811  SER814 

> <Gold.Protein.RotatedAtoms>
  150.9710  134.9083  159.7787 H   0  0  0  0  0  0  0  0  0  0  0  0  # atno 6907 bound_to 6896
  152.5190  134.3540  159.9271 H   0  0  0  0  0  0  0  0  0  0  0  0  # atno 6908 bound_to 6896
  151.3550  133.3870  159.2718 H   0  0  0  0  0  0  0  0  0  0  0  0  # atno 6909 bound_to 6896
  145.1322  140.8731  143.3751 H   0  0  0  0  0  0  0  0  0  0  0  0  # atno 7974 bound_to 7965
  154.7229  140.2715  155.6525 H   0  0  0  0  0  0  0  0  0  0  0  0  # atno 8008 bound_to 7997
  156.2828  140.2731  156.1830 H   0  0  0  0  0  0  0  0  0  0  0  0  # atno 8009 bound_to 7997
  155.0483  140.0371  157.2524 H   0  0  0  0  0  0  0  0  0  0  0  0  # atno 8010 bound_to 7997
  139.5275  144.6591  151.5071 H   0  0  0  0  0  0  0  0  0  0  0  0  # atno 10167 bound_to 10162
  156.5806  130.4773  149.6322 H   0  0  0  0  0  0  0  0  0  0  0  0  # atno 10718 bound_to 10713
  152.9978  135.6230  154.2413 H   0  0  0  0  0  0  0  0  0  0  0  0  # atno 10763 bound_to 10752
  154.2153  135.2798  155.2946 H   0  0  0  0  0  0  0  0  0  0  0  0  # atno 10764 bound_to 10752
  154.5573  135.5715  153.7034 H   0  0  0  0  0  0  0  0  0  0  0  0  # atno 10765 bound_to 10752
  140.9423  134.1176  157.4139 H   0  0  0  0  0  0  0  0  0  0  0  0  # atno 11005 bound_to 11000
  145.0623  139.3096  143.5874 LP  0  0  0  0  0  0  0  0  0  0  0  0  # atno 17320 bound_to 7965
  146.3513  140.0069  142.8671 LP  0  0  0  0  0  0  0  0  0  0  0  0  # atno 17321 bound_to 7965
  140.6430  143.8851  150.6710 LP  0  0  0  0  0  0  0  0  0  0  0  0  # atno 17342 bound_to 10162
  140.2191  143.3823  152.1657 LP  0  0  0  0  0  0  0  0  0  0  0  0  # atno 17343 bound_to 10162
  156.2635  130.6976  151.1752 LP  0  0  0  0  0  0  0  0  0  0  0  0  # atno 17370 bound_to 10713
  157.7327  131.0597  150.5613 LP  0  0  0  0  0  0  0  0  0  0  0  0  # atno 17371 bound_to 10713
  139.8824  135.0040  156.6224 LP  0  0  0  0  0  0  0  0  0  0  0  0  # atno 17394 bound_to 11000
  140.7717  133.8733  155.8497 LP  0  0  0  0  0  0  0  0  0  0  0  0  # atno 17395 bound_to 11000

$$$$
