AV-unprocessed.smi:1805|AV-procd|sdf|7298|dock8
  -GOLD-   22720 8553D 1   1.00000     0.00000
 Structure written by MMmdl.
 29 30  0  0  0  0  0  0  0  0  1 V2000
  150.3134  140.4792  156.1295 O   0  0  0  0  0  0  0  0  0  0  0  0
  149.9499  141.6553  156.1056 C   0  0  0  0  0  0  0  0  0  0  0  0
  150.5192  142.6245  156.8362 N   0  0  0  0  0  0  0  0  0  0  0  0
  151.6352  142.4443  157.7595 C   0  0  0  0  0  0  0  0  0  0  0  0
  151.3138  142.9954  159.1591 C   0  0  1  0  0  0  0  0  0  0  0  0
  152.4022  142.7749  160.2106 C   0  0  0  0  0  0  0  0  0  0  0  0
  152.1074  143.8885  161.1887 C   0  0  0  0  0  0  0  0  0  0  0  0
  151.7138  145.0264  160.2516 C   0  0  0  0  0  0  0  0  0  0  0  0
  151.1398  144.4088  159.1019 O   0  0  0  0  0  0  0  0  0  0  0  0
  148.9411  142.1361  155.3609 N   0  0  0  0  0  0  0  0  0  0  0  0
  148.1151  141.4152  154.4618 C   0  0  0  0  0  0  0  0  0  0  0  0
  148.3473  140.0761  154.0458 C   0  0  0  0  0  0  0  0  0  0  0  0
  147.4107  139.6616  153.2045 N   0  0  0  0  0  0  0  0  0  0  0  0
  146.5816  140.7227  153.0814 N   0  0  0  0  0  0  0  0  0  0  0  0
  146.9706  141.8124  153.8286 C   0  0  0  0  0  0  0  0  0  0  0  0
  145.7628  140.6878  152.4909 H   0  0  0  0  0  0  0  0  0  0  0  0
  150.1508  143.5605  156.7513 H   0  0  0  0  0  0  0  0  0  0  0  0
  151.9323  141.3960  157.8200 H   0  0  0  0  0  0  0  0  0  0  0  0
  152.4918  142.9789  157.3488 H   0  0  0  0  0  0  0  0  0  0  0  0
  150.3763  142.5691  159.5201 H   0  0  0  0  0  0  0  0  0  0  0  0
  152.3640  141.7843  160.6647 H   0  0  0  0  0  0  0  0  0  0  0  0
  153.3930  142.9149  159.7759 H   0  0  0  0  0  0  0  0  0  0  0  0
  151.2640  143.6151  161.8243 H   0  0  0  0  0  0  0  0  0  0  0  0
  152.9543  144.1355  161.8291 H   0  0  0  0  0  0  0  0  0  0  0  0
  151.0194  145.7262  160.7168 H   0  0  0  0  0  0  0  0  0  0  0  0
  152.5974  145.5838  159.9381 H   0  0  0  0  0  0  0  0  0  0  0  0
  148.7429  143.1224  155.4450 H   0  0  0  0  0  0  0  0  0  0  0  0
  149.1478  139.4048  154.3200 H   0  0  0  0  0  0  0  0  0  0  0  0
  146.4115  142.7362  153.8382 H   0  0  0  0  0  0  0  0  0  0  0  0
  1  2  2  0  0  0  0
  2  3  1  0  0  0  0
  2 10  1  0  0  0  0
  3  4  1  0  0  0  0
  3 17  1  0  0  0  0
  4  5  1  0  0  0  0
  4 18  1  0  0  0  0
  4 19  1  0  0  0  0
  5  9  1  0  0  0  0
  5  6  1  0  0  0  0
  5 20  1  0  0  0  0
  6  7  1  0  0  0  0
  6 21  1  0  0  0  0
  6 22  1  0  0  0  0
  7  8  1  0  0  0  0
  7 23  1  0  0  0  0
  7 24  1  0  0  0  0
  8  9  1  0  0  0  0
  8 25  1  0  0  0  0
  8 26  1  0  0  0  0
 10 11  1  0  0  0  0
 10 27  1  0  0  0  0
 11 15  2  0  0  0  0
 11 12  1  0  0  0  0
 12 13  2  0  0  0  0
 12 28  1  0  0  0  0
 13 14  1  0  0  0  0
 14 16  1  0  0  0  0
 14 15  1  0  0  0  0
 15 29  1  0  0  0  0
M  END
> <s_m_source_file>
AV-unprocessed.smi

> <i_m_source_file_index>
1805

> <i_lp_mmshare_version>
43012

> <i_f3d_flags>
0

> <s_epik_input>
W2NIXTFbbkhdbltjSF1jMVtOSF1DKD1PKVtOSF1bQ0gyXVtDQEBIXTJbQ0gyXVtDSDJdW0NIMl1PMg==

> <s_epik_cmdline>
J2VwaWtfcHl0aG9uJywgJy1waCcsICc3LjAnLCAnLXRuJywgJzgnLCAnLW1hJywgJzIwMCcsICctbWV0YWxfYmluZGluZycsICctaW1hZScsICc8aW5maWxlLm1hZT4nLCAnLW9tYWUnLCAnPG91dGZpbGUubWFlPic=

> <r_lp_tautomer_probability>
1

> <r_epik_Ionization_Penalty>
4.81496e-05

> <r_epik_Ionization_Penalty_Charging>
0

> <r_epik_Ionization_Penalty_Neutral>
4.81496e-05

> <r_epik_State_Penalty>
-0

> <r_epik_Charging_Adjusted_Penalty>
0

> <i_epik_Tot_Q>
0

> <i_epik_Tot_abs_Q>
0

> <r_epik_Metal_State_Penalty>
-0

> <b_epik_Metal_Only>
0

> <s_lp_Force_Field>
OPLS_2005

> <r_lp_Energy>
19.2876

> <b_lp_Chiralities_Consistent>
1

> <s_lp_Variant>
AV-unprocessed.smi:1805-2

> <Gold.Version>
5.8.1

> <Gold.Id.Protein>
6NUR|6NUR_protein|mol2

> <Gold.PLP.Fitness>
40.6174

> <Gold.PLP.PLP>
-32.1070

> <Gold.PLP.part.hbond>
-3.0000

> <Gold.PLP.part.metal>
0.0000

> <Gold.PLP.part.buried>
-6.5296

> <Gold.PLP.part.nonpolar>
-22.9843

> <Gold.PLP.part.repulsive>
0.7505

> <Gold.PLP.ligand.clash>
0.0000

> <Gold.PLP.ligand.torsion>
0.0533

> <Gold.PLP.Chemscore.Hbond>
2.8720

> <Gold.PLP.Chemscore.CHOScore>
0.0000

> <Gold.PLP.Chemscore.Metal>
0.0000

> <Gold.Chemscore.Hbonds>
donor molecule, donor type, donor heavy atom, donor atom, acceptor molecule, acceptor atom, score
      L1  H     3    17       P1  8028  0.88
      L1  H    10    27       P1  8028  1.00
      L1  H    14    16       P1 10175  0.80

> <Gold.PLP.Chemscore.Internal.Correction>
0.0011

> <Gold.Rescore>
     Score         DG    S(hbond)    S(metal)    S(lipo)     H(rot)  DE(clash)    DE(int)     intcor
     19.03     -20.42       2.92        0.00      73.53       1.33       0.10       1.29       ----

> <Gold.Chemscore.Fitness>
19.0276

> <Gold.Chemscore.DG>
-20.4181

> <Gold.Chemscore.ZeroCoef>
-5.4800

> <Gold.Chemscore.Hbond>
2.9165

> <Gold.Chemscore.Metal>
0.0000

> <Gold.Chemscore.Lipo>
73.5331

> <Gold.Chemscore.Internal_Hbond>
0.0000

> <Gold.Chemscore.DEClash>
0.0998

> <Gold.Chemscore.DEInternal>
1.2907

> <Gold.Chemscore.Rot>
1.3306

> <Gold.Chemscore.Internal.Correction>
   9.000000E+99

> <Gold.Chemscore.Hbonds>
donor molecule, donor type, donor heavy atom, donor atom, acceptor molecule, acceptor atom, score
      L1  H     3    17       P1  8028  0.81
      L1  H    10    27       P1  8028  0.99
      L1  H    14    16       P1 10175  0.23

> <Gold.Chemscore.Hbond.Weighted>
-9.7410

> <Gold.Chemscore.Metal.Weighted>
-0.0000

> <Gold.Chemscore.Lipo.Weighted>
-8.6034

> <Gold.Chemscore.Internal_Hbond.Weighted>
0.0000

> <Gold.Chemscore.DEClash.Weighted>
0.0998

> <Gold.Chemscore.DEInternal.Weighted>
1.2907

> <Gold.Chemscore.Rot.Weighted>
3.4063

> <Gold.Chemscore.Internal.Correction.Weighted>
   9.000000E+99

> <Gold.Protein.RotatedTorsions>
[ 6907 6896 6895 6894 ] final   -5.30 input  -60.11 | X-H torsion
[ 7974 7965 7964 7962 ] final  -58.35 input  175.53 | X-H torsion
[ 8008 7997 7996 7995 ] final    4.74 input   59.86 | X-H torsion
[ 10167 10162 10161 10158 ] final  -19.11 input  -65.29 | X-H torsion
[ 10718 10713 10712 10709 ] final   74.27 input   66.30 | X-H torsion
[ 10763 10752 10751 10750 ] final   74.54 input  -60.55 | X-H torsion
[ 11005 11000 10999 10996 ] final   61.23 input  -57.11 | X-H torsion

> <Gold.Protein.ActiveResidues>
 VAL166  LYS551  ARG553  GLY616  TRP617  ASP618  TYR619  PRO620  LYS621  CYS622 
 ASP623  PHE694  ASN695  SER759  ASP760  ASP761  ALA762  ILE779  LEU786  VAL792 
 PHE793  MET794  SER795  GLU796  ALA797  LYS798  CYS799  TRP800  GLU811  SER814 

> <Gold.Protein.RotatedAtoms>
  151.4838  135.1053  159.9784 H   0  0  0  0  0  0  0  0  0  0  0  0  # atno 6907 bound_to 6896
  152.4769  133.8155  159.7036 H   0  0  0  0  0  0  0  0  0  0  0  0  # atno 6908 bound_to 6896
  150.8812  133.7307  159.2958 H   0  0  0  0  0  0  0  0  0  0  0  0  # atno 6909 bound_to 6896
  145.8404  140.8421  143.0037 H   0  0  0  0  0  0  0  0  0  0  0  0  # atno 7974 bound_to 7965
  154.7197  140.2709  155.6553 H   0  0  0  0  0  0  0  0  0  0  0  0  # atno 8008 bound_to 7997
  156.2820  140.2737  156.1789 H   0  0  0  0  0  0  0  0  0  0  0  0  # atno 8009 bound_to 7997
  155.0524  140.0371  157.2538 H   0  0  0  0  0  0  0  0  0  0  0  0  # atno 8010 bound_to 7997
  140.7265  143.4850  151.0066 H   0  0  0  0  0  0  0  0  0  0  0  0  # atno 10167 bound_to 10162
  157.6585  130.9669  150.1187 H   0  0  0  0  0  0  0  0  0  0  0  0  # atno 10718 bound_to 10713
  153.0594  135.5022  154.8057 H   0  0  0  0  0  0  0  0  0  0  0  0  # atno 10763 bound_to 10752
  154.6858  135.2976  154.9551 H   0  0  0  0  0  0  0  0  0  0  0  0  # atno 10764 bound_to 10752
  154.0322  135.6728  153.4834 H   0  0  0  0  0  0  0  0  0  0  0  0  # atno 10765 bound_to 10752
  140.0176  134.6202  155.9687 H   0  0  0  0  0  0  0  0  0  0  0  0  # atno 11005 bound_to 11000
  144.6734  140.0803  143.7469 LP  0  0  0  0  0  0  0  0  0  0  0  0  # atno 17320 bound_to 7965
  145.9472  139.2709  143.1234 LP  0  0  0  0  0  0  0  0  0  0  0  0  # atno 17321 bound_to 7965
  139.8551  143.7387  152.3176 LP  0  0  0  0  0  0  0  0  0  0  0  0  # atno 17342 bound_to 10162
  139.7583  144.7514  151.0402 LP  0  0  0  0  0  0  0  0  0  0  0  0  # atno 17343 bound_to 10162
  156.2064  130.3663  149.8724 LP  0  0  0  0  0  0  0  0  0  0  0  0  # atno 17370 bound_to 10713
  156.6614  130.8783  151.3548 LP  0  0  0  0  0  0  0  0  0  0  0  0  # atno 17371 bound_to 10713
  141.1753  133.6540  156.4804 LP  0  0  0  0  0  0  0  0  0  0  0  0  # atno 17394 bound_to 11000
  140.4444  134.6986  157.5008 LP  0  0  0  0  0  0  0  0  0  0  0  0  # atno 17395 bound_to 11000

$$$$
