AV-unprocessed.smi:1875|AV-procd|sdf|7612|dock7
  -GOLD-   22720 9333D 1   1.00000     0.00000
 Structure written by MMmdl.
 48 50  0  0  0  0  0  0  0  0  2 V2000
  145.4015  134.8512  154.4934 C   0  0  0  0  0  0  0  0  0  0  0  0
  145.5554  135.5577  153.1625 C   0  0  0  0  0  0  0  0  0  0  0  0
  145.2276  134.8625  152.0691 N   0  0  0  0  0  0  0  0  0  0  0  0
  145.3569  135.4918  150.8810 C   0  0  0  0  0  0  0  0  0  0  0  0
  145.8161  136.8219  150.7927 C   0  0  0  0  0  0  0  0  0  0  0  0
  146.1262  137.4553  152.0145 C   0  0  0  0  0  0  0  0  0  0  0  0
  146.6473  138.8761  152.0579 C   0  0  0  0  0  0  0  0  0  0  0  0
  147.9795  138.9099  152.6887 N   0  3  0  0  0  0  0  0  0  0  0  0
  147.9854  139.4475  154.0635 C   0  0  0  0  0  0  0  0  0  0  0  0
  148.9301  140.6543  154.1825 C   0  0  2  0  0  0  0  0  0  0  0  0
  150.2668  140.1984  154.0927 O   0  0  0  0  0  0  0  0  0  0  0  0
  148.7333  141.4161  155.5074 C   0  0  0  0  0  0  0  0  0  0  0  0
  149.5613  140.8892  156.5776 N   0  0  0  0  0  0  0  0  0  0  0  0
  149.5453  139.6357  157.0701 C   0  0  0  0  0  0  0  0  0  0  0  0
  150.3893  139.3589  158.0591 N   0  0  0  0  0  0  0  0  0  0  0  0
  151.0289  140.5748  158.2286 C   0  0  0  0  0  0  0  0  0  0  0  0
  152.0454  140.9576  159.1307 C   0  0  0  0  0  0  0  0  0  0  0  0
  152.5572  142.2747  159.1294 C   0  0  0  0  0  0  0  0  0  0  0  0
  153.6485  142.6433  160.1190 C   0  0  0  0  0  0  0  0  0  0  0  0
  152.0520  143.2325  158.2137 C   0  0  0  0  0  0  0  0  0  0  0  0
  152.5880  144.6531  158.1936 C   0  0  0  0  0  0  0  0  0  0  0  0
  151.0364  142.8670  157.3055 C   0  0  0  0  0  0  0  0  0  0  0  0
  150.5348  141.5533  157.3169 C   0  0  0  0  0  0  0  0  0  0  0  0
  145.9990  136.8184  153.1997 N   0  0  0  0  0  0  0  0  0  0  0  0
  145.4331  133.7678  154.3710 H   0  0  0  0  0  0  0  0  0  0  0  0
  144.4478  135.1166  154.9500 H   0  0  0  0  0  0  0  0  0  0  0  0
  146.2011  135.1351  155.1785 H   0  0  0  0  0  0  0  0  0  0  0  0
  145.0955  134.9310  149.9959 H   0  0  0  0  0  0  0  0  0  0  0  0
  145.9204  137.3218  149.8410 H   0  0  0  0  0  0  0  0  0  0  0  0
  146.7060  139.2792  151.0459 H   0  0  0  0  0  0  0  0  0  0  0  0
  145.9542  139.5050  152.6188 H   0  0  0  0  0  0  0  0  0  0  0  0
  148.3424  137.9671  152.7117 H   0  0  0  0  0  0  0  0  0  0  0  0
  146.9682  139.7502  154.3157 H   0  0  0  0  0  0  0  0  0  0  0  0
  148.2700  138.6651  154.7688 H   0  0  0  0  0  0  0  0  0  0  0  0
  148.7468  141.3380  153.3520 H   0  0  0  0  0  0  0  0  0  0  0  0
  150.2685  139.2533  154.1117 H   0  0  0  0  0  0  0  0  0  0  0  0
  148.9820  142.4700  155.3754 H   0  0  0  0  0  0  0  0  0  0  0  0
  147.6893  141.3809  155.8212 H   0  0  0  0  0  0  0  0  0  0  0  0
  148.8740  138.8838  156.6814 H   0  0  0  0  0  0  0  0  0  0  0  0
  152.4303  140.2276  159.8275 H   0  0  0  0  0  0  0  0  0  0  0  0
  153.3238  143.4650  160.7577 H   0  0  0  0  0  0  0  0  0  0  0  0
  154.5537  142.9487  159.5934 H   0  0  0  0  0  0  0  0  0  0  0  0
  153.9032  141.8008  160.7628 H   0  0  0  0  0  0  0  0  0  0  0  0
  152.1016  145.2518  157.4229 H   0  0  0  0  0  0  0  0  0  0  0  0
  153.6594  144.6542  157.9911 H   0  0  0  0  0  0  0  0  0  0  0  0
  152.4159  145.1397  159.1538 H   0  0  0  0  0  0  0  0  0  0  0  0
  150.6425  143.5878  156.6048 H   0  0  0  0  0  0  0  0  0  0  0  0
  148.5910  139.4740  152.1163 H   0  0  0  0  0  0  0  0  0  0  0  0
  1  2  1  0  0  0  0
  1 25  1  0  0  0  0
  1 26  1  0  0  0  0
  1 27  1  0  0  0  0
  2 24  1  0  0  0  0
  2  3  2  0  0  0  0
  3  4  1  0  0  0  0
  4  5  2  0  0  0  0
  4 28  1  0  0  0  0
  5  6  1  0  0  0  0
  5 29  1  0  0  0  0
  6  7  1  0  0  0  0
  6 24  2  0  0  0  0
  7  8  1  0  0  0  0
  7 30  1  0  0  0  0
  7 31  1  0  0  0  0
  8  9  1  0  0  0  0
  8 32  1  0  0  0  0
  8 48  1  0  0  0  0
  9 10  1  0  0  0  0
  9 33  1  0  0  0  0
  9 34  1  0  0  0  0
 10 11  1  0  0  0  0
 10 12  1  0  0  0  0
 10 35  1  0  0  0  0
 11 36  1  0  0  0  0
 12 13  1  0  0  0  0
 12 37  1  0  0  0  0
 12 38  1  0  0  0  0
 13 23  1  0  0  0  0
 13 14  1  0  0  0  0
 14 15  2  0  0  0  0
 14 39  1  0  0  0  0
 15 16  1  0  0  0  0
 16 23  2  0  0  0  0
 16 17  1  0  0  0  0
 17 18  2  0  0  0  0
 17 40  1  0  0  0  0
 18 19  1  0  0  0  0
 18 20  1  0  0  0  0
 19 41  1  0  0  0  0
 19 42  1  0  0  0  0
 19 43  1  0  0  0  0
 20 21  1  0  0  0  0
 20 22  2  0  0  0  0
 21 44  1  0  0  0  0
 21 45  1  0  0  0  0
 21 46  1  0  0  0  0
 22 23  1  0  0  0  0
 22 47  1  0  0  0  0
M  CHG  1   8   1
M  END
> <s_m_source_file>
AV-unprocessed.smi

> <i_m_source_file_index>
1875

> <i_lp_mmshare_version>
43012

> <i_f3d_flags>
0

> <s_epik_input>
W0NIM11jMW5bY0hdW2NIXWMobjEpW0NIMl1bTkhdW0NIMl1bQ0BIXShbT0hdKVtDSDJdbihbY0hdbjIpYyhjMjMpW2NIXWMoW0NIM10pYyhbY0hdMylbQ0gzXQ==

> <s_epik_cmdline>
J2VwaWtfcHl0aG9uJywgJy1waCcsICc3LjAnLCAnLXRuJywgJzgnLCAnLW1hJywgJzIwMCcsICctbWV0YWxfYmluZGluZycsICctaW1hZScsICc8aW5maWxlLm1hZT4nLCAnLW9tYWUnLCAnPG91dGZpbGUubWFlPic=

> <r_lp_tautomer_probability>
1

> <r_epik_Ionization_Penalty>
0.192455

> <r_epik_Ionization_Penalty_Charging>
0.102343

> <r_epik_Ionization_Penalty_Neutral>
0.0901122

> <r_epik_State_Penalty>
0.175389

> <r_epik_Charging_Adjusted_Penalty>
0.277732

> <i_epik_Tot_Q>
1

> <i_epik_Tot_abs_Q>
1

> <r_epik_Metal_State_Penalty>
0.167659

> <b_epik_Metal_Only>
0

> <s_epik_Chemistry_Notes>
This compound contains an electron-poor aromatic ring that is susceptible to covalent hydrolysis at low pH, typically resulting in measured values for nitrogen ring protonation that are around two units higher than predicted values.

> <s_lp_Force_Field>
OPLS_2005

> <r_lp_Energy>
2.18652

> <b_lp_Chiralities_Consistent>
1

> <s_lp_Variant>
AV-unprocessed.smi:1875-1

> <Gold.Version>
5.8.1

> <Gold.Id.Protein>
6NUR|6NUR_protein|mol2

> <Gold.PLP.Fitness>
58.9286

> <Gold.PLP.PLP>
-46.5171

> <Gold.PLP.part.hbond>
-3.7277

> <Gold.PLP.part.metal>
0.0000

> <Gold.PLP.part.buried>
-1.4644

> <Gold.PLP.part.nonpolar>
-43.1400

> <Gold.PLP.part.repulsive>
0.3390

> <Gold.PLP.ligand.clash>
0.0000

> <Gold.PLP.ligand.torsion>
1.1013

> <Gold.PLP.Chemscore.Hbond>
3.8370

> <Gold.PLP.Chemscore.CHOScore>
1.0000

> <Gold.PLP.Chemscore.Metal>
0.0000

> <Gold.Chemscore.Hbonds>
donor molecule, donor type, donor heavy atom, donor atom, acceptor molecule, acceptor atom, score
      L1  H     8    32       P1  7948  2.00
      L1  H     8    48       P1  7957  0.89
      P1  H  7989  7998       L1    11  0.98
      L1  C     4    28       P1  7921  0.87

> <Gold.PLP.Chemscore.Internal.Correction>
0.1031

> <Gold.Rescore>
     Score         DG    S(hbond)    S(metal)    S(lipo)     H(rot)  DE(clash)    DE(int)     intcor
     20.26     -22.46       2.83        0.00     125.61       2.80       1.07       1.13       ----

> <Gold.Chemscore.Fitness>
20.2633

> <Gold.Chemscore.DG>
-22.4640

> <Gold.Chemscore.ZeroCoef>
-5.4800

> <Gold.Chemscore.Hbond>
2.8347

> <Gold.Chemscore.Metal>
0.0000

> <Gold.Chemscore.Lipo>
125.6072

> <Gold.Chemscore.Internal_Hbond>
0.0000

> <Gold.Chemscore.DEClash>
1.0726

> <Gold.Chemscore.DEInternal>
1.1281

> <Gold.Chemscore.Rot>
2.8047

> <Gold.Chemscore.Internal.Correction>
   9.000000E+99

> <Gold.Chemscore.Hbonds>
donor molecule, donor type, donor heavy atom, donor atom, acceptor molecule, acceptor atom, score
      L1  H     8    32       P1  7948  0.92
      L1  H     8    48       P1  7957  0.87
      P1  H  7989  7998       L1    11  0.83

> <Gold.Chemscore.Hbond.Weighted>
-9.4681

> <Gold.Chemscore.Metal.Weighted>
-0.0000

> <Gold.Chemscore.Lipo.Weighted>
-14.6960

> <Gold.Chemscore.Internal_Hbond.Weighted>
0.0000

> <Gold.Chemscore.DEClash.Weighted>
1.0726

> <Gold.Chemscore.DEInternal.Weighted>
1.1281

> <Gold.Chemscore.Rot.Weighted>
7.1801

> <Gold.Chemscore.Internal.Correction.Weighted>
   9.000000E+99

> <Gold.Protein.RotatedTorsions>
[ 6907 6896 6895 6894 ] final  111.89 input  -60.11 | X-H torsion
[ 7974 7965 7964 7962 ] final   71.96 input  175.53 | X-H torsion
[ 8008 7997 7996 7995 ] final  -50.99 input   59.86 | X-H torsion
[ 10167 10162 10161 10158 ] final -140.98 input  -65.29 | X-H torsion
[ 10718 10713 10712 10709 ] final  -13.79 input   66.30 | X-H torsion
[ 10763 10752 10751 10750 ] final   -4.77 input  -60.55 | X-H torsion
[ 11005 11000 10999 10996 ] final   49.61 input  -57.11 | X-H torsion

> <Gold.Protein.ActiveResidues>
 VAL166  LYS551  ARG553  GLY616  TRP617  ASP618  TYR619  PRO620  LYS621  CYS622 
 ASP623  PHE694  ASN695  SER759  ASP760  ASP761  ALA762  ILE779  LEU786  VAL792 
 PHE793  MET794  SER795  GLU796  ALA797  LYS798  CYS799  TRP800  GLU811  SER814 

> <Gold.Protein.RotatedAtoms>
  152.4945  133.8593  159.7241 H   0  0  0  0  0  0  0  0  0  0  0  0  # atno 6907 bound_to 6896
  150.9109  133.6990  159.2862 H   0  0  0  0  0  0  0  0  0  0  0  0  # atno 6908 bound_to 6896
  151.4399  135.1023  159.9719 H   0  0  0  0  0  0  0  0  0  0  0  0  # atno 6909 bound_to 6896
  145.7593  139.2793  143.1385 H   0  0  0  0  0  0  0  0  0  0  0  0  # atno 7974 bound_to 7965
  154.4073  140.1259  156.4757 H   0  0  0  0  0  0  0  0  0  0  0  0  # atno 8008 bound_to 7997
  155.7135  140.3493  155.4965 H   0  0  0  0  0  0  0  0  0  0  0  0  # atno 8009 bound_to 7997
  155.9279  140.1064  157.1146 H   0  0  0  0  0  0  0  0  0  0  0  0  # atno 8010 bound_to 7997
  139.8229  143.7550  152.2666 H   0  0  0  0  0  0  0  0  0  0  0  0  # atno 10167 bound_to 10162
  156.6252  130.4886  149.6149 H   0  0  0  0  0  0  0  0  0  0  0  0  # atno 10718 bound_to 10713
  153.3894  135.7001  153.6506 H   0  0  0  0  0  0  0  0  0  0  0  0  # atno 10763 bound_to 10752
  153.5084  135.3637  155.2575 H   0  0  0  0  0  0  0  0  0  0  0  0  # atno 10764 bound_to 10752
  154.8701  135.4129  154.3208 H   0  0  0  0  0  0  0  0  0  0  0  0  # atno 10765 bound_to 10752
  140.1089  134.4982  155.8695 H   0  0  0  0  0  0  0  0  0  0  0  0  # atno 11005 bound_to 11000
  146.0280  140.8285  142.9890 LP  0  0  0  0  0  0  0  0  0  0  0  0  # atno 17320 bound_to 7965
  144.6833  140.2726  143.7303 LP  0  0  0  0  0  0  0  0  0  0  0  0  # atno 17321 bound_to 7965
  139.7733  144.7469  151.0192 LP  0  0  0  0  0  0  0  0  0  0  0  0  # atno 17342 bound_to 10162
  140.7812  143.4621  151.0264 LP  0  0  0  0  0  0  0  0  0  0  0  0  # atno 17343 bound_to 10162
  156.2279  130.6777  151.1434 LP  0  0  0  0  0  0  0  0  0  0  0  0  # atno 17370 bound_to 10713
  157.7216  131.0678  150.6111 LP  0  0  0  0  0  0  0  0  0  0  0  0  # atno 17371 bound_to 10713
  141.2125  133.6720  156.6665 LP  0  0  0  0  0  0  0  0  0  0  0  0  # atno 17394 bound_to 11000
  140.3118  134.8080  157.4182 LP  0  0  0  0  0  0  0  0  0  0  0  0  # atno 17395 bound_to 11000

$$$$
