AV-unprocessed.smi:2547|AV-procd|sdf|10003|dock2
  -GOLD-   2272014 53D 1   1.00000     0.00000
 Structure written by MMmdl.
 45 46  0  0  0  0  0  0  0  0  3 V2000
  150.3600  143.3012  158.4639 C   0  0  0  0  0  0  0  0  0  0  0  0
  150.2295  142.0455  157.6943 N   0  3  2  0  0  0  0  0  0  0  0  0
  151.2906  141.8998  156.6669 C   0  0  0  0  0  0  0  0  0  0  0  0
  151.2028  140.5311  155.9705 C   0  0  0  0  0  0  0  0  0  0  0  0
  149.8121  140.3110  155.3526 C   0  0  1  0  0  0  0  0  0  0  0  0
  149.7325  138.9741  154.7705 N   0  0  0  0  0  0  0  0  0  0  0  0
  149.9016  137.8284  155.4466 C   0  0  0  0  0  0  0  0  0  0  0  0
  150.1529  137.7825  156.6506 O   0  0  0  0  0  0  0  0  0  0  0  0
  149.7831  136.7610  154.6380 N   0  0  0  0  0  0  0  0  0  0  0  0
  149.8961  135.3876  154.9806 C   0  0  0  0  0  0  0  0  0  0  0  0
  150.6014  134.9054  156.1089 C   0  0  0  0  0  0  0  0  0  0  0  0
  150.6333  133.5208  156.3631 C   0  0  0  0  0  0  0  0  0  0  0  0
  149.9574  132.6399  155.4961 C   0  0  0  0  0  0  0  0  0  0  0  0
  149.2489  133.1571  154.3845 C   0  0  0  0  0  0  0  0  0  0  0  0
  148.5429  132.3433  153.4722 N   0  0  0  0  0  0  0  0  0  0  0  0
  148.6183  130.8925  153.5863 C   0  0  0  0  0  0  0  0  0  0  0  0
  147.6767  132.9590  152.4729 C   0  0  0  0  0  0  0  0  0  0  0  0
  149.2519  134.4994  154.1901 N   0  3  0  0  0  0  0  0  0  0  0  0
  148.7311  140.5049  156.4326 C   0  0  0  0  0  0  0  0  0  0  0  0
  148.8720  141.8738  157.1195 C   0  0  0  0  0  0  0  0  0  0  0  0
  150.2359  144.1712  157.8178 H   0  0  0  0  0  0  0  0  0  0  0  0
  151.3411  143.3626  158.9362 H   0  0  0  0  0  0  0  0  0  0  0  0
  149.6085  143.3500  159.2526 H   0  0  0  0  0  0  0  0  0  0  0  0
  151.2012  142.7014  155.9318 H   0  0  0  0  0  0  0  0  0  0  0  0
  152.2699  142.0073  157.1350 H   0  0  0  0  0  0  0  0  0  0  0  0
  151.9706  140.4613  155.1991 H   0  0  0  0  0  0  0  0  0  0  0  0
  151.4180  139.7427  156.6936 H   0  0  0  0  0  0  0  0  0  0  0  0
  149.6669  141.0537  154.5654 H   0  0  0  0  0  0  0  0  0  0  0  0
  149.5325  138.9186  153.7823 H   0  0  0  0  0  0  0  0  0  0  0  0
  149.6638  136.9576  153.6550 H   0  0  0  0  0  0  0  0  0  0  0  0
  151.1081  135.5725  156.7901 H   0  0  0  0  0  0  0  0  0  0  0  0
  151.1690  133.1378  157.2191 H   0  0  0  0  0  0  0  0  0  0  0  0
  149.9917  131.5805  155.7023 H   0  0  0  0  0  0  0  0  0  0  0  0
  148.2689  130.5666  154.5665 H   0  0  0  0  0  0  0  0  0  0  0  0
  149.6443  130.5496  153.4493 H   0  0  0  0  0  0  0  0  0  0  0  0
  148.0013  130.4028  152.8329 H   0  0  0  0  0  0  0  0  0  0  0  0
  148.2477  133.6310  151.8312 H   0  0  0  0  0  0  0  0  0  0  0  0
  146.8819  133.5298  152.9540 H   0  0  0  0  0  0  0  0  0  0  0  0
  147.2095  132.2082  151.8353 H   0  0  0  0  0  0  0  0  0  0  0  0
  147.7366  140.4177  155.9931 H   0  0  0  0  0  0  0  0  0  0  0  0
  148.8079  139.7145  157.1811 H   0  0  0  0  0  0  0  0  0  0  0  0
  148.1260  141.9613  157.9102 H   0  0  0  0  0  0  0  0  0  0  0  0
  148.6732  142.6744  156.4051 H   0  0  0  0  0  0  0  0  0  0  0  0
  150.3602  141.2915  158.3537 H   0  0  0  0  0  0  0  0  0  0  0  0
  148.7382  134.8623  153.3873 H   0  0  0  0  0  0  0  0  0  0  0  0
  1  2  1  0  0  0  0
  1 21  1  0  0  0  0
  1 22  1  0  0  0  0
  1 23  1  0  0  0  0
  2 20  1  0  0  0  0
  2  3  1  0  0  0  0
  2 44  1  0  0  0  0
  3  4  1  0  0  0  0
  3 24  1  0  0  0  0
  3 25  1  0  0  0  0
  4  5  1  0  0  0  0
  4 26  1  0  0  0  0
  4 27  1  0  0  0  0
  5  6  1  0  0  0  0
  5 19  1  0  0  0  0
  5 28  1  0  0  0  0
  6  7  1  0  0  0  0
  6 29  1  0  0  0  0
  7  8  2  0  0  0  0
  7  9  1  0  0  0  0
  9 10  1  0  0  0  0
  9 30  1  0  0  0  0
 10 18  1  0  0  0  0
 10 11  2  0  0  0  0
 11 12  1  0  0  0  0
 11 31  1  0  0  0  0
 12 13  2  0  0  0  0
 12 32  1  0  0  0  0
 13 14  1  0  0  0  0
 13 33  1  0  0  0  0
 14 15  1  0  0  0  0
 14 18  2  0  0  0  0
 15 16  1  0  0  0  0
 15 17  1  0  0  0  0
 16 34  1  0  0  0  0
 16 35  1  0  0  0  0
 16 36  1  0  0  0  0
 17 37  1  0  0  0  0
 17 38  1  0  0  0  0
 17 39  1  0  0  0  0
 18 45  1  0  0  0  0
 19 20  1  0  0  0  0
 19 40  1  0  0  0  0
 19 41  1  0  0  0  0
 20 42  1  0  0  0  0
 20 43  1  0  0  0  0
M  CHG  1   2   1
M  CHG  1  18   1
M  END
> <s_m_source_file>
AV-unprocessed.smi

> <i_m_source_file_index>
2547

> <i_lp_mmshare_version>
43012

> <i_f3d_flags>
0

> <s_epik_input>
W0NIM11OMVtDSDJdW0NIMl1bQ0hdKFtDSDJdW0NIMl0xKVtOSF1DKD1PKVtOSF1jMltjSF1bY0hdW2NIXWMobjIpTihbQ0gzXSlbQ0gzXQ==

> <s_epik_cmdline>
J2VwaWtfcHl0aG9uJywgJy1waCcsICc3LjAnLCAnLXRuJywgJzgnLCAnLW1hJywgJzIwMCcsICctbWV0YWxfYmluZGluZycsICctaW1hZScsICc8aW5maWxlLm1hZT4nLCAnLW9tYWUnLCAnPG91dGZpbGUubWFlPic=

> <r_lp_tautomer_probability>
0.999994

> <r_epik_Ionization_Penalty>
2.17028

> <r_epik_Ionization_Penalty_Charging>
2.10368

> <r_epik_Ionization_Penalty_Neutral>
0.0666017

> <r_epik_State_Penalty>
2.2357

> <r_epik_Charging_Adjusted_Penalty>
4.33938

> <i_epik_Tot_Q>
2

> <i_epik_Tot_abs_Q>
2

> <r_epik_Metal_State_Penalty>
2.25749

> <b_epik_Metal_Only>
0

> <s_lp_Force_Field>
OPLS_2005

> <r_lp_Energy>
26.2357

> <b_lp_Chiralities_Consistent>
1

> <s_lp_Variant>
AV-unprocessed.smi:2547-3

> <Gold.Version>
5.8.1

> <Gold.Id.Protein>
6NUR|6NUR_protein|mol2

> <Gold.PLP.Fitness>
37.9125

> <Gold.PLP.PLP>
-30.6809

> <Gold.PLP.part.hbond>
-2.0000

> <Gold.PLP.part.metal>
0.0000

> <Gold.PLP.part.buried>
-3.3864

> <Gold.PLP.part.nonpolar>
-24.8163

> <Gold.PLP.part.repulsive>
0.1709

> <Gold.PLP.ligand.clash>
0.0000

> <Gold.PLP.ligand.torsion>
0.1553

> <Gold.PLP.Chemscore.Hbond>
2.5120

> <Gold.PLP.Chemscore.CHOScore>
0.0000

> <Gold.PLP.Chemscore.Metal>
0.0000

> <Gold.Chemscore.Hbonds>
donor molecule, donor type, donor heavy atom, donor atom, acceptor molecule, acceptor atom, score
      L1  H     9    30       P1  7948  0.91
      L1  H    18    45       P1  7948  1.57

> <Gold.PLP.Chemscore.Internal.Correction>
0.0061

> <Gold.Rescore>
     Score         DG    S(hbond)    S(metal)    S(lipo)     H(rot)  DE(clash)    DE(int)     intcor
     11.99     -14.50       1.35        0.00      60.30       1.00       0.11       2.40       ----

> <Gold.Chemscore.Fitness>
11.9902

> <Gold.Chemscore.DG>
-14.4993

> <Gold.Chemscore.ZeroCoef>
-5.4800

> <Gold.Chemscore.Hbond>
1.3547

> <Gold.Chemscore.Metal>
0.0000

> <Gold.Chemscore.Lipo>
60.2965

> <Gold.Chemscore.Internal_Hbond>
0.0000

> <Gold.Chemscore.DEClash>
0.1135

> <Gold.Chemscore.DEInternal>
2.3956

> <Gold.Chemscore.Rot>
1.0000

> <Gold.Chemscore.Internal.Correction>
   9.000000E+99

> <Gold.Chemscore.Hbonds>
donor molecule, donor type, donor heavy atom, donor atom, acceptor molecule, acceptor atom, score
      L1  H     9    30       P1  7948  0.62
      L1  H    18    45       P1  7948  0.37

> <Gold.Chemscore.Hbond.Weighted>
-4.5246

> <Gold.Chemscore.Metal.Weighted>
-0.0000

> <Gold.Chemscore.Lipo.Weighted>
-7.0547

> <Gold.Chemscore.Internal_Hbond.Weighted>
0.0000

> <Gold.Chemscore.DEClash.Weighted>
0.1135

> <Gold.Chemscore.DEInternal.Weighted>
2.3956

> <Gold.Chemscore.Rot.Weighted>
2.5600

> <Gold.Chemscore.Internal.Correction.Weighted>
   9.000000E+99

> <Gold.Protein.RotatedTorsions>
[ 6907 6896 6895 6894 ] final -108.25 input  -60.11 | X-H torsion
[ 7974 7965 7964 7962 ] final  -92.47 input  175.53 | X-H torsion
[ 8008 7997 7996 7995 ] final  -90.35 input   59.86 | X-H torsion
[ 10167 10162 10161 10158 ] final  173.67 input  -65.29 | X-H torsion
[ 10718 10713 10712 10709 ] final -100.87 input   66.30 | X-H torsion
[ 10763 10752 10751 10750 ] final   47.68 input  -60.55 | X-H torsion
[ 11005 11000 10999 10996 ] final   70.60 input  -57.11 | X-H torsion

> <Gold.Protein.ActiveResidues>
 VAL166  LYS551  ARG553  GLY616  TRP617  ASP618  TYR619  PRO620  LYS621  CYS622 
 ASP623  PHE694  ASN695  SER759  ASP760  ASP761  ALA762  ILE779  LEU786  VAL792 
 PHE793  MET794  SER795  GLU796  ALA797  LYS798  CYS799  TRP800  GLU811  SER814 

> <Gold.Protein.RotatedAtoms>
  150.7491  133.9705  159.3543 H   0  0  0  0  0  0  0  0  0  0  0  0  # atno 6907 bound_to 6896
  151.7638  135.0801  160.0359 H   0  0  0  0  0  0  0  0  0  0  0  0  # atno 6908 bound_to 6896
  152.3385  133.6002  159.5896 H   0  0  0  0  0  0  0  0  0  0  0  0  # atno 6909 bound_to 6896
  145.3994  140.9536  143.2296 H   0  0  0  0  0  0  0  0  0  0  0  0  # atno 7974 bound_to 7965
  154.6976  140.0531  157.0426 H   0  0  0  0  0  0  0  0  0  0  0  0  # atno 8008 bound_to 7997
  155.0730  140.3201  155.4606 H   0  0  0  0  0  0  0  0  0  0  0  0  # atno 8009 bound_to 7997
  156.2749  140.2078  156.5857 H   0  0  0  0  0  0  0  0  0  0  0  0  # atno 8010 bound_to 7997
  139.5116  144.3234  152.0181 H   0  0  0  0  0  0  0  0  0  0  0  0  # atno 10167 bound_to 10162
  156.0176  130.5347  150.6880 H   0  0  0  0  0  0  0  0  0  0  0  0  # atno 10718 bound_to 10713
  152.9798  135.5968  154.3802 H   0  0  0  0  0  0  0  0  0  0  0  0  # atno 10763 bound_to 10752
  154.3468  135.2767  155.2395 H   0  0  0  0  0  0  0  0  0  0  0  0  # atno 10764 bound_to 10752
  154.4453  135.6003  153.6211 H   0  0  0  0  0  0  0  0  0  0  0  0  # atno 10765 bound_to 10752
  139.9589  134.7096  156.0691 H   0  0  0  0  0  0  0  0  0  0  0  0  # atno 11005 bound_to 11000
  144.8384  139.5511  143.6911 LP  0  0  0  0  0  0  0  0  0  0  0  0  # atno 17320 bound_to 7965
  146.2759  139.6752  142.9263 LP  0  0  0  0  0  0  0  0  0  0  0  0  # atno 17321 bound_to 7965
  140.2675  144.4000  150.6163 LP  0  0  0  0  0  0  0  0  0  0  0  0  # atno 17342 bound_to 10162
  140.6112  143.2169  151.6882 LP  0  0  0  0  0  0  0  0  0  0  0  0  # atno 17343 bound_to 10162
  157.4568  131.0879  151.0788 LP  0  0  0  0  0  0  0  0  0  0  0  0  # atno 17370 bound_to 10713
  157.1288  130.6093  149.5524 LP  0  0  0  0  0  0  0  0  0  0  0  0  # atno 17371 bound_to 10713
  141.1263  133.6598  156.3347 LP  0  0  0  0  0  0  0  0  0  0  0  0  # atno 17394 bound_to 11000
  140.5546  134.5994  157.5417 LP  0  0  0  0  0  0  0  0  0  0  0  0  # atno 17395 bound_to 11000

$$$$
