AV-unprocessed.smi:72|AV-procd|sdf|751|dock6
  -GOLD-   2262017 83D 1   1.00000     0.00000
 Structure written by MMmdl.
 29 30  0  0  0  0  0  0  0  0  1 V2000
  152.7966  140.9288  158.8649 N   0  0  0  0  0  0  0  0  0  0  0  0
  151.9679  140.9560  157.7624 C   0  0  0  0  0  0  0  0  0  0  0  0
  150.8859  141.8458  157.8175 N   0  0  0  0  0  0  0  0  0  0  0  0
  150.1096  141.8794  156.7809 C   0  0  0  0  0  0  0  0  0  0  0  0
  150.3620  141.0403  155.6230 N   0  0  0  0  0  0  0  0  0  0  0  0
  149.4521  141.0799  154.4124 C   0  0  2  0  0  0  0  0  0  0  0  0
  148.5914  142.1682  154.5339 O   0  0  0  0  0  0  0  0  0  0  0  0
  147.3699  141.8549  153.8832 C   0  0  2  0  0  0  0  0  0  0  0  0
  146.2507  142.7735  154.3973 C   0  0  0  0  0  0  0  0  0  0  0  0
  145.0139  142.0934  154.3744 O   0  0  0  0  0  0  0  0  0  0  0  0
  147.1661  140.3796  154.2454 C   0  0  1  0  0  0  0  0  0  0  0  0
  146.3680  139.7420  153.2677 O   0  0  0  0  0  0  0  0  0  0  0  0
  148.5831  139.8121  154.2438 C   0  0  2  0  0  0  0  0  0  0  0  0
  148.7375  138.8505  155.2723 O   0  0  0  0  0  0  0  0  0  0  0  0
  151.4653  140.1444  155.6430 C   0  0  0  0  0  0  0  0  0  0  0  0
  151.6752  139.3967  154.6878 O   0  0  0  0  0  0  0  0  0  0  0  0
  152.2751  140.1514  156.7854 N   0  0  0  0  0  0  0  0  0  0  0  0
  150.0886  141.2669  153.5461 H   0  0  0  0  0  0  0  0  0  0  0  0
  147.5050  141.9583  152.8041 H   0  0  0  0  0  0  0  0  0  0  0  0
  146.7104  140.2924  155.2334 H   0  0  0  0  0  0  0  0  0  0  0  0
  148.8375  139.3615  153.2833 H   0  0  0  0  0  0  0  0  0  0  0  0
  153.6045  140.3277  158.9378 H   0  0  0  0  0  0  0  0  0  0  0  0
  152.6564  141.5062  159.6811 H   0  0  0  0  0  0  0  0  0  0  0  0
  149.2303  142.5215  156.7115 H   0  0  0  0  0  0  0  0  0  0  0  0
  146.4456  143.0592  155.4315 H   0  0  0  0  0  0  0  0  0  0  0  0
  146.1920  143.6923  153.8133 H   0  0  0  0  0  0  0  0  0  0  0  0
  145.0400  141.4457  153.6868 H   0  0  0  0  0  0  0  0  0  0  0  0
  145.5013  140.1168  153.2971 H   0  0  0  0  0  0  0  0  0  0  0  0
  148.5665  137.9943  154.9103 H   0  0  0  0  0  0  0  0  0  0  0  0
  1  2  1  0  0  0  0
  1 22  1  0  0  0  0
  1 23  1  0  0  0  0
  2 17  2  0  0  0  0
  2  3  1  0  0  0  0
  3  4  2  0  0  0  0
  4  5  1  0  0  0  0
  4 24  1  0  0  0  0
  5  6  1  0  0  0  0
  5 15  1  0  0  0  0
  6 18  1  0  0  0  0
  6 13  1  0  0  0  0
  6  7  1  0  0  0  0
  7  8  1  0  0  0  0
  8 19  1  0  0  0  0
  8  9  1  0  0  0  0
  8 11  1  0  0  0  0
  9 10  1  0  0  0  0
  9 25  1  0  0  0  0
  9 26  1  0  0  0  0
 10 27  1  0  0  0  0
 11 20  1  0  0  0  0
 11 12  1  0  0  0  0
 11 13  1  0  0  0  0
 12 28  1  0  0  0  0
 13 21  1  0  0  0  0
 13 14  1  0  0  0  0
 14 29  1  0  0  0  0
 15 16  2  0  0  0  0
 15 17  1  0  0  0  0
M  END
> <s_m_source_file>
AV-unprocessed.smi

> <i_m_source_file_index>
72

> <i_lp_mmshare_version>
43012

> <i_f3d_flags>
0

> <s_epik_input>
W05IMl1jMW5bY0hdbihjKD1PKW4xKVtDQEBIXTJPW0NASF0oW0NIMl1bT0hdKVtDQEBIXShbT0hdKVtDQEhdMltPSF0=

> <s_epik_cmdline>
J2VwaWtfcHl0aG9uJywgJy1waCcsICc3LjAnLCAnLXRuJywgJzgnLCAnLW1hJywgJzIwMCcsICctbWV0YWxfYmluZGluZycsICctaW1hZScsICc8aW5maWxlLm1hZT4nLCAnLW9tYWUnLCAnPG91dGZpbGUubWFlPic=

> <r_lp_tautomer_probability>
4.77166e-05

> <r_epik_Ionization_Penalty>
1.3546

> <r_epik_Ionization_Penalty_Charging>
1.46833e-10

> <r_epik_Ionization_Penalty_Neutral>
1.3546

> <r_epik_State_Penalty>
3.51908

> <r_epik_Charging_Adjusted_Penalty>
3.51908

> <i_epik_Tot_Q>
0

> <i_epik_Tot_abs_Q>
0

> <r_epik_Metal_State_Penalty>
3.44088

> <b_epik_Metal_Only>
1

> <s_epik_Chemistry_Notes>
This compound contains an acetal/aminal-like group ( X-CH(R)-Y where X, Y are N, S, or O) that may be acid/base labile, releasing an aldehyde.

> <s_lp_Force_Field>
OPLS_2005

> <r_lp_Energy>
32.6436

> <b_lp_Chiralities_Consistent>
1

> <s_lp_Variant>
AV-unprocessed.smi:72-89

> <Gold.Version>
5.8.1

> <Gold.Id.Protein>
6NUR|6NUR_protein|mol2

> <Gold.PLP.Fitness>
37.8657

> <Gold.PLP.PLP>
-25.9429

> <Gold.PLP.part.hbond>
-5.0189

> <Gold.PLP.part.metal>
0.0000

> <Gold.PLP.part.buried>
-0.7592

> <Gold.PLP.part.nonpolar>
-21.3753

> <Gold.PLP.part.repulsive>
2.6235

> <Gold.PLP.ligand.clash>
0.0000

> <Gold.PLP.ligand.torsion>
0.5515

> <Gold.PLP.Chemscore.Hbond>
3.2487

> <Gold.PLP.Chemscore.CHOScore>
1.0000

> <Gold.PLP.Chemscore.Metal>
0.0000

> <Gold.Chemscore.Hbonds>
donor molecule, donor type, donor heavy atom, donor atom, acceptor molecule, acceptor atom, score
      L1  H    10    27       P1 10175  0.67
      L1  H    12    28       P1 10175  1.00
      P1  H  7989  7998       L1    16  0.55
      P1  H  7997  8010       L1    17  0.86
      L1  C     4    24       P1  8028  1.00

> <Gold.PLP.Chemscore.Internal.Correction>
0.2798

> <Gold.Rescore>
     Score         DG    S(hbond)    S(metal)    S(lipo)     H(rot)  DE(clash)    DE(int)     intcor
      3.97      -6.25       2.50        0.00      23.93       4.06       1.50       0.78       ----

> <Gold.Chemscore.Fitness>
3.9706

> <Gold.Chemscore.DG>
-6.2501

> <Gold.Chemscore.ZeroCoef>
-5.4800

> <Gold.Chemscore.Hbond>
2.5040

> <Gold.Chemscore.Metal>
0.0000

> <Gold.Chemscore.Lipo>
23.9347

> <Gold.Chemscore.Internal_Hbond>
0.0000

> <Gold.Chemscore.DEClash>
1.5025

> <Gold.Chemscore.DEInternal>
0.7770

> <Gold.Chemscore.Rot>
4.0600

> <Gold.Chemscore.Internal.Correction>
   9.000000E+99

> <Gold.Chemscore.Hbonds>
donor molecule, donor type, donor heavy atom, donor atom, acceptor molecule, acceptor atom, score
      L1  H    10    27       P1 10175  0.14
      L1  H    12    28       P1 10175  0.90
      P1  H  7989  7998       L1    16  0.03
      P1  H  7997  8010       L1    17  0.58

> <Gold.Chemscore.Hbond.Weighted>
-8.3634

> <Gold.Chemscore.Metal.Weighted>
-0.0000

> <Gold.Chemscore.Lipo.Weighted>
-2.8004

> <Gold.Chemscore.Internal_Hbond.Weighted>
0.0000

> <Gold.Chemscore.DEClash.Weighted>
1.5025

> <Gold.Chemscore.DEInternal.Weighted>
0.7770

> <Gold.Chemscore.Rot.Weighted>
10.3936

> <Gold.Chemscore.Internal.Correction.Weighted>
   9.000000E+99

> <Gold.Protein.RotatedTorsions>
[ 6907 6896 6895 6894 ] final  155.03 input  -60.11 | X-H torsion
[ 7974 7965 7964 7962 ] final -159.00 input  175.53 | X-H torsion
[ 8008 7997 7996 7995 ] final   68.39 input   59.86 | X-H torsion
[ 10167 10162 10161 10158 ] final   90.68 input  -65.29 | X-H torsion
[ 10718 10713 10712 10709 ] final -126.48 input   66.30 | X-H torsion
[ 10763 10752 10751 10750 ] final  -57.45 input  -60.55 | X-H torsion
[ 11005 11000 10999 10996 ] final  107.08 input  -57.11 | X-H torsion

> <Gold.Protein.ActiveResidues>
 VAL166  LYS551  ARG553  GLY616  TRP617  ASP618  TYR619  PRO620  LYS621  CYS622 
 ASP623  PHE694  ASN695  SER759  ASP760  ASP761  ALA762  ILE779  LEU786  VAL792 
 PHE793  MET794  SER795  GLU796  ALA797  LYS798  CYS799  TRP800  GLU811  SER814 

> <Gold.Protein.RotatedAtoms>
  152.0501  133.4015  159.4372 H   0  0  0  0  0  0  0  0  0  0  0  0  # atno 6907 bound_to 6896
  150.6870  134.3318  159.4839 H   0  0  0  0  0  0  0  0  0  0  0  0  # atno 6908 bound_to 6896
  152.1127  134.9262  160.0616 H   0  0  0  0  0  0  0  0  0  0  0  0  # atno 6909 bound_to 6896
  144.7483  140.3747  143.6068 H   0  0  0  0  0  0  0  0  0  0  0  0  # atno 7974 bound_to 7965
  155.7075  140.3494  155.4959 H   0  0  0  0  0  0  0  0  0  0  0  0  # atno 8008 bound_to 7997
  155.9385  140.1097  157.1097 H   0  0  0  0  0  0  0  0  0  0  0  0  # atno 8009 bound_to 7997
  154.4098  140.1217  156.4882 H   0  0  0  0  0  0  0  0  0  0  0  0  # atno 8010 bound_to 7997
  139.8449  144.6623  150.9239 H   0  0  0  0  0  0  0  0  0  0  0  0  # atno 10167 bound_to 10162
  156.1769  130.6705  151.0254 H   0  0  0  0  0  0  0  0  0  0  0  0  # atno 10718 bound_to 10713
  154.2227  135.6375  153.5150 H   0  0  0  0  0  0  0  0  0  0  0  0  # atno 10763 bound_to 10752
  152.9965  135.5500  154.6097 H   0  0  0  0  0  0  0  0  0  0  0  0  # atno 10764 bound_to 10752
  154.5561  135.2905  155.0937 H   0  0  0  0  0  0  0  0  0  0  0  0  # atno 10765 bound_to 10752
  139.8823  134.9390  156.5765 H   0  0  0  0  0  0  0  0  0  0  0  0  # atno 11005 bound_to 11000
  145.7040  139.1668  143.2576 LP  0  0  0  0  0  0  0  0  0  0  0  0  # atno 17320 bound_to 7965
  146.1395  140.7077  142.9374 LP  0  0  0  0  0  0  0  0  0  0  0  0  # atno 17321 bound_to 7965
  140.7794  143.3879  151.1361 LP  0  0  0  0  0  0  0  0  0  0  0  0  # atno 17342 bound_to 10162
  139.7522  143.8761  152.3079 LP  0  0  0  0  0  0  0  0  0  0  0  0  # atno 17343 bound_to 10162
  157.6842  131.0829  150.7289 LP  0  0  0  0  0  0  0  0  0  0  0  0  # atno 17370 bound_to 10713
  156.7347  130.4720  149.5491 LP  0  0  0  0  0  0  0  0  0  0  0  0  # atno 17371 bound_to 10713
  140.8059  133.8468  155.8767 LP  0  0  0  0  0  0  0  0  0  0  0  0  # atno 17394 bound_to 11000
  140.9550  134.1729  157.4698 LP  0  0  0  0  0  0  0  0  0  0  0  0  # atno 17395 bound_to 11000

$$$$
