AV-unprocessed.smi:2085|AV-procd|sdf|8517|dock6
  -GOLD-   2272011233D 1   1.00000     0.00000
 Structure written by MMmdl.
 30 31  0  0  0  0  0  0  0  0  1 V2000
  148.4753  141.7948  154.1893 C   0  0  0  0  0  0  0  0  0  0  0  0
  149.3849  141.5053  155.2452 O   0  0  0  0  0  0  0  0  0  0  0  0
  150.1816  140.3809  155.1402 C   0  0  0  0  0  0  0  0  0  0  0  0
  149.9772  139.5404  154.0948 N   0  0  0  0  0  0  0  0  0  0  0  0
  150.7581  138.4460  153.9875 C   0  0  0  0  0  0  0  0  0  0  0  0
  151.7812  138.1369  154.9023 C   0  0  0  0  0  0  0  0  0  0  0  0
  151.9948  139.0064  155.9877 C   0  0  0  0  0  0  0  0  0  0  0  0
  151.1710  140.1499  156.1247 C   0  0  0  0  0  0  0  0  0  0  0  0
  151.3125  141.1003  157.1734 N   0  0  0  0  0  0  0  0  0  0  0  0
  152.1206  141.0512  158.2480 C   0  0  0  0  0  0  0  0  0  0  0  0
  152.8995  140.1303  158.4953 O   0  0  0  0  0  0  0  0  0  0  0  0
  152.0239  142.2442  159.2061 C   0  0  1  0  0  0  0  0  0  0  0  0
  153.3152  143.0791  159.3009 C   0  0  0  0  0  0  0  0  0  0  0  0
  152.9461  144.3927  158.6394 C   0  0  0  0  0  0  0  0  0  0  0  0
  151.4502  144.4696  158.9083 C   0  0  0  0  0  0  0  0  0  0  0  0
  151.0230  143.1315  158.7105 O   0  0  0  0  0  0  0  0  0  0  0  0
  147.9305  142.7092  154.4237 H   0  0  0  0  0  0  0  0  0  0  0  0
  147.7422  140.9966  154.0635 H   0  0  0  0  0  0  0  0  0  0  0  0
  148.9981  141.9540  153.2453 H   0  0  0  0  0  0  0  0  0  0  0  0
  150.5660  137.8008  153.1430 H   0  0  0  0  0  0  0  0  0  0  0  0
  152.3918  137.2556  154.7719 H   0  0  0  0  0  0  0  0  0  0  0  0
  152.7922  138.7879  156.6809 H   0  0  0  0  0  0  0  0  0  0  0  0
  150.6677  141.8769  157.1413 H   0  0  0  0  0  0  0  0  0  0  0  0
  151.7346  141.9065  160.2030 H   0  0  0  0  0  0  0  0  0  0  0  0
  153.5661  143.2468  160.3490 H   0  0  0  0  0  0  0  0  0  0  0  0
  154.1839  142.6155  158.8306 H   0  0  0  0  0  0  0  0  0  0  0  0
  153.4976  145.2440  159.0389 H   0  0  0  0  0  0  0  0  0  0  0  0
  153.1298  144.3371  157.5655 H   0  0  0  0  0  0  0  0  0  0  0  0
  151.2531  144.7696  159.9388 H   0  0  0  0  0  0  0  0  0  0  0  0
  150.9345  145.1594  158.2402 H   0  0  0  0  0  0  0  0  0  0  0  0
  1  2  1  0  0  0  0
  1 17  1  0  0  0  0
  1 18  1  0  0  0  0
  1 19  1  0  0  0  0
  2  3  1  0  0  0  0
  3  8  1  0  0  0  0
  3  4  2  0  0  0  0
  4  5  1  0  0  0  0
  5  6  2  0  0  0  0
  5 20  1  0  0  0  0
  6  7  1  0  0  0  0
  6 21  1  0  0  0  0
  7  8  2  0  0  0  0
  7 22  1  0  0  0  0
  8  9  1  0  0  0  0
  9 10  1  0  0  0  0
  9 23  1  0  0  0  0
 10 11  2  0  0  0  0
 10 12  1  0  0  0  0
 12 16  1  0  0  0  0
 12 13  1  0  0  0  0
 12 24  1  0  0  0  0
 13 14  1  0  0  0  0
 13 25  1  0  0  0  0
 13 26  1  0  0  0  0
 14 15  1  0  0  0  0
 14 27  1  0  0  0  0
 14 28  1  0  0  0  0
 15 16  1  0  0  0  0
 15 29  1  0  0  0  0
 15 30  1  0  0  0  0
M  END
> <s_m_source_file>
AV-unprocessed.smi

> <i_m_source_file_index>
2085

> <i_lp_mmshare_version>
43012

> <i_f3d_flags>
0

> <s_epik_input>
W0NIM11PYzFuW2NIXVtjSF1bY0hdYzFbTkhdQyg9TylbQ0BASF0yW0NIMl1bQ0gyXVtDSDJdTzI=

> <s_epik_cmdline>
J2VwaWtfcHl0aG9uJywgJy1waCcsICc3LjAnLCAnLXRuJywgJzgnLCAnLW1hJywgJzIwMCcsICctbWV0YWxfYmluZGluZycsICctaW1hZScsICc8aW5maWxlLm1hZT4nLCAnLW9tYWUnLCAnPG91dGZpbGUubWFlPic=

> <r_lp_tautomer_probability>
1

> <r_epik_Ionization_Penalty>
2.59253e-05

> <r_epik_Ionization_Penalty_Charging>
0

> <r_epik_Ionization_Penalty_Neutral>
2.59253e-05

> <r_epik_State_Penalty>
-0

> <r_epik_Charging_Adjusted_Penalty>
0

> <i_epik_Tot_Q>
0

> <i_epik_Tot_abs_Q>
0

> <r_epik_Metal_State_Penalty>
-0

> <b_epik_Metal_Only>
0

> <s_lp_Force_Field>
OPLS_2005

> <r_lp_Energy>
23.5272

> <b_lp_Chiralities_Consistent>
1

> <s_lp_Variant>
AV-unprocessed.smi:2085-2

> <Gold.Version>
5.8.1

> <Gold.Id.Protein>
6NUR|6NUR_protein|mol2

> <Gold.PLP.Fitness>
40.8576

> <Gold.PLP.PLP>
-34.7150

> <Gold.PLP.part.hbond>
-1.4003

> <Gold.PLP.part.metal>
0.0000

> <Gold.PLP.part.buried>
-4.8708

> <Gold.PLP.part.nonpolar>
-29.3290

> <Gold.PLP.part.repulsive>
1.0199

> <Gold.PLP.ligand.clash>
0.0000

> <Gold.PLP.ligand.torsion>
0.0609

> <Gold.PLP.Chemscore.Hbond>
0.9760

> <Gold.PLP.Chemscore.CHOScore>
1.1089

> <Gold.PLP.Chemscore.Metal>
0.0000

> <Gold.Chemscore.Hbonds>
donor molecule, donor type, donor heavy atom, donor atom, acceptor molecule, acceptor atom, score
      P1  H  7997  8009       L1    11  0.49
      L1  C     5    20       P1  7948  0.56
      L1  C     5    20       P1  7949  0.58

> <Gold.PLP.Chemscore.Internal.Correction>
0.0096

> <Gold.Rescore>
     Score         DG    S(hbond)    S(metal)    S(lipo)     H(rot)  DE(clash)    DE(int)     intcor
     14.13     -15.51       0.91        0.00      86.66       1.24       0.05       1.33       ----

> <Gold.Chemscore.Fitness>
14.1295

> <Gold.Chemscore.DG>
-15.5051

> <Gold.Chemscore.ZeroCoef>
-5.4800

> <Gold.Chemscore.Hbond>
0.9146

> <Gold.Chemscore.Metal>
0.0000

> <Gold.Chemscore.Lipo>
86.6648

> <Gold.Chemscore.Internal_Hbond>
0.0000

> <Gold.Chemscore.DEClash>
0.0498

> <Gold.Chemscore.DEInternal>
1.3258

> <Gold.Chemscore.Rot>
1.2381

> <Gold.Chemscore.Internal.Correction>
   9.000000E+99

> <Gold.Chemscore.Hbonds>
donor molecule, donor type, donor heavy atom, donor atom, acceptor molecule, acceptor atom, score
      P1  H  7997  8009       L1    11  0.37

> <Gold.Chemscore.Hbond.Weighted>
-3.0547

> <Gold.Chemscore.Metal.Weighted>
-0.0000

> <Gold.Chemscore.Lipo.Weighted>
-10.1398

> <Gold.Chemscore.Internal_Hbond.Weighted>
0.0000

> <Gold.Chemscore.DEClash.Weighted>
0.0498

> <Gold.Chemscore.DEInternal.Weighted>
1.3258

> <Gold.Chemscore.Rot.Weighted>
3.1694

> <Gold.Chemscore.Internal.Correction.Weighted>
   9.000000E+99

> <Gold.Protein.RotatedTorsions>
[ 6907 6896 6895 6894 ] final    7.13 input  -60.11 | X-H torsion
[ 7974 7965 7964 7962 ] final  142.52 input  175.53 | X-H torsion
[ 8008 7997 7996 7995 ] final  154.55 input   59.86 | X-H torsion
[ 10167 10162 10161 10158 ] final   11.48 input  -65.29 | X-H torsion
[ 10718 10713 10712 10709 ] final   58.99 input   66.30 | X-H torsion
[ 10763 10752 10751 10750 ] final  109.05 input  -60.55 | X-H torsion
[ 11005 11000 10999 10996 ] final  -89.62 input  -57.11 | X-H torsion

> <Gold.Protein.ActiveResidues>
 VAL166  LYS551  ARG553  GLY616  TRP617  ASP618  TYR619  PRO620  LYS621  CYS622 
 ASP623  PHE694  ASN695  SER759  ASP760  ASP761  ALA762  ILE779  LEU786  VAL792 
 PHE793  MET794  SER795  GLU796  ALA797  LYS798  CYS799  TRP800  GLU811  SER814 

> <Gold.Protein.RotatedAtoms>
  151.6850  135.0956  160.0222 H   0  0  0  0  0  0  0  0  0  0  0  0  # atno 6907 bound_to 6896
  152.3813  133.6545  159.6172 H   0  0  0  0  0  0  0  0  0  0  0  0  # atno 6908 bound_to 6896
  150.7749  133.9026  159.3387 H   0  0  0  0  0  0  0  0  0  0  0  0  # atno 6909 bound_to 6896
  144.9000  139.5436  143.5758 H   0  0  0  0  0  0  0  0  0  0  0  0  # atno 7974 bound_to 7965
  156.2525  140.1963  156.6663 H   0  0  0  0  0  0  0  0  0  0  0  0  # atno 8008 bound_to 7997
  154.6426  140.0581  156.9889 H   0  0  0  0  0  0  0  0  0  0  0  0  # atno 8009 bound_to 7997
  155.1539  140.3254  155.4428 H   0  0  0  0  0  0  0  0  0  0  0  0  # atno 8010 bound_to 7997
  140.6129  143.8370  150.7085 H   0  0  0  0  0  0  0  0  0  0  0  0  # atno 10167 bound_to 10162
  157.5640  130.8857  149.9158 H   0  0  0  0  0  0  0  0  0  0  0  0  # atno 10718 bound_to 10713
  153.4293  135.3792  155.2160 H   0  0  0  0  0  0  0  0  0  0  0  0  # atno 10763 bound_to 10752
  154.8749  135.3836  154.4288 H   0  0  0  0  0  0  0  0  0  0  0  0  # atno 10764 bound_to 10752
  153.4818  135.7088  153.5996 H   0  0  0  0  0  0  0  0  0  0  0  0  # atno 10765 bound_to 10752
  141.1581  133.7641  156.9621 H   0  0  0  0  0  0  0  0  0  0  0  0  # atno 11005 bound_to 11000
  146.3103  139.7723  142.9025 LP  0  0  0  0  0  0  0  0  0  0  0  0  # atno 17320 bound_to 7965
  145.3632  141.0329  143.3273 LP  0  0  0  0  0  0  0  0  0  0  0  0  # atno 17321 bound_to 7965
  140.1942  143.4011  152.1840 LP  0  0  0  0  0  0  0  0  0  0  0  0  # atno 17342 bound_to 10162
  139.5375  144.7224  151.4843 LP  0  0  0  0  0  0  0  0  0  0  0  0  # atno 17343 bound_to 10162
  156.0690  130.3688  150.0816 LP  0  0  0  0  0  0  0  0  0  0  0  0  # atno 17370 bound_to 10713
  156.8976  130.9609  151.3580 LP  0  0  0  0  0  0  0  0  0  0  0  0  # atno 17371 bound_to 10713
  140.1186  134.9431  157.2170 LP  0  0  0  0  0  0  0  0  0  0  0  0  # atno 17394 bound_to 11000
  140.3101  134.3033  155.7269 LP  0  0  0  0  0  0  0  0  0  0  0  0  # atno 17395 bound_to 11000

$$$$
