AV-unprocessed.smi:1669|AV-procd|sdf|6692|dock8
  -GOLD-   22720 7423D 1   1.00000     0.00000
 Structure written by MMmdl.
 49 51  0  0  0  0  0  0  0  0  3 V2000
  141.5743  139.8505  155.0862 C   0  0  0  0  0  0  0  0  0  0  0  0
  141.7547  138.7845  154.0728 N   0  3  2  0  0  0  0  0  0  0  0  0
  140.7939  138.8992  152.9453 C   0  0  0  0  0  0  0  0  0  0  0  0
  139.3605  138.6984  153.4022 C   0  0  0  0  0  0  0  0  0  0  0  0
  138.9145  137.4119  153.7727 C   0  0  0  0  0  0  0  0  0  0  0  0
  137.5851  137.2187  154.1961 C   0  0  0  0  0  0  0  0  0  0  0  0
  136.6978  138.3108  154.2520 C   0  0  0  0  0  0  0  0  0  0  0  0
  137.1400  139.5965  153.8853 C   0  0  0  0  0  0  0  0  0  0  0  0
  138.4694  139.7910  153.4624 C   0  0  0  0  0  0  0  0  0  0  0  0
  141.7748  137.4309  154.6835 C   0  0  0  0  0  0  0  0  0  0  0  0
  142.9109  136.5536  154.1208 C   0  0  1  0  0  0  0  0  0  0  0  0
  142.5188  135.1973  154.2040 O   0  0  0  0  0  0  0  0  0  0  0  0
  143.2283  136.9042  152.6535 C   0  0  0  0  0  0  0  0  0  0  0  0
  144.4667  136.2766  152.1664 N   0  0  0  0  0  0  0  0  0  0  0  0
  145.7396  136.7649  152.1002 C   0  0  0  0  0  0  0  0  0  0  0  0
  146.1971  138.1234  152.5284 C   0  0  0  0  0  0  0  0  0  0  0  0
  147.4695  138.4676  152.0222 O   0  0  0  0  0  0  0  0  0  0  0  0
  146.5196  135.7788  151.5709 N   0  3  0  0  0  0  0  0  0  0  0  0
  145.7432  134.6513  151.3026 C   0  0  0  0  0  0  0  0  0  0  0  0
  146.0868  133.4133  150.7684 C   0  0  0  0  0  0  0  0  0  0  0  0
  145.0445  132.4736  150.6281 C   0  0  0  0  0  0  0  0  0  0  0  0
  143.7227  132.7803  151.0122 C   0  0  0  0  0  0  0  0  0  0  0  0
  143.3862  134.0396  151.5517 C   0  0  0  0  0  0  0  0  0  0  0  0
  144.4229  134.9628  151.6860 C   0  0  0  0  0  0  0  0  0  0  0  0
  140.6005  139.7682  155.5707 H   0  0  0  0  0  0  0  0  0  0  0  0
  141.6511  140.8406  154.6371 H   0  0  0  0  0  0  0  0  0  0  0  0
  142.3449  139.7861  155.8552 H   0  0  0  0  0  0  0  0  0  0  0  0
  140.8542  139.8854  152.4853 H   0  0  0  0  0  0  0  0  0  0  0  0
  141.0498  138.1848  152.1611 H   0  0  0  0  0  0  0  0  0  0  0  0
  139.5899  136.5696  153.7313 H   0  0  0  0  0  0  0  0  0  0  0  0
  137.2455  136.2330  154.4786 H   0  0  0  0  0  0  0  0  0  0  0  0
  135.6781  138.1624  154.5764 H   0  0  0  0  0  0  0  0  0  0  0  0
  136.4592  140.4339  153.9290 H   0  0  0  0  0  0  0  0  0  0  0  0
  138.8004  140.7805  153.1828 H   0  0  0  0  0  0  0  0  0  0  0  0
  141.9029  137.5084  155.7647 H   0  0  0  0  0  0  0  0  0  0  0  0
  140.8056  136.9539  154.5284 H   0  0  0  0  0  0  0  0  0  0  0  0
  143.8154  136.6749  154.7157 H   0  0  0  0  0  0  0  0  0  0  0  0
  141.8344  135.1211  154.8518 H   0  0  0  0  0  0  0  0  0  0  0  0
  142.4147  136.5823  152.0021 H   0  0  0  0  0  0  0  0  0  0  0  0
  143.3163  137.9834  152.5214 H   0  0  0  0  0  0  0  0  0  0  0  0
  145.4743  138.8686  152.1960 H   0  0  0  0  0  0  0  0  0  0  0  0
  146.2269  138.1631  153.6174 H   0  0  0  0  0  0  0  0  0  0  0  0
  147.9076  137.6771  151.7447 H   0  0  0  0  0  0  0  0  0  0  0  0
  147.0990  133.1759  150.4749 H   0  0  0  0  0  0  0  0  0  0  0  0
  145.2638  131.4977  150.2193 H   0  0  0  0  0  0  0  0  0  0  0  0
  142.9512  132.0334  150.8916 H   0  0  0  0  0  0  0  0  0  0  0  0
  142.3709  134.2630  151.8437 H   0  0  0  0  0  0  0  0  0  0  0  0
  142.6776  138.9210  153.6849 H   0  0  0  0  0  0  0  0  0  0  0  0
  147.5140  135.8771  151.4096 H   0  0  0  0  0  0  0  0  0  0  0  0
  1  2  1  0  0  0  0
  1 25  1  0  0  0  0
  1 26  1  0  0  0  0
  1 27  1  0  0  0  0
  2  3  1  0  0  0  0
  2 10  1  0  0  0  0
  2 48  1  0  0  0  0
  3  4  1  0  0  0  0
  3 28  1  0  0  0  0
  3 29  1  0  0  0  0
  4  9  1  0  0  0  0
  4  5  2  0  0  0  0
  5  6  1  0  0  0  0
  5 30  1  0  0  0  0
  6  7  2  0  0  0  0
  6 31  1  0  0  0  0
  7  8  1  0  0  0  0
  7 32  1  0  0  0  0
  8  9  2  0  0  0  0
  8 33  1  0  0  0  0
  9 34  1  0  0  0  0
 10 11  1  0  0  0  0
 10 35  1  0  0  0  0
 10 36  1  0  0  0  0
 11 12  1  0  0  0  0
 11 13  1  0  0  0  0
 11 37  1  0  0  0  0
 12 38  1  0  0  0  0
 13 14  1  0  0  0  0
 13 39  1  0  0  0  0
 13 40  1  0  0  0  0
 14 24  1  0  0  0  0
 14 15  1  0  0  0  0
 15 16  1  0  0  0  0
 15 18  2  0  0  0  0
 16 17  1  0  0  0  0
 16 41  1  0  0  0  0
 16 42  1  0  0  0  0
 17 43  1  0  0  0  0
 18 19  1  0  0  0  0
 18 49  1  0  0  0  0
 19 24  2  0  0  0  0
 19 20  1  0  0  0  0
 20 21  2  0  0  0  0
 20 44  1  0  0  0  0
 21 22  1  0  0  0  0
 21 45  1  0  0  0  0
 22 23  2  0  0  0  0
 22 46  1  0  0  0  0
 23 24  1  0  0  0  0
 23 47  1  0  0  0  0
M  CHG  1   2   1
M  CHG  1  18   1
M  END
> <s_m_source_file>
AV-unprocessed.smi

> <i_m_source_file_index>
1669

> <i_lp_mmshare_version>
43012

> <i_f3d_flags>
0

> <s_epik_input>
W2NIXTFbY0hdW2NIXVtjSF1bY0hdYzFbQ0gyXU4oW0NIM10pW0NIMl1bQ0BIXShbT0hdKVtDSDJdbihjKG4yKVtDSDJdW09IXSljKGMyMylbY0hdW2NIXVtjSF1bY0hdMw==

> <s_epik_cmdline>
J2VwaWtfcHl0aG9uJywgJy1waCcsICc3LjAnLCAnLXRuJywgJzgnLCAnLW1hJywgJzIwMCcsICctbWV0YWxfYmluZGluZycsICctaW1hZScsICc8aW5maWxlLm1hZT4nLCAnLW9tYWUnLCAnPG91dGZpbGUubWFlPic=

> <r_epik_Ionization_Penalty>
1.57484

> <r_epik_Ionization_Penalty_Charging>
1.57398

> <r_epik_Ionization_Penalty_Neutral>
0.000858917

> <r_epik_State_Penalty>
1.64997

> <r_epik_Charging_Adjusted_Penalty>
3.22395

> <i_epik_Tot_Q>
2

> <i_epik_Tot_abs_Q>
2

> <r_epik_Metal_State_Penalty>
5.70481

> <b_epik_Metal_Only>
0

> <s_lp_Force_Field>
OPLS_2005

> <r_lp_Energy>
22.4556

> <b_lp_Chiralities_Consistent>
1

> <s_lp_Variant>
AV-unprocessed.smi:1669-10

> <Gold.Version>
5.8.1

> <Gold.Id.Protein>
6NUR|6NUR_protein|mol2

> <Gold.PLP.Fitness>
56.1840

> <Gold.PLP.PLP>
-45.7701

> <Gold.PLP.part.hbond>
-4.8792

> <Gold.PLP.part.metal>
0.0000

> <Gold.PLP.part.buried>
-2.6624

> <Gold.PLP.part.nonpolar>
-38.3109

> <Gold.PLP.part.repulsive>
0.0930

> <Gold.PLP.ligand.clash>
0.0000

> <Gold.PLP.ligand.torsion>
1.6605

> <Gold.PLP.Chemscore.Hbond>
4.4240

> <Gold.PLP.Chemscore.CHOScore>
0.0000

> <Gold.PLP.Chemscore.Metal>
0.0000

> <Gold.Chemscore.Hbonds>
donor molecule, donor type, donor heavy atom, donor atom, acceptor molecule, acceptor atom, score
      L1  H     2    48       P1 10175  0.96
      L1  H    17    43       P1  7948  1.00
      L1  H    18    49       P1  7948  1.85

> <Gold.PLP.Chemscore.Internal.Correction>
0.4628

> <Gold.Rescore>
     Score         DG    S(hbond)    S(metal)    S(lipo)     H(rot)  DE(clash)    DE(int)     intcor
     15.88     -19.32       2.71        0.00     112.47       3.27       1.61       1.83       ----

> <Gold.Chemscore.Fitness>
15.8751

> <Gold.Chemscore.DG>
-19.3166

> <Gold.Chemscore.ZeroCoef>
-5.4800

> <Gold.Chemscore.Hbond>
2.7108

> <Gold.Chemscore.Metal>
0.0000

> <Gold.Chemscore.Lipo>
112.4654

> <Gold.Chemscore.Internal_Hbond>
0.0000

> <Gold.Chemscore.DEClash>
1.6109

> <Gold.Chemscore.DEInternal>
1.8306

> <Gold.Chemscore.Rot>
3.2718

> <Gold.Chemscore.Internal.Correction>
   9.000000E+99

> <Gold.Chemscore.Hbonds>
donor molecule, donor type, donor heavy atom, donor atom, acceptor molecule, acceptor atom, score
      L1  H     2    48       P1 10175  0.47
      L1  H    17    43       P1  7948  0.99
      L1  H    18    49       P1  7948  0.85

> <Gold.Chemscore.Hbond.Weighted>
-9.0540

> <Gold.Chemscore.Metal.Weighted>
-0.0000

> <Gold.Chemscore.Lipo.Weighted>
-13.1585

> <Gold.Chemscore.Internal_Hbond.Weighted>
0.0000

> <Gold.Chemscore.DEClash.Weighted>
1.6109

> <Gold.Chemscore.DEInternal.Weighted>
1.8306

> <Gold.Chemscore.Rot.Weighted>
8.3759

> <Gold.Chemscore.Internal.Correction.Weighted>
   9.000000E+99

> <Gold.Protein.RotatedTorsions>
[ 6907 6896 6895 6894 ] final  -56.37 input  -60.11 | X-H torsion
[ 7974 7965 7964 7962 ] final  127.10 input  175.53 | X-H torsion
[ 8008 7997 7996 7995 ] final  -42.95 input   59.86 | X-H torsion
[ 10167 10162 10161 10158 ] final  136.91 input  -65.29 | X-H torsion
[ 10718 10713 10712 10709 ] final  156.42 input   66.30 | X-H torsion
[ 10763 10752 10751 10750 ] final  164.20 input  -60.55 | X-H torsion
[ 11005 11000 10999 10996 ] final  -73.61 input  -57.11 | X-H torsion

> <Gold.Protein.ActiveResidues>
 VAL166  LYS551  ARG553  GLY616  TRP617  ASP618  TYR619  PRO620  LYS621  CYS622 
 ASP623  PHE694  ASN695  SER759  ASP760  ASP761  ALA762  ILE779  LEU786  VAL792 
 PHE793  MET794  SER795  GLU796  ALA797  LYS798  CYS799  TRP800  GLU811  SER814 

> <Gold.Protein.RotatedAtoms>
  150.8173  134.7362  159.6741 H   0  0  0  0  0  0  0  0  0  0  0  0  # atno 6907 bound_to 6896
  152.4291  134.5808  159.9957 H   0  0  0  0  0  0  0  0  0  0  0  0  # atno 6908 bound_to 6896
  151.6001  133.3320  159.3081 H   0  0  0  0  0  0  0  0  0  0  0  0  # atno 6909 bound_to 6896
  145.0543  139.3857  143.5038 H   0  0  0  0  0  0  0  0  0  0  0  0  # atno 7974 bound_to 7965
  154.3997  140.1460  156.3438 H   0  0  0  0  0  0  0  0  0  0  0  0  # atno 8008 bound_to 7997
  155.8332  140.3465  155.5564 H   0  0  0  0  0  0  0  0  0  0  0  0  # atno 8009 bound_to 7997
  155.8166  140.0892  157.1864 H   0  0  0  0  0  0  0  0  0  0  0  0  # atno 8010 bound_to 7997
  139.5163  144.6439  151.5493 H   0  0  0  0  0  0  0  0  0  0  0  0  # atno 10167 bound_to 10162
  157.2052  131.0685  151.2002 H   0  0  0  0  0  0  0  0  0  0  0  0  # atno 10718 bound_to 10713
  154.3053  135.2758  155.2591 H   0  0  0  0  0  0  0  0  0  0  0  0  # atno 10763 bound_to 10752
  154.5010  135.5808  153.6534 H   0  0  0  0  0  0  0  0  0  0  0  0  # atno 10764 bound_to 10752
  152.9895  135.6158  154.3227 H   0  0  0  0  0  0  0  0  0  0  0  0  # atno 10765 bound_to 10752
  141.1625  133.6884  156.7239 H   0  0  0  0  0  0  0  0  0  0  0  0  # atno 11005 bound_to 11000
  146.3520  140.0210  142.8658 LP  0  0  0  0  0  0  0  0  0  0  0  0  # atno 17320 bound_to 7965
  145.1487  140.9611  143.4445 LP  0  0  0  0  0  0  0  0  0  0  0  0  # atno 17321 bound_to 7965
  140.6216  143.9247  150.6531 LP  0  0  0  0  0  0  0  0  0  0  0  0  # atno 17342 bound_to 10162
  140.2522  143.3584  152.1395 LP  0  0  0  0  0  0  0  0  0  0  0  0  # atno 17343 bound_to 10162
  157.3727  130.7189  149.6576 LP  0  0  0  0  0  0  0  0  0  0  0  0  # atno 17370 bound_to 10713
  155.9696  130.4194  150.4374 LP  0  0  0  0  0  0  0  0  0  0  0  0  # atno 17371 bound_to 10713
  140.2795  134.8328  157.3921 LP  0  0  0  0  0  0  0  0  0  0  0  0  # atno 17394 bound_to 11000
  140.1446  134.4928  155.8006 LP  0  0  0  0  0  0  0  0  0  0  0  0  # atno 17395 bound_to 11000

$$$$
