AV-unprocessed.smi:3221|AV-procd|sdf|12301|dock1
  -GOLD-   2272018143D 1   1.00000     0.00000
 Structure written by MMmdl.
 27 28  0  0  0  0  0  0  0  0  2 V2000
  152.4613  143.4433  159.5573 F   0  0  0  0  0  0  0  0  0  0  0  0
  151.6605  143.5687  158.4991 C   0  0  0  0  0  0  0  0  0  0  0  0
  150.5035  144.0724  158.9281 F   0  0  0  0  0  0  0  0  0  0  0  0
  152.2135  144.4627  157.6800 F   0  0  0  0  0  0  0  0  0  0  0  0
  151.4521  142.2539  157.8044 C   0  0  0  0  0  0  0  0  0  0  0  0
  151.9489  141.0286  158.1765 C   0  0  0  0  0  0  0  0  0  0  0  0
  151.4521  139.7634  157.0868 S   0  0  0  0  0  0  0  0  0  0  0  0
  150.5699  140.9612  156.1468 C   0  0  0  0  0  0  0  0  0  0  0  0
  149.7884  140.6248  154.9165 C   0  0  2  0  0  0  0  0  0  0  0  0
  148.3215  141.0859  155.0047 C   0  0  0  0  0  0  0  0  0  0  0  0
  147.5648  140.7168  153.7194 C   0  0  0  0  0  0  0  0  0  0  0  0
  147.7070  139.2173  153.4089 C   0  0  0  0  0  0  0  0  0  0  0  0
  149.1331  138.8369  153.3108 N   0  3  0  0  0  0  0  0  0  0  0  0
  149.8975  139.1325  154.5427 C   0  0  0  0  0  0  0  0  0  0  0  0
  150.6719  142.1971  156.6442 N   0  0  0  0  0  0  0  0  0  0  0  0
  152.5748  140.7944  159.0249 H   0  0  0  0  0  0  0  0  0  0  0  0
  150.2472  141.1880  154.1024 H   0  0  0  0  0  0  0  0  0  0  0  0
  147.8342  140.6156  155.8599 H   0  0  0  0  0  0  0  0  0  0  0  0
  148.2715  142.1627  155.1700 H   0  0  0  0  0  0  0  0  0  0  0  0
  146.5112  140.9794  153.8187 H   0  0  0  0  0  0  0  0  0  0  0  0
  147.9516  141.3028  152.8845 H   0  0  0  0  0  0  0  0  0  0  0  0
  147.2282  138.6211  154.1869 H   0  0  0  0  0  0  0  0  0  0  0  0
  147.2089  138.9760  152.4696 H   0  0  0  0  0  0  0  0  0  0  0  0
  149.1963  137.8477  153.1161 H   0  0  0  0  0  0  0  0  0  0  0  0
  150.9399  138.8531  154.3867 H   0  0  0  0  0  0  0  0  0  0  0  0
  149.5167  138.5066  155.3514 H   0  0  0  0  0  0  0  0  0  0  0  0
  149.5492  139.3467  152.5446 H   0  0  0  0  0  0  0  0  0  0  0  0
  1  2  1  0  0  0  0
  2  3  1  0  0  0  0
  2  4  1  0  0  0  0
  2  5  1  0  0  0  0
  5 15  1  0  0  0  0
  5  6  2  0  0  0  0
  6  7  1  0  0  0  0
  6 16  1  0  0  0  0
  7  8  1  0  0  0  0
  8  9  1  0  0  0  0
  8 15  2  0  0  0  0
  9 14  1  0  0  0  0
  9 10  1  0  0  0  0
  9 17  1  0  0  0  0
 10 11  1  0  0  0  0
 10 18  1  0  0  0  0
 10 19  1  0  0  0  0
 11 12  1  0  0  0  0
 11 20  1  0  0  0  0
 11 21  1  0  0  0  0
 12 13  1  0  0  0  0
 12 22  1  0  0  0  0
 12 23  1  0  0  0  0
 13 14  1  0  0  0  0
 13 24  1  0  0  0  0
 13 27  1  0  0  0  0
 14 25  1  0  0  0  0
 14 26  1  0  0  0  0
M  CHG  1  13   1
M  END
> <s_m_source_file>
AV-unprocessed.smi

> <i_m_source_file_index>
3221

> <i_lp_mmshare_version>
43012

> <i_f3d_flags>
0

> <s_epik_input>
RkMoRikoRiljMVtjSF1zYyhuMSlbQ0BASF0yW0NIMl1bQ0gyXVtDSDJdW05IXVtDSDJdMg==

> <s_epik_cmdline>
J2VwaWtfcHl0aG9uJywgJy1waCcsICc3LjAnLCAnLXRuJywgJzgnLCAnLW1hJywgJzIwMCcsICctbWV0YWxfYmluZGluZycsICctaW1hZScsICc8aW5maWxlLm1hZT4nLCAnLW9tYWUnLCAnPG91dGZpbGUubWFlPic=

> <r_epik_Ionization_Penalty>
0.000426856

> <r_epik_Ionization_Penalty_Charging>
0.000426856

> <r_epik_Ionization_Penalty_Neutral>
2.38238e-11

> <r_epik_State_Penalty>
0.00026276

> <r_epik_Charging_Adjusted_Penalty>
0.000689616

> <i_epik_Tot_Q>
1

> <i_epik_Tot_abs_Q>
1

> <r_epik_Metal_State_Penalty>
-0

> <b_epik_Metal_Only>
0

> <s_lp_Force_Field>
OPLS_2005

> <r_lp_Energy>
6.82196

> <b_lp_Chiralities_Consistent>
1

> <s_lp_Variant>
AV-unprocessed.smi:3221-1

> <Gold.Version>
5.8.1

> <Gold.Id.Protein>
6NUR|6NUR_protein|mol2

> <Gold.PLP.Fitness>
43.6811

> <Gold.PLP.PLP>
-34.7160

> <Gold.PLP.part.hbond>
-1.8970

> <Gold.PLP.part.metal>
0.0000

> <Gold.PLP.part.buried>
-3.6087

> <Gold.PLP.part.nonpolar>
-30.1356

> <Gold.PLP.part.repulsive>
0.2041

> <Gold.PLP.ligand.clash>
0.0000

> <Gold.PLP.ligand.torsion>
0.0440

> <Gold.PLP.Chemscore.Hbond>
3.0000

> <Gold.PLP.Chemscore.CHOScore>
0.0000

> <Gold.PLP.Chemscore.Metal>
0.0000

> <Gold.Chemscore.Hbonds>
donor molecule, donor type, donor heavy atom, donor atom, acceptor molecule, acceptor atom, score
      L1  H    13    24       P1  7948  1.98
      L1  H    13    27       P1  7957  1.00

> <Gold.PLP.Chemscore.Internal.Correction>
0.0532

> <Gold.Rescore>
     Score         DG    S(hbond)    S(metal)    S(lipo)     H(rot)  DE(clash)    DE(int)     intcor
     17.51     -17.58       1.91        0.00      70.85       1.00       0.04       0.03       ----

> <Gold.Chemscore.Fitness>
17.5096

> <Gold.Chemscore.DG>
-17.5824

> <Gold.Chemscore.ZeroCoef>
-5.4800

> <Gold.Chemscore.Hbond>
1.9082

> <Gold.Chemscore.Metal>
0.0000

> <Gold.Chemscore.Lipo>
70.8469

> <Gold.Chemscore.Internal_Hbond>
0.0000

> <Gold.Chemscore.DEClash>
0.0410

> <Gold.Chemscore.DEInternal>
0.0318

> <Gold.Chemscore.Rot>
1.0000

> <Gold.Chemscore.Internal.Correction>
   9.000000E+99

> <Gold.Chemscore.Hbonds>
donor molecule, donor type, donor heavy atom, donor atom, acceptor molecule, acceptor atom, score
      L1  H    13    24       P1  7948  0.88
      L1  H    13    27       P1  7957  0.93

> <Gold.Chemscore.Hbond.Weighted>
-6.3734

> <Gold.Chemscore.Metal.Weighted>
-0.0000

> <Gold.Chemscore.Lipo.Weighted>
-8.2891

> <Gold.Chemscore.Internal_Hbond.Weighted>
0.0000

> <Gold.Chemscore.DEClash.Weighted>
0.0410

> <Gold.Chemscore.DEInternal.Weighted>
0.0318

> <Gold.Chemscore.Rot.Weighted>
2.5600

> <Gold.Chemscore.Internal.Correction.Weighted>
   9.000000E+99

> <Gold.Protein.RotatedTorsions>
[ 6907 6896 6895 6894 ] final  105.58 input  -60.11 | X-H torsion
[ 7974 7965 7964 7962 ] final   92.07 input  175.53 | X-H torsion
[ 8008 7997 7996 7995 ] final   26.88 input   59.86 | X-H torsion
[ 10167 10162 10161 10158 ] final   47.84 input  -65.29 | X-H torsion
[ 10718 10713 10712 10709 ] final -156.18 input   66.30 | X-H torsion
[ 10763 10752 10751 10750 ] final  -10.62 input  -60.55 | X-H torsion
[ 11005 11000 10999 10996 ] final -119.84 input  -57.11 | X-H torsion

> <Gold.Protein.ActiveResidues>
 VAL166  LYS551  ARG553  GLY616  TRP617  ASP618  TYR619  PRO620  LYS621  CYS622 
 ASP623  PHE694  ASN695  SER759  ASP760  ASP761  ALA762  ILE779  LEU786  VAL792 
 PHE793  MET794  SER795  GLU796  ALA797  LYS798  CYS799  TRP800  GLU811  SER814 

> <Gold.Protein.RotatedAtoms>
  152.5225  133.9507  159.7670 H   0  0  0  0  0  0  0  0  0  0  0  0  # atno 6907 bound_to 6896
  150.9818  133.6229  159.2728 H   0  0  0  0  0  0  0  0  0  0  0  0  # atno 6908 bound_to 6896
  151.3404  135.0868  159.9422 H   0  0  0  0  0  0  0  0  0  0  0  0  # atno 6909 bound_to 6896
  145.4973  139.2276  143.2797 H   0  0  0  0  0  0  0  0  0  0  0  0  # atno 7974 bound_to 7965
  155.0342  140.3162  155.4747 H   0  0  0  0  0  0  0  0  0  0  0  0  # atno 8008 bound_to 7997
  156.2868  140.2175  156.5407 H   0  0  0  0  0  0  0  0  0  0  0  0  # atno 8009 bound_to 7997
  154.7345  140.0478  157.0744 H   0  0  0  0  0  0  0  0  0  0  0  0  # atno 8010 bound_to 7997
  140.2995  144.2951  150.6222 H   0  0  0  0  0  0  0  0  0  0  0  0  # atno 10167 bound_to 10162
  156.5230  130.8486  151.2689 H   0  0  0  0  0  0  0  0  0  0  0  0  # atno 10718 bound_to 10713
  153.4718  135.7017  153.5989 H   0  0  0  0  0  0  0  0  0  0  0  0  # atno 10763 bound_to 10752
  153.4240  135.3818  155.2129 H   0  0  0  0  0  0  0  0  0  0  0  0  # atno 10764 bound_to 10752
  154.8725  135.3934  154.4156 H   0  0  0  0  0  0  0  0  0  0  0  0  # atno 10765 bound_to 10752
  141.0186  134.0157  157.3314 H   0  0  0  0  0  0  0  0  0  0  0  0  # atno 11005 bound_to 11000
  146.2248  140.5771  142.9001 LP  0  0  0  0  0  0  0  0  0  0  0  0  # atno 17320 bound_to 7965
  144.7800  140.5820  143.6612 LP  0  0  0  0  0  0  0  0  0  0  0  0  # atno 17321 bound_to 7965
  140.5663  143.2186  151.7677 LP  0  0  0  0  0  0  0  0  0  0  0  0  # atno 17342 bound_to 10162
  139.4918  144.4279  151.9905 LP  0  0  0  0  0  0  0  0  0  0  0  0  # atno 17343 bound_to 10162
  157.7434  130.9911  150.2588 LP  0  0  0  0  0  0  0  0  0  0  0  0  # atno 17370 bound_to 10713
  156.3131  130.3775  149.7643 LP  0  0  0  0  0  0  0  0  0  0  0  0  # atno 17371 bound_to 10713
  139.9132  135.0193  156.7778 LP  0  0  0  0  0  0  0  0  0  0  0  0  # atno 17394 bound_to 11000
  140.6611  133.9644  155.7805 LP  0  0  0  0  0  0  0  0  0  0  0  0  # atno 17395 bound_to 11000

$$$$
