AV-unprocessed.smi:960|AV-procd|sdf|4272|dock9
  -GOLD-   22720 2183D 1   1.00000     0.00000
 Structure written by MMmdl.
 46 47  0  0  0  0  0  0  0  0  2 V2000
  146.3733  142.2412  153.8140 C   0  0  0  0  0  0  0  0  0  0  0  0
  147.1281  141.2085  154.2241 C   0  0  0  0  0  0  0  0  0  0  0  0
  148.6342  141.3279  154.3782 C   0  0  0  0  0  0  0  0  0  0  0  0
  146.5147  139.8655  154.5905 C   0  0  0  0  0  0  0  0  0  0  0  0
  145.9173  139.1572  153.4272 N   0  3  2  0  0  0  0  0  0  0  0  0
  145.2572  137.8933  153.8472 C   0  0  0  0  0  0  0  0  0  0  0  0
  144.5221  137.2165  152.6762 C   0  0  0  0  0  0  0  0  0  0  0  0
  145.4562  136.9619  151.4824 C   0  0  2  0  0  0  0  0  0  0  0  0
  146.4173  135.9050  151.7975 N   0  0  0  0  0  0  0  0  0  0  0  0
  146.1023  134.6396  152.1090 C   0  0  0  0  0  0  0  0  0  0  0  0
  144.9469  134.2229  152.1793 O   0  0  0  0  0  0  0  0  0  0  0  0
  147.1997  133.9055  152.3474 N   0  0  0  0  0  0  0  0  0  0  0  0
  147.2477  132.5240  152.6616 C   0  0  0  0  0  0  0  0  0  0  0  0
  146.3839  131.4676  152.2467 C   0  0  0  0  0  0  0  0  0  0  0  0
  145.1703  131.4730  151.3594 C   0  0  0  0  0  0  0  0  0  0  0  0
  146.8126  130.3153  152.7404 N   0  0  0  0  0  0  0  0  0  0  0  0
  147.9845  130.5952  153.4596 O   0  0  0  0  0  0  0  0  0  0  0  0
  148.2388  131.9274  153.3839 C   0  0  0  0  0  0  0  0  0  0  0  0
  149.4649  132.4230  154.0730 C   0  0  0  0  0  0  0  0  0  0  0  0
  146.1556  138.2791  151.0959 C   0  0  0  0  0  0  0  0  0  0  0  0
  146.8585  138.9389  152.2958 C   0  0  0  0  0  0  0  0  0  0  0  0
  146.8143  143.1961  153.5667 H   0  0  0  0  0  0  0  0  0  0  0  0
  145.3013  142.1476  153.7195 H   0  0  0  0  0  0  0  0  0  0  0  0
  148.9121  141.2014  155.4248 H   0  0  0  0  0  0  0  0  0  0  0  0
  148.9895  142.3063  154.0533 H   0  0  0  0  0  0  0  0  0  0  0  0
  149.1589  140.5706  153.7977 H   0  0  0  0  0  0  0  0  0  0  0  0
  147.2567  139.2336  155.0813 H   0  0  0  0  0  0  0  0  0  0  0  0
  145.7330  140.0530  155.3285 H   0  0  0  0  0  0  0  0  0  0  0  0
  146.0028  137.2166  154.2675 H   0  0  0  0  0  0  0  0  0  0  0  0
  144.5400  138.1016  154.6422 H   0  0  0  0  0  0  0  0  0  0  0  0
  144.0683  136.2817  153.0078 H   0  0  0  0  0  0  0  0  0  0  0  0
  143.6977  137.8557  152.3568 H   0  0  0  0  0  0  0  0  0  0  0  0
  144.8485  136.6235  150.6410 H   0  0  0  0  0  0  0  0  0  0  0  0
  147.3947  136.1566  151.7805 H   0  0  0  0  0  0  0  0  0  0  0  0
  148.0799  134.3980  152.3858 H   0  0  0  0  0  0  0  0  0  0  0  0
  145.2482  132.2386  150.5877 H   0  0  0  0  0  0  0  0  0  0  0  0
  144.2653  131.6651  151.9358 H   0  0  0  0  0  0  0  0  0  0  0  0
  145.0421  130.5159  150.8527 H   0  0  0  0  0  0  0  0  0  0  0  0
  149.6706  133.4607  153.8111 H   0  0  0  0  0  0  0  0  0  0  0  0
  150.3333  131.8262  153.7935 H   0  0  0  0  0  0  0  0  0  0  0  0
  149.3481  132.3647  155.1551 H   0  0  0  0  0  0  0  0  0  0  0  0
  146.8707  138.1150  150.2890 H   0  0  0  0  0  0  0  0  0  0  0  0
  145.4125  138.9710  150.6973 H   0  0  0  0  0  0  0  0  0  0  0  0
  147.2654  139.8908  151.9583 H   0  0  0  0  0  0  0  0  0  0  0  0
  147.7001  138.3294  152.6290 H   0  0  0  0  0  0  0  0  0  0  0  0
  145.1838  139.7575  153.0774 H   0  0  0  0  0  0  0  0  0  0  0  0
  1  2  2  0  0  0  0
  1 22  1  0  0  0  0
  1 23  1  0  0  0  0
  2  3  1  0  0  0  0
  2  4  1  0  0  0  0
  3 24  1  0  0  0  0
  3 25  1  0  0  0  0
  3 26  1  0  0  0  0
  4  5  1  0  0  0  0
  4 27  1  0  0  0  0
  4 28  1  0  0  0  0
  5 21  1  0  0  0  0
  5  6  1  0  0  0  0
  5 46  1  0  0  0  0
  6  7  1  0  0  0  0
  6 29  1  0  0  0  0
  6 30  1  0  0  0  0
  7  8  1  0  0  0  0
  7 31  1  0  0  0  0
  7 32  1  0  0  0  0
  8  9  1  0  0  0  0
  8 20  1  0  0  0  0
  8 33  1  0  0  0  0
  9 10  1  0  0  0  0
  9 34  1  0  0  0  0
 10 11  2  0  0  0  0
 10 12  1  0  0  0  0
 12 13  1  0  0  0  0
 12 35  1  0  0  0  0
 13 18  2  0  0  0  0
 13 14  1  0  0  0  0
 14 15  1  0  0  0  0
 14 16  2  0  0  0  0
 15 36  1  0  0  0  0
 15 37  1  0  0  0  0
 15 38  1  0  0  0  0
 16 17  1  0  0  0  0
 17 18  1  0  0  0  0
 18 19  1  0  0  0  0
 19 39  1  0  0  0  0
 19 40  1  0  0  0  0
 19 41  1  0  0  0  0
 20 21  1  0  0  0  0
 20 42  1  0  0  0  0
 20 43  1  0  0  0  0
 21 44  1  0  0  0  0
 21 45  1  0  0  0  0
M  CHG  1   5   1
M  END
> <s_m_source_file>
AV-unprocessed.smi

> <i_m_source_file_index>
960

> <i_lp_mmshare_version>
43012

> <i_f3d_flags>
0

> <s_epik_input>
W0NIMl09QyhbQ0gzXSlbQ0gyXU4xW0NIMl1bQ0gyXVtDSF0oW0NIMl1bQ0gyXTEpW05IXUMoPU8pW05IXWMyYyhbQ0gzXSlub2MyW0NIM10=

> <s_epik_cmdline>
J2VwaWtfcHl0aG9uJywgJy1waCcsICc3LjAnLCAnLXRuJywgJzgnLCAnLW1hJywgJzIwMCcsICctbWV0YWxfYmluZGluZycsICctaW1hZScsICc8aW5maWxlLm1hZT4nLCAnLW9tYWUnLCAnPG91dGZpbGUubWFlPic=

> <r_epik_Ionization_Penalty>
0.01938

> <r_epik_Ionization_Penalty_Charging>
0.0193505

> <r_epik_Ionization_Penalty_Neutral>
2.94909e-05

> <r_epik_State_Penalty>
0.0154499

> <r_epik_Charging_Adjusted_Penalty>
0.0348004

> <i_epik_Tot_Q>
1

> <i_epik_Tot_abs_Q>
1

> <r_epik_Metal_State_Penalty>
0.0154499

> <b_epik_Metal_Only>
0

> <s_lp_Force_Field>
OPLS_2005

> <r_lp_Energy>
21.0262

> <b_lp_Chiralities_Consistent>
1

> <s_lp_Variant>
AV-unprocessed.smi:960-2

> <Gold.Version>
5.8.1

> <Gold.Id.Protein>
6NUR|6NUR_protein|mol2

> <Gold.PLP.Fitness>
45.8607

> <Gold.PLP.PLP>
-34.5214

> <Gold.PLP.part.hbond>
-2.9541

> <Gold.PLP.part.metal>
0.0000

> <Gold.PLP.part.buried>
2.4122

> <Gold.PLP.part.nonpolar>
-35.1867

> <Gold.PLP.part.repulsive>
0.3935

> <Gold.PLP.ligand.clash>
0.0000

> <Gold.PLP.ligand.torsion>
0.2340

> <Gold.PLP.Chemscore.Hbond>
3.8233

> <Gold.PLP.Chemscore.CHOScore>
0.0000

> <Gold.PLP.Chemscore.Metal>
0.0000

> <Gold.Chemscore.Hbonds>
donor molecule, donor type, donor heavy atom, donor atom, acceptor molecule, acceptor atom, score
      L1  H     5    46       P1 10175  2.00
      L1  H     9    34       P1  7948  1.00
      L1  H    12    35       P1  7948  0.76

> <Gold.PLP.Chemscore.Internal.Correction>
0.3374

> <Gold.Rescore>
     Score         DG    S(hbond)    S(metal)    S(lipo)     H(rot)  DE(clash)    DE(int)     intcor
     17.43     -20.68       2.31        0.00      93.55       1.35       2.89       0.36       ----

> <Gold.Chemscore.Fitness>
17.4307

> <Gold.Chemscore.DG>
-20.6815

> <Gold.Chemscore.ZeroCoef>
-5.4800

> <Gold.Chemscore.Hbond>
2.3074

> <Gold.Chemscore.Metal>
0.0000

> <Gold.Chemscore.Lipo>
93.5524

> <Gold.Chemscore.Internal_Hbond>
0.0000

> <Gold.Chemscore.DEClash>
2.8942

> <Gold.Chemscore.DEInternal>
0.3565

> <Gold.Chemscore.Rot>
1.3480

> <Gold.Chemscore.Internal.Correction>
   9.000000E+99

> <Gold.Chemscore.Hbonds>
donor molecule, donor type, donor heavy atom, donor atom, acceptor molecule, acceptor atom, score
      L1  H     5    46       P1 10175  1.00
      L1  H     9    34       P1  7948  0.93
      L1  H    12    35       P1  7948  0.16

> <Gold.Chemscore.Hbond.Weighted>
-7.7067

> <Gold.Chemscore.Metal.Weighted>
-0.0000

> <Gold.Chemscore.Lipo.Weighted>
-10.9456

> <Gold.Chemscore.Internal_Hbond.Weighted>
0.0000

> <Gold.Chemscore.DEClash.Weighted>
2.8942

> <Gold.Chemscore.DEInternal.Weighted>
0.3565

> <Gold.Chemscore.Rot.Weighted>
3.4509

> <Gold.Chemscore.Internal.Correction.Weighted>
   9.000000E+99

> <Gold.Protein.RotatedTorsions>
[ 6907 6896 6895 6894 ] final  131.30 input  -60.11 | X-H torsion
[ 7974 7965 7964 7962 ] final  -82.86 input  175.53 | X-H torsion
[ 8008 7997 7996 7995 ] final -126.70 input   59.86 | X-H torsion
[ 10167 10162 10161 10158 ] final   99.67 input  -65.29 | X-H torsion
[ 10718 10713 10712 10709 ] final  178.68 input   66.30 | X-H torsion
[ 10763 10752 10751 10750 ] final    9.75 input  -60.55 | X-H torsion
[ 11005 11000 10999 10996 ] final  -27.49 input  -57.11 | X-H torsion

> <Gold.Protein.ActiveResidues>
 VAL166  LYS551  ARG553  GLY616  TRP617  ASP618  TYR619  PRO620  LYS621  CYS622 
 ASP623  PHE694  ASN695  SER759  ASP760  ASP761  ALA762  ILE779  LEU786  VAL792 
 PHE793  MET794  SER795  GLU796  ALA797  LYS798  CYS799  TRP800  GLU811  SER814 

> <Gold.Protein.RotatedAtoms>
  152.3440  133.6100  159.5896 H   0  0  0  0  0  0  0  0  0  0  0  0  # atno 6907 bound_to 6896
  150.7496  133.9678  159.3545 H   0  0  0  0  0  0  0  0  0  0  0  0  # atno 6908 bound_to 6896
  151.7538  135.0827  160.0386 H   0  0  0  0  0  0  0  0  0  0  0  0  # atno 6909 bound_to 6896
  145.5277  140.9525  143.1620 H   0  0  0  0  0  0  0  0  0  0  0  0  # atno 7974 bound_to 7965
  155.2341  140.0426  157.2966 H   0  0  0  0  0  0  0  0  0  0  0  0  # atno 8008 bound_to 7997
  154.5870  140.2416  155.7944 H   0  0  0  0  0  0  0  0  0  0  0  0  # atno 8009 bound_to 7997
  156.2233  140.2963  156.0013 H   0  0  0  0  0  0  0  0  0  0  0  0  # atno 8010 bound_to 7997
  139.7596  144.6958  151.0311 H   0  0  0  0  0  0  0  0  0  0  0  0  # atno 10167 bound_to 10162
  156.8870  130.9835  151.3054 H   0  0  0  0  0  0  0  0  0  0  0  0  # atno 10718 bound_to 10713
  153.2107  135.6868  153.8118 H   0  0  0  0  0  0  0  0  0  0  0  0  # atno 10763 bound_to 10752
  153.7352  135.3246  155.3294 H   0  0  0  0  0  0  0  0  0  0  0  0  # atno 10764 bound_to 10752
  154.8220  135.4645  154.0913 H   0  0  0  0  0  0  0  0  0  0  0  0  # atno 10765 bound_to 10752
  140.9124  133.7452  156.0688 H   0  0  0  0  0  0  0  0  0  0  0  0  # atno 11005 bound_to 11000
  144.7642  139.6884  143.7221 LP  0  0  0  0  0  0  0  0  0  0  0  0  # atno 17320 bound_to 7965
  146.2065  139.5392  142.9709 LP  0  0  0  0  0  0  0  0  0  0  0  0  # atno 17321 bound_to 7965
  140.7806  143.4712  151.0143 LP  0  0  0  0  0  0  0  0  0  0  0  0  # atno 17342 bound_to 10162
  139.8399  143.7578  152.3180 LP  0  0  0  0  0  0  0  0  0  0  0  0  # atno 17343 bound_to 10162
  157.6106  130.8580  149.8946 LP  0  0  0  0  0  0  0  0  0  0  0  0  # atno 17370 bound_to 10713
  156.0648  130.3694  150.0902 LP  0  0  0  0  0  0  0  0  0  0  0  0  # atno 17371 bound_to 10713
  140.8093  134.3418  157.5416 LP  0  0  0  0  0  0  0  0  0  0  0  0  # atno 17394 bound_to 11000
  139.8760  134.9244  156.3350 LP  0  0  0  0  0  0  0  0  0  0  0  0  # atno 17395 bound_to 11000

$$$$
