AV-unprocessed.smi:1970|AV-procd|sdf|7960|dock2
  -GOLD-   2272010133D 1   1.00000     0.00000
 Structure written by MMmdl.
 33 34  0  0  0  0  0  0  0  0  1 V2000
  152.4874  139.8815  155.4126 O   0  0  0  0  0  0  0  0  0  0  0  0
  151.3017  139.5841  155.5573 C   0  0  0  0  0  0  0  0  0  0  0  0
  150.5395  138.9069  154.4154 C   0  0  0  0  0  0  0  0  0  0  0  0
  149.1101  139.2169  154.4792 N   0  0  0  0  0  0  0  0  0  0  0  0
  148.1664  138.1484  154.7899 C   0  0  0  0  0  0  0  0  0  0  0  0
  146.5214  138.7706  154.3583 S   0  0  0  0  0  0  0  0  0  0  0  0
  147.0786  140.4826  154.3420 C   0  0  0  0  0  0  0  0  0  0  0  0
  148.5945  140.4394  154.2610 C   0  0  0  0  0  0  0  0  0  0  0  0
  149.2523  141.4489  154.0102 O   0  0  0  0  0  0  0  0  0  0  0  0
  150.6114  139.8174  156.6846 N   0  0  0  0  0  0  0  0  0  0  0  0
  151.1277  140.4963  157.8710 C   0  0  0  0  0  0  0  0  0  0  0  0
  151.4436  141.9842  157.6123 C   0  0  0  0  0  0  0  0  0  0  0  0
  151.6918  142.7892  158.8773 C   0  0  0  0  0  0  0  0  0  0  0  0
  152.3653  142.2177  159.9784 C   0  0  0  0  0  0  0  0  0  0  0  0
  152.5298  142.9939  161.1416 C   0  0  0  0  0  0  0  0  0  0  0  0
  152.0246  144.3080  161.1567 C   0  0  0  0  0  0  0  0  0  0  0  0
  151.3773  144.7902  160.0017 C   0  0  0  0  0  0  0  0  0  0  0  0
  151.2128  144.0537  158.8817 N   0  0  0  0  0  0  0  0  0  0  0  0
  150.9487  139.2585  153.4673 H   0  0  0  0  0  0  0  0  0  0  0  0
  150.6972  137.8268  154.4329 H   0  0  0  0  0  0  0  0  0  0  0  0
  148.3846  137.2387  154.2296 H   0  0  0  0  0  0  0  0  0  0  0  0
  148.2076  137.9191  155.8550 H   0  0  0  0  0  0  0  0  0  0  0  0
  146.6516  141.0171  153.4933 H   0  0  0  0  0  0  0  0  0  0  0  0
  146.7735  140.9834  155.2610 H   0  0  0  0  0  0  0  0  0  0  0  0
  149.6437  139.5299  156.7119 H   0  0  0  0  0  0  0  0  0  0  0  0
  150.3705  140.4204  158.6516 H   0  0  0  0  0  0  0  0  0  0  0  0
  152.0105  139.9823  158.2550 H   0  0  0  0  0  0  0  0  0  0  0  0
  152.3142  142.0656  156.9600 H   0  0  0  0  0  0  0  0  0  0  0  0
  150.6169  142.4411  157.0674 H   0  0  0  0  0  0  0  0  0  0  0  0
  152.7329  141.2032  159.9402 H   0  0  0  0  0  0  0  0  0  0  0  0
  153.0305  142.5873  162.0077 H   0  0  0  0  0  0  0  0  0  0  0  0
  152.1307  144.9318  162.0318 H   0  0  0  0  0  0  0  0  0  0  0  0
  150.9796  145.7939  159.9768 H   0  0  0  0  0  0  0  0  0  0  0  0
  1  2  2  0  0  0  0
  2  3  1  0  0  0  0
  2 10  1  0  0  0  0
  3  4  1  0  0  0  0
  3 19  1  0  0  0  0
  3 20  1  0  0  0  0
  4  8  1  0  0  0  0
  4  5  1  0  0  0  0
  5  6  1  0  0  0  0
  5 21  1  0  0  0  0
  5 22  1  0  0  0  0
  6  7  1  0  0  0  0
  7  8  1  0  0  0  0
  7 23  1  0  0  0  0
  7 24  1  0  0  0  0
  8  9  2  0  0  0  0
 10 11  1  0  0  0  0
 10 25  1  0  0  0  0
 11 12  1  0  0  0  0
 11 26  1  0  0  0  0
 11 27  1  0  0  0  0
 12 13  1  0  0  0  0
 12 28  1  0  0  0  0
 12 29  1  0  0  0  0
 13 18  1  0  0  0  0
 13 14  2  0  0  0  0
 14 15  1  0  0  0  0
 14 30  1  0  0  0  0
 15 16  2  0  0  0  0
 15 31  1  0  0  0  0
 16 17  1  0  0  0  0
 16 32  1  0  0  0  0
 17 18  2  0  0  0  0
 17 33  1  0  0  0  0
M  END
> <s_m_source_file>
AV-unprocessed.smi

> <i_m_source_file_index>
1970

> <i_lp_mmshare_version>
43012

> <i_f3d_flags>
0

> <s_epik_input>
Tz1DMVtDSDJdU1tDSDJdTjFbQ0gyXUMoPU8pW05IXVtDSDJdW0NIMl1jMltjSF1bY0hdW2NIXVtjSF1uMg==

> <s_epik_cmdline>
J2VwaWtfcHl0aG9uJywgJy1waCcsICc3LjAnLCAnLXRuJywgJzgnLCAnLW1hJywgJzIwMCcsICctbWV0YWxfYmluZGluZycsICctaW1hZScsICc8aW5maWxlLm1hZT4nLCAnLW9tYWUnLCAnPG91dGZpbGUubWFlPic=

> <r_epik_Ionization_Penalty>
0.0255556

> <r_epik_Ionization_Penalty_Charging>
0

> <r_epik_Ionization_Penalty_Neutral>
0.0255556

> <r_epik_State_Penalty>
0.0208108

> <r_epik_Charging_Adjusted_Penalty>
0.0208108

> <i_epik_Tot_Q>
0

> <i_epik_Tot_abs_Q>
0

> <r_epik_Metal_State_Penalty>
0.0199448

> <b_epik_Metal_Only>
0

> <s_epik_Chemistry_Notes>
This compound contains an acetal/aminal-like group ( X-CH(R)-Y where X, Y are N, S, or O) that may be acid/base labile, releasing an aldehyde.

> <s_lp_Force_Field>
OPLS_2005

> <r_lp_Energy>
5.35786

> <b_lp_Chiralities_Consistent>
1

> <s_lp_Variant>
AV-unprocessed.smi:1970-1

> <Gold.Version>
5.8.1

> <Gold.Id.Protein>
6NUR|6NUR_protein|mol2

> <Gold.PLP.Fitness>
42.0866

> <Gold.PLP.PLP>
-38.5993

> <Gold.PLP.part.hbond>
-4.0000

> <Gold.PLP.part.metal>
0.0000

> <Gold.PLP.part.buried>
-4.3112

> <Gold.PLP.part.nonpolar>
-30.2937

> <Gold.PLP.part.repulsive>
0.3445

> <Gold.PLP.ligand.clash>
0.0000

> <Gold.PLP.ligand.torsion>
0.8127

> <Gold.PLP.Chemscore.Hbond>
1.6938

> <Gold.PLP.Chemscore.CHOScore>
0.0000

> <Gold.PLP.Chemscore.Metal>
0.0000

> <Gold.Chemscore.Hbonds>
donor molecule, donor type, donor heavy atom, donor atom, acceptor molecule, acceptor atom, score
      P1  H  7989  7998       L1     1  0.02
      P1  H  7997  8010       L1     1  0.93
      P1  H  8011  8017       L1     9  0.70

> <Gold.PLP.Chemscore.Internal.Correction>
0.0311

> <Gold.Rescore>
     Score         DG    S(hbond)    S(metal)    S(lipo)     H(rot)  DE(clash)    DE(int)     intcor
     15.84     -16.75       1.80        0.00      86.99       1.92       0.04       0.86       ----

> <Gold.Chemscore.Fitness>
15.8422

> <Gold.Chemscore.DG>
-16.7479

> <Gold.Chemscore.ZeroCoef>
-5.4800

> <Gold.Chemscore.Hbond>
1.7993

> <Gold.Chemscore.Metal>
0.0000

> <Gold.Chemscore.Lipo>
86.9853

> <Gold.Chemscore.Internal_Hbond>
0.0000

> <Gold.Chemscore.DEClash>
0.0430

> <Gold.Chemscore.DEInternal>
0.8628

> <Gold.Chemscore.Rot>
1.9215

> <Gold.Chemscore.Internal.Correction>
   9.000000E+99

> <Gold.Chemscore.Hbonds>
donor molecule, donor type, donor heavy atom, donor atom, acceptor molecule, acceptor atom, score
      P1  H  7989  7998       L1     9  0.01
      P1  H  7997  8010       L1     1  0.88
      P1  H  8011  8017       L1     9  0.67

> <Gold.Chemscore.Hbond.Weighted>
-6.0096

> <Gold.Chemscore.Metal.Weighted>
-0.0000

> <Gold.Chemscore.Lipo.Weighted>
-10.1773

> <Gold.Chemscore.Internal_Hbond.Weighted>
0.0000

> <Gold.Chemscore.DEClash.Weighted>
0.0430

> <Gold.Chemscore.DEInternal.Weighted>
0.8628

> <Gold.Chemscore.Rot.Weighted>
4.9190

> <Gold.Chemscore.Internal.Correction.Weighted>
   9.000000E+99

> <Gold.Protein.RotatedTorsions>
[ 6907 6896 6895 6894 ] final   89.21 input  -60.11 | X-H torsion
[ 7974 7965 7964 7962 ] final  159.87 input  175.53 | X-H torsion
[ 8008 7997 7996 7995 ] final  107.48 input   59.86 | X-H torsion
[ 10167 10162 10161 10158 ] final  173.05 input  -65.29 | X-H torsion
[ 10718 10713 10712 10709 ] final -161.69 input   66.30 | X-H torsion
[ 10763 10752 10751 10750 ] final -106.37 input  -60.55 | X-H torsion
[ 11005 11000 10999 10996 ] final  159.19 input  -57.11 | X-H torsion

> <Gold.Protein.ActiveResidues>
 VAL166  LYS551  ARG553  GLY616  TRP617  ASP618  TYR619  PRO620  LYS621  CYS622 
 ASP623  PHE694  ASN695  SER759  ASP760  ASP761  ALA762  ILE779  LEU786  VAL792 
 PHE793  MET794  SER795  GLU796  ALA797  LYS798  CYS799  TRP800  GLU811  SER814 

> <Gold.Protein.RotatedAtoms>
  152.5434  134.2001  159.8708 H   0  0  0  0  0  0  0  0  0  0  0  0  # atno 6907 bound_to 6896
  151.1990  133.4615  159.2603 H   0  0  0  0  0  0  0  0  0  0  0  0  # atno 6908 bound_to 6896
  151.1008  134.9983  159.8503 H   0  0  0  0  0  0  0  0  0  0  0  0  # atno 6909 bound_to 6896
  144.7767  139.7677  143.6276 H   0  0  0  0  0  0  0  0  0  0  0  0  # atno 7974 bound_to 7965
  156.1827  140.3094  155.9180 H   0  0  0  0  0  0  0  0  0  0  0  0  # atno 8008 bound_to 7997
  155.3348  140.0462  157.3060 H   0  0  0  0  0  0  0  0  0  0  0  0  # atno 8009 bound_to 7997
  154.5361  140.2246  155.8730 H   0  0  0  0  0  0  0  0  0  0  0  0  # atno 8010 bound_to 7997
  139.5096  144.3305  152.0116 H   0  0  0  0  0  0  0  0  0  0  0  0  # atno 10167 bound_to 10162
  156.5998  130.8805  151.2911 H   0  0  0  0  0  0  0  0  0  0  0  0  # atno 10718 bound_to 10713
  154.8007  135.4714  154.0270 H   0  0  0  0  0  0  0  0  0  0  0  0  # atno 10763 bound_to 10752
  153.1777  135.6835  153.8527 H   0  0  0  0  0  0  0  0  0  0  0  0  # atno 10764 bound_to 10752
  153.8088  135.3220  155.3376 H   0  0  0  0  0  0  0  0  0  0  0  0  # atno 10765 bound_to 10752
  140.1938  134.8388  157.2942 H   0  0  0  0  0  0  0  0  0  0  0  0  # atno 11005 bound_to 11000
  146.1951  139.5212  142.9780 LP  0  0  0  0  0  0  0  0  0  0  0  0  # atno 17320 bound_to 7965
  145.6166  141.0330  143.1938 LP  0  0  0  0  0  0  0  0  0  0  0  0  # atno 17321 bound_to 7965
  140.2745  144.3928  150.6140 LP  0  0  0  0  0  0  0  0  0  0  0  0  # atno 17342 bound_to 10162
  140.6064  143.2168  151.6972 LP  0  0  0  0  0  0  0  0  0  0  0  0  # atno 17343 bound_to 10162
  157.7282  130.9654  150.1734 LP  0  0  0  0  0  0  0  0  0  0  0  0  # atno 17370 bound_to 10713
  156.2479  130.3697  149.8265 LP  0  0  0  0  0  0  0  0  0  0  0  0  # atno 17371 bound_to 10713
  140.2130  134.4116  155.7603 LP  0  0  0  0  0  0  0  0  0  0  0  0  # atno 17394 bound_to 11000
  141.2227  133.7127  156.8368 LP  0  0  0  0  0  0  0  0  0  0  0  0  # atno 17395 bound_to 11000

$$$$
