AV-unprocessed.smi:290|AV-procd|sdf|2219|dock6
  -GOLD-   2262022 63D 1   1.00000     0.00000
 Structure written by MMmdl.
 59 62  0  0  0  0  0  0  0  0  2 V2000
  151.5217  138.9985  158.3124 C   0  0  0  0  0  0  0  0  0  0  0  0
  152.3045  138.2997  157.1899 C   0  0  2  0  0  0  0  0  0  0  0  0
  152.6392  139.2858  156.2167 O   0  0  0  0  0  0  0  0  0  0  0  0
  152.7134  138.6650  154.9460 C   0  0  0  0  0  0  0  0  0  0  0  0
  151.5313  137.7091  154.9822 C   0  0  0  0  0  0  0  0  0  0  0  0
  151.5646  137.1743  156.4118 C   0  0  1  0  0  0  0  0  0  0  0  0
  152.3960  136.0257  156.4204 O   0  0  0  0  0  0  0  0  0  0  0  0
  150.1688  136.7649  156.9520 C   0  0  0  0  0  0  0  0  0  0  0  0
  149.4125  135.9348  156.0272 N   0  0  0  0  0  0  0  0  0  0  0  0
  148.2953  136.3036  155.3104 C   0  0  0  0  0  0  0  0  0  0  0  0
  147.7977  135.3772  154.5367 N   0  0  0  0  0  0  0  0  0  0  0  0
  148.6315  134.2863  154.7434 C   0  0  0  0  0  0  0  0  0  0  0  0
  148.6734  132.9672  154.2236 C   0  0  0  0  0  0  0  0  0  0  0  0
  147.7716  132.5356  153.3128 N   0  0  0  0  0  0  0  0  0  0  0  0
  147.7655  133.2853  152.0709 C   0  0  0  0  0  0  0  0  0  0  0  0
  146.4511  132.9226  151.3808 C   0  0  0  0  0  0  0  0  0  0  0  0
  145.5628  132.2773  152.4660 C   0  0  2  0  0  0  0  0  0  0  0  0
  144.1851  132.8640  152.4603 N   0  3  1  0  0  0  0  0  0  0  0  0
  144.2380  134.3492  152.4825 C   0  0  0  0  0  0  0  0  0  0  0  0
  143.2733  132.3462  151.3999 C   0  0  0  0  0  0  0  0  0  0  0  0
  143.8099  132.5338  149.9680 C   0  0  0  0  0  0  0  0  0  0  0  0
  142.8529  132.1005  149.0240 O   0  0  0  0  0  0  0  0  0  0  0  0
  146.3877  132.4577  153.7645 C   0  0  1  0  0  0  0  0  0  0  0  0
  146.2249  131.3066  154.7820 C   0  0  0  0  0  0  0  0  0  0  0  0
  149.6630  132.1419  154.6569 N   0  0  0  0  0  0  0  0  0  0  0  0
  150.5534  132.5825  155.5516 C   0  0  0  0  0  0  0  0  0  0  0  0
  150.6369  133.7858  156.1239 N   0  0  0  0  0  0  0  0  0  0  0  0
  149.6479  134.6155  155.6821 C   0  0  0  0  0  0  0  0  0  0  0  0
  145.4873  131.2079  152.2591 H   0  0  0  0  0  0  0  0  0  0  0  0
  146.1259  133.4081  154.2324 H   0  0  0  0  0  0  0  0  0  0  0  0
  151.2453  138.2984  159.1008 H   0  0  0  0  0  0  0  0  0  0  0  0
  150.6127  139.4679  157.9363 H   0  0  0  0  0  0  0  0  0  0  0  0
  152.1266  139.7816  158.7702 H   0  0  0  0  0  0  0  0  0  0  0  0
  153.2388  137.9209  157.6088 H   0  0  0  0  0  0  0  0  0  0  0  0
  152.6462  139.3912  154.1360 H   0  0  0  0  0  0  0  0  0  0  0  0
  153.6564  138.1242  154.8519 H   0  0  0  0  0  0  0  0  0  0  0  0
  150.6162  138.2786  154.8154 H   0  0  0  0  0  0  0  0  0  0  0  0
  151.5828  136.9324  154.2178 H   0  0  0  0  0  0  0  0  0  0  0  0
  152.7317  135.9038  157.2956 H   0  0  0  0  0  0  0  0  0  0  0  0
  150.2665  136.2235  157.8939 H   0  0  0  0  0  0  0  0  0  0  0  0
  149.5674  137.6491  157.1648 H   0  0  0  0  0  0  0  0  0  0  0  0
  147.8611  137.2909  155.3748 H   0  0  0  0  0  0  0  0  0  0  0  0
  147.8034  134.3587  152.2627 H   0  0  0  0  0  0  0  0  0  0  0  0
  148.6259  133.0235  151.4543 H   0  0  0  0  0  0  0  0  0  0  0  0
  146.0063  133.8174  150.9437 H   0  0  0  0  0  0  0  0  0  0  0  0
  146.6251  132.2149  150.5695 H   0  0  0  0  0  0  0  0  0  0  0  0
  144.5381  134.7421  151.5102 H   0  0  0  0  0  0  0  0  0  0  0  0
  144.9474  134.7194  153.2222 H   0  0  0  0  0  0  0  0  0  0  0  0
  143.2739  134.7817  152.7464 H   0  0  0  0  0  0  0  0  0  0  0  0
  143.0735  131.2898  151.5839 H   0  0  0  0  0  0  0  0  0  0  0  0
  142.3163  132.8630  151.4370 H   0  0  0  0  0  0  0  0  0  0  0  0
  144.0995  133.5632  149.7621 H   0  0  0  0  0  0  0  0  0  0  0  0
  144.7106  131.9339  149.8341 H   0  0  0  0  0  0  0  0  0  0  0  0
  142.1308  132.7108  149.0210 H   0  0  0  0  0  0  0  0  0  0  0  0
  145.1962  131.1727  155.1093 H   0  0  0  0  0  0  0  0  0  0  0  0
  146.8206  131.4840  155.6779 H   0  0  0  0  0  0  0  0  0  0  0  0
  146.5537  130.3585  154.3548 H   0  0  0  0  0  0  0  0  0  0  0  0
  151.3082  131.8701  155.8507 H   0  0  0  0  0  0  0  0  0  0  0  0
  143.7664  132.5787  153.3344 H   0  0  0  0  0  0  0  0  0  0  0  0
  1  2  1  0  0  0  0
  1 31  1  0  0  0  0
  1 32  1  0  0  0  0
  1 33  1  0  0  0  0
  2  6  1  0  0  0  0
  2  3  1  0  0  0  0
  2 34  1  0  0  0  0
  3  4  1  0  0  0  0
  4  5  1  0  0  0  0
  4 35  1  0  0  0  0
  4 36  1  0  0  0  0
  5  6  1  0  0  0  0
  5 37  1  0  0  0  0
  5 38  1  0  0  0  0
  6  7  1  0  0  0  0
  6  8  1  0  0  0  0
  7 39  1  0  0  0  0
  8  9  1  0  0  0  0
  8 40  1  0  0  0  0
  8 41  1  0  0  0  0
  9 28  1  0  0  0  0
  9 10  1  0  0  0  0
 10 11  2  0  0  0  0
 10 42  1  0  0  0  0
 11 12  1  0  0  0  0
 12 28  2  0  0  0  0
 12 13  1  0  0  0  0
 13 14  1  0  0  0  0
 13 25  2  0  0  0  0
 14 23  1  0  0  0  0
 14 15  1  0  0  0  0
 15 16  1  0  0  0  0
 15 43  1  0  0  0  0
 15 44  1  0  0  0  0
 16 17  1  0  0  0  0
 16 45  1  0  0  0  0
 16 46  1  0  0  0  0
 17 29  1  0  0  0  0
 17 18  1  0  0  0  0
 17 23  1  0  0  0  0
 18 19  1  0  0  0  0
 18 20  1  0  0  0  0
 18 59  1  0  0  0  0
 19 47  1  0  0  0  0
 19 48  1  0  0  0  0
 19 49  1  0  0  0  0
 20 21  1  0  0  0  0
 20 50  1  0  0  0  0
 20 51  1  0  0  0  0
 21 22  1  0  0  0  0
 21 52  1  0  0  0  0
 21 53  1  0  0  0  0
 22 54  1  0  0  0  0
 23 30  1  0  0  0  0
 23 24  1  0  0  0  0
 24 55  1  0  0  0  0
 24 56  1  0  0  0  0
 24 57  1  0  0  0  0
 25 26  1  0  0  0  0
 26 27  2  0  0  0  0
 26 58  1  0  0  0  0
 27 28  1  0  0  0  0
M  CHG  1  18   1
M  END
> <s_m_source_file>
AV-unprocessed.smi

> <i_m_source_file_index>
290

> <i_lp_mmshare_version>
43012

> <i_f3d_flags>
0

> <s_epik_input>
W0NIMl0xW0NIMl1PW0NAQEhdKFtDSDNdKVtDQEBdMShbT0hdKVtDSDJdbihbY0hdbjIpYyhjMjMpbltjSF1uYzNONFtDSDJdW0NIMl1bQ0BIXShbQ0BIXTRbQ0gzXSlOKFtDSDNdKVtDSDJdW0NIMl1bT0hd

> <s_epik_cmdline>
J2VwaWtfcHl0aG9uJywgJy1waCcsICc3LjAnLCAnLXRuJywgJzgnLCAnLW1hJywgJzIwMCcsICctbWV0YWxfYmluZGluZycsICctaW1hZScsICc8aW5maWxlLm1hZT4nLCAnLW9tYWUnLCAnPG91dGZpbGUubWFlPic=

> <r_lp_tautomer_probability>
1

> <r_epik_Ionization_Penalty>
0.0036983

> <r_epik_Ionization_Penalty_Charging>
0.0032725

> <r_epik_Ionization_Penalty_Neutral>
0.000425798

> <r_epik_State_Penalty>
-0

> <r_epik_Charging_Adjusted_Penalty>
0.0032725

> <i_epik_Tot_Q>
1

> <i_epik_Tot_abs_Q>
1

> <r_epik_Metal_State_Penalty>
-0

> <b_epik_Metal_Only>
0

> <s_lp_Force_Field>
OPLS_2005

> <r_lp_Energy>
64.8136

> <b_lp_Chiralities_Consistent>
1

> <s_lp_Variant>
AV-unprocessed.smi:290-5

> <Gold.Version>
5.8.1

> <Gold.Id.Protein>
6NUR|6NUR_protein|mol2

> <Gold.PLP.Fitness>
56.3532

> <Gold.PLP.PLP>
-39.4369

> <Gold.PLP.part.hbond>
-6.0000

> <Gold.PLP.part.metal>
0.0000

> <Gold.PLP.part.buried>
-8.4531

> <Gold.PLP.part.nonpolar>
-28.3804

> <Gold.PLP.part.repulsive>
1.5902

> <Gold.PLP.ligand.clash>
0.0000

> <Gold.PLP.ligand.torsion>
0.4826

> <Gold.PLP.Chemscore.Hbond>
5.8925

> <Gold.PLP.Chemscore.CHOScore>
0.0000

> <Gold.PLP.Chemscore.Metal>
0.0000

> <Gold.Chemscore.Hbonds>
donor molecule, donor type, donor heavy atom, donor atom, acceptor molecule, acceptor atom, score
      L1  H    18    59       P1 10957  2.00
      L1  H    22    54       P1 10186  0.83
      P1  H  7997  8008       L1     3  1.00
      P1  H 10752 10765       L1     7  1.00
      P1  H 10785 10796       L1    22  1.00

> <Gold.PLP.Chemscore.Internal.Correction>
0.2039

> <Gold.Rescore>
     Score         DG    S(hbond)    S(metal)    S(lipo)     H(rot)  DE(clash)    DE(int)     intcor
     16.36     -19.33       4.21        0.00      78.33       3.67       0.37       2.60       ----

> <Gold.Chemscore.Fitness>
16.3623

> <Gold.Chemscore.DG>
-19.3335

> <Gold.Chemscore.ZeroCoef>
-5.4800

> <Gold.Chemscore.Hbond>
4.2137

> <Gold.Chemscore.Metal>
0.0000

> <Gold.Chemscore.Lipo>
78.3257

> <Gold.Chemscore.Internal_Hbond>
0.0000

> <Gold.Chemscore.DEClash>
0.3666

> <Gold.Chemscore.DEInternal>
2.6045

> <Gold.Chemscore.Rot>
3.6658

> <Gold.Chemscore.Internal.Correction>
   9.000000E+99

> <Gold.Chemscore.Hbonds>
donor molecule, donor type, donor heavy atom, donor atom, acceptor molecule, acceptor atom, score
      L1  H    18    59       P1 10957  0.29
      L1  H    22    54       P1 10186  0.82
      P1  H  7997  8008       L1     3  0.44
      P1  H 10752 10765       L1     7  0.98
      P1  H 10785 10796       L1    22  0.57

> <Gold.Chemscore.Hbond.Weighted>
-14.0738

> <Gold.Chemscore.Metal.Weighted>
-0.0000

> <Gold.Chemscore.Lipo.Weighted>
-9.1641

> <Gold.Chemscore.Internal_Hbond.Weighted>
0.0000

> <Gold.Chemscore.DEClash.Weighted>
0.3666

> <Gold.Chemscore.DEInternal.Weighted>
2.6045

> <Gold.Chemscore.Rot.Weighted>
9.3844

> <Gold.Chemscore.Internal.Correction.Weighted>
   9.000000E+99

> <Gold.Protein.RotatedTorsions>
[ 6907 6896 6895 6894 ] final  -79.74 input  -60.11 | X-H torsion
[ 7974 7965 7964 7962 ] final   54.08 input  175.53 | X-H torsion
[ 8008 7997 7996 7995 ] final  -51.76 input   59.86 | X-H torsion
[ 10167 10162 10161 10158 ] final  -69.68 input  -65.29 | X-H torsion
[ 10718 10713 10712 10709 ] final   -1.67 input   66.30 | X-H torsion
[ 10763 10752 10751 10750 ] final -144.76 input  -60.55 | X-H torsion
[ 11005 11000 10999 10996 ] final  172.93 input  -57.11 | X-H torsion

> <Gold.Protein.ActiveResidues>
 VAL166  LYS551  ARG553  GLY616  TRP617  ASP618  TYR619  PRO620  LYS621  CYS622 
 ASP623  PHE694  ASN695  SER759  ASP760  ASP761  ALA762  ILE779  LEU786  VAL792 
 PHE793  MET794  SER795  GLU796  ALA797  LYS798  CYS799  TRP800  GLU811  SER814 

> <Gold.Protein.RotatedAtoms>
  150.6943  134.4076  159.5146 H   0  0  0  0  0  0  0  0  0  0  0  0  # atno 6907 bound_to 6896
  152.1839  134.8727  160.0533 H   0  0  0  0  0  0  0  0  0  0  0  0  # atno 6908 bound_to 6896
  151.9707  133.3690  159.4107 H   0  0  0  0  0  0  0  0  0  0  0  0  # atno 6909 bound_to 6896
  145.9645  139.4090  143.0228 H   0  0  0  0  0  0  0  0  0  0  0  0  # atno 7974 bound_to 7965
  154.4090  140.1240  156.4881 H   0  0  0  0  0  0  0  0  0  0  0  0  # atno 8008 bound_to 7997
  155.7017  140.3494  155.4916 H   0  0  0  0  0  0  0  0  0  0  0  0  # atno 8009 bound_to 7997
  155.9379  140.1081  157.1070 H   0  0  0  0  0  0  0  0  0  0  0  0  # atno 8010 bound_to 7997
  140.5411  143.2315  151.7086 H   0  0  0  0  0  0  0  0  0  0  0  0  # atno 10167 bound_to 10162
  156.8021  130.5396  149.5720 H   0  0  0  0  0  0  0  0  0  0  0  0  # atno 10718 bound_to 10713
  154.8414  135.3431  154.6398 H   0  0  0  0  0  0  0  0  0  0  0  0  # atno 10763 bound_to 10752
  153.7008  135.6969  153.5068 H   0  0  0  0  0  0  0  0  0  0  0  0  # atno 10764 bound_to 10752
  153.2524  135.4349  155.0765 H   0  0  0  0  0  0  0  0  0  0  0  0  # atno 10765 bound_to 10752
  140.3350  134.7325  157.4162 H   0  0  0  0  0  0  0  0  0  0  0  0  # atno 11005 bound_to 11000
  145.7993  140.9778  143.1007 LP  0  0  0  0  0  0  0  0  0  0  0  0  # atno 17320 bound_to 7965
  144.6822  139.9781  143.7483 LP  0  0  0  0  0  0  0  0  0  0  0  0  # atno 17321 bound_to 7965
  139.4989  144.3966  152.0224 LP  0  0  0  0  0  0  0  0  0  0  0  0  # atno 17342 bound_to 10162
  140.3075  144.3576  150.6043 LP  0  0  0  0  0  0  0  0  0  0  0  0  # atno 17343 bound_to 10162
  156.1095  130.6029  151.0024 LP  0  0  0  0  0  0  0  0  0  0  0  0  # atno 17370 bound_to 10713
  157.6548  131.0891  150.7971 LP  0  0  0  0  0  0  0  0  0  0  0  0  # atno 17371 bound_to 10713
  140.0828  134.5707  155.8523 LP  0  0  0  0  0  0  0  0  0  0  0  0  # atno 17394 bound_to 11000
  141.2053  133.6646  156.6175 LP  0  0  0  0  0  0  0  0  0  0  0  0  # atno 17395 bound_to 11000

$$$$
