AV-unprocessed.smi:3042|AV-procd|sdf|11600|dock5
  -GOLD-   2272016583D 1   1.00000     0.00000
 Structure written by MMmdl.
 33 34  0  0  0  0  0  0  0  0  2 V2000
  147.5395  142.5243  154.4887 N   0  3  0  0  0  0  0  0  0  0  0  0
  148.7722  141.7153  154.4795 C   0  0  0  0  0  0  0  0  0  0  0  0
  148.5707  140.3357  155.1582 C   0  0  1  0  0  0  0  0  0  0  0  0
  147.7286  139.4539  154.2369 C   0  0  0  0  0  0  0  0  0  0  0  0
  147.3281  139.8984  152.9572 C   0  0  0  0  0  0  0  0  0  0  0  0
  146.5451  139.0468  152.1550 C   0  0  0  0  0  0  0  0  0  0  0  0
  146.1960  137.7801  152.6632 C   0  0  0  0  0  0  0  0  0  0  0  0
  146.5726  137.3429  153.8840 N   0  0  0  0  0  0  0  0  0  0  0  0
  147.3244  138.1644  154.6467 C   0  0  0  0  0  0  0  0  0  0  0  0
  149.8244  139.6608  155.5547 N   0  0  0  0  0  0  0  0  0  0  0  0
  150.7107  140.5520  156.3130 C   0  0  0  0  0  0  0  0  0  0  0  0
  152.0200  139.8639  156.7346 C   0  0  0  0  0  0  0  0  0  0  0  0
  152.6908  139.3734  155.5810 O   0  0  0  0  0  0  0  0  0  0  0  0
  151.8946  138.4559  154.8429 C   0  0  0  0  0  0  0  0  0  0  0  0
  150.5809  139.1338  154.4151 C   0  0  0  0  0  0  0  0  0  0  0  0
  146.8476  142.0794  155.0747 H   0  0  0  0  0  0  0  0  0  0  0  0
  147.1818  142.6062  153.5479 H   0  0  0  0  0  0  0  0  0  0  0  0
  149.1067  141.5948  153.4486 H   0  0  0  0  0  0  0  0  0  0  0  0
  149.5264  142.3089  154.9941 H   0  0  0  0  0  0  0  0  0  0  0  0
  147.9847  140.5070  156.0629 H   0  0  0  0  0  0  0  0  0  0  0  0
  147.6148  140.8753  152.5962 H   0  0  0  0  0  0  0  0  0  0  0  0
  146.2207  139.3560  151.1722 H   0  0  0  0  0  0  0  0  0  0  0  0
  145.5974  137.1013  152.0742 H   0  0  0  0  0  0  0  0  0  0  0  0
  147.6067  137.7821  155.6167 H   0  0  0  0  0  0  0  0  0  0  0  0
  150.9465  141.4335  155.7148 H   0  0  0  0  0  0  0  0  0  0  0  0
  150.2157  140.9135  157.2140 H   0  0  0  0  0  0  0  0  0  0  0  0
  152.6700  140.5712  157.2496 H   0  0  0  0  0  0  0  0  0  0  0  0
  151.8222  139.0453  157.4285 H   0  0  0  0  0  0  0  0  0  0  0  0
  152.4528  138.1255  153.9669 H   0  0  0  0  0  0  0  0  0  0  0  0
  151.6932  137.5694  155.4468 H   0  0  0  0  0  0  0  0  0  0  0  0
  149.9955  138.3910  153.8763 H   0  0  0  0  0  0  0  0  0  0  0  0
  150.8006  139.9385  153.7118 H   0  0  0  0  0  0  0  0  0  0  0  0
  147.7466  143.4443  154.8507 H   0  0  0  0  0  0  0  0  0  0  0  0
  1  2  1  0  0  0  0
  1 16  1  0  0  0  0
  1 17  1  0  0  0  0
  1 33  1  0  0  0  0
  2  3  1  0  0  0  0
  2 18  1  0  0  0  0
  2 19  1  0  0  0  0
  3  4  1  0  0  0  0
  3 10  1  0  0  0  0
  3 20  1  0  0  0  0
  4  9  1  0  0  0  0
  4  5  2  0  0  0  0
  5  6  1  0  0  0  0
  5 21  1  0  0  0  0
  6  7  2  0  0  0  0
  6 22  1  0  0  0  0
  7  8  1  0  0  0  0
  7 23  1  0  0  0  0
  8  9  2  0  0  0  0
  9 24  1  0  0  0  0
 10 15  1  0  0  0  0
 10 11  1  0  0  0  0
 11 12  1  0  0  0  0
 11 25  1  0  0  0  0
 11 26  1  0  0  0  0
 12 13  1  0  0  0  0
 12 27  1  0  0  0  0
 12 28  1  0  0  0  0
 13 14  1  0  0  0  0
 14 15  1  0  0  0  0
 14 29  1  0  0  0  0
 14 30  1  0  0  0  0
 15 31  1  0  0  0  0
 15 32  1  0  0  0  0
M  CHG  1   1   1
M  END
> <s_m_source_file>
AV-unprocessed.smi

> <i_m_source_file_index>
3042

> <i_lp_mmshare_version>
43012

> <i_f3d_flags>
0

> <s_epik_input>
W0NIMl0xW0NIMl1PW0NIMl1bQ0gyXU4xW0NASF0oW0NIMl1bTkgyXSljMltjSF1bY0hdW2NIXW5bY0hdMg==

> <s_epik_cmdline>
J2VwaWtfcHl0aG9uJywgJy1waCcsICc3LjAnLCAnLXRuJywgJzgnLCAnLW1hJywgJzIwMCcsICctbWV0YWxfYmluZGluZycsICctaW1hZScsICc8aW5maWxlLm1hZT4nLCAnLW9tYWUnLCAnPG91dGZpbGUubWFlPic=

> <r_epik_Ionization_Penalty>
0.0112597

> <r_epik_Ionization_Penalty_Charging>
0.00794922

> <r_epik_Ionization_Penalty_Neutral>
0.00331052

> <r_epik_State_Penalty>
0.00596555

> <r_epik_Charging_Adjusted_Penalty>
0.0139148

> <i_epik_Tot_Q>
1

> <i_epik_Tot_abs_Q>
1

> <r_epik_Metal_State_Penalty>
0.00603286

> <b_epik_Metal_Only>
0

> <s_lp_Force_Field>
OPLS_2005

> <r_lp_Energy>
28.2789

> <b_lp_Chiralities_Consistent>
1

> <s_lp_Variant>
AV-unprocessed.smi:3042-2

> <Gold.Version>
5.8.1

> <Gold.Id.Protein>
6NUR|6NUR_protein|mol2

> <Gold.PLP.Fitness>
33.0938

> <Gold.PLP.PLP>
-24.4997

> <Gold.PLP.part.hbond>
-2.0000

> <Gold.PLP.part.metal>
0.0000

> <Gold.PLP.part.buried>
0.3775

> <Gold.PLP.part.nonpolar>
-23.6404

> <Gold.PLP.part.repulsive>
0.3026

> <Gold.PLP.ligand.clash>
0.0000

> <Gold.PLP.ligand.torsion>
0.2404

> <Gold.PLP.Chemscore.Hbond>
3.0000

> <Gold.PLP.Chemscore.CHOScore>
0.0000

> <Gold.PLP.Chemscore.Metal>
0.0000

> <Gold.Chemscore.Hbonds>
donor molecule, donor type, donor heavy atom, donor atom, acceptor molecule, acceptor atom, score
      L1  H     1    33       P1  8028  2.00
      P1  H  7997  8008       L1    13  1.00

> <Gold.PLP.Chemscore.Internal.Correction>
0.0748

> <Gold.Rescore>
     Score         DG    S(hbond)    S(metal)    S(lipo)     H(rot)  DE(clash)    DE(int)     intcor
     14.01     -15.66       1.74        0.00      69.89       1.48       1.33       0.32       ----

> <Gold.Chemscore.Fitness>
14.0104

> <Gold.Chemscore.DG>
-15.6565

> <Gold.Chemscore.ZeroCoef>
-5.4800

> <Gold.Chemscore.Hbond>
1.7365

> <Gold.Chemscore.Metal>
0.0000

> <Gold.Chemscore.Lipo>
69.8888

> <Gold.Chemscore.Internal_Hbond>
0.0000

> <Gold.Chemscore.DEClash>
1.3272

> <Gold.Chemscore.DEInternal>
0.3190

> <Gold.Chemscore.Rot>
1.4846

> <Gold.Chemscore.Internal.Correction>
   9.000000E+99

> <Gold.Chemscore.Hbonds>
donor molecule, donor type, donor heavy atom, donor atom, acceptor molecule, acceptor atom, score
      L1  H     1    33       P1  8028  0.44
      P1  H  7997  8008       L1    13  0.24

> <Gold.Chemscore.Hbond.Weighted>
-5.8000

> <Gold.Chemscore.Metal.Weighted>
-0.0000

> <Gold.Chemscore.Lipo.Weighted>
-8.1770

> <Gold.Chemscore.Internal_Hbond.Weighted>
0.0000

> <Gold.Chemscore.DEClash.Weighted>
1.3272

> <Gold.Chemscore.DEInternal.Weighted>
0.3190

> <Gold.Chemscore.Rot.Weighted>
3.8005

> <Gold.Chemscore.Internal.Correction.Weighted>
   9.000000E+99

> <Gold.Protein.RotatedTorsions>
[ 6907 6896 6895 6894 ] final  -25.34 input  -60.11 | X-H torsion
[ 7974 7965 7964 7962 ] final -132.86 input  175.53 | X-H torsion
[ 8008 7997 7996 7995 ] final  -11.60 input   59.86 | X-H torsion
[ 10167 10162 10161 10158 ] final   88.42 input  -65.29 | X-H torsion
[ 10718 10713 10712 10709 ] final  -60.58 input   66.30 | X-H torsion
[ 10763 10752 10751 10750 ] final -161.33 input  -60.55 | X-H torsion
[ 11005 11000 10999 10996 ] final  -84.40 input  -57.11 | X-H torsion

> <Gold.Protein.ActiveResidues>
 VAL166  LYS551  ARG553  GLY616  TRP617  ASP618  TYR619  PRO620  LYS621  CYS622 
 ASP623  PHE694  ASN695  SER759  ASP760  ASP761  ALA762  ILE779  LEU786  VAL792 
 PHE793  MET794  SER795  GLU796  ALA797  LYS798  CYS799  TRP800  GLU811  SER814 

> <Gold.Protein.RotatedAtoms>
  151.1766  135.0342  159.8774 H   0  0  0  0  0  0  0  0  0  0  0  0  # atno 6907 bound_to 6896
  152.5446  134.1110  159.8368 H   0  0  0  0  0  0  0  0  0  0  0  0  # atno 6908 bound_to 6896
  151.1222  133.5049  159.2634 H   0  0  0  0  0  0  0  0  0  0  0  0  # atno 6909 bound_to 6896
  144.9246  140.7055  143.4944 H   0  0  0  0  0  0  0  0  0  0  0  0  # atno 7974 bound_to 7965
  154.5450  140.2298  155.8578 H   0  0  0  0  0  0  0  0  0  0  0  0  # atno 8008 bound_to 7997
  156.1894  140.3081  155.9265 H   0  0  0  0  0  0  0  0  0  0  0  0  # atno 8009 bound_to 7997
  155.3182  140.0439  157.3028 H   0  0  0  0  0  0  0  0  0  0  0  0  # atno 8010 bound_to 7997
  139.8675  144.6511  150.8987 H   0  0  0  0  0  0  0  0  0  0  0  0  # atno 10167 bound_to 10162
  156.0980  130.4190  150.0875 H   0  0  0  0  0  0  0  0  0  0  0  0  # atno 10718 bound_to 10713
  154.7313  135.3047  154.8887 H   0  0  0  0  0  0  0  0  0  0  0  0  # atno 10763 bound_to 10752
  153.9729  135.6739  153.4751 H   0  0  0  0  0  0  0  0  0  0  0  0  # atno 10764 bound_to 10752
  153.0921  135.4954  154.8630 H   0  0  0  0  0  0  0  0  0  0  0  0  # atno 10765 bound_to 10752
  141.1651  133.7344  156.8862 H   0  0  0  0  0  0  0  0  0  0  0  0  # atno 11005 bound_to 11000
  145.3240  139.1779  143.4572 LP  0  0  0  0  0  0  0  0  0  0  0  0  # atno 17320 bound_to 7965
  146.3220  140.3261  142.8637 LP  0  0  0  0  0  0  0  0  0  0  0  0  # atno 17321 bound_to 7965
  140.7766  143.3692  151.1682 LP  0  0  0  0  0  0  0  0  0  0  0  0  # atno 17342 bound_to 10162
  139.7315  143.9065  152.3021 LP  0  0  0  0  0  0  0  0  0  0  0  0  # atno 17343 bound_to 10162
  156.8869  130.9575  151.3593 LP  0  0  0  0  0  0  0  0  0  0  0  0  # atno 17370 bound_to 10713
  157.6145  130.8608  149.9006 LP  0  0  0  0  0  0  0  0  0  0  0  0  # atno 17371 bound_to 10713
  140.1680  134.9120  157.2798 LP  0  0  0  0  0  0  0  0  0  0  0  0  # atno 17394 bound_to 11000
  140.2535  134.3655  155.7433 LP  0  0  0  0  0  0  0  0  0  0  0  0  # atno 17395 bound_to 11000

$$$$
