AV-unprocessed.smi:289|AV-procd|sdf|2213|dock5
  -GOLD-   2262022 43D 1   1.00000     0.00000
 Structure written by MMmdl.
 51 54  0  0  0  0  0  0  0  0  1 V2000
  151.4685  136.7928  155.0542 O   0  0  0  0  0  0  0  0  0  0  0  0
  151.6446  137.3513  156.1390 C   0  0  0  0  0  0  0  0  0  0  0  0
  152.6016  138.5603  156.2108 C   0  0  0  0  0  0  0  0  0  0  0  0
  151.9164  139.8522  156.4427 N   0  0  0  0  0  0  0  0  0  0  0  0
  150.9631  140.2973  155.4945 C   0  0  0  0  0  0  0  0  0  0  0  0
  150.6840  139.6220  154.5027 O   0  0  0  0  0  0  0  0  0  0  0  0
  150.3645  141.5978  155.7690 C   0  0  0  0  0  0  0  0  0  0  0  0
  149.4774  142.1176  154.9037 F   0  0  0  0  0  0  0  0  0  0  0  0
  150.6997  142.2993  156.8711 C   0  0  0  0  0  0  0  0  0  0  0  0
  151.6048  141.8378  157.8130 N   0  0  0  0  0  0  0  0  0  0  0  0
  152.0444  142.6711  159.0081 C   0  0  2  0  0  0  0  0  0  0  0  0
  150.9459  143.5704  159.5910 C   0  0  0  0  0  0  0  0  0  0  0  0
  151.2153  144.9230  158.9364 C   0  0  0  0  0  0  0  0  0  0  0  0
  152.4464  144.6923  158.0533 C   0  0  0  0  0  0  0  0  0  0  0  0
  153.0588  143.5310  158.5972 O   0  0  0  0  0  0  0  0  0  0  0  0
  152.2693  140.6117  157.5843 C   0  0  0  0  0  0  0  0  0  0  0  0
  153.1405  140.2135  158.3608 O   0  0  0  0  0  0  0  0  0  0  0  0
  151.0236  136.9364  157.2702 N   0  0  0  0  0  0  0  0  0  0  0  0
  151.1222  137.5752  158.5911 C   0  0  0  0  0  0  0  0  0  0  0  0
  149.7330  138.0977  159.0110 C   0  0  0  0  0  0  0  0  0  0  0  0
  148.7688  136.9826  159.0126 N   0  0  0  0  0  0  0  0  0  0  0  0
  148.1368  136.4793  160.1029 C   0  0  0  0  0  0  0  0  0  0  0  0
  148.0664  137.0907  161.1694 O   0  0  0  0  0  0  0  0  0  0  0  0
  147.5142  135.1400  160.0251 C   0  0  0  0  0  0  0  0  0  0  0  0
  147.6137  134.0703  160.8735 C   0  0  0  0  0  0  0  0  0  0  0  0
  146.8587  133.0154  160.2904 C   0  0  0  0  0  0  0  0  0  0  0  0
  146.3712  133.5084  159.1143 C   0  0  0  0  0  0  0  0  0  0  0  0
  146.7737  134.7950  158.9302 O   0  0  0  0  0  0  0  0  0  0  0  0
  148.6902  136.3339  157.6938 C   0  0  0  0  0  0  0  0  0  0  0  0
  150.0820  135.8084  157.2954 C   0  0  0  0  0  0  0  0  0  0  0  0
  153.3433  138.3728  156.9889 H   0  0  0  0  0  0  0  0  0  0  0  0
  153.1805  138.6089  155.2873 H   0  0  0  0  0  0  0  0  0  0  0  0
  150.2381  143.2661  156.9934 H   0  0  0  0  0  0  0  0  0  0  0  0
  152.4021  141.9523  159.7471 H   0  0  0  0  0  0  0  0  0  0  0  0
  149.9444  143.1694  159.4361 H   0  0  0  0  0  0  0  0  0  0  0  0
  151.1059  143.6473  160.6671 H   0  0  0  0  0  0  0  0  0  0  0  0
  150.3659  145.2782  158.3526 H   0  0  0  0  0  0  0  0  0  0  0  0
  151.4286  145.6702  159.7015 H   0  0  0  0  0  0  0  0  0  0  0  0
  152.1556  144.5047  157.0190 H   0  0  0  0  0  0  0  0  0  0  0  0
  153.1302  145.5412  158.0597 H   0  0  0  0  0  0  0  0  0  0  0  0
  151.4782  136.8395  159.3141 H   0  0  0  0  0  0  0  0  0  0  0  0
  151.8369  138.3946  158.6339 H   0  0  0  0  0  0  0  0  0  0  0  0
  149.8440  138.5829  159.9783 H   0  0  0  0  0  0  0  0  0  0  0  0
  149.3903  138.8686  158.3193 H   0  0  0  0  0  0  0  0  0  0  0  0
  148.1625  134.0505  161.8038 H   0  0  0  0  0  0  0  0  0  0  0  0
  146.7006  132.0197  160.6776 H   0  0  0  0  0  0  0  0  0  0  0  0
  145.7594  133.0978  158.3246 H   0  0  0  0  0  0  0  0  0  0  0  0
  147.9681  135.5167  157.6675 H   0  0  0  0  0  0  0  0  0  0  0  0
  148.3399  137.0614  156.9598 H   0  0  0  0  0  0  0  0  0  0  0  0
  150.0147  135.2893  156.3386 H   0  0  0  0  0  0  0  0  0  0  0  0
  150.4270  135.0646  158.0153 H   0  0  0  0  0  0  0  0  0  0  0  0
  1  2  2  0  0  0  0
  2  3  1  0  0  0  0
  2 18  1  0  0  0  0
  3  4  1  0  0  0  0
  3 31  1  0  0  0  0
  3 32  1  0  0  0  0
  4 16  1  0  0  0  0
  4  5  1  0  0  0  0
  5  6  2  0  0  0  0
  5  7  1  0  0  0  0
  7  8  1  0  0  0  0
  7  9  2  0  0  0  0
  9 10  1  0  0  0  0
  9 33  1  0  0  0  0
 10 11  1  0  0  0  0
 10 16  1  0  0  0  0
 11 15  1  0  0  0  0
 11 12  1  0  0  0  0
 11 34  1  0  0  0  0
 12 13  1  0  0  0  0
 12 35  1  0  0  0  0
 12 36  1  0  0  0  0
 13 14  1  0  0  0  0
 13 37  1  0  0  0  0
 13 38  1  0  0  0  0
 14 15  1  0  0  0  0
 14 39  1  0  0  0  0
 14 40  1  0  0  0  0
 16 17  2  0  0  0  0
 18 30  1  0  0  0  0
 18 19  1  0  0  0  0
 19 20  1  0  0  0  0
 19 41  1  0  0  0  0
 19 42  1  0  0  0  0
 20 21  1  0  0  0  0
 20 43  1  0  0  0  0
 20 44  1  0  0  0  0
 21 22  1  0  0  0  0
 21 29  1  0  0  0  0
 22 23  2  0  0  0  0
 22 24  1  0  0  0  0
 24 28  1  0  0  0  0
 24 25  2  0  0  0  0
 25 26  1  0  0  0  0
 25 45  1  0  0  0  0
 26 27  2  0  0  0  0
 26 46  1  0  0  0  0
 27 28  1  0  0  0  0
 27 47  1  0  0  0  0
 29 30  1  0  0  0  0
 29 48  1  0  0  0  0
 29 49  1  0  0  0  0
 30 50  1  0  0  0  0
 30 51  1  0  0  0  0
M  END
> <s_m_source_file>
AV-unprocessed.smi

> <i_m_source_file_index>
289

> <i_lp_mmshare_version>
43012

> <i_f3d_flags>
0

> <s_epik_input>
bzFbY0hdW2NIXVtjSF1jMUMoPU8pTihbQ0gyXVtDSDJdMilbQ0gyXVtDSDJdTjJDKD1PKVtDSDJdbjNjKD1PKWMoRilbY0hdbihjMz1PKVtDQEBIXTRbQ0gyXVtDSDJdW0NIMl1PNA==

> <s_epik_cmdline>
J2VwaWtfcHl0aG9uJywgJy1waCcsICc3LjAnLCAnLXRuJywgJzgnLCAnLW1hJywgJzIwMCcsICctbWV0YWxfYmluZGluZycsICctaW1hZScsICc8aW5maWxlLm1hZT4nLCAnLW9tYWUnLCAnPG91dGZpbGUubWFlPic=

> <r_lp_tautomer_probability>
1

> <r_epik_Ionization_Penalty>
6.38128e-09

> <r_epik_Ionization_Penalty_Charging>
4.20153e-09

> <r_epik_Ionization_Penalty_Neutral>
2.17976e-09

> <r_epik_State_Penalty>
-0

> <r_epik_Charging_Adjusted_Penalty>
4.20153e-09

> <i_epik_Tot_Q>
0

> <i_epik_Tot_abs_Q>
0

> <r_epik_Metal_State_Penalty>
-0

> <b_epik_Metal_Only>
0

> <s_epik_Chemistry_Notes>
This compound contains an acetal/aminal-like group ( X-CH(R)-Y where X, Y are N, S, or O) that may be acid/base labile, releasing an aldehyde.

> <s_lp_Force_Field>
OPLS_2005

> <r_lp_Energy>
70.009

> <b_lp_Chiralities_Consistent>
1

> <s_lp_Variant>
AV-unprocessed.smi:289-1

> <Gold.Version>
5.8.1

> <Gold.Id.Protein>
6NUR|6NUR_protein|mol2

> <Gold.PLP.Fitness>
56.2597

> <Gold.PLP.PLP>
-44.6859

> <Gold.PLP.part.hbond>
-4.9161

> <Gold.PLP.part.metal>
0.0000

> <Gold.PLP.part.buried>
0.4270

> <Gold.PLP.part.nonpolar>
-40.0080

> <Gold.PLP.part.repulsive>
0.2314

> <Gold.PLP.ligand.clash>
0.0000

> <Gold.PLP.ligand.torsion>
1.6774

> <Gold.PLP.Chemscore.Hbond>
3.7849

> <Gold.PLP.Chemscore.CHOScore>
1.0000

> <Gold.PLP.Chemscore.Metal>
0.0000

> <Gold.Chemscore.Hbonds>
donor molecule, donor type, donor heavy atom, donor atom, acceptor molecule, acceptor atom, score
      P1  H  6931  6943       L1    23  1.00
      P1  H  6934  6947       L1    23  0.53
      P1  H  7989  7998       L1     6  0.40
      P1  H  7997  8008       L1    17  0.90
      P1  H 10752 10765       L1     1  1.00
      L1  C     9    33       P1  8028  1.00

> <Gold.PLP.Chemscore.Internal.Correction>
0.5739

> <Gold.Rescore>
     Score         DG    S(hbond)    S(metal)    S(lipo)     H(rot)  DE(clash)    DE(int)     intcor
     14.57     -19.66       2.50        0.00      86.07       1.66       0.21       4.87       ----

> <Gold.Chemscore.Fitness>
14.5720

> <Gold.Chemscore.DG>
-19.6562

> <Gold.Chemscore.ZeroCoef>
-5.4800

> <Gold.Chemscore.Hbond>
2.5001

> <Gold.Chemscore.Metal>
0.0000

> <Gold.Chemscore.Lipo>
86.0734

> <Gold.Chemscore.Internal_Hbond>
0.0000

> <Gold.Chemscore.DEClash>
0.2137

> <Gold.Chemscore.DEInternal>
4.8705

> <Gold.Chemscore.Rot>
1.6580

> <Gold.Chemscore.Internal.Correction>
   9.000000E+99

> <Gold.Chemscore.Hbonds>
donor molecule, donor type, donor heavy atom, donor atom, acceptor molecule, acceptor atom, score
      P1  H  6931  6943       L1    23  0.97
      P1  H  6934  6947       L1    23  0.43
      P1  H  7989  7998       L1     6  0.01
      P1  H  7997  8008       L1    17  0.19
      P1  H 10752 10765       L1     1  0.89

> <Gold.Chemscore.Hbond.Weighted>
-8.3502

> <Gold.Chemscore.Metal.Weighted>
-0.0000

> <Gold.Chemscore.Lipo.Weighted>
-10.0706

> <Gold.Chemscore.Internal_Hbond.Weighted>
0.0000

> <Gold.Chemscore.DEClash.Weighted>
0.2137

> <Gold.Chemscore.DEInternal.Weighted>
4.8705

> <Gold.Chemscore.Rot.Weighted>
4.2446

> <Gold.Chemscore.Internal.Correction.Weighted>
   9.000000E+99

> <Gold.Protein.RotatedTorsions>
[ 6907 6896 6895 6894 ] final   93.99 input  -60.11 | X-H torsion
[ 7974 7965 7964 7962 ] final   78.97 input  175.53 | X-H torsion
[ 8008 7997 7996 7995 ] final  -91.32 input   59.86 | X-H torsion
[ 10167 10162 10161 10158 ] final   60.64 input  -65.29 | X-H torsion
[ 10718 10713 10712 10709 ] final   70.60 input   66.30 | X-H torsion
[ 10763 10752 10751 10750 ] final  172.32 input  -60.55 | X-H torsion
[ 11005 11000 10999 10996 ] final    3.64 input  -57.11 | X-H torsion

> <Gold.Protein.ActiveResidues>
 VAL166  LYS551  ARG553  GLY616  TRP617  ASP618  TYR619  PRO620  LYS621  CYS622 
 ASP623  PHE694  ASN695  SER759  ASP760  ASP761  ALA762  ILE779  LEU786  VAL792 
 PHE793  MET794  SER795  GLU796  ALA797  LYS798  CYS799  TRP800  GLU811  SER814 

> <Gold.Protein.RotatedAtoms>
  152.5451  134.1263  159.8419 H   0  0  0  0  0  0  0  0  0  0  0  0  # atno 6907 bound_to 6896
  151.1313  133.5028  159.2606 H   0  0  0  0  0  0  0  0  0  0  0  0  # atno 6908 bound_to 6896
  151.1672  135.0311  159.8790 H   0  0  0  0  0  0  0  0  0  0  0  0  # atno 6909 bound_to 6896
  145.6702  139.2495  143.1872 H   0  0  0  0  0  0  0  0  0  0  0  0  # atno 7974 bound_to 7965
  154.7093  140.0521  157.0534 H   0  0  0  0  0  0  0  0  0  0  0  0  # atno 8008 bound_to 7997
  155.0577  140.3186  155.4652 H   0  0  0  0  0  0  0  0  0  0  0  0  # atno 8009 bound_to 7997
  156.2784  140.2104  156.5703 H   0  0  0  0  0  0  0  0  0  0  0  0  # atno 8010 bound_to 7997
  140.1634  144.4348  150.6697 H   0  0  0  0  0  0  0  0  0  0  0  0  # atno 10167 bound_to 10162
  157.6408  130.9486  150.0674 H   0  0  0  0  0  0  0  0  0  0  0  0  # atno 10718 bound_to 10713
  154.4244  135.2758  155.1954 H   0  0  0  0  0  0  0  0  0  0  0  0  # atno 10763 bound_to 10752
  154.3886  135.6071  153.5834 H   0  0  0  0  0  0  0  0  0  0  0  0  # atno 10764 bound_to 10752
  152.9834  135.5898  154.4545 H   0  0  0  0  0  0  0  0  0  0  0  0  # atno 10765 bound_to 10752
  140.5908  133.9925  155.8088 H   0  0  0  0  0  0  0  0  0  0  0  0  # atno 11005 bound_to 11000
  146.1051  140.7496  142.9530 LP  0  0  0  0  0  0  0  0  0  0  0  0  # atno 17320 bound_to 7965
  144.7059  140.3850  143.7118 LP  0  0  0  0  0  0  0  0  0  0  0  0  # atno 17321 bound_to 7965
  140.6628  143.2258  151.5814 LP  0  0  0  0  0  0  0  0  0  0  0  0  # atno 17342 bound_to 10162
  139.5371  144.2752  152.1273 LP  0  0  0  0  0  0  0  0  0  0  0  0  # atno 17343 bound_to 10162
  156.1688  130.3646  149.9194 LP  0  0  0  0  0  0  0  0  0  0  0  0  # atno 17370 bound_to 10713
  156.7175  130.8994  151.3615 LP  0  0  0  0  0  0  0  0  0  0  0  0  # atno 17371 bound_to 10713
  141.0936  133.9879  157.3197 LP  0  0  0  0  0  0  0  0  0  0  0  0  # atno 17394 bound_to 11000
  139.9275  135.0201  156.8285 LP  0  0  0  0  0  0  0  0  0  0  0  0  # atno 17395 bound_to 11000

$$$$
