AV-unprocessed.smi:805|AV-procd|sdf|3799|dock2
  -GOLD-   22720 1233D 1   1.00000     0.00000
 Structure written by MMmdl.
 40 41  0  0  0  0  0  0  0  0  1 V2000
  151.2400  140.8127  155.9566 C   0  0  0  0  0  0  0  0  0  0  0  0
  150.6948  139.6371  155.1429 C   0  0  0  0  0  0  0  0  0  0  0  0
  149.4711  140.0253  154.5419 O   0  0  0  0  0  0  0  0  0  0  0  0
  148.7503  138.9315  153.9963 C   0  0  1  0  0  0  0  0  0  0  0  0
  148.2001  137.9499  155.0352 C   0  0  0  0  0  0  0  0  0  0  0  0
  146.9065  137.9139  154.2143 C   0  0  2  0  0  0  0  0  0  0  0  0
  146.9265  136.8077  153.2559 N   0  0  0  0  0  0  0  0  0  0  0  0
  145.8797  136.0164  152.9854 C   0  0  0  0  0  0  0  0  0  0  0  0
  144.7792  136.1421  153.5216 O   0  0  0  0  0  0  0  0  0  0  0  0
  146.1911  135.1057  152.0474 N   0  0  0  0  0  0  0  0  0  0  0  0
  145.3554  134.1155  151.4643 C   0  0  0  0  0  0  0  0  0  0  0  0
  145.9447  133.1979  150.5705 C   0  0  0  0  0  0  0  0  0  0  0  0
  145.1447  132.1968  149.9877 C   0  0  0  0  0  0  0  0  0  0  0  0
  143.7799  132.1462  150.3313 C   0  0  0  0  0  0  0  0  0  0  0  0
  143.2028  133.0060  151.1967 N   0  0  0  0  0  0  0  0  0  0  0  0
  143.9755  133.9654  151.7506 C   0  0  0  0  0  0  0  0  0  0  0  0
  147.2969  139.2931  153.6070 C   0  0  0  0  0  0  0  0  0  0  0  0
  146.6881  140.4933  154.3452 C   0  0  0  0  0  0  0  0  0  0  0  0
  147.0443  139.5301  152.1132 C   0  0  0  0  0  0  0  0  0  0  0  0
  152.1856  140.5522  156.4321 H   0  0  0  0  0  0  0  0  0  0  0  0
  150.5402  141.1029  156.7408 H   0  0  0  0  0  0  0  0  0  0  0  0
  151.4119  141.6819  155.3215 H   0  0  0  0  0  0  0  0  0  0  0  0
  151.4145  139.3491  154.3751 H   0  0  0  0  0  0  0  0  0  0  0  0
  150.5434  138.7753  155.7943 H   0  0  0  0  0  0  0  0  0  0  0  0
  149.2813  138.4295  153.1843 H   0  0  0  0  0  0  0  0  0  0  0  0
  148.7413  137.0053  155.1010 H   0  0  0  0  0  0  0  0  0  0  0  0
  148.0642  138.4012  156.0193 H   0  0  0  0  0  0  0  0  0  0  0  0
  146.0118  137.9434  154.8386 H   0  0  0  0  0  0  0  0  0  0  0  0
  147.7937  136.6396  152.7674 H   0  0  0  0  0  0  0  0  0  0  0  0
  147.1172  135.1766  151.6525 H   0  0  0  0  0  0  0  0  0  0  0  0
  146.9956  133.2614  150.3285 H   0  0  0  0  0  0  0  0  0  0  0  0
  145.5671  131.4843  149.2949 H   0  0  0  0  0  0  0  0  0  0  0  0
  143.1361  131.3917  149.9040 H   0  0  0  0  0  0  0  0  0  0  0  0
  143.4632  134.6050  152.4520 H   0  0  0  0  0  0  0  0  0  0  0  0
  145.6178  140.5769  154.1539 H   0  0  0  0  0  0  0  0  0  0  0  0
  147.1506  141.4315  154.0368 H   0  0  0  0  0  0  0  0  0  0  0  0
  146.8143  140.4149  155.4252 H   0  0  0  0  0  0  0  0  0  0  0  0
  145.9790  139.5087  151.8810 H   0  0  0  0  0  0  0  0  0  0  0  0
  147.5276  138.7760  151.4918 H   0  0  0  0  0  0  0  0  0  0  0  0
  147.4322  140.4968  151.7904 H   0  0  0  0  0  0  0  0  0  0  0  0
  1  2  1  0  0  0  0
  1 20  1  0  0  0  0
  1 21  1  0  0  0  0
  1 22  1  0  0  0  0
  2  3  1  0  0  0  0
  2 23  1  0  0  0  0
  2 24  1  0  0  0  0
  3  4  1  0  0  0  0
  4 17  1  0  0  0  0
  4  5  1  0  0  0  0
  4 25  1  0  0  0  0
  5  6  1  0  0  0  0
  5 26  1  0  0  0  0
  5 27  1  0  0  0  0
  6  7  1  0  0  0  0
  6 17  1  0  0  0  0
  6 28  1  0  0  0  0
  7  8  1  0  0  0  0
  7 29  1  0  0  0  0
  8  9  2  0  0  0  0
  8 10  1  0  0  0  0
 10 11  1  0  0  0  0
 10 30  1  0  0  0  0
 11 16  1  0  0  0  0
 11 12  2  0  0  0  0
 12 13  1  0  0  0  0
 12 31  1  0  0  0  0
 13 14  2  0  0  0  0
 13 32  1  0  0  0  0
 14 15  1  0  0  0  0
 14 33  1  0  0  0  0
 15 16  2  0  0  0  0
 16 34  1  0  0  0  0
 17 18  1  0  0  0  0
 17 19  1  0  0  0  0
 18 35  1  0  0  0  0
 18 36  1  0  0  0  0
 18 37  1  0  0  0  0
 19 38  1  0  0  0  0
 19 39  1  0  0  0  0
 19 40  1  0  0  0  0
M  END
> <s_m_source_file>
AV-unprocessed.smi

> <i_m_source_file_index>
805

> <i_lp_mmshare_version>
43012

> <i_f3d_flags>
0

> <s_epik_input>
W0NIM11bQ0gyXU9bQ0BASF0oQzEoW0NIM10pW0NIM10pW0NIMl1bQ0BIXTFbTkhdQyg9TylbTkhdYzJbY0hdW2NIXVtjSF1uW2NIXTI=

> <s_epik_cmdline>
J2VwaWtfcHl0aG9uJywgJy1waCcsICc3LjAnLCAnLXRuJywgJzgnLCAnLW1hJywgJzIwMCcsICctbWV0YWxfYmluZGluZycsICctaW1hZScsICc8aW5maWxlLm1hZT4nLCAnLW9tYWUnLCAnPG91dGZpbGUubWFlPic=

> <r_epik_Ionization_Penalty>
0.00485231

> <r_epik_Ionization_Penalty_Charging>
0

> <r_epik_Ionization_Penalty_Neutral>
0.00485231

> <r_epik_State_Penalty>
0.00349213

> <r_epik_Charging_Adjusted_Penalty>
0.00349213

> <i_epik_Tot_Q>
0

> <i_epik_Tot_abs_Q>
0

> <r_epik_Metal_State_Penalty>
-0

> <b_epik_Metal_Only>
0

> <s_lp_Force_Field>
OPLS_2005

> <r_lp_Energy>
23.2573

> <b_lp_Chiralities_Consistent>
1

> <s_lp_Variant>
AV-unprocessed.smi:805-4

> <Gold.Version>
5.8.1

> <Gold.Id.Protein>
6NUR|6NUR_protein|mol2

> <Gold.PLP.Fitness>
37.7131

> <Gold.PLP.PLP>
-29.8166

> <Gold.PLP.part.hbond>
-1.9733

> <Gold.PLP.part.metal>
0.0000

> <Gold.PLP.part.buried>
-1.6622

> <Gold.PLP.part.nonpolar>
-26.6632

> <Gold.PLP.part.repulsive>
0.6287

> <Gold.PLP.ligand.clash>
0.0000

> <Gold.PLP.ligand.torsion>
0.2269

> <Gold.PLP.Chemscore.Hbond>
1.7635

> <Gold.PLP.Chemscore.CHOScore>
0.9123

> <Gold.PLP.Chemscore.Metal>
0.0000

> <Gold.Chemscore.Hbonds>
donor molecule, donor type, donor heavy atom, donor atom, acceptor molecule, acceptor atom, score
      L1  H     7    29       P1  7948  0.99
      L1  H    10    30       P1  7948  0.76
      L1  C    14    33       P1 10952  0.92

> <Gold.PLP.Chemscore.Internal.Correction>
0.3231

> <Gold.Rescore>
     Score         DG    S(hbond)    S(metal)    S(lipo)     H(rot)  DE(clash)    DE(int)     intcor
     16.26     -17.87       1.87        0.00      82.27       1.36       0.17       1.45       ----

> <Gold.Chemscore.Fitness>
16.2562

> <Gold.Chemscore.DG>
-17.8704

> <Gold.Chemscore.ZeroCoef>
-5.4800

> <Gold.Chemscore.Hbond>
1.8663

> <Gold.Chemscore.Metal>
0.0000

> <Gold.Chemscore.Lipo>
82.2727

> <Gold.Chemscore.Internal_Hbond>
0.0000

> <Gold.Chemscore.DEClash>
0.1679

> <Gold.Chemscore.DEInternal>
1.4463

> <Gold.Chemscore.Rot>
1.3551

> <Gold.Chemscore.Internal.Correction>
   9.000000E+99

> <Gold.Chemscore.Hbonds>
donor molecule, donor type, donor heavy atom, donor atom, acceptor molecule, acceptor atom, score
      L1  H     7    29       P1  7948  0.92
      L1  H    10    30       P1  7948  0.70

> <Gold.Chemscore.Hbond.Weighted>
-6.2335

> <Gold.Chemscore.Metal.Weighted>
-0.0000

> <Gold.Chemscore.Lipo.Weighted>
-9.6259

> <Gold.Chemscore.Internal_Hbond.Weighted>
0.0000

> <Gold.Chemscore.DEClash.Weighted>
0.1679

> <Gold.Chemscore.DEInternal.Weighted>
1.4463

> <Gold.Chemscore.Rot.Weighted>
3.4691

> <Gold.Chemscore.Internal.Correction.Weighted>
   9.000000E+99

> <Gold.Protein.RotatedTorsions>
[ 6907 6896 6895 6894 ] final -143.98 input  -60.11 | X-H torsion
[ 7974 7965 7964 7962 ] final  -70.80 input  175.53 | X-H torsion
[ 8008 7997 7996 7995 ] final  -67.57 input   59.86 | X-H torsion
[ 10167 10162 10161 10158 ] final  157.04 input  -65.29 | X-H torsion
[ 10718 10713 10712 10709 ] final   26.77 input   66.30 | X-H torsion
[ 10763 10752 10751 10750 ] final  -23.81 input  -60.55 | X-H torsion
[ 11005 11000 10999 10996 ] final  143.50 input  -57.11 | X-H torsion

> <Gold.Protein.ActiveResidues>
 VAL166  LYS551  ARG553  GLY616  TRP617  ASP618  TYR619  PRO620  LYS621  CYS622 
 ASP623  PHE694  ASN695  SER759  ASP760  ASP761  ALA762  ILE779  LEU786  VAL792 
 PHE793  MET794  SER795  GLU796  ALA797  LYS798  CYS799  TRP800  GLU811  SER814 

> <Gold.Protein.RotatedAtoms>
  151.1079  133.5195  159.2606 H   0  0  0  0  0  0  0  0  0  0  0  0  # atno 6907 bound_to 6896
  151.2000  135.0438  159.8878 H   0  0  0  0  0  0  0  0  0  0  0  0  # atno 6908 bound_to 6896
  152.5448  134.0908  159.8329 H   0  0  0  0  0  0  0  0  0  0  0  0  # atno 6909 bound_to 6896
  145.6863  140.9169  143.0805 H   0  0  0  0  0  0  0  0  0  0  0  0  # atno 7974 bound_to 7965
  154.4809  140.0890  156.7374 H   0  0  0  0  0  0  0  0  0  0  0  0  # atno 8008 bound_to 7997
  155.4474  140.3456  155.4278 H   0  0  0  0  0  0  0  0  0  0  0  0  # atno 8009 bound_to 7997
  156.1189  140.1468  156.9221 H   0  0  0  0  0  0  0  0  0  0  0  0  # atno 8010 bound_to 7997
  139.4822  144.4954  151.8247 H   0  0  0  0  0  0  0  0  0  0  0  0  # atno 10167 bound_to 10162
  157.2113  130.6935  149.6229 H   0  0  0  0  0  0  0  0  0  0  0  0  # atno 10718 bound_to 10713
  153.6738  135.6970  153.5139 H   0  0  0  0  0  0  0  0  0  0  0  0  # atno 10763 bound_to 10752
  153.2537  135.4267  155.0823 H   0  0  0  0  0  0  0  0  0  0  0  0  # atno 10764 bound_to 10752
  154.8419  135.3538  154.6282 H   0  0  0  0  0  0  0  0  0  0  0  0  # atno 10765 bound_to 10752
  140.0559  134.9231  157.1099 H   0  0  0  0  0  0  0  0  0  0  0  0  # atno 11005 bound_to 11000
  144.7010  139.8762  143.7444 LP  0  0  0  0  0  0  0  0  0  0  0  0  # atno 17320 bound_to 7965
  146.0921  139.3911  143.0399 LP  0  0  0  0  0  0  0  0  0  0  0  0  # atno 17321 bound_to 7965
  140.4442  144.1945  150.5893 LP  0  0  0  0  0  0  0  0  0  0  0  0  # atno 17342 bound_to 10162
  140.4652  143.2433  151.9165 LP  0  0  0  0  0  0  0  0  0  0  0  0  # atno 17343 bound_to 10162
  155.9690  130.4550  150.5872 LP  0  0  0  0  0  0  0  0  0  0  0  0  # atno 17370 bound_to 10713
  157.3669  131.0759  151.1590 LP  0  0  0  0  0  0  0  0  0  0  0  0  # atno 17371 bound_to 10713
  140.3845  134.2251  155.7169 LP  0  0  0  0  0  0  0  0  0  0  0  0  # atno 17394 bound_to 11000
  141.1951  133.8112  157.0727 LP  0  0  0  0  0  0  0  0  0  0  0  0  # atno 17395 bound_to 11000

$$$$
