AV-unprocessed.smi:1554|AV-procd|sdf|6261|dock2
  -GOLD-   22720 6443D 1   1.00000     0.00000
 Structure written by MMmdl.
 49 51  0  0  0  0  0  0  0  0  3 V2000
  152.0943  143.8227  160.3366 C   0  0  0  0  0  0  0  0  0  0  0  0
  151.8742  142.8198  159.2170 C   0  0  0  0  0  0  0  0  0  0  0  0
  151.0325  143.1836  158.1416 C   0  0  0  0  0  0  0  0  0  0  0  0
  150.8496  142.2445  157.1335 C   0  0  0  0  0  0  0  0  0  0  0  0
  150.0950  142.2955  155.9594 N   0  3  0  0  0  0  0  0  0  0  0  0
  150.2282  141.1217  155.2814 C   0  0  0  0  0  0  0  0  0  0  0  0
  151.0522  140.3196  156.0095 N   0  0  0  0  0  0  0  0  0  0  0  0
  151.5261  138.9552  155.7413 C   0  0  0  0  0  0  0  0  0  0  0  0
  150.7407  138.2595  154.6120 C   0  0  1  0  0  0  0  0  0  0  0  0
  151.5141  137.1907  154.1022 O   0  0  0  0  0  0  0  0  0  0  0  0
  149.3915  137.7069  155.1129 C   0  0  0  0  0  0  0  0  0  0  0  0
  148.3112  137.8182  154.0952 N   0  3  1  0  0  0  0  0  0  0  0  0
  146.9858  137.3668  154.5848 C   0  0  0  0  0  0  0  0  0  0  0  0
  146.3277  138.4371  155.4736 C   0  0  0  0  0  0  0  0  0  0  0  0
  146.2163  139.6528  154.7439 O   0  0  0  0  0  0  0  0  0  0  0  0
  147.4819  140.1731  154.3524 C   0  0  2  0  0  0  0  0  0  0  0  0
  147.2466  141.5068  153.6350 C   0  0  0  0  0  0  0  0  0  0  0  0
  148.1971  139.1490  153.4437 C   0  0  0  0  0  0  0  0  0  0  0  0
  151.4696  140.9808  157.1695 C   0  0  0  0  0  0  0  0  0  0  0  0
  152.3044  140.6068  158.2195 C   0  0  0  0  0  0  0  0  0  0  0  0
  152.5032  141.5481  159.2547 C   0  0  0  0  0  0  0  0  0  0  0  0
  153.4083  141.1691  160.4145 C   0  0  0  0  0  0  0  0  0  0  0  0
  151.5184  144.7344  160.1748 H   0  0  0  0  0  0  0  0  0  0  0  0
  153.1469  144.0998  160.3998 H   0  0  0  0  0  0  0  0  0  0  0  0
  151.7878  143.4025  161.2949 H   0  0  0  0  0  0  0  0  0  0  0  0
  150.5520  144.1506  158.1055 H   0  0  0  0  0  0  0  0  0  0  0  0
  149.7618  140.8726  154.3388 H   0  0  0  0  0  0  0  0  0  0  0  0
  152.5847  139.0200  155.4854 H   0  0  0  0  0  0  0  0  0  0  0  0
  151.4670  138.3839  156.6685 H   0  0  0  0  0  0  0  0  0  0  0  0
  150.5817  138.9743  153.8058 H   0  0  0  0  0  0  0  0  0  0  0  0
  151.3223  137.0930  153.1818 H   0  0  0  0  0  0  0  0  0  0  0  0
  149.5309  136.6590  155.3837 H   0  0  0  0  0  0  0  0  0  0  0  0
  149.0937  138.2149  156.0299 H   0  0  0  0  0  0  0  0  0  0  0  0
  146.3480  137.1752  153.7210 H   0  0  0  0  0  0  0  0  0  0  0  0
  147.0715  136.4181  155.1158 H   0  0  0  0  0  0  0  0  0  0  0  0
  145.3299  138.1142  155.7711 H   0  0  0  0  0  0  0  0  0  0  0  0
  146.8959  138.5958  156.3914 H   0  0  0  0  0  0  0  0  0  0  0  0
  148.0781  140.3689  155.2445 H   0  0  0  0  0  0  0  0  0  0  0  0
  148.1897  141.9575  153.3248 H   0  0  0  0  0  0  0  0  0  0  0  0
  146.7384  142.2167  154.2881 H   0  0  0  0  0  0  0  0  0  0  0  0
  146.6307  141.3737  152.7450 H   0  0  0  0  0  0  0  0  0  0  0  0
  149.1725  139.5240  153.1373 H   0  0  0  0  0  0  0  0  0  0  0  0
  147.6224  139.0210  152.5252 H   0  0  0  0  0  0  0  0  0  0  0  0
  152.7829  139.6391  158.2476 H   0  0  0  0  0  0  0  0  0  0  0  0
  153.8403  140.1775  160.2767 H   0  0  0  0  0  0  0  0  0  0  0  0
  152.8482  141.1614  161.3498 H   0  0  0  0  0  0  0  0  0  0  0  0
  154.2301  141.8792  160.5077 H   0  0  0  0  0  0  0  0  0  0  0  0
  148.5730  137.1632  153.3715 H   0  0  0  0  0  0  0  0  0  0  0  0
  149.5313  143.0734  155.6407 H   0  0  0  0  0  0  0  0  0  0  0  0
  1  2  1  0  0  0  0
  1 23  1  0  0  0  0
  1 24  1  0  0  0  0
  1 25  1  0  0  0  0
  2 21  1  0  0  0  0
  2  3  2  0  0  0  0
  3  4  1  0  0  0  0
  3 26  1  0  0  0  0
  4 19  2  0  0  0  0
  4  5  1  0  0  0  0
  5  6  2  0  0  0  0
  5 49  1  0  0  0  0
  6  7  1  0  0  0  0
  6 27  1  0  0  0  0
  7  8  1  0  0  0  0
  7 19  1  0  0  0  0
  8  9  1  0  0  0  0
  8 28  1  0  0  0  0
  8 29  1  0  0  0  0
  9 10  1  0  0  0  0
  9 11  1  0  0  0  0
  9 30  1  0  0  0  0
 10 31  1  0  0  0  0
 11 12  1  0  0  0  0
 11 32  1  0  0  0  0
 11 33  1  0  0  0  0
 12 18  1  0  0  0  0
 12 13  1  0  0  0  0
 12 48  1  0  0  0  0
 13 14  1  0  0  0  0
 13 34  1  0  0  0  0
 13 35  1  0  0  0  0
 14 15  1  0  0  0  0
 14 36  1  0  0  0  0
 14 37  1  0  0  0  0
 15 16  1  0  0  0  0
 16 17  1  0  0  0  0
 16 18  1  0  0  0  0
 16 38  1  0  0  0  0
 17 39  1  0  0  0  0
 17 40  1  0  0  0  0
 17 41  1  0  0  0  0
 18 42  1  0  0  0  0
 18 43  1  0  0  0  0
 19 20  1  0  0  0  0
 20 21  2  0  0  0  0
 20 44  1  0  0  0  0
 21 22  1  0  0  0  0
 22 45  1  0  0  0  0
 22 46  1  0  0  0  0
 22 47  1  0  0  0  0
M  CHG  1   5   1
M  CHG  1  12   1
M  END
> <s_m_source_file>
AV-unprocessed.smi

> <i_m_source_file_index>
1554

> <i_lp_mmshare_version>
43012

> <i_f3d_flags>
0

> <s_epik_input>
W0NIM11jKFtjSF0xKWMoW0NIM10pW2NIXWMoYzEyKW4oW2NIXW4yKVtDSDJdW0NASF0oW09IXSlbQ0gyXU4zW0NIMl1bQ0gyXU9bQ0BASF0oW0NIM10pW0NIMl0z

> <s_epik_cmdline>
J2VwaWtfcHl0aG9uJywgJy1waCcsICc3LjAnLCAnLXRuJywgJzgnLCAnLW1hJywgJzIwMCcsICctbWV0YWxfYmluZGluZycsICctaW1hZScsICc8aW5maWxlLm1hZT4nLCAnLW9tYWUnLCAnPG91dGZpbGUubWFlPic=

> <r_epik_Ionization_Penalty>
1.8848

> <r_epik_Ionization_Penalty_Charging>
1.88479

> <r_epik_Ionization_Penalty_Neutral>
1.42224e-05

> <r_epik_State_Penalty>
1.94551

> <r_epik_Charging_Adjusted_Penalty>
3.8303

> <i_epik_Tot_Q>
2

> <i_epik_Tot_abs_Q>
2

> <r_epik_Metal_State_Penalty>
5.95849

> <b_epik_Metal_Only>
0

> <s_lp_Force_Field>
OPLS_2005

> <r_lp_Energy>
31.3767

> <b_lp_Chiralities_Consistent>
1

> <s_lp_Variant>
AV-unprocessed.smi:1554-22

> <Gold.Version>
5.8.1

> <Gold.Id.Protein>
6NUR|6NUR_protein|mol2

> <Gold.PLP.Fitness>
57.8497

> <Gold.PLP.PLP>
-41.5453

> <Gold.PLP.part.hbond>
-4.0000

> <Gold.PLP.part.metal>
0.0000

> <Gold.PLP.part.buried>
-3.2296

> <Gold.PLP.part.nonpolar>
-34.3109

> <Gold.PLP.part.repulsive>
0.1951

> <Gold.PLP.ligand.clash>
0.0000

> <Gold.PLP.ligand.torsion>
0.8608

> <Gold.PLP.Chemscore.Hbond>
6.0000

> <Gold.PLP.Chemscore.CHOScore>
0.0000

> <Gold.PLP.Chemscore.Metal>
0.0000

> <Gold.Chemscore.Hbonds>
donor molecule, donor type, donor heavy atom, donor atom, acceptor molecule, acceptor atom, score
      L1  H     5    49       P1  8028  2.00
      L1  H    10    31       P1  7949  1.00
      L1  H    12    48       P1  7948  2.00
      P1  H 10752 10764       L1    10  0.79

> <Gold.PLP.Chemscore.Internal.Correction>
0.0260

> <Gold.Rescore>
     Score         DG    S(hbond)    S(metal)    S(lipo)     H(rot)  DE(clash)    DE(int)     intcor
     22.80     -23.78       3.44        0.00     104.46       2.11       0.05       0.93       ----

> <Gold.Chemscore.Fitness>
22.8009

> <Gold.Chemscore.DG>
-23.7756

> <Gold.Chemscore.ZeroCoef>
-5.4800

> <Gold.Chemscore.Hbond>
3.4375

> <Gold.Chemscore.Metal>
0.0000

> <Gold.Chemscore.Lipo>
104.4590

> <Gold.Chemscore.Internal_Hbond>
0.0000

> <Gold.Chemscore.DEClash>
0.0492

> <Gold.Chemscore.DEInternal>
0.9255

> <Gold.Chemscore.Rot>
2.1122

> <Gold.Chemscore.Internal.Correction>
   9.000000E+99

> <Gold.Chemscore.Hbonds>
donor molecule, donor type, donor heavy atom, donor atom, acceptor molecule, acceptor atom, score
      L1  H     5    49       P1  8028  0.99
      L1  H    10    31       P1  7949  0.67
      L1  H    12    48       P1  7948  1.00
      P1  H 10752 10764       L1    10  0.18

> <Gold.Chemscore.Hbond.Weighted>
-11.4812

> <Gold.Chemscore.Metal.Weighted>
-0.0000

> <Gold.Chemscore.Lipo.Weighted>
-12.2217

> <Gold.Chemscore.Internal_Hbond.Weighted>
0.0000

> <Gold.Chemscore.DEClash.Weighted>
0.0492

> <Gold.Chemscore.DEInternal.Weighted>
0.9255

> <Gold.Chemscore.Rot.Weighted>
5.4073

> <Gold.Chemscore.Internal.Correction.Weighted>
   9.000000E+99

> <Gold.Protein.RotatedTorsions>
[ 6907 6896 6895 6894 ] final -145.28 input  -60.11 | X-H torsion
[ 7974 7965 7964 7962 ] final   -7.70 input  175.53 | X-H torsion
[ 8008 7997 7996 7995 ] final   -7.04 input   59.86 | X-H torsion
[ 10167 10162 10161 10158 ] final  -83.80 input  -65.29 | X-H torsion
[ 10718 10713 10712 10709 ] final -137.42 input   66.30 | X-H torsion
[ 10763 10752 10751 10750 ] final  -76.80 input  -60.55 | X-H torsion
[ 11005 11000 10999 10996 ] final  -20.04 input  -57.11 | X-H torsion

> <Gold.Protein.ActiveResidues>
 VAL166  LYS551  ARG553  GLY616  TRP617  ASP618  TYR619  PRO620  LYS621  CYS622 
 ASP623  PHE694  ASN695  SER759  ASP760  ASP761  ALA762  ILE779  LEU786  VAL792 
 PHE793  MET794  SER795  GLU796  ALA797  LYS798  CYS799  TRP800  GLU811  SER814 

> <Gold.Protein.RotatedAtoms>
  151.1256  133.5073  159.2600 H   0  0  0  0  0  0  0  0  0  0  0  0  # atno 6907 bound_to 6896
  151.1813  135.0362  159.8803 H   0  0  0  0  0  0  0  0  0  0  0  0  # atno 6908 bound_to 6896
  152.5458  134.1108  159.8411 H   0  0  0  0  0  0  0  0  0  0  0  0  # atno 6909 bound_to 6896
  146.2300  140.2358  142.8341 H   0  0  0  0  0  0  0  0  0  0  0  0  # atno 7974 bound_to 7965
  154.5878  140.2417  155.7963 H   0  0  0  0  0  0  0  0  0  0  0  0  # atno 8008 bound_to 7997
  156.2225  140.2993  155.9942 H   0  0  0  0  0  0  0  0  0  0  0  0  # atno 8009 bound_to 7997
  155.2428  140.0407  157.2967 H   0  0  0  0  0  0  0  0  0  0  0  0  # atno 8010 bound_to 7997
  140.4193  143.2591  151.8912 H   0  0  0  0  0  0  0  0  0  0  0  0  # atno 10167 bound_to 10162
  156.2879  130.7358  151.1375 H   0  0  0  0  0  0  0  0  0  0  0  0  # atno 10718 bound_to 10713
  154.5046  135.5785  153.6557 H   0  0  0  0  0  0  0  0  0  0  0  0  # atno 10763 bound_to 10752
  152.9885  135.6144  154.2958 H   0  0  0  0  0  0  0  0  0  0  0  0  # atno 10764 bound_to 10752
  154.2868  135.2849  155.2652 H   0  0  0  0  0  0  0  0  0  0  0  0  # atno 10765 bound_to 10752
  140.8425  133.7916  155.9876 H   0  0  0  0  0  0  0  0  0  0  0  0  # atno 11005 bound_to 11000
  144.9523  140.8190  143.5564 LP  0  0  0  0  0  0  0  0  0  0  0  0  # atno 17320 bound_to 7965
  145.2320  139.2111  143.5038 LP  0  0  0  0  0  0  0  0  0  0  0  0  # atno 17321 bound_to 7965
  139.4782  144.5454  151.8465 LP  0  0  0  0  0  0  0  0  0  0  0  0  # atno 17342 bound_to 10162
  140.4552  144.1800  150.5901 LP  0  0  0  0  0  0  0  0  0  0  0  0  # atno 17343 bound_to 10162
  157.7334  131.0591  150.5579 LP  0  0  0  0  0  0  0  0  0  0  0  0  # atno 17370 bound_to 10713
  156.5692  130.4275  149.6027 LP  0  0  0  0  0  0  0  0  0  0  0  0  # atno 17371 bound_to 10713
  140.8879  134.2531  157.5110 LP  0  0  0  0  0  0  0  0  0  0  0  0  # atno 17394 bound_to 11000
  139.8703  134.9647  156.4505 LP  0  0  0  0  0  0  0  0  0  0  0  0  # atno 17395 bound_to 11000

$$$$
