AV-unprocessed.smi:2888|AV-procd|sdf|11100|dock7
  -GOLD-   2272015573D 1   1.00000     0.00000
 Structure written by MMmdl.
 33 35  0  0  0  0  0  0  0  0  1 V2000
  153.9785  141.4378  161.8014 C   0  0  0  0  0  0  0  0  0  0  0  0
  153.2316  141.7916  160.5331 C   0  0  0  0  0  0  0  0  0  0  0  0
  153.1178  143.1258  160.0898 C   0  0  0  0  0  0  0  0  0  0  0  0
  152.3967  143.3221  158.8933 C   0  0  0  0  0  0  0  0  0  0  0  0
  152.2017  144.7027  158.3037 C   0  0  0  0  0  0  0  0  0  0  0  0
  151.8497  142.2896  158.2136 N   0  0  0  0  0  0  0  0  0  0  0  0
  152.0225  141.0672  158.7230 C   0  0  0  0  0  0  0  0  0  0  0  0
  151.4576  140.0350  157.9969 N   0  0  0  0  0  0  0  0  0  0  0  0
  150.3730  140.2019  157.0377 C   0  0  2  0  0  0  0  0  0  0  0  0
  149.9660  138.8874  156.3599 C   0  0  0  0  0  0  0  0  0  0  0  0
  150.1257  139.2348  154.8748 C   0  0  1  0  0  0  0  0  0  0  0  0
  149.0742  140.2461  154.3977 C   0  0  0  0  0  0  0  0  0  0  0  0
  149.5689  141.5396  155.0446 C   0  0  0  0  0  0  0  0  0  0  0  0
  150.7956  141.0526  155.8281 C   0  0  2  0  0  0  0  0  0  0  0  0
  151.2758  140.0597  154.9355 O   0  0  0  0  0  0  0  0  0  0  0  0
  152.6839  140.7648  159.8470 N   0  0  0  0  0  0  0  0  0  0  0  0
  154.3131  142.3341  162.3245 H   0  0  0  0  0  0  0  0  0  0  0  0
  154.8539  140.8316  161.5673 H   0  0  0  0  0  0  0  0  0  0  0  0
  153.3362  140.8703  162.4754 H   0  0  0  0  0  0  0  0  0  0  0  0
  153.5578  143.9485  160.6341 H   0  0  0  0  0  0  0  0  0  0  0  0
  152.5771  145.4743  158.9762 H   0  0  0  0  0  0  0  0  0  0  0  0
  151.1435  144.8945  158.1237 H   0  0  0  0  0  0  0  0  0  0  0  0
  152.7333  144.7876  157.3558 H   0  0  0  0  0  0  0  0  0  0  0  0
  151.7032  139.0950  158.2714 H   0  0  0  0  0  0  0  0  0  0  0  0
  149.5256  140.6687  157.5417 H   0  0  0  0  0  0  0  0  0  0  0  0
  150.6379  138.0704  156.6280 H   0  0  0  0  0  0  0  0  0  0  0  0
  148.9495  138.5826  156.6111 H   0  0  0  0  0  0  0  0  0  0  0  0
  150.2310  138.3646  154.2264 H   0  0  0  0  0  0  0  0  0  0  0  0
  149.0824  140.3347  153.3107 H   0  0  0  0  0  0  0  0  0  0  0  0
  148.0664  139.9725  154.7116 H   0  0  0  0  0  0  0  0  0  0  0  0
  149.8610  142.2609  154.2806 H   0  0  0  0  0  0  0  0  0  0  0  0
  148.8210  142.0064  155.6863 H   0  0  0  0  0  0  0  0  0  0  0  0
  151.5098  141.8448  156.0566 H   0  0  0  0  0  0  0  0  0  0  0  0
  1  2  1  0  0  0  0
  1 17  1  0  0  0  0
  1 18  1  0  0  0  0
  1 19  1  0  0  0  0
  2 16  1  0  0  0  0
  2  3  2  0  0  0  0
  3  4  1  0  0  0  0
  3 20  1  0  0  0  0
  4  5  1  0  0  0  0
  4  6  2  0  0  0  0
  5 21  1  0  0  0  0
  5 22  1  0  0  0  0
  5 23  1  0  0  0  0
  6  7  1  0  0  0  0
  7  8  1  0  0  0  0
  7 16  2  0  0  0  0
  8  9  1  0  0  0  0
  8 24  1  0  0  0  0
  9 14  1  0  0  0  0
  9 10  1  0  0  0  0
  9 25  1  0  0  0  0
 10 11  1  0  0  0  0
 10 26  1  0  0  0  0
 10 27  1  0  0  0  0
 11 15  1  0  0  0  0
 11 12  1  0  0  0  0
 11 28  1  0  0  0  0
 12 13  1  0  0  0  0
 12 29  1  0  0  0  0
 12 30  1  0  0  0  0
 13 14  1  0  0  0  0
 13 31  1  0  0  0  0
 13 32  1  0  0  0  0
 14 15  1  0  0  0  0
 14 33  1  0  0  0  0
M  END
> <s_m_source_file>
AV-unprocessed.smi

> <i_m_source_file_index>
2888

> <i_lp_mmshare_version>
43012

> <i_f3d_flags>
0

> <s_epik_input>
W0NIM11jMVtjSF1jKFtDSDNdKW5jKG4xKVtOSF1bQ0BIXShbQ0gyXVtDQEBIXTIzKVtDQEBIXShPMylbQ0gyXVtDSDJdMg==

> <s_epik_cmdline>
J2VwaWtfcHl0aG9uJywgJy1waCcsICc3LjAnLCAnLXRuJywgJzgnLCAnLW1hJywgJzIwMCcsICctbWV0YWxfYmluZGluZycsICctaW1hZScsICc8aW5maWxlLm1hZT4nLCAnLW9tYWUnLCAnPG91dGZpbGUubWFlPic=

> <r_lp_tautomer_probability>
1

> <r_epik_Ionization_Penalty>
0.00890508

> <r_epik_Ionization_Penalty_Charging>
0

> <r_epik_Ionization_Penalty_Neutral>
0.00890508

> <r_epik_State_Penalty>
0.0067342

> <r_epik_Charging_Adjusted_Penalty>
0.0067342

> <i_epik_Tot_Q>
0

> <i_epik_Tot_abs_Q>
0

> <r_epik_Metal_State_Penalty>
0.00663442

> <b_epik_Metal_Only>
0

> <s_lp_Force_Field>
OPLS_2005

> <r_lp_Energy>
31.5378

> <b_lp_Chiralities_Consistent>
1

> <s_lp_Variant>
AV-unprocessed.smi:2888-1

> <Gold.Version>
5.8.1

> <Gold.Id.Protein>
6NUR|6NUR_protein|mol2

> <Gold.PLP.Fitness>
39.2286

> <Gold.PLP.PLP>
-36.4288

> <Gold.PLP.part.hbond>
-1.0000

> <Gold.PLP.part.metal>
0.0000

> <Gold.PLP.part.buried>
-3.9995

> <Gold.PLP.part.nonpolar>
-32.1269

> <Gold.PLP.part.repulsive>
0.1571

> <Gold.PLP.ligand.clash>
0.0000

> <Gold.PLP.ligand.torsion>
0.1095

> <Gold.PLP.Chemscore.Hbond>
1.0000

> <Gold.PLP.Chemscore.CHOScore>
0.0000

> <Gold.PLP.Chemscore.Metal>
0.0000

> <Gold.Chemscore.Hbonds>
donor molecule, donor type, donor heavy atom, donor atom, acceptor molecule, acceptor atom, score
      P1  H  7989  7998       L1    15  1.00

> <Gold.PLP.Chemscore.Internal.Correction>
0.0187

> <Gold.Rescore>
     Score         DG    S(hbond)    S(metal)    S(lipo)     H(rot)  DE(clash)    DE(int)     intcor
     15.64     -17.16       0.96        0.00      94.35       1.00       0.03       1.49       ----

> <Gold.Chemscore.Fitness>
15.6406

> <Gold.Chemscore.DG>
-17.1566

> <Gold.Chemscore.ZeroCoef>
-5.4800

> <Gold.Chemscore.Hbond>
0.9575

> <Gold.Chemscore.Metal>
0.0000

> <Gold.Chemscore.Lipo>
94.3477

> <Gold.Chemscore.Internal_Hbond>
0.0000

> <Gold.Chemscore.DEClash>
0.0285

> <Gold.Chemscore.DEInternal>
1.4875

> <Gold.Chemscore.Rot>
1.0000

> <Gold.Chemscore.Internal.Correction>
   9.000000E+99

> <Gold.Chemscore.Hbonds>
donor molecule, donor type, donor heavy atom, donor atom, acceptor molecule, acceptor atom, score
      P1  H  7989  7998       L1    15  0.50

> <Gold.Chemscore.Hbond.Weighted>
-3.1979

> <Gold.Chemscore.Metal.Weighted>
-0.0000

> <Gold.Chemscore.Lipo.Weighted>
-11.0387

> <Gold.Chemscore.Internal_Hbond.Weighted>
0.0000

> <Gold.Chemscore.DEClash.Weighted>
0.0285

> <Gold.Chemscore.DEInternal.Weighted>
1.4875

> <Gold.Chemscore.Rot.Weighted>
2.5600

> <Gold.Chemscore.Internal.Correction.Weighted>
   9.000000E+99

> <Gold.Protein.RotatedTorsions>
[ 6907 6896 6895 6894 ] final    7.53 input  -60.11 | X-H torsion
[ 7974 7965 7964 7962 ] final   -9.97 input  175.53 | X-H torsion
[ 8008 7997 7996 7995 ] final -144.29 input   59.86 | X-H torsion
[ 10167 10162 10161 10158 ] final  -23.49 input  -65.29 | X-H torsion
[ 10718 10713 10712 10709 ] final -155.13 input   66.30 | X-H torsion
[ 10763 10752 10751 10750 ] final   -7.25 input  -60.55 | X-H torsion
[ 11005 11000 10999 10996 ] final  -52.62 input  -57.11 | X-H torsion

> <Gold.Protein.ActiveResidues>
 VAL166  LYS551  ARG553  GLY616  TRP617  ASP618  TYR619  PRO620  LYS621  CYS622 
 ASP623  PHE694  ASN695  SER759  ASP760  ASP761  ALA762  ILE779  LEU786  VAL792 
 PHE793  MET794  SER795  GLU796  ALA797  LYS798  CYS799  TRP800  GLU811  SER814 

> <Gold.Protein.RotatedAtoms>
  151.6914  135.0946  160.0234 H   0  0  0  0  0  0  0  0  0  0  0  0  # atno 6907 bound_to 6896
  152.3776  133.6498  159.6144 H   0  0  0  0  0  0  0  0  0  0  0  0  # atno 6908 bound_to 6896
  150.7721  133.9084  159.3403 H   0  0  0  0  0  0  0  0  0  0  0  0  # atno 6909 bound_to 6896
  146.2235  140.2694  142.8356 H   0  0  0  0  0  0  0  0  0  0  0  0  # atno 7974 bound_to 7965
  155.5246  140.0594  157.2900 H   0  0  0  0  0  0  0  0  0  0  0  0  # atno 8008 bound_to 7997
  154.4506  140.1946  156.0478 H   0  0  0  0  0  0  0  0  0  0  0  0  # atno 8009 bound_to 7997
  156.0695  140.3262  155.7562 H   0  0  0  0  0  0  0  0  0  0  0  0  # atno 8010 bound_to 7997
  140.7288  143.4438  151.0617 H   0  0  0  0  0  0  0  0  0  0  0  0  # atno 10167 bound_to 10162
  156.5087  130.8425  151.2638 H   0  0  0  0  0  0  0  0  0  0  0  0  # atno 10718 bound_to 10713
  153.4238  135.7010  153.6276 H   0  0  0  0  0  0  0  0  0  0  0  0  # atno 10763 bound_to 10752
  153.4720  135.3712  155.2396 H   0  0  0  0  0  0  0  0  0  0  0  0  # atno 10764 bound_to 10752
  154.8723  135.4045  154.3610 H   0  0  0  0  0  0  0  0  0  0  0  0  # atno 10765 bound_to 10752
  141.0934  133.6629  156.4051 H   0  0  0  0  0  0  0  0  0  0  0  0  # atno 11005 bound_to 11000
  144.9279  140.7942  143.5707 LP  0  0  0  0  0  0  0  0  0  0  0  0  # atno 17320 bound_to 7965
  145.2636  139.1982  143.4879 LP  0  0  0  0  0  0  0  0  0  0  0  0  # atno 17321 bound_to 7965
  139.8108  143.7954  152.3171 LP  0  0  0  0  0  0  0  0  0  0  0  0  # atno 17342 bound_to 10162
  139.8003  144.7377  150.9834 LP  0  0  0  0  0  0  0  0  0  0  0  0  # atno 17343 bound_to 10162
  157.7453  130.9957  150.2753 LP  0  0  0  0  0  0  0  0  0  0  0  0  # atno 17370 bound_to 10713
  156.3262  130.3793  149.7531 LP  0  0  0  0  0  0  0  0  0  0  0  0  # atno 17371 bound_to 10713
  140.5199  134.6315  157.5314 LP  0  0  0  0  0  0  0  0  0  0  0  0  # atno 17394 bound_to 11000
  139.9764  134.7208  155.9941 LP  0  0  0  0  0  0  0  0  0  0  0  0  # atno 17395 bound_to 11000

$$$$
