AV-unprocessed.smi:224|AV-procd|sdf|1708|dock9
  -GOLD-   2262020173D 1   1.00000     0.00000
 Structure written by MMmdl.
 56 59  0  0  0  0  0  0  0  0  2 V2000
  146.7819  133.1385  150.6628 C   0  0  0  0  0  0  0  0  0  0  0  0
  145.2689  133.2061  150.4172 C   0  0  1  0  0  0  0  0  0  0  0  0
  145.0000  132.6241  149.1576 O   0  0  0  0  0  0  0  0  0  0  0  0
  144.4694  132.4547  151.4981 C   0  0  0  0  0  0  0  0  0  0  0  0
  144.4295  133.2138  152.7798 N   0  3  2  0  0  0  0  0  0  0  0  0
  143.7485  134.5271  152.5984 C   0  0  0  0  0  0  0  0  0  0  0  0
  143.6407  135.3098  153.9133 C   0  0  0  0  0  0  0  0  0  0  0  0
  144.9605  135.4770  154.5047 N   0  0  0  0  0  0  0  0  0  0  0  0
  145.6761  136.5575  154.0928 C   0  0  0  0  0  0  0  0  0  0  0  0
  145.3326  137.1987  152.9437 N   0  0  0  0  0  0  0  0  0  0  0  0
  146.0186  138.2692  152.5335 C   0  0  0  0  0  0  0  0  0  0  0  0
  147.0698  138.8553  153.1079 N   0  0  0  0  0  0  0  0  0  0  0  0
  147.4315  138.2102  154.2533 C   0  0  0  0  0  0  0  0  0  0  0  0
  146.7942  137.0666  154.8135 C   0  0  0  0  0  0  0  0  0  0  0  0
  147.4486  136.6878  155.9799 N   0  0  0  0  0  0  0  0  0  0  0  0
  148.4110  137.5603  156.1054 C   0  0  0  0  0  0  0  0  0  0  0  0
  148.4784  138.5072  155.1087 N   0  0  0  0  0  0  0  0  0  0  0  0
  149.4494  139.5852  154.9980 C   0  0  0  0  0  0  0  0  0  0  0  0
  148.8132  140.9930  155.0656 C   0  0  1  0  0  0  0  0  0  0  0  0
  149.8420  141.9559  155.2194 O   0  0  0  0  0  0  0  0  0  0  0  0
  147.9823  141.3625  153.8401 C   0  0  0  0  0  0  0  0  0  0  0  0
  146.9056  142.2680  154.4210 C   0  0  0  0  0  0  0  0  0  0  0  0
  146.6011  141.6340  155.6512 O   0  0  0  0  0  0  0  0  0  0  0  0
  147.8137  141.1594  156.2280 C   0  0  0  0  0  0  0  0  0  0  0  0
  145.6477  134.2117  154.7448 C   0  0  0  0  0  0  0  0  0  0  0  0
  145.7518  133.3311  153.4741 C   0  0  1  0  0  0  0  0  0  0  0  0
  146.3229  131.9612  153.8955 C   0  0  0  0  0  0  0  0  0  0  0  0
  147.0434  133.5965  151.6170 H   0  0  0  0  0  0  0  0  0  0  0  0
  147.3311  133.6685  149.8837 H   0  0  0  0  0  0  0  0  0  0  0  0
  147.1388  132.1079  150.6797 H   0  0  0  0  0  0  0  0  0  0  0  0
  144.9701  134.2536  150.3801 H   0  0  0  0  0  0  0  0  0  0  0  0
  145.2985  133.2125  148.4804 H   0  0  0  0  0  0  0  0  0  0  0  0
  143.4760  132.2483  151.1069 H   0  0  0  0  0  0  0  0  0  0  0  0
  144.9078  131.4711  151.6746 H   0  0  0  0  0  0  0  0  0  0  0  0
  144.2997  135.1230  151.8687 H   0  0  0  0  0  0  0  0  0  0  0  0
  142.7493  134.3782  152.1898 H   0  0  0  0  0  0  0  0  0  0  0  0
  143.1493  136.2649  153.7331 H   0  0  0  0  0  0  0  0  0  0  0  0
  143.0088  134.7689  154.6185 H   0  0  0  0  0  0  0  0  0  0  0  0
  145.6770  138.7202  151.6134 H   0  0  0  0  0  0  0  0  0  0  0  0
  149.1090  137.5333  156.9297 H   0  0  0  0  0  0  0  0  0  0  0  0
  150.1838  139.4670  155.7958 H   0  0  0  0  0  0  0  0  0  0  0  0
  149.9947  139.4615  154.0612 H   0  0  0  0  0  0  0  0  0  0  0  0
  149.4459  142.8130  155.2605 H   0  0  0  0  0  0  0  0  0  0  0  0
  148.5577  141.8311  153.0405 H   0  0  0  0  0  0  0  0  0  0  0  0
  147.5024  140.4743  153.4278 H   0  0  0  0  0  0  0  0  0  0  0  0
  147.2923  143.2711  154.6070 H   0  0  0  0  0  0  0  0  0  0  0  0
  146.0276  142.3469  153.7794 H   0  0  0  0  0  0  0  0  0  0  0  0
  147.6167  140.2195  156.7445 H   0  0  0  0  0  0  0  0  0  0  0  0
  148.1663  141.8731  156.9744 H   0  0  0  0  0  0  0  0  0  0  0  0
  146.6348  134.3879  155.1750 H   0  0  0  0  0  0  0  0  0  0  0  0
  145.0829  133.6781  155.5105 H   0  0  0  0  0  0  0  0  0  0  0  0
  146.4498  133.7997  152.7793 H   0  0  0  0  0  0  0  0  0  0  0  0
  147.2156  132.0889  154.5087 H   0  0  0  0  0  0  0  0  0  0  0  0
  146.6236  131.3421  153.0525 H   0  0  0  0  0  0  0  0  0  0  0  0
  145.6002  131.3968  154.4858 H   0  0  0  0  0  0  0  0  0  0  0  0
  143.8480  132.6746  153.4055 H   0  0  0  0  0  0  0  0  0  0  0  0
  1  2  1  0  0  0  0
  1 28  1  0  0  0  0
  1 29  1  0  0  0  0
  1 30  1  0  0  0  0
  2  3  1  0  0  0  0
  2  4  1  0  0  0  0
  2 31  1  0  0  0  0
  3 32  1  0  0  0  0
  4  5  1  0  0  0  0
  4 33  1  0  0  0  0
  4 34  1  0  0  0  0
  5 26  1  0  0  0  0
  5  6  1  0  0  0  0
  5 56  1  0  0  0  0
  6  7  1  0  0  0  0
  6 35  1  0  0  0  0
  6 36  1  0  0  0  0
  7  8  1  0  0  0  0
  7 37  1  0  0  0  0
  7 38  1  0  0  0  0
  8  9  1  0  0  0  0
  8 25  1  0  0  0  0
  9 14  1  0  0  0  0
  9 10  2  0  0  0  0
 10 11  1  0  0  0  0
 11 12  2  0  0  0  0
 11 39  1  0  0  0  0
 12 13  1  0  0  0  0
 13 17  1  0  0  0  0
 13 14  2  0  0  0  0
 14 15  1  0  0  0  0
 15 16  2  0  0  0  0
 16 17  1  0  0  0  0
 16 40  1  0  0  0  0
 17 18  1  0  0  0  0
 18 19  1  0  0  0  0
 18 41  1  0  0  0  0
 18 42  1  0  0  0  0
 19 24  1  0  0  0  0
 19 20  1  0  0  0  0
 19 21  1  0  0  0  0
 20 43  1  0  0  0  0
 21 22  1  0  0  0  0
 21 44  1  0  0  0  0
 21 45  1  0  0  0  0
 22 23  1  0  0  0  0
 22 46  1  0  0  0  0
 22 47  1  0  0  0  0
 23 24  1  0  0  0  0
 24 48  1  0  0  0  0
 24 49  1  0  0  0  0
 25 26  1  0  0  0  0
 25 50  1  0  0  0  0
 25 51  1  0  0  0  0
 26 27  1  0  0  0  0
 26 52  1  0  0  0  0
 27 53  1  0  0  0  0
 27 54  1  0  0  0  0
 27 55  1  0  0  0  0
M  CHG  1   5   1
M  END
> <s_m_source_file>
AV-unprocessed.smi

> <i_m_source_file_index>
224

> <i_lp_mmshare_version>
43012

> <i_f3d_flags>
0

> <s_epik_input>
W0NIM11bQ0BIXShbT0hdKVtDSDJdTjFbQ0gyXVtDSDJdTihbQ0gyXVtDQEhdMVtDSDNdKWMobltjSF1uMiljKGMyMyluW2NIXW4zW0NIMl1bQ0BAXTQoW09IXSlbQ0gyXVtDSDJdT1tDSDJdNA==

> <s_epik_cmdline>
J2VwaWtfcHl0aG9uJywgJy1waCcsICc3LjAnLCAnLXRuJywgJzgnLCAnLW1hJywgJzIwMCcsICctbWV0YWxfYmluZGluZycsICctaW1hZScsICc8aW5maWxlLm1hZT4nLCAnLW9tYWUnLCAnPG91dGZpbGUubWFlPic=

> <r_lp_tautomer_probability>
1

> <r_epik_Ionization_Penalty>
0.00516958

> <r_epik_Ionization_Penalty_Charging>
0.00509693

> <r_epik_Ionization_Penalty_Neutral>
7.26542e-05

> <r_epik_State_Penalty>
-0

> <r_epik_Charging_Adjusted_Penalty>
0.00509693

> <i_epik_Tot_Q>
1

> <i_epik_Tot_abs_Q>
1

> <r_epik_Metal_State_Penalty>
-0

> <b_epik_Metal_Only>
0

> <s_lp_Force_Field>
OPLS_2005

> <r_lp_Energy>
48.4109

> <b_lp_Chiralities_Consistent>
1

> <s_lp_Variant>
AV-unprocessed.smi:224-2

> <Gold.Version>
5.8.1

> <Gold.Id.Protein>
6NUR|6NUR_protein|mol2

> <Gold.PLP.Fitness>
46.2031

> <Gold.PLP.PLP>
-30.2752

> <Gold.PLP.part.hbond>
-3.9117

> <Gold.PLP.part.metal>
0.0000

> <Gold.PLP.part.buried>
-4.4581

> <Gold.PLP.part.nonpolar>
-23.1323

> <Gold.PLP.part.repulsive>
0.6348

> <Gold.PLP.ligand.clash>
0.0000

> <Gold.PLP.ligand.torsion>
0.4795

> <Gold.PLP.Chemscore.Hbond>
4.0000

> <Gold.PLP.Chemscore.CHOScore>
1.4553

> <Gold.PLP.Chemscore.Metal>
0.0000

> <Gold.Chemscore.Hbonds>
donor molecule, donor type, donor heavy atom, donor atom, acceptor molecule, acceptor atom, score
      L1  H     3    32       P1  7921  0.95
      L1  H     5    56       P1 10957  2.00
      L1  H    20    43       P1  8028  1.00
      L1  C    11    39       P1 10171  0.97
      L1  C    11    39       P1 10175  0.19

> <Gold.PLP.Chemscore.Internal.Correction>
0.5210

> <Gold.Rescore>
     Score         DG    S(hbond)    S(metal)    S(lipo)     H(rot)  DE(clash)    DE(int)     intcor
     10.64     -12.71       2.55        0.00      62.63       3.36       0.14       1.92       ----

> <Gold.Chemscore.Fitness>
10.6428

> <Gold.Chemscore.DG>
-12.7054

> <Gold.Chemscore.ZeroCoef>
-5.4800

> <Gold.Chemscore.Hbond>
2.5456

> <Gold.Chemscore.Metal>
0.0000

> <Gold.Chemscore.Lipo>
62.6305

> <Gold.Chemscore.Internal_Hbond>
0.0000

> <Gold.Chemscore.DEClash>
0.1407

> <Gold.Chemscore.DEInternal>
1.9219

> <Gold.Chemscore.Rot>
3.3611

> <Gold.Chemscore.Internal.Correction>
   9.000000E+99

> <Gold.Chemscore.Hbonds>
donor molecule, donor type, donor heavy atom, donor atom, acceptor molecule, acceptor atom, score
      L1  H     3    32       P1  7921  0.21
      L1  H     5    56       P1 10957  0.42
      L1  H    20    43       P1  8028  0.94

> <Gold.Chemscore.Hbond.Weighted>
-8.5022

> <Gold.Chemscore.Metal.Weighted>
-0.0000

> <Gold.Chemscore.Lipo.Weighted>
-7.3278

> <Gold.Chemscore.Internal_Hbond.Weighted>
0.0000

> <Gold.Chemscore.DEClash.Weighted>
0.1407

> <Gold.Chemscore.DEInternal.Weighted>
1.9219

> <Gold.Chemscore.Rot.Weighted>
8.6045

> <Gold.Chemscore.Internal.Correction.Weighted>
   9.000000E+99

> <Gold.Protein.RotatedTorsions>
[ 6907 6896 6895 6894 ] final  -40.07 input  -60.11 | X-H torsion
[ 7974 7965 7964 7962 ] final -128.55 input  175.53 | X-H torsion
[ 8008 7997 7996 7995 ] final -151.12 input   59.86 | X-H torsion
[ 10167 10162 10161 10158 ] final  173.12 input  -65.29 | X-H torsion
[ 10718 10713 10712 10709 ] final  103.28 input   66.30 | X-H torsion
[ 10763 10752 10751 10750 ] final  157.11 input  -60.55 | X-H torsion
[ 11005 11000 10999 10996 ] final   10.76 input  -57.11 | X-H torsion

> <Gold.Protein.ActiveResidues>
 VAL166  LYS551  ARG553  GLY616  TRP617  ASP618  TYR619  PRO620  LYS621  CYS622 
 ASP623  PHE694  ASN695  SER759  ASP760  ASP761  ALA762  ILE779  LEU786  VAL792 
 PHE793  MET794  SER795  GLU796  ALA797  LYS798  CYS799  TRP800  GLU811  SER814 

> <Gold.Protein.RotatedAtoms>
  150.9828  134.9180  159.7853 H   0  0  0  0  0  0  0  0  0  0  0  0  # atno 6907 bound_to 6896
  152.5227  134.3387  159.9219 H   0  0  0  0  0  0  0  0  0  0  0  0  # atno 6908 bound_to 6896
  151.3394  133.3927  159.2704 H   0  0  0  0  0  0  0  0  0  0  0  0  # atno 6909 bound_to 6896
  144.9659  140.7496  143.4700 H   0  0  0  0  0  0  0  0  0  0  0  0  # atno 7974 bound_to 7965
  155.6343  140.0695  157.2639 H   0  0  0  0  0  0  0  0  0  0  0  0  # atno 8008 bound_to 7997
  154.4198  140.1762  156.1555 H   0  0  0  0  0  0  0  0  0  0  0  0  # atno 8009 bound_to 7997
  155.9907  140.3345  155.6754 H   0  0  0  0  0  0  0  0  0  0  0  0  # atno 8010 bound_to 7997
  139.5098  144.3297  152.0124 H   0  0  0  0  0  0  0  0  0  0  0  0  # atno 10167 bound_to 10162
  157.6777  131.0775  150.5531 H   0  0  0  0  0  0  0  0  0  0  0  0  # atno 10718 bound_to 10713
  154.1950  135.2793  155.3010 H   0  0  0  0  0  0  0  0  0  0  0  0  # atno 10763 bound_to 10752
  154.5899  135.5563  153.7272 H   0  0  0  0  0  0  0  0  0  0  0  0  # atno 10764 bound_to 10752
  153.0102  135.6366  154.2088 H   0  0  0  0  0  0  0  0  0  0  0  0  # atno 10765 bound_to 10752
  140.5109  134.0653  155.7818 H   0  0  0  0  0  0  0  0  0  0  0  0  # atno 11005 bound_to 11000
  145.2630  139.1985  143.4882 LP  0  0  0  0  0  0  0  0  0  0  0  0  # atno 17320 bound_to 7965
  146.3367  140.2563  142.8600 LP  0  0  0  0  0  0  0  0  0  0  0  0  # atno 17321 bound_to 7965
  140.2737  144.3936  150.6142 LP  0  0  0  0  0  0  0  0  0  0  0  0  # atno 17342 bound_to 10162
  140.6070  143.2168  151.6962 LP  0  0  0  0  0  0  0  0  0  0  0  0  # atno 17343 bound_to 10162
  156.5835  130.4310  149.5967 LP  0  0  0  0  0  0  0  0  0  0  0  0  # atno 17370 bound_to 10713
  156.2642  130.6980  151.1757 LP  0  0  0  0  0  0  0  0  0  0  0  0  # atno 17371 bound_to 10713
  141.1386  133.9178  157.2377 LP  0  0  0  0  0  0  0  0  0  0  0  0  # atno 17394 bound_to 11000
  139.9660  135.0142  156.9387 LP  0  0  0  0  0  0  0  0  0  0  0  0  # atno 17395 bound_to 11000

$$$$
