AV-unprocessed.smi:1947|AV-procd|sdf|7868|dock9
  -GOLD-   2272010 23D 1   1.00000     0.00000
 Structure written by MMmdl.
 39 40  0  0  0  0  0  0  0  0  1 V2000
  153.0513  140.7849  159.9505 C   0  0  0  0  0  0  0  0  0  0  0  0
  152.2686  142.0536  159.5748 C   0  0  1  0  0  0  0  0  0  0  0  0
  152.9632  143.3085  160.1404 C   0  0  0  0  0  0  0  0  0  0  0  0
  152.2030  144.5928  159.7779 C   0  0  0  0  0  0  0  0  0  0  0  0
  152.0227  144.7151  158.2587 C   0  0  0  0  0  0  0  0  0  0  0  0
  151.3234  143.4743  157.6843 C   0  0  0  0  0  0  0  0  0  0  0  0
  152.0774  142.1764  158.0459 C   0  0  2  0  0  0  0  0  0  0  0  0
  151.3197  141.0545  157.6117 O   0  0  0  0  0  0  0  0  0  0  0  0
  151.0724  141.0151  156.2138 C   0  0  0  0  0  0  0  0  0  0  0  0
  151.6514  139.7109  155.6472 C   0  0  0  0  0  0  0  0  0  0  0  0
  151.1185  138.5431  156.3403 N   0  0  0  0  0  0  0  0  0  0  0  0
  151.1363  137.2901  155.8650 C   0  0  0  0  0  0  0  0  0  0  0  0
  151.6455  136.9808  154.7881 O   0  0  0  0  0  0  0  0  0  0  0  0
  150.5262  136.4426  156.7090 N   0  0  0  0  0  0  0  0  0  0  0  0
  150.3274  135.0484  156.5514 C   0  0  0  0  0  0  0  0  0  0  0  0
  150.0963  134.3187  157.6491 N   0  0  0  0  0  0  0  0  0  0  0  0
  149.9195  132.9729  157.3518 N   0  0  0  0  0  0  0  0  0  0  0  0
  150.0248  132.7404  156.0400 C   0  0  0  0  0  0  0  0  0  0  0  0
  150.3507  134.1418  155.0357 S   0  0  0  0  0  0  0  0  0  0  0  0
  154.0444  140.7842  159.5004 H   0  0  0  0  0  0  0  0  0  0  0  0
  152.5345  139.8852  159.6160 H   0  0  0  0  0  0  0  0  0  0  0  0
  153.1755  140.7064  161.0307 H   0  0  0  0  0  0  0  0  0  0  0  0
  151.2818  141.9826  160.0350 H   0  0  0  0  0  0  0  0  0  0  0  0
  153.0479  143.2306  161.2249 H   0  0  0  0  0  0  0  0  0  0  0  0
  153.9821  143.3706  159.7559 H   0  0  0  0  0  0  0  0  0  0  0  0
  151.2269  144.5914  160.2649 H   0  0  0  0  0  0  0  0  0  0  0  0
  152.7385  145.4622  160.1602 H   0  0  0  0  0  0  0  0  0  0  0  0
  151.4452  145.6097  158.0237 H   0  0  0  0  0  0  0  0  0  0  0  0
  152.9960  144.8405  157.7826 H   0  0  0  0  0  0  0  0  0  0  0  0
  150.3043  143.4223  158.0695 H   0  0  0  0  0  0  0  0  0  0  0  0
  151.2371  143.5817  156.6035 H   0  0  0  0  0  0  0  0  0  0  0  0
  153.0607  142.1760  157.5711 H   0  0  0  0  0  0  0  0  0  0  0  0
  150.0062  141.0799  155.9965 H   0  0  0  0  0  0  0  0  0  0  0  0
  151.5510  141.8699  155.7344 H   0  0  0  0  0  0  0  0  0  0  0  0
  151.4423  139.6367  154.5789 H   0  0  0  0  0  0  0  0  0  0  0  0
  152.7366  139.7098  155.7525 H   0  0  0  0  0  0  0  0  0  0  0  0
  150.6770  138.7090  157.2328 H   0  0  0  0  0  0  0  0  0  0  0  0
  150.1514  136.8414  157.5572 H   0  0  0  0  0  0  0  0  0  0  0  0
  149.9102  131.7358  155.6611 H   0  0  0  0  0  0  0  0  0  0  0  0
  1  2  1  0  0  0  0
  1 20  1  0  0  0  0
  1 21  1  0  0  0  0
  1 22  1  0  0  0  0
  2  7  1  0  0  0  0
  2  3  1  0  0  0  0
  2 23  1  0  0  0  0
  3  4  1  0  0  0  0
  3 24  1  0  0  0  0
  3 25  1  0  0  0  0
  4  5  1  0  0  0  0
  4 26  1  0  0  0  0
  4 27  1  0  0  0  0
  5  6  1  0  0  0  0
  5 28  1  0  0  0  0
  5 29  1  0  0  0  0
  6  7  1  0  0  0  0
  6 30  1  0  0  0  0
  6 31  1  0  0  0  0
  7  8  1  0  0  0  0
  7 32  1  0  0  0  0
  8  9  1  0  0  0  0
  9 10  1  0  0  0  0
  9 33  1  0  0  0  0
  9 34  1  0  0  0  0
 10 11  1  0  0  0  0
 10 35  1  0  0  0  0
 10 36  1  0  0  0  0
 11 12  1  0  0  0  0
 11 37  1  0  0  0  0
 12 13  2  0  0  0  0
 12 14  1  0  0  0  0
 14 15  1  0  0  0  0
 14 38  1  0  0  0  0
 15 19  1  0  0  0  0
 15 16  2  0  0  0  0
 16 17  1  0  0  0  0
 17 18  2  0  0  0  0
 18 19  1  0  0  0  0
 18 39  1  0  0  0  0
M  END
> <s_m_source_file>
AV-unprocessed.smi

> <i_m_source_file_index>
1947

> <i_lp_mmshare_version>
43012

> <i_f3d_flags>
0

> <s_epik_input>
W0NIM11bQ0BASF0xW0NIMl1bQ0gyXVtDSDJdW0NIMl1bQ0BIXTFPW0NIMl1bQ0gyXVtOSF1DKD1PKVtOSF1jMm5uW2NIXXMy

> <s_epik_cmdline>
J2VwaWtfcHl0aG9uJywgJy1waCcsICc3LjAnLCAnLXRuJywgJzgnLCAnLW1hJywgJzIwMCcsICctbWV0YWxfYmluZGluZycsICctaW1hZScsICc8aW5maWxlLm1hZT4nLCAnLW9tYWUnLCAnPG91dGZpbGUubWFlPic=

> <r_lp_tautomer_probability>
1

> <r_epik_Ionization_Penalty>
0.00220897

> <r_epik_Ionization_Penalty_Charging>
0

> <r_epik_Ionization_Penalty_Neutral>
0.00220897

> <r_epik_State_Penalty>
-0

> <r_epik_Charging_Adjusted_Penalty>
0

> <i_epik_Tot_Q>
0

> <i_epik_Tot_abs_Q>
0

> <r_epik_Metal_State_Penalty>
0.345002

> <b_epik_Metal_Only>
0

> <s_lp_Force_Field>
OPLS_2005

> <r_lp_Energy>
7.32574

> <b_lp_Chiralities_Consistent>
1

> <s_lp_Variant>
AV-unprocessed.smi:1947-4

> <Gold.Version>
5.8.1

> <Gold.Id.Protein>
6NUR|6NUR_protein|mol2

> <Gold.PLP.Fitness>
41.2769

> <Gold.PLP.PLP>
-36.9763

> <Gold.PLP.part.hbond>
-2.5391

> <Gold.PLP.part.metal>
0.0000

> <Gold.PLP.part.buried>
-5.5001

> <Gold.PLP.part.nonpolar>
-29.5285

> <Gold.PLP.part.repulsive>
0.2658

> <Gold.PLP.ligand.clash>
0.0000

> <Gold.PLP.ligand.torsion>
0.6111

> <Gold.PLP.Chemscore.Hbond>
1.8320

> <Gold.PLP.Chemscore.CHOScore>
0.0000

> <Gold.PLP.Chemscore.Metal>
0.0000

> <Gold.Chemscore.Hbonds>
donor molecule, donor type, donor heavy atom, donor atom, acceptor molecule, acceptor atom, score
      P1  H  6896  6907       L1    16  0.82
      P1  H 10752 10764       L1    13  1.00

> <Gold.PLP.Chemscore.Internal.Correction>
0.0268

> <Gold.Rescore>
     Score         DG    S(hbond)    S(metal)    S(lipo)     H(rot)  DE(clash)    DE(int)     intcor
     17.29     -17.89       1.80        0.00      97.11       1.94       0.01       0.60       ----

> <Gold.Chemscore.Fitness>
17.2878

> <Gold.Chemscore.DG>
-17.8937

> <Gold.Chemscore.ZeroCoef>
-5.4800

> <Gold.Chemscore.Hbond>
1.8006

> <Gold.Chemscore.Metal>
0.0000

> <Gold.Chemscore.Lipo>
97.1141

> <Gold.Chemscore.Internal_Hbond>
0.0000

> <Gold.Chemscore.DEClash>
0.0060

> <Gold.Chemscore.DEInternal>
0.6000

> <Gold.Chemscore.Rot>
1.9385

> <Gold.Chemscore.Internal.Correction>
   9.000000E+99

> <Gold.Chemscore.Hbonds>
donor molecule, donor type, donor heavy atom, donor atom, acceptor molecule, acceptor atom, score
      P1  H  6896  6907       L1    16  0.21
      P1  H 10752 10764       L1    13  0.97

> <Gold.Chemscore.Hbond.Weighted>
-6.0139

> <Gold.Chemscore.Metal.Weighted>
-0.0000

> <Gold.Chemscore.Lipo.Weighted>
-11.3624

> <Gold.Chemscore.Internal_Hbond.Weighted>
0.0000

> <Gold.Chemscore.DEClash.Weighted>
0.0060

> <Gold.Chemscore.DEInternal.Weighted>
0.6000

> <Gold.Chemscore.Rot.Weighted>
4.9625

> <Gold.Chemscore.Internal.Correction.Weighted>
   9.000000E+99

> <Gold.Protein.RotatedTorsions>
[ 6907 6896 6895 6894 ] final  -93.46 input  -60.11 | X-H torsion
[ 7974 7965 7964 7962 ] final   15.55 input  175.53 | X-H torsion
[ 8008 7997 7996 7995 ] final   27.87 input   59.86 | X-H torsion
[ 10167 10162 10161 10158 ] final  125.97 input  -65.29 | X-H torsion
[ 10718 10713 10712 10709 ] final  -85.83 input   66.30 | X-H torsion
[ 10763 10752 10751 10750 ] final  -79.09 input  -60.55 | X-H torsion
[ 11005 11000 10999 10996 ] final   32.19 input  -57.11 | X-H torsion

> <Gold.Protein.ActiveResidues>
 VAL166  LYS551  ARG553  GLY616  TRP617  ASP618  TYR619  PRO620  LYS621  CYS622 
 ASP623  PHE694  ASN695  SER759  ASP760  ASP761  ALA762  ILE779  LEU786  VAL792 
 PHE793  MET794  SER795  GLU796  ALA797  LYS798  CYS799  TRP800  GLU811  SER814 

> <Gold.Protein.RotatedAtoms>
  150.6923  134.1963  159.4304 H   0  0  0  0  0  0  0  0  0  0  0  0  # atno 6907 bound_to 6896
  151.9932  134.9966  160.0571 H   0  0  0  0  0  0  0  0  0  0  0  0  # atno 6908 bound_to 6896
  152.1648  133.4570  159.4916 H   0  0  0  0  0  0  0  0  0  0  0  0  # atno 6909 bound_to 6896
  146.2275  139.8878  142.8560 H   0  0  0  0  0  0  0  0  0  0  0  0  # atno 7974 bound_to 7965
  155.0498  140.3178  155.4696 H   0  0  0  0  0  0  0  0  0  0  0  0  # atno 8008 bound_to 7997
  156.2837  140.2148  156.5567 H   0  0  0  0  0  0  0  0  0  0  0  0  # atno 8009 bound_to 7997
  154.7220  140.0488  157.0636 H   0  0  0  0  0  0  0  0  0  0  0  0  # atno 8010 bound_to 7997
  139.5656  144.6909  151.3920 H   0  0  0  0  0  0  0  0  0  0  0  0  # atno 10167 bound_to 10162
  155.9994  130.4744  150.4621 H   0  0  0  0  0  0  0  0  0  0  0  0  # atno 10718 bound_to 10713
  154.5342  135.5707  153.6785 H   0  0  0  0  0  0  0  0  0  0  0  0  # atno 10763 bound_to 10752
  152.9947  135.6212  154.2588 H   0  0  0  0  0  0  0  0  0  0  0  0  # atno 10764 bound_to 10752
  154.2516  135.2859  155.2794 H   0  0  0  0  0  0  0  0  0  0  0  0  # atno 10765 bound_to 10752
  140.2760  134.3027  155.7814 H   0  0  0  0  0  0  0  0  0  0  0  0  # atno 11005 bound_to 11000
  145.2448  141.0022  143.3915 LP  0  0  0  0  0  0  0  0  0  0  0  0  # atno 17320 bound_to 7965
  144.9422  139.4175  143.6443 LP  0  0  0  0  0  0  0  0  0  0  0  0  # atno 17321 bound_to 7965
  140.6939  143.7795  150.7297 LP  0  0  0  0  0  0  0  0  0  0  0  0  # atno 17342 bound_to 10162
  140.1286  143.4547  152.2269 LP  0  0  0  0  0  0  0  0  0  0  0  0  # atno 17343 bound_to 10162
  157.2645  131.0574  151.2299 LP  0  0  0  0  0  0  0  0  0  0  0  0  # atno 17370 bound_to 10713
  157.3402  130.7029  149.6377 LP  0  0  0  0  0  0  0  0  0  0  0  0  # atno 17371 bound_to 10713
  141.2170  133.7496  156.9408 LP  0  0  0  0  0  0  0  0  0  0  0  0  # atno 17394 bound_to 11000
  140.1328  134.9345  157.2360 LP  0  0  0  0  0  0  0  0  0  0  0  0  # atno 17395 bound_to 11000

$$$$
