AV-unprocessed.smi:788|AV-procd|sdf|3733|dock4
  -GOLD-   22720 1163D 1   1.00000     0.00000
 Structure written by MMmdl.
 35 36  0  0  0  0  0  0  0  0  1 V2000
  152.2739  140.5979  158.1247 C   0  0  0  0  0  0  0  0  0  0  0  0
  152.2398  142.0293  158.6908 C   0  0  2  0  0  0  0  0  0  0  0  0
  152.9455  142.0827  160.0592 C   0  0  0  0  0  0  0  0  0  0  0  0
  152.9513  143.5035  160.6373 C   0  0  0  0  0  0  0  0  0  0  0  0
  151.5241  144.0538  160.7517 C   0  0  0  0  0  0  0  0  0  0  0  0
  150.7952  144.0302  159.3946 C   0  0  2  0  0  0  0  0  0  0  0  0
  149.3761  144.6105  159.5376 C   0  0  0  0  0  0  0  0  0  0  0  0
  150.8015  142.6004  158.7933 C   0  0  1  0  0  0  0  0  0  0  0  0
  150.1779  142.6158  157.4692 N   0  0  0  0  0  0  0  0  0  0  0  0
  149.6421  141.5633  156.8277 C   0  0  0  0  0  0  0  0  0  0  0  0
  149.6168  140.4308  157.3060 O   0  0  0  0  0  0  0  0  0  0  0  0
  149.1312  141.8070  155.6019 N   0  0  0  0  0  0  0  0  0  0  0  0
  148.4979  140.9554  154.6505 C   0  0  0  0  0  0  0  0  0  0  0  0
  147.4811  141.3239  153.8538 N   0  0  0  0  0  0  0  0  0  0  0  0
  147.0563  140.2870  153.0340 N   0  0  0  0  0  0  0  0  0  0  0  0
  147.7621  139.1734  153.2480 C   0  0  0  0  0  0  0  0  0  0  0  0
  149.0127  139.2832  154.4737 S   0  0  0  0  0  0  0  0  0  0  0  0
  151.6826  139.9172  158.7374 H   0  0  0  0  0  0  0  0  0  0  0  0
  153.2939  140.2144  158.0915 H   0  0  0  0  0  0  0  0  0  0  0  0
  151.8832  140.5560  157.1080 H   0  0  0  0  0  0  0  0  0  0  0  0
  152.8057  142.6623  158.0052 H   0  0  0  0  0  0  0  0  0  0  0  0
  152.4478  141.4079  160.7571 H   0  0  0  0  0  0  0  0  0  0  0  0
  153.9719  141.7261  159.9650 H   0  0  0  0  0  0  0  0  0  0  0  0
  153.4287  143.5033  161.6175 H   0  0  0  0  0  0  0  0  0  0  0  0
  153.5493  144.1579  160.0015 H   0  0  0  0  0  0  0  0  0  0  0  0
  150.9651  143.4659  161.4810 H   0  0  0  0  0  0  0  0  0  0  0  0
  151.5593  145.0724  161.1395 H   0  0  0  0  0  0  0  0  0  0  0  0
  151.3451  144.6837  158.7153 H   0  0  0  0  0  0  0  0  0  0  0  0
  148.7523  143.9777  160.1697 H   0  0  0  0  0  0  0  0  0  0  0  0
  148.8804  144.7089  158.5717 H   0  0  0  0  0  0  0  0  0  0  0  0
  149.4031  145.6038  159.9859 H   0  0  0  0  0  0  0  0  0  0  0  0
  150.2341  141.9541  159.4657 H   0  0  0  0  0  0  0  0  0  0  0  0
  150.1523  143.5087  156.9973 H   0  0  0  0  0  0  0  0  0  0  0  0
  149.2124  142.7686  155.3050 H   0  0  0  0  0  0  0  0  0  0  0  0
  147.5433  138.2798  152.6823 H   0  0  0  0  0  0  0  0  0  0  0  0
  1  2  1  0  0  0  0
  1 18  1  0  0  0  0
  1 19  1  0  0  0  0
  1 20  1  0  0  0  0
  2  8  1  0  0  0  0
  2  3  1  0  0  0  0
  2 21  1  0  0  0  0
  3  4  1  0  0  0  0
  3 22  1  0  0  0  0
  3 23  1  0  0  0  0
  4  5  1  0  0  0  0
  4 24  1  0  0  0  0
  4 25  1  0  0  0  0
  5  6  1  0  0  0  0
  5 26  1  0  0  0  0
  5 27  1  0  0  0  0
  6  7  1  0  0  0  0
  6  8  1  0  0  0  0
  6 28  1  0  0  0  0
  7 29  1  0  0  0  0
  7 30  1  0  0  0  0
  7 31  1  0  0  0  0
  8  9  1  0  0  0  0
  8 32  1  0  0  0  0
  9 10  1  0  0  0  0
  9 33  1  0  0  0  0
 10 11  2  0  0  0  0
 10 12  1  0  0  0  0
 12 13  1  0  0  0  0
 12 34  1  0  0  0  0
 13 17  1  0  0  0  0
 13 14  2  0  0  0  0
 14 15  1  0  0  0  0
 15 16  2  0  0  0  0
 16 17  1  0  0  0  0
 16 35  1  0  0  0  0
M  END
> <s_m_source_file>
AV-unprocessed.smi

> <i_m_source_file_index>
788

> <i_lp_mmshare_version>
43012

> <i_f3d_flags>
0

> <s_epik_input>
W0NIM11bQ0BASF0xW0NIMl1bQ0gyXVtDSDJdW0NAQEhdKFtDSDNdKVtDQEhdMVtOSF1DKD1PKVtOSF1jMm5uW2NIXXMy

> <s_epik_cmdline>
J2VwaWtfcHl0aG9uJywgJy1waCcsICc3LjAnLCAnLXRuJywgJzgnLCAnLW1hJywgJzIwMCcsICctbWV0YWxfYmluZGluZycsICctaW1hZScsICc8aW5maWxlLm1hZT4nLCAnLW9tYWUnLCAnPG91dGZpbGUubWFlPic=

> <r_lp_tautomer_probability>
1

> <r_epik_Ionization_Penalty>
0.000304078

> <r_epik_Ionization_Penalty_Charging>
0

> <r_epik_Ionization_Penalty_Neutral>
0.000304078

> <r_epik_State_Penalty>
-0

> <r_epik_Charging_Adjusted_Penalty>
0

> <i_epik_Tot_Q>
0

> <i_epik_Tot_abs_Q>
0

> <r_epik_Metal_State_Penalty>
0.164801

> <b_epik_Metal_Only>
0

> <s_lp_Force_Field>
OPLS_2005

> <r_lp_Energy>
14.1502

> <b_lp_Chiralities_Consistent>
1

> <s_lp_Variant>
AV-unprocessed.smi:788-3

> <Gold.Version>
5.8.1

> <Gold.Id.Protein>
6NUR|6NUR_protein|mol2

> <Gold.PLP.Fitness>
32.9306

> <Gold.PLP.PLP>
-26.6576

> <Gold.PLP.part.hbond>
-1.9062

> <Gold.PLP.part.metal>
0.0000

> <Gold.PLP.part.buried>
-2.6003

> <Gold.PLP.part.nonpolar>
-23.6908

> <Gold.PLP.part.repulsive>
0.8296

> <Gold.PLP.ligand.clash>
0.0000

> <Gold.PLP.ligand.torsion>
0.5335

> <Gold.PLP.Chemscore.Hbond>
1.4881

> <Gold.PLP.Chemscore.CHOScore>
0.9568

> <Gold.PLP.Chemscore.Metal>
0.0000

> <Gold.Chemscore.Hbonds>
donor molecule, donor type, donor heavy atom, donor atom, acceptor molecule, acceptor atom, score
      L1  H     9    33       P1  8028  0.50
      L1  H    12    34       P1  8028  0.99
      L1  C    16    35       P1  7948  0.82

> <Gold.PLP.Chemscore.Internal.Correction>
0.0053

> <Gold.Rescore>
     Score         DG    S(hbond)    S(metal)    S(lipo)     H(rot)  DE(clash)    DE(int)     intcor
     16.18     -18.24       1.61        0.00      84.94       1.00       0.16       1.90       ----

> <Gold.Chemscore.Fitness>
16.1758

> <Gold.Chemscore.DG>
-18.2389

> <Gold.Chemscore.ZeroCoef>
-5.4800

> <Gold.Chemscore.Hbond>
1.6110

> <Gold.Chemscore.Metal>
0.0000

> <Gold.Chemscore.Lipo>
84.9414

> <Gold.Chemscore.Internal_Hbond>
0.0000

> <Gold.Chemscore.DEClash>
0.1632

> <Gold.Chemscore.DEInternal>
1.8999

> <Gold.Chemscore.Rot>
1.0000

> <Gold.Chemscore.Internal.Correction>
   9.000000E+99

> <Gold.Chemscore.Hbonds>
donor molecule, donor type, donor heavy atom, donor atom, acceptor molecule, acceptor atom, score
      L1  H     9    33       P1  8028  0.48
      L1  H    12    34       P1  8028  0.91

> <Gold.Chemscore.Hbond.Weighted>
-5.3807

> <Gold.Chemscore.Metal.Weighted>
-0.0000

> <Gold.Chemscore.Lipo.Weighted>
-9.9381

> <Gold.Chemscore.Internal_Hbond.Weighted>
0.0000

> <Gold.Chemscore.DEClash.Weighted>
0.1632

> <Gold.Chemscore.DEInternal.Weighted>
1.8999

> <Gold.Chemscore.Rot.Weighted>
2.5600

> <Gold.Chemscore.Internal.Correction.Weighted>
   9.000000E+99

> <Gold.Protein.RotatedTorsions>
[ 6907 6896 6895 6894 ] final   63.55 input  -60.11 | X-H torsion
[ 7974 7965 7964 7962 ] final  128.24 input  175.53 | X-H torsion
[ 8008 7997 7996 7995 ] final  -79.13 input   59.86 | X-H torsion
[ 10167 10162 10161 10158 ] final  172.07 input  -65.29 | X-H torsion
[ 10718 10713 10712 10709 ] final  101.49 input   66.30 | X-H torsion
[ 10763 10752 10751 10750 ] final -174.43 input  -60.55 | X-H torsion
[ 11005 11000 10999 10996 ] final  -26.64 input  -57.11 | X-H torsion

> <Gold.Protein.ActiveResidues>
 VAL166  LYS551  ARG553  GLY616  TRP617  ASP618  TYR619  PRO620  LYS621  CYS622 
 ASP623  PHE694  ASN695  SER759  ASP760  ASP761  ALA762  ILE779  LEU786  VAL792 
 PHE793  MET794  SER795  GLU796  ALA797  LYS798  CYS799  TRP800  GLU811  SER814 

> <Gold.Protein.RotatedAtoms>
  152.4262  134.5864  159.9961 H   0  0  0  0  0  0  0  0  0  0  0  0  # atno 6907 bound_to 6896
  151.6000  133.3351  159.3053 H   0  0  0  0  0  0  0  0  0  0  0  0  # atno 6908 bound_to 6896
  150.8151  134.7366  159.6788 H   0  0  0  0  0  0  0  0  0  0  0  0  # atno 6909 bound_to 6896
  145.0417  139.3957  143.5098 H   0  0  0  0  0  0  0  0  0  0  0  0  # atno 7974 bound_to 7965
  154.5755  140.0683  156.9027 H   0  0  0  0  0  0  0  0  0  0  0  0  # atno 8008 bound_to 7997
  155.2557  140.3355  155.4259 H   0  0  0  0  0  0  0  0  0  0  0  0  # atno 8009 bound_to 7997
  156.2150  140.1775  156.7593 H   0  0  0  0  0  0  0  0  0  0  0  0  # atno 8010 bound_to 7997
  139.5065  144.3415  152.0013 H   0  0  0  0  0  0  0  0  0  0  0  0  # atno 10167 bound_to 10162
  157.6828  131.0727  150.5260 H   0  0  0  0  0  0  0  0  0  0  0  0  # atno 10718 bound_to 10713
  154.5963  135.2850  155.0583 H   0  0  0  0  0  0  0  0  0  0  0  0  # atno 10763 bound_to 10752
  154.1865  135.6448  153.5052 H   0  0  0  0  0  0  0  0  0  0  0  0  # atno 10764 bound_to 10752
  153.0140  135.5436  154.6666 H   0  0  0  0  0  0  0  0  0  0  0  0  # atno 10765 bound_to 10752
  140.9047  133.7500  156.0591 H   0  0  0  0  0  0  0  0  0  0  0  0  # atno 11005 bound_to 11000
  146.3510  140.0021  142.8675 LP  0  0  0  0  0  0  0  0  0  0  0  0  # atno 17320 bound_to 7965
  145.1639  140.9687  143.4361 LP  0  0  0  0  0  0  0  0  0  0  0  0  # atno 17321 bound_to 7965
  140.2853  144.3814  150.6105 LP  0  0  0  0  0  0  0  0  0  0  0  0  # atno 17342 bound_to 10162
  140.5987  143.2167  151.7114 LP  0  0  0  0  0  0  0  0  0  0  0  0  # atno 17343 bound_to 10162
  156.5572  130.4246  149.6080 LP  0  0  0  0  0  0  0  0  0  0  0  0  # atno 17370 bound_to 10713
  156.2852  130.7093  151.1928 LP  0  0  0  0  0  0  0  0  0  0  0  0  # atno 17371 bound_to 10713
  140.8185  134.3316  157.5389 LP  0  0  0  0  0  0  0  0  0  0  0  0  # atno 17394 bound_to 11000
  139.8747  134.9295  156.3479 LP  0  0  0  0  0  0  0  0  0  0  0  0  # atno 17395 bound_to 11000

$$$$
