AV-unprocessed.smi:863|AV-procd|sdf|3985|dock10
  -GOLD-   22720 1463D 1   1.00000     0.00000
 Structure written by MMmdl.
 42 44  0  0  0  0  0  0  0  0  1 V2000
  150.7356  137.0514  159.7999 O   0  0  0  0  0  0  0  0  0  0  0  0
  149.7408  137.2143  159.0930 C   0  0  0  0  0  0  0  0  0  0  0  0
  148.5988  136.1986  159.1349 C   0  0  0  0  0  0  0  0  0  0  0  0
  148.0404  136.1045  160.5292 C   0  0  0  0  0  0  0  0  0  0  0  0
  147.6977  134.9366  161.2663 C   0  0  0  0  0  0  0  0  0  0  0  0
  147.2470  135.4307  162.4562 C   0  0  0  0  0  0  0  0  0  0  0  0
  147.3062  136.7864  162.4609 O   0  0  0  0  0  0  0  0  0  0  0  0
  147.8163  137.2078  161.2276 N   0  0  0  0  0  0  0  0  0  0  0  0
  149.5867  138.2547  158.2587 N   0  0  0  0  0  0  0  0  0  0  0  0
  150.5609  139.3224  158.0543 C   0  0  1  0  0  0  0  0  0  0  0  0
  150.9177  139.4544  156.5671 C   0  0  0  0  0  0  0  0  0  0  0  0
  151.8317  140.6653  156.3367 C   0  0  0  0  0  0  0  0  0  0  0  0
  151.2309  141.8524  156.8509 O   0  0  0  0  0  0  0  0  0  0  0  0
  150.9160  141.8577  158.2497 C   0  0  0  0  0  0  0  0  0  0  0  0
  152.1969  141.8380  159.1281 C   0  0  0  0  0  0  0  0  0  0  0  0
  153.0800  143.0767  158.9056 C   0  0  0  0  0  0  0  0  0  0  0  0
  152.2955  144.3706  159.1610 C   0  0  0  0  0  0  0  0  0  0  0  0
  151.0301  144.4236  158.2941 C   0  0  0  0  0  0  0  0  0  0  0  0
  150.1518  143.1779  158.5060 C   0  0  0  0  0  0  0  0  0  0  0  0
  149.9856  140.6574  158.5528 C   0  0  0  0  0  0  0  0  0  0  0  0
  147.8200  136.5050  158.4356 H   0  0  0  0  0  0  0  0  0  0  0  0
  148.9580  135.2278  158.7896 H   0  0  0  0  0  0  0  0  0  0  0  0
  147.7698  133.9014  160.9672 H   0  0  0  0  0  0  0  0  0  0  0  0
  146.8689  134.9686  163.3562 H   0  0  0  0  0  0  0  0  0  0  0  0
  148.7370  138.3030  157.7148 H   0  0  0  0  0  0  0  0  0  0  0  0
  151.4627  139.0916  158.6235 H   0  0  0  0  0  0  0  0  0  0  0  0
  151.4054  138.5476  156.2077 H   0  0  0  0  0  0  0  0  0  0  0  0
  150.0079  139.5746  155.9773 H   0  0  0  0  0  0  0  0  0  0  0  0
  152.8143  140.5030  156.7786 H   0  0  0  0  0  0  0  0  0  0  0  0
  151.9983  140.8015  155.2681 H   0  0  0  0  0  0  0  0  0  0  0  0
  151.9074  141.7998  160.1792 H   0  0  0  0  0  0  0  0  0  0  0  0
  152.7892  140.9401  158.9597 H   0  0  0  0  0  0  0  0  0  0  0  0
  153.9484  143.0349  159.5634 H   0  0  0  0  0  0  0  0  0  0  0  0
  153.4659  143.0750  157.8856 H   0  0  0  0  0  0  0  0  0  0  0  0
  152.0206  144.4307  160.2147 H   0  0  0  0  0  0  0  0  0  0  0  0
  152.9257  145.2360  158.9547 H   0  0  0  0  0  0  0  0  0  0  0  0
  150.4595  145.3231  158.5273 H   0  0  0  0  0  0  0  0  0  0  0  0
  151.3101  144.5025  157.2429 H   0  0  0  0  0  0  0  0  0  0  0  0
  149.2784  143.2381  157.8553 H   0  0  0  0  0  0  0  0  0  0  0  0
  149.7694  143.1850  159.5279 H   0  0  0  0  0  0  0  0  0  0  0  0
  149.0220  140.8245  158.0682 H   0  0  0  0  0  0  0  0  0  0  0  0
  149.7795  140.6021  159.6226 H   0  0  0  0  0  0  0  0  0  0  0  0
  1  2  2  0  0  0  0
  2  3  1  0  0  0  0
  2  9  1  0  0  0  0
  3  4  1  0  0  0  0
  3 21  1  0  0  0  0
  3 22  1  0  0  0  0
  4  8  2  0  0  0  0
  4  5  1  0  0  0  0
  5  6  2  0  0  0  0
  5 23  1  0  0  0  0
  6  7  1  0  0  0  0
  6 24  1  0  0  0  0
  7  8  1  0  0  0  0
  9 10  1  0  0  0  0
  9 25  1  0  0  0  0
 10 20  1  0  0  0  0
 10 11  1  0  0  0  0
 10 26  1  0  0  0  0
 11 12  1  0  0  0  0
 11 27  1  0  0  0  0
 11 28  1  0  0  0  0
 12 13  1  0  0  0  0
 12 29  1  0  0  0  0
 12 30  1  0  0  0  0
 13 14  1  0  0  0  0
 14 19  1  0  0  0  0
 14 15  1  0  0  0  0
 14 20  1  0  0  0  0
 15 16  1  0  0  0  0
 15 31  1  0  0  0  0
 15 32  1  0  0  0  0
 16 17  1  0  0  0  0
 16 33  1  0  0  0  0
 16 34  1  0  0  0  0
 17 18  1  0  0  0  0
 17 35  1  0  0  0  0
 17 36  1  0  0  0  0
 18 19  1  0  0  0  0
 18 37  1  0  0  0  0
 18 38  1  0  0  0  0
 19 39  1  0  0  0  0
 19 40  1  0  0  0  0
 20 41  1  0  0  0  0
 20 42  1  0  0  0  0
M  END
> <s_m_source_file>
AV-unprocessed.smi

> <i_m_source_file_index>
863

> <i_lp_mmshare_version>
43012

> <i_f3d_flags>
0

> <s_epik_input>
bjFvW2NIXVtjSF1jMVtDSDJdQyg9TylbTkhdW0NAQEhdKFtDSDJdMilbQ0gyXVtDSDJdT0MyM1tDSDJdW0NIMl1bQ0gyXVtDSDJdW0NIMl0z

> <s_epik_cmdline>
J2VwaWtfcHl0aG9uJywgJy1waCcsICc3LjAnLCAnLXRuJywgJzgnLCAnLW1hJywgJzIwMCcsICctbWV0YWxfYmluZGluZycsICctaW1hZScsICc8aW5maWxlLm1hZT4nLCAnLW9tYWUnLCAnPG91dGZpbGUubWFlPic=

> <r_lp_tautomer_probability>
1

> <r_epik_Ionization_Penalty>
1.10177e-07

> <r_epik_Ionization_Penalty_Charging>
0

> <r_epik_Ionization_Penalty_Neutral>
1.10177e-07

> <r_epik_State_Penalty>
-0

> <r_epik_Charging_Adjusted_Penalty>
0

> <i_epik_Tot_Q>
0

> <i_epik_Tot_abs_Q>
0

> <r_epik_Metal_State_Penalty>
-0

> <b_epik_Metal_Only>
0

> <s_lp_Force_Field>
OPLS_2005

> <r_lp_Energy>
15.5582

> <b_lp_Chiralities_Consistent>
1

> <s_lp_Variant>
AV-unprocessed.smi:863-2

> <Gold.Version>
5.8.1

> <Gold.Id.Protein>
6NUR|6NUR_protein|mol2

> <Gold.PLP.Fitness>
43.1135

> <Gold.PLP.PLP>
-35.8424

> <Gold.PLP.part.hbond>
-3.5068

> <Gold.PLP.part.metal>
0.0000

> <Gold.PLP.part.buried>
-5.3570

> <Gold.PLP.part.nonpolar>
-27.6412

> <Gold.PLP.part.repulsive>
0.1945

> <Gold.PLP.ligand.clash>
0.0000

> <Gold.PLP.ligand.torsion>
0.2313

> <Gold.PLP.Chemscore.Hbond>
2.5776

> <Gold.PLP.Chemscore.CHOScore>
0.0000

> <Gold.PLP.Chemscore.Metal>
0.0000

> <Gold.Chemscore.Hbonds>
donor molecule, donor type, donor heavy atom, donor atom, acceptor molecule, acceptor atom, score
      P1  H  6896  6908       L1     1  1.00
      P1  H  6931  6943       L1     8  0.73
      P1  H  6934  6947       L1     8  0.78

> <Gold.PLP.Chemscore.Internal.Correction>
0.0007

> <Gold.Rescore>
     Score         DG    S(hbond)    S(metal)    S(lipo)     H(rot)  DE(clash)    DE(int)     intcor
     19.71     -19.77       1.86        0.00     100.05       1.42       0.02       0.03       ----

> <Gold.Chemscore.Fitness>
19.7089

> <Gold.Chemscore.DG>
-19.7654

> <Gold.Chemscore.ZeroCoef>
-5.4800

> <Gold.Chemscore.Hbond>
1.8578

> <Gold.Chemscore.Metal>
0.0000

> <Gold.Chemscore.Lipo>
100.0533

> <Gold.Chemscore.Internal_Hbond>
0.0000

> <Gold.Chemscore.DEClash>
0.0236

> <Gold.Chemscore.DEInternal>
0.0330

> <Gold.Chemscore.Rot>
1.4164

> <Gold.Chemscore.Internal.Correction>
   9.000000E+99

> <Gold.Chemscore.Hbonds>
donor molecule, donor type, donor heavy atom, donor atom, acceptor molecule, acceptor atom, score
      P1  H  6896  6908       L1     1  0.51
      P1  H  6931  6943       L1     8  0.09
      P1  H  6934  6947       L1     8  0.46

> <Gold.Chemscore.Hbond.Weighted>
-6.2051

> <Gold.Chemscore.Metal.Weighted>
-0.0000

> <Gold.Chemscore.Lipo.Weighted>
-11.7062

> <Gold.Chemscore.Internal_Hbond.Weighted>
0.0000

> <Gold.Chemscore.DEClash.Weighted>
0.0236

> <Gold.Chemscore.DEInternal.Weighted>
0.0330

> <Gold.Chemscore.Rot.Weighted>
3.6259

> <Gold.Chemscore.Internal.Correction.Weighted>
   9.000000E+99

> <Gold.Protein.RotatedTorsions>
[ 6907 6896 6895 6894 ] final -152.47 input  -60.11 | X-H torsion
[ 7974 7965 7964 7962 ] final -106.40 input  175.53 | X-H torsion
[ 8008 7997 7996 7995 ] final  136.01 input   59.86 | X-H torsion
[ 10167 10162 10161 10158 ] final   78.31 input  -65.29 | X-H torsion
[ 10718 10713 10712 10709 ] final -178.19 input   66.30 | X-H torsion
[ 10763 10752 10751 10750 ] final -146.52 input  -60.55 | X-H torsion
[ 11005 11000 10999 10996 ] final  152.18 input  -57.11 | X-H torsion

> <Gold.Protein.ActiveResidues>
 VAL166  LYS551  ARG553  GLY616  TRP617  ASP618  TYR619  PRO620  LYS621  CYS622 
 ASP623  PHE694  ASN695  SER759  ASP760  ASP761  ALA762  ILE779  LEU786  VAL792 
 PHE793  MET794  SER795  GLU796  ALA797  LYS798  CYS799  TRP800  GLU811  SER814 

> <Gold.Protein.RotatedAtoms>
  151.2282  133.4465  159.2602 H   0  0  0  0  0  0  0  0  0  0  0  0  # atno 6907 bound_to 6896
  151.0820  134.9864  159.8371 H   0  0  0  0  0  0  0  0  0  0  0  0  # atno 6908 bound_to 6896
  152.5425  134.2221  159.8844 H   0  0  0  0  0  0  0  0  0  0  0  0  # atno 6909 bound_to 6896
  145.2184  140.9124  143.3274 H   0  0  0  0  0  0  0  0  0  0  0  0  # atno 7974 bound_to 7965
  156.3004  140.2456  156.3675 H   0  0  0  0  0  0  0  0  0  0  0  0  # atno 8008 bound_to 7997
  154.8819  140.0412  157.1807 H   0  0  0  0  0  0  0  0  0  0  0  0  # atno 8009 bound_to 7997
  154.8687  140.2931  155.5499 H   0  0  0  0  0  0  0  0  0  0  0  0  # atno 8010 bound_to 7997
  139.9723  144.5886  150.7974 H   0  0  0  0  0  0  0  0  0  0  0  0  # atno 10167 bound_to 10162
  156.8406  130.9685  151.3100 H   0  0  0  0  0  0  0  0  0  0  0  0  # atno 10718 bound_to 10713
  154.8332  135.3384  154.6674 H   0  0  0  0  0  0  0  0  0  0  0  0  # atno 10763 bound_to 10752
  153.7292  135.6953  153.4998 H   0  0  0  0  0  0  0  0  0  0  0  0  # atno 10764 bound_to 10752
  153.2325  135.4412  155.0562 H   0  0  0  0  0  0  0  0  0  0  0  0  # atno 10765 bound_to 10752
  140.1284  134.8818  157.2170 H   0  0  0  0  0  0  0  0  0  0  0  0  # atno 11005 bound_to 11000
  144.9789  139.3803  143.6272 LP  0  0  0  0  0  0  0  0  0  0  0  0  # atno 17320 bound_to 7965
  146.3382  139.8921  142.8807 LP  0  0  0  0  0  0  0  0  0  0  0  0  # atno 17321 bound_to 7965
  140.7518  143.2978  151.3158 LP  0  0  0  0  0  0  0  0  0  0  0  0  # atno 17342 bound_to 10162
  139.6472  144.0429  152.2599 LP  0  0  0  0  0  0  0  0  0  0  0  0  # atno 17343 bound_to 10162
  157.6358  130.8765  149.9356 LP  0  0  0  0  0  0  0  0  0  0  0  0  # atno 17370 bound_to 10713
  156.0883  130.3666  150.0445 LP  0  0  0  0  0  0  0  0  0  0  0  0  # atno 17371 bound_to 10713
  140.2874  134.3280  155.7325 LP  0  0  0  0  0  0  0  0  0  0  0  0  # atno 17394 bound_to 11000
  141.2165  133.7514  156.9452 LP  0  0  0  0  0  0  0  0  0  0  0  0  # atno 17395 bound_to 11000

$$$$
