AV-unprocessed.smi:2119|AV-procd|sdf|8632|dock4
  -GOLD-   2272011373D 1   1.00000     0.00000
 Structure written by MMmdl.
 47 49  0  0  0  0  0  0  0  0  1 V2000
  145.2216  135.4187  154.2326 O   0  0  0  0  0  0  0  0  0  0  0  0
  146.2150  135.5127  153.5121 C   0  0  0  0  0  0  0  0  0  0  0  0
  147.2553  136.3105  153.7907 N   0  0  0  0  0  0  0  0  0  0  0  0
  147.3433  137.2027  154.9440 C   0  0  0  0  0  0  0  0  0  0  0  0
  148.5383  136.8762  155.8947 C   0  0  2  0  0  0  0  0  0  0  0  0
  147.9936  136.6865  157.3524 C   0  0  1  0  0  0  0  0  0  0  0  0
  148.9261  136.2270  158.4601 C   0  0  0  0  0  0  0  0  0  0  0  0
  148.0706  136.4790  159.6955 C   0  0  0  0  0  0  0  0  0  0  0  0
  147.3522  137.6735  159.4059 O   0  0  0  0  0  0  0  0  0  0  0  0
  147.3911  137.9369  158.0050 C   0  0  0  0  0  0  0  0  0  0  0  0
  149.6894  137.8106  155.8038 N   0  0  0  0  0  0  0  0  0  0  0  0
  150.3767  137.7016  154.5102 C   0  0  0  0  0  0  0  0  0  0  0  0
  151.6316  138.5868  154.4401 C   0  0  0  0  0  0  0  0  0  0  0  0
  151.2617  139.9426  154.6597 O   0  0  0  0  0  0  0  0  0  0  0  0
  150.6046  140.1316  155.9068 C   0  0  0  0  0  0  0  0  0  0  0  0
  149.3600  139.2283  155.9866 C   0  0  0  0  0  0  0  0  0  0  0  0
  146.4144  134.8406  152.3657 N   0  0  0  0  0  0  0  0  0  0  0  0
  145.5404  133.9419  151.6959 C   0  0  0  0  0  0  0  0  0  0  0  0
  145.9464  133.0200  150.7002 C   0  0  0  0  0  0  0  0  0  0  0  0
  144.9809  132.1705  150.1263 C   0  0  0  0  0  0  0  0  0  0  0  0
  143.6486  132.2668  150.5727 C   0  0  0  0  0  0  0  0  0  0  0  0
  143.2501  133.1312  151.5294 N   0  0  0  0  0  0  0  0  0  0  0  0
  144.1810  133.9428  152.0747 C   0  0  0  0  0  0  0  0  0  0  0  0
  148.0346  136.3193  153.1489 H   0  0  0  0  0  0  0  0  0  0  0  0
  147.4151  138.2194  154.5555 H   0  0  0  0  0  0  0  0  0  0  0  0
  146.3975  137.1472  155.4835 H   0  0  0  0  0  0  0  0  0  0  0  0
  148.8985  135.8983  155.5716 H   0  0  0  0  0  0  0  0  0  0  0  0
  147.2041  135.9344  157.3102 H   0  0  0  0  0  0  0  0  0  0  0  0
  149.2393  135.1871  158.3638 H   0  0  0  0  0  0  0  0  0  0  0  0
  149.8078  136.8639  158.5294 H   0  0  0  0  0  0  0  0  0  0  0  0
  147.3580  135.6659  159.8402 H   0  0  0  0  0  0  0  0  0  0  0  0
  148.6633  136.5780  160.6052 H   0  0  0  0  0  0  0  0  0  0  0  0
  148.0260  138.8073  157.8337 H   0  0  0  0  0  0  0  0  0  0  0  0
  146.3940  138.1668  157.6293 H   0  0  0  0  0  0  0  0  0  0  0  0
  150.6575  136.6798  154.2782 H   0  0  0  0  0  0  0  0  0  0  0  0
  149.6950  138.0000  153.7119 H   0  0  0  0  0  0  0  0  0  0  0  0
  152.3695  138.2737  155.1802 H   0  0  0  0  0  0  0  0  0  0  0  0
  152.1017  138.5017  153.4603 H   0  0  0  0  0  0  0  0  0  0  0  0
  151.2934  139.9110  156.7235 H   0  0  0  0  0  0  0  0  0  0  0  0
  150.3193  141.1790  156.0033 H   0  0  0  0  0  0  0  0  0  0  0  0
  148.6333  139.5439  155.2362 H   0  0  0  0  0  0  0  0  0  0  0  0
  148.9046  139.3900  156.9633 H   0  0  0  0  0  0  0  0  0  0  0  0
  147.3174  134.9656  151.9315 H   0  0  0  0  0  0  0  0  0  0  0  0
  146.9715  132.9349  150.3753 H   0  0  0  0  0  0  0  0  0  0  0  0
  145.2567  131.4573  149.3639 H   0  0  0  0  0  0  0  0  0  0  0  0
  142.8846  131.6286  150.1542 H   0  0  0  0  0  0  0  0  0  0  0  0
  143.8266  134.6188  152.8390 H   0  0  0  0  0  0  0  0  0  0  0  0
  1  2  2  0  0  0  0
  2  3  1  0  0  0  0
  2 17  1  0  0  0  0
  3  4  1  0  0  0  0
  3 24  1  0  0  0  0
  4  5  1  0  0  0  0
  4 25  1  0  0  0  0
  4 26  1  0  0  0  0
  5  6  1  0  0  0  0
  5 11  1  0  0  0  0
  5 27  1  0  0  0  0
  6 10  1  0  0  0  0
  6  7  1  0  0  0  0
  6 28  1  0  0  0  0
  7  8  1  0  0  0  0
  7 29  1  0  0  0  0
  7 30  1  0  0  0  0
  8  9  1  0  0  0  0
  8 31  1  0  0  0  0
  8 32  1  0  0  0  0
  9 10  1  0  0  0  0
 10 33  1  0  0  0  0
 10 34  1  0  0  0  0
 11 16  1  0  0  0  0
 11 12  1  0  0  0  0
 12 13  1  0  0  0  0
 12 35  1  0  0  0  0
 12 36  1  0  0  0  0
 13 14  1  0  0  0  0
 13 37  1  0  0  0  0
 13 38  1  0  0  0  0
 14 15  1  0  0  0  0
 15 16  1  0  0  0  0
 15 39  1  0  0  0  0
 15 40  1  0  0  0  0
 16 41  1  0  0  0  0
 16 42  1  0  0  0  0
 17 18  1  0  0  0  0
 17 43  1  0  0  0  0
 18 23  1  0  0  0  0
 18 19  2  0  0  0  0
 19 20  1  0  0  0  0
 19 44  1  0  0  0  0
 20 21  2  0  0  0  0
 20 45  1  0  0  0  0
 21 22  1  0  0  0  0
 21 46  1  0  0  0  0
 22 23  2  0  0  0  0
 23 47  1  0  0  0  0
M  END
> <s_m_source_file>
AV-unprocessed.smi

> <i_m_source_file_index>
2119

> <i_lp_mmshare_version>
43012

> <i_f3d_flags>
0

> <s_epik_input>
W2NIXTFuW2NIXVtjSF1bY0hdYzFbTkhdQyg9TylbTkhdW0NIMl1bQ0BIXShbQ0BASF0yW0NIMl1bQ0gyXU9bQ0gyXTIpTjNbQ0gyXVtDSDJdT1tDSDJdW0NIMl0z

> <s_epik_cmdline>
J2VwaWtfcHl0aG9uJywgJy1waCcsICc3LjAnLCAnLXRuJywgJzgnLCAnLW1hJywgJzIwMCcsICctbWV0YWxfYmluZGluZycsICctaW1hZScsICc8aW5maWxlLm1hZT4nLCAnLW9tYWUnLCAnPG91dGZpbGUubWFlPic=

> <r_epik_Ionization_Penalty>
0.129787

> <r_epik_Ionization_Penalty_Charging>
0

> <r_epik_Ionization_Penalty_Neutral>
0.129787

> <r_epik_State_Penalty>
0.121311

> <r_epik_Charging_Adjusted_Penalty>
0.121311

> <i_epik_Tot_Q>
0

> <i_epik_Tot_abs_Q>
0

> <r_epik_Metal_State_Penalty>
0.117931

> <b_epik_Metal_Only>
0

> <s_lp_Force_Field>
OPLS_2005

> <r_lp_Energy>
58.2648

> <b_lp_Chiralities_Consistent>
1

> <s_lp_Variant>
AV-unprocessed.smi:2119-3

> <Gold.Version>
5.8.1

> <Gold.Id.Protein>
6NUR|6NUR_protein|mol2

> <Gold.PLP.Fitness>
42.8780

> <Gold.PLP.PLP>
-30.7079

> <Gold.PLP.part.hbond>
-4.0000

> <Gold.PLP.part.metal>
0.0000

> <Gold.PLP.part.buried>
-6.8792

> <Gold.PLP.part.nonpolar>
-21.3006

> <Gold.PLP.part.repulsive>
0.3990

> <Gold.PLP.ligand.clash>
0.0000

> <Gold.PLP.ligand.torsion>
0.8876

> <Gold.PLP.Chemscore.Hbond>
3.6000

> <Gold.PLP.Chemscore.CHOScore>
0.9959

> <Gold.PLP.Chemscore.Metal>
0.0000

> <Gold.Chemscore.Hbonds>
donor molecule, donor type, donor heavy atom, donor atom, acceptor molecule, acceptor atom, score
      L1  H     3    24       P1  7948  1.00
      L1  H    17    43       P1  7948  0.90
      P1  H  6934  6947       L1     9  0.70
      P1  H  7989  7998       L1    14  0.99
      L1  C    21    46       P1 10952  1.00

> <Gold.PLP.Chemscore.Internal.Correction>
0.1576

> <Gold.Rescore>
     Score         DG    S(hbond)    S(metal)    S(lipo)     H(rot)  DE(clash)    DE(int)     intcor
     19.33     -21.77       3.75        0.00      68.21       1.65       0.00       2.44       ----

> <Gold.Chemscore.Fitness>
19.3268

> <Gold.Chemscore.DG>
-21.7698

> <Gold.Chemscore.ZeroCoef>
-5.4800

> <Gold.Chemscore.Hbond>
3.7530

> <Gold.Chemscore.Metal>
0.0000

> <Gold.Chemscore.Lipo>
68.2120

> <Gold.Chemscore.Internal_Hbond>
0.0000

> <Gold.Chemscore.DEClash>
0.0000

> <Gold.Chemscore.DEInternal>
2.4430

> <Gold.Chemscore.Rot>
1.6508

> <Gold.Chemscore.Internal.Correction>
   9.000000E+99

> <Gold.Chemscore.Hbonds>
donor molecule, donor type, donor heavy atom, donor atom, acceptor molecule, acceptor atom, score
      L1  H     3    24       P1  7948  0.98
      L1  H    17    43       P1  7948  0.76
      P1  H  6934  6947       L1     9  0.62
      P1  H  7989  7998       L1    14  0.79

> <Gold.Chemscore.Hbond.Weighted>
-12.5352

> <Gold.Chemscore.Metal.Weighted>
-0.0000

> <Gold.Chemscore.Lipo.Weighted>
-7.9808

> <Gold.Chemscore.Internal_Hbond.Weighted>
0.0000

> <Gold.Chemscore.DEClash.Weighted>
0.0000

> <Gold.Chemscore.DEInternal.Weighted>
2.4430

> <Gold.Chemscore.Rot.Weighted>
4.2262

> <Gold.Chemscore.Internal.Correction.Weighted>
   9.000000E+99

> <Gold.Protein.RotatedTorsions>
[ 6907 6896 6895 6894 ] final  -95.17 input  -60.11 | X-H torsion
[ 7974 7965 7964 7962 ] final -160.84 input  175.53 | X-H torsion
[ 8008 7997 7996 7995 ] final   25.13 input   59.86 | X-H torsion
[ 10167 10162 10161 10158 ] final    9.87 input  -65.29 | X-H torsion
[ 10718 10713 10712 10709 ] final    0.10 input   66.30 | X-H torsion
[ 10763 10752 10751 10750 ] final -112.26 input  -60.55 | X-H torsion
[ 11005 11000 10999 10996 ] final   -1.60 input  -57.11 | X-H torsion

> <Gold.Protein.ActiveResidues>
 VAL166  LYS551  ARG553  GLY616  TRP617  ASP618  TYR619  PRO620  LYS621  CYS622 
 ASP623  PHE694  ASN695  SER759  ASP760  ASP761  ALA762  ILE779  LEU786  VAL792 
 PHE793  MET794  SER795  GLU796  ALA797  LYS798  CYS799  TRP800  GLU811  SER814 

> <Gold.Protein.RotatedAtoms>
  150.6958  134.1698  159.4207 H   0  0  0  0  0  0  0  0  0  0  0  0  # atno 6907 bound_to 6896
  151.9676  135.0090  160.0560 H   0  0  0  0  0  0  0  0  0  0  0  0  # atno 6908 bound_to 6896
  152.1870  133.4711  159.5025 H   0  0  0  0  0  0  0  0  0  0  0  0  # atno 6909 bound_to 6896
  144.7412  140.3483  143.6121 H   0  0  0  0  0  0  0  0  0  0  0  0  # atno 7974 bound_to 7965
  155.0070  140.3132  155.4844 H   0  0  0  0  0  0  0  0  0  0  0  0  # atno 8008 bound_to 7997
  156.2915  140.2221  156.5124 H   0  0  0  0  0  0  0  0  0  0  0  0  # atno 8009 bound_to 7997
  154.7568  140.0462  157.0928 H   0  0  0  0  0  0  0  0  0  0  0  0  # atno 8010 bound_to 7997
  140.6229  143.8165  150.7197 H   0  0  0  0  0  0  0  0  0  0  0  0  # atno 10167 bound_to 10162
  156.8283  130.5480  149.5689 H   0  0  0  0  0  0  0  0  0  0  0  0  # atno 10718 bound_to 10713
  154.8341  135.4497  154.1166 H   0  0  0  0  0  0  0  0  0  0  0  0  # atno 10763 bound_to 10752
  153.2413  135.6916  153.7786 H   0  0  0  0  0  0  0  0  0  0  0  0  # atno 10764 bound_to 10752
  153.7132  135.3353  155.3227 H   0  0  0  0  0  0  0  0  0  0  0  0  # atno 10765 bound_to 10752
  140.6491  133.9420  155.8370 H   0  0  0  0  0  0  0  0  0  0  0  0  # atno 11005 bound_to 11000
  145.7302  139.1734  143.2434 LP  0  0  0  0  0  0  0  0  0  0  0  0  # atno 17320 bound_to 7965
  146.1212  140.7307  142.9457 LP  0  0  0  0  0  0  0  0  0  0  0  0  # atno 17321 bound_to 7965
  140.1759  143.4155  152.1967 LP  0  0  0  0  0  0  0  0  0  0  0  0  # atno 17342 bound_to 10162
  139.5454  144.7294  151.4600 LP  0  0  0  0  0  0  0  0  0  0  0  0  # atno 17343 bound_to 10162
  156.0949  130.5924  150.9796 LP  0  0  0  0  0  0  0  0  0  0  0  0  # atno 17370 bound_to 10713
  157.6420  131.0909  150.8231 LP  0  0  0  0  0  0  0  0  0  0  0  0  # atno 17371 bound_to 10713
  141.0550  134.0430  157.3734 LP  0  0  0  0  0  0  0  0  0  0  0  0  # atno 17394 bound_to 11000
  139.9052  135.0177  156.7454 LP  0  0  0  0  0  0  0  0  0  0  0  0  # atno 17395 bound_to 11000

$$$$
