AV-unprocessed.smi:158|AV-procd|sdf|1326|dock1
  -GOLD-   2262019 23D 1   1.00000     0.00000
 Structure written by MMmdl.
 31 33  0  0  0  0  0  0  0  0  1 V2000
  151.6850  144.5201  161.7871 N   0  0  0  0  0  0  0  0  0  0  0  0
  152.0520  143.3944  161.1591 C   0  0  0  0  0  0  0  0  0  0  0  0
  152.8520  142.5214  161.8150 N   0  0  0  0  0  0  0  0  0  0  0  0
  153.2414  141.3848  161.2240 C   0  0  0  0  0  0  0  0  0  0  0  0
  154.2615  140.3501  162.1524 Cl  0  0  0  0  0  0  0  0  0  0  0  0
  152.9302  140.9616  159.9937 N   0  0  0  0  0  0  0  0  0  0  0  0
  152.1257  141.8418  159.3306 C   0  0  0  0  0  0  0  0  0  0  0  0
  151.6433  143.0753  159.8413 C   0  0  0  0  0  0  0  0  0  0  0  0
  150.8517  143.7035  158.8896 N   0  0  0  0  0  0  0  0  0  0  0  0
  150.8702  142.8815  157.8741 C   0  0  0  0  0  0  0  0  0  0  0  0
  151.6213  141.7377  158.0534 N   0  0  0  0  0  0  0  0  0  0  0  0
  151.8603  140.5962  157.1155 C   0  0  1  0  0  0  0  0  0  0  0  0
  152.0260  139.4386  157.8813 O   0  0  0  0  0  0  0  0  0  0  0  0
  150.9421  138.5280  157.6884 C   0  0  1  0  0  0  0  0  0  0  0  0
  150.5457  137.8361  159.0050 C   0  0  0  0  0  0  0  0  0  0  0  0
  151.6302  137.0807  159.4996 O   0  0  0  0  0  0  0  0  0  0  0  0
  149.8342  139.3455  157.0064 C   0  0  1  0  0  0  0  0  0  0  0  0
  148.9512  139.9618  157.9266 O   0  0  0  0  0  0  0  0  0  0  0  0
  150.6254  140.3842  156.2337 C   0  0  2  0  0  0  0  0  0  0  0  0
  151.0180  139.8823  155.0619 F   0  0  0  0  0  0  0  0  0  0  0  0
  152.7658  140.8713  156.5733 H   0  0  0  0  0  0  0  0  0  0  0  0
  151.2788  137.7794  156.9687 H   0  0  0  0  0  0  0  0  0  0  0  0
  149.2323  138.7238  156.3428 H   0  0  0  0  0  0  0  0  0  0  0  0
  150.0865  141.3108  156.0305 H   0  0  0  0  0  0  0  0  0  0  0  0
  151.0891  145.1863  161.3167 H   0  0  0  0  0  0  0  0  0  0  0  0
  152.0065  144.7018  162.7267 H   0  0  0  0  0  0  0  0  0  0  0  0
  150.3332  143.0956  156.9625 H   0  0  0  0  0  0  0  0  0  0  0  0
  150.2126  138.5545  159.7537 H   0  0  0  0  0  0  0  0  0  0  0  0
  149.7226  137.1423  158.8315 H   0  0  0  0  0  0  0  0  0  0  0  0
  151.9891  137.5257  160.2520 H   0  0  0  0  0  0  0  0  0  0  0  0
  148.4472  140.6170  157.4686 H   0  0  0  0  0  0  0  0  0  0  0  0
  1  2  1  0  0  0  0
  1 25  1  0  0  0  0
  1 26  1  0  0  0  0
  2  8  1  0  0  0  0
  2  3  2  0  0  0  0
  3  4  1  0  0  0  0
  4  5  1  0  0  0  0
  4  6  2  0  0  0  0
  6  7  1  0  0  0  0
  7 11  1  0  0  0  0
  7  8  2  0  0  0  0
  8  9  1  0  0  0  0
  9 10  2  0  0  0  0
 10 11  1  0  0  0  0
 10 27  1  0  0  0  0
 11 12  1  0  0  0  0
 12 21  1  0  0  0  0
 12 19  1  0  0  0  0
 12 13  1  0  0  0  0
 13 14  1  0  0  0  0
 14 22  1  0  0  0  0
 14 15  1  0  0  0  0
 14 17  1  0  0  0  0
 15 16  1  0  0  0  0
 15 28  1  0  0  0  0
 15 29  1  0  0  0  0
 16 30  1  0  0  0  0
 17 23  1  0  0  0  0
 17 18  1  0  0  0  0
 17 19  1  0  0  0  0
 18 31  1  0  0  0  0
 19 24  1  0  0  0  0
 19 20  1  0  0  0  0
M  END
> <s_m_source_file>
AV-unprocessed.smi

> <i_m_source_file_index>
158

> <i_lp_mmshare_version>
43012

> <i_f3d_flags>
0

> <s_epik_input>
Q2xjKG4xKW5jKFtOSDJdKWMoYzEyKW5bY0hdbjJbQ0BASF0zT1tDQEhdKFtDSDJdW09IXSlbQ0BASF0oW09IXSlbQ0BASF0zRg==

> <s_epik_cmdline>
J2VwaWtfcHl0aG9uJywgJy1waCcsICc3LjAnLCAnLXRuJywgJzgnLCAnLW1hJywgJzIwMCcsICctbWV0YWxfYmluZGluZycsICctaW1hZScsICc8aW5maWxlLm1hZT4nLCAnLW9tYWUnLCAnPG91dGZpbGUubWFlPic=

> <r_lp_tautomer_probability>
1

> <r_epik_Ionization_Penalty>
6.51543e-05

> <r_epik_Ionization_Penalty_Charging>
0

> <r_epik_Ionization_Penalty_Neutral>
6.51543e-05

> <r_epik_State_Penalty>
-0

> <r_epik_Charging_Adjusted_Penalty>
0

> <i_epik_Tot_Q>
0

> <i_epik_Tot_abs_Q>
0

> <r_epik_Metal_State_Penalty>
-0

> <b_epik_Metal_Only>
0

> <s_epik_Chemistry_Notes>
This compound contains an acetal/aminal-like group ( X-CH(R)-Y where X, Y are N, S, or O) that may be acid/base labile, releasing an aldehyde.

> <s_lp_Force_Field>
OPLS_2005

> <r_lp_Energy>
31.9678

> <b_lp_Chiralities_Consistent>
1

> <s_lp_Variant>
AV-unprocessed.smi:158-4

> <Gold.Version>
5.8.1

> <Gold.Id.Protein>
6NUR|6NUR_protein|mol2

> <Gold.PLP.Fitness>
38.2899

> <Gold.PLP.PLP>
-33.7916

> <Gold.PLP.part.hbond>
-2.0892

> <Gold.PLP.part.metal>
0.0000

> <Gold.PLP.part.buried>
-5.3151

> <Gold.PLP.part.nonpolar>
-26.4697

> <Gold.PLP.part.repulsive>
0.2055

> <Gold.PLP.ligand.clash>
0.0000

> <Gold.PLP.ligand.torsion>
0.7445

> <Gold.PLP.Chemscore.Hbond>
0.9913

> <Gold.PLP.Chemscore.CHOScore>
1.0000

> <Gold.PLP.Chemscore.Metal>
0.0000

> <Gold.Chemscore.Hbonds>
donor molecule, donor type, donor heavy atom, donor atom, acceptor molecule, acceptor atom, score
      P1  H  6896  6909       L1    16  1.00
      L1  C    10    27       P1  8028  1.00

> <Gold.PLP.Chemscore.Internal.Correction>
0.0136

> <Gold.Rescore>
     Score         DG    S(hbond)    S(metal)    S(lipo)     H(rot)  DE(clash)    DE(int)     intcor
      2.73      -4.94       0.96        0.00      36.21       3.12       0.04       2.16       ----

> <Gold.Chemscore.Fitness>
2.7299

> <Gold.Chemscore.DG>
-4.9363

> <Gold.Chemscore.ZeroCoef>
-5.4800

> <Gold.Chemscore.Hbond>
0.9624

> <Gold.Chemscore.Metal>
0.0000

> <Gold.Chemscore.Lipo>
36.2127

> <Gold.Chemscore.Internal_Hbond>
0.0000

> <Gold.Chemscore.DEClash>
0.0446

> <Gold.Chemscore.DEInternal>
2.1618

> <Gold.Chemscore.Rot>
3.1230

> <Gold.Chemscore.Internal.Correction>
   9.000000E+99

> <Gold.Chemscore.Hbonds>
donor molecule, donor type, donor heavy atom, donor atom, acceptor molecule, acceptor atom, score
      P1  H  6896  6909       L1    16  0.54

> <Gold.Chemscore.Hbond.Weighted>
-3.2144

> <Gold.Chemscore.Metal.Weighted>
-0.0000

> <Gold.Chemscore.Lipo.Weighted>
-4.2369

> <Gold.Chemscore.Internal_Hbond.Weighted>
0.0000

> <Gold.Chemscore.DEClash.Weighted>
0.0446

> <Gold.Chemscore.DEInternal.Weighted>
2.1618

> <Gold.Chemscore.Rot.Weighted>
7.9950

> <Gold.Chemscore.Internal.Correction.Weighted>
   9.000000E+99

> <Gold.Protein.RotatedTorsions>
[ 6907 6896 6895 6894 ] final  120.03 input  -60.11 | X-H torsion
[ 7974 7965 7964 7962 ] final   70.87 input  175.53 | X-H torsion
[ 8008 7997 7996 7995 ] final  -64.35 input   59.86 | X-H torsion
[ 10167 10162 10161 10158 ] final -132.36 input  -65.29 | X-H torsion
[ 10718 10713 10712 10709 ] final  -98.43 input   66.30 | X-H torsion
[ 10763 10752 10751 10750 ] final  105.72 input  -60.55 | X-H torsion
[ 11005 11000 10999 10996 ] final  173.54 input  -57.11 | X-H torsion

> <Gold.Protein.ActiveResidues>
 VAL166  LYS551  ARG553  GLY616  TRP617  ASP618  TYR619  PRO620  LYS621  CYS622 
 ASP623  PHE694  ASN695  SER759  ASP760  ASP761  ALA762  ILE779  LEU786  VAL792 
 PHE793  MET794  SER795  GLU796  ALA797  LYS798  CYS799  TRP800  GLU811  SER814 

> <Gold.Protein.RotatedAtoms>
  152.4429  133.7481  159.6678 H   0  0  0  0  0  0  0  0  0  0  0  0  # atno 6907 bound_to 6896
  150.8323  133.8061  159.3100 H   0  0  0  0  0  0  0  0  0  0  0  0  # atno 6908 bound_to 6896
  151.5711  135.1065  160.0047 H   0  0  0  0  0  0  0  0  0  0  0  0  # atno 6909 bound_to 6896
  145.7728  139.2851  143.1311 H   0  0  0  0  0  0  0  0  0  0  0  0  # atno 7974 bound_to 7965
  154.4606  140.0955  156.6883 H   0  0  0  0  0  0  0  0  0  0  0  0  # atno 8008 bound_to 7997
  155.5005  140.3473  155.4352 H   0  0  0  0  0  0  0  0  0  0  0  0  # atno 8009 bound_to 7997
  156.0863  140.1386  156.9637 H   0  0  0  0  0  0  0  0  0  0  0  0  # atno 8010 bound_to 7997
  139.9094  143.6512  152.2578 H   0  0  0  0  0  0  0  0  0  0  0  0  # atno 10167 bound_to 10162
  156.0107  130.5238  150.6522 H   0  0  0  0  0  0  0  0  0  0  0  0  # atno 10718 bound_to 10713
  153.3832  135.3900  155.1871 H   0  0  0  0  0  0  0  0  0  0  0  0  # atno 10763 bound_to 10752
  154.8710  135.3730  154.4831 H   0  0  0  0  0  0  0  0  0  0  0  0  # atno 10764 bound_to 10752
  153.5310  135.7086  153.5744 H   0  0  0  0  0  0  0  0  0  0  0  0  # atno 10765 bound_to 10752
  140.3416  134.7271  157.4206 H   0  0  0  0  0  0  0  0  0  0  0  0  # atno 11005 bound_to 11000
  146.0152  140.8399  142.9951 LP  0  0  0  0  0  0  0  0  0  0  0  0  # atno 17320 bound_to 7965
  144.6809  140.2548  143.7327 LP  0  0  0  0  0  0  0  0  0  0  0  0  # atno 17321 bound_to 7965
  139.6956  144.7642  151.1363 LP  0  0  0  0  0  0  0  0  0  0  0  0  # atno 17342 bound_to 10162
  140.7689  143.5529  150.9184 LP  0  0  0  0  0  0  0  0  0  0  0  0  # atno 17343 bound_to 10162
  157.4281  131.0845  151.1066 LP  0  0  0  0  0  0  0  0  0  0  0  0  # atno 17370 bound_to 10713
  157.1647  130.6241  149.5621 LP  0  0  0  0  0  0  0  0  0  0  0  0  # atno 17371 bound_to 10713
  140.0776  134.5775  155.8574 LP  0  0  0  0  0  0  0  0  0  0  0  0  # atno 17394 bound_to 11000
  141.2037  133.6633  156.6077 LP  0  0  0  0  0  0  0  0  0  0  0  0  # atno 17395 bound_to 11000

$$$$
