AV-unprocessed.smi:2995|AV-procd|sdf|11407|dock5
  -GOLD-   2272016333D 1   1.00000     0.00000
 Structure written by MMmdl.
 49 51  0  0  0  0  0  0  0  0  2 V2000
  150.7969  138.0705  154.3262 C   0  0  0  0  0  0  0  0  0  0  0  0
  149.9906  139.3352  154.5624 C   0  0  0  0  0  0  0  0  0  0  0  0
  150.5700  140.4163  155.2581 C   0  0  0  0  0  0  0  0  0  0  0  0
  149.8017  141.5784  155.4612 C   0  0  0  0  0  0  0  0  0  0  0  0
  148.5364  141.7158  155.0157 N   0  0  0  0  0  0  0  0  0  0  0  0
  147.9827  140.6794  154.3515 C   0  0  0  0  0  0  0  0  0  0  0  0
  148.6563  139.4569  154.1044 C   0  0  0  0  0  0  0  0  0  0  0  0
  148.0700  138.3785  153.3846 N   0  0  0  0  0  0  0  0  0  0  0  0
  146.7942  138.2426  152.9848 C   0  0  0  0  0  0  0  0  0  0  0  0
  145.8936  139.0565  153.1883 O   0  0  0  0  0  0  0  0  0  0  0  0
  146.6067  137.0789  152.3453 N   0  0  0  0  0  0  0  0  0  0  0  0
  145.3323  136.6164  151.8037 C   0  0  2  0  0  0  0  0  0  0  0  0
  144.4887  135.9302  152.8962 C   0  0  0  0  0  0  0  0  0  0  0  0
  143.2002  135.3247  152.3080 C   0  0  0  0  0  0  0  0  0  0  0  0
  143.4860  134.3739  151.1982 N   0  3  2  0  0  0  0  0  0  0  0  0
  144.0487  133.0609  151.6363 C   0  0  0  0  0  0  0  0  0  0  0  0
  145.4309  133.1732  152.2945 C   0  0  0  0  0  0  0  0  0  0  0  0
  146.0346  131.7689  152.2020 C   0  0  0  0  0  0  0  0  0  0  0  0
  145.3389  131.0826  151.0189 C   0  0  0  0  0  0  0  0  0  0  0  0
  144.3210  132.0917  150.4768 C   0  0  0  0  0  0  0  0  0  0  0  0
  144.2574  135.0497  150.1180 C   0  0  0  0  0  0  0  0  0  0  0  0
  145.5806  135.6442  150.6376 C   0  0  0  0  0  0  0  0  0  0  0  0
  151.7946  138.1491  154.7589 H   0  0  0  0  0  0  0  0  0  0  0  0
  150.9066  137.8837  153.2578 H   0  0  0  0  0  0  0  0  0  0  0  0
  150.3000  137.2120  154.7788 H   0  0  0  0  0  0  0  0  0  0  0  0
  151.5822  140.3618  155.6309 H   0  0  0  0  0  0  0  0  0  0  0  0
  150.2174  142.4227  155.9910 H   0  0  0  0  0  0  0  0  0  0  0  0
  146.9801  140.8585  153.9953 H   0  0  0  0  0  0  0  0  0  0  0  0
  148.6745  137.5862  153.2242 H   0  0  0  0  0  0  0  0  0  0  0  0
  147.4025  136.4688  152.2264 H   0  0  0  0  0  0  0  0  0  0  0  0
  144.7782  137.4736  151.4158 H   0  0  0  0  0  0  0  0  0  0  0  0
  145.0730  135.1531  153.3902 H   0  0  0  0  0  0  0  0  0  0  0  0
  144.2269  136.6500  153.6725 H   0  0  0  0  0  0  0  0  0  0  0  0
  142.6065  134.8544  153.0908 H   0  0  0  0  0  0  0  0  0  0  0  0
  142.5765  136.1286  151.9144 H   0  0  0  0  0  0  0  0  0  0  0  0
  143.3693  132.5777  152.3394 H   0  0  0  0  0  0  0  0  0  0  0  0
  146.0550  133.8718  151.7349 H   0  0  0  0  0  0  0  0  0  0  0  0
  145.3831  133.5223  153.3265 H   0  0  0  0  0  0  0  0  0  0  0  0
  147.1173  131.8067  152.0760 H   0  0  0  0  0  0  0  0  0  0  0  0
  145.8329  131.2138  153.1190 H   0  0  0  0  0  0  0  0  0  0  0  0
  146.0489  130.7837  150.2469 H   0  0  0  0  0  0  0  0  0  0  0  0
  144.8317  130.1799  151.3620 H   0  0  0  0  0  0  0  0  0  0  0  0
  143.4179  131.5974  150.1173 H   0  0  0  0  0  0  0  0  0  0  0  0
  144.7615  132.6298  149.6358 H   0  0  0  0  0  0  0  0  0  0  0  0
  144.4418  134.3772  149.2814 H   0  0  0  0  0  0  0  0  0  0  0  0
  143.6403  135.8530  149.7131 H   0  0  0  0  0  0  0  0  0  0  0  0
  146.0900  136.1644  149.8252 H   0  0  0  0  0  0  0  0  0  0  0  0
  146.2503  134.8423  150.9505 H   0  0  0  0  0  0  0  0  0  0  0  0
  142.5885  134.1483  150.7930 H   0  0  0  0  0  0  0  0  0  0  0  0
  1  2  1  0  0  0  0
  1 23  1  0  0  0  0
  1 24  1  0  0  0  0
  1 25  1  0  0  0  0
  2  7  1  0  0  0  0
  2  3  2  0  0  0  0
  3  4  1  0  0  0  0
  3 26  1  0  0  0  0
  4  5  2  0  0  0  0
  4 27  1  0  0  0  0
  5  6  1  0  0  0  0
  6  7  2  0  0  0  0
  6 28  1  0  0  0  0
  7  8  1  0  0  0  0
  8  9  1  0  0  0  0
  8 29  1  0  0  0  0
  9 10  2  0  0  0  0
  9 11  1  0  0  0  0
 11 12  1  0  0  0  0
 11 30  1  0  0  0  0
 12 22  1  0  0  0  0
 12 13  1  0  0  0  0
 12 31  1  0  0  0  0
 13 14  1  0  0  0  0
 13 32  1  0  0  0  0
 13 33  1  0  0  0  0
 14 15  1  0  0  0  0
 14 34  1  0  0  0  0
 14 35  1  0  0  0  0
 15 16  1  0  0  0  0
 15 21  1  0  0  0  0
 15 49  1  0  0  0  0
 16 20  1  0  0  0  0
 16 17  1  0  0  0  0
 16 36  1  0  0  0  0
 17 18  1  0  0  0  0
 17 37  1  0  0  0  0
 17 38  1  0  0  0  0
 18 19  1  0  0  0  0
 18 39  1  0  0  0  0
 18 40  1  0  0  0  0
 19 20  1  0  0  0  0
 19 41  1  0  0  0  0
 19 42  1  0  0  0  0
 20 43  1  0  0  0  0
 20 44  1  0  0  0  0
 21 22  1  0  0  0  0
 21 45  1  0  0  0  0
 21 46  1  0  0  0  0
 22 47  1  0  0  0  0
 22 48  1  0  0  0  0
M  CHG  1  15   1
M  END
> <s_m_source_file>
AV-unprocessed.smi

> <i_m_source_file_index>
2995

> <i_lp_mmshare_version>
43012

> <i_f3d_flags>
0

> <s_epik_input>
W0NIM11jMVtjSF1bY0hdbltjSF1jMVtOSF1DKD1PKVtOSF1bQ0hdMltDSDJdW0NIMl1OKFtDSDJdW0NIMl0yKVtDSF0zW0NIMl1bQ0gyXVtDSDJdW0NIMl0z

> <s_epik_cmdline>
J2VwaWtfcHl0aG9uJywgJy1waCcsICc3LjAnLCAnLXRuJywgJzgnLCAnLW1hJywgJzIwMCcsICctbWV0YWxfYmluZGluZycsICctaW1hZScsICc8aW5maWxlLm1hZT4nLCAnLW9tYWUnLCAnPG91dGZpbGUubWFlPic=

> <r_epik_Ionization_Penalty>
0.0196897

> <r_epik_Ionization_Penalty_Charging>
0.00179121

> <r_epik_Ionization_Penalty_Neutral>
0.0178985

> <r_epik_State_Penalty>
0.014187

> <r_epik_Charging_Adjusted_Penalty>
0.0159782

> <i_epik_Tot_Q>
1

> <i_epik_Tot_abs_Q>
1

> <r_epik_Metal_State_Penalty>
0.013703

> <b_epik_Metal_Only>
0

> <s_lp_Force_Field>
OPLS_2005

> <r_lp_Energy>
42.3495

> <b_lp_Chiralities_Consistent>
1

> <s_lp_Variant>
AV-unprocessed.smi:2995-2

> <Gold.Version>
5.8.1

> <Gold.Id.Protein>
6NUR|6NUR_protein|mol2

> <Gold.PLP.Fitness>
48.4669

> <Gold.PLP.PLP>
-37.7155

> <Gold.PLP.part.hbond>
-3.6079

> <Gold.PLP.part.metal>
0.0000

> <Gold.PLP.part.buried>
-2.0908

> <Gold.PLP.part.nonpolar>
-35.5397

> <Gold.PLP.part.repulsive>
3.6646

> <Gold.PLP.ligand.clash>
1.5295

> <Gold.PLP.ligand.torsion>
0.3934

> <Gold.PLP.Chemscore.Hbond>
3.7840

> <Gold.PLP.Chemscore.CHOScore>
0.5535

> <Gold.PLP.Chemscore.Metal>
0.0000

> <Gold.Chemscore.Hbonds>
donor molecule, donor type, donor heavy atom, donor atom, acceptor molecule, acceptor atom, score
      L1  H     8    29       P1  7948  0.77
      L1  H    11    30       P1  7948  1.00
      L1  H    15    49       P1 10186  2.00
      L1  C     4    27       P1  8028  0.45

> <Gold.PLP.Chemscore.Internal.Correction>
0.0554

> <Gold.Rescore>
     Score         DG    S(hbond)    S(metal)    S(lipo)     H(rot)  DE(clash)    DE(int)     intcor
     18.84     -23.14       2.61        0.00     102.17       1.17       0.57       3.74       ----

> <Gold.Chemscore.Fitness>
18.8359

> <Gold.Chemscore.DG>
-23.1372

> <Gold.Chemscore.ZeroCoef>
-5.4800

> <Gold.Chemscore.Hbond>
2.6067

> <Gold.Chemscore.Metal>
0.0000

> <Gold.Chemscore.Lipo>
102.1711

> <Gold.Chemscore.Internal_Hbond>
0.0000

> <Gold.Chemscore.DEClash>
0.5656

> <Gold.Chemscore.DEInternal>
3.7357

> <Gold.Chemscore.Rot>
1.1731

> <Gold.Chemscore.Internal.Correction>
   9.000000E+99

> <Gold.Chemscore.Hbonds>
donor molecule, donor type, donor heavy atom, donor atom, acceptor molecule, acceptor atom, score
      L1  H     8    29       P1  7948  0.75
      L1  H    11    30       P1  7948  0.94
      L1  H    15    49       P1 10186  0.46

> <Gold.Chemscore.Hbond.Weighted>
-8.7063

> <Gold.Chemscore.Metal.Weighted>
-0.0000

> <Gold.Chemscore.Lipo.Weighted>
-11.9540

> <Gold.Chemscore.Internal_Hbond.Weighted>
0.0000

> <Gold.Chemscore.DEClash.Weighted>
0.5656

> <Gold.Chemscore.DEInternal.Weighted>
3.7357

> <Gold.Chemscore.Rot.Weighted>
3.0030

> <Gold.Chemscore.Internal.Correction.Weighted>
   9.000000E+99

> <Gold.Protein.RotatedTorsions>
[ 6907 6896 6895 6894 ] final  -95.13 input  -60.11 | X-H torsion
[ 7974 7965 7964 7962 ] final  -60.55 input  175.53 | X-H torsion
[ 8008 7997 7996 7995 ] final   61.38 input   59.86 | X-H torsion
[ 10167 10162 10161 10158 ] final   12.58 input  -65.29 | X-H torsion
[ 10718 10713 10712 10709 ] final  179.72 input   66.30 | X-H torsion
[ 10763 10752 10751 10750 ] final  120.49 input  -60.55 | X-H torsion
[ 11005 11000 10999 10996 ] final  -50.55 input  -57.11 | X-H torsion

> <Gold.Protein.ActiveResidues>
 VAL166  LYS551  ARG553  GLY616  TRP617  ASP618  TYR619  PRO620  LYS621  CYS622 
 ASP623  PHE694  ASN695  SER759  ASP760  ASP761  ALA762  ILE779  LEU786  VAL792 
 PHE793  MET794  SER795  GLU796  ALA797  LYS798  CYS799  TRP800  GLU811  SER814 

> <Gold.Protein.RotatedAtoms>
  150.6957  134.1705  159.4210 H   0  0  0  0  0  0  0  0  0  0  0  0  # atno 6907 bound_to 6896
  151.9683  135.0087  160.0560 H   0  0  0  0  0  0  0  0  0  0  0  0  # atno 6908 bound_to 6896
  152.1865  133.4708  159.5022 H   0  0  0  0  0  0  0  0  0  0  0  0  # atno 6909 bound_to 6896
  145.8142  140.8580  143.0166 H   0  0  0  0  0  0  0  0  0  0  0  0  # atno 7974 bound_to 7965
  155.5975  140.3493  155.4584 H   0  0  0  0  0  0  0  0  0  0  0  0  # atno 8008 bound_to 7997
  156.0254  140.1263  157.0339 H   0  0  0  0  0  0  0  0  0  0  0  0  # atno 8009 bound_to 7997
  154.4331  140.1054  156.6009 H   0  0  0  0  0  0  0  0  0  0  0  0  # atno 8010 bound_to 7997
  140.6059  143.8510  150.7013 H   0  0  0  0  0  0  0  0  0  0  0  0  # atno 10167 bound_to 10162
  156.8716  130.9785  151.3072 H   0  0  0  0  0  0  0  0  0  0  0  0  # atno 10718 bound_to 10713
  153.5993  135.3451  155.2939 H   0  0  0  0  0  0  0  0  0  0  0  0  # atno 10763 bound_to 10752
  154.8639  135.4223  154.2430 H   0  0  0  0  0  0  0  0  0  0  0  0  # atno 10764 bound_to 10752
  153.3255  135.7041  153.7064 H   0  0  0  0  0  0  0  0  0  0  0  0  # atno 10765 bound_to 10752
  141.0822  133.6650  156.3748 H   0  0  0  0  0  0  0  0  0  0  0  0  # atno 11005 bound_to 11000
  144.6754  140.0439  143.7480 LP  0  0  0  0  0  0  0  0  0  0  0  0  # atno 17320 bound_to 7965
  145.9745  139.2894  143.1079 LP  0  0  0  0  0  0  0  0  0  0  0  0  # atno 17321 bound_to 7965
  140.2066  143.3916  152.1750 LP  0  0  0  0  0  0  0  0  0  0  0  0  # atno 17342 bound_to 10162
  139.5324  144.7174  151.5009 LP  0  0  0  0  0  0  0  0  0  0  0  0  # atno 17343 bound_to 10162
  157.6192  130.8642  149.9080 LP  0  0  0  0  0  0  0  0  0  0  0  0  # atno 17370 bound_to 10713
  156.0723  130.3683  150.0749 LP  0  0  0  0  0  0  0  0  0  0  0  0  # atno 17371 bound_to 10713
  140.5442  134.6090  157.5389 LP  0  0  0  0  0  0  0  0  0  0  0  0  # atno 17394 bound_to 11000
  139.9637  134.7409  156.0183 LP  0  0  0  0  0  0  0  0  0  0  0  0  # atno 17395 bound_to 11000

$$$$
