AV-unprocessed.smi:3292|AV-procd|sdf|12625|dock2
  -GOLD-   2272018563D 1   1.00000     0.00000
 Structure written by MMmdl.
 38 39  0  0  0  0  0  0  0  0  1 V2000
  148.3921  131.5807  153.5762 C   0  0  0  0  0  0  0  0  0  0  0  0
  147.5773  132.8215  153.1867 C   0  0  2  0  0  0  0  0  0  0  0  0
  147.0668  132.7243  151.7334 C   0  0  0  0  0  0  0  0  0  0  0  0
  145.9703  133.6357  151.4603 N   0  0  0  0  0  0  0  0  0  0  0  0
  146.0068  135.0237  151.4880 C   0  0  0  0  0  0  0  0  0  0  0  0
  144.7425  135.4569  151.1586 C   0  0  0  0  0  0  0  0  0  0  0  0
  143.9141  134.3595  150.9355 N   0  0  0  0  0  0  0  0  0  0  0  0
  144.7101  133.3170  151.1344 C   0  0  0  0  0  0  0  0  0  0  0  0
  148.4080  134.0116  153.3699 N   0  0  0  0  0  0  0  0  0  0  0  0
  149.0722  134.3341  154.4895 C   0  0  0  0  0  0  0  0  0  0  0  0
  149.0730  133.6514  155.5139 O   0  0  0  0  0  0  0  0  0  0  0  0
  149.7209  135.5001  154.3634 N   0  0  0  0  0  0  0  0  0  0  0  0
  150.4975  136.1497  155.4148 C   0  0  0  0  0  0  0  0  0  0  0  0
  151.2102  137.4138  154.8989 C   0  0  2  0  0  0  0  0  0  0  0  0
  151.9973  138.1505  155.9629 C   0  0  0  0  0  0  0  0  0  0  0  0
  152.1882  139.5204  155.3197 C   0  0  0  0  0  0  0  0  0  0  0  0
  151.0313  139.7361  154.5172 O   0  0  0  0  0  0  0  0  0  0  0  0
  150.2876  138.5270  154.3963 C   0  0  0  0  0  0  0  0  0  0  0  0
  147.7938  130.6741  153.4824 H   0  0  0  0  0  0  0  0  0  0  0  0
  148.7330  131.6429  154.6103 H   0  0  0  0  0  0  0  0  0  0  0  0
  149.2712  131.4658  152.9412 H   0  0  0  0  0  0  0  0  0  0  0  0
  146.7174  132.8632  153.8579 H   0  0  0  0  0  0  0  0  0  0  0  0
  147.8757  132.9217  151.0282 H   0  0  0  0  0  0  0  0  0  0  0  0
  146.7145  131.7129  151.5274 H   0  0  0  0  0  0  0  0  0  0  0  0
  146.9062  135.5725  151.7253 H   0  0  0  0  0  0  0  0  0  0  0  0
  144.3675  136.4657  151.0677 H   0  0  0  0  0  0  0  0  0  0  0  0
  144.3694  132.2969  151.0329 H   0  0  0  0  0  0  0  0  0  0  0  0
  148.4711  134.6432  152.5850 H   0  0  0  0  0  0  0  0  0  0  0  0
  149.6586  135.9854  153.4805 H   0  0  0  0  0  0  0  0  0  0  0  0
  149.8692  136.3863  156.2754 H   0  0  0  0  0  0  0  0  0  0  0  0
  151.2394  135.4340  155.7694 H   0  0  0  0  0  0  0  0  0  0  0  0
  151.8945  137.1391  154.0942 H   0  0  0  0  0  0  0  0  0  0  0  0
  151.4079  138.2460  156.8763 H   0  0  0  0  0  0  0  0  0  0  0  0
  152.9406  137.6646  156.2138 H   0  0  0  0  0  0  0  0  0  0  0  0
  152.3168  140.3132  156.0569 H   0  0  0  0  0  0  0  0  0  0  0  0
  153.0646  139.5163  154.6702 H   0  0  0  0  0  0  0  0  0  0  0  0
  149.9637  138.3643  153.3685 H   0  0  0  0  0  0  0  0  0  0  0  0
  149.3979  138.6078  155.0224 H   0  0  0  0  0  0  0  0  0  0  0  0
  1  2  1  0  0  0  0
  1 19  1  0  0  0  0
  1 20  1  0  0  0  0
  1 21  1  0  0  0  0
  2  3  1  0  0  0  0
  2  9  1  0  0  0  0
  2 22  1  0  0  0  0
  3  4  1  0  0  0  0
  3 23  1  0  0  0  0
  3 24  1  0  0  0  0
  4  8  1  0  0  0  0
  4  5  1  0  0  0  0
  5  6  2  0  0  0  0
  5 25  1  0  0  0  0
  6  7  1  0  0  0  0
  6 26  1  0  0  0  0
  7  8  2  0  0  0  0
  8 27  1  0  0  0  0
  9 10  1  0  0  0  0
  9 28  1  0  0  0  0
 10 11  2  0  0  0  0
 10 12  1  0  0  0  0
 12 13  1  0  0  0  0
 12 29  1  0  0  0  0
 13 14  1  0  0  0  0
 13 30  1  0  0  0  0
 13 31  1  0  0  0  0
 14 18  1  0  0  0  0
 14 15  1  0  0  0  0
 14 32  1  0  0  0  0
 15 16  1  0  0  0  0
 15 33  1  0  0  0  0
 15 34  1  0  0  0  0
 16 17  1  0  0  0  0
 16 35  1  0  0  0  0
 16 36  1  0  0  0  0
 17 18  1  0  0  0  0
 18 37  1  0  0  0  0
 18 38  1  0  0  0  0
M  END
> <s_m_source_file>
AV-unprocessed.smi

> <i_m_source_file_index>
3292

> <i_lp_mmshare_version>
43012

> <i_f3d_flags>
0

> <s_epik_input>
W2NIXTFuW2NIXVtjSF1uMVtDSDJdW0NAQEhdKFtDSDNdKVtOSF1DKD1PKVtOSF1bQ0gyXVtDQEBIXTJbQ0gyXVtDSDJdT1tDSDJdMg==

> <s_epik_cmdline>
J2VwaWtfcHl0aG9uJywgJy1waCcsICc3LjAnLCAnLXRuJywgJzgnLCAnLW1hJywgJzIwMCcsICctbWV0YWxfYmluZGluZycsICctaW1hZScsICc8aW5maWxlLm1hZT4nLCAnLW9tYWUnLCAnPG91dGZpbGUubWFlPic=

> <r_lp_tautomer_probability>
1

> <r_epik_Ionization_Penalty>
0.621291

> <r_epik_Ionization_Penalty_Charging>
0.621234

> <r_epik_Ionization_Penalty_Neutral>
5.72199e-05

> <r_epik_State_Penalty>
0.637278

> <r_epik_Charging_Adjusted_Penalty>
1.25851

> <i_epik_Tot_Q>
0

> <i_epik_Tot_abs_Q>
0

> <r_epik_Metal_State_Penalty>
0.306757

> <b_epik_Metal_Only>
0

> <s_lp_Force_Field>
OPLS_2005

> <r_lp_Energy>
18.0177

> <b_lp_Chiralities_Consistent>
1

> <s_lp_Variant>
AV-unprocessed.smi:3292-5

> <Gold.Version>
5.8.1

> <Gold.Id.Protein>
6NUR|6NUR_protein|mol2

> <Gold.PLP.Fitness>
46.4369

> <Gold.PLP.PLP>
-31.8191

> <Gold.PLP.part.hbond>
-3.2308

> <Gold.PLP.part.metal>
0.0000

> <Gold.PLP.part.buried>
-2.1347

> <Gold.PLP.part.nonpolar>
-26.3276

> <Gold.PLP.part.repulsive>
0.3690

> <Gold.PLP.ligand.clash>
0.0000

> <Gold.PLP.ligand.torsion>
0.2166

> <Gold.PLP.Chemscore.Hbond>
3.0000

> <Gold.PLP.Chemscore.CHOScore>
2.0000

> <Gold.PLP.Chemscore.Metal>
0.0000

> <Gold.Chemscore.Hbonds>
donor molecule, donor type, donor heavy atom, donor atom, acceptor molecule, acceptor atom, score
      L1  H     9    28       P1  7948  0.85
      L1  H    12    29       P1  7948  0.95
      P1  H  7989  7998       L1    17  0.95
      L1  C     5    25       P1  7948  1.00
      L1  C     6    26       P1 10171  1.00

> <Gold.PLP.Chemscore.Internal.Correction>
0.0510

> <Gold.Rescore>
     Score         DG    S(hbond)    S(metal)    S(lipo)     H(rot)  DE(clash)    DE(int)     intcor
     12.38     -14.05       2.24        0.00      56.50       2.16       0.06       1.61       ----

> <Gold.Chemscore.Fitness>
12.3772

> <Gold.Chemscore.DG>
-14.0451

> <Gold.Chemscore.ZeroCoef>
-5.4800

> <Gold.Chemscore.Hbond>
2.2388

> <Gold.Chemscore.Metal>
0.0000

> <Gold.Chemscore.Lipo>
56.5046

> <Gold.Chemscore.Internal_Hbond>
0.0000

> <Gold.Chemscore.DEClash>
0.0572

> <Gold.Chemscore.DEInternal>
1.6106

> <Gold.Chemscore.Rot>
2.1577

> <Gold.Chemscore.Internal.Correction>
   9.000000E+99

> <Gold.Chemscore.Hbonds>
donor molecule, donor type, donor heavy atom, donor atom, acceptor molecule, acceptor atom, score
      L1  H     9    28       P1  7948  0.14
      L1  H    12    29       P1  7948  0.21
      P1  H  7989  7998       L1    17  0.21

> <Gold.Chemscore.Hbond.Weighted>
-7.4777

> <Gold.Chemscore.Metal.Weighted>
-0.0000

> <Gold.Chemscore.Lipo.Weighted>
-6.6110

> <Gold.Chemscore.Internal_Hbond.Weighted>
0.0000

> <Gold.Chemscore.DEClash.Weighted>
0.0572

> <Gold.Chemscore.DEInternal.Weighted>
1.6106

> <Gold.Chemscore.Rot.Weighted>
5.5237

> <Gold.Chemscore.Internal.Correction.Weighted>
   9.000000E+99

> <Gold.Protein.RotatedTorsions>
[ 6907 6896 6895 6894 ] final   68.10 input  -60.11 | X-H torsion
[ 7974 7965 7964 7962 ] final  151.10 input  175.53 | X-H torsion
[ 8008 7997 7996 7995 ] final   63.19 input   59.86 | X-H torsion
[ 10167 10162 10161 10158 ] final  163.98 input  -65.29 | X-H torsion
[ 10718 10713 10712 10709 ] final   70.06 input   66.30 | X-H torsion
[ 10763 10752 10751 10750 ] final   58.89 input  -60.55 | X-H torsion
[ 11005 11000 10999 10996 ] final  128.28 input  -57.11 | X-H torsion

> <Gold.Protein.ActiveResidues>
 VAL166  LYS551  ARG553  GLY616  TRP617  ASP618  TYR619  PRO620  LYS621  CYS622 
 ASP623  PHE694  ASN695  SER759  ASP760  ASP761  ALA762  ILE779  LEU786  VAL792 
 PHE793  MET794  SER795  GLU796  ALA797  LYS798  CYS799  TRP800  GLU811  SER814 

> <Gold.Protein.RotatedAtoms>
  152.4597  134.5211  159.9782 H   0  0  0  0  0  0  0  0  0  0  0  0  # atno 6907 bound_to 6896
  151.5263  133.3451  159.2918 H   0  0  0  0  0  0  0  0  0  0  0  0  # atno 6908 bound_to 6896
  150.8556  134.7923  159.7105 H   0  0  0  0  0  0  0  0  0  0  0  0  # atno 6909 bound_to 6896
  144.8317  139.6494  143.6056 H   0  0  0  0  0  0  0  0  0  0  0  0  # atno 7974 bound_to 7965
  155.6263  140.3496  155.4668 H   0  0  0  0  0  0  0  0  0  0  0  0  # atno 8008 bound_to 7997
  156.0039  140.1219  157.0544 H   0  0  0  0  0  0  0  0  0  0  0  0  # atno 8009 bound_to 7997
  154.4258  140.1095  156.5721 H   0  0  0  0  0  0  0  0  0  0  0  0  # atno 8010 bound_to 7997
  139.4882  144.4282  151.9103 H   0  0  0  0  0  0  0  0  0  0  0  0  # atno 10167 bound_to 10162
  157.6380  130.9458  150.0599 H   0  0  0  0  0  0  0  0  0  0  0  0  # atno 10718 bound_to 10713
  152.9881  135.5591  154.5626 H   0  0  0  0  0  0  0  0  0  0  0  0  # atno 10763 bound_to 10752
  154.5042  135.2799  155.1398 H   0  0  0  0  0  0  0  0  0  0  0  0  # atno 10764 bound_to 10752
  154.2816  135.6343  153.5402 H   0  0  0  0  0  0  0  0  0  0  0  0  # atno 10765 bound_to 10752
  139.9552  134.9614  156.8979 H   0  0  0  0  0  0  0  0  0  0  0  0  # atno 11005 bound_to 11000
  146.2619  139.6430  142.9356 LP  0  0  0  0  0  0  0  0  0  0  0  0  # atno 17320 bound_to 7965
  145.4882  141.0438  143.2608 LP  0  0  0  0  0  0  0  0  0  0  0  0  # atno 17321 bound_to 7965
  140.3728  144.2833  150.5918 LP  0  0  0  0  0  0  0  0  0  0  0  0  # atno 17342 bound_to 10162
  140.5303  143.2245  151.8249 LP  0  0  0  0  0  0  0  0  0  0  0  0  # atno 17343 bound_to 10162
  156.1635  130.3644  149.9266 LP  0  0  0  0  0  0  0  0  0  0  0  0  # atno 17370 bound_to 10713
  156.7258  130.9024  151.3622 LP  0  0  0  0  0  0  0  0  0  0  0  0  # atno 17371 bound_to 10713
  140.5625  134.0521  155.7403 LP  0  0  0  0  0  0  0  0  0  0  0  0  # atno 17394 bound_to 11000
  141.1222  133.9442  157.2706 LP  0  0  0  0  0  0  0  0  0  0  0  0  # atno 17395 bound_to 11000

$$$$
