AV-unprocessed.smi:3033|AV-procd|sdf|11576|dock4
  -GOLD-   2272016543D 1   1.00000     0.00000
 Structure written by MMmdl.
 32 33  0  0  0  0  0  0  0  0  2 V2000
  150.8249  144.4838  158.6933 C   0  0  0  0  0  0  0  0  0  0  0  0
  151.4892  144.3759  159.9440 O   0  0  0  0  0  0  0  0  0  0  0  0
  152.2264  143.2375  160.1904 C   0  0  0  0  0  0  0  0  0  0  0  0
  152.8564  143.1426  161.4478 C   0  0  0  0  0  0  0  0  0  0  0  0
  153.6236  142.0119  161.7850 C   0  0  0  0  0  0  0  0  0  0  0  0
  153.7728  140.9614  160.8616 C   0  0  0  0  0  0  0  0  0  0  0  0
  153.1574  141.0406  159.5938 C   0  0  0  0  0  0  0  0  0  0  0  0
  153.2985  139.9099  158.5847 C   0  0  1  0  0  0  0  0  0  0  0  0
  154.2960  138.9845  158.9724 O   0  0  0  0  0  0  0  0  0  0  0  0
  151.9629  139.1555  158.4149 C   0  0  0  0  0  0  0  0  0  0  0  0
  151.1745  139.6721  157.2865 N   0  0  0  0  0  0  0  0  0  0  0  0
  149.8375  140.0229  157.5369 C   0  0  0  0  0  0  0  0  0  0  0  0
  149.0318  140.5058  156.5711 C   0  0  0  0  0  0  0  0  0  0  0  0
  147.3903  140.9266  156.9080 Cl  0  0  0  0  0  0  0  0  0  0  0  0
  149.5880  140.6611  155.2283 C   0  0  0  0  0  0  0  0  0  0  0  0
  148.8819  141.1051  154.3241 O   0  0  0  0  0  0  0  0  0  0  0  0
  150.8902  140.2983  155.0353 N   0  5  0  0  0  0  0  0  0  0  0  0
  151.6923  139.8056  156.0291 C   0  0  0  0  0  0  0  0  0  0  0  0
  152.8620  139.4759  155.8291 O   0  0  0  0  0  0  0  0  0  0  0  0
  152.3830  142.1740  159.2657 C   0  0  0  0  0  0  0  0  0  0  0  0
  150.2879  145.4312  158.6518 H   0  0  0  0  0  0  0  0  0  0  0  0
  150.0945  143.6845  158.5600 H   0  0  0  0  0  0  0  0  0  0  0  0
  151.5323  144.4695  157.8631 H   0  0  0  0  0  0  0  0  0  0  0  0
  152.7472  143.9440  162.1636 H   0  0  0  0  0  0  0  0  0  0  0  0
  154.0962  141.9502  162.7541 H   0  0  0  0  0  0  0  0  0  0  0  0
  154.3585  140.0949  161.1319 H   0  0  0  0  0  0  0  0  0  0  0  0
  153.6098  140.3437  157.6335 H   0  0  0  0  0  0  0  0  0  0  0  0
  153.9280  138.1154  158.9301 H   0  0  0  0  0  0  0  0  0  0  0  0
  152.1360  138.0817  158.3250 H   0  0  0  0  0  0  0  0  0  0  0  0
  151.3663  139.2629  159.3231 H   0  0  0  0  0  0  0  0  0  0  0  0
  149.5085  139.8709  158.5545 H   0  0  0  0  0  0  0  0  0  0  0  0
  151.9121  142.2054  158.2947 H   0  0  0  0  0  0  0  0  0  0  0  0
  1  2  1  0  0  0  0
  1 21  1  0  0  0  0
  1 22  1  0  0  0  0
  1 23  1  0  0  0  0
  2  3  1  0  0  0  0
  3 20  1  0  0  0  0
  3  4  2  0  0  0  0
  4  5  1  0  0  0  0
  4 24  1  0  0  0  0
  5  6  2  0  0  0  0
  5 25  1  0  0  0  0
  6  7  1  0  0  0  0
  6 26  1  0  0  0  0
  7  8  1  0  0  0  0
  7 20  2  0  0  0  0
  8  9  1  0  0  0  0
  8 10  1  0  0  0  0
  8 27  1  0  0  0  0
  9 28  1  0  0  0  0
 10 11  1  0  0  0  0
 10 29  1  0  0  0  0
 10 30  1  0  0  0  0
 11 18  1  0  0  0  0
 11 12  1  0  0  0  0
 12 13  2  0  0  0  0
 12 31  1  0  0  0  0
 13 14  1  0  0  0  0
 13 15  1  0  0  0  0
 15 16  2  0  0  0  0
 15 17  1  0  0  0  0
 17 18  1  0  0  0  0
 18 19  2  0  0  0  0
 20 32  1  0  0  0  0
M  CHG  1  17  -1
M  END
> <s_m_source_file>
AV-unprocessed.smi

> <i_m_source_file_index>
3033

> <i_lp_mmshare_version>
43012

> <i_f3d_flags>
0

> <s_epik_input>
W0NIM11PYzFbY0hdW2NIXVtjSF1jKFtjSF0xKVtDQEhdKFtPSF0pW0NIMl1uMltjSF1jKENsKWMoPU8pW25IXWMyPU8=

> <s_epik_cmdline>
J2VwaWtfcHl0aG9uJywgJy1waCcsICc3LjAnLCAnLXRuJywgJzgnLCAnLW1hJywgJzIwMCcsICctbWV0YWxfYmluZGluZycsICctaW1hZScsICc8aW5maWxlLm1hZT4nLCAnLW9tYWUnLCAnPG91dGZpbGUubWFlPic=

> <r_lp_tautomer_probability>
1

> <r_epik_Ionization_Penalty>
1.7979

> <r_epik_Ionization_Penalty_Charging>
3.23819e-08

> <r_epik_Ionization_Penalty_Neutral>
1.7979

> <r_epik_State_Penalty>
1.91135

> <r_epik_Charging_Adjusted_Penalty>
1.91135

> <i_epik_Tot_Q>
-1

> <i_epik_Tot_abs_Q>
1

> <r_epik_Metal_State_Penalty>
0.014155

> <b_epik_Metal_Only>
0

> <s_lp_Force_Field>
OPLS_2005

> <r_lp_Energy>
25.1118

> <b_lp_Chiralities_Consistent>
1

> <s_lp_Variant>
AV-unprocessed.smi:3033-4

> <Gold.Version>
5.8.1

> <Gold.Id.Protein>
6NUR|6NUR_protein|mol2

> <Gold.PLP.Fitness>
47.6545

> <Gold.PLP.PLP>
-41.0023

> <Gold.PLP.part.hbond>
-3.9990

> <Gold.PLP.part.metal>
0.0000

> <Gold.PLP.part.buried>
-5.5491

> <Gold.PLP.part.nonpolar>
-30.9970

> <Gold.PLP.part.repulsive>
0.2766

> <Gold.PLP.ligand.clash>
0.0000

> <Gold.PLP.ligand.torsion>
0.7637

> <Gold.PLP.Chemscore.Hbond>
2.7137

> <Gold.PLP.Chemscore.CHOScore>
0.0000

> <Gold.PLP.Chemscore.Metal>
0.0000

> <Gold.Chemscore.Hbonds>
donor molecule, donor type, donor heavy atom, donor atom, acceptor molecule, acceptor atom, score
      P1  H  7989  7998       L1    17  1.00
      P1  H  7997  8010       L1    19  1.00

> <Gold.PLP.Chemscore.Internal.Correction>
0.0386

> <Gold.Rescore>
     Score         DG    S(hbond)    S(metal)    S(lipo)     H(rot)  DE(clash)    DE(int)     intcor
     16.04     -18.39       2.50        0.00      92.49       2.45       0.04       2.31       ----

> <Gold.Chemscore.Fitness>
16.0422

> <Gold.Chemscore.DG>
-18.3906

> <Gold.Chemscore.ZeroCoef>
-5.4800

> <Gold.Chemscore.Hbond>
2.5025

> <Gold.Chemscore.Metal>
0.0000

> <Gold.Chemscore.Lipo>
92.4942

> <Gold.Chemscore.Internal_Hbond>
0.0000

> <Gold.Chemscore.DEClash>
0.0374

> <Gold.Chemscore.DEInternal>
2.3110

> <Gold.Chemscore.Rot>
2.4491

> <Gold.Chemscore.Internal.Correction>
   9.000000E+99

> <Gold.Chemscore.Hbonds>
donor molecule, donor type, donor heavy atom, donor atom, acceptor molecule, acceptor atom, score
      P1  H  7989  7998       L1    17  0.87
      P1  H  7997  8010       L1    19  1.00

> <Gold.Chemscore.Hbond.Weighted>
-8.3584

> <Gold.Chemscore.Metal.Weighted>
-0.0000

> <Gold.Chemscore.Lipo.Weighted>
-10.8218

> <Gold.Chemscore.Internal_Hbond.Weighted>
0.0000

> <Gold.Chemscore.DEClash.Weighted>
0.0374

> <Gold.Chemscore.DEInternal.Weighted>
2.3110

> <Gold.Chemscore.Rot.Weighted>
6.2696

> <Gold.Chemscore.Internal.Correction.Weighted>
   9.000000E+99

> <Gold.Protein.RotatedTorsions>
[ 6907 6896 6895 6894 ] final  -58.70 input  -60.11 | X-H torsion
[ 7974 7965 7964 7962 ] final  -40.51 input  175.53 | X-H torsion
[ 8008 7997 7996 7995 ] final   80.25 input   59.86 | X-H torsion
[ 10167 10162 10161 10158 ] final  -76.27 input  -65.29 | X-H torsion
[ 10718 10713 10712 10709 ] final  -85.26 input   66.30 | X-H torsion
[ 10763 10752 10751 10750 ] final -118.53 input  -60.55 | X-H torsion
[ 11005 11000 10999 10996 ] final -115.15 input  -57.11 | X-H torsion

> <Gold.Protein.ActiveResidues>
 VAL166  LYS551  ARG553  GLY616  TRP617  ASP618  TYR619  PRO620  LYS621  CYS622 
 ASP623  PHE694  ASN695  SER759  ASP760  ASP761  ALA762  ILE779  LEU786  VAL792 
 PHE793  MET794  SER795  GLU796  ALA797  LYS798  CYS799  TRP800  GLU811  SER814 

> <Gold.Protein.RotatedAtoms>
  150.7986  134.7064  159.6578 H   0  0  0  0  0  0  0  0  0  0  0  0  # atno 6907 bound_to 6896
  152.4101  134.6135  160.0042 H   0  0  0  0  0  0  0  0  0  0  0  0  # atno 6908 bound_to 6896
  151.6381  133.3291  159.3160 H   0  0  0  0  0  0  0  0  0  0  0  0  # atno 6909 bound_to 6896
  146.0298  140.6746  142.9138 H   0  0  0  0  0  0  0  0  0  0  0  0  # atno 7974 bound_to 7965
  155.8809  140.3444  155.5887 H   0  0  0  0  0  0  0  0  0  0  0  0  # atno 8008 bound_to 7997
  155.7721  140.0847  157.2121 H   0  0  0  0  0  0  0  0  0  0  0  0  # atno 8009 bound_to 7997
  154.4024  140.1516  156.2941 H   0  0  0  0  0  0  0  0  0  0  0  0  # atno 8010 bound_to 7997
  140.4871  143.2388  151.7966 H   0  0  0  0  0  0  0  0  0  0  0  0  # atno 10167 bound_to 10162
  155.9998  130.4725  150.4535 H   0  0  0  0  0  0  0  0  0  0  0  0  # atno 10718 bound_to 10713
  154.8590  135.4270  154.2154 H   0  0  0  0  0  0  0  0  0  0  0  0  # atno 10763 bound_to 10752
  153.3171  135.6979  153.7070 H   0  0  0  0  0  0  0  0  0  0  0  0  # atno 10764 bound_to 10752
  153.6139  135.3514  155.2962 H   0  0  0  0  0  0  0  0  0  0  0  0  # atno 10765 bound_to 10752
  141.0506  133.9692  157.2842 H   0  0  0  0  0  0  0  0  0  0  0  0  # atno 11005 bound_to 11000
  144.7025  140.3715  143.7144 LP  0  0  0  0  0  0  0  0  0  0  0  0  # atno 17320 bound_to 7965
  145.7059  139.1672  143.2566 LP  0  0  0  0  0  0  0  0  0  0  0  0  # atno 17321 bound_to 7965
  139.4844  144.4697  151.9440 LP  0  0  0  0  0  0  0  0  0  0  0  0  # atno 17342 bound_to 10162
  140.3783  144.2768  150.5911 LP  0  0  0  0  0  0  0  0  0  0  0  0  # atno 17343 bound_to 10162
  157.2565  131.0558  151.2347 LP  0  0  0  0  0  0  0  0  0  0  0  0  # atno 17370 bound_to 10713
  157.3477  130.7066  149.6421 LP  0  0  0  0  0  0  0  0  0  0  0  0  # atno 17371 bound_to 10713
  139.9348  135.0197  156.8518 LP  0  0  0  0  0  0  0  0  0  0  0  0  # atno 17394 bound_to 11000
  140.6062  134.0125  155.7557 LP  0  0  0  0  0  0  0  0  0  0  0  0  # atno 17395 bound_to 11000

$$$$
