AV-unprocessed.smi:1135|AV-procd|sdf|4860|dock10
  -GOLD-   22720 3433D 1   1.00000     0.00000
 Structure written by MMmdl.
 46 47  0  0  0  0  0  0  0  0  2 V2000
  150.3905  141.9157  157.3613 C   0  0  0  0  0  0  0  0  0  0  0  0
  149.3848  141.2659  156.4004 C   0  0  2  0  0  0  0  0  0  0  0  0
  149.5917  141.7473  154.9552 C   0  0  0  0  0  0  0  0  0  0  0  0
  148.5856  141.0961  153.9895 C   0  0  0  0  0  0  0  0  0  0  0  0
  147.1040  141.2937  154.3995 C   0  0  1  0  0  0  0  0  0  0  0  0
  146.6692  142.7592  154.1600 C   0  0  0  0  0  0  0  0  0  0  0  0
  146.3238  140.3984  153.5346 N   0  0  0  0  0  0  0  0  0  0  0  0
  146.6525  139.1709  153.0996 C   0  0  0  0  0  0  0  0  0  0  0  0
  147.6736  138.5639  153.4229 O   0  0  0  0  0  0  0  0  0  0  0  0
  145.7522  138.6990  152.2248 N   0  0  0  0  0  0  0  0  0  0  0  0
  145.8771  137.4466  151.4813 C   0  0  0  0  0  0  0  0  0  0  0  0
  144.9618  136.3355  152.0377 C   0  0  0  0  0  0  0  0  0  0  0  0
  145.1996  134.9717  151.4109 C   0  0  0  0  0  0  0  0  0  0  0  0
  144.1504  134.2054  150.8569 C   0  0  0  0  0  0  0  0  0  0  0  0
  144.4468  132.9673  150.2497 C   0  0  0  0  0  0  0  0  0  0  0  0
  145.7833  132.5185  150.2147 C   0  0  0  0  0  0  0  0  0  0  0  0
  146.7906  133.3205  150.7890 C   0  0  0  0  0  0  0  0  0  0  0  0
  146.4671  134.5021  151.3590 N   0  3  0  0  0  0  0  0  0  0  0  0
  146.9228  140.8740  155.8857 C   0  0  0  0  0  0  0  0  0  0  0  0
  147.9357  141.5306  156.8390 C   0  0  0  0  0  0  0  0  0  0  0  0
  150.2731  142.9996  157.3849 H   0  0  0  0  0  0  0  0  0  0  0  0
  151.4163  141.6979  157.0626 H   0  0  0  0  0  0  0  0  0  0  0  0
  150.2576  141.5443  158.3777 H   0  0  0  0  0  0  0  0  0  0  0  0
  149.5547  140.1883  156.4261 H   0  0  0  0  0  0  0  0  0  0  0  0
  149.5049  142.8331  154.9079 H   0  0  0  0  0  0  0  0  0  0  0  0
  150.6057  141.5123  154.6301 H   0  0  0  0  0  0  0  0  0  0  0  0
  148.7509  141.4761  152.9802 H   0  0  0  0  0  0  0  0  0  0  0  0
  148.8090  140.0286  153.9444 H   0  0  0  0  0  0  0  0  0  0  0  0
  147.2787  143.4637  154.7246 H   0  0  0  0  0  0  0  0  0  0  0  0
  145.6356  142.9325  154.4588 H   0  0  0  0  0  0  0  0  0  0  0  0
  146.7553  143.0296  153.1071 H   0  0  0  0  0  0  0  0  0  0  0  0
  145.4525  140.7797  153.1957 H   0  0  0  0  0  0  0  0  0  0  0  0
  144.9407  139.2663  152.0264 H   0  0  0  0  0  0  0  0  0  0  0  0
  145.6673  137.6116  150.4231 H   0  0  0  0  0  0  0  0  0  0  0  0
  146.9166  137.1226  151.5348 H   0  0  0  0  0  0  0  0  0  0  0  0
  145.0994  136.2546  153.1167 H   0  0  0  0  0  0  0  0  0  0  0  0
  143.9181  136.6140  151.8878 H   0  0  0  0  0  0  0  0  0  0  0  0
  143.1330  134.5676  150.8814 H   0  0  0  0  0  0  0  0  0  0  0  0
  143.6590  132.3719  149.8119 H   0  0  0  0  0  0  0  0  0  0  0  0
  146.0321  131.5747  149.7521 H   0  0  0  0  0  0  0  0  0  0  0  0
  147.8384  133.0580  150.8039 H   0  0  0  0  0  0  0  0  0  0  0  0
  145.9154  141.1039  156.2331 H   0  0  0  0  0  0  0  0  0  0  0  0
  147.0288  139.7912  155.9703 H   0  0  0  0  0  0  0  0  0  0  0  0
  147.7791  141.1493  157.8486 H   0  0  0  0  0  0  0  0  0  0  0  0
  147.7532  142.6046  156.8900 H   0  0  0  0  0  0  0  0  0  0  0  0
  147.2145  135.0718  151.7561 H   0  0  0  0  0  0  0  0  0  0  0  0
  1  2  1  0  0  0  0
  1 21  1  0  0  0  0
  1 22  1  0  0  0  0
  1 23  1  0  0  0  0
  2 20  1  0  0  0  0
  2  3  1  0  0  0  0
  2 24  1  0  0  0  0
  3  4  1  0  0  0  0
  3 25  1  0  0  0  0
  3 26  1  0  0  0  0
  4  5  1  0  0  0  0
  4 27  1  0  0  0  0
  4 28  1  0  0  0  0
  5  6  1  0  0  0  0
  5  7  1  0  0  0  0
  5 19  1  0  0  0  0
  6 29  1  0  0  0  0
  6 30  1  0  0  0  0
  6 31  1  0  0  0  0
  7  8  1  0  0  0  0
  7 32  1  0  0  0  0
  8  9  2  0  0  0  0
  8 10  1  0  0  0  0
 10 11  1  0  0  0  0
 10 33  1  0  0  0  0
 11 12  1  0  0  0  0
 11 34  1  0  0  0  0
 11 35  1  0  0  0  0
 12 13  1  0  0  0  0
 12 36  1  0  0  0  0
 12 37  1  0  0  0  0
 13 18  1  0  0  0  0
 13 14  2  0  0  0  0
 14 15  1  0  0  0  0
 14 38  1  0  0  0  0
 15 16  2  0  0  0  0
 15 39  1  0  0  0  0
 16 17  1  0  0  0  0
 16 40  1  0  0  0  0
 17 18  2  0  0  0  0
 17 41  1  0  0  0  0
 18 46  1  0  0  0  0
 19 20  1  0  0  0  0
 19 42  1  0  0  0  0
 19 43  1  0  0  0  0
 20 44  1  0  0  0  0
 20 45  1  0  0  0  0
M  CHG  1  18   1
M  END
> <s_m_source_file>
AV-unprocessed.smi

> <i_m_source_file_index>
1135

> <i_lp_mmshare_version>
43012

> <i_f3d_flags>
0

> <s_epik_input>
W0NIMl0xW0NIMl1bQ0BIXShbQ0gzXSlbQ0gyXVtDSDJdW0NAQF0xKFtDSDNdKVtOSF1DKD1PKVtOSF1bQ0gyXVtDSDJdYzJbY0hdW2NIXVtjSF1bY0hdbjI=

> <s_epik_cmdline>
J2VwaWtfcHl0aG9uJywgJy1waCcsICc3LjAnLCAnLXRuJywgJzgnLCAnLW1hJywgJzIwMCcsICctbWV0YWxfYmluZGluZycsICctaW1hZScsICc8aW5maWxlLm1hZT4nLCAnLW9tYWUnLCAnPG91dGZpbGUubWFlPic=

> <r_epik_Ionization_Penalty>
1.55217

> <r_epik_Ionization_Penalty_Charging>
1.55211

> <r_epik_Ionization_Penalty_Neutral>
5.91929e-05

> <r_epik_State_Penalty>
1.64641

> <r_epik_Charging_Adjusted_Penalty>
3.19851

> <i_epik_Tot_Q>
1

> <i_epik_Tot_abs_Q>
1

> <r_epik_Metal_State_Penalty>
1.68848

> <b_epik_Metal_Only>
0

> <s_lp_Force_Field>
OPLS_2005

> <r_lp_Energy>
15.0823

> <b_lp_Chiralities_Consistent>
1

> <s_lp_Variant>
AV-unprocessed.smi:1135-3

> <Gold.Version>
5.8.1

> <Gold.Id.Protein>
6NUR|6NUR_protein|mol2

> <Gold.PLP.Fitness>
47.9194

> <Gold.PLP.PLP>
-37.2352

> <Gold.PLP.part.hbond>
-3.8585

> <Gold.PLP.part.metal>
0.0000

> <Gold.PLP.part.buried>
-2.2315

> <Gold.PLP.part.nonpolar>
-32.4163

> <Gold.PLP.part.repulsive>
0.5996

> <Gold.PLP.ligand.clash>
0.0000

> <Gold.PLP.ligand.torsion>
0.6635

> <Gold.PLP.Chemscore.Hbond>
4.0000

> <Gold.PLP.Chemscore.CHOScore>
0.0000

> <Gold.PLP.Chemscore.Metal>
0.0000

> <Gold.Chemscore.Hbonds>
donor molecule, donor type, donor heavy atom, donor atom, acceptor molecule, acceptor atom, score
      L1  H     7    32       P1 10175  0.99
      L1  H    10    33       P1 10175  1.00
      L1  H    18    46       P1  7948  1.92

> <Gold.PLP.Chemscore.Internal.Correction>
0.0111

> <Gold.Rescore>
     Score         DG    S(hbond)    S(metal)    S(lipo)     H(rot)  DE(clash)    DE(int)     intcor
     18.75     -21.60       2.77        0.00      91.63       1.51       0.88       1.97       ----

> <Gold.Chemscore.Fitness>
18.7462

> <Gold.Chemscore.DG>
-21.6037

> <Gold.Chemscore.ZeroCoef>
-5.4800

> <Gold.Chemscore.Hbond>
2.7738

> <Gold.Chemscore.Metal>
0.0000

> <Gold.Chemscore.Lipo>
91.6308

> <Gold.Chemscore.Internal_Hbond>
0.0000

> <Gold.Chemscore.DEClash>
0.8826

> <Gold.Chemscore.DEInternal>
1.9749

> <Gold.Chemscore.Rot>
1.5085

> <Gold.Chemscore.Internal.Correction>
   9.000000E+99

> <Gold.Chemscore.Hbonds>
donor molecule, donor type, donor heavy atom, donor atom, acceptor molecule, acceptor atom, score
      L1  H     7    32       P1 10175  0.66
      L1  H    10    33       P1 10175  0.97
      L1  H    18    46       P1  7948  0.83

> <Gold.Chemscore.Hbond.Weighted>
-9.2646

> <Gold.Chemscore.Metal.Weighted>
-0.0000

> <Gold.Chemscore.Lipo.Weighted>
-10.7208

> <Gold.Chemscore.Internal_Hbond.Weighted>
0.0000

> <Gold.Chemscore.DEClash.Weighted>
0.8826

> <Gold.Chemscore.DEInternal.Weighted>
1.9749

> <Gold.Chemscore.Rot.Weighted>
3.8617

> <Gold.Chemscore.Internal.Correction.Weighted>
   9.000000E+99

> <Gold.Protein.RotatedTorsions>
[ 6907 6896 6895 6894 ] final  -52.30 input  -60.11 | X-H torsion
[ 7974 7965 7964 7962 ] final -115.44 input  175.53 | X-H torsion
[ 8008 7997 7996 7995 ] final  -13.27 input   59.86 | X-H torsion
[ 10167 10162 10161 10158 ] final  -21.54 input  -65.29 | X-H torsion
[ 10718 10713 10712 10709 ] final  -66.95 input   66.30 | X-H torsion
[ 10763 10752 10751 10750 ] final   33.95 input  -60.55 | X-H torsion
[ 11005 11000 10999 10996 ] final  162.77 input  -57.11 | X-H torsion

> <Gold.Protein.ActiveResidues>
 VAL166  LYS551  ARG553  GLY616  TRP617  ASP618  TYR619  PRO620  LYS621  CYS622 
 ASP623  PHE694  ASN695  SER759  ASP760  ASP761  ALA762  ILE779  LEU786  VAL792 
 PHE793  MET794  SER795  GLU796  ALA797  LYS798  CYS799  TRP800  GLU811  SER814 

> <Gold.Protein.RotatedAtoms>
  150.8531  134.7861  159.7023 H   0  0  0  0  0  0  0  0  0  0  0  0  # atno 6907 bound_to 6896
  152.4590  134.5224  159.9796 H   0  0  0  0  0  0  0  0  0  0  0  0  # atno 6908 bound_to 6896
  151.5341  133.3406  159.2959 H   0  0  0  0  0  0  0  0  0  0  0  0  # atno 6909 bound_to 6896
  145.1084  140.8596  143.3884 H   0  0  0  0  0  0  0  0  0  0  0  0  # atno 7974 bound_to 7965
  154.5306  140.2254  155.8811 H   0  0  0  0  0  0  0  0  0  0  0  0  # atno 8008 bound_to 7997
  156.1760  140.3111  155.9024 H   0  0  0  0  0  0  0  0  0  0  0  0  # atno 8009 bound_to 7997
  155.3459  140.0453  157.3036 H   0  0  0  0  0  0  0  0  0  0  0  0  # atno 8010 bound_to 7997
  140.7282  143.4618  151.0369 H   0  0  0  0  0  0  0  0  0  0  0  0  # atno 10167 bound_to 10162
  156.0584  130.4270  150.1783 H   0  0  0  0  0  0  0  0  0  0  0  0  # atno 10718 bound_to 10713
  153.0187  135.6373  154.1591 H   0  0  0  0  0  0  0  0  0  0  0  0  # atno 10763 bound_to 10752
  154.1328  135.2839  155.3182 H   0  0  0  0  0  0  0  0  0  0  0  0  # atno 10764 bound_to 10752
  154.6182  135.5534  153.7608 H   0  0  0  0  0  0  0  0  0  0  0  0  # atno 10765 bound_to 10752
  140.2291  134.8138  157.3298 H   0  0  0  0  0  0  0  0  0  0  0  0  # atno 11005 bound_to 11000
  145.0875  139.2914  143.5752 LP  0  0  0  0  0  0  0  0  0  0  0  0  # atno 17320 bound_to 7965
  146.3527  140.0401  142.8643 LP  0  0  0  0  0  0  0  0  0  0  0  0  # atno 17321 bound_to 7965
  139.8303  143.7699  152.3179 LP  0  0  0  0  0  0  0  0  0  0  0  0  # atno 17342 bound_to 10162
  139.7813  144.7443  151.0084 LP  0  0  0  0  0  0  0  0  0  0  0  0  # atno 17343 bound_to 10162
  156.9856  130.9877  151.3427 LP  0  0  0  0  0  0  0  0  0  0  0  0  # atno 17370 bound_to 10713
  157.5573  130.8222  149.8221 LP  0  0  0  0  0  0  0  0  0  0  0  0  # atno 17371 bound_to 10713
  140.1769  134.4538  155.7796 LP  0  0  0  0  0  0  0  0  0  0  0  0  # atno 17394 bound_to 11000
  141.2219  133.6966  156.7803 LP  0  0  0  0  0  0  0  0  0  0  0  0  # atno 17395 bound_to 11000

$$$$
