AV-unprocessed.smi:1920|AV-procd|sdf|7780|dock8
  -GOLD-   22720 9523D 1   1.00000     0.00000
 Structure written by MMmdl.
 37 38  0  0  0  0  0  0  0  0  2 V2000
  151.8233  139.5541  155.4891 C   0  0  0  0  0  0  0  0  0  0  0  0
  150.6275  140.4439  155.1241 C   0  0  1  0  0  0  0  0  0  0  0  0
  149.3002  139.6620  155.2194 C   0  0  0  0  0  0  0  0  0  0  0  0
  148.1712  140.3721  154.6087 N   0  0  0  0  0  0  0  0  0  0  0  0
  147.9009  141.7150  154.6768 C   0  0  0  0  0  0  0  0  0  0  0  0
  146.7487  141.9186  153.9622 C   0  0  0  0  0  0  0  0  0  0  0  0
  146.3696  140.6942  153.4811 N   0  3  0  0  0  0  0  0  0  0  0  0
  147.2374  139.7556  153.8725 C   0  0  0  0  0  0  0  0  0  0  0  0
  150.6157  141.6073  156.0101 N   0  0  0  0  0  0  0  0  0  0  0  0
  150.6913  141.5760  157.3503 C   0  0  0  0  0  0  0  0  0  0  0  0
  150.7903  140.5334  157.9977 O   0  0  0  0  0  0  0  0  0  0  0  0
  150.6559  142.9341  158.0615 C   0  0  0  0  0  0  0  0  0  0  0  0
  151.9787  143.3215  158.7606 C   0  0  1  0  0  0  0  0  0  0  0  0
  151.8855  144.5832  159.5846 C   0  0  0  0  0  0  0  0  0  0  0  0
  152.2644  144.4043  160.8476 C   0  0  0  0  0  0  0  0  0  0  0  0
  152.6864  142.9891  161.1268 C   0  0  0  0  0  0  0  0  0  0  0  0
  152.4556  142.2590  159.7845 C   0  0  0  0  0  0  0  0  0  0  0  0
  151.8846  138.6891  154.8281 H   0  0  0  0  0  0  0  0  0  0  0  0
  151.7478  139.1854  156.5128 H   0  0  0  0  0  0  0  0  0  0  0  0
  152.7624  140.1014  155.3998 H   0  0  0  0  0  0  0  0  0  0  0  0
  150.7732  140.7670  154.0918 H   0  0  0  0  0  0  0  0  0  0  0  0
  149.3884  138.7053  154.7027 H   0  0  0  0  0  0  0  0  0  0  0  0
  149.0543  139.4369  156.2587 H   0  0  0  0  0  0  0  0  0  0  0  0
  148.5283  142.4062  155.2210 H   0  0  0  0  0  0  0  0  0  0  0  0
  146.1862  142.8195  153.7647 H   0  0  0  0  0  0  0  0  0  0  0  0
  147.1871  138.7056  153.6452 H   0  0  0  0  0  0  0  0  0  0  0  0
  150.5309  142.5113  155.5675 H   0  0  0  0  0  0  0  0  0  0  0  0
  150.3879  143.7071  157.3392 H   0  0  0  0  0  0  0  0  0  0  0  0
  149.8501  142.9072  158.7957 H   0  0  0  0  0  0  0  0  0  0  0  0
  152.7586  143.4737  158.0129 H   0  0  0  0  0  0  0  0  0  0  0  0
  151.5626  145.5233  159.1643 H   0  0  0  0  0  0  0  0  0  0  0  0
  152.2884  145.1726  161.6064 H   0  0  0  0  0  0  0  0  0  0  0  0
  153.7348  142.9625  161.4253 H   0  0  0  0  0  0  0  0  0  0  0  0
  152.0837  142.5630  161.9293 H   0  0  0  0  0  0  0  0  0  0  0  0
  151.7107  141.4725  159.9139 H   0  0  0  0  0  0  0  0  0  0  0  0
  153.3706  141.7735  159.4429 H   0  0  0  0  0  0  0  0  0  0  0  0
  145.5504  140.5211  152.9120 H   0  0  0  0  0  0  0  0  0  0  0  0
  1  2  1  0  0  0  0
  1 18  1  0  0  0  0
  1 19  1  0  0  0  0
  1 20  1  0  0  0  0
  2  3  1  0  0  0  0
  2  9  1  0  0  0  0
  2 21  1  0  0  0  0
  3  4  1  0  0  0  0
  3 22  1  0  0  0  0
  3 23  1  0  0  0  0
  4  8  1  0  0  0  0
  4  5  1  0  0  0  0
  5  6  2  0  0  0  0
  5 24  1  0  0  0  0
  6  7  1  0  0  0  0
  6 25  1  0  0  0  0
  7  8  2  0  0  0  0
  7 37  1  0  0  0  0
  8 26  1  0  0  0  0
  9 10  1  0  0  0  0
  9 27  1  0  0  0  0
 10 11  2  0  0  0  0
 10 12  1  0  0  0  0
 12 13  1  0  0  0  0
 12 28  1  0  0  0  0
 12 29  1  0  0  0  0
 13 17  1  0  0  0  0
 13 14  1  0  0  0  0
 13 30  1  0  0  0  0
 14 15  2  0  0  0  0
 14 31  1  0  0  0  0
 15 16  1  0  0  0  0
 15 32  1  0  0  0  0
 16 17  1  0  0  0  0
 16 33  1  0  0  0  0
 16 34  1  0  0  0  0
 17 35  1  0  0  0  0
 17 36  1  0  0  0  0
M  CHG  1   7   1
M  END
> <s_m_source_file>
AV-unprocessed.smi

> <i_m_source_file_index>
1920

> <i_lp_mmshare_version>
43012

> <i_f3d_flags>
0

> <s_epik_input>
W2NIXTFuW2NIXVtjSF1uMVtDSDJdW0NAQEhdKFtDSDNdKVtOSF1DKD1PKVtDSDJdW0NAQEhdMltDSF09W0NIXVtDSDJdW0NIMl0y

> <s_epik_cmdline>
J2VwaWtfcHl0aG9uJywgJy1waCcsICc3LjAnLCAnLXRuJywgJzgnLCAnLW1hJywgJzIwMCcsICctbWV0YWxfYmluZGluZycsICctaW1hZScsICc8aW5maWxlLm1hZT4nLCAnLW9tYWUnLCAnPG91dGZpbGUubWFlPic=

> <r_lp_tautomer_probability>
1

> <r_epik_Ionization_Penalty>
0.24816

> <r_epik_Ionization_Penalty_Charging>
0

> <r_epik_Ionization_Penalty_Neutral>
0.24816

> <r_epik_State_Penalty>
0.2394

> <r_epik_Charging_Adjusted_Penalty>
0.2394

> <i_epik_Tot_Q>
1

> <i_epik_Tot_abs_Q>
1

> <r_epik_Metal_State_Penalty>
0.531457

> <b_epik_Metal_Only>
0

> <s_lp_Force_Field>
OPLS_2005

> <r_lp_Energy>
19.5873

> <b_lp_Chiralities_Consistent>
1

> <s_lp_Variant>
AV-unprocessed.smi:1920-4

> <Gold.Version>
5.8.1

> <Gold.Id.Protein>
6NUR|6NUR_protein|mol2

> <Gold.PLP.Fitness>
47.8435

> <Gold.PLP.PLP>
-39.8422

> <Gold.PLP.part.hbond>
-1.0000

> <Gold.PLP.part.metal>
0.0000

> <Gold.PLP.part.buried>
-3.9264

> <Gold.PLP.part.nonpolar>
-35.4644

> <Gold.PLP.part.repulsive>
0.1516

> <Gold.PLP.ligand.clash>
0.0000

> <Gold.PLP.ligand.torsion>
0.5129

> <Gold.PLP.Chemscore.Hbond>
2.0000

> <Gold.PLP.Chemscore.CHOScore>
1.0000

> <Gold.PLP.Chemscore.Metal>
0.0000

> <Gold.Chemscore.Hbonds>
donor molecule, donor type, donor heavy atom, donor atom, acceptor molecule, acceptor atom, score
      L1  H     7    37       P1 10175  2.00
      L1  C     5    24       P1  8028  1.00

> <Gold.PLP.Chemscore.Internal.Correction>
0.0272

> <Gold.Rescore>
     Score         DG    S(hbond)    S(metal)    S(lipo)     H(rot)  DE(clash)    DE(int)     intcor
     12.69     -15.56       0.98        0.00     102.23       2.01       1.00       1.87       ----

> <Gold.Chemscore.Fitness>
12.6889

> <Gold.Chemscore.DG>
-15.5597

> <Gold.Chemscore.ZeroCoef>
-5.4800

> <Gold.Chemscore.Hbond>
0.9798

> <Gold.Chemscore.Metal>
0.0000

> <Gold.Chemscore.Lipo>
102.2260

> <Gold.Chemscore.Internal_Hbond>
0.0000

> <Gold.Chemscore.DEClash>
0.9984

> <Gold.Chemscore.DEInternal>
1.8725

> <Gold.Chemscore.Rot>
2.0130

> <Gold.Chemscore.Internal.Correction>
   9.000000E+99

> <Gold.Chemscore.Hbonds>
donor molecule, donor type, donor heavy atom, donor atom, acceptor molecule, acceptor atom, score
      L1  H     7    37       P1 10175  0.77

> <Gold.Chemscore.Hbond.Weighted>
-3.2725

> <Gold.Chemscore.Metal.Weighted>
-0.0000

> <Gold.Chemscore.Lipo.Weighted>
-11.9604

> <Gold.Chemscore.Internal_Hbond.Weighted>
0.0000

> <Gold.Chemscore.DEClash.Weighted>
0.9984

> <Gold.Chemscore.DEInternal.Weighted>
1.8725

> <Gold.Chemscore.Rot.Weighted>
5.1533

> <Gold.Chemscore.Internal.Correction.Weighted>
   9.000000E+99

> <Gold.Protein.RotatedTorsions>
[ 6907 6896 6895 6894 ] final  132.36 input  -60.11 | X-H torsion
[ 7974 7965 7964 7962 ] final  -93.05 input  175.53 | X-H torsion
[ 8008 7997 7996 7995 ] final -109.88 input   59.86 | X-H torsion
[ 10167 10162 10161 10158 ] final  -38.68 input  -65.29 | X-H torsion
[ 10718 10713 10712 10709 ] final  -33.46 input   66.30 | X-H torsion
[ 10763 10752 10751 10750 ] final  -96.88 input  -60.55 | X-H torsion
[ 11005 11000 10999 10996 ] final  -26.97 input  -57.11 | X-H torsion

> <Gold.Protein.ActiveResidues>
 VAL166  LYS551  ARG553  GLY616  TRP617  ASP618  TYR619  PRO620  LYS621  CYS622 
 ASP623  PHE694  ASN695  SER759  ASP760  ASP761  ALA762  ILE779  LEU786  VAL792 
 PHE793  MET794  SER795  GLU796  ALA797  LYS798  CYS799  TRP800  GLU811  SER814 

> <Gold.Protein.RotatedAtoms>
  152.3332  133.5982  159.5824 H   0  0  0  0  0  0  0  0  0  0  0  0  # atno 6907 bound_to 6896
  150.7435  133.9835  159.3593 H   0  0  0  0  0  0  0  0  0  0  0  0  # atno 6908 bound_to 6896
  151.7708  135.0787  160.0410 H   0  0  0  0  0  0  0  0  0  0  0  0  # atno 6909 bound_to 6896
  145.3916  140.9529  143.2337 H   0  0  0  0  0  0  0  0  0  0  0  0  # atno 7974 bound_to 7965
  154.9661  140.0398  157.2212 H   0  0  0  0  0  0  0  0  0  0  0  0  # atno 8008 bound_to 7997
  154.7844  140.2824  155.6017 H   0  0  0  0  0  0  0  0  0  0  0  0  # atno 8009 bound_to 7997
  156.2941  140.2585  156.2677 H   0  0  0  0  0  0  0  0  0  0  0  0  # atno 8010 bound_to 7997
  140.7085  143.3261  151.2676 H   0  0  0  0  0  0  0  0  0  0  0  0  # atno 10167 bound_to 10162
  156.3624  130.4326  149.7612 H   0  0  0  0  0  0  0  0  0  0  0  0  # atno 10718 bound_to 10713
  154.7279  135.5067  153.8916 H   0  0  0  0  0  0  0  0  0  0  0  0  # atno 10763 bound_to 10752
  153.0922  135.6662  153.9840 H   0  0  0  0  0  0  0  0  0  0  0  0  # atno 10764 bound_to 10752
  153.9648  135.3044  155.3410 H   0  0  0  0  0  0  0  0  0  0  0  0  # atno 10765 bound_to 10752
  140.9077  133.7481  156.0628 H   0  0  0  0  0  0  0  0  0  0  0  0  # atno 11005 bound_to 11000
  144.8436  139.5433  143.6889 LP  0  0  0  0  0  0  0  0  0  0  0  0  # atno 17320 bound_to 7965
  146.2795  139.6839  142.9239 LP  0  0  0  0  0  0  0  0  0  0  0  0  # atno 17321 bound_to 7965
  139.6730  143.9987  152.2764 LP  0  0  0  0  0  0  0  0  0  0  0  0  # atno 17342 bound_to 10162
  139.9591  144.6569  150.8096 LP  0  0  0  0  0  0  0  0  0  0  0  0  # atno 17343 bound_to 10162
  156.4771  130.8024  151.3039 LP  0  0  0  0  0  0  0  0  0  0  0  0  # atno 17370 bound_to 10713
  157.7475  131.0017  150.2975 LP  0  0  0  0  0  0  0  0  0  0  0  0  # atno 17371 bound_to 10713
  140.8150  134.3355  157.5400 LP  0  0  0  0  0  0  0  0  0  0  0  0  # atno 17394 bound_to 11000
  139.8752  134.9276  156.3429 LP  0  0  0  0  0  0  0  0  0  0  0  0  # atno 17395 bound_to 11000

$$$$
