AV-unprocessed.smi:2325|AV-procd|sdf|9296|dock3
  -GOLD-   2272012513D 1   1.00000     0.00000
 Structure written by MMmdl.
 40 41  0  0  0  0  0  0  0  0  1 V2000
  149.6653  138.8219  154.3934 C   0  0  0  0  0  0  0  0  0  0  0  0
  148.5679  139.6848  154.0010 N   0  0  0  0  0  0  0  0  0  0  0  0
  148.4665  140.9462  154.4819 N   0  0  0  0  0  0  0  0  0  0  0  0
  147.3532  141.3935  153.9003 C   0  0  0  0  0  0  0  0  0  0  0  0
  146.7162  140.5148  153.0710 N   0  0  0  0  0  0  0  0  0  0  0  0
  147.5320  139.4712  153.1845 C   0  0  0  0  0  0  0  0  0  0  0  0
  147.3819  138.2162  152.5361 N   0  0  0  0  0  0  0  0  0  0  0  0
  146.2395  137.5743  152.2402 C   0  0  0  0  0  0  0  0  0  0  0  0
  145.1068  137.9957  152.4745 O   0  0  0  0  0  0  0  0  0  0  0  0
  146.4856  136.3959  151.6511 N   0  0  0  0  0  0  0  0  0  0  0  0
  145.4671  135.4365  151.2289 C   0  0  1  0  0  0  0  0  0  0  0  0
  146.0858  134.1156  150.8169 C   0  0  0  0  0  0  0  0  0  0  0  0
  144.9351  133.1195  151.0007 C   0  0  0  0  0  0  0  0  0  0  0  0
  144.0839  132.9808  149.7268 C   0  0  0  0  0  0  0  0  0  0  0  0
  145.4256  131.7470  151.4865 C   0  0  0  0  0  0  0  0  0  0  0  0
  144.1013  133.6856  152.0105 O   0  0  0  0  0  0  0  0  0  0  0  0
  144.4980  135.0124  152.3550 C   0  0  0  0  0  0  0  0  0  0  0  0
  145.1464  134.9254  153.7526 C   0  0  0  0  0  0  0  0  0  0  0  0
  143.2322  135.8831  152.3965 C   0  0  0  0  0  0  0  0  0  0  0  0
  150.1898  138.4678  153.5056 H   0  0  0  0  0  0  0  0  0  0  0  0
  149.2773  137.9647  154.9439 H   0  0  0  0  0  0  0  0  0  0  0  0
  150.3704  139.3611  155.0276 H   0  0  0  0  0  0  0  0  0  0  0  0
  146.9854  142.3927  154.0810 H   0  0  0  0  0  0  0  0  0  0  0  0
  148.2409  137.7536  152.2783 H   0  0  0  0  0  0  0  0  0  0  0  0
  147.4475  136.1315  151.4973 H   0  0  0  0  0  0  0  0  0  0  0  0
  144.9070  135.8280  150.3773 H   0  0  0  0  0  0  0  0  0  0  0  0
  146.4822  134.1313  149.8009 H   0  0  0  0  0  0  0  0  0  0  0  0
  146.9114  133.8664  151.4858 H   0  0  0  0  0  0  0  0  0  0  0  0
  144.6685  132.5669  148.9046 H   0  0  0  0  0  0  0  0  0  0  0  0
  143.6900  133.9439  149.4013 H   0  0  0  0  0  0  0  0  0  0  0  0
  143.2327  132.3201  149.8931 H   0  0  0  0  0  0  0  0  0  0  0  0
  146.0911  131.2853  150.7566 H   0  0  0  0  0  0  0  0  0  0  0  0
  144.5901  131.0665  151.6529 H   0  0  0  0  0  0  0  0  0  0  0  0
  145.9699  131.8325  152.4275 H   0  0  0  0  0  0  0  0  0  0  0  0
  145.4414  135.9081  154.1211 H   0  0  0  0  0  0  0  0  0  0  0  0
  146.0328  134.2910  153.7463 H   0  0  0  0  0  0  0  0  0  0  0  0
  144.4504  134.5033  154.4781 H   0  0  0  0  0  0  0  0  0  0  0  0
  143.4684  136.9137  152.6613 H   0  0  0  0  0  0  0  0  0  0  0  0
  142.5207  135.5083  153.1327 H   0  0  0  0  0  0  0  0  0  0  0  0
  142.7280  135.8948  151.4299 H   0  0  0  0  0  0  0  0  0  0  0  0
  1  2  1  0  0  0  0
  1 20  1  0  0  0  0
  1 21  1  0  0  0  0
  1 22  1  0  0  0  0
  2  6  1  0  0  0  0
  2  3  1  0  0  0  0
  3  4  2  0  0  0  0
  4  5  1  0  0  0  0
  4 23  1  0  0  0  0
  5  6  2  0  0  0  0
  6  7  1  0  0  0  0
  7  8  1  0  0  0  0
  7 24  1  0  0  0  0
  8  9  2  0  0  0  0
  8 10  1  0  0  0  0
 10 11  1  0  0  0  0
 10 25  1  0  0  0  0
 11 17  1  0  0  0  0
 11 12  1  0  0  0  0
 11 26  1  0  0  0  0
 12 13  1  0  0  0  0
 12 27  1  0  0  0  0
 12 28  1  0  0  0  0
 13 14  1  0  0  0  0
 13 15  1  0  0  0  0
 13 16  1  0  0  0  0
 14 29  1  0  0  0  0
 14 30  1  0  0  0  0
 14 31  1  0  0  0  0
 15 32  1  0  0  0  0
 15 33  1  0  0  0  0
 15 34  1  0  0  0  0
 16 17  1  0  0  0  0
 17 18  1  0  0  0  0
 17 19  1  0  0  0  0
 18 35  1  0  0  0  0
 18 36  1  0  0  0  0
 18 37  1  0  0  0  0
 19 38  1  0  0  0  0
 19 39  1  0  0  0  0
 19 40  1  0  0  0  0
M  END
> <s_m_source_file>
AV-unprocessed.smi

> <i_m_source_file_index>
2325

> <i_lp_mmshare_version>
43012

> <i_f3d_flags>
0

> <s_epik_input>
W0NIM11uMW5bY0hdbmMxW05IXUMoPU8pW05IXVtDQEBIXShDKE8yKShbQ0gzXSlbQ0gzXSlbQ0gyXUMyKFtDSDNdKVtDSDNd

> <s_epik_cmdline>
J2VwaWtfcHl0aG9uJywgJy1waCcsICc3LjAnLCAnLXRuJywgJzgnLCAnLW1hJywgJzIwMCcsICctbWV0YWxfYmluZGluZycsICctaW1hZScsICc8aW5maWxlLm1hZT4nLCAnLW9tYWUnLCAnPG91dGZpbGUubWFlPic=

> <r_lp_tautomer_probability>
1

> <r_epik_Ionization_Penalty>
1.97832e-05

> <r_epik_Ionization_Penalty_Charging>
0

> <r_epik_Ionization_Penalty_Neutral>
1.97832e-05

> <r_epik_State_Penalty>
-0

> <r_epik_Charging_Adjusted_Penalty>
0

> <i_epik_Tot_Q>
0

> <i_epik_Tot_abs_Q>
0

> <r_epik_Metal_State_Penalty>
-0

> <b_epik_Metal_Only>
0

> <s_lp_Force_Field>
OPLS_2005

> <r_lp_Energy>
17.1515

> <b_lp_Chiralities_Consistent>
1

> <s_lp_Variant>
AV-unprocessed.smi:2325-2

> <Gold.Version>
5.8.1

> <Gold.Id.Protein>
6NUR|6NUR_protein|mol2

> <Gold.PLP.Fitness>
33.3401

> <Gold.PLP.PLP>
-28.1889

> <Gold.PLP.part.hbond>
-2.1694

> <Gold.PLP.part.metal>
0.0000

> <Gold.PLP.part.buried>
-3.7468

> <Gold.PLP.part.nonpolar>
-24.7928

> <Gold.PLP.part.repulsive>
2.5072

> <Gold.PLP.ligand.clash>
0.0000

> <Gold.PLP.ligand.torsion>
0.2980

> <Gold.PLP.Chemscore.Hbond>
1.9120

> <Gold.PLP.Chemscore.CHOScore>
0.0000

> <Gold.PLP.Chemscore.Metal>
0.0000

> <Gold.Chemscore.Hbonds>
donor molecule, donor type, donor heavy atom, donor atom, acceptor molecule, acceptor atom, score
      L1  H     7    24       P1  7948  0.91
      L1  H    10    25       P1  7948  0.96

> <Gold.PLP.Chemscore.Internal.Correction>
0.0112

> <Gold.Rescore>
     Score         DG    S(hbond)    S(metal)    S(lipo)     H(rot)  DE(clash)    DE(int)     intcor
     11.70     -15.44       1.93        0.00      51.83       1.00       1.37       2.37       ----

> <Gold.Chemscore.Fitness>
11.7021

> <Gold.Chemscore.DG>
-15.4415

> <Gold.Chemscore.ZeroCoef>
-5.4800

> <Gold.Chemscore.Hbond>
1.9333

> <Gold.Chemscore.Metal>
0.0000

> <Gold.Chemscore.Lipo>
51.8306

> <Gold.Chemscore.Internal_Hbond>
0.0000

> <Gold.Chemscore.DEClash>
1.3710

> <Gold.Chemscore.DEInternal>
2.3683

> <Gold.Chemscore.Rot>
1.0000

> <Gold.Chemscore.Internal.Correction>
   9.000000E+99

> <Gold.Chemscore.Hbonds>
donor molecule, donor type, donor heavy atom, donor atom, acceptor molecule, acceptor atom, score
      L1  H     7    24       P1  7948  0.90
      L1  H    10    25       P1  7948  0.87

> <Gold.Chemscore.Hbond.Weighted>
-6.4573

> <Gold.Chemscore.Metal.Weighted>
-0.0000

> <Gold.Chemscore.Lipo.Weighted>
-6.0642

> <Gold.Chemscore.Internal_Hbond.Weighted>
0.0000

> <Gold.Chemscore.DEClash.Weighted>
1.3710

> <Gold.Chemscore.DEInternal.Weighted>
2.3683

> <Gold.Chemscore.Rot.Weighted>
2.5600

> <Gold.Chemscore.Internal.Correction.Weighted>
   9.000000E+99

> <Gold.Protein.RotatedTorsions>
[ 6907 6896 6895 6894 ] final  100.52 input  -60.11 | X-H torsion
[ 7974 7965 7964 7962 ] final   64.41 input  175.53 | X-H torsion
[ 8008 7997 7996 7995 ] final  -23.12 input   59.86 | X-H torsion
[ 10167 10162 10161 10158 ] final  139.36 input  -65.29 | X-H torsion
[ 10718 10713 10712 10709 ] final  -28.73 input   66.30 | X-H torsion
[ 10763 10752 10751 10750 ] final   24.12 input  -60.55 | X-H torsion
[ 11005 11000 10999 10996 ] final   39.33 input  -57.11 | X-H torsion

> <Gold.Protein.ActiveResidues>
 VAL166  LYS551  ARG553  GLY616  TRP617  ASP618  TYR619  PRO620  LYS621  CYS622 
 ASP623  PHE694  ASN695  SER759  ASP760  ASP761  ALA762  ILE779  LEU786  VAL792 
 PHE793  MET794  SER795  GLU796  ALA797  LYS798  CYS799  TRP800  GLU811  SER814 

> <Gold.Protein.RotatedAtoms>
  152.5370  134.0264  159.8004 H   0  0  0  0  0  0  0  0  0  0  0  0  # atno 6907 bound_to 6896
  151.0442  133.5672  159.2655 H   0  0  0  0  0  0  0  0  0  0  0  0  # atno 6908 bound_to 6896
  151.2630  135.0668  159.9159 H   0  0  0  0  0  0  0  0  0  0  0  0  # atno 6909 bound_to 6896
  145.8506  139.3251  143.0877 H   0  0  0  0  0  0  0  0  0  0  0  0  # atno 7974 bound_to 7965
  154.4603  140.1989  156.0262 H   0  0  0  0  0  0  0  0  0  0  0  0  # atno 8008 bound_to 7997
  156.0828  140.3269  155.7687 H   0  0  0  0  0  0  0  0  0  0  0  0  # atno 8009 bound_to 7997
  155.5084  140.0559  157.2918 H   0  0  0  0  0  0  0  0  0  0  0  0  # atno 8010 bound_to 7997
  139.5081  144.6299  151.5844 H   0  0  0  0  0  0  0  0  0  0  0  0  # atno 10167 bound_to 10162
  156.4215  130.4427  149.7180 H   0  0  0  0  0  0  0  0  0  0  0  0  # atno 10718 bound_to 10713
  153.0787  135.6612  154.0091 H   0  0  0  0  0  0  0  0  0  0  0  0  # atno 10763 bound_to 10752
  153.9718  135.2964  155.3428 H   0  0  0  0  0  0  0  0  0  0  0  0  # atno 10764 bound_to 10752
  154.7181  135.5176  153.8840 H   0  0  0  0  0  0  0  0  0  0  0  0  # atno 10765 bound_to 10752
  140.2038  134.3838  155.8082 H   0  0  0  0  0  0  0  0  0  0  0  0  # atno 11005 bound_to 11000
  145.9362  140.9013  143.0331 LP  0  0  0  0  0  0  0  0  0  0  0  0  # atno 17320 bound_to 7965
  144.6729  140.1486  143.7431 LP  0  0  0  0  0  0  0  0  0  0  0  0  # atno 17321 bound_to 7965
  140.6028  143.9578  150.6398 LP  0  0  0  0  0  0  0  0  0  0  0  0  # atno 17342 bound_to 10162
  140.2796  143.3399  152.1164 LP  0  0  0  0  0  0  0  0  0  0  0  0  # atno 17343 bound_to 10162
  156.4119  130.7726  151.2740 LP  0  0  0  0  0  0  0  0  0  0  0  0  # atno 17370 bound_to 10713
  157.7508  131.0209  150.3726 LP  0  0  0  0  0  0  0  0  0  0  0  0  # atno 17371 bound_to 10713
  141.2227  133.7108  156.8303 LP  0  0  0  0  0  0  0  0  0  0  0  0  # atno 17394 bound_to 11000
  140.2025  134.8887  157.3184 LP  0  0  0  0  0  0  0  0  0  0  0  0  # atno 17395 bound_to 11000

$$$$
