AV-unprocessed.smi:246|AV-procd|sdf|1882|dock2
  -GOLD-   2262020533D 1   1.00000     0.00000
 Structure written by MMmdl.
 57 60  0  0  0  0  0  0  0  0  1 V2000
  152.0262  144.7539  158.1194 C   0  0  0  0  0  0  0  0  0  0  0  0
  151.9448  143.7523  159.2797 C   0  0  0  0  0  0  0  0  0  0  0  0
  151.9632  142.4105  158.8144 O   0  0  0  0  0  0  0  0  0  0  0  0
  150.8567  142.0592  157.9964 C   0  0  0  0  0  0  0  0  0  0  0  0
  151.3405  141.1054  156.9006 C   0  0  0  0  0  0  0  0  0  0  0  0
  150.2314  140.7507  156.0882 O   0  0  0  0  0  0  0  0  0  0  0  0
  150.5482  139.8695  155.0183 C   0  0  1  0  0  0  0  0  0  0  0  0
  151.2556  138.6428  155.5983 C   0  0  0  0  0  0  0  0  0  0  0  0
  150.1183  137.7059  156.0112 C   0  0  0  0  0  0  0  0  0  0  0  0
  148.9897  138.0784  155.1731 N   0  0  0  0  0  0  0  0  0  0  0  0
  148.0000  137.2097  154.8433 C   0  0  0  0  0  0  0  0  0  0  0  0
  147.9889  135.9846  155.4326 N   0  0  0  0  0  0  0  0  0  0  0  0
  147.0327  135.0988  155.1401 C   0  0  0  0  0  0  0  0  0  0  0  0
  146.0102  135.2250  154.2935 N   0  0  0  0  0  0  0  0  0  0  0  0
  146.0206  136.4455  153.6864 C   0  0  0  0  0  0  0  0  0  0  0  0
  146.9672  137.4888  153.9000 C   0  0  0  0  0  0  0  0  0  0  0  0
  146.6511  138.5760  153.0916 N   0  0  0  0  0  0  0  0  0  0  0  0
  145.5840  138.1991  152.4430 C   0  0  0  0  0  0  0  0  0  0  0  0
  145.1425  136.9292  152.7331 N   0  0  0  0  0  0  0  0  0  0  0  0
  143.9957  136.2546  152.1522 C   0  0  0  0  0  0  0  0  0  0  0  0
  144.3581  135.3522  150.9524 C   0  0  1  0  0  0  0  0  0  0  0  0
  145.1264  136.1374  150.0625 O   0  0  0  0  0  0  0  0  0  0  0  0
  145.1524  134.0768  151.3178 C   0  0  2  0  0  0  0  0  0  0  0  0
  145.5940  133.2440  150.1106 C   0  0  0  0  0  0  0  0  0  0  0  0
  145.7567  131.8706  150.7188 C   0  0  0  0  0  0  0  0  0  0  0  0
  144.5809  131.8253  151.6867 C   0  0  0  0  0  0  0  0  0  0  0  0
  144.3559  133.1738  152.0856 O   0  0  0  0  0  0  0  0  0  0  0  0
  149.2793  139.2731  154.3926 C   0  0  0  0  0  0  0  0  0  0  0  0
  151.1784  140.3719  154.2826 H   0  0  0  0  0  0  0  0  0  0  0  0
  151.9091  145.7748  158.4834 H   0  0  0  0  0  0  0  0  0  0  0  0
  151.2381  144.5691  157.3889 H   0  0  0  0  0  0  0  0  0  0  0  0
  152.9834  144.7003  157.6017 H   0  0  0  0  0  0  0  0  0  0  0  0
  152.7380  143.9266  160.0084 H   0  0  0  0  0  0  0  0  0  0  0  0
  151.0020  143.9025  159.8062 H   0  0  0  0  0  0  0  0  0  0  0  0
  150.0563  141.5940  158.5720 H   0  0  0  0  0  0  0  0  0  0  0  0
  150.4498  142.9625  157.5398 H   0  0  0  0  0  0  0  0  0  0  0  0
  152.0988  141.6019  156.2952 H   0  0  0  0  0  0  0  0  0  0  0  0
  151.8027  140.2227  157.3455 H   0  0  0  0  0  0  0  0  0  0  0  0
  151.8451  138.1653  154.8147 H   0  0  0  0  0  0  0  0  0  0  0  0
  151.9306  138.8827  156.4204 H   0  0  0  0  0  0  0  0  0  0  0  0
  150.4061  136.6624  155.8797 H   0  0  0  0  0  0  0  0  0  0  0  0
  149.8480  137.8625  157.0559 H   0  0  0  0  0  0  0  0  0  0  0  0
  147.0972  134.1529  155.6573 H   0  0  0  0  0  0  0  0  0  0  0  0
  145.0941  138.8376  151.7223 H   0  0  0  0  0  0  0  0  0  0  0  0
  143.5184  135.6654  152.9364 H   0  0  0  0  0  0  0  0  0  0  0  0
  143.2713  137.0111  151.8470 H   0  0  0  0  0  0  0  0  0  0  0  0
  143.4469  135.0644  150.4270 H   0  0  0  0  0  0  0  0  0  0  0  0
  144.6177  136.8950  149.8169 H   0  0  0  0  0  0  0  0  0  0  0  0
  146.0304  134.3362  151.9119 H   0  0  0  0  0  0  0  0  0  0  0  0
  144.8118  133.2223  149.3498 H   0  0  0  0  0  0  0  0  0  0  0  0
  146.5097  133.6153  149.6494 H   0  0  0  0  0  0  0  0  0  0  0  0
  145.7354  131.0669  149.9823 H   0  0  0  0  0  0  0  0  0  0  0  0
  146.6989  131.8118  151.2655 H   0  0  0  0  0  0  0  0  0  0  0  0
  143.6846  131.4608  151.1832 H   0  0  0  0  0  0  0  0  0  0  0  0
  144.7729  131.1821  152.5456 H   0  0  0  0  0  0  0  0  0  0  0  0
  148.4382  139.9659  154.3944 H   0  0  0  0  0  0  0  0  0  0  0  0
  149.4760  138.9824  153.3597 H   0  0  0  0  0  0  0  0  0  0  0  0
  1  2  1  0  0  0  0
  1 30  1  0  0  0  0
  1 31  1  0  0  0  0
  1 32  1  0  0  0  0
  2  3  1  0  0  0  0
  2 33  1  0  0  0  0
  2 34  1  0  0  0  0
  3  4  1  0  0  0  0
  4  5  1  0  0  0  0
  4 35  1  0  0  0  0
  4 36  1  0  0  0  0
  5  6  1  0  0  0  0
  5 37  1  0  0  0  0
  5 38  1  0  0  0  0
  6  7  1  0  0  0  0
  7 29  1  0  0  0  0
  7 28  1  0  0  0  0
  7  8  1  0  0  0  0
  8  9  1  0  0  0  0
  8 39  1  0  0  0  0
  8 40  1  0  0  0  0
  9 10  1  0  0  0  0
  9 41  1  0  0  0  0
  9 42  1  0  0  0  0
 10 11  1  0  0  0  0
 10 28  1  0  0  0  0
 11 16  1  0  0  0  0
 11 12  2  0  0  0  0
 12 13  1  0  0  0  0
 13 14  2  0  0  0  0
 13 43  1  0  0  0  0
 14 15  1  0  0  0  0
 15 19  1  0  0  0  0
 15 16  2  0  0  0  0
 16 17  1  0  0  0  0
 17 18  2  0  0  0  0
 18 19  1  0  0  0  0
 18 44  1  0  0  0  0
 19 20  1  0  0  0  0
 20 21  1  0  0  0  0
 20 45  1  0  0  0  0
 20 46  1  0  0  0  0
 21 22  1  0  0  0  0
 21 23  1  0  0  0  0
 21 47  1  0  0  0  0
 22 48  1  0  0  0  0
 23 27  1  0  0  0  0
 23 24  1  0  0  0  0
 23 49  1  0  0  0  0
 24 25  1  0  0  0  0
 24 50  1  0  0  0  0
 24 51  1  0  0  0  0
 25 26  1  0  0  0  0
 25 52  1  0  0  0  0
 25 53  1  0  0  0  0
 26 27  1  0  0  0  0
 26 54  1  0  0  0  0
 26 55  1  0  0  0  0
 28 56  1  0  0  0  0
 28 57  1  0  0  0  0
M  END
> <s_m_source_file>
AV-unprocessed.smi

> <i_m_source_file_index>
246

> <i_lp_mmshare_version>
43012

> <i_f3d_flags>
0

> <s_epik_input>
W0NIM11bQ0gyXU9bQ0gyXVtDSDJdT1tDQEhdMVtDSDJdW0NIMl1OKFtDSDJdMSljKG5bY0hdbjIpYyhjMjMpbltjSF1uM1tDSDJdW0NASF0oW09IXSlbQ0BASF00W0NIMl1bQ0gyXVtDSDJdTzQ=

> <s_epik_cmdline>
J2VwaWtfcHl0aG9uJywgJy1waCcsICc3LjAnLCAnLXRuJywgJzgnLCAnLW1hJywgJzIwMCcsICctbWV0YWxfYmluZGluZycsICctaW1hZScsICc8aW5maWxlLm1hZT4nLCAnLW9tYWUnLCAnPG91dGZpbGUubWFlPic=

> <r_lp_tautomer_probability>
1

> <r_epik_Ionization_Penalty>
0.0024631

> <r_epik_Ionization_Penalty_Charging>
0

> <r_epik_Ionization_Penalty_Neutral>
0.0024631

> <r_epik_State_Penalty>
0.00162428

> <r_epik_Charging_Adjusted_Penalty>
0.00162428

> <i_epik_Tot_Q>
0

> <i_epik_Tot_abs_Q>
0

> <r_epik_Metal_State_Penalty>
-0

> <b_epik_Metal_Only>
0

> <s_lp_Force_Field>
OPLS_2005

> <r_lp_Energy>
52.0053

> <b_lp_Chiralities_Consistent>
1

> <s_lp_Variant>
AV-unprocessed.smi:246-3

> <Gold.Version>
5.8.1

> <Gold.Id.Protein>
6NUR|6NUR_protein|mol2

> <Gold.PLP.Fitness>
46.7021

> <Gold.PLP.PLP>
-39.2739

> <Gold.PLP.part.hbond>
-2.0000

> <Gold.PLP.part.metal>
0.0000

> <Gold.PLP.part.buried>
-2.9143

> <Gold.PLP.part.nonpolar>
-35.4559

> <Gold.PLP.part.repulsive>
0.5061

> <Gold.PLP.ligand.clash>
0.0000

> <Gold.PLP.ligand.torsion>
0.7903

> <Gold.PLP.Chemscore.Hbond>
1.0000

> <Gold.PLP.Chemscore.CHOScore>
1.8099

> <Gold.PLP.Chemscore.Metal>
0.0000

> <Gold.Chemscore.Hbonds>
donor molecule, donor type, donor heavy atom, donor atom, acceptor molecule, acceptor atom, score
      L1  H    22    48       P1 10171  1.00
      L1  C    18    44       P1 10171  1.00
      L1  C    18    44       P1 10175  0.80

> <Gold.PLP.Chemscore.Internal.Correction>
0.5790

> <Gold.Rescore>
     Score         DG    S(hbond)    S(metal)    S(lipo)     H(rot)  DE(clash)    DE(int)     intcor
     11.02     -12.82       0.99        0.00     102.31       3.10       0.06       1.75       ----

> <Gold.Chemscore.Fitness>
11.0180

> <Gold.Chemscore.DG>
-12.8220

> <Gold.Chemscore.ZeroCoef>
-5.4800

> <Gold.Chemscore.Hbond>
0.9922

> <Gold.Chemscore.Metal>
0.0000

> <Gold.Chemscore.Lipo>
102.3144

> <Gold.Chemscore.Internal_Hbond>
0.0000

> <Gold.Chemscore.DEClash>
0.0564

> <Gold.Chemscore.DEInternal>
1.7476

> <Gold.Chemscore.Rot>
3.1026

> <Gold.Chemscore.Internal.Correction>
   9.000000E+99

> <Gold.Chemscore.Hbonds>
donor molecule, donor type, donor heavy atom, donor atom, acceptor molecule, acceptor atom, score
      L1  H    22    48       P1 10171  1.00

> <Gold.Chemscore.Hbond.Weighted>
-3.3138

> <Gold.Chemscore.Metal.Weighted>
-0.0000

> <Gold.Chemscore.Lipo.Weighted>
-11.9708

> <Gold.Chemscore.Internal_Hbond.Weighted>
0.0000

> <Gold.Chemscore.DEClash.Weighted>
0.0564

> <Gold.Chemscore.DEInternal.Weighted>
1.7476

> <Gold.Chemscore.Rot.Weighted>
7.9426

> <Gold.Chemscore.Internal.Correction.Weighted>
   9.000000E+99

> <Gold.Protein.RotatedTorsions>
[ 6907 6896 6895 6894 ] final   83.34 input  -60.11 | X-H torsion
[ 7974 7965 7964 7962 ] final  144.28 input  175.53 | X-H torsion
[ 8008 7997 7996 7995 ] final -175.10 input   59.86 | X-H torsion
[ 10167 10162 10161 10158 ] final -168.30 input  -65.29 | X-H torsion
[ 10718 10713 10712 10709 ] final -125.95 input   66.30 | X-H torsion
[ 10763 10752 10751 10750 ] final  -26.79 input  -60.55 | X-H torsion
[ 11005 11000 10999 10996 ] final -135.08 input  -57.11 | X-H torsion

> <Gold.Protein.ActiveResidues>
 VAL166  LYS551  ARG553  GLY616  TRP617  ASP618  TYR619  PRO620  LYS621  CYS622 
 ASP623  PHE694  ASN695  SER759  ASP760  ASP761  ALA762  ILE779  LEU786  VAL792 
 PHE793  MET794  SER795  GLU796  ALA797  LYS798  CYS799  TRP800  GLU811  SER814 

> <Gold.Protein.RotatedAtoms>
  152.5324  134.2910  159.9042 H   0  0  0  0  0  0  0  0  0  0  0  0  # atno 6907 bound_to 6896
  151.2862  133.4180  159.2638 H   0  0  0  0  0  0  0  0  0  0  0  0  # atno 6908 bound_to 6896
  151.0240  134.9506  159.8132 H   0  0  0  0  0  0  0  0  0  0  0  0  # atno 6909 bound_to 6896
  144.8849  139.5644  143.5825 H   0  0  0  0  0  0  0  0  0  0  0  0  # atno 7974 bound_to 7965
  155.9783  140.1176  157.0749 H   0  0  0  0  0  0  0  0  0  0  0  0  # atno 8008 bound_to 7997
  154.4175  140.1149  156.5469 H   0  0  0  0  0  0  0  0  0  0  0  0  # atno 8009 bound_to 7997
  155.6504  140.3473  155.4748 H   0  0  0  0  0  0  0  0  0  0  0  0  # atno 8010 bound_to 7997
  139.5994  144.1043  152.1726 H   0  0  0  0  0  0  0  0  0  0  0  0  # atno 10167 bound_to 10162
  156.1721  130.6675  151.0194 H   0  0  0  0  0  0  0  0  0  0  0  0  # atno 10718 bound_to 10713
  153.7216  135.6944  153.5011 H   0  0  0  0  0  0  0  0  0  0  0  0  # atno 10763 bound_to 10752
  153.2200  135.4373  155.0477 H   0  0  0  0  0  0  0  0  0  0  0  0  # atno 10764 bound_to 10752
  154.8282  135.3458  154.6749 H   0  0  0  0  0  0  0  0  0  0  0  0  # atno 10765 bound_to 10752
  140.8931  134.1786  157.4514 H   0  0  0  0  0  0  0  0  0  0  0  0  # atno 11005 bound_to 11000
  146.3018  139.7450  142.9086 LP  0  0  0  0  0  0  0  0  0  0  0  0  # atno 17320 bound_to 7965
  145.3887  141.0369  143.3136 LP  0  0  0  0  0  0  0  0  0  0  0  0  # atno 17321 bound_to 7965
  140.0636  144.5837  150.7244 LP  0  0  0  0  0  0  0  0  0  0  0  0  # atno 17342 bound_to 10162
  140.7238  143.2615  151.4191 LP  0  0  0  0  0  0  0  0  0  0  0  0  # atno 17343 bound_to 10162
  157.6810  131.0838  150.7369 LP  0  0  0  0  0  0  0  0  0  0  0  0  # atno 17370 bound_to 10713
  156.7428  130.4744  149.5474 LP  0  0  0  0  0  0  0  0  0  0  0  0  # atno 17371 bound_to 10713
  139.8732  134.9867  156.5335 LP  0  0  0  0  0  0  0  0  0  0  0  0  # atno 17394 bound_to 11000
  140.8322  133.8270  155.8995 LP  0  0  0  0  0  0  0  0  0  0  0  0  # atno 17395 bound_to 11000

$$$$
