AV-unprocessed.smi:970|AV-procd|sdf|4293|dock2
  -GOLD-   22720 2203D 1   1.00000     0.00000
 Structure written by MMmdl.
 31 31  0  0  0  0  0  0  0  0  1 V2000
  145.4655  143.0511  157.3742 C   0  0  0  0  0  0  0  0  0  0  0  0
  146.2629  143.8470  158.2943 N   0  0  0  0  0  0  0  0  0  0  0  0
  146.5068  143.5077  159.5681 C   0  0  0  0  0  0  0  0  0  0  0  0
  146.0822  142.4707  160.0813 O   0  0  0  0  0  0  0  0  0  0  0  0
  147.3769  144.4835  160.3778 C   0  0  2  0  0  0  0  0  0  0  0  0
  146.6611  145.8438  160.4125 C   0  0  0  0  0  0  0  0  0  0  0  0
  148.6700  144.6705  159.7232 N   0  0  0  0  0  0  0  0  0  0  0  0
  149.8674  144.4675  160.2970 C   0  0  0  0  0  0  0  0  0  0  0  0
  150.0006  144.1498  161.4795 O   0  0  0  0  0  0  0  0  0  0  0  0
  151.0916  144.6387  159.3853 C   0  0  1  0  0  0  0  0  0  0  0  0
  151.9009  145.9125  159.7048 C   0  0  0  0  0  0  0  0  0  0  0  0
  151.9117  143.4337  159.4265 N   0  0  0  0  0  0  0  0  0  0  0  0
  152.1289  142.5131  158.4844 C   0  0  0  0  0  0  0  0  0  0  0  0
  152.8921  141.5047  158.8813 N   0  0  0  0  0  0  0  0  0  0  0  0
  153.1150  141.8835  160.1745 C   0  0  0  0  0  0  0  0  0  0  0  0
  152.5428  143.0253  160.5556 N   0  0  0  0  0  0  0  0  0  0  0  0
  145.4044  143.5505  156.4071 H   0  0  0  0  0  0  0  0  0  0  0  0
  144.4516  142.9178  157.7536 H   0  0  0  0  0  0  0  0  0  0  0  0
  145.9134  142.0680  157.2230 H   0  0  0  0  0  0  0  0  0  0  0  0
  146.6479  144.7125  157.9448 H   0  0  0  0  0  0  0  0  0  0  0  0
  147.5177  144.1154  161.3960 H   0  0  0  0  0  0  0  0  0  0  0  0
  145.6852  145.7659  160.8932 H   0  0  0  0  0  0  0  0  0  0  0  0
  146.5074  146.2490  159.4110 H   0  0  0  0  0  0  0  0  0  0  0  0
  147.2420  146.5740  160.9766 H   0  0  0  0  0  0  0  0  0  0  0  0
  148.6500  144.9260  158.7467 H   0  0  0  0  0  0  0  0  0  0  0  0
  150.7245  144.7398  158.3624 H   0  0  0  0  0  0  0  0  0  0  0  0
  151.2804  146.8046  159.6132 H   0  0  0  0  0  0  0  0  0  0  0  0
  152.7365  146.0247  159.0133 H   0  0  0  0  0  0  0  0  0  0  0  0
  152.3095  145.8978  160.7160 H   0  0  0  0  0  0  0  0  0  0  0  0
  151.7146  142.5787  157.4890 H   0  0  0  0  0  0  0  0  0  0  0  0
  153.7119  141.2970  160.8574 H   0  0  0  0  0  0  0  0  0  0  0  0
  1  2  1  0  0  0  0
  1 17  1  0  0  0  0
  1 18  1  0  0  0  0
  1 19  1  0  0  0  0
  2  3  1  0  0  0  0
  2 20  1  0  0  0  0
  3  4  2  0  0  0  0
  3  5  1  0  0  0  0
  5  6  1  0  0  0  0
  5  7  1  0  0  0  0
  5 21  1  0  0  0  0
  6 22  1  0  0  0  0
  6 23  1  0  0  0  0
  6 24  1  0  0  0  0
  7  8  1  0  0  0  0
  7 25  1  0  0  0  0
  8  9  2  0  0  0  0
  8 10  1  0  0  0  0
 10 11  1  0  0  0  0
 10 12  1  0  0  0  0
 10 26  1  0  0  0  0
 11 27  1  0  0  0  0
 11 28  1  0  0  0  0
 11 29  1  0  0  0  0
 12 16  1  0  0  0  0
 12 13  1  0  0  0  0
 13 14  2  0  0  0  0
 13 30  1  0  0  0  0
 14 15  1  0  0  0  0
 15 16  2  0  0  0  0
 15 31  1  0  0  0  0
M  END
> <s_m_source_file>
AV-unprocessed.smi

> <i_m_source_file_index>
970

> <i_lp_mmshare_version>
43012

> <i_f3d_flags>
0

> <s_epik_input>
W0NIM11bTkhdQyg9TylbQ0BIXShbQ0gzXSlbTkhdQyg9TylbQ0BIXShbQ0gzXSluMVtjSF1uW2NIXW4x

> <s_epik_cmdline>
J2VwaWtfcHl0aG9uJywgJy1waCcsICc3LjAnLCAnLXRuJywgJzgnLCAnLW1hJywgJzIwMCcsICctbWV0YWxfYmluZGluZycsICctaW1hZScsICc8aW5maWxlLm1hZT4nLCAnLW9tYWUnLCAnPG91dGZpbGUubWFlPic=

> <r_lp_tautomer_probability>
1

> <r_epik_Ionization_Penalty>
1.07271e-05

> <r_epik_Ionization_Penalty_Charging>
0

> <r_epik_Ionization_Penalty_Neutral>
1.07271e-05

> <r_epik_State_Penalty>
-0

> <r_epik_Charging_Adjusted_Penalty>
0

> <i_epik_Tot_Q>
0

> <i_epik_Tot_abs_Q>
0

> <r_epik_Metal_State_Penalty>
-0

> <b_epik_Metal_Only>
0

> <s_lp_Force_Field>
OPLS_2005

> <r_lp_Energy>
8.21169

> <b_lp_Chiralities_Consistent>
1

> <s_lp_Variant>
AV-unprocessed.smi:970-3

> <Gold.Version>
5.8.1

> <Gold.Id.Protein>
6NUR|6NUR_protein|mol2

> <Gold.PLP.Fitness>
37.0597

> <Gold.PLP.PLP>
-28.3057

> <Gold.PLP.part.hbond>
-4.0000

> <Gold.PLP.part.metal>
0.0000

> <Gold.PLP.part.buried>
-4.8039

> <Gold.PLP.part.nonpolar>
-22.5796

> <Gold.PLP.part.repulsive>
2.3297

> <Gold.PLP.ligand.clash>
0.0000

> <Gold.PLP.ligand.torsion>
0.2404

> <Gold.PLP.Chemscore.Hbond>
3.0393

> <Gold.PLP.Chemscore.CHOScore>
0.0000

> <Gold.PLP.Chemscore.Metal>
0.0000

> <Gold.Chemscore.Hbonds>
donor molecule, donor type, donor heavy atom, donor atom, acceptor molecule, acceptor atom, score
      L1  H     2    20       P1  8029  1.00
      L1  H     7    25       P1  8029  1.00
      P1  H  6933  6944       L1     9  0.03
      P1  H  6934  6946       L1     4  1.00

> <Gold.PLP.Chemscore.Internal.Correction>
0.1169

> <Gold.Rescore>
     Score         DG    S(hbond)    S(metal)    S(lipo)     H(rot)  DE(clash)    DE(int)     intcor
     12.44     -12.84       2.91        0.00      36.27       2.59       0.00       0.40       ----

> <Gold.Chemscore.Fitness>
12.4373

> <Gold.Chemscore.DG>
-12.8408

> <Gold.Chemscore.ZeroCoef>
-5.4800

> <Gold.Chemscore.Hbond>
2.9147

> <Gold.Chemscore.Metal>
0.0000

> <Gold.Chemscore.Lipo>
36.2724

> <Gold.Chemscore.Internal_Hbond>
0.0000

> <Gold.Chemscore.DEClash>
0.0034

> <Gold.Chemscore.DEInternal>
0.4001

> <Gold.Chemscore.Rot>
2.5852

> <Gold.Chemscore.Internal.Correction>
   9.000000E+99

> <Gold.Chemscore.Hbonds>
donor molecule, donor type, donor heavy atom, donor atom, acceptor molecule, acceptor atom, score
      L1  H     2    20       P1  8029  0.55
      L1  H     7    25       P1  8029  0.94
      P1  H  6933  6944       L1     9  0.01
      P1  H  6934  6946       L1     4  1.00

> <Gold.Chemscore.Hbond.Weighted>
-9.7351

> <Gold.Chemscore.Metal.Weighted>
-0.0000

> <Gold.Chemscore.Lipo.Weighted>
-4.2439

> <Gold.Chemscore.Internal_Hbond.Weighted>
0.0000

> <Gold.Chemscore.DEClash.Weighted>
0.0034

> <Gold.Chemscore.DEInternal.Weighted>
0.4001

> <Gold.Chemscore.Rot.Weighted>
6.6182

> <Gold.Chemscore.Internal.Correction.Weighted>
   9.000000E+99

> <Gold.Protein.RotatedTorsions>
[ 6907 6896 6895 6894 ] final  157.65 input  -60.11 | X-H torsion
[ 7974 7965 7964 7962 ] final  -37.74 input  175.53 | X-H torsion
[ 8008 7997 7996 7995 ] final -137.67 input   59.86 | X-H torsion
[ 10167 10162 10161 10158 ] final  -26.89 input  -65.29 | X-H torsion
[ 10718 10713 10712 10709 ] final   72.88 input   66.30 | X-H torsion
[ 10763 10752 10751 10750 ] final    7.79 input  -60.55 | X-H torsion
[ 11005 11000 10999 10996 ] final   -5.97 input  -57.11 | X-H torsion

> <Gold.Protein.ActiveResidues>
 VAL166  LYS551  ARG553  GLY616  TRP617  ASP618  TYR619  PRO620  LYS621  CYS622 
 ASP623  PHE694  ASN695  SER759  ASP760  ASP761  ALA762  ILE779  LEU786  VAL792 
 PHE793  MET794  SER795  GLU796  ALA797  LYS798  CYS799  TRP800  GLU811  SER814 

> <Gold.Protein.RotatedAtoms>
  152.0119  133.3865  159.4222 H   0  0  0  0  0  0  0  0  0  0  0  0  # atno 6907 bound_to 6896
  150.6898  134.3721  159.5006 H   0  0  0  0  0  0  0  0  0  0  0  0  # atno 6908 bound_to 6896
  152.1483  134.9008  160.0600 H   0  0  0  0  0  0  0  0  0  0  0  0  # atno 6909 bound_to 6896
  146.0548  140.6431  142.9025 H   0  0  0  0  0  0  0  0  0  0  0  0  # atno 7974 bound_to 7965
  155.4156  140.0515  157.3029 H   0  0  0  0  0  0  0  0  0  0  0  0  # atno 8008 bound_to 7997
  154.4926  140.2126  155.9475 H   0  0  0  0  0  0  0  0  0  0  0  0  # atno 8009 bound_to 7997
  156.1362  140.3162  155.8430 H   0  0  0  0  0  0  0  0  0  0  0  0  # atno 8010 bound_to 7997
  140.7280  143.4140  151.1059 H   0  0  0  0  0  0  0  0  0  0  0  0  # atno 10167 bound_to 10162
  157.6522  130.9601  150.0991 H   0  0  0  0  0  0  0  0  0  0  0  0  # atno 10718 bound_to 10713
  153.2324  135.6894  153.7875 H   0  0  0  0  0  0  0  0  0  0  0  0  # atno 10763 bound_to 10752
  153.7035  135.3293  155.3231 H   0  0  0  0  0  0  0  0  0  0  0  0  # atno 10764 bound_to 10752
  154.8319  135.4573  154.1214 H   0  0  0  0  0  0  0  0  0  0  0  0  # atno 10765 bound_to 10752
  140.6970  133.9022  155.8657 H   0  0  0  0  0  0  0  0  0  0  0  0  # atno 11005 bound_to 11000
  144.7142  140.4150  143.7057 LP  0  0  0  0  0  0  0  0  0  0  0  0  # atno 17320 bound_to 7965
  145.6662  139.1590  143.2780 LP  0  0  0  0  0  0  0  0  0  0  0  0  # atno 17321 bound_to 7965
  139.7777  143.8401  152.3132 LP  0  0  0  0  0  0  0  0  0  0  0  0  # atno 17342 bound_to 10162
  139.8342  144.7240  150.9412 LP  0  0  0  0  0  0  0  0  0  0  0  0  # atno 17343 bound_to 10162
  156.1919  130.3655  149.8899 LP  0  0  0  0  0  0  0  0  0  0  0  0  # atno 17370 bound_to 10713
  156.6825  130.8864  151.3578 LP  0  0  0  0  0  0  0  0  0  0  0  0  # atno 17371 bound_to 10713
  141.0195  134.0909  157.4136 LP  0  0  0  0  0  0  0  0  0  0  0  0  # atno 17394 bound_to 11000
  139.8907  135.0114  156.6752 LP  0  0  0  0  0  0  0  0  0  0  0  0  # atno 17395 bound_to 11000

$$$$
