AV-unprocessed.smi:1937|AV-procd|sdf|7833|dock2
  -GOLD-   22720 9583D 1   1.00000     0.00000
 Structure written by MMmdl.
 40 41  0  0  0  0  0  0  0  0  1 V2000
  144.7789  137.1577  152.5171 O   0  0  0  0  0  0  0  0  0  0  0  0
  145.9760  136.8817  152.4411 C   0  0  0  0  0  0  0  0  0  0  0  0
  146.9414  137.6287  152.9949 N   0  0  0  0  0  0  0  0  0  0  0  0
  146.7192  138.8630  153.7378 C   0  0  0  0  0  0  0  0  0  0  0  0
  147.5466  138.8963  155.0366 C   0  0  0  0  0  0  0  0  0  0  0  0
  148.9360  139.2894  154.7712 N   0  0  0  0  0  0  0  0  0  0  0  0
  149.1427  140.6573  154.2665 C   0  0  0  0  0  0  0  0  0  0  0  0
  149.8250  141.6017  155.2839 C   0  0  0  0  0  0  0  0  0  0  0  0
  150.7896  140.9422  156.2890 C   0  0  0  0  0  0  0  0  0  0  0  0
  151.8808  140.0520  155.6582 C   0  0  0  0  0  0  0  0  0  0  0  0
  151.3943  138.9338  154.7058 C   0  0  0  0  0  0  0  0  0  0  0  0
  149.9673  138.4361  154.9879 C   0  0  0  0  0  0  0  0  0  0  0  0
  149.8119  137.2868  155.4019 O   0  0  0  0  0  0  0  0  0  0  0  0
  146.4911  135.8075  151.8188 N   0  0  0  0  0  0  0  0  0  0  0  0
  145.8144  134.7864  151.0977 C   0  0  0  0  0  0  0  0  0  0  0  0
  146.2253  133.4319  151.0500 C   0  0  0  0  0  0  0  0  0  0  0  0
  145.4560  132.5141  150.3090 C   0  0  0  0  0  0  0  0  0  0  0  0
  144.3020  132.9804  149.6501 C   0  0  0  0  0  0  0  0  0  0  0  0
  143.8907  134.2648  149.6984 N   0  0  0  0  0  0  0  0  0  0  0  0
  144.6334  135.1391  150.4104 C   0  0  0  0  0  0  0  0  0  0  0  0
  147.8990  137.3260  152.8911 H   0  0  0  0  0  0  0  0  0  0  0  0
  146.9565  139.7242  153.1105 H   0  0  0  0  0  0  0  0  0  0  0  0
  145.6549  138.9311  153.9648 H   0  0  0  0  0  0  0  0  0  0  0  0
  147.0921  139.5862  155.7499 H   0  0  0  0  0  0  0  0  0  0  0  0
  147.5117  137.9229  155.5264 H   0  0  0  0  0  0  0  0  0  0  0  0
  149.7329  140.6139  153.3509 H   0  0  0  0  0  0  0  0  0  0  0  0
  148.2027  141.1112  153.9516 H   0  0  0  0  0  0  0  0  0  0  0  0
  150.3469  142.3883  154.7381 H   0  0  0  0  0  0  0  0  0  0  0  0
  149.0490  142.1097  155.8575 H   0  0  0  0  0  0  0  0  0  0  0  0
  151.2707  141.7240  156.8776 H   0  0  0  0  0  0  0  0  0  0  0  0
  150.2163  140.3591  157.0112 H   0  0  0  0  0  0  0  0  0  0  0  0
  152.5847  140.6851  155.1170 H   0  0  0  0  0  0  0  0  0  0  0  0
  152.4578  139.5985  156.4647 H   0  0  0  0  0  0  0  0  0  0  0  0
  151.4530  139.2706  153.6710 H   0  0  0  0  0  0  0  0  0  0  0  0
  152.0845  138.0910  154.7628 H   0  0  0  0  0  0  0  0  0  0  0  0
  147.4887  135.6811  151.9091 H   0  0  0  0  0  0  0  0  0  0  0  0
  147.0993  133.0751  151.5719 H   0  0  0  0  0  0  0  0  0  0  0  0
  145.7430  131.4745  150.2507 H   0  0  0  0  0  0  0  0  0  0  0  0
  143.6900  132.3024  149.0735 H   0  0  0  0  0  0  0  0  0  0  0  0
  144.2726  136.1572  150.4283 H   0  0  0  0  0  0  0  0  0  0  0  0
  1  2  2  0  0  0  0
  2  3  1  0  0  0  0
  2 14  1  0  0  0  0
  3  4  1  0  0  0  0
  3 21  1  0  0  0  0
  4  5  1  0  0  0  0
  4 22  1  0  0  0  0
  4 23  1  0  0  0  0
  5  6  1  0  0  0  0
  5 24  1  0  0  0  0
  5 25  1  0  0  0  0
  6 12  1  0  0  0  0
  6  7  1  0  0  0  0
  7  8  1  0  0  0  0
  7 26  1  0  0  0  0
  7 27  1  0  0  0  0
  8  9  1  0  0  0  0
  8 28  1  0  0  0  0
  8 29  1  0  0  0  0
  9 10  1  0  0  0  0
  9 30  1  0  0  0  0
  9 31  1  0  0  0  0
 10 11  1  0  0  0  0
 10 32  1  0  0  0  0
 10 33  1  0  0  0  0
 11 12  1  0  0  0  0
 11 34  1  0  0  0  0
 11 35  1  0  0  0  0
 12 13  2  0  0  0  0
 14 15  1  0  0  0  0
 14 36  1  0  0  0  0
 15 20  1  0  0  0  0
 15 16  2  0  0  0  0
 16 17  1  0  0  0  0
 16 37  1  0  0  0  0
 17 18  2  0  0  0  0
 17 38  1  0  0  0  0
 18 19  1  0  0  0  0
 18 39  1  0  0  0  0
 19 20  2  0  0  0  0
 20 40  1  0  0  0  0
M  END
> <s_m_source_file>
AV-unprocessed.smi

> <i_m_source_file_index>
1937

> <i_lp_mmshare_version>
43012

> <i_f3d_flags>
0

> <s_epik_input>
W2NIXTFuW2NIXVtjSF1bY0hdYzFbTkhdQyg9TylbTkhdW0NIMl1bQ0gyXU4yW0NIMl1bQ0gyXVtDSDJdW0NIMl1bQ0gyXUMyPU8=

> <s_epik_cmdline>
J2VwaWtfcHl0aG9uJywgJy1waCcsICc3LjAnLCAnLXRuJywgJzgnLCAnLW1hJywgJzIwMCcsICctbWV0YWxfYmluZGluZycsICctaW1hZScsICc8aW5maWxlLm1hZT4nLCAnLW9tYWUnLCAnPG91dGZpbGUubWFlPic=

> <r_epik_Ionization_Penalty>
0.00465308

> <r_epik_Ionization_Penalty_Charging>
0

> <r_epik_Ionization_Penalty_Neutral>
0.00465308

> <r_epik_State_Penalty>
0.00334133

> <r_epik_Charging_Adjusted_Penalty>
0.00334133

> <i_epik_Tot_Q>
0

> <i_epik_Tot_abs_Q>
0

> <r_epik_Metal_State_Penalty>
-0

> <b_epik_Metal_Only>
0

> <s_lp_Force_Field>
OPLS_2005

> <r_lp_Energy>
23.2929

> <b_lp_Chiralities_Consistent>
1

> <s_lp_Variant>
AV-unprocessed.smi:1937-1

> <Gold.Version>
5.8.1

> <Gold.Id.Protein>
6NUR|6NUR_protein|mol2

> <Gold.PLP.Fitness>
40.9287

> <Gold.PLP.PLP>
-33.2726

> <Gold.PLP.part.hbond>
-1.8017

> <Gold.PLP.part.metal>
0.0000

> <Gold.PLP.part.buried>
-3.0543

> <Gold.PLP.part.nonpolar>
-30.3933

> <Gold.PLP.part.repulsive>
2.3504

> <Gold.PLP.ligand.clash>
0.0000

> <Gold.PLP.ligand.torsion>
0.4308

> <Gold.PLP.Chemscore.Hbond>
1.8320

> <Gold.PLP.Chemscore.CHOScore>
1.0000

> <Gold.PLP.Chemscore.Metal>
0.0000

> <Gold.Chemscore.Hbonds>
donor molecule, donor type, donor heavy atom, donor atom, acceptor molecule, acceptor atom, score
      L1  H     3    21       P1  7948  0.83
      L1  H    14    36       P1  7948  1.00
      L1  C    20    40       P1 10171  1.00

> <Gold.PLP.Chemscore.Internal.Correction>
0.0217

> <Gold.Rescore>
     Score         DG    S(hbond)    S(metal)    S(lipo)     H(rot)  DE(clash)    DE(int)     intcor
     14.72     -17.72       1.91        0.00      83.28       1.52       1.39       1.61       ----

> <Gold.Chemscore.Fitness>
14.7248

> <Gold.Chemscore.DG>
-17.7237

> <Gold.Chemscore.ZeroCoef>
-5.4800

> <Gold.Chemscore.Hbond>
1.9133

> <Gold.Chemscore.Metal>
0.0000

> <Gold.Chemscore.Lipo>
83.2759

> <Gold.Chemscore.Internal_Hbond>
0.0000

> <Gold.Chemscore.DEClash>
1.3860

> <Gold.Chemscore.DEInternal>
1.6129

> <Gold.Chemscore.Rot>
1.5195

> <Gold.Chemscore.Internal.Correction>
   9.000000E+99

> <Gold.Chemscore.Hbonds>
donor molecule, donor type, donor heavy atom, donor atom, acceptor molecule, acceptor atom, score
      L1  H     3    21       P1  7948  0.81
      L1  H    14    36       P1  7948  0.90

> <Gold.Chemscore.Hbond.Weighted>
-6.3905

> <Gold.Chemscore.Metal.Weighted>
-0.0000

> <Gold.Chemscore.Lipo.Weighted>
-9.7433

> <Gold.Chemscore.Internal_Hbond.Weighted>
0.0000

> <Gold.Chemscore.DEClash.Weighted>
1.3860

> <Gold.Chemscore.DEInternal.Weighted>
1.6129

> <Gold.Chemscore.Rot.Weighted>
3.8900

> <Gold.Chemscore.Internal.Correction.Weighted>
   9.000000E+99

> <Gold.Protein.RotatedTorsions>
[ 6907 6896 6895 6894 ] final  -48.09 input  -60.11 | X-H torsion
[ 7974 7965 7964 7962 ] final   18.05 input  175.53 | X-H torsion
[ 8008 7997 7996 7995 ] final   24.65 input   59.86 | X-H torsion
[ 10167 10162 10161 10158 ] final   33.52 input  -65.29 | X-H torsion
[ 10718 10713 10712 10709 ] final -119.44 input   66.30 | X-H torsion
[ 10763 10752 10751 10750 ] final -136.61 input  -60.55 | X-H torsion
[ 11005 11000 10999 10996 ] final  148.35 input  -57.11 | X-H torsion

> <Gold.Protein.ActiveResidues>
 VAL166  LYS551  ARG553  GLY616  TRP617  ASP618  TYR619  PRO620  LYS621  CYS622 
 ASP623  PHE694  ASN695  SER759  ASP760  ASP761  ALA762  ILE779  LEU786  VAL792 
 PHE793  MET794  SER795  GLU796  ALA797  LYS798  CYS799  TRP800  GLU811  SER814 

> <Gold.Protein.RotatedAtoms>
  150.8940  134.8347  159.7313 H   0  0  0  0  0  0  0  0  0  0  0  0  # atno 6907 bound_to 6896
  152.4854  134.4604  159.9613 H   0  0  0  0  0  0  0  0  0  0  0  0  # atno 6908 bound_to 6896
  151.4663  133.3541  159.2852 H   0  0  0  0  0  0  0  0  0  0  0  0  # atno 6909 bound_to 6896
  146.2198  139.8513  142.8622 H   0  0  0  0  0  0  0  0  0  0  0  0  # atno 7974 bound_to 7965
  154.9995  140.3123  155.4873 H   0  0  0  0  0  0  0  0  0  0  0  0  # atno 8008 bound_to 7997
  156.2927  140.2234  156.5045 H   0  0  0  0  0  0  0  0  0  0  0  0  # atno 8009 bound_to 7997
  154.7631  140.0457  157.0978 H   0  0  0  0  0  0  0  0  0  0  0  0  # atno 8010 bound_to 7997
  140.4400  144.1201  150.6172 H   0  0  0  0  0  0  0  0  0  0  0  0  # atno 10167 bound_to 10162
  156.1181  130.6301  150.9416 H   0  0  0  0  0  0  0  0  0  0  0  0  # atno 10718 bound_to 10713
  154.8680  135.3667  154.5088 H   0  0  0  0  0  0  0  0  0  0  0  0  # atno 10763 bound_to 10752
  153.5725  135.7020  153.5503 H   0  0  0  0  0  0  0  0  0  0  0  0  # atno 10764 bound_to 10752
  153.3529  135.4067  155.1623 H   0  0  0  0  0  0  0  0  0  0  0  0  # atno 10765 bound_to 10752
  140.0952  134.9017  157.1712 H   0  0  0  0  0  0  0  0  0  0  0  0  # atno 11005 bound_to 11000
  145.2798  141.0135  143.3724 LP  0  0  0  0  0  0  0  0  0  0  0  0  # atno 17320 bound_to 7965
  144.9159  139.4471  143.6565 LP  0  0  0  0  0  0  0  0  0  0  0  0  # atno 17321 bound_to 7965
  140.4329  143.2560  151.9572 LP  0  0  0  0  0  0  0  0  0  0  0  0  # atno 17342 bound_to 10162
  139.4789  144.5727  151.8062 LP  0  0  0  0  0  0  0  0  0  0  0  0  # atno 17343 bound_to 10162
  157.6364  131.0915  150.8339 LP  0  0  0  0  0  0  0  0  0  0  0  0  # atno 17370 bound_to 10713
  156.8439  130.5057  149.5318 LP  0  0  0  0  0  0  0  0  0  0  0  0  # atno 17371 bound_to 10713
  140.3296  134.2825  155.7230 LP  0  0  0  0  0  0  0  0  0  0  0  0  # atno 17394 bound_to 11000
  141.2090  133.7762  157.0025 LP  0  0  0  0  0  0  0  0  0  0  0  0  # atno 17395 bound_to 11000

$$$$
