AV-unprocessed.smi:1047|AV-procd|sdf|4596|dock8
  -GOLD-   22720 3 83D 1   1.00000     0.00000
 Structure written by MMmdl.
 57 59  0  0  0  0  0  0  0  0  3 V2000
  143.8990  133.5746  150.9715 C   0  0  0  0  0  0  0  0  0  0  0  0
  144.9968  134.6479  150.9510 C   0  0  0  0  0  0  0  0  0  0  0  0
  144.7512  135.7366  151.9297 N   0  3  1  0  0  0  0  0  0  0  0  0
  144.3161  135.2179  153.2480 C   0  0  0  0  0  0  0  0  0  0  0  0
  144.0285  136.3778  154.2145 C   0  0  0  0  0  0  0  0  0  0  0  0
  145.1866  137.1938  154.3304 O   0  0  0  0  0  0  0  0  0  0  0  0
  145.5561  137.7866  153.0893 C   0  0  1  0  0  0  0  0  0  0  0  0
  146.7576  138.7090  153.3424 C   0  0  0  0  0  0  0  0  0  0  0  0
  147.9253  137.9458  153.7698 N   0  0  0  0  0  0  0  0  0  0  0  0
  148.7546  138.6531  154.7430 C   0  0  0  0  0  0  0  0  0  0  0  0
  150.2558  138.5361  154.4232 C   0  0  2  0  0  0  0  0  0  0  0  0
  150.5747  137.1885  154.1377 O   0  0  0  0  0  0  0  0  0  0  0  0
  151.1821  139.1102  155.5157 C   0  0  0  0  0  0  0  0  0  0  0  0
  150.8242  140.4827  155.8966 N   0  0  0  0  0  0  0  0  0  0  0  0
  149.9632  141.3579  155.3097 C   0  0  0  0  0  0  0  0  0  0  0  0
  149.9789  142.5039  156.0453 N   0  3  0  0  0  0  0  0  0  0  0  0
  150.8652  142.3593  157.1151 C   0  0  0  0  0  0  0  0  0  0  0  0
  151.2205  143.2398  158.1300 C   0  0  0  0  0  0  0  0  0  0  0  0
  152.1647  142.7841  159.0779 C   0  0  0  0  0  0  0  0  0  0  0  0
  152.5777  143.7226  160.1990 C   0  0  0  0  0  0  0  0  0  0  0  0
  152.7184  141.4804  158.9889 C   0  0  0  0  0  0  0  0  0  0  0  0
  153.7327  141.0013  160.0134 C   0  0  0  0  0  0  0  0  0  0  0  0
  152.3436  140.5994  157.9492 C   0  0  0  0  0  0  0  0  0  0  0  0
  151.4128  141.0650  157.0238 C   0  0  0  0  0  0  0  0  0  0  0  0
  145.9010  136.6609  152.0939 C   0  0  0  0  0  0  0  0  0  0  0  0
  144.1629  132.7466  150.3133 H   0  0  0  0  0  0  0  0  0  0  0  0
  142.9396  133.9626  150.6304 H   0  0  0  0  0  0  0  0  0  0  0  0
  143.7633  133.1681  151.9743 H   0  0  0  0  0  0  0  0  0  0  0  0
  145.9428  134.1613  151.1931 H   0  0  0  0  0  0  0  0  0  0  0  0
  145.1107  135.0629  149.9485 H   0  0  0  0  0  0  0  0  0  0  0  0
  143.4197  134.6077  153.1317 H   0  0  0  0  0  0  0  0  0  0  0  0
  145.0932  134.5725  153.6613 H   0  0  0  0  0  0  0  0  0  0  0  0
  143.1795  136.9722  153.8727 H   0  0  0  0  0  0  0  0  0  0  0  0
  143.7697  135.9904  155.2001 H   0  0  0  0  0  0  0  0  0  0  0  0
  144.7244  138.3746  152.6956 H   0  0  0  0  0  0  0  0  0  0  0  0
  146.9817  139.2793  152.4398 H   0  0  0  0  0  0  0  0  0  0  0  0
  146.5019  139.4348  154.1153 H   0  0  0  0  0  0  0  0  0  0  0  0
  148.4904  137.7073  152.9604 H   0  0  0  0  0  0  0  0  0  0  0  0
  148.4743  139.7068  154.7795 H   0  0  0  0  0  0  0  0  0  0  0  0
  148.5690  138.2517  155.7400 H   0  0  0  0  0  0  0  0  0  0  0  0
  150.4307  139.0888  153.4997 H   0  0  0  0  0  0  0  0  0  0  0  0
  149.9101  136.8390  153.5640 H   0  0  0  0  0  0  0  0  0  0  0  0
  151.1649  138.4865  156.4103 H   0  0  0  0  0  0  0  0  0  0  0  0
  152.2173  139.1312  155.1728 H   0  0  0  0  0  0  0  0  0  0  0  0
  149.3720  141.1753  154.4237 H   0  0  0  0  0  0  0  0  0  0  0  0
  150.7942  144.2305  158.1919 H   0  0  0  0  0  0  0  0  0  0  0  0
  153.6541  143.8943  160.1784 H   0  0  0  0  0  0  0  0  0  0  0  0
  152.3120  143.3012  161.1687 H   0  0  0  0  0  0  0  0  0  0  0  0
  152.0850  144.6915  160.1104 H   0  0  0  0  0  0  0  0  0  0  0  0
  154.0346  139.9707  159.8248 H   0  0  0  0  0  0  0  0  0  0  0  0
  153.3143  141.0462  161.0190 H   0  0  0  0  0  0  0  0  0  0  0  0
  154.6283  141.6220  159.9821 H   0  0  0  0  0  0  0  0  0  0  0  0
  152.7645  139.6072  157.8800 H   0  0  0  0  0  0  0  0  0  0  0  0
  146.7706  136.1025  152.4447 H   0  0  0  0  0  0  0  0  0  0  0  0
  146.1702  137.1010  151.1343 H   0  0  0  0  0  0  0  0  0  0  0  0
  143.9807  136.2824  151.5706 H   0  0  0  0  0  0  0  0  0  0  0  0
  149.4253  143.3233  155.8296 H   0  0  0  0  0  0  0  0  0  0  0  0
  1  2  1  0  0  0  0
  1 26  1  0  0  0  0
  1 27  1  0  0  0  0
  1 28  1  0  0  0  0
  2  3  1  0  0  0  0
  2 29  1  0  0  0  0
  2 30  1  0  0  0  0
  3 25  1  0  0  0  0
  3  4  1  0  0  0  0
  3 56  1  0  0  0  0
  4  5  1  0  0  0  0
  4 31  1  0  0  0  0
  4 32  1  0  0  0  0
  5  6  1  0  0  0  0
  5 33  1  0  0  0  0
  5 34  1  0  0  0  0
  6  7  1  0  0  0  0
  7  8  1  0  0  0  0
  7 25  1  0  0  0  0
  7 35  1  0  0  0  0
  8  9  1  0  0  0  0
  8 36  1  0  0  0  0
  8 37  1  0  0  0  0
  9 10  1  0  0  0  0
  9 38  1  0  0  0  0
 10 11  1  0  0  0  0
 10 39  1  0  0  0  0
 10 40  1  0  0  0  0
 11 12  1  0  0  0  0
 11 13  1  0  0  0  0
 11 41  1  0  0  0  0
 12 42  1  0  0  0  0
 13 14  1  0  0  0  0
 13 43  1  0  0  0  0
 13 44  1  0  0  0  0
 14 24  1  0  0  0  0
 14 15  1  0  0  0  0
 15 16  2  0  0  0  0
 15 45  1  0  0  0  0
 16 17  1  0  0  0  0
 16 57  1  0  0  0  0
 17 24  2  0  0  0  0
 17 18  1  0  0  0  0
 18 19  2  0  0  0  0
 18 46  1  0  0  0  0
 19 20  1  0  0  0  0
 19 21  1  0  0  0  0
 20 47  1  0  0  0  0
 20 48  1  0  0  0  0
 20 49  1  0  0  0  0
 21 22  1  0  0  0  0
 21 23  2  0  0  0  0
 22 50  1  0  0  0  0
 22 51  1  0  0  0  0
 22 52  1  0  0  0  0
 23 24  1  0  0  0  0
 23 53  1  0  0  0  0
 25 54  1  0  0  0  0
 25 55  1  0  0  0  0
M  CHG  1   3   1
M  CHG  1  16   1
M  END
> <s_m_source_file>
AV-unprocessed.smi

> <i_m_source_file_index>
1047

> <i_lp_mmshare_version>
43012

> <i_f3d_flags>
0

> <s_epik_input>
W0NIM11bQ0gyXU4xW0NIMl1bQ0gyXU9bQ0BIXShbQ0gyXTEpW0NIMl1bTkhdW0NIMl1bQ0BIXShbT0hdKVtDSDJdbihbY0hdbjIpYyhjMjMpW2NIXWMoW0NIM10pYyhbY0hdMylbQ0gzXQ==

> <s_epik_cmdline>
J2VwaWtfcHl0aG9uJywgJy1waCcsICc3LjAnLCAnLXRuJywgJzgnLCAnLW1hJywgJzIwMCcsICctbWV0YWxfYmluZGluZycsICctaW1hZScsICc8aW5maWxlLm1hZT4nLCAnLW9tYWUnLCAnPG91dGZpbGUubWFlPic=

> <r_epik_Ionization_Penalty>
2.03028

> <r_epik_Ionization_Penalty_Charging>
1.21256

> <r_epik_Ionization_Penalty_Neutral>
0.817715

> <r_epik_State_Penalty>
2.54959

> <r_epik_Charging_Adjusted_Penalty>
3.76215

> <i_epik_Tot_Q>
2

> <i_epik_Tot_abs_Q>
2

> <r_epik_Metal_State_Penalty>
6.52811

> <b_epik_Metal_Only>
0

> <s_lp_Force_Field>
OPLS_2005

> <r_lp_Energy>
37.5009

> <b_lp_Chiralities_Consistent>
1

> <s_lp_Variant>
AV-unprocessed.smi:1047-37

> <Gold.Version>
5.8.1

> <Gold.Id.Protein>
6NUR|6NUR_protein|mol2

> <Gold.PLP.Fitness>
56.3745

> <Gold.PLP.PLP>
-46.8204

> <Gold.PLP.part.hbond>
-3.9912

> <Gold.PLP.part.metal>
0.0000

> <Gold.PLP.part.buried>
-4.8549

> <Gold.PLP.part.nonpolar>
-38.9065

> <Gold.PLP.part.repulsive>
0.2136

> <Gold.PLP.ligand.clash>
0.0000

> <Gold.PLP.ligand.torsion>
0.8342

> <Gold.PLP.Chemscore.Hbond>
3.7020

> <Gold.PLP.Chemscore.CHOScore>
0.0000

> <Gold.PLP.Chemscore.Metal>
0.0000

> <Gold.Chemscore.Hbonds>
donor molecule, donor type, donor heavy atom, donor atom, acceptor molecule, acceptor atom, score
      L1  H     9    38       P1  7948  0.85
      L1  H    12    42       P1  7948  1.00
      L1  H    16    57       P1  8028  1.89

> <Gold.PLP.Chemscore.Internal.Correction>
0.1166

> <Gold.Rescore>
     Score         DG    S(hbond)    S(metal)    S(lipo)     H(rot)  DE(clash)    DE(int)     intcor
     18.86     -20.82       2.30        0.00     124.75       2.71       0.18       1.78       ----

> <Gold.Chemscore.Fitness>
18.8615

> <Gold.Chemscore.DG>
-20.8218

> <Gold.Chemscore.ZeroCoef>
-5.4800

> <Gold.Chemscore.Hbond>
2.2995

> <Gold.Chemscore.Metal>
0.0000

> <Gold.Chemscore.Lipo>
124.7525

> <Gold.Chemscore.Internal_Hbond>
0.0000

> <Gold.Chemscore.DEClash>
0.1804

> <Gold.Chemscore.DEInternal>
1.7799

> <Gold.Chemscore.Rot>
2.7088

> <Gold.Chemscore.Internal.Correction>
   9.000000E+99

> <Gold.Chemscore.Hbonds>
donor molecule, donor type, donor heavy atom, donor atom, acceptor molecule, acceptor atom, score
      L1  H     9    38       P1  7948  0.85
      L1  H    12    42       P1  7948  0.33
      L1  H    16    57       P1  8028  0.90

> <Gold.Chemscore.Hbond.Weighted>
-7.6804

> <Gold.Chemscore.Metal.Weighted>
-0.0000

> <Gold.Chemscore.Lipo.Weighted>
-14.5960

> <Gold.Chemscore.Internal_Hbond.Weighted>
0.0000

> <Gold.Chemscore.DEClash.Weighted>
0.1804

> <Gold.Chemscore.DEInternal.Weighted>
1.7799

> <Gold.Chemscore.Rot.Weighted>
6.9346

> <Gold.Chemscore.Internal.Correction.Weighted>
   9.000000E+99

> <Gold.Protein.RotatedTorsions>
[ 6907 6896 6895 6894 ] final   55.58 input  -60.11 | X-H torsion
[ 7974 7965 7964 7962 ] final  -70.64 input  175.53 | X-H torsion
[ 8008 7997 7996 7995 ] final   72.73 input   59.86 | X-H torsion
[ 10167 10162 10161 10158 ] final  144.79 input  -65.29 | X-H torsion
[ 10718 10713 10712 10709 ] final  -75.99 input   66.30 | X-H torsion
[ 10763 10752 10751 10750 ] final  171.95 input  -60.55 | X-H torsion
[ 11005 11000 10999 10996 ] final  -39.80 input  -57.11 | X-H torsion

> <Gold.Protein.ActiveResidues>
 VAL166  LYS551  ARG553  GLY616  TRP617  ASP618  TYR619  PRO620  LYS621  CYS622 
 ASP623  PHE694  ASN695  SER759  ASP760  ASP761  ALA762  ILE779  LEU786  VAL792 
 PHE793  MET794  SER795  GLU796  ALA797  LYS798  CYS799  TRP800  GLU811  SER814 

> <Gold.Protein.RotatedAtoms>
  152.3552  134.6949  160.0223 H   0  0  0  0  0  0  0  0  0  0  0  0  # atno 6907 bound_to 6896
  151.7290  133.3311  159.3343 H   0  0  0  0  0  0  0  0  0  0  0  0  # atno 6908 bound_to 6896
  150.7567  134.6314  159.6233 H   0  0  0  0  0  0  0  0  0  0  0  0  # atno 6909 bound_to 6896
  145.6884  140.9162  143.0795 H   0  0  0  0  0  0  0  0  0  0  0  0  # atno 7974 bound_to 7965
  155.7732  140.3484  155.5258 H   0  0  0  0  0  0  0  0  0  0  0  0  # atno 8008 bound_to 7997
  155.8802  140.1001  157.1511 H   0  0  0  0  0  0  0  0  0  0  0  0  # atno 8009 bound_to 7997
  154.4024  140.1324  156.4174 H   0  0  0  0  0  0  0  0  0  0  0  0  # atno 8010 bound_to 7997
  139.4939  144.5948  151.6607 H   0  0  0  0  0  0  0  0  0  0  0  0  # atno 10167 bound_to 10162
  156.0189  130.4454  150.3125 H   0  0  0  0  0  0  0  0  0  0  0  0  # atno 10718 bound_to 10713
  154.4191  135.2757  155.1987 H   0  0  0  0  0  0  0  0  0  0  0  0  # atno 10763 bound_to 10752
  154.3940  135.6059  153.5863 H   0  0  0  0  0  0  0  0  0  0  0  0  # atno 10764 bound_to 10752
  152.9832  135.5910  154.4484 H   0  0  0  0  0  0  0  0  0  0  0  0  # atno 10765 bound_to 10752
  141.0128  133.6900  156.2235 H   0  0  0  0  0  0  0  0  0  0  0  0  # atno 11005 bound_to 11000
  144.7004  139.8789  143.7446 LP  0  0  0  0  0  0  0  0  0  0  0  0  # atno 17320 bound_to 7965
  146.0903  139.3893  143.0410 LP  0  0  0  0  0  0  0  0  0  0  0  0  # atno 17321 bound_to 7965
  140.5583  144.0311  150.6158 LP  0  0  0  0  0  0  0  0  0  0  0  0  # atno 17342 bound_to 10162
  140.3389  143.3032  152.0609 LP  0  0  0  0  0  0  0  0  0  0  0  0  # atno 17343 bound_to 10162
  157.1227  131.0251  151.3002 LP  0  0  0  0  0  0  0  0  0  0  0  0  # atno 17370 bound_to 10713
  157.4615  130.7656  149.7240 LP  0  0  0  0  0  0  0  0  0  0  0  0  # atno 17371 bound_to 10713
  140.6705  134.4873  157.5587 LP  0  0  0  0  0  0  0  0  0  0  0  0  # atno 17394 bound_to 11000
  139.9100  134.8366  156.1565 LP  0  0  0  0  0  0  0  0  0  0  0  0  # atno 17395 bound_to 11000

$$$$
