AV-unprocessed.smi:478|AV-procd|sdf|2671|dock9
  -GOLD-   2262023 83D 1   1.00000     0.00000
 Structure written by MMmdl.
 41 42  0  0  0  0  0  0  0  0  1 V2000
  151.9975  137.5757  155.9728 C   0  0  0  0  0  0  0  0  0  0  0  0
  152.8070  138.3908  155.0611 N   0  0  0  0  0  0  0  0  0  0  0  0
  154.1412  137.8275  154.8258 C   0  0  0  0  0  0  0  0  0  0  0  0
  151.9855  139.0640  153.6930 S   0  0  0  0  0  0  0  0  0  0  0  0
  152.8578  140.1030  153.1235 O   0  0  0  0  0  0  0  0  0  0  0  0
  151.5374  137.9446  152.8495 O   0  0  0  0  0  0  0  0  0  0  0  0
  150.5015  139.8811  154.3402 C   0  0  0  0  0  0  0  0  0  0  0  0
  150.6099  140.9242  155.3346 C   0  0  0  0  0  0  0  0  0  0  0  0
  149.5193  141.6249  155.7039 C   0  0  0  0  0  0  0  0  0  0  0  0
  148.1999  141.3623  155.1171 C   0  0  0  0  0  0  0  0  0  0  0  0
  147.1960  141.9876  155.4594 O   0  0  0  0  0  0  0  0  0  0  0  0
  148.1561  140.3835  154.1610 N   0  0  0  0  0  0  0  0  0  0  0  0
  146.8925  140.0465  153.4856 C   0  0  0  0  0  0  0  0  0  0  0  0
  146.5522  138.5538  153.5982 C   0  0  0  0  0  0  0  0  0  0  0  0
  147.1265  137.8695  154.4484 O   0  0  0  0  0  0  0  0  0  0  0  0
  145.6185  138.1088  152.7251 N   0  0  0  0  0  0  0  0  0  0  0  0
  145.0893  136.8761  152.5374 C   0  0  0  0  0  0  0  0  0  0  0  0
  145.5805  135.8955  153.0944 O   0  0  0  0  0  0  0  0  0  0  0  0
  144.0193  136.7856  151.7257 N   0  0  0  0  0  0  0  0  0  0  0  0
  143.5427  135.5943  151.1016 C   0  0  0  0  0  0  0  0  0  0  0  0
  143.2805  134.3983  151.9912 C   0  0  0  0  0  0  0  0  0  0  0  0
  144.4674  134.3969  151.0685 C   0  0  0  0  0  0  0  0  0  0  0  0
  149.3054  139.6703  153.7664 C   0  0  0  0  0  0  0  0  0  0  0  0
  152.5584  137.3304  156.8751 H   0  0  0  0  0  0  0  0  0  0  0  0
  151.6958  136.6489  155.4837 H   0  0  0  0  0  0  0  0  0  0  0  0
  151.1004  138.1172  156.2732 H   0  0  0  0  0  0  0  0  0  0  0  0
  154.6285  137.5831  155.7701 H   0  0  0  0  0  0  0  0  0  0  0  0
  154.7725  138.5430  154.3002 H   0  0  0  0  0  0  0  0  0  0  0  0
  154.0691  136.9205  154.2242 H   0  0  0  0  0  0  0  0  0  0  0  0
  151.5657  141.1429  155.7877 H   0  0  0  0  0  0  0  0  0  0  0  0
  149.6168  142.3997  156.4501 H   0  0  0  0  0  0  0  0  0  0  0  0
  146.0643  140.6154  153.9105 H   0  0  0  0  0  0  0  0  0  0  0  0
  146.9354  140.3484  152.4371 H   0  0  0  0  0  0  0  0  0  0  0  0
  145.2502  138.8166  152.1067 H   0  0  0  0  0  0  0  0  0  0  0  0
  143.5071  137.6347  151.5311 H   0  0  0  0  0  0  0  0  0  0  0  0
  142.8757  135.7082  150.2481 H   0  0  0  0  0  0  0  0  0  0  0  0
  143.4753  134.5029  153.0569 H   0  0  0  0  0  0  0  0  0  0  0  0
  142.4416  133.7553  151.7327 H   0  0  0  0  0  0  0  0  0  0  0  0
  144.4217  133.7529  150.1926 H   0  0  0  0  0  0  0  0  0  0  0  0
  145.4531  134.5022  151.5180 H   0  0  0  0  0  0  0  0  0  0  0  0
  149.1518  138.9634  152.9639 H   0  0  0  0  0  0  0  0  0  0  0  0
  1  2  1  0  0  0  0
  1 24  1  0  0  0  0
  1 25  1  0  0  0  0
  1 26  1  0  0  0  0
  2  3  1  0  0  0  0
  2  4  1  0  0  0  0
  3 27  1  0  0  0  0
  3 28  1  0  0  0  0
  3 29  1  0  0  0  0
  4  5  2  0  0  0  0
  4  6  2  0  0  0  0
  4  7  1  0  0  0  0
  7 23  2  0  0  0  0
  7  8  1  0  0  0  0
  8  9  2  0  0  0  0
  8 30  1  0  0  0  0
  9 10  1  0  0  0  0
  9 31  1  0  0  0  0
 10 11  2  0  0  0  0
 10 12  1  0  0  0  0
 12 13  1  0  0  0  0
 12 23  1  0  0  0  0
 13 14  1  0  0  0  0
 13 32  1  0  0  0  0
 13 33  1  0  0  0  0
 14 15  2  0  0  0  0
 14 16  1  0  0  0  0
 16 17  1  0  0  0  0
 16 34  1  0  0  0  0
 17 18  2  0  0  0  0
 17 19  1  0  0  0  0
 19 20  1  0  0  0  0
 19 35  1  0  0  0  0
 20 22  1  0  0  0  0
 20 21  1  0  0  0  0
 20 36  1  0  0  0  0
 21 22  1  0  0  0  0
 21 37  1  0  0  0  0
 21 38  1  0  0  0  0
 22 39  1  0  0  0  0
 22 40  1  0  0  0  0
 23 41  1  0  0  0  0
M  END
> <s_m_source_file>
AV-unprocessed.smi

> <i_m_source_file_index>
478

> <i_lp_mmshare_version>
43012

> <i_f3d_flags>
0

> <s_epik_input>
W0NIM11OKFtDSDNdKVMoPU8pKD1PKWMxW2NIXVtjSF1jKD1PKW4oW2NIXTEpW0NIMl1DKD1PKVtOSF1DKD1PKVtOSF1bQ0hdMltDSDJdW0NIMl0y

> <s_epik_cmdline>
J2VwaWtfcHl0aG9uJywgJy1waCcsICc3LjAnLCAnLXRuJywgJzgnLCAnLW1hJywgJzIwMCcsICctbWV0YWxfYmluZGluZycsICctaW1hZScsICc8aW5maWxlLm1hZT4nLCAnLW9tYWUnLCAnPG91dGZpbGUubWFlPic=

> <r_lp_tautomer_probability>
1

> <r_epik_Ionization_Penalty>
3.37124e-05

> <r_epik_Ionization_Penalty_Charging>
7.23904e-09

> <r_epik_Ionization_Penalty_Neutral>
3.37051e-05

> <r_epik_State_Penalty>
-0

> <r_epik_Charging_Adjusted_Penalty>
7.23904e-09

> <i_epik_Tot_Q>
0

> <i_epik_Tot_abs_Q>
0

> <r_epik_Metal_State_Penalty>
-0

> <b_epik_Metal_Only>
0

> <s_lp_Force_Field>
OPLS_2005

> <r_lp_Energy>
28.3578

> <b_lp_Chiralities_Consistent>
1

> <s_lp_Variant>
AV-unprocessed.smi:478-1

> <Gold.Version>
5.8.1

> <Gold.Id.Protein>
6NUR|6NUR_protein|mol2

> <Gold.PLP.Fitness>
43.7944

> <Gold.PLP.PLP>
-34.5265

> <Gold.PLP.part.hbond>
-4.6190

> <Gold.PLP.part.metal>
0.0000

> <Gold.PLP.part.buried>
-0.7547

> <Gold.PLP.part.nonpolar>
-31.0314

> <Gold.PLP.part.repulsive>
0.6762

> <Gold.PLP.ligand.clash>
0.0000

> <Gold.PLP.ligand.torsion>
1.8163

> <Gold.PLP.Chemscore.Hbond>
3.0274

> <Gold.PLP.Chemscore.CHOScore>
0.3994

> <Gold.PLP.Chemscore.Metal>
0.0000

> <Gold.Chemscore.Hbonds>
donor molecule, donor type, donor heavy atom, donor atom, acceptor molecule, acceptor atom, score
      L1  H    16    34       P1 10175  0.21
      L1  H    19    35       P1 10171  0.38
      L1  C    23    41       P1  7948  0.04
      L1  C    23    41       P1  7957  0.52

> <Gold.PLP.Chemscore.Internal.Correction>
2.6202

> <Gold.Rescore>
     Score         DG    S(hbond)    S(metal)    S(lipo)     H(rot)  DE(clash)    DE(int)     intcor
      9.67     -16.70       2.92        0.00      55.20       1.95       0.01       7.02       ----

> <Gold.Chemscore.Fitness>
9.6741

> <Gold.Chemscore.DG>
-16.7045

> <Gold.Chemscore.ZeroCoef>
-5.4800

> <Gold.Chemscore.Hbond>
2.9186

> <Gold.Chemscore.Metal>
0.0000

> <Gold.Chemscore.Lipo>
55.1969

> <Gold.Chemscore.Internal_Hbond>
0.0000

> <Gold.Chemscore.DEClash>
0.0126

> <Gold.Chemscore.DEInternal>
7.0179

> <Gold.Chemscore.Rot>
1.9459

> <Gold.Chemscore.Internal.Correction>
   9.000000E+99

> <Gold.Chemscore.Hbonds>
donor molecule, donor type, donor heavy atom, donor atom, acceptor molecule, acceptor atom, score
      L1  H    16    34       P1 10175  0.21
      L1  H    19    35       P1 10171  0.35

> <Gold.Chemscore.Hbond.Weighted>
-9.7480

> <Gold.Chemscore.Metal.Weighted>
-0.0000

> <Gold.Chemscore.Lipo.Weighted>
-6.4580

> <Gold.Chemscore.Internal_Hbond.Weighted>
0.0000

> <Gold.Chemscore.DEClash.Weighted>
0.0126

> <Gold.Chemscore.DEInternal.Weighted>
7.0179

> <Gold.Chemscore.Rot.Weighted>
4.9815

> <Gold.Chemscore.Internal.Correction.Weighted>
   9.000000E+99

> <Gold.Protein.RotatedTorsions>
[ 6907 6896 6895 6894 ] final  106.66 input  -60.11 | X-H torsion
[ 7974 7965 7964 7962 ] final -126.13 input  175.53 | X-H torsion
[ 8008 7997 7996 7995 ] final   93.49 input   59.86 | X-H torsion
[ 10167 10162 10161 10158 ] final  123.07 input  -65.29 | X-H torsion
[ 10718 10713 10712 10709 ] final  -98.30 input   66.30 | X-H torsion
[ 10763 10752 10751 10750 ] final  160.07 input  -60.55 | X-H torsion
[ 11005 11000 10999 10996 ] final   29.51 input  -57.11 | X-H torsion

> <Gold.Protein.ActiveResidues>
 VAL166  LYS551  ARG553  GLY616  TRP617  ASP618  TYR619  PRO620  LYS621  CYS622 
 ASP623  PHE694  ASN695  SER759  ASP760  ASP761  ALA762  ILE779  LEU786  VAL792 
 PHE793  MET794  SER795  GLU796  ALA797  LYS798  CYS799  TRP800  GLU811  SER814 

> <Gold.Protein.RotatedAtoms>
  152.5185  133.9348  159.7597 H   0  0  0  0  0  0  0  0  0  0  0  0  # atno 6907 bound_to 6896
  150.9691  133.6355  159.2748 H   0  0  0  0  0  0  0  0  0  0  0  0  # atno 6908 bound_to 6896
  151.3572  135.0902  159.9475 H   0  0  0  0  0  0  0  0  0  0  0  0  # atno 6909 bound_to 6896
  144.9904  140.7726  143.4557 H   0  0  0  0  0  0  0  0  0  0  0  0  # atno 7974 bound_to 7965
  156.0473  140.3312  155.7311 H   0  0  0  0  0  0  0  0  0  0  0  0  # atno 8008 bound_to 7997
  155.5654  140.0623  157.2837 H   0  0  0  0  0  0  0  0  0  0  0  0  # atno 8009 bound_to 7997
  154.4420  140.1870  156.0813 H   0  0  0  0  0  0  0  0  0  0  0  0  # atno 8010 bound_to 7997
  139.5821  144.6991  151.3501 H   0  0  0  0  0  0  0  0  0  0  0  0  # atno 10167 bound_to 10162
  156.0104  130.5232  150.6503 H   0  0  0  0  0  0  0  0  0  0  0  0  # atno 10718 bound_to 10713
  154.2417  135.2774  155.2851 H   0  0  0  0  0  0  0  0  0  0  0  0  # atno 10763 bound_to 10752
  154.5539  135.5667  153.6950 H   0  0  0  0  0  0  0  0  0  0  0  0  # atno 10764 bound_to 10752
  152.9998  135.6281  154.2561 H   0  0  0  0  0  0  0  0  0  0  0  0  # atno 10765 bound_to 10752
  140.3042  134.2722  155.7747 H   0  0  0  0  0  0  0  0  0  0  0  0  # atno 11005 bound_to 11000
  145.2294  139.2122  143.5051 LP  0  0  0  0  0  0  0  0  0  0  0  0  # atno 17320 bound_to 7965
  146.3430  140.2167  142.8591 LP  0  0  0  0  0  0  0  0  0  0  0  0  # atno 17321 bound_to 7965
  140.7098  143.7420  150.7546 LP  0  0  0  0  0  0  0  0  0  0  0  0  # atno 17342 bound_to 10162
  140.0955  143.4837  152.2455 LP  0  0  0  0  0  0  0  0  0  0  0  0  # atno 17343 bound_to 10162
  157.4265  131.0844  151.1080 LP  0  0  0  0  0  0  0  0  0  0  0  0  # atno 17370 bound_to 10713
  157.1666  130.6249  149.5627 LP  0  0  0  0  0  0  0  0  0  0  0  0  # atno 17371 bound_to 10713
  141.2122  133.7666  156.9812 LP  0  0  0  0  0  0  0  0  0  0  0  0  # atno 17394 bound_to 11000
  140.1082  134.9493  157.2026 LP  0  0  0  0  0  0  0  0  0  0  0  0  # atno 17395 bound_to 11000

$$$$
