AV-unprocessed.smi:1446|AV-procd|sdf|5890|dock1
  -GOLD-   22720 5573D 1   1.00000     0.00000
 Structure written by MMmdl.
 47 48  0  0  0  0  0  0  0  0  1 V2000
  150.4518  140.4548  156.6919 C   0  0  0  0  0  0  0  0  0  0  0  0
  149.7601  140.4669  155.3334 C   0  0  0  0  0  0  0  0  0  0  0  0
  150.2046  139.7907  154.4062 O   0  0  0  0  0  0  0  0  0  0  0  0
  148.6709  141.2444  155.2295 N   0  0  0  0  0  0  0  0  0  0  0  0
  147.8494  141.4011  154.0269 C   0  0  1  0  0  0  0  0  0  0  0  0
  147.0423  140.1074  153.8010 C   0  0  0  0  0  0  0  0  0  0  0  0
  146.2216  139.7389  154.6434 O   0  0  0  0  0  0  0  0  0  0  0  0
  147.2922  139.4628  152.6456 N   0  0  0  0  0  0  0  0  0  0  0  0
  146.6803  138.2841  152.1438 C   0  0  0  0  0  0  0  0  0  0  0  0
  146.0935  137.4524  153.1205 C   0  0  0  0  0  0  0  0  0  0  0  0
  145.4734  136.2519  152.7263 C   0  0  0  0  0  0  0  0  0  0  0  0
  145.4483  135.8928  151.3598 C   0  0  0  0  0  0  0  0  0  0  0  0
  144.8370  134.6897  150.9445 N   0  0  0  0  0  0  0  0  0  0  0  0
  144.8415  134.3703  149.5199 C   0  0  0  0  0  0  0  0  0  0  0  0
  143.8844  133.2016  149.2294 C   0  0  0  0  0  0  0  0  0  0  0  0
  144.2301  132.0856  150.0429 O   0  0  0  0  0  0  0  0  0  0  0  0
  144.1110  132.3856  151.4296 C   0  0  0  0  0  0  0  0  0  0  0  0
  145.0712  133.5294  151.8011 C   0  0  0  0  0  0  0  0  0  0  0  0
  146.0554  136.7985  150.4558 C   0  0  0  0  0  0  0  0  0  0  0  0
  146.6517  137.9493  150.8319 N   0  0  0  0  0  0  0  0  0  0  0  0
  146.8813  142.6042  154.2333 C   0  0  0  0  0  0  0  0  0  0  0  0
  145.8522  142.3691  155.3588 C   0  0  0  0  0  0  0  0  0  0  0  0
  146.1320  142.9658  152.9355 C   0  0  0  0  0  0  0  0  0  0  0  0
  149.7580  140.1353  157.4700 H   0  0  0  0  0  0  0  0  0  0  0  0
  150.8175  141.4511  156.9417 H   0  0  0  0  0  0  0  0  0  0  0  0
  151.3004  139.7701  156.6892 H   0  0  0  0  0  0  0  0  0  0  0  0
  148.3768  141.7582  156.0474 H   0  0  0  0  0  0  0  0  0  0  0  0
  148.4920  141.5967  153.1657 H   0  0  0  0  0  0  0  0  0  0  0  0
  147.9975  139.8731  152.0511 H   0  0  0  0  0  0  0  0  0  0  0  0
  146.1152  137.7269  154.1651 H   0  0  0  0  0  0  0  0  0  0  0  0
  145.0141  135.6260  153.4768 H   0  0  0  0  0  0  0  0  0  0  0  0
  144.5357  135.2393  148.9368 H   0  0  0  0  0  0  0  0  0  0  0  0
  145.8537  134.1050  149.2119 H   0  0  0  0  0  0  0  0  0  0  0  0
  142.8484  133.4923  149.4120 H   0  0  0  0  0  0  0  0  0  0  0  0
  143.9535  132.9116  148.1810 H   0  0  0  0  0  0  0  0  0  0  0  0
  143.0799  132.6515  151.6680 H   0  0  0  0  0  0  0  0  0  0  0  0
  144.3503  131.4929  152.0074 H   0  0  0  0  0  0  0  0  0  0  0  0
  146.1045  133.2029  151.6755 H   0  0  0  0  0  0  0  0  0  0  0  0
  144.9416  133.7714  152.8551 H   0  0  0  0  0  0  0  0  0  0  0  0
  146.0879  136.6059  149.3943 H   0  0  0  0  0  0  0  0  0  0  0  0
  147.4715  143.4783  154.5148 H   0  0  0  0  0  0  0  0  0  0  0  0
  145.2572  141.4754  155.1689 H   0  0  0  0  0  0  0  0  0  0  0  0
  145.1651  143.2114  155.4428 H   0  0  0  0  0  0  0  0  0  0  0  0
  146.3254  142.2547  156.3342 H   0  0  0  0  0  0  0  0  0  0  0  0
  145.5455  142.1218  152.5711 H   0  0  0  0  0  0  0  0  0  0  0  0
  146.8136  143.2658  152.1396 H   0  0  0  0  0  0  0  0  0  0  0  0
  145.4475  143.7993  153.0957 H   0  0  0  0  0  0  0  0  0  0  0  0
  1  2  1  0  0  0  0
  1 24  1  0  0  0  0
  1 25  1  0  0  0  0
  1 26  1  0  0  0  0
  2  3  2  0  0  0  0
  2  4  1  0  0  0  0
  4  5  1  0  0  0  0
  4 27  1  0  0  0  0
  5  6  1  0  0  0  0
  5 21  1  0  0  0  0
  5 28  1  0  0  0  0
  6  7  2  0  0  0  0
  6  8  1  0  0  0  0
  8  9  1  0  0  0  0
  8 29  1  0  0  0  0
  9 20  1  0  0  0  0
  9 10  2  0  0  0  0
 10 11  1  0  0  0  0
 10 30  1  0  0  0  0
 11 12  2  0  0  0  0
 11 31  1  0  0  0  0
 12 13  1  0  0  0  0
 12 19  1  0  0  0  0
 13 18  1  0  0  0  0
 13 14  1  0  0  0  0
 14 15  1  0  0  0  0
 14 32  1  0  0  0  0
 14 33  1  0  0  0  0
 15 16  1  0  0  0  0
 15 34  1  0  0  0  0
 15 35  1  0  0  0  0
 16 17  1  0  0  0  0
 17 18  1  0  0  0  0
 17 36  1  0  0  0  0
 17 37  1  0  0  0  0
 18 38  1  0  0  0  0
 18 39  1  0  0  0  0
 19 20  2  0  0  0  0
 19 40  1  0  0  0  0
 21 22  1  0  0  0  0
 21 23  1  0  0  0  0
 21 41  1  0  0  0  0
 22 42  1  0  0  0  0
 22 43  1  0  0  0  0
 22 44  1  0  0  0  0
 23 45  1  0  0  0  0
 23 46  1  0  0  0  0
 23 47  1  0  0  0  0
M  END
> <s_m_source_file>
AV-unprocessed.smi

> <i_m_source_file_index>
1446

> <i_lp_mmshare_version>
43012

> <i_f3d_flags>
0

> <s_epik_input>
W0NIM11DKD1PKVtOSF1bQ0BASF0oW0NIXShbQ0gzXSlbQ0gzXSlDKD1PKVtOSF1jMVtjSF1bY0hdYyhbY0hdbjEpTjJbQ0gyXVtDSDJdT1tDSDJdW0NIMl0y

> <s_epik_cmdline>
J2VwaWtfcHl0aG9uJywgJy1waCcsICc3LjAnLCAnLXRuJywgJzgnLCAnLW1hJywgJzIwMCcsICctbWV0YWxfYmluZGluZycsICctaW1hZScsICc8aW5maWxlLm1hZT4nLCAnLW9tYWUnLCAnPG91dGZpbGUubWFlPic=

> <r_lp_tautomer_probability>
1

> <r_epik_Ionization_Penalty>
0.00298315

> <r_epik_Ionization_Penalty_Charging>
0

> <r_epik_Ionization_Penalty_Neutral>
0.00298315

> <r_epik_State_Penalty>
0.0038483

> <r_epik_Charging_Adjusted_Penalty>
0.0038483

> <i_epik_Tot_Q>
0

> <i_epik_Tot_abs_Q>
0

> <r_epik_Metal_State_Penalty>
-0

> <b_epik_Metal_Only>
0

> <s_lp_Force_Field>
OPLS_2005

> <r_lp_Energy>
27.8209

> <b_lp_Chiralities_Consistent>
1

> <s_lp_Variant>
AV-unprocessed.smi:1446-2

> <Gold.Version>
5.8.1

> <Gold.Id.Protein>
6NUR|6NUR_protein|mol2

> <Gold.PLP.Fitness>
42.6724

> <Gold.PLP.PLP>
-31.4684

> <Gold.PLP.part.hbond>
-3.0339

> <Gold.PLP.part.metal>
0.0000

> <Gold.PLP.part.buried>
2.3059

> <Gold.PLP.part.nonpolar>
-34.6094

> <Gold.PLP.part.repulsive>
3.3763

> <Gold.PLP.ligand.clash>
0.0000

> <Gold.PLP.ligand.torsion>
0.5847

> <Gold.PLP.Chemscore.Hbond>
3.0000

> <Gold.PLP.Chemscore.CHOScore>
0.9860

> <Gold.PLP.Chemscore.Metal>
0.0000

> <Gold.Chemscore.Hbonds>
donor molecule, donor type, donor heavy atom, donor atom, acceptor molecule, acceptor atom, score
      L1  H     8    29       P1  7957  1.00
      P1  H  7954  7966       L1    20  1.00
      P1  H  7989  7998       L1     3  1.00
      L1  C    19    40       P1  7921  1.00

> <Gold.PLP.Chemscore.Internal.Correction>
0.4154

> <Gold.Rescore>
     Score         DG    S(hbond)    S(metal)    S(lipo)     H(rot)  DE(clash)    DE(int)     intcor
      9.28     -19.59       2.37        0.00      91.04       1.74       6.68       3.63       ----

> <Gold.Chemscore.Fitness>
9.2812

> <Gold.Chemscore.DG>
-19.5905

> <Gold.Chemscore.ZeroCoef>
-5.4800

> <Gold.Chemscore.Hbond>
2.3687

> <Gold.Chemscore.Metal>
0.0000

> <Gold.Chemscore.Lipo>
91.0420

> <Gold.Chemscore.Internal_Hbond>
0.0000

> <Gold.Chemscore.DEClash>
6.6767

> <Gold.Chemscore.DEInternal>
3.6326

> <Gold.Chemscore.Rot>
1.7394

> <Gold.Chemscore.Internal.Correction>
   9.000000E+99

> <Gold.Chemscore.Hbonds>
donor molecule, donor type, donor heavy atom, donor atom, acceptor molecule, acceptor atom, score
      L1  H     8    29       P1  7957  0.99
      P1  H  7954  7966       L1    20  0.29
      P1  H  7989  7998       L1     3  0.62

> <Gold.Chemscore.Hbond.Weighted>
-7.9114

> <Gold.Chemscore.Metal.Weighted>
-0.0000

> <Gold.Chemscore.Lipo.Weighted>
-10.6519

> <Gold.Chemscore.Internal_Hbond.Weighted>
0.0000

> <Gold.Chemscore.DEClash.Weighted>
6.6767

> <Gold.Chemscore.DEInternal.Weighted>
3.6326

> <Gold.Chemscore.Rot.Weighted>
4.4528

> <Gold.Chemscore.Internal.Correction.Weighted>
   9.000000E+99

> <Gold.Protein.RotatedTorsions>
[ 6907 6896 6895 6894 ] final  -44.65 input  -60.11 | X-H torsion
[ 7974 7965 7964 7962 ] final  -33.48 input  175.53 | X-H torsion
[ 8008 7997 7996 7995 ] final  -90.27 input   59.86 | X-H torsion
[ 10167 10162 10161 10158 ] final   81.18 input  -65.29 | X-H torsion
[ 10718 10713 10712 10709 ] final  154.04 input   66.30 | X-H torsion
[ 10763 10752 10751 10750 ] final  -31.17 input  -60.55 | X-H torsion
[ 11005 11000 10999 10996 ] final   82.32 input  -57.11 | X-H torsion

> <Gold.Protein.ActiveResidues>
 VAL166  LYS551  ARG553  GLY616  TRP617  ASP618  TYR619  PRO620  LYS621  CYS622 
 ASP623  PHE694  ASN695  SER759  ASP760  ASP761  ALA762  ILE779  LEU786  VAL792 
 PHE793  MET794  SER795  GLU796  ALA797  LYS798  CYS799  TRP800  GLU811  SER814 

> <Gold.Protein.RotatedAtoms>
  150.9305  134.8720  159.7547 H   0  0  0  0  0  0  0  0  0  0  0  0  # atno 6907 bound_to 6896
  152.5035  134.4086  159.9451 H   0  0  0  0  0  0  0  0  0  0  0  0  # atno 6908 bound_to 6896
  151.4113  133.3686  159.2779 H   0  0  0  0  0  0  0  0  0  0  0  0  # atno 6909 bound_to 6896
  146.0907  140.5922  142.8866 H   0  0  0  0  0  0  0  0  0  0  0  0  # atno 7974 bound_to 7965
  154.6966  140.0532  157.0416 H   0  0  0  0  0  0  0  0  0  0  0  0  # atno 8008 bound_to 7997
  155.0743  140.3203  155.4602 H   0  0  0  0  0  0  0  0  0  0  0  0  # atno 8009 bound_to 7997
  156.2746  140.2076  156.5870 H   0  0  0  0  0  0  0  0  0  0  0  0  # atno 8010 bound_to 7997
  139.9420  144.6084  150.8243 H   0  0  0  0  0  0  0  0  0  0  0  0  # atno 10167 bound_to 10162
  157.2368  131.0751  151.1818 H   0  0  0  0  0  0  0  0  0  0  0  0  # atno 10718 bound_to 10713
  153.7930  135.6896  153.4868 H   0  0  0  0  0  0  0  0  0  0  0  0  # atno 10763 bound_to 10752
  153.1737  135.4533  154.9935 H   0  0  0  0  0  0  0  0  0  0  0  0  # atno 10764 bound_to 10752
  154.8037  135.3348  154.7425 H   0  0  0  0  0  0  0  0  0  0  0  0  # atno 10765 bound_to 10752
  139.9068  134.8062  156.2158 H   0  0  0  0  0  0  0  0  0  0  0  0  # atno 11005 bound_to 11000
  144.7358  140.4804  143.6905 LP  0  0  0  0  0  0  0  0  0  0  0  0  # atno 17320 bound_to 7965
  145.6045  139.1507  143.3110 LP  0  0  0  0  0  0  0  0  0  0  0  0  # atno 17321 bound_to 7965
  140.7608  143.3160  151.2732 LP  0  0  0  0  0  0  0  0  0  0  0  0  # atno 17342 bound_to 10162
  139.6697  144.0042  152.2745 LP  0  0  0  0  0  0  0  0  0  0  0  0  # atno 17343 bound_to 10162
  157.3420  130.7038  149.6387 LP  0  0  0  0  0  0  0  0  0  0  0  0  # atno 17370 bound_to 10713
  155.9672  130.4277  150.4756 LP  0  0  0  0  0  0  0  0  0  0  0  0  # atno 17371 bound_to 10713
  141.0436  133.6925  156.1643 LP  0  0  0  0  0  0  0  0  0  0  0  0  # atno 17394 bound_to 11000
  140.6917  134.4658  157.5588 LP  0  0  0  0  0  0  0  0  0  0  0  0  # atno 17395 bound_to 11000

$$$$
