AV-unprocessed.smi:234|AV-procd|sdf|1789|dock9
  -GOLD-   2262020343D 1   1.00000     0.00000
 Structure written by MMmdl.
 59 62  0  0  0  0  0  0  0  0  1 V2000
  153.7591  141.6057  160.7337 C   0  0  0  0  0  0  0  0  0  0  0  0
  153.3170  142.9640  160.1720 C   0  0  0  0  0  0  0  0  0  0  0  0
  152.6199  142.8097  158.9454 O   0  0  0  0  0  0  0  0  0  0  0  0
  151.3061  142.2752  159.0810 C   0  0  2  0  0  0  0  0  0  0  0  0
  151.3601  140.7475  159.1177 C   0  0  0  0  0  0  0  0  0  0  0  0
  151.2526  140.7966  157.5867 C   0  0  1  0  0  0  0  0  0  0  0  0
  150.4190  139.7376  157.0067 N   0  0  0  0  0  0  0  0  0  0  0  0
  150.3757  139.6243  155.5523 C   0  0  0  0  0  0  0  0  0  0  0  0
  150.4180  138.5235  157.6127 C   0  0  0  0  0  0  0  0  0  0  0  0
  151.5254  137.7351  157.5696 N   0  0  0  0  0  0  0  0  0  0  0  0
  151.5202  136.5342  158.1552 C   0  0  0  0  0  0  0  0  0  0  0  0
  150.5325  135.9360  158.8239 N   0  0  0  0  0  0  0  0  0  0  0  0
  149.4178  136.7209  158.8667 C   0  0  0  0  0  0  0  0  0  0  0  0
  149.2749  138.0132  158.2878 C   0  0  0  0  0  0  0  0  0  0  0  0
  147.9990  138.5055  158.5342 N   0  0  0  0  0  0  0  0  0  0  0  0
  147.4212  137.5588  159.2223 C   0  0  0  0  0  0  0  0  0  0  0  0
  148.2033  136.4539  159.4740 N   0  0  0  0  0  0  0  0  0  0  0  0
  147.8174  135.2663  160.2203 C   0  0  0  0  0  0  0  0  0  0  0  0
  147.4696  135.5597  161.6990 C   0  0  2  0  0  0  0  0  0  0  0  0
  146.1725  136.1330  161.7504 O   0  0  0  0  0  0  0  0  0  0  0  0
  148.4434  136.5020  162.3907 C   0  0  0  0  0  0  0  0  0  0  0  0
  148.2534  136.1536  163.8615 C   0  0  0  0  0  0  0  0  0  0  0  0
  148.0215  134.7512  163.8768 O   0  0  0  0  0  0  0  0  0  0  0  0
  147.5510  134.3104  162.6034 C   0  0  1  0  0  0  0  0  0  0  0  0
  146.2649  133.4819  162.7518 C   0  0  0  0  0  0  0  0  0  0  0  0
  150.5514  142.1768  157.7311 C   0  0  0  0  0  0  0  0  0  0  0  0
  149.0202  142.1899  157.8717 C   0  0  0  0  0  0  0  0  0  0  0  0
  150.9064  143.2423  156.6905 C   0  0  0  0  0  0  0  0  0  0  0  0
  154.2538  141.7287  161.6970 H   0  0  0  0  0  0  0  0  0  0  0  0
  154.4571  141.0999  160.0670 H   0  0  0  0  0  0  0  0  0  0  0  0
  152.9021  140.9481  160.8808 H   0  0  0  0  0  0  0  0  0  0  0  0
  152.6397  143.4391  160.8817 H   0  0  0  0  0  0  0  0  0  0  0  0
  154.1660  143.6387  160.0521 H   0  0  0  0  0  0  0  0  0  0  0  0
  150.7139  142.7056  159.8907 H   0  0  0  0  0  0  0  0  0  0  0  0
  152.2935  140.3319  159.4986 H   0  0  0  0  0  0  0  0  0  0  0  0
  150.4925  140.3027  159.6082 H   0  0  0  0  0  0  0  0  0  0  0  0
  152.2346  140.8850  157.1178 H   0  0  0  0  0  0  0  0  0  0  0  0
  150.7963  138.6793  155.2044 H   0  0  0  0  0  0  0  0  0  0  0  0
  150.9400  140.4254  155.0766 H   0  0  0  0  0  0  0  0  0  0  0  0
  149.3450  139.6871  155.2036 H   0  0  0  0  0  0  0  0  0  0  0  0
  152.4391  135.9723  158.0756 H   0  0  0  0  0  0  0  0  0  0  0  0
  146.4038  137.6435  159.5760 H   0  0  0  0  0  0  0  0  0  0  0  0
  146.9679  134.8035  159.7166 H   0  0  0  0  0  0  0  0  0  0  0  0
  148.6360  134.5480  160.1590 H   0  0  0  0  0  0  0  0  0  0  0  0
  146.2522  137.0225  162.0596 H   0  0  0  0  0  0  0  0  0  0  0  0
  149.4671  136.2643  162.0986 H   0  0  0  0  0  0  0  0  0  0  0  0
  148.2685  137.5562  162.1713 H   0  0  0  0  0  0  0  0  0  0  0  0
  149.1144  136.4239  164.4729 H   0  0  0  0  0  0  0  0  0  0  0  0
  147.3769  136.6617  164.2655 H   0  0  0  0  0  0  0  0  0  0  0  0
  148.3337  133.6546  162.2197 H   0  0  0  0  0  0  0  0  0  0  0  0
  145.8989  133.1483  161.7807 H   0  0  0  0  0  0  0  0  0  0  0  0
  145.4711  134.0513  163.2357 H   0  0  0  0  0  0  0  0  0  0  0  0
  146.4460  132.5954  163.3596 H   0  0  0  0  0  0  0  0  0  0  0  0
  148.5237  141.9972  156.9205 H   0  0  0  0  0  0  0  0  0  0  0  0
  148.6644  143.1554  158.2323 H   0  0  0  0  0  0  0  0  0  0  0  0
  148.6659  141.4365  158.5756 H   0  0  0  0  0  0  0  0  0  0  0  0
  150.3580  143.1003  155.7593 H   0  0  0  0  0  0  0  0  0  0  0  0
  151.9675  143.2243  156.4414 H   0  0  0  0  0  0  0  0  0  0  0  0
  150.6773  144.2440  157.0548 H   0  0  0  0  0  0  0  0  0  0  0  0
  1  2  1  0  0  0  0
  1 29  1  0  0  0  0
  1 30  1  0  0  0  0
  1 31  1  0  0  0  0
  2  3  1  0  0  0  0
  2 32  1  0  0  0  0
  2 33  1  0  0  0  0
  3  4  1  0  0  0  0
  4 26  1  0  0  0  0
  4  5  1  0  0  0  0
  4 34  1  0  0  0  0
  5  6  1  0  0  0  0
  5 35  1  0  0  0  0
  5 36  1  0  0  0  0
  6  7  1  0  0  0  0
  6 26  1  0  0  0  0
  6 37  1  0  0  0  0
  7  8  1  0  0  0  0
  7  9  1  0  0  0  0
  8 38  1  0  0  0  0
  8 39  1  0  0  0  0
  8 40  1  0  0  0  0
  9 14  1  0  0  0  0
  9 10  2  0  0  0  0
 10 11  1  0  0  0  0
 11 12  2  0  0  0  0
 11 41  1  0  0  0  0
 12 13  1  0  0  0  0
 13 17  1  0  0  0  0
 13 14  2  0  0  0  0
 14 15  1  0  0  0  0
 15 16  2  0  0  0  0
 16 17  1  0  0  0  0
 16 42  1  0  0  0  0
 17 18  1  0  0  0  0
 18 19  1  0  0  0  0
 18 43  1  0  0  0  0
 18 44  1  0  0  0  0
 19 24  1  0  0  0  0
 19 20  1  0  0  0  0
 19 21  1  0  0  0  0
 20 45  1  0  0  0  0
 21 22  1  0  0  0  0
 21 46  1  0  0  0  0
 21 47  1  0  0  0  0
 22 23  1  0  0  0  0
 22 48  1  0  0  0  0
 22 49  1  0  0  0  0
 23 24  1  0  0  0  0
 24 25  1  0  0  0  0
 24 50  1  0  0  0  0
 25 51  1  0  0  0  0
 25 52  1  0  0  0  0
 25 53  1  0  0  0  0
 26 27  1  0  0  0  0
 26 28  1  0  0  0  0
 27 54  1  0  0  0  0
 27 55  1  0  0  0  0
 27 56  1  0  0  0  0
 28 57  1  0  0  0  0
 28 58  1  0  0  0  0
 28 59  1  0  0  0  0
M  END
> <s_m_source_file>
AV-unprocessed.smi

> <i_m_source_file_index>
234

> <i_lp_mmshare_version>
43012

> <i_f3d_flags>
0

> <s_epik_input>
W0NIM11bQ0gyXU9bQ0BASF0oQzEoW0NIM10pW0NIM10pW0NIMl1bQ0BIXTFOKFtDSDNdKWMobltjSF1uMiljKGMyMyluW2NIXW4zW0NIMl1bQ0BAXTQoW09IXSlbQ0gyXVtDSDJdT1tDQEhdNFtDSDNd

> <s_epik_cmdline>
J2VwaWtfcHl0aG9uJywgJy1waCcsICc3LjAnLCAnLXRuJywgJzgnLCAnLW1hJywgJzIwMCcsICctbWV0YWxfYmluZGluZycsICctaW1hZScsICc8aW5maWxlLm1hZT4nLCAnLW9tYWUnLCAnPG91dGZpbGUubWFlPic=

> <r_lp_tautomer_probability>
1

> <r_epik_Ionization_Penalty>
0.00349132

> <r_epik_Ionization_Penalty_Charging>
0

> <r_epik_Ionization_Penalty_Neutral>
0.00349132

> <r_epik_State_Penalty>
0.00242418

> <r_epik_Charging_Adjusted_Penalty>
0.00242418

> <i_epik_Tot_Q>
0

> <i_epik_Tot_abs_Q>
0

> <r_epik_Metal_State_Penalty>
-0

> <b_epik_Metal_Only>
0

> <s_lp_Force_Field>
OPLS_2005

> <r_lp_Energy>
49.8598

> <b_lp_Chiralities_Consistent>
1

> <s_lp_Variant>
AV-unprocessed.smi:234-5

> <Gold.Version>
5.8.1

> <Gold.Id.Protein>
6NUR|6NUR_protein|mol2

> <Gold.PLP.Fitness>
42.0100

> <Gold.PLP.PLP>
-40.4886

> <Gold.PLP.part.hbond>
-2.9150

> <Gold.PLP.part.metal>
0.0000

> <Gold.PLP.part.buried>
-1.4572

> <Gold.PLP.part.nonpolar>
-35.8885

> <Gold.PLP.part.repulsive>
0.0185

> <Gold.PLP.ligand.clash>
0.0000

> <Gold.PLP.ligand.torsion>
1.2807

> <Gold.PLP.Chemscore.Hbond>
0.9920

> <Gold.PLP.Chemscore.CHOScore>
0.0000

> <Gold.PLP.Chemscore.Metal>
0.0000

> <Gold.Chemscore.Hbonds>
donor molecule, donor type, donor heavy atom, donor atom, acceptor molecule, acceptor atom, score
      P1  H  6896  6909       L1    12  0.65

> <Gold.PLP.Chemscore.Internal.Correction>
1.1069

> <Gold.Rescore>
     Score         DG    S(hbond)    S(metal)    S(lipo)     H(rot)  DE(clash)    DE(int)     intcor
     12.42     -14.16       0.69        0.00     112.03       2.62       0.33       1.41       ----

> <Gold.Chemscore.Fitness>
12.4224

> <Gold.Chemscore.DG>
-14.1642

> <Gold.Chemscore.ZeroCoef>
-5.4800

> <Gold.Chemscore.Hbond>
0.6852

> <Gold.Chemscore.Metal>
0.0000

> <Gold.Chemscore.Lipo>
112.0327

> <Gold.Chemscore.Internal_Hbond>
0.0000

> <Gold.Chemscore.DEClash>
0.3293

> <Gold.Chemscore.DEInternal>
1.4124

> <Gold.Chemscore.Rot>
2.6219

> <Gold.Chemscore.Internal.Correction>
   9.000000E+99

> <Gold.Chemscore.Hbonds>
donor molecule, donor type, donor heavy atom, donor atom, acceptor molecule, acceptor atom, score
      P1  H  6896  6909       L1    12  0.62

> <Gold.Chemscore.Hbond.Weighted>
-2.2884

> <Gold.Chemscore.Metal.Weighted>
-0.0000

> <Gold.Chemscore.Lipo.Weighted>
-13.1078

> <Gold.Chemscore.Internal_Hbond.Weighted>
0.0000

> <Gold.Chemscore.DEClash.Weighted>
0.3293

> <Gold.Chemscore.DEInternal.Weighted>
1.4124

> <Gold.Chemscore.Rot.Weighted>
6.7121

> <Gold.Chemscore.Internal.Correction.Weighted>
   9.000000E+99

> <Gold.Protein.RotatedTorsions>
[ 6907 6896 6895 6894 ] final   56.69 input  -60.11 | X-H torsion
[ 7974 7965 7964 7962 ] final -160.52 input  175.53 | X-H torsion
[ 8008 7997 7996 7995 ] final  -78.73 input   59.86 | X-H torsion
[ 10167 10162 10161 10158 ] final  134.72 input  -65.29 | X-H torsion
[ 10718 10713 10712 10709 ] final   44.89 input   66.30 | X-H torsion
[ 10763 10752 10751 10750 ] final  138.95 input  -60.55 | X-H torsion
[ 11005 11000 10999 10996 ] final -121.24 input  -57.11 | X-H torsion

> <Gold.Protein.ActiveResidues>
 VAL166  LYS551  ARG553  GLY616  TRP617  ASP618  TYR619  PRO620  LYS621  CYS622 
 ASP623  PHE694  ASN695  SER759  ASP760  ASP761  ALA762  ILE779  LEU786  VAL792 
 PHE793  MET794  SER795  GLU796  ALA797  LYS798  CYS799  TRP800  GLU811  SER814 

> <Gold.Protein.RotatedAtoms>
  152.3660  134.6804  160.0191 H   0  0  0  0  0  0  0  0  0  0  0  0  # atno 6907 bound_to 6896
  151.7112  133.3307  159.3299 H   0  0  0  0  0  0  0  0  0  0  0  0  # atno 6908 bound_to 6896
  150.7638  134.6465  159.6310 H   0  0  0  0  0  0  0  0  0  0  0  0  # atno 6909 bound_to 6896
  144.7424  140.3529  143.6112 H   0  0  0  0  0  0  0  0  0  0  0  0  # atno 7974 bound_to 7965
  154.5717  140.0689  156.8974 H   0  0  0  0  0  0  0  0  0  0  0  0  # atno 8008 bound_to 7997
  155.2623  140.3359  155.4254 H   0  0  0  0  0  0  0  0  0  0  0  0  # atno 8009 bound_to 7997
  156.2123  140.1764  156.7652 H   0  0  0  0  0  0  0  0  0  0  0  0  # atno 8010 bound_to 7997
  139.5245  144.6553  151.5180 H   0  0  0  0  0  0  0  0  0  0  0  0  # atno 10167 bound_to 10162
  157.4317  130.8029  149.7610 H   0  0  0  0  0  0  0  0  0  0  0  0  # atno 10718 bound_to 10713
  153.8981  135.3025  155.3448 H   0  0  0  0  0  0  0  0  0  0  0  0  # atno 10763 bound_to 10752
  154.7684  135.4898  153.9603 H   0  0  0  0  0  0  0  0  0  0  0  0  # atno 10764 bound_to 10752
  153.1260  135.6793  153.9356 H   0  0  0  0  0  0  0  0  0  0  0  0  # atno 10765 bound_to 10752
  141.0084  134.0300  157.3446 H   0  0  0  0  0  0  0  0  0  0  0  0  # atno 11005 bound_to 11000
  145.7257  139.1722  143.2459 LP  0  0  0  0  0  0  0  0  0  0  0  0  # atno 17320 bound_to 7965
  146.1244  140.7267  142.9442 LP  0  0  0  0  0  0  0  0  0  0  0  0  # atno 17321 bound_to 7965
  140.6376  143.8953  150.6662 LP  0  0  0  0  0  0  0  0  0  0  0  0  # atno 17342 bound_to 10162
  140.2277  143.3760  152.1591 LP  0  0  0  0  0  0  0  0  0  0  0  0  # atno 17343 bound_to 10162
  155.9916  130.3937  150.2979 LP  0  0  0  0  0  0  0  0  0  0  0  0  # atno 17370 bound_to 10713
  157.1136  131.0228  151.3038 LP  0  0  0  0  0  0  0  0  0  0  0  0  # atno 17371 bound_to 10713
  139.9076  135.0183  156.7555 LP  0  0  0  0  0  0  0  0  0  0  0  0  # atno 17394 bound_to 11000
  140.6774  133.9505  155.7890 LP  0  0  0  0  0  0  0  0  0  0  0  0  # atno 17395 bound_to 11000

$$$$
