AV-unprocessed.smi:2567|AV-procd|sdf|10076|dock6
  -GOLD-   2272014103D 1   1.00000     0.00000
 Structure written by MMmdl.
 34 35  0  0  0  0  0  0  0  0  2 V2000
  152.3619  144.5319  157.9154 C   0  0  0  0  0  0  0  0  0  0  0  0
  151.6576  143.2929  158.5024 C   0  0  0  0  0  0  0  0  0  0  0  0
  152.5838  142.6022  159.5217 C   0  0  0  0  0  0  0  0  0  0  0  0
  150.3914  143.7720  159.2472 C   0  0  0  0  0  0  0  0  0  0  0  0
  151.3199  142.3274  157.3911 C   0  0  0  0  0  0  0  0  0  0  0  0
  150.4361  142.5941  156.4228 N   0  0  0  0  0  0  0  0  0  0  0  0
  150.3354  141.5345  155.5935 N   0  0  0  0  0  0  0  0  0  0  0  0
  151.2038  140.6800  156.1298 C   0  0  0  0  0  0  0  0  0  0  0  0
  151.3946  139.3137  155.5492 C   0  0  2  0  0  0  0  0  0  0  0  0
  150.4183  139.0329  154.3912 C   0  0  0  0  0  0  0  0  0  0  0  0
  150.5790  137.6415  153.9259 N   0  3  0  0  0  0  0  0  0  0  0  0
  150.4241  136.6798  155.0355 C   0  0  0  0  0  0  0  0  0  0  0  0
  151.3871  137.0336  156.1828 C   0  0  0  0  0  0  0  0  0  0  0  0
  151.1668  138.3770  156.6004 O   0  0  0  0  0  0  0  0  0  0  0  0
  151.8346  141.1059  157.2663 N   0  0  0  0  0  0  0  0  0  0  0  0
  152.6118  145.2536  158.6939 H   0  0  0  0  0  0  0  0  0  0  0  0
  151.7286  145.0399  157.1872 H   0  0  0  0  0  0  0  0  0  0  0  0
  153.2912  144.2637  157.4116 H   0  0  0  0  0  0  0  0  0  0  0  0
  153.5172  142.2787  159.0595 H   0  0  0  0  0  0  0  0  0  0  0  0
  152.1091  141.7206  159.9539 H   0  0  0  0  0  0  0  0  0  0  0  0
  152.8424  143.2721  160.3425 H   0  0  0  0  0  0  0  0  0  0  0  0
  150.6422  144.4747  160.0427 H   0  0  0  0  0  0  0  0  0  0  0  0
  149.8579  142.9403  159.7092 H   0  0  0  0  0  0  0  0  0  0  0  0
  149.6988  144.2797  158.5746 H   0  0  0  0  0  0  0  0  0  0  0  0
  152.4260  139.2207  155.2032 H   0  0  0  0  0  0  0  0  0  0  0  0
  149.3876  139.1827  154.7162 H   0  0  0  0  0  0  0  0  0  0  0  0
  150.5973  139.7156  153.5601 H   0  0  0  0  0  0  0  0  0  0  0  0
  149.8933  137.4445  153.2108 H   0  0  0  0  0  0  0  0  0  0  0  0
  149.3926  136.7037  155.3892 H   0  0  0  0  0  0  0  0  0  0  0  0
  150.6159  135.6711  154.6695 H   0  0  0  0  0  0  0  0  0  0  0  0
  151.2224  136.3686  157.0307 H   0  0  0  0  0  0  0  0  0  0  0  0
  152.4255  136.9036  155.8737 H   0  0  0  0  0  0  0  0  0  0  0  0
  151.5039  137.5368  153.5338 H   0  0  0  0  0  0  0  0  0  0  0  0
  149.9013  143.4425  156.3005 H   0  0  0  0  0  0  0  0  0  0  0  0
  1  2  1  0  0  0  0
  1 16  1  0  0  0  0
  1 17  1  0  0  0  0
  1 18  1  0  0  0  0
  2  3  1  0  0  0  0
  2  4  1  0  0  0  0
  2  5  1  0  0  0  0
  3 19  1  0  0  0  0
  3 20  1  0  0  0  0
  3 21  1  0  0  0  0
  4 22  1  0  0  0  0
  4 23  1  0  0  0  0
  4 24  1  0  0  0  0
  5 15  2  0  0  0  0
  5  6  1  0  0  0  0
  6  7  1  0  0  0  0
  6 34  1  0  0  0  0
  7  8  2  0  0  0  0
  8  9  1  0  0  0  0
  8 15  1  0  0  0  0
  9 14  1  0  0  0  0
  9 10  1  0  0  0  0
  9 25  1  0  0  0  0
 10 11  1  0  0  0  0
 10 26  1  0  0  0  0
 10 27  1  0  0  0  0
 11 12  1  0  0  0  0
 11 28  1  0  0  0  0
 11 33  1  0  0  0  0
 12 13  1  0  0  0  0
 12 29  1  0  0  0  0
 12 30  1  0  0  0  0
 13 14  1  0  0  0  0
 13 31  1  0  0  0  0
 13 32  1  0  0  0  0
M  CHG  1  11   1
M  END
> <s_m_source_file>
AV-unprocessed.smi

> <i_m_source_file_index>
2567

> <i_lp_mmshare_version>
43012

> <i_f3d_flags>
0

> <s_epik_input>
W0NIM11DKFtDSDNdKShbQ0gzXSljMW5bbkhdYyhuMSlbQ0BASF0yW0NIMl1bTkhdW0NIMl1bQ0gyXU8y

> <s_epik_cmdline>
J2VwaWtfcHl0aG9uJywgJy1waCcsICc3LjAnLCAnLXRuJywgJzgnLCAnLW1hJywgJzIwMCcsICctbWV0YWxfYmluZGluZycsICctaW1hZScsICc8aW5maWxlLm1hZT4nLCAnLW9tYWUnLCAnPG91dGZpbGUubWFlPic=

> <r_lp_tautomer_probability>
0.948284

> <r_epik_Ionization_Penalty>
0.108767

> <r_epik_Ionization_Penalty_Charging>
0.100865

> <r_epik_Ionization_Penalty_Neutral>
0.00790271

> <r_epik_State_Penalty>
0.197684

> <r_epik_Charging_Adjusted_Penalty>
0.298549

> <i_epik_Tot_Q>
1

> <i_epik_Tot_abs_Q>
1

> <r_epik_Metal_State_Penalty>
0.508163

> <b_epik_Metal_Only>
0

> <s_lp_Force_Field>
OPLS_2005

> <r_lp_Energy>
13.5153

> <b_lp_Chiralities_Consistent>
1

> <s_lp_Variant>
AV-unprocessed.smi:2567-1

> <Gold.Version>
5.8.1

> <Gold.Id.Protein>
6NUR|6NUR_protein|mol2

> <Gold.PLP.Fitness>
38.8845

> <Gold.PLP.PLP>
-30.2169

> <Gold.PLP.part.hbond>
-3.5776

> <Gold.PLP.part.metal>
0.0000

> <Gold.PLP.part.buried>
-2.8660

> <Gold.PLP.part.nonpolar>
-23.9847

> <Gold.PLP.part.repulsive>
0.2783

> <Gold.PLP.ligand.clash>
0.0000

> <Gold.PLP.ligand.torsion>
0.1756

> <Gold.PLP.Chemscore.Hbond>
3.0000

> <Gold.PLP.Chemscore.CHOScore>
0.0000

> <Gold.PLP.Chemscore.Metal>
0.0000

> <Gold.Chemscore.Hbonds>
donor molecule, donor type, donor heavy atom, donor atom, acceptor molecule, acceptor atom, score
      L1  H     6    34       P1  8028  1.00
      L1  H    11    28       P1  7948  2.00

> <Gold.PLP.Chemscore.Internal.Correction>
0.0188

> <Gold.Rescore>
     Score         DG    S(hbond)    S(metal)    S(lipo)     H(rot)  DE(clash)    DE(int)     intcor
     15.96     -16.36       1.83        0.00      68.53       1.26       0.09       0.32       ----

> <Gold.Chemscore.Fitness>
15.9617

> <Gold.Chemscore.DG>
-16.3647

> <Gold.Chemscore.ZeroCoef>
-5.4800

> <Gold.Chemscore.Hbond>
1.8275

> <Gold.Chemscore.Metal>
0.0000

> <Gold.Chemscore.Lipo>
68.5345

> <Gold.Chemscore.Internal_Hbond>
0.0000

> <Gold.Chemscore.DEClash>
0.0867

> <Gold.Chemscore.DEInternal>
0.3163

> <Gold.Chemscore.Rot>
1.2647

> <Gold.Chemscore.Internal.Correction>
   9.000000E+99

> <Gold.Chemscore.Hbonds>
donor molecule, donor type, donor heavy atom, donor atom, acceptor molecule, acceptor atom, score
      L1  H     6    34       P1  8028  1.00
      L1  H    11    28       P1  7948  0.37

> <Gold.Chemscore.Hbond.Weighted>
-6.1037

> <Gold.Chemscore.Metal.Weighted>
-0.0000

> <Gold.Chemscore.Lipo.Weighted>
-8.0185

> <Gold.Chemscore.Internal_Hbond.Weighted>
0.0000

> <Gold.Chemscore.DEClash.Weighted>
0.0867

> <Gold.Chemscore.DEInternal.Weighted>
0.3163

> <Gold.Chemscore.Rot.Weighted>
3.2375

> <Gold.Chemscore.Internal.Correction.Weighted>
   9.000000E+99

> <Gold.Protein.RotatedTorsions>
[ 6907 6896 6895 6894 ] final  -10.95 input  -60.11 | X-H torsion
[ 7974 7965 7964 7962 ] final  -24.04 input  175.53 | X-H torsion
[ 8008 7997 7996 7995 ] final  -36.63 input   59.86 | X-H torsion
[ 10167 10162 10161 10158 ] final -128.89 input  -65.29 | X-H torsion
[ 10718 10713 10712 10709 ] final -105.69 input   66.30 | X-H torsion
[ 10763 10752 10751 10750 ] final -145.38 input  -60.55 | X-H torsion
[ 11005 11000 10999 10996 ] final -103.27 input  -57.11 | X-H torsion

> <Gold.Protein.ActiveResidues>
 VAL166  LYS551  ARG553  GLY616  TRP617  ASP618  TYR619  PRO620  LYS621  CYS622 
 ASP623  PHE694  ASN695  SER759  ASP760  ASP761  ALA762  ILE779  LEU786  VAL792 
 PHE793  MET794  SER795  GLU796  ALA797  LYS798  CYS799  TRP800  GLU811  SER814 

> <Gold.Protein.RotatedAtoms>
  151.3939  135.0960  159.9534 H   0  0  0  0  0  0  0  0  0  0  0  0  # atno 6907 bound_to 6896
  152.5071  133.8954  159.7425 H   0  0  0  0  0  0  0  0  0  0  0  0  # atno 6908 bound_to 6896
  150.9413  133.6597  159.2819 H   0  0  0  0  0  0  0  0  0  0  0  0  # atno 6909 bound_to 6896
  146.1579  140.4697  142.8583 H   0  0  0  0  0  0  0  0  0  0  0  0  # atno 7974 bound_to 7965
  154.4069  140.1625  156.2406 H   0  0  0  0  0  0  0  0  0  0  0  0  # atno 8008 bound_to 7997
  155.9205  140.3421  155.6146 H   0  0  0  0  0  0  0  0  0  0  0  0  # atno 8009 bound_to 7997
  155.7228  140.0770  157.2314 H   0  0  0  0  0  0  0  0  0  0  0  0  # atno 8010 bound_to 7997
  139.9455  143.6114  152.2491 H   0  0  0  0  0  0  0  0  0  0  0  0  # atno 10167 bound_to 10162
  156.0357  130.5576  150.7575 H   0  0  0  0  0  0  0  0  0  0  0  0  # atno 10718 bound_to 10713
  154.8386  135.3415  154.6495 H   0  0  0  0  0  0  0  0  0  0  0  0  # atno 10763 bound_to 10752
  153.7108  135.6964  153.5042 H   0  0  0  0  0  0  0  0  0  0  0  0  # atno 10764 bound_to 10752
  153.2453  135.4371  155.0695 H   0  0  0  0  0  0  0  0  0  0  0  0  # atno 10765 bound_to 10752
  141.1153  133.8626  157.1465 H   0  0  0  0  0  0  0  0  0  0  0  0  # atno 11005 bound_to 11000
  144.7988  140.6174  143.6492 LP  0  0  0  0  0  0  0  0  0  0  0  0  # atno 17320 bound_to 7965
  145.4661  139.1508  143.3839 LP  0  0  0  0  0  0  0  0  0  0  0  0  # atno 17321 bound_to 7965
  139.6670  144.7662  151.1854 LP  0  0  0  0  0  0  0  0  0  0  0  0  # atno 17342 bound_to 10162
  140.7598  143.5923  150.8784 LP  0  0  0  0  0  0  0  0  0  0  0  0  # atno 17343 bound_to 10162
  157.5103  131.0925  151.0206 LP  0  0  0  0  0  0  0  0  0  0  0  0  # atno 17370 bound_to 10713
  157.0563  130.5807  149.5378 LP  0  0  0  0  0  0  0  0  0  0  0  0  # atno 17371 bound_to 10713
  140.0071  135.0004  157.0316 LP  0  0  0  0  0  0  0  0  0  0  0  0  # atno 17394 bound_to 11000
  140.4663  134.1432  155.7197 LP  0  0  0  0  0  0  0  0  0  0  0  0  # atno 17395 bound_to 11000

$$$$
