AV-unprocessed.smi:1046|AV-procd|sdf|4550|dock6
  -GOLD-   22720 2573D 1   1.00000     0.00000
 Structure written by MMmdl.
 53 55  0  0  0  0  0  0  0  0  2 V2000
  152.5714  143.5881  161.7337 C   0  0  0  0  0  0  0  0  0  0  0  0
  152.2683  142.9205  160.4039 C   0  0  0  0  0  0  0  0  0  0  0  0
  152.2753  141.5096  160.3261 C   0  0  0  0  0  0  0  0  0  0  0  0
  152.0004  140.8501  159.1080 C   0  0  0  0  0  0  0  0  0  0  0  0
  151.9541  139.4996  158.8070 N   0  0  0  0  0  0  0  0  0  0  0  0
  151.6483  139.5238  157.5128 C   0  0  0  0  0  0  0  0  0  0  0  0
  151.4919  140.7324  156.9387 N   0  0  0  0  0  0  0  0  0  0  0  0
  151.1607  141.0108  155.5533 C   0  0  0  0  0  0  0  0  0  0  0  0
  149.8566  140.3148  155.1192 C   0  0  2  0  0  0  0  0  0  0  0  0
  150.0072  139.7299  153.8411 O   0  0  0  0  0  0  0  0  0  0  0  0
  148.5731  141.1752  155.1395 C   0  0  0  0  0  0  0  0  0  0  0  0
  147.6322  140.9892  154.0237 N   0  0  0  0  0  0  0  0  0  0  0  0
  146.9003  139.7246  154.1112 C   0  0  0  0  0  0  0  0  0  0  0  0
  145.8570  139.7015  155.2454 C   0  0  0  0  0  0  0  0  0  0  0  0
  144.8761  140.8003  155.0599 N   0  3  0  0  0  0  0  0  0  0  0  0
  143.7928  140.7710  156.0748 C   0  0  0  0  0  0  0  0  0  0  0  0
  142.7997  141.9355  155.9180 C   0  0  0  0  0  0  0  0  0  0  0  0
  141.9678  141.7148  154.7985 O   0  0  0  0  0  0  0  0  0  0  0  0
  145.5736  142.1094  154.9627 C   0  0  0  0  0  0  0  0  0  0  0  0
  146.6494  142.0671  153.8565 C   0  0  0  0  0  0  0  0  0  0  0  0
  151.7164  141.6474  157.9610 C   0  0  0  0  0  0  0  0  0  0  0  0
  151.7051  143.0518  158.0257 C   0  0  0  0  0  0  0  0  0  0  0  0
  151.9805  143.6946  159.2508 C   0  0  0  0  0  0  0  0  0  0  0  0
  151.9644  145.2117  159.3111 C   0  0  0  0  0  0  0  0  0  0  0  0
  152.8277  142.8546  162.4985 H   0  0  0  0  0  0  0  0  0  0  0  0
  151.7046  144.1490  162.0842 H   0  0  0  0  0  0  0  0  0  0  0  0
  153.4127  144.2746  161.6352 H   0  0  0  0  0  0  0  0  0  0  0  0
  152.4922  140.9196  161.2043 H   0  0  0  0  0  0  0  0  0  0  0  0
  151.5294  138.6100  156.9492 H   0  0  0  0  0  0  0  0  0  0  0  0
  151.0718  142.0916  155.4368 H   0  0  0  0  0  0  0  0  0  0  0  0
  151.9984  140.6845  154.9370 H   0  0  0  0  0  0  0  0  0  0  0  0
  149.6806  139.4888  155.8098 H   0  0  0  0  0  0  0  0  0  0  0  0
  149.7211  140.3537  153.1912 H   0  0  0  0  0  0  0  0  0  0  0  0
  148.0623  140.9299  156.0720 H   0  0  0  0  0  0  0  0  0  0  0  0
  148.8434  142.2256  155.2403 H   0  0  0  0  0  0  0  0  0  0  0  0
  146.3943  139.5396  153.1625 H   0  0  0  0  0  0  0  0  0  0  0  0
  147.6005  138.8975  154.2349 H   0  0  0  0  0  0  0  0  0  0  0  0
  145.3377  138.7423  155.2354 H   0  0  0  0  0  0  0  0  0  0  0  0
  146.3391  139.7910  156.2201 H   0  0  0  0  0  0  0  0  0  0  0  0
  143.2394  139.8343  155.9917 H   0  0  0  0  0  0  0  0  0  0  0  0
  144.2305  140.7785  157.0740 H   0  0  0  0  0  0  0  0  0  0  0  0
  142.1675  142.0008  156.8040 H   0  0  0  0  0  0  0  0  0  0  0  0
  143.3029  142.8968  155.8212 H   0  0  0  0  0  0  0  0  0  0  0  0
  142.3966  142.0621  154.0305 H   0  0  0  0  0  0  0  0  0  0  0  0
  144.8596  142.8961  154.7220 H   0  0  0  0  0  0  0  0  0  0  0  0
  146.0110  142.3731  155.9261 H   0  0  0  0  0  0  0  0  0  0  0  0
  147.1348  143.0364  153.7963 H   0  0  0  0  0  0  0  0  0  0  0  0
  146.1504  141.9371  152.8952 H   0  0  0  0  0  0  0  0  0  0  0  0
  151.4848  143.6283  157.1396 H   0  0  0  0  0  0  0  0  0  0  0  0
  151.6631  145.6442  158.3565 H   0  0  0  0  0  0  0  0  0  0  0  0
  152.9560  145.5935  159.5547 H   0  0  0  0  0  0  0  0  0  0  0  0
  151.2629  145.5585  160.0701 H   0  0  0  0  0  0  0  0  0  0  0  0
  144.4336  140.6338  154.1672 H   0  0  0  0  0  0  0  0  0  0  0  0
  1  2  1  0  0  0  0
  1 25  1  0  0  0  0
  1 26  1  0  0  0  0
  1 27  1  0  0  0  0
  2 23  1  0  0  0  0
  2  3  2  0  0  0  0
  3  4  1  0  0  0  0
  3 28  1  0  0  0  0
  4 21  2  0  0  0  0
  4  5  1  0  0  0  0
  5  6  2  0  0  0  0
  6  7  1  0  0  0  0
  6 29  1  0  0  0  0
  7  8  1  0  0  0  0
  7 21  1  0  0  0  0
  8  9  1  0  0  0  0
  8 30  1  0  0  0  0
  8 31  1  0  0  0  0
  9 10  1  0  0  0  0
  9 11  1  0  0  0  0
  9 32  1  0  0  0  0
 10 33  1  0  0  0  0
 11 12  1  0  0  0  0
 11 34  1  0  0  0  0
 11 35  1  0  0  0  0
 12 20  1  0  0  0  0
 12 13  1  0  0  0  0
 13 14  1  0  0  0  0
 13 36  1  0  0  0  0
 13 37  1  0  0  0  0
 14 15  1  0  0  0  0
 14 38  1  0  0  0  0
 14 39  1  0  0  0  0
 15 16  1  0  0  0  0
 15 19  1  0  0  0  0
 15 53  1  0  0  0  0
 16 17  1  0  0  0  0
 16 40  1  0  0  0  0
 16 41  1  0  0  0  0
 17 18  1  0  0  0  0
 17 42  1  0  0  0  0
 17 43  1  0  0  0  0
 18 44  1  0  0  0  0
 19 20  1  0  0  0  0
 19 45  1  0  0  0  0
 19 46  1  0  0  0  0
 20 47  1  0  0  0  0
 20 48  1  0  0  0  0
 21 22  1  0  0  0  0
 22 23  2  0  0  0  0
 22 49  1  0  0  0  0
 23 24  1  0  0  0  0
 24 50  1  0  0  0  0
 24 51  1  0  0  0  0
 24 52  1  0  0  0  0
M  CHG  1  15   1
M  END
> <s_m_source_file>
AV-unprocessed.smi

> <i_m_source_file_index>
1046

> <i_lp_mmshare_version>
43012

> <i_f3d_flags>
0

> <s_epik_input>
W0NIM11jKFtjSF0xKWMoW0NIM10pW2NIXWMoYzEyKW4oW2NIXW4yKVtDSDJdW0NASF0oW09IXSlbQ0gyXU4zW0NIMl1bQ0gyXU4oW0NIMl1bQ0gyXTMpW0NIMl1bQ0gyXVtPSF0=

> <s_epik_cmdline>
J2VwaWtfcHl0aG9uJywgJy1waCcsICc3LjAnLCAnLXRuJywgJzgnLCAnLW1hJywgJzIwMCcsICctbWV0YWxfYmluZGluZycsICctaW1hZScsICc8aW5maWxlLm1hZT4nLCAnLW9tYWUnLCAnPG91dGZpbGUubWFlPic=

> <r_epik_Ionization_Penalty>
0.218081

> <r_epik_Ionization_Penalty_Charging>
0.0909554

> <r_epik_Ionization_Penalty_Neutral>
0.127126

> <r_epik_State_Penalty>
0.825642

> <r_epik_Charging_Adjusted_Penalty>
0.916597

> <i_epik_Tot_Q>
1

> <i_epik_Tot_abs_Q>
1

> <r_epik_Metal_State_Penalty>
0.740189

> <b_epik_Metal_Only>
0

> <s_lp_Force_Field>
OPLS_2005

> <r_lp_Energy>
40.3597

> <b_lp_Chiralities_Consistent>
1

> <s_lp_Variant>
AV-unprocessed.smi:1046-3

> <Gold.Version>
5.8.1

> <Gold.Id.Protein>
6NUR|6NUR_protein|mol2

> <Gold.PLP.Fitness>
54.4427

> <Gold.PLP.PLP>
-46.3015

> <Gold.PLP.part.hbond>
-5.0000

> <Gold.PLP.part.metal>
0.0000

> <Gold.PLP.part.buried>
-5.3343

> <Gold.PLP.part.nonpolar>
-36.4083

> <Gold.PLP.part.repulsive>
0.1505

> <Gold.PLP.ligand.clash>
0.0000

> <Gold.PLP.ligand.torsion>
1.3847

> <Gold.PLP.Chemscore.Hbond>
3.5580

> <Gold.PLP.Chemscore.CHOScore>
0.0000

> <Gold.PLP.Chemscore.Metal>
0.0000

> <Gold.Chemscore.Hbonds>
donor molecule, donor type, donor heavy atom, donor atom, acceptor molecule, acceptor atom, score
      L1  H    10    33       P1  7957  0.50
      L1  H    15    53       P1 10175  2.00
      L1  H    18    44       P1 10174  1.00

> <Gold.PLP.Chemscore.Internal.Correction>
0.2367

> <Gold.Rescore>
     Score         DG    S(hbond)    S(metal)    S(lipo)     H(rot)  DE(clash)    DE(int)     intcor
     18.13     -20.14       2.53        0.00     123.15       3.21       0.61       1.40       ----

> <Gold.Chemscore.Fitness>
18.1262

> <Gold.Chemscore.DG>
-20.1371

> <Gold.Chemscore.ZeroCoef>
-5.4800

> <Gold.Chemscore.Hbond>
2.5314

> <Gold.Chemscore.Metal>
0.0000

> <Gold.Chemscore.Lipo>
123.1525

> <Gold.Chemscore.Internal_Hbond>
0.0000

> <Gold.Chemscore.DEClash>
0.6083

> <Gold.Chemscore.DEInternal>
1.4026

> <Gold.Chemscore.Rot>
3.2058

> <Gold.Chemscore.Internal.Correction>
   9.000000E+99

> <Gold.Chemscore.Hbonds>
donor molecule, donor type, donor heavy atom, donor atom, acceptor molecule, acceptor atom, score
      L1  H    10    33       P1  7957  0.49
      L1  H    15    53       P1 10175  1.00
      L1  H    18    44       P1 10174  0.29

> <Gold.Chemscore.Hbond.Weighted>
-8.4550

> <Gold.Chemscore.Metal.Weighted>
-0.0000

> <Gold.Chemscore.Lipo.Weighted>
-14.4088

> <Gold.Chemscore.Internal_Hbond.Weighted>
0.0000

> <Gold.Chemscore.DEClash.Weighted>
0.6083

> <Gold.Chemscore.DEInternal.Weighted>
1.4026

> <Gold.Chemscore.Rot.Weighted>
8.2067

> <Gold.Chemscore.Internal.Correction.Weighted>
   9.000000E+99

> <Gold.Protein.RotatedTorsions>
[ 6907 6896 6895 6894 ] final   37.89 input  -60.11 | X-H torsion
[ 7974 7965 7964 7962 ] final   74.63 input  175.53 | X-H torsion
[ 8008 7997 7996 7995 ] final  152.50 input   59.86 | X-H torsion
[ 10167 10162 10161 10158 ] final   -2.32 input  -65.29 | X-H torsion
[ 10718 10713 10712 10709 ] final    8.60 input   66.30 | X-H torsion
[ 10763 10752 10751 10750 ] final -157.42 input  -60.55 | X-H torsion
[ 11005 11000 10999 10996 ] final  173.25 input  -57.11 | X-H torsion

> <Gold.Protein.ActiveResidues>
 VAL166  LYS551  ARG553  GLY616  TRP617  ASP618  TYR619  PRO620  LYS621  CYS622 
 ASP623  PHE694  ASN695  SER759  ASP760  ASP761  ALA762  ILE779  LEU786  VAL792 
 PHE793  MET794  SER795  GLU796  ALA797  LYS798  CYS799  TRP800  GLU811  SER814 

> <Gold.Protein.RotatedAtoms>
  152.1492  134.9001  160.0548 H   0  0  0  0  0  0  0  0  0  0  0  0  # atno 6907 bound_to 6896
  152.0039  133.3831  159.4201 H   0  0  0  0  0  0  0  0  0  0  0  0  # atno 6908 bound_to 6896
  150.6873  134.3725  159.5042 H   0  0  0  0  0  0  0  0  0  0  0  0  # atno 6909 bound_to 6896
  145.7259  139.2665  143.1569 H   0  0  0  0  0  0  0  0  0  0  0  0  # atno 7974 bound_to 7965
  156.2626  140.2019  156.6343 H   0  0  0  0  0  0  0  0  0  0  0  0  # atno 8008 bound_to 7997
  154.6658  140.0555  157.0137 H   0  0  0  0  0  0  0  0  0  0  0  0  # atno 8009 bound_to 7997
  155.1209  140.3224  155.4500 H   0  0  0  0  0  0  0  0  0  0  0  0  # atno 8010 bound_to 7997
  140.6846  143.6671  150.8217 H   0  0  0  0  0  0  0  0  0  0  0  0  # atno 10167 bound_to 10162
  156.9540  130.5908  149.5658 H   0  0  0  0  0  0  0  0  0  0  0  0  # atno 10718 bound_to 10713
  154.7637  135.3125  154.8328 H   0  0  0  0  0  0  0  0  0  0  0  0  # atno 10763 bound_to 10752
  153.9081  135.6808  153.4756 H   0  0  0  0  0  0  0  0  0  0  0  0  # atno 10764 bound_to 10752
  153.1241  135.4809  154.9175 H   0  0  0  0  0  0  0  0  0  0  0  0  # atno 10765 bound_to 10752
  140.3384  134.7297  157.4185 H   0  0  0  0  0  0  0  0  0  0  0  0  # atno 11005 bound_to 11000
  146.0583  140.7998  142.9747 LP  0  0  0  0  0  0  0  0  0  0  0  0  # atno 17320 bound_to 7965
  144.6905  140.3157  143.7240 LP  0  0  0  0  0  0  0  0  0  0  0  0  # atno 17321 bound_to 7965
  140.0376  143.5379  152.2732 LP  0  0  0  0  0  0  0  0  0  0  0  0  # atno 17342 bound_to 10162
  139.6194  144.7626  151.2773 LP  0  0  0  0  0  0  0  0  0  0  0  0  # atno 17343 bound_to 10162
  156.0350  130.5438  150.8631 LP  0  0  0  0  0  0  0  0  0  0  0  0  # atno 17370 bound_to 10713
  157.5702  131.0946  150.9428 LP  0  0  0  0  0  0  0  0  0  0  0  0  # atno 17371 bound_to 10713
  140.0801  134.5743  155.8549 LP  0  0  0  0  0  0  0  0  0  0  0  0  # atno 17394 bound_to 11000
  141.2045  133.6639  156.6124 LP  0  0  0  0  0  0  0  0  0  0  0  0  # atno 17395 bound_to 11000

$$$$
