AV-unprocessed.smi:910|AV-procd|sdf|4128|dock1
  -GOLD-   22720 2 33D 1   1.00000     0.00000
 Structure written by MMmdl.
 47 48  0  0  0  0  0  0  0  0  2 V2000
  143.2499  137.8186  151.2925 C   0  0  0  0  0  0  0  0  0  0  0  0
  144.6999  137.5803  151.5750 C   0  0  0  0  0  0  0  0  0  0  0  0
  145.6952  138.5010  151.8062 N   0  3  0  0  0  0  0  0  0  0  0  0
  146.8480  137.8678  152.0089 C   0  0  0  0  0  0  0  0  0  0  0  0
  148.0750  138.5171  152.2762 N   0  0  0  0  0  0  0  0  0  0  0  0
  148.2398  139.5573  153.1071 C   0  0  0  0  0  0  0  0  0  0  0  0
  147.3405  140.0600  153.7816 O   0  0  0  0  0  0  0  0  0  0  0  0
  149.5094  139.9913  153.1154 N   0  0  0  0  0  0  0  0  0  0  0  0
  149.9952  141.1358  153.8804 C   0  0  0  0  0  0  0  0  0  0  0  0
  150.3828  140.7318  155.3102 C   0  0  0  0  0  0  0  0  0  0  0  0
  150.7967  141.8836  156.0278 O   0  0  0  0  0  0  0  0  0  0  0  0
  151.6581  141.6118  157.1237 C   0  0  2  0  0  0  0  0  0  0  0  0
  150.9681  140.5493  157.9974 C   0  0  0  0  0  0  0  0  0  0  0  0
  151.7649  140.2741  159.2809 C   0  0  0  0  0  0  0  0  0  0  0  0
  151.9982  141.5702  160.0712 C   0  0  0  0  0  0  0  0  0  0  0  0
  152.6851  142.6357  159.2019 C   0  0  0  0  0  0  0  0  0  0  0  0
  151.8909  142.9208  157.9112 C   0  0  1  0  0  0  0  0  0  0  0  0
  152.5986  143.9870  157.0593 C   0  0  0  0  0  0  0  0  0  0  0  0
  146.6747  136.5211  151.9266 O   0  0  0  0  0  0  0  0  0  0  0  0
  145.3315  136.3582  151.6566 C   0  0  0  0  0  0  0  0  0  0  0  0
  144.8311  134.9610  151.5065 C   0  0  0  0  0  0  0  0  0  0  0  0
  142.9886  137.4952  150.2847 H   0  0  0  0  0  0  0  0  0  0  0  0
  142.9965  138.8756  151.3768 H   0  0  0  0  0  0  0  0  0  0  0  0
  142.6169  137.2705  151.9908 H   0  0  0  0  0  0  0  0  0  0  0  0
  145.5333  139.5003  151.8098 H   0  0  0  0  0  0  0  0  0  0  0  0
  150.1847  139.5170  152.5337 H   0  0  0  0  0  0  0  0  0  0  0  0
  150.8341  141.6185  153.3760 H   0  0  0  0  0  0  0  0  0  0  0  0
  149.1934  141.8734  153.9183 H   0  0  0  0  0  0  0  0  0  0  0  0
  149.5272  140.2807  155.8147 H   0  0  0  0  0  0  0  0  0  0  0  0
  151.1804  139.9872  155.2864 H   0  0  0  0  0  0  0  0  0  0  0  0
  152.6215  141.2185  156.7910 H   0  0  0  0  0  0  0  0  0  0  0  0
  149.9643  140.8862  158.2603 H   0  0  0  0  0  0  0  0  0  0  0  0
  150.8448  139.6252  157.4314 H   0  0  0  0  0  0  0  0  0  0  0  0
  151.2340  139.5507  159.9006 H   0  0  0  0  0  0  0  0  0  0  0  0
  152.7238  139.8207  159.0272 H   0  0  0  0  0  0  0  0  0  0  0  0
  151.0439  141.9543  160.4340 H   0  0  0  0  0  0  0  0  0  0  0  0
  152.6038  141.3631  160.9540 H   0  0  0  0  0  0  0  0  0  0  0  0
  152.8024  143.5541  159.7784 H   0  0  0  0  0  0  0  0  0  0  0  0
  153.6922  142.3011  158.9484 H   0  0  0  0  0  0  0  0  0  0  0  0
  150.9174  143.3211  158.1991 H   0  0  0  0  0  0  0  0  0  0  0  0
  153.5709  143.6358  156.7125 H   0  0  0  0  0  0  0  0  0  0  0  0
  152.7594  144.9021  157.6297 H   0  0  0  0  0  0  0  0  0  0  0  0
  152.0074  144.2508  156.1823 H   0  0  0  0  0  0  0  0  0  0  0  0
  143.9969  134.7745  152.1831 H   0  0  0  0  0  0  0  0  0  0  0  0
  145.6142  134.2360  151.7300 H   0  0  0  0  0  0  0  0  0  0  0  0
  144.4868  134.7824  150.4876 H   0  0  0  0  0  0  0  0  0  0  0  0
  148.8872  138.1723  151.7864 H   0  0  0  0  0  0  0  0  0  0  0  0
  1 22  1  0  0  0  0
  1 23  1  0  0  0  0
  1 24  1  0  0  0  0
  1  2  1  0  0  0  0
  2  3  1  0  0  0  0
  2 20  2  0  0  0  0
  3 25  1  0  0  0  0
  3  4  2  0  0  0  0
  4 19  1  0  0  0  0
  4  5  1  0  0  0  0
  5  6  1  0  0  0  0
  5 47  1  0  0  0  0
  6  8  1  0  0  0  0
  6  7  2  0  0  0  0
  8  9  1  0  0  0  0
  8 26  1  0  0  0  0
  9 10  1  0  0  0  0
  9 27  1  0  0  0  0
  9 28  1  0  0  0  0
 10 11  1  0  0  0  0
 10 29  1  0  0  0  0
 10 30  1  0  0  0  0
 11 12  1  0  0  0  0
 12 17  1  0  0  0  0
 12 13  1  0  0  0  0
 12 31  1  0  0  0  0
 13 14  1  0  0  0  0
 13 32  1  0  0  0  0
 13 33  1  0  0  0  0
 14 15  1  0  0  0  0
 14 34  1  0  0  0  0
 14 35  1  0  0  0  0
 15 16  1  0  0  0  0
 15 36  1  0  0  0  0
 15 37  1  0  0  0  0
 16 17  1  0  0  0  0
 16 38  1  0  0  0  0
 16 39  1  0  0  0  0
 17 18  1  0  0  0  0
 17 40  1  0  0  0  0
 18 41  1  0  0  0  0
 18 42  1  0  0  0  0
 18 43  1  0  0  0  0
 19 20  1  0  0  0  0
 20 21  1  0  0  0  0
 21 44  1  0  0  0  0
 21 45  1  0  0  0  0
 21 46  1  0  0  0  0
M  CHG  1   3   1
M  END
> <s_m_source_file>
AV-unprocessed.smi

> <i_m_source_file_index>
910

> <i_lp_mmshare_version>
43012

> <i_f3d_flags>
0

> <s_epik_input>
W0NIM11jMW5jKG9jMVtDSDNdKVtOSF1DKD1PKVtOSF1bQ0gyXVtDSDJdT1tDQEBIXTJbQ0gyXVtDSDJdW0NIMl1bQ0gyXVtDQEhdMltDSDNd

> <s_epik_cmdline>
J2VwaWtfcHl0aG9uJywgJy1waCcsICc3LjAnLCAnLXRuJywgJzgnLCAnLW1hJywgJzIwMCcsICctbWV0YWxfYmluZGluZycsICctaW1hZScsICc8aW5maWxlLm1hZT4nLCAnLW9tYWUnLCAnPG91dGZpbGUubWFlPic=

> <r_epik_Ionization_Penalty>
7.32931

> <r_epik_Ionization_Penalty_Charging>
7.12214

> <r_epik_Ionization_Penalty_Neutral>
0.207166

> <r_epik_State_Penalty>
2.61278

> <r_epik_Charging_Adjusted_Penalty>
9.73492

> <i_epik_Tot_Q>
1

> <i_epik_Tot_abs_Q>
1

> <r_epik_Metal_State_Penalty>
2.64585

> <b_epik_Metal_Only>
0

> <s_lp_Force_Field>
OPLS_2005

> <r_lp_Energy>
16.0479

> <b_lp_Chiralities_Consistent>
1

> <s_lp_Variant>
AV-unprocessed.smi:910-13

> <Gold.Version>
5.8.1

> <Gold.Id.Protein>
6NUR|6NUR_protein|mol2

> <Gold.PLP.Fitness>
45.9668

> <Gold.PLP.PLP>
-36.9310

> <Gold.PLP.part.hbond>
-4.0966

> <Gold.PLP.part.metal>
0.0000

> <Gold.PLP.part.buried>
-4.3480

> <Gold.PLP.part.nonpolar>
-32.5752

> <Gold.PLP.part.repulsive>
4.1769

> <Gold.PLP.ligand.clash>
0.0000

> <Gold.PLP.ligand.torsion>
0.6840

> <Gold.PLP.Chemscore.Hbond>
3.4480

> <Gold.PLP.Chemscore.CHOScore>
0.0000

> <Gold.PLP.Chemscore.Metal>
0.0000

> <Gold.Chemscore.Hbonds>
donor molecule, donor type, donor heavy atom, donor atom, acceptor molecule, acceptor atom, score
      L1  H     3    25       P1 10175  0.65
      L1  H     5    47       P1  7948  0.24

> <Gold.PLP.Chemscore.Internal.Correction>
0.0599

> <Gold.Rescore>
     Score         DG    S(hbond)    S(metal)    S(lipo)     H(rot)  DE(clash)    DE(int)     intcor
     18.22     -21.56       2.66        0.00      98.62       1.69       1.65       1.69       ----

> <Gold.Chemscore.Fitness>
18.2200

> <Gold.Chemscore.DG>
-21.5552

> <Gold.Chemscore.ZeroCoef>
-5.4800

> <Gold.Chemscore.Hbond>
2.6572

> <Gold.Chemscore.Metal>
0.0000

> <Gold.Chemscore.Lipo>
98.6243

> <Gold.Chemscore.Internal_Hbond>
0.0000

> <Gold.Chemscore.DEClash>
1.6457

> <Gold.Chemscore.DEInternal>
1.6895

> <Gold.Chemscore.Rot>
1.6949

> <Gold.Chemscore.Internal.Correction>
   9.000000E+99

> <Gold.Chemscore.Hbonds>
donor molecule, donor type, donor heavy atom, donor atom, acceptor molecule, acceptor atom, score
      L1  H     3    25       P1 10175  0.27
      L1  H     5    47       P1  7948  0.21
      L1  H     8    26       P1  7957  0.03

> <Gold.Chemscore.Hbond.Weighted>
-8.8751

> <Gold.Chemscore.Metal.Weighted>
-0.0000

> <Gold.Chemscore.Lipo.Weighted>
-11.5390

> <Gold.Chemscore.Internal_Hbond.Weighted>
0.0000

> <Gold.Chemscore.DEClash.Weighted>
1.6457

> <Gold.Chemscore.DEInternal.Weighted>
1.6895

> <Gold.Chemscore.Rot.Weighted>
4.3390

> <Gold.Chemscore.Internal.Correction.Weighted>
   9.000000E+99

> <Gold.Protein.RotatedTorsions>
[ 6907 6896 6895 6894 ] final  -54.65 input  -60.11 | X-H torsion
[ 7974 7965 7964 7962 ] final   85.06 input  175.53 | X-H torsion
[ 8008 7997 7996 7995 ] final   93.05 input   59.86 | X-H torsion
[ 10167 10162 10161 10158 ] final   37.37 input  -65.29 | X-H torsion
[ 10718 10713 10712 10709 ] final   65.45 input   66.30 | X-H torsion
[ 10763 10752 10751 10750 ] final  161.57 input  -60.55 | X-H torsion
[ 11005 11000 10999 10996 ] final   42.63 input  -57.11 | X-H torsion

> <Gold.Protein.ActiveResidues>
 VAL166  LYS551  ARG553  GLY616  TRP617  ASP618  TYR619  PRO620  LYS621  CYS622 
 ASP623  PHE694  ASN695  SER759  ASP760  ASP761  ALA762  ILE779  LEU786  VAL792 
 PHE793  MET794  SER795  GLU796  ALA797  LYS798  CYS799  TRP800  GLU811  SER814 

> <Gold.Protein.RotatedAtoms>
  150.8320  134.7577  159.6861 H   0  0  0  0  0  0  0  0  0  0  0  0  # atno 6907 bound_to 6896
  152.4423  134.5563  159.9891 H   0  0  0  0  0  0  0  0  0  0  0  0  # atno 6908 bound_to 6896
  151.5722  133.3351  159.3027 H   0  0  0  0  0  0  0  0  0  0  0  0  # atno 6909 bound_to 6896
  145.5905  139.2337  143.2302 H   0  0  0  0  0  0  0  0  0  0  0  0  # atno 7974 bound_to 7965
  156.0423  140.3318  155.7258 H   0  0  0  0  0  0  0  0  0  0  0  0  # atno 8008 bound_to 7997
  155.5725  140.0629  157.2820 H   0  0  0  0  0  0  0  0  0  0  0  0  # atno 8009 bound_to 7997
  154.4399  140.1858  156.0882 H   0  0  0  0  0  0  0  0  0  0  0  0  # atno 8010 bound_to 7997
  140.4039  144.1686  150.6135 H   0  0  0  0  0  0  0  0  0  0  0  0  # atno 10167 bound_to 10162
  157.6106  130.9214  149.9978 H   0  0  0  0  0  0  0  0  0  0  0  0  # atno 10718 bound_to 10713
  154.2650  135.2767  155.2762 H   0  0  0  0  0  0  0  0  0  0  0  0  # atno 10763 bound_to 10752
  154.5351  135.5718  153.6795 H   0  0  0  0  0  0  0  0  0  0  0  0  # atno 10764 bound_to 10752
  152.9955  135.6237  154.2802 H   0  0  0  0  0  0  0  0  0  0  0  0  # atno 10765 bound_to 10752
  140.1721  134.4209  155.8251 H   0  0  0  0  0  0  0  0  0  0  0  0  # atno 11005 bound_to 11000
  146.1650  140.6731  142.9259 LP  0  0  0  0  0  0  0  0  0  0  0  0  # atno 17320 bound_to 7965
  144.7353  140.4791  143.6908 LP  0  0  0  0  0  0  0  0  0  0  0  0  # atno 17321 bound_to 7965
  140.4710  143.2413  151.9088 LP  0  0  0  0  0  0  0  0  0  0  0  0  # atno 17342 bound_to 10162
  139.4784  144.5369  151.8585 LP  0  0  0  0  0  0  0  0  0  0  0  0  # atno 17343 bound_to 10162
  156.1207  130.3646  149.9892 LP  0  0  0  0  0  0  0  0  0  0  0  0  # atno 17370 bound_to 10713
  156.7972  130.9277  151.3646 LP  0  0  0  0  0  0  0  0  0  0  0  0  # atno 17371 bound_to 10713
  141.2218  133.6961  156.7782 LP  0  0  0  0  0  0  0  0  0  0  0  0  # atno 17394 bound_to 11000
  140.2365  134.8646  157.3530 LP  0  0  0  0  0  0  0  0  0  0  0  0  # atno 17395 bound_to 11000

$$$$
