AV-unprocessed.smi:1653|AV-procd|sdf|6641|dock2
  -GOLD-   22720 7343D 1   1.00000     0.00000
 Structure written by MMmdl.
 41 42  0  0  0  0  0  0  0  0  3 V2000
  153.0647  137.0064  156.1659 N   0  0  0  0  0  0  0  0  0  0  0  0
  152.1167  137.6664  156.2363 C   0  0  0  0  0  0  0  0  0  0  0  0
  150.9067  138.5075  156.3253 C   0  0  0  0  0  0  0  0  0  0  0  0
  149.7276  137.6659  156.5598 N   0  0  0  0  0  0  0  0  0  0  0  0
  149.4647  136.9190  157.6446 C   0  0  0  0  0  0  0  0  0  0  0  0
  150.2052  136.8630  158.6265 O   0  0  0  0  0  0  0  0  0  0  0  0
  148.1452  136.1357  157.6153 C   0  0  0  0  0  0  0  0  0  0  0  0
  147.9290  135.3241  158.8252 N   0  0  0  0  0  0  0  0  0  0  0  0
  147.7589  133.9390  158.6428 C   0  0  0  0  0  0  0  0  0  0  0  0
  147.5493  133.1090  159.6745 C   0  0  0  0  0  0  0  0  0  0  0  0
  147.5053  133.6688  161.0032 C   0  0  0  0  0  0  0  0  0  0  0  0
  147.6641  134.9976  161.2032 C   0  0  0  0  0  0  0  0  0  0  0  0
  147.6158  135.4916  162.5601 N   0  3  0  0  0  0  0  0  0  0  0  0
  147.9071  136.6643  162.7745 O   0  0  0  0  0  0  0  0  0  0  0  0
  147.2976  134.7148  163.4554 O   0  5  0  0  0  0  0  0  0  0  0  0
  147.8823  135.9104  160.0620 C   0  0  0  0  0  0  0  0  0  0  0  0
  148.0084  137.1294  160.1946 O   0  0  0  0  0  0  0  0  0  0  0  0
  151.1072  139.5419  157.4681 C   0  0  0  0  0  0  0  0  0  0  0  0
  149.8661  140.3804  157.8403 C   0  0  0  0  0  0  0  0  0  0  0  0
  149.6506  141.6583  157.0113 C   0  0  0  0  0  0  0  0  0  0  0  0
  149.9531  141.5657  155.5061 C   0  0  0  0  0  0  0  0  0  0  0  0
  149.5996  140.2267  154.8401 C   0  0  0  0  0  0  0  0  0  0  0  0
  150.7349  139.1906  154.9507 C   0  0  0  0  0  0  0  0  0  0  0  0
  149.0485  137.6441  155.8131 H   0  0  0  0  0  0  0  0  0  0  0  0
  147.3317  136.8500  157.4805 H   0  0  0  0  0  0  0  0  0  0  0  0
  148.1142  135.4994  156.7285 H   0  0  0  0  0  0  0  0  0  0  0  0
  147.7988  133.5999  157.6177 H   0  0  0  0  0  0  0  0  0  0  0  0
  147.4149  132.0493  159.5152 H   0  0  0  0  0  0  0  0  0  0  0  0
  147.3520  133.0054  161.8420 H   0  0  0  0  0  0  0  0  0  0  0  0
  151.4176  139.0019  158.3633 H   0  0  0  0  0  0  0  0  0  0  0  0
  151.9444  140.2018  157.2370 H   0  0  0  0  0  0  0  0  0  0  0  0
  148.9644  139.7708  157.8046 H   0  0  0  0  0  0  0  0  0  0  0  0
  149.9529  140.6804  158.8851 H   0  0  0  0  0  0  0  0  0  0  0  0
  148.6163  141.9766  157.1469 H   0  0  0  0  0  0  0  0  0  0  0  0
  150.2577  142.4622  157.4291 H   0  0  0  0  0  0  0  0  0  0  0  0
  149.4068  142.3659  155.0055 H   0  0  0  0  0  0  0  0  0  0  0  0
  151.0065  141.7895  155.3326 H   0  0  0  0  0  0  0  0  0  0  0  0
  148.6546  139.8351  155.2174 H   0  0  0  0  0  0  0  0  0  0  0  0
  149.4353  140.4185  153.7792 H   0  0  0  0  0  0  0  0  0  0  0  0
  151.6749  139.6607  154.6576 H   0  0  0  0  0  0  0  0  0  0  0  0
  150.5628  138.4156  154.2020 H   0  0  0  0  0  0  0  0  0  0  0  0
  1  2  3  0  0  0  0
  2  3  1  0  0  0  0
  3 23  1  0  0  0  0
  3  4  1  0  0  0  0
  3 18  1  0  0  0  0
  4  5  1  0  0  0  0
  4 24  1  0  0  0  0
  5  6  2  0  0  0  0
  5  7  1  0  0  0  0
  7  8  1  0  0  0  0
  7 25  1  0  0  0  0
  7 26  1  0  0  0  0
  8 16  1  0  0  0  0
  8  9  1  0  0  0  0
  9 10  2  0  0  0  0
  9 27  1  0  0  0  0
 10 11  1  0  0  0  0
 10 28  1  0  0  0  0
 11 12  2  0  0  0  0
 11 29  1  0  0  0  0
 12 13  1  0  0  0  0
 12 16  1  0  0  0  0
 13 14  2  0  0  0  0
 13 15  1  0  0  0  0
 16 17  2  0  0  0  0
 18 19  1  0  0  0  0
 18 30  1  0  0  0  0
 18 31  1  0  0  0  0
 19 20  1  0  0  0  0
 19 32  1  0  0  0  0
 19 33  1  0  0  0  0
 20 21  1  0  0  0  0
 20 34  1  0  0  0  0
 20 35  1  0  0  0  0
 21 22  1  0  0  0  0
 21 36  1  0  0  0  0
 21 37  1  0  0  0  0
 22 23  1  0  0  0  0
 22 38  1  0  0  0  0
 22 39  1  0  0  0  0
 23 40  1  0  0  0  0
 23 41  1  0  0  0  0
M  CHG  1  13   1
M  CHG  1  15  -1
M  END
> <s_m_source_file>
AV-unprocessed.smi

> <i_m_source_file_index>
1653

> <i_lp_mmshare_version>
43012

> <i_f3d_flags>
0

> <s_epik_input>
W0NIMl0xW0NIMl1bQ0gyXVtDSDJdW0NIMl1bQ0gyXUMxKEMjTilbTkhdQyg9TylbQ0gyXW4yW2NIXVtjSF1bY0hdYyhbTitdKD1PKVtPLV0pYzI9Tw==

> <s_epik_cmdline>
J2VwaWtfcHl0aG9uJywgJy1waCcsICc3LjAnLCAnLXRuJywgJzgnLCAnLW1hJywgJzIwMCcsICctbWV0YWxfYmluZGluZycsICctaW1hZScsICc8aW5maWxlLm1hZT4nLCAnLW9tYWUnLCAnPG91dGZpbGUubWFlPic=

> <r_lp_tautomer_probability>
1

> <r_epik_Ionization_Penalty>
4.51252e-07

> <r_epik_Ionization_Penalty_Charging>
1.09758e-10

> <r_epik_Ionization_Penalty_Neutral>
4.51142e-07

> <r_epik_State_Penalty>
-0

> <r_epik_Charging_Adjusted_Penalty>
1.09758e-10

> <i_epik_Tot_Q>
0

> <i_epik_Tot_abs_Q>
2

> <r_epik_Metal_State_Penalty>
-0

> <b_epik_Metal_Only>
0

> <s_lp_Force_Field>
OPLS_2005

> <r_lp_Energy>
31.6459

> <b_lp_Chiralities_Consistent>
1

> <s_lp_Variant>
AV-unprocessed.smi:1653-1

> <Gold.Version>
5.8.1

> <Gold.Id.Protein>
6NUR|6NUR_protein|mol2

> <Gold.PLP.Fitness>
40.8154

> <Gold.PLP.PLP>
-35.0241

> <Gold.PLP.part.hbond>
-6.2232

> <Gold.PLP.part.metal>
0.0000

> <Gold.PLP.part.buried>
-5.4523

> <Gold.PLP.part.nonpolar>
-23.7334

> <Gold.PLP.part.repulsive>
0.0506

> <Gold.PLP.ligand.clash>
0.0000

> <Gold.PLP.ligand.torsion>
0.0582

> <Gold.PLP.Chemscore.Hbond>
1.9638

> <Gold.PLP.Chemscore.CHOScore>
0.0000

> <Gold.PLP.Chemscore.Metal>
0.0000

> <Gold.Chemscore.Hbonds>
donor molecule, donor type, donor heavy atom, donor atom, acceptor molecule, acceptor atom, score
      P1  H  6931  6943       L1    14  0.78
      P1  H  6934  6947       L1    17  0.46
      P1  H 10752 10764       L1     1  0.58

> <Gold.PLP.Chemscore.Internal.Correction>
0.0164

> <Gold.Rescore>
     Score         DG    S(hbond)    S(metal)    S(lipo)     H(rot)  DE(clash)    DE(int)     intcor
     14.27     -16.13       2.24        0.00      62.68       1.63       0.03       1.83       ----

> <Gold.Chemscore.Fitness>
14.2741

> <Gold.Chemscore.DG>
-16.1321

> <Gold.Chemscore.ZeroCoef>
-5.4800

> <Gold.Chemscore.Hbond>
2.2418

> <Gold.Chemscore.Metal>
0.0000

> <Gold.Chemscore.Lipo>
62.6841

> <Gold.Chemscore.Internal_Hbond>
0.0000

> <Gold.Chemscore.DEClash>
0.0261

> <Gold.Chemscore.DEInternal>
1.8320

> <Gold.Chemscore.Rot>
1.6287

> <Gold.Chemscore.Internal.Correction>
   9.000000E+99

> <Gold.Chemscore.Hbonds>
donor molecule, donor type, donor heavy atom, donor atom, acceptor molecule, acceptor atom, score
      P1  H  6931  6943       L1    14  0.73
      P1  H  6934  6947       L1    17  0.47
      P1  H 10752 10764       L1     1  0.57

> <Gold.Chemscore.Hbond.Weighted>
-7.4875

> <Gold.Chemscore.Metal.Weighted>
-0.0000

> <Gold.Chemscore.Lipo.Weighted>
-7.3340

> <Gold.Chemscore.Internal_Hbond.Weighted>
0.0000

> <Gold.Chemscore.DEClash.Weighted>
0.0261

> <Gold.Chemscore.DEInternal.Weighted>
1.8320

> <Gold.Chemscore.Rot.Weighted>
4.1694

> <Gold.Chemscore.Internal.Correction.Weighted>
   9.000000E+99

> <Gold.Protein.RotatedTorsions>
[ 6907 6896 6895 6894 ] final  150.06 input  -60.11 | X-H torsion
[ 7974 7965 7964 7962 ] final    0.77 input  175.53 | X-H torsion
[ 8008 7997 7996 7995 ] final  143.35 input   59.86 | X-H torsion
[ 10167 10162 10161 10158 ] final    3.18 input  -65.29 | X-H torsion
[ 10718 10713 10712 10709 ] final  -48.45 input   66.30 | X-H torsion
[ 10763 10752 10751 10750 ] final  -35.29 input  -60.55 | X-H torsion
[ 11005 11000 10999 10996 ] final -156.19 input  -57.11 | X-H torsion

> <Gold.Protein.ActiveResidues>
 VAL166  LYS551  ARG553  GLY616  TRP617  ASP618  TYR619  PRO620  LYS621  CYS622 
 ASP623  PHE694  ASN695  SER759  ASP760  ASP761  ALA762  ILE779  LEU786  VAL792 
 PHE793  MET794  SER795  GLU796  ALA797  LYS798  CYS799  TRP800  GLU811  SER814 

> <Gold.Protein.RotatedAtoms>
  152.1196  133.4346  159.4668 H   0  0  0  0  0  0  0  0  0  0  0  0  # atno 6907 bound_to 6896
  150.6871  134.2551  159.4535 H   0  0  0  0  0  0  0  0  0  0  0  0  # atno 6908 bound_to 6896
  152.0426  134.9701  160.0624 H   0  0  0  0  0  0  0  0  0  0  0  0  # atno 6909 bound_to 6896
  146.2436  140.1088  142.8344 H   0  0  0  0  0  0  0  0  0  0  0  0  # atno 7974 bound_to 7965
  156.2932  140.2264  156.4876 H   0  0  0  0  0  0  0  0  0  0  0  0  # atno 8008 bound_to 7997
  154.7799  140.0461  157.1140 H   0  0  0  0  0  0  0  0  0  0  0  0  # atno 8009 bound_to 7997
  154.9772  140.3074  155.4965 H   0  0  0  0  0  0  0  0  0  0  0  0  # atno 8010 bound_to 7997
  140.6599  143.7332  150.7719 H   0  0  0  0  0  0  0  0  0  0  0  0  # atno 10167 bound_to 10162
  156.1987  130.4155  149.9271 H   0  0  0  0  0  0  0  0  0  0  0  0  # atno 10718 bound_to 10713
  153.8607  135.6840  153.4783 H   0  0  0  0  0  0  0  0  0  0  0  0  # atno 10763 bound_to 10752
  153.1343  135.4684  154.9396 H   0  0  0  0  0  0  0  0  0  0  0  0  # atno 10764 bound_to 10752
  154.7760  135.3253  154.8040 H   0  0  0  0  0  0  0  0  0  0  0  0  # atno 10765 bound_to 10752
  140.6783  134.4172  157.5228 H   0  0  0  0  0  0  0  0  0  0  0  0  # atno 11005 bound_to 11000
  145.0505  140.9014  143.4998 LP  0  0  0  0  0  0  0  0  0  0  0  0  # atno 17320 bound_to 7965
  145.1184  139.2710  143.5601 LP  0  0  0  0  0  0  0  0  0  0  0  0  # atno 17321 bound_to 7965
  140.0999  143.4798  152.2431 LP  0  0  0  0  0  0  0  0  0  0  0  0  # atno 17342 bound_to 10162
  139.5830  144.7519  151.3592 LP  0  0  0  0  0  0  0  0  0  0  0  0  # atno 17343 bound_to 10162
  156.6988  130.8925  151.3597 LP  0  0  0  0  0  0  0  0  0  0  0  0  # atno 17370 bound_to 10713
  157.6973  130.9295  150.0681 LP  0  0  0  0  0  0  0  0  0  0  0  0  # atno 17371 bound_to 10713
  139.8960  134.8671  156.2108 LP  0  0  0  0  0  0  0  0  0  0  0  0  # atno 17394 bound_to 11000
  141.0338  133.6974  156.1476 LP  0  0  0  0  0  0  0  0  0  0  0  0  # atno 17395 bound_to 11000

$$$$
