AV-unprocessed.smi:1667|AV-procd|sdf|6679|dock5
  -GOLD-   22720 7393D 1   1.00000     0.00000
 Structure written by MMmdl.
 46 48  0  0  0  0  0  0  0  0  2 V2000
  152.8442  137.2577  158.4938 C   0  0  0  0  0  0  0  0  0  0  0  0
  152.6407  137.0118  157.0028 C   0  0  0  0  0  0  0  0  0  0  0  0
  153.3461  136.1926  156.4151 O   0  0  0  0  0  0  0  0  0  0  0  0
  151.6775  137.7311  156.4055 N   0  0  0  0  0  0  0  0  0  0  0  0
  151.3207  137.6627  154.9915 C   0  0  1  0  0  0  0  0  0  0  0  0
  150.9658  136.2157  154.6112 C   0  0  0  0  0  0  0  0  0  0  0  0
  150.2178  138.6283  154.6701 C   0  0  0  0  0  0  0  0  0  0  0  0
  149.1219  138.3762  153.8966 N   0  3  0  0  0  0  0  0  0  0  0  0
  148.3164  139.5122  153.8260 C   0  0  0  0  0  0  0  0  0  0  0  0
  147.1184  139.7401  153.1559 C   0  0  0  0  0  0  0  0  0  0  0  0
  146.5528  141.0251  153.2903 C   0  0  0  0  0  0  0  0  0  0  0  0
  147.1741  142.0227  154.0696 C   0  0  0  0  0  0  0  0  0  0  0  0
  148.3872  141.7781  154.7468 C   0  0  0  0  0  0  0  0  0  0  0  0
  148.9408  140.5060  154.6054 C   0  0  0  0  0  0  0  0  0  0  0  0
  150.1046  139.9168  155.1119 N   0  0  0  0  0  0  0  0  0  0  0  0
  150.9825  140.7156  155.9836 C   0  0  0  0  0  0  0  0  0  0  0  0
  150.2131  141.4383  157.1077 C   0  0  1  0  0  0  0  0  0  0  0  0
  149.4643  140.4746  157.8187 O   0  0  0  0  0  0  0  0  0  0  0  0
  151.1406  142.2354  158.0130 C   0  0  0  0  0  0  0  0  0  0  0  0
  151.1062  143.6478  158.0167 C   0  0  0  0  0  0  0  0  0  0  0  0
  151.9391  144.3751  158.8885 C   0  0  0  0  0  0  0  0  0  0  0  0
  152.8130  143.6959  159.7590 C   0  0  0  0  0  0  0  0  0  0  0  0
  152.8533  142.2886  159.7576 C   0  0  0  0  0  0  0  0  0  0  0  0
  153.6889  141.6340  160.5981 F   0  0  0  0  0  0  0  0  0  0  0  0
  152.0200  141.5605  158.8869 C   0  0  0  0  0  0  0  0  0  0  0  0
  152.1757  137.9494  154.3810 H   0  0  0  0  0  0  0  0  0  0  0  0
  151.9171  137.5763  158.9718 H   0  0  0  0  0  0  0  0  0  0  0  0
  153.5962  138.0319  158.6471 H   0  0  0  0  0  0  0  0  0  0  0  0
  153.1842  136.3470  158.9880 H   0  0  0  0  0  0  0  0  0  0  0  0
  151.1558  138.3822  156.9740 H   0  0  0  0  0  0  0  0  0  0  0  0
  150.7324  136.1352  153.5489 H   0  0  0  0  0  0  0  0  0  0  0  0
  150.1066  135.8492  155.1740 H   0  0  0  0  0  0  0  0  0  0  0  0
  151.8018  135.5446  154.8119 H   0  0  0  0  0  0  0  0  0  0  0  0
  146.6403  138.9772  152.5589 H   0  0  0  0  0  0  0  0  0  0  0  0
  145.6243  141.2502  152.7857 H   0  0  0  0  0  0  0  0  0  0  0  0
  146.7111  142.9957  154.1493 H   0  0  0  0  0  0  0  0  0  0  0  0
  148.8561  142.5492  155.3404 H   0  0  0  0  0  0  0  0  0  0  0  0
  151.7394  140.0481  156.3976 H   0  0  0  0  0  0  0  0  0  0  0  0
  151.5204  141.4335  155.3645 H   0  0  0  0  0  0  0  0  0  0  0  0
  149.4872  142.1226  156.6671 H   0  0  0  0  0  0  0  0  0  0  0  0
  148.9346  139.9916  157.2027 H   0  0  0  0  0  0  0  0  0  0  0  0
  150.4292  144.1788  157.3631 H   0  0  0  0  0  0  0  0  0  0  0  0
  151.9031  145.4545  158.8930 H   0  0  0  0  0  0  0  0  0  0  0  0
  153.4501  144.2542  160.4290 H   0  0  0  0  0  0  0  0  0  0  0  0
  152.0491  140.4808  158.9013 H   0  0  0  0  0  0  0  0  0  0  0  0
  148.9458  137.4887  153.4437 H   0  0  0  0  0  0  0  0  0  0  0  0
  1  2  1  0  0  0  0
  1 27  1  0  0  0  0
  1 28  1  0  0  0  0
  1 29  1  0  0  0  0
  2  3  2  0  0  0  0
  2  4  1  0  0  0  0
  4  5  1  0  0  0  0
  4 30  1  0  0  0  0
  5 26  1  0  0  0  0
  5  6  1  0  0  0  0
  5  7  1  0  0  0  0
  6 31  1  0  0  0  0
  6 32  1  0  0  0  0
  6 33  1  0  0  0  0
  7 15  1  0  0  0  0
  7  8  2  0  0  0  0
  8  9  1  0  0  0  0
  8 46  1  0  0  0  0
  9 14  2  0  0  0  0
  9 10  1  0  0  0  0
 10 11  2  0  0  0  0
 10 34  1  0  0  0  0
 11 12  1  0  0  0  0
 11 35  1  0  0  0  0
 12 13  2  0  0  0  0
 12 36  1  0  0  0  0
 13 14  1  0  0  0  0
 13 37  1  0  0  0  0
 14 15  1  0  0  0  0
 15 16  1  0  0  0  0
 16 17  1  0  0  0  0
 16 38  1  0  0  0  0
 16 39  1  0  0  0  0
 17 18  1  0  0  0  0
 17 19  1  0  0  0  0
 17 40  1  0  0  0  0
 18 41  1  0  0  0  0
 19 25  1  0  0  0  0
 19 20  2  0  0  0  0
 20 21  1  0  0  0  0
 20 42  1  0  0  0  0
 21 22  2  0  0  0  0
 21 43  1  0  0  0  0
 22 23  1  0  0  0  0
 22 44  1  0  0  0  0
 23 24  1  0  0  0  0
 23 25  2  0  0  0  0
 25 45  1  0  0  0  0
M  CHG  1   8   1
M  END
> <s_m_source_file>
AV-unprocessed.smi

> <i_m_source_file_index>
1667

> <i_lp_mmshare_version>
43012

> <i_f3d_flags>
0

> <s_epik_input>
W0NIM11DKD1PKVtOSF1bQ0BASF0oW0NIM10pYyhuMSluKGMoYzEyKVtjSF1bY0hdW2NIXVtjSF0yKVtDSDJdW0NASF0oW09IXSljM1tjSF1bY0hdW2NIXWMoRilbY0hdMw==

> <s_epik_cmdline>
J2VwaWtfcHl0aG9uJywgJy1waCcsICc3LjAnLCAnLXRuJywgJzgnLCAnLW1hJywgJzIwMCcsICctbWV0YWxfYmluZGluZycsICctaW1hZScsICc8aW5maWxlLm1hZT4nLCAnLW9tYWUnLCAnPG91dGZpbGUubWFlPic=

> <r_epik_Ionization_Penalty>
0.950383

> <r_epik_Ionization_Penalty_Charging>
0.950379

> <r_epik_Ionization_Penalty_Neutral>
3.60962e-06

> <r_epik_State_Penalty>
0.994584

> <r_epik_Charging_Adjusted_Penalty>
1.94496

> <i_epik_Tot_Q>
1

> <i_epik_Tot_abs_Q>
1

> <r_epik_Metal_State_Penalty>
1.10485

> <b_epik_Metal_Only>
0

> <s_lp_Force_Field>
OPLS_2005

> <r_lp_Energy>
12.894

> <b_lp_Chiralities_Consistent>
1

> <s_lp_Variant>
AV-unprocessed.smi:1667-7

> <Gold.Version>
5.8.1

> <Gold.Id.Protein>
6NUR|6NUR_protein|mol2

> <Gold.PLP.Fitness>
59.1481

> <Gold.PLP.PLP>
-51.3813

> <Gold.PLP.part.hbond>
-2.2511

> <Gold.PLP.part.metal>
0.0000

> <Gold.PLP.part.buried>
2.1125

> <Gold.PLP.part.nonpolar>
-51.1089

> <Gold.PLP.part.repulsive>
0.1128

> <Gold.PLP.ligand.clash>
0.0000

> <Gold.PLP.ligand.torsion>
0.6501

> <Gold.PLP.Chemscore.Hbond>
3.0000

> <Gold.PLP.Chemscore.CHOScore>
0.0000

> <Gold.PLP.Chemscore.Metal>
0.0000

> <Gold.Chemscore.Hbonds>
donor molecule, donor type, donor heavy atom, donor atom, acceptor molecule, acceptor atom, score
      L1  H     8    46       P1  7948  2.00
      P1  H 10752 10764       L1     3  0.57

> <Gold.PLP.Chemscore.Internal.Correction>
0.0669

> <Gold.Rescore>
     Score         DG    S(hbond)    S(metal)    S(lipo)     H(rot)  DE(clash)    DE(int)     intcor
     18.62     -20.01       1.66        0.00     132.23       2.53       0.60       0.79       ----

> <Gold.Chemscore.Fitness>
18.6192

> <Gold.Chemscore.DG>
-20.0090

> <Gold.Chemscore.ZeroCoef>
-5.4800

> <Gold.Chemscore.Hbond>
1.6598

> <Gold.Chemscore.Metal>
0.0000

> <Gold.Chemscore.Lipo>
132.2316

> <Gold.Chemscore.Internal_Hbond>
0.0000

> <Gold.Chemscore.DEClash>
0.6018

> <Gold.Chemscore.DEInternal>
0.7880

> <Gold.Chemscore.Rot>
2.5335

> <Gold.Chemscore.Internal.Correction>
   9.000000E+99

> <Gold.Chemscore.Hbonds>
donor molecule, donor type, donor heavy atom, donor atom, acceptor molecule, acceptor atom, score
      L1  H     8    46       P1  7948  0.93
      P1  H 10752 10764       L1     3  0.55

> <Gold.Chemscore.Hbond.Weighted>
-5.5436

> <Gold.Chemscore.Metal.Weighted>
-0.0000

> <Gold.Chemscore.Lipo.Weighted>
-15.4711

> <Gold.Chemscore.Internal_Hbond.Weighted>
0.0000

> <Gold.Chemscore.DEClash.Weighted>
0.6018

> <Gold.Chemscore.DEInternal.Weighted>
0.7880

> <Gold.Chemscore.Rot.Weighted>
6.4856

> <Gold.Chemscore.Internal.Correction.Weighted>
   9.000000E+99

> <Gold.Protein.RotatedTorsions>
[ 6907 6896 6895 6894 ] final  -86.84 input  -60.11 | X-H torsion
[ 7974 7965 7964 7962 ] final   36.01 input  175.53 | X-H torsion
[ 8008 7997 7996 7995 ] final -107.28 input   59.86 | X-H torsion
[ 10167 10162 10161 10158 ] final   35.78 input  -65.29 | X-H torsion
[ 10718 10713 10712 10709 ] final -140.75 input   66.30 | X-H torsion
[ 10763 10752 10751 10750 ] final    3.37 input  -60.55 | X-H torsion
[ 11005 11000 10999 10996 ] final  113.54 input  -57.11 | X-H torsion

> <Gold.Protein.ActiveResidues>
 VAL166  LYS551  ARG553  GLY616  TRP617  ASP618  TYR619  PRO620  LYS621  CYS622 
 ASP623  PHE694  ASN695  SER759  ASP760  ASP761  ALA762  ILE779  LEU786  VAL792 
 PHE793  MET794  SER795  GLU796  ALA797  LYS798  CYS799  TRP800  GLU811  SER814 

> <Gold.Protein.RotatedAtoms>
  150.6866  134.2988  159.4697 H   0  0  0  0  0  0  0  0  0  0  0  0  # atno 6907 bound_to 6896
  152.0886  134.9420  160.0581 H   0  0  0  0  0  0  0  0  0  0  0  0  # atno 6908 bound_to 6896
  152.0745  133.4088  159.4510 H   0  0  0  0  0  0  0  0  0  0  0  0  # atno 6909 bound_to 6896
  146.1242  139.6070  142.9270 H   0  0  0  0  0  0  0  0  0  0  0  0  # atno 7974 bound_to 7965
  154.9270  140.0406  157.2028 H   0  0  0  0  0  0  0  0  0  0  0  0  # atno 8008 bound_to 7997
  154.8198  140.2881  155.5773 H   0  0  0  0  0  0  0  0  0  0  0  0  # atno 8009 bound_to 7997
  156.2979  140.2521  156.3103 H   0  0  0  0  0  0  0  0  0  0  0  0  # atno 8010 bound_to 7997
  140.4190  144.1486  150.6146 H   0  0  0  0  0  0  0  0  0  0  0  0  # atno 10167 bound_to 10162
  156.3259  130.7560  151.1668 H   0  0  0  0  0  0  0  0  0  0  0  0  # atno 10718 bound_to 10713
  153.2842  135.6943  153.7356 H   0  0  0  0  0  0  0  0  0  0  0  0  # atno 10763 bound_to 10752
  153.6332  135.3406  155.3049 H   0  0  0  0  0  0  0  0  0  0  0  0  # atno 10764 bound_to 10752
  154.8504  135.4414  154.1904 H   0  0  0  0  0  0  0  0  0  0  0  0  # atno 10765 bound_to 10752
  139.8956  134.9551  156.6755 H   0  0  0  0  0  0  0  0  0  0  0  0  # atno 11005 bound_to 11000
  145.5401  141.0421  143.2335 LP  0  0  0  0  0  0  0  0  0  0  0  0  # atno 17320 bound_to 7965
  144.7626  139.6921  143.7228 LP  0  0  0  0  0  0  0  0  0  0  0  0  # atno 17321 bound_to 7965
  140.4555  143.2469  151.9291 LP  0  0  0  0  0  0  0  0  0  0  0  0  # atno 17342 bound_to 10162
  139.4782  144.5520  151.8371 LP  0  0  0  0  0  0  0  0  0  0  0  0  # atno 17343 bound_to 10162
  157.7421  131.0494  150.5048 LP  0  0  0  0  0  0  0  0  0  0  0  0  # atno 17370 bound_to 10713
  156.5207  130.4161  149.6252 LP  0  0  0  0  0  0  0  0  0  0  0  0  # atno 17371 bound_to 10713
  140.7340  133.9034  155.8231 LP  0  0  0  0  0  0  0  0  0  0  0  0  # atno 17394 bound_to 11000
  141.0130  134.0994  157.4201 LP  0  0  0  0  0  0  0  0  0  0  0  0  # atno 17395 bound_to 11000

$$$$
