AV-unprocessed.smi:1567|AV-procd|sdf|6306|dock7
  -GOLD-   22720 6503D 1   1.00000     0.00000
 Structure written by MMmdl.
 42 44  0  0  0  0  0  0  0  0  1 V2000
  152.2257  136.0559  156.4784 O   0  0  0  0  0  0  0  0  0  0  0  0
  151.5615  137.1902  155.9638 C   0  0  0  0  0  0  0  0  0  0  0  0
  152.4595  137.9366  154.9671 C   0  0  0  0  0  0  0  0  0  0  0  0
  152.4908  139.4576  155.1933 C   0  0  0  0  0  0  0  0  0  0  0  0
  151.1184  140.0705  155.1971 C   0  0  0  0  0  0  0  0  0  0  0  0
  150.3416  139.9953  154.1149 N   0  0  0  0  0  0  0  0  0  0  0  0
  149.1970  140.6575  154.5072 C   0  0  0  0  0  0  0  0  0  0  0  0
  147.9947  140.9063  153.8075 C   0  0  0  0  0  0  0  0  0  0  0  0
  146.9460  141.6205  154.4230 C   0  0  0  0  0  0  0  0  0  0  0  0
  147.0858  142.0964  155.7427 C   0  0  0  0  0  0  0  0  0  0  0  0
  148.2765  141.8599  156.4562 C   0  0  0  0  0  0  0  0  0  0  0  0
  149.3195  141.1436  155.8382 C   0  0  0  0  0  0  0  0  0  0  0  0
  150.5898  140.7509  156.2518 N   0  0  0  0  0  0  0  0  0  0  0  0
  151.1708  141.0575  157.5549 C   0  0  0  0  0  0  0  0  0  0  0  0
  150.7980  142.4655  158.0597 C   0  0  2  0  0  0  0  0  0  0  0  0
  151.1307  143.3925  157.0462 O   0  0  0  0  0  0  0  0  0  0  0  0
  151.4547  142.8151  159.3894 C   0  0  0  0  0  0  0  0  0  0  0  0
  152.3382  141.9015  160.0064 C   0  0  0  0  0  0  0  0  0  0  0  0
  152.9576  142.2239  161.2292 C   0  0  0  0  0  0  0  0  0  0  0  0
  153.7997  141.3403  161.8147 F   0  0  0  0  0  0  0  0  0  0  0  0
  152.6984  143.4632  161.8443 C   0  0  0  0  0  0  0  0  0  0  0  0
  151.8141  144.3760  161.2385 C   0  0  0  0  0  0  0  0  0  0  0  0
  151.1905  144.0540  160.0170 C   0  0  0  0  0  0  0  0  0  0  0  0
  150.3361  144.9419  159.4540 F   0  0  0  0  0  0  0  0  0  0  0  0
  152.7809  136.3290  157.1928 H   0  0  0  0  0  0  0  0  0  0  0  0
  150.6486  136.8595  155.4679 H   0  0  0  0  0  0  0  0  0  0  0  0
  151.2630  137.8428  156.7846 H   0  0  0  0  0  0  0  0  0  0  0  0
  153.4704  137.5284  155.0012 H   0  0  0  0  0  0  0  0  0  0  0  0
  152.0925  137.7402  153.9611 H   0  0  0  0  0  0  0  0  0  0  0  0
  153.0154  139.6615  156.1226 H   0  0  0  0  0  0  0  0  0  0  0  0
  153.0744  139.9380  154.4075 H   0  0  0  0  0  0  0  0  0  0  0  0
  147.8793  140.5474  152.7955 H   0  0  0  0  0  0  0  0  0  0  0  0
  146.0310  141.8047  153.8795 H   0  0  0  0  0  0  0  0  0  0  0  0
  146.2783  142.6435  156.2066 H   0  0  0  0  0  0  0  0  0  0  0  0
  148.3861  142.2240  157.4669 H   0  0  0  0  0  0  0  0  0  0  0  0
  150.9187  140.2932  158.2864 H   0  0  0  0  0  0  0  0  0  0  0  0
  152.2540  140.9935  157.4428 H   0  0  0  0  0  0  0  0  0  0  0  0
  149.7152  142.5246  158.1706 H   0  0  0  0  0  0  0  0  0  0  0  0
  150.3321  143.6840  156.6333 H   0  0  0  0  0  0  0  0  0  0  0  0
  152.5434  140.9477  159.5428 H   0  0  0  0  0  0  0  0  0  0  0  0
  153.1727  143.7112  162.7824 H   0  0  0  0  0  0  0  0  0  0  0  0
  151.6103  145.3240  161.7137 H   0  0  0  0  0  0  0  0  0  0  0  0
  1  2  1  0  0  0  0
  1 25  1  0  0  0  0
  2  3  1  0  0  0  0
  2 26  1  0  0  0  0
  2 27  1  0  0  0  0
  3  4  1  0  0  0  0
  3 28  1  0  0  0  0
  3 29  1  0  0  0  0
  4  5  1  0  0  0  0
  4 30  1  0  0  0  0
  4 31  1  0  0  0  0
  5 13  1  0  0  0  0
  5  6  2  0  0  0  0
  6  7  1  0  0  0  0
  7 12  2  0  0  0  0
  7  8  1  0  0  0  0
  8  9  2  0  0  0  0
  8 32  1  0  0  0  0
  9 10  1  0  0  0  0
  9 33  1  0  0  0  0
 10 11  2  0  0  0  0
 10 34  1  0  0  0  0
 11 12  1  0  0  0  0
 11 35  1  0  0  0  0
 12 13  1  0  0  0  0
 13 14  1  0  0  0  0
 14 15  1  0  0  0  0
 14 36  1  0  0  0  0
 14 37  1  0  0  0  0
 15 16  1  0  0  0  0
 15 17  1  0  0  0  0
 15 38  1  0  0  0  0
 16 39  1  0  0  0  0
 17 23  1  0  0  0  0
 17 18  2  0  0  0  0
 18 19  1  0  0  0  0
 18 40  1  0  0  0  0
 19 20  1  0  0  0  0
 19 21  2  0  0  0  0
 21 22  1  0  0  0  0
 21 41  1  0  0  0  0
 22 23  2  0  0  0  0
 22 42  1  0  0  0  0
 23 24  1  0  0  0  0
M  END
> <s_m_source_file>
AV-unprocessed.smi

> <i_m_source_file_index>
1567

> <i_lp_mmshare_version>
43012

> <i_f3d_flags>
0

> <s_epik_input>
W09IXVtDSDJdW0NIMl1bQ0gyXWMobjEpbihjKGMxMilbY0hdW2NIXVtjSF1bY0hdMilbQ0gyXVtDQEhdKFtPSF0pYzNbY0hdYyhGKVtjSF1bY0hdYzNG

> <s_epik_cmdline>
J2VwaWtfcHl0aG9uJywgJy1waCcsICc3LjAnLCAnLXRuJywgJzgnLCAnLW1hJywgJzIwMCcsICctbWV0YWxfYmluZGluZycsICctaW1hZScsICc8aW5maWxlLm1hZT4nLCAnLW9tYWUnLCAnPG91dGZpbGUubWFlPic=

> <r_epik_Ionization_Penalty>
0.182562

> <r_epik_Ionization_Penalty_Charging>
0

> <r_epik_Ionization_Penalty_Neutral>
0.182562

> <r_epik_State_Penalty>
0.172086

> <r_epik_Charging_Adjusted_Penalty>
0.172086

> <i_epik_Tot_Q>
0

> <i_epik_Tot_abs_Q>
0

> <r_epik_Metal_State_Penalty>
0.000199649

> <b_epik_Metal_Only>
0

> <s_lp_Force_Field>
OPLS_2005

> <r_lp_Energy>
11.8794

> <b_lp_Chiralities_Consistent>
1

> <s_lp_Variant>
AV-unprocessed.smi:1567-1

> <Gold.Version>
5.8.1

> <Gold.Id.Protein>
6NUR|6NUR_protein|mol2

> <Gold.PLP.Fitness>
56.8947

> <Gold.PLP.PLP>
-52.1811

> <Gold.PLP.part.hbond>
-3.0000

> <Gold.PLP.part.metal>
0.0000

> <Gold.PLP.part.buried>
0.4111

> <Gold.PLP.part.nonpolar>
-49.3951

> <Gold.PLP.part.repulsive>
0.8166

> <Gold.PLP.ligand.clash>
0.0000

> <Gold.PLP.ligand.torsion>
0.6708

> <Gold.PLP.Chemscore.Hbond>
2.0000

> <Gold.PLP.Chemscore.CHOScore>
0.0000

> <Gold.PLP.Chemscore.Metal>
0.0000

> <Gold.Chemscore.Hbonds>
donor molecule, donor type, donor heavy atom, donor atom, acceptor molecule, acceptor atom, score
      L1  H    16    39       P1  8028  1.00
      P1  H  7989  7998       L1     6  0.05
      P1  H 10752 10764       L1     1  1.00

> <Gold.PLP.Chemscore.Internal.Correction>
0.0552

> <Gold.Rescore>
     Score         DG    S(hbond)    S(metal)    S(lipo)     H(rot)  DE(clash)    DE(int)     intcor
     13.99     -16.67       1.36        0.00     127.58       3.23       1.12       1.56       ----

> <Gold.Chemscore.Fitness>
13.9871

> <Gold.Chemscore.DG>
-16.6693

> <Gold.Chemscore.ZeroCoef>
-5.4800

> <Gold.Chemscore.Hbond>
1.3552

> <Gold.Chemscore.Metal>
0.0000

> <Gold.Chemscore.Lipo>
127.5778

> <Gold.Chemscore.Internal_Hbond>
0.0000

> <Gold.Chemscore.DEClash>
1.1248

> <Gold.Chemscore.DEInternal>
1.5573

> <Gold.Chemscore.Rot>
3.2281

> <Gold.Chemscore.Internal.Correction>
   9.000000E+99

> <Gold.Chemscore.Hbonds>
donor molecule, donor type, donor heavy atom, donor atom, acceptor molecule, acceptor atom, score
      L1  H    16    39       P1  8028  0.94
      P1  H 10752 10764       L1     1  0.21

> <Gold.Chemscore.Hbond.Weighted>
-4.5265

> <Gold.Chemscore.Metal.Weighted>
-0.0000

> <Gold.Chemscore.Lipo.Weighted>
-14.9266

> <Gold.Chemscore.Internal_Hbond.Weighted>
0.0000

> <Gold.Chemscore.DEClash.Weighted>
1.1248

> <Gold.Chemscore.DEInternal.Weighted>
1.5573

> <Gold.Chemscore.Rot.Weighted>
8.2639

> <Gold.Chemscore.Internal.Correction.Weighted>
   9.000000E+99

> <Gold.Protein.RotatedTorsions>
[ 6907 6896 6895 6894 ] final  103.50 input  -60.11 | X-H torsion
[ 7974 7965 7964 7962 ] final  -70.21 input  175.53 | X-H torsion
[ 8008 7997 7996 7995 ] final  -43.58 input   59.86 | X-H torsion
[ 10167 10162 10161 10158 ] final  -61.56 input  -65.29 | X-H torsion
[ 10718 10713 10712 10709 ] final   84.59 input   66.30 | X-H torsion
[ 10763 10752 10751 10750 ] final   -0.84 input  -60.55 | X-H torsion
[ 11005 11000 10999 10996 ] final   95.52 input  -57.11 | X-H torsion

> <Gold.Protein.ActiveResidues>
 VAL166  LYS551  ARG553  GLY616  TRP617  ASP618  TYR619  PRO620  LYS621  CYS622 
 ASP623  PHE694  ASN695  SER759  ASP760  ASP761  ALA762  ILE779  LEU786  VAL792 
 PHE793  MET794  SER795  GLU796  ALA797  LYS798  CYS799  TRP800  GLU811  SER814 

> <Gold.Protein.RotatedAtoms>
  152.5293  133.9816  159.7808 H   0  0  0  0  0  0  0  0  0  0  0  0  # atno 6907 bound_to 6896
  151.0069  133.5995  159.2695 H   0  0  0  0  0  0  0  0  0  0  0  0  # atno 6908 bound_to 6896
  151.3083  135.0794  159.9316 H   0  0  0  0  0  0  0  0  0  0  0  0  # atno 6909 bound_to 6896
  145.6938  140.9143  143.0767 H   0  0  0  0  0  0  0  0  0  0  0  0  # atno 7974 bound_to 7965
  154.3997  140.1444  156.3543 H   0  0  0  0  0  0  0  0  0  0  0  0  # atno 8008 bound_to 7997
  155.8240  140.3468  155.5510 H   0  0  0  0  0  0  0  0  0  0  0  0  # atno 8009 bound_to 7997
  155.8258  140.0905  157.1812 H   0  0  0  0  0  0  0  0  0  0  0  0  # atno 8010 bound_to 7997
  140.5998  143.2359  151.5954 H   0  0  0  0  0  0  0  0  0  0  0  0  # atno 10167 bound_to 10162
  157.6900  131.0139  150.2695 H   0  0  0  0  0  0  0  0  0  0  0  0  # atno 10718 bound_to 10713
  153.3371  135.6978  153.6899 H   0  0  0  0  0  0  0  0  0  0  0  0  # atno 10763 bound_to 10752
  153.5678  135.3522  155.2826 H   0  0  0  0  0  0  0  0  0  0  0  0  # atno 10764 bound_to 10752
  154.8629  135.4265  154.2574 H   0  0  0  0  0  0  0  0  0  0  0  0  # atno 10765 bound_to 10752
  139.8788  134.8903  156.4023 H   0  0  0  0  0  0  0  0  0  0  0  0  # atno 11005 bound_to 11000
  144.6988  139.8857  143.7450 LP  0  0  0  0  0  0  0  0  0  0  0  0  # atno 17320 bound_to 7965
  146.0858  139.3846  143.0436 LP  0  0  0  0  0  0  0  0  0  0  0  0  # atno 17321 bound_to 7965
  139.5283  144.2992  152.1087 LP  0  0  0  0  0  0  0  0  0  0  0  0  # atno 17342 bound_to 10162
  140.2171  144.4504  150.6359 LP  0  0  0  0  0  0  0  0  0  0  0  0  # atno 17343 bound_to 10162
  156.3260  130.3793  149.7532 LP  0  0  0  0  0  0  0  0  0  0  0  0  # atno 17370 bound_to 10713
  156.5087  130.8162  151.3160 LP  0  0  0  0  0  0  0  0  0  0  0  0  # atno 17371 bound_to 10713
  140.9258  133.7613  155.9963 LP  0  0  0  0  0  0  0  0  0  0  0  0  # atno 17394 bound_to 11000
  140.8387  134.3092  157.5321 LP  0  0  0  0  0  0  0  0  0  0  0  0  # atno 17395 bound_to 11000

$$$$
