AV-unprocessed.smi:1830|AV-procd|sdf|7449|dock6
  -GOLD-   22720 9143D 1   1.00000     0.00000
 Structure written by MMmdl.
 54 57  0  0  0  0  0  0  0  0  3 V2000
  148.7994  134.0490  155.9445 O   0  0  0  0  0  0  0  0  0  0  0  0
  148.6510  134.5666  154.8382 C   0  0  0  0  0  0  0  0  0  0  0  0
  148.6990  135.8889  154.6265 N   0  0  0  0  0  0  0  0  0  0  0  0
  148.9035  136.9015  155.6586 C   0  0  0  0  0  0  0  0  0  0  0  0
  148.4441  138.3093  155.2289 C   0  0  1  0  0  0  0  0  0  0  0  0
  149.3520  138.9475  154.1560 C   0  0  0  0  0  0  0  0  0  0  0  0
  148.8031  140.2311  153.6609 N   0  3  2  0  0  0  0  0  0  0  0  0
  149.0380  141.4199  154.5102 C   0  0  0  0  0  0  0  0  0  0  0  0
  147.8467  142.3615  154.2725 C   0  0  0  0  0  0  0  0  0  0  0  0
  146.9805  141.6673  153.2159 C   0  0  0  0  0  0  0  0  0  0  0  0
  147.3654  140.1910  153.3245 C   0  0  2  0  0  0  0  0  0  0  0  0
  146.5522  139.4540  154.4123 C   0  0  0  0  0  0  0  0  0  0  0  0
  147.1330  138.1876  154.6913 O   0  0  0  0  0  0  0  0  0  0  0  0
  148.4455  133.8973  153.6919 N   0  0  0  0  0  0  0  0  0  0  0  0
  148.4076  132.4876  153.4953 C   0  0  0  0  0  0  0  0  0  0  0  0
  149.2852  131.6104  154.1828 C   0  0  0  0  0  0  0  0  0  0  0  0
  149.1827  130.2201  153.9845 C   0  0  0  0  0  0  0  0  0  0  0  0
  148.1973  129.7265  153.1112 C   0  0  0  0  0  0  0  0  0  0  0  0
  147.3678  130.5863  152.4843 N   0  3  0  0  0  0  0  0  0  0  0  0
  147.4188  131.9327  152.6366 C   0  0  0  0  0  0  0  0  0  0  0  0
  146.5127  132.7359  151.9110 N   0  0  0  0  0  0  0  0  0  0  0  0
  146.6943  132.6909  150.4622 C   0  0  0  0  0  0  0  0  0  0  0  0
  145.2959  132.7748  149.8464 C   0  0  0  0  0  0  0  0  0  0  0  0
  144.4019  132.1948  150.9355 C   0  0  0  0  0  0  0  0  0  0  0  0
  145.0830  132.6797  152.2138 C   0  0  0  0  0  0  0  0  0  0  0  0
  148.5654  136.2256  153.6840 H   0  0  0  0  0  0  0  0  0  0  0  0
  148.3512  136.5886  156.5451 H   0  0  0  0  0  0  0  0  0  0  0  0
  149.9564  136.9210  155.9443 H   0  0  0  0  0  0  0  0  0  0  0  0
  148.4044  138.9492  156.1116 H   0  0  0  0  0  0  0  0  0  0  0  0
  150.3639  139.1052  154.5315 H   0  0  0  0  0  0  0  0  0  0  0  0
  149.4355  138.2697  153.3057 H   0  0  0  0  0  0  0  0  0  0  0  0
  149.0920  141.1469  155.5647 H   0  0  0  0  0  0  0  0  0  0  0  0
  149.9859  141.8859  154.2401 H   0  0  0  0  0  0  0  0  0  0  0  0
  147.2832  142.4855  155.1981 H   0  0  0  0  0  0  0  0  0  0  0  0
  148.1632  143.3529  153.9471 H   0  0  0  0  0  0  0  0  0  0  0  0
  145.9137  141.8459  153.3562 H   0  0  0  0  0  0  0  0  0  0  0  0
  147.2486  142.0406  152.2265 H   0  0  0  0  0  0  0  0  0  0  0  0
  147.2324  139.6794  152.3704 H   0  0  0  0  0  0  0  0  0  0  0  0
  146.4917  140.0379  155.3324 H   0  0  0  0  0  0  0  0  0  0  0  0
  145.5271  139.3043  154.0728 H   0  0  0  0  0  0  0  0  0  0  0  0
  148.4209  134.4540  152.8499 H   0  0  0  0  0  0  0  0  0  0  0  0
  150.0270  131.9799  154.8745 H   0  0  0  0  0  0  0  0  0  0  0  0
  149.8466  129.5423  154.5013 H   0  0  0  0  0  0  0  0  0  0  0  0
  148.0449  128.6781  152.8991 H   0  0  0  0  0  0  0  0  0  0  0  0
  147.3257  133.5100  150.1164 H   0  0  0  0  0  0  0  0  0  0  0  0
  147.1739  131.7538  150.1732 H   0  0  0  0  0  0  0  0  0  0  0  0
  145.0302  133.8181  149.6700 H   0  0  0  0  0  0  0  0  0  0  0  0
  145.2166  132.2418  148.8985 H   0  0  0  0  0  0  0  0  0  0  0  0
  143.3642  132.5208  150.8571 H   0  0  0  0  0  0  0  0  0  0  0  0
  144.4211  131.1048  150.8922 H   0  0  0  0  0  0  0  0  0  0  0  0
  144.8204  132.0596  153.0703 H   0  0  0  0  0  0  0  0  0  0  0  0
  144.7540  133.6930  152.4469 H   0  0  0  0  0  0  0  0  0  0  0  0
  149.2809  140.4350  152.7946 H   0  0  0  0  0  0  0  0  0  0  0  0
  146.6624  130.1992  151.8569 H   0  0  0  0  0  0  0  0  0  0  0  0
  1  2  2  0  0  0  0
  2  3  1  0  0  0  0
  2 14  1  0  0  0  0
  3  4  1  0  0  0  0
  3 26  1  0  0  0  0
  4  5  1  0  0  0  0
  4 27  1  0  0  0  0
  4 28  1  0  0  0  0
  5 13  1  0  0  0  0
  5  6  1  0  0  0  0
  5 29  1  0  0  0  0
  6  7  1  0  0  0  0
  6 30  1  0  0  0  0
  6 31  1  0  0  0  0
  7 11  1  0  0  0  0
  7  8  1  0  0  0  0
  7 53  1  0  0  0  0
  8  9  1  0  0  0  0
  8 32  1  0  0  0  0
  8 33  1  0  0  0  0
  9 10  1  0  0  0  0
  9 34  1  0  0  0  0
  9 35  1  0  0  0  0
 10 11  1  0  0  0  0
 10 36  1  0  0  0  0
 10 37  1  0  0  0  0
 11 12  1  0  0  0  0
 11 38  1  0  0  0  0
 12 13  1  0  0  0  0
 12 39  1  0  0  0  0
 12 40  1  0  0  0  0
 14 15  1  0  0  0  0
 14 41  1  0  0  0  0
 15 20  1  0  0  0  0
 15 16  2  0  0  0  0
 16 17  1  0  0  0  0
 16 42  1  0  0  0  0
 17 18  2  0  0  0  0
 17 43  1  0  0  0  0
 18 19  1  0  0  0  0
 18 44  1  0  0  0  0
 19 20  2  0  0  0  0
 19 54  1  0  0  0  0
 20 21  1  0  0  0  0
 21 25  1  0  0  0  0
 21 22  1  0  0  0  0
 22 23  1  0  0  0  0
 22 45  1  0  0  0  0
 22 46  1  0  0  0  0
 23 24  1  0  0  0  0
 23 47  1  0  0  0  0
 23 48  1  0  0  0  0
 24 25  1  0  0  0  0
 24 49  1  0  0  0  0
 24 50  1  0  0  0  0
 25 51  1  0  0  0  0
 25 52  1  0  0  0  0
M  CHG  1   7   1
M  CHG  1  19   1
M  END
> <s_m_source_file>
AV-unprocessed.smi

> <i_m_source_file_index>
1830

> <i_lp_mmshare_version>
43012

> <i_f3d_flags>
0

> <s_epik_input>
W0NIMl0xW0NIMl1bQ0gyXVtDQEhdKE4xMilbQ0gyXU9bQ0BASF0oW0NIMl0yKVtDSDJdW05IXUMoPU8pW05IXWMzW2NIXVtjSF1bY0hdbmMzTjRbQ0gyXVtDSDJdW0NIMl1bQ0gyXTQ=

> <s_epik_cmdline>
J2VwaWtfcHl0aG9uJywgJy1waCcsICc3LjAnLCAnLXRuJywgJzgnLCAnLW1hJywgJzIwMCcsICctbWV0YWxfYmluZGluZycsICctaW1hZScsICc8aW5maWxlLm1hZT4nLCAnLW9tYWUnLCAnPG91dGZpbGUubWFlPic=

> <r_lp_tautomer_probability>
0.999994

> <r_epik_Ionization_Penalty>
1.29113

> <r_epik_Ionization_Penalty_Charging>
1.29111

> <r_epik_Ionization_Penalty_Neutral>
1.88144e-05

> <r_epik_State_Penalty>
1.32676

> <r_epik_Charging_Adjusted_Penalty>
2.61787

> <i_epik_Tot_Q>
2

> <i_epik_Tot_abs_Q>
2

> <r_epik_Metal_State_Penalty>
1.40425

> <b_epik_Metal_Only>
0

> <s_lp_Force_Field>
OPLS_2005

> <r_lp_Energy>
74.6229

> <b_lp_Chiralities_Consistent>
1

> <s_lp_Variant>
AV-unprocessed.smi:1830-18

> <Gold.Version>
5.8.1

> <Gold.Id.Protein>
6NUR|6NUR_protein|mol2

> <Gold.PLP.Fitness>
44.9411

> <Gold.PLP.PLP>
-37.3504

> <Gold.PLP.part.hbond>
-4.0000

> <Gold.PLP.part.metal>
0.0000

> <Gold.PLP.part.buried>
1.4353

> <Gold.PLP.part.nonpolar>
-33.3905

> <Gold.PLP.part.repulsive>
0.3741

> <Gold.PLP.ligand.clash>
0.0000

> <Gold.PLP.ligand.torsion>
0.5826

> <Gold.PLP.Chemscore.Hbond>
2.8648

> <Gold.PLP.Chemscore.CHOScore>
0.0000

> <Gold.PLP.Chemscore.Metal>
0.0000

> <Gold.Chemscore.Hbonds>
donor molecule, donor type, donor heavy atom, donor atom, acceptor molecule, acceptor atom, score
      L1  H     3    26       P1  7948  1.00
      L1  H     7    53       P1  7957  1.00
      L1  H    14    41       P1  7948  0.87

> <Gold.PLP.Chemscore.Internal.Correction>
0.1615

> <Gold.Rescore>
     Score         DG    S(hbond)    S(metal)    S(lipo)     H(rot)  DE(clash)    DE(int)     intcor
     18.22     -19.85       2.03        0.00      96.21       1.43       0.12       1.51       ----

> <Gold.Chemscore.Fitness>
18.2163

> <Gold.Chemscore.DG>
-19.8469

> <Gold.Chemscore.ZeroCoef>
-5.4800

> <Gold.Chemscore.Hbond>
2.0256

> <Gold.Chemscore.Metal>
0.0000

> <Gold.Chemscore.Lipo>
96.2100

> <Gold.Chemscore.Internal_Hbond>
0.0000

> <Gold.Chemscore.DEClash>
0.1215

> <Gold.Chemscore.DEInternal>
1.5091

> <Gold.Chemscore.Rot>
1.4278

> <Gold.Chemscore.Internal.Correction>
   9.000000E+99

> <Gold.Chemscore.Hbonds>
donor molecule, donor type, donor heavy atom, donor atom, acceptor molecule, acceptor atom, score
      L1  H     3    26       P1  7948  0.95
      L1  H     7    53       P1  7957  0.94
      L1  H    14    41       P1  7948  0.18

> <Gold.Chemscore.Hbond.Weighted>
-6.7654

> <Gold.Chemscore.Metal.Weighted>
-0.0000

> <Gold.Chemscore.Lipo.Weighted>
-11.2566

> <Gold.Chemscore.Internal_Hbond.Weighted>
0.0000

> <Gold.Chemscore.DEClash.Weighted>
0.1215

> <Gold.Chemscore.DEInternal.Weighted>
1.5091

> <Gold.Chemscore.Rot.Weighted>
3.6551

> <Gold.Chemscore.Internal.Correction.Weighted>
   9.000000E+99

> <Gold.Protein.RotatedTorsions>
[ 6907 6896 6895 6894 ] final   32.26 input  -60.11 | X-H torsion
[ 7974 7965 7964 7962 ] final  -74.89 input  175.53 | X-H torsion
[ 8008 7997 7996 7995 ] final  118.95 input   59.86 | X-H torsion
[ 10167 10162 10161 10158 ] final   -5.08 input  -65.29 | X-H torsion
[ 10718 10713 10712 10709 ] final  138.87 input   66.30 | X-H torsion
[ 10763 10752 10751 10750 ] final  -13.36 input  -60.55 | X-H torsion
[ 11005 11000 10999 10996 ] final -107.68 input  -57.11 | X-H torsion

> <Gold.Protein.ActiveResidues>
 VAL166  LYS551  ARG553  GLY616  TRP617  ASP618  TYR619  PRO620  LYS621  CYS622 
 ASP623  PHE694  ASN695  SER759  ASP760  ASP761  ALA762  ILE779  LEU786  VAL792 
 PHE793  MET794  SER795  GLU796  ALA797  LYS798  CYS799  TRP800  GLU811  SER814 

> <Gold.Protein.RotatedAtoms>
  152.0719  134.9528  160.0574 H   0  0  0  0  0  0  0  0  0  0  0  0  # atno 6907 bound_to 6896
  152.0850  133.4167  159.4526 H   0  0  0  0  0  0  0  0  0  0  0  0  # atno 6908 bound_to 6896
  150.6836  134.2857  159.4689 H   0  0  0  0  0  0  0  0  0  0  0  0  # atno 6909 bound_to 6896
  145.6332  140.9332  143.1075 H   0  0  0  0  0  0  0  0  0  0  0  0  # atno 7974 bound_to 7965
  156.2572  140.2863  156.0915 H   0  0  0  0  0  0  0  0  0  0  0  0  # atno 8008 bound_to 7997
  155.1458  140.0396  157.2827 H   0  0  0  0  0  0  0  0  0  0  0  0  # atno 8009 bound_to 7997
  154.6497  140.2541  155.7234 H   0  0  0  0  0  0  0  0  0  0  0  0  # atno 8010 bound_to 7997
  140.6950  143.6349  150.8488 H   0  0  0  0  0  0  0  0  0  0  0  0  # atno 10167 bound_to 10162
  157.4206  131.1038  151.0357 H   0  0  0  0  0  0  0  0  0  0  0  0  # atno 10718 bound_to 10713
  153.5121  135.7016  153.5775 H   0  0  0  0  0  0  0  0  0  0  0  0  # atno 10763 bound_to 10752
  153.3861  135.3907  155.1891 H   0  0  0  0  0  0  0  0  0  0  0  0  # atno 10764 bound_to 10752
  154.8702  135.3847  154.4602 H   0  0  0  0  0  0  0  0  0  0  0  0  # atno 10765 bound_to 10752
  141.0941  133.9002  157.2005 H   0  0  0  0  0  0  0  0  0  0  0  0  # atno 11005 bound_to 11000
  144.7185  139.8111  143.7390 LP  0  0  0  0  0  0  0  0  0  0  0  0  # atno 17320 bound_to 7965
  146.1340  139.4381  143.0151 LP  0  0  0  0  0  0  0  0  0  0  0  0  # atno 17321 bound_to 7965
  140.0066  143.5687  152.2855 LP  0  0  0  0  0  0  0  0  0  0  0  0  # atno 17342 bound_to 10162
  139.6395  144.7653  151.2367 LP  0  0  0  0  0  0  0  0  0  0  0  0  # atno 17343 bound_to 10162
  157.1289  130.6093  149.5524 LP  0  0  0  0  0  0  0  0  0  0  0  0  # atno 17370 bound_to 10713
  155.9879  130.4921  150.7148 LP  0  0  0  0  0  0  0  0  0  0  0  0  # atno 17371 bound_to 10713
  139.9774  135.0109  156.9664 LP  0  0  0  0  0  0  0  0  0  0  0  0  # atno 17394 bound_to 11000
  140.5182  134.0934  155.7286 LP  0  0  0  0  0  0  0  0  0  0  0  0  # atno 17395 bound_to 11000

$$$$
