AV-unprocessed.smi:2520|AV-procd|sdf|9913|dock7
  -GOLD-   2272013553D 1   1.00000     0.00000
 Structure written by MMmdl.
 41 44  0  0  0  0  0  0  0  0  1 V2000
  146.0282  137.4790  154.8619 O   0  0  0  0  0  0  0  0  0  0  0  0
  146.9441  137.1739  154.1001 C   0  0  0  0  0  0  0  0  0  0  0  0
  146.7449  136.3188  153.0743 N   0  0  0  0  0  0  0  0  0  0  0  0
  145.5770  135.6236  152.6425 C   0  0  0  0  0  0  0  0  0  0  0  0
  145.5949  135.2188  151.2905 C   0  0  0  0  0  0  0  0  0  0  0  0
  144.4850  134.5202  150.7856 C   0  0  0  0  0  0  0  0  0  0  0  0
  143.4247  134.2687  151.6726 C   0  0  0  0  0  0  0  0  0  0  0  0
  143.4481  134.6715  152.9612 N   0  0  0  0  0  0  0  0  0  0  0  0
  144.5085  135.3351  153.4330 N   0  0  0  0  0  0  0  0  0  0  0  0
  148.1872  137.6603  154.2319 N   0  0  0  0  0  0  0  0  0  0  0  0
  148.6153  138.6210  155.2526 C   0  0  2  0  0  0  0  0  0  0  0  0
  148.0366  140.0264  155.0618 C   0  0  2  0  0  0  0  0  0  0  0  0
  146.8704  140.6049  154.3444 C   0  0  0  0  0  0  0  0  0  0  0  0
  147.5943  141.8468  153.7608 C   0  0  0  0  0  0  0  0  0  0  0  0
  149.0065  141.6435  154.0203 O   0  0  0  0  0  0  0  0  0  0  0  0
  149.1522  140.2368  154.0587 C   0  0  1  0  0  0  0  0  0  0  0  0
  150.0045  139.3060  154.9542 C   0  0  0  0  0  0  0  0  0  0  0  0
  150.7554  139.9652  156.1294 C   0  0  0  0  0  0  0  0  0  0  0  0
  152.1832  139.4174  156.1560 C   0  0  0  0  0  0  0  0  0  0  0  0
  152.4412  138.9648  154.7265 C   0  0  0  0  0  0  0  0  0  0  0  0
  151.0795  138.4621  154.2566 C   0  0  0  0  0  0  0  0  0  0  0  0
  147.5761  136.1063  152.5421 H   0  0  0  0  0  0  0  0  0  0  0  0
  146.4383  135.4372  150.6515 H   0  0  0  0  0  0  0  0  0  0  0  0
  144.4482  134.1893  149.7584 H   0  0  0  0  0  0  0  0  0  0  0  0
  142.5438  133.7363  151.3456 H   0  0  0  0  0  0  0  0  0  0  0  0
  148.8857  137.3581  153.5675 H   0  0  0  0  0  0  0  0  0  0  0  0
  148.5310  138.2458  156.2736 H   0  0  0  0  0  0  0  0  0  0  0  0
  148.2007  140.5891  155.9866 H   0  0  0  0  0  0  0  0  0  0  0  0
  146.4977  139.9444  153.5605 H   0  0  0  0  0  0  0  0  0  0  0  0
  146.0499  140.8696  155.0115 H   0  0  0  0  0  0  0  0  0  0  0  0
  147.4133  141.9324  152.6887 H   0  0  0  0  0  0  0  0  0  0  0  0
  147.2645  142.7714  154.2351 H   0  0  0  0  0  0  0  0  0  0  0  0
  148.9581  139.8077  153.0701 H   0  0  0  0  0  0  0  0  0  0  0  0
  150.7931  141.0466  155.9910 H   0  0  0  0  0  0  0  0  0  0  0  0
  150.2617  139.7917  157.0861 H   0  0  0  0  0  0  0  0  0  0  0  0
  152.9107  140.1510  156.5043 H   0  0  0  0  0  0  0  0  0  0  0  0
  152.2317  138.5566  156.8242 H   0  0  0  0  0  0  0  0  0  0  0  0
  152.7485  139.8179  154.1202 H   0  0  0  0  0  0  0  0  0  0  0  0
  153.2197  138.2044  154.6571 H   0  0  0  0  0  0  0  0  0  0  0  0
  150.9726  137.4144  154.5410 H   0  0  0  0  0  0  0  0  0  0  0  0
  151.0008  138.5014  153.1696 H   0  0  0  0  0  0  0  0  0  0  0  0
  1  2  2  0  0  0  0
  2  3  1  0  0  0  0
  2 10  1  0  0  0  0
  3  4  1  0  0  0  0
  3 22  1  0  0  0  0
  4  9  1  0  0  0  0
  4  5  2  0  0  0  0
  5  6  1  0  0  0  0
  5 23  1  0  0  0  0
  6  7  2  0  0  0  0
  6 24  1  0  0  0  0
  7  8  1  0  0  0  0
  7 25  1  0  0  0  0
  8  9  2  0  0  0  0
 10 11  1  0  0  0  0
 10 26  1  0  0  0  0
 11 17  1  0  0  0  0
 11 12  1  0  0  0  0
 11 27  1  0  0  0  0
 12 16  1  0  0  0  0
 12 13  1  0  0  0  0
 12 28  1  0  0  0  0
 13 14  1  0  0  0  0
 13 29  1  0  0  0  0
 13 30  1  0  0  0  0
 14 15  1  0  0  0  0
 14 31  1  0  0  0  0
 14 32  1  0  0  0  0
 15 16  1  0  0  0  0
 16 17  1  0  0  0  0
 16 33  1  0  0  0  0
 17 21  1  0  0  0  0
 17 18  1  0  0  0  0
 18 19  1  0  0  0  0
 18 34  1  0  0  0  0
 18 35  1  0  0  0  0
 19 20  1  0  0  0  0
 19 36  1  0  0  0  0
 19 37  1  0  0  0  0
 20 21  1  0  0  0  0
 20 38  1  0  0  0  0
 20 39  1  0  0  0  0
 21 40  1  0  0  0  0
 21 41  1  0  0  0  0
M  END
> <s_m_source_file>
AV-unprocessed.smi

> <i_m_source_file_index>
2520

> <i_lp_mmshare_version>
43012

> <i_f3d_flags>
0

> <s_epik_input>
bjFuW2NIXVtjSF1bY0hdYzFbTkhdQyg9TylbTkhdW0NAQEhdMltDQEBIXShbQ0gyXVtDSDJdTzMpW0NASF0zQzI0W0NIMl1bQ0gyXVtDSDJdW0NIMl00

> <s_epik_cmdline>
J2VwaWtfcHl0aG9uJywgJy1waCcsICc3LjAnLCAnLXRuJywgJzgnLCAnLW1hJywgJzIwMCcsICctbWV0YWxfYmluZGluZycsICctaW1hZScsICc8aW5maWxlLm1hZT4nLCAnLW9tYWUnLCAnPG91dGZpbGUubWFlPic=

> <r_lp_tautomer_probability>
1

> <r_epik_Ionization_Penalty>
0.00552561

> <r_epik_Ionization_Penalty_Charging>
0

> <r_epik_Ionization_Penalty_Neutral>
0.00552561

> <r_epik_State_Penalty>
-0

> <r_epik_Charging_Adjusted_Penalty>
0

> <i_epik_Tot_Q>
0

> <i_epik_Tot_abs_Q>
0

> <r_epik_Metal_State_Penalty>
-0

> <b_epik_Metal_Only>
0

> <s_lp_Force_Field>
OPLS_2005

> <r_lp_Energy>
86.2541

> <b_lp_Chiralities_Consistent>
1

> <s_lp_Variant>
AV-unprocessed.smi:2520-7

> <Gold.Version>
5.8.1

> <Gold.Id.Protein>
6NUR|6NUR_protein|mol2

> <Gold.PLP.Fitness>
40.7780

> <Gold.PLP.PLP>
-31.0168

> <Gold.PLP.part.hbond>
-3.2885

> <Gold.PLP.part.metal>
0.0000

> <Gold.PLP.part.buried>
-1.7894

> <Gold.PLP.part.nonpolar>
-25.3939

> <Gold.PLP.part.repulsive>
0.4339

> <Gold.PLP.ligand.clash>
0.0000

> <Gold.PLP.ligand.torsion>
0.2514

> <Gold.PLP.Chemscore.Hbond>
2.3920

> <Gold.PLP.Chemscore.CHOScore>
0.9383

> <Gold.PLP.Chemscore.Metal>
0.0000

> <Gold.Chemscore.Hbonds>
donor molecule, donor type, donor heavy atom, donor atom, acceptor molecule, acceptor atom, score
      L1  H     3    22       P1  7948  1.00
      L1  H    10    26       P1  7948  0.77
      P1  H  8011  8017       L1    15  0.61
      L1  C     7    25       P1 10186  0.93

> <Gold.PLP.Chemscore.Internal.Correction>
0.2731

> <Gold.Rescore>
     Score         DG    S(hbond)    S(metal)    S(lipo)     H(rot)  DE(clash)    DE(int)     intcor
     16.81     -18.47       1.92        0.00      78.18       1.00       0.30       1.36       ----

> <Gold.Chemscore.Fitness>
16.8117

> <Gold.Chemscore.DG>
-18.4678

> <Gold.Chemscore.ZeroCoef>
-5.4800

> <Gold.Chemscore.Hbond>
1.9165

> <Gold.Chemscore.Metal>
0.0000

> <Gold.Chemscore.Lipo>
78.1773

> <Gold.Chemscore.Internal_Hbond>
0.0000

> <Gold.Chemscore.DEClash>
0.3001

> <Gold.Chemscore.DEInternal>
1.3560

> <Gold.Chemscore.Rot>
1.0000

> <Gold.Chemscore.Internal.Correction>
   9.000000E+99

> <Gold.Chemscore.Hbonds>
donor molecule, donor type, donor heavy atom, donor atom, acceptor molecule, acceptor atom, score
      L1  H     3    22       P1  7948  0.93
      L1  H    10    26       P1  7948  0.73
      P1  H  8011  8017       L1    15  0.12

> <Gold.Chemscore.Hbond.Weighted>
-6.4011

> <Gold.Chemscore.Metal.Weighted>
-0.0000

> <Gold.Chemscore.Lipo.Weighted>
-9.1467

> <Gold.Chemscore.Internal_Hbond.Weighted>
0.0000

> <Gold.Chemscore.DEClash.Weighted>
0.3001

> <Gold.Chemscore.DEInternal.Weighted>
1.3560

> <Gold.Chemscore.Rot.Weighted>
2.5600

> <Gold.Chemscore.Internal.Correction.Weighted>
   9.000000E+99

> <Gold.Protein.RotatedTorsions>
[ 6907 6896 6895 6894 ] final  -75.29 input  -60.11 | X-H torsion
[ 7974 7965 7964 7962 ] final  153.15 input  175.53 | X-H torsion
[ 8008 7997 7996 7995 ] final   27.55 input   59.86 | X-H torsion
[ 10167 10162 10161 10158 ] final -165.32 input  -65.29 | X-H torsion
[ 10718 10713 10712 10709 ] final   22.03 input   66.30 | X-H torsion
[ 10763 10752 10751 10750 ] final  142.29 input  -60.55 | X-H torsion
[ 11005 11000 10999 10996 ] final -160.55 input  -57.11 | X-H torsion

> <Gold.Protein.ActiveResidues>
 VAL166  LYS551  ARG553  GLY616  TRP617  ASP618  TYR619  PRO620  LYS621  CYS622 
 ASP623  PHE694  ASN695  SER759  ASP760  ASP761  ALA762  ILE779  LEU786  VAL792 
 PHE793  MET794  SER795  GLU796  ALA797  LYS798  CYS799  TRP800  GLU811  SER814 

> <Gold.Protein.RotatedAtoms>
  150.7064  134.4743  159.5440 H   0  0  0  0  0  0  0  0  0  0  0  0  # atno 6907 bound_to 6896
  152.2393  134.8241  160.0471 H   0  0  0  0  0  0  0  0  0  0  0  0  # atno 6908 bound_to 6896
  151.9029  133.3507  159.3873 H   0  0  0  0  0  0  0  0  0  0  0  0  # atno 6909 bound_to 6896
  144.8174  139.6762  143.6115 H   0  0  0  0  0  0  0  0  0  0  0  0  # atno 7974 bound_to 7965
  155.0446  140.3173  155.4712 H   0  0  0  0  0  0  0  0  0  0  0  0  # atno 8008 bound_to 7997
  156.2847  140.2157  156.5514 H   0  0  0  0  0  0  0  0  0  0  0  0  # atno 8009 bound_to 7997
  154.7261  140.0485  157.0671 H   0  0  0  0  0  0  0  0  0  0  0  0  # atno 8010 bound_to 7997
  139.6190  144.0663  152.1915 H   0  0  0  0  0  0  0  0  0  0  0  0  # atno 10167 bound_to 10162
  157.1467  130.6656  149.5998 H   0  0  0  0  0  0  0  0  0  0  0  0  # atno 10718 bound_to 10713
  153.9533  135.2967  155.3437 H   0  0  0  0  0  0  0  0  0  0  0  0  # atno 10763 bound_to 10752
  154.7414  135.5023  153.9132 H   0  0  0  0  0  0  0  0  0  0  0  0  # atno 10764 bound_to 10752
  153.0983  135.6727  153.9830 H   0  0  0  0  0  0  0  0  0  0  0  0  # atno 10765 bound_to 10752
  140.6303  134.4658  157.5229 H   0  0  0  0  0  0  0  0  0  0  0  0  # atno 11005 bound_to 11000
  146.2478  139.6134  142.9448 LP  0  0  0  0  0  0  0  0  0  0  0  0  # atno 17320 bound_to 7965
  145.5183  141.0433  143.2449 LP  0  0  0  0  0  0  0  0  0  0  0  0  # atno 17321 bound_to 7965
  140.0300  144.6088  150.7496 LP  0  0  0  0  0  0  0  0  0  0  0  0  # atno 17342 bound_to 10162
  140.7369  143.2759  151.3743 LP  0  0  0  0  0  0  0  0  0  0  0  0  # atno 17343 bound_to 10162
  155.9778  130.4759  150.6617 LP  0  0  0  0  0  0  0  0  0  0  0  0  # atno 17370 bound_to 10713
  157.4258  131.0843  151.1087 LP  0  0  0  0  0  0  0  0  0  0  0  0  # atno 17371 bound_to 10713
  139.9119  134.8327  156.1500 LP  0  0  0  0  0  0  0  0  0  0  0  0  # atno 17394 bound_to 11000
  141.0680  133.6810  156.2084 LP  0  0  0  0  0  0  0  0  0  0  0  0  # atno 17395 bound_to 11000

$$$$
