AV-unprocessed.smi:1358|AV-procd|sdf|5549|dock9
  -GOLD-   22720 5143D 1   1.00000     0.00000
 Structure written by MMmdl.
 37 38  0  0  0  0  0  0  0  0  1 V2000
  153.7590  143.8617  163.6091 C   0  0  0  0  0  0  0  0  0  0  0  0
  153.6096  142.6713  162.6553 C   0  0  0  0  0  0  0  0  0  0  0  0
  152.9758  143.0695  161.3156 C   0  0  0  0  0  0  0  0  0  0  0  0
  153.0885  141.9632  160.2542 C   0  0  0  0  0  0  0  0  0  0  0  0
  152.3668  142.3346  159.0446 N   0  0  0  0  0  0  0  0  0  0  0  0
  151.7316  141.4802  158.2271 C   0  0  0  0  0  0  0  0  0  0  0  0
  151.5961  140.2804  158.4668 O   0  0  0  0  0  0  0  0  0  0  0  0
  151.1973  142.0666  156.9185 C   0  0  0  0  0  0  0  0  0  0  0  0
  150.7909  140.9590  155.9873 C   0  0  0  0  0  0  0  0  0  0  0  0
  151.5915  139.9541  155.5014 C   0  0  0  0  0  0  0  0  0  0  0  0
  150.7255  138.8878  154.4275 S   0  0  0  0  0  0  0  0  0  0  0  0
  149.2810  139.8656  154.6757 C   0  0  0  0  0  0  0  0  0  0  0  0
  148.0323  139.6065  154.0376 N   0  0  0  0  0  0  0  0  0  0  0  0
  147.7806  138.3449  153.3525 C   0  0  0  0  0  0  0  0  0  0  0  0
  146.3562  138.4936  152.8252 C   0  0  0  0  0  0  0  0  0  0  0  0
  146.0042  139.8226  153.2680 N   0  0  0  0  0  0  0  0  0  0  0  0
  146.9729  140.4380  153.9496 C   0  0  0  0  0  0  0  0  0  0  0  0
  146.8787  141.5774  154.4044 O   0  0  0  0  0  0  0  0  0  0  0  0
  149.4723  140.8804  155.5249 N   0  0  0  0  0  0  0  0  0  0  0  0
  154.2103  143.5509  164.5515 H   0  0  0  0  0  0  0  0  0  0  0  0
  152.7904  144.3083  163.8353 H   0  0  0  0  0  0  0  0  0  0  0  0
  154.3923  144.6361  163.1760 H   0  0  0  0  0  0  0  0  0  0  0  0
  154.5893  142.2261  162.4792 H   0  0  0  0  0  0  0  0  0  0  0  0
  153.0016  141.9026  163.1332 H   0  0  0  0  0  0  0  0  0  0  0  0
  151.9245  143.3161  161.4718 H   0  0  0  0  0  0  0  0  0  0  0  0
  153.4526  143.9787  160.9474 H   0  0  0  0  0  0  0  0  0  0  0  0
  154.1345  141.7504  160.0276 H   0  0  0  0  0  0  0  0  0  0  0  0
  152.6568  141.0371  160.6344 H   0  0  0  0  0  0  0  0  0  0  0  0
  152.4276  143.3017  158.7596 H   0  0  0  0  0  0  0  0  0  0  0  0
  150.3505  142.7176  157.1394 H   0  0  0  0  0  0  0  0  0  0  0  0
  151.9593  142.6970  156.4580 H   0  0  0  0  0  0  0  0  0  0  0  0
  152.6383  139.7823  155.7034 H   0  0  0  0  0  0  0  0  0  0  0  0
  148.4921  138.2001  152.5383 H   0  0  0  0  0  0  0  0  0  0  0  0
  147.8657  137.5060  154.0448 H   0  0  0  0  0  0  0  0  0  0  0  0
  146.3118  138.4263  151.7376 H   0  0  0  0  0  0  0  0  0  0  0  0
  145.6797  137.7547  153.2562 H   0  0  0  0  0  0  0  0  0  0  0  0
  145.1075  140.2408  153.0663 H   0  0  0  0  0  0  0  0  0  0  0  0
  1  2  1  0  0  0  0
  1 20  1  0  0  0  0
  1 21  1  0  0  0  0
  1 22  1  0  0  0  0
  2  3  1  0  0  0  0
  2 23  1  0  0  0  0
  2 24  1  0  0  0  0
  3  4  1  0  0  0  0
  3 25  1  0  0  0  0
  3 26  1  0  0  0  0
  4  5  1  0  0  0  0
  4 27  1  0  0  0  0
  4 28  1  0  0  0  0
  5  6  1  0  0  0  0
  5 29  1  0  0  0  0
  6  7  2  0  0  0  0
  6  8  1  0  0  0  0
  8  9  1  0  0  0  0
  8 30  1  0  0  0  0
  8 31  1  0  0  0  0
  9 19  1  0  0  0  0
  9 10  2  0  0  0  0
 10 11  1  0  0  0  0
 10 32  1  0  0  0  0
 11 12  1  0  0  0  0
 12 13  1  0  0  0  0
 12 19  2  0  0  0  0
 13 17  1  0  0  0  0
 13 14  1  0  0  0  0
 14 15  1  0  0  0  0
 14 33  1  0  0  0  0
 14 34  1  0  0  0  0
 15 16  1  0  0  0  0
 15 35  1  0  0  0  0
 15 36  1  0  0  0  0
 16 17  1  0  0  0  0
 16 37  1  0  0  0  0
 17 18  2  0  0  0  0
M  END
> <s_m_source_file>
AV-unprocessed.smi

> <i_m_source_file_index>
1358

> <i_lp_mmshare_version>
43012

> <i_f3d_flags>
0

> <s_epik_input>
W0NIM11bQ0gyXVtDSDJdW0NIMl1bTkhdQyg9TylbQ0gyXWMxW2NIXXNjKG4xKU4yW0NIMl1bQ0gyXVtOSF1DMj1P

> <s_epik_cmdline>
J2VwaWtfcHl0aG9uJywgJy1waCcsICc3LjAnLCAnLXRuJywgJzgnLCAnLW1hJywgJzIwMCcsICctbWV0YWxfYmluZGluZycsICctaW1hZScsICc8aW5maWxlLm1hZT4nLCAnLW9tYWUnLCAnPG91dGZpbGUubWFlPic=

> <r_lp_tautomer_probability>
1

> <r_epik_Ionization_Penalty>
0.000120185

> <r_epik_Ionization_Penalty_Charging>
0

> <r_epik_Ionization_Penalty_Neutral>
0.000120185

> <r_epik_State_Penalty>
-0

> <r_epik_Charging_Adjusted_Penalty>
0

> <i_epik_Tot_Q>
0

> <i_epik_Tot_abs_Q>
0

> <r_epik_Metal_State_Penalty>
-0

> <b_epik_Metal_Only>
0

> <s_lp_Force_Field>
OPLS_2005

> <r_lp_Energy>
29.7034

> <b_lp_Chiralities_Consistent>
1

> <s_lp_Variant>
AV-unprocessed.smi:1358-1

> <Gold.Version>
5.8.1

> <Gold.Id.Protein>
6NUR|6NUR_protein|mol2

> <Gold.PLP.Fitness>
41.4740

> <Gold.PLP.PLP>
-39.3320

> <Gold.PLP.part.hbond>
-1.0000

> <Gold.PLP.part.metal>
0.0000

> <Gold.PLP.part.buried>
-0.6193

> <Gold.PLP.part.nonpolar>
-37.5204

> <Gold.PLP.part.repulsive>
0.3335

> <Gold.PLP.ligand.clash>
0.0000

> <Gold.PLP.ligand.torsion>
0.4348

> <Gold.PLP.Chemscore.Hbond>
0.9920

> <Gold.PLP.Chemscore.CHOScore>
0.0000

> <Gold.PLP.Chemscore.Metal>
0.0000

> <Gold.Chemscore.Hbonds>
donor molecule, donor type, donor heavy atom, donor atom, acceptor molecule, acceptor atom, score
      L1  H    16    37       P1 10175  1.00

> <Gold.PLP.Chemscore.Internal.Correction>
0.0355

> <Gold.Rescore>
     Score         DG    S(hbond)    S(metal)    S(lipo)     H(rot)  DE(clash)    DE(int)     intcor
     10.93     -14.18       0.97        0.00      89.75       1.97       0.61       2.64       ----

> <Gold.Chemscore.Fitness>
10.9303

> <Gold.Chemscore.DG>
-14.1796

> <Gold.Chemscore.ZeroCoef>
-5.4800

> <Gold.Chemscore.Hbond>
0.9720

> <Gold.Chemscore.Metal>
0.0000

> <Gold.Chemscore.Lipo>
89.7523

> <Gold.Chemscore.Internal_Hbond>
0.0000

> <Gold.Chemscore.DEClash>
0.6094

> <Gold.Chemscore.DEInternal>
2.6398

> <Gold.Chemscore.Rot>
1.9718

> <Gold.Chemscore.Internal.Correction>
   9.000000E+99

> <Gold.Chemscore.Hbonds>
donor molecule, donor type, donor heavy atom, donor atom, acceptor molecule, acceptor atom, score
      L1  H    16    37       P1 10175  0.95

> <Gold.Chemscore.Hbond.Weighted>
-3.2463

> <Gold.Chemscore.Metal.Weighted>
-0.0000

> <Gold.Chemscore.Lipo.Weighted>
-10.5010

> <Gold.Chemscore.Internal_Hbond.Weighted>
0.0000

> <Gold.Chemscore.DEClash.Weighted>
0.6094

> <Gold.Chemscore.DEInternal.Weighted>
2.6398

> <Gold.Chemscore.Rot.Weighted>
5.0478

> <Gold.Chemscore.Internal.Correction.Weighted>
   9.000000E+99

> <Gold.Protein.RotatedTorsions>
[ 6907 6896 6895 6894 ] final  -91.53 input  -60.11 | X-H torsion
[ 7974 7965 7964 7962 ] final  120.23 input  175.53 | X-H torsion
[ 8008 7997 7996 7995 ] final -150.99 input   59.86 | X-H torsion
[ 10167 10162 10161 10158 ] final   30.62 input  -65.29 | X-H torsion
[ 10718 10713 10712 10709 ] final   59.85 input   66.30 | X-H torsion
[ 10763 10752 10751 10750 ] final   35.44 input  -60.55 | X-H torsion
[ 11005 11000 10999 10996 ] final  175.09 input  -57.11 | X-H torsion

> <Gold.Protein.ActiveResidues>
 VAL166  LYS551  ARG553  GLY616  TRP617  ASP618  TYR619  PRO620  LYS621  CYS622 
 ASP623  PHE694  ASN695  SER759  ASP760  ASP761  ALA762  ILE779  LEU786  VAL792 
 PHE793  MET794  SER795  GLU796  ALA797  LYS798  CYS799  TRP800  GLU811  SER814 

> <Gold.Protein.RotatedAtoms>
  150.6894  134.2262  159.4416 H   0  0  0  0  0  0  0  0  0  0  0  0  # atno 6907 bound_to 6896
  152.0216  134.9817  160.0580 H   0  0  0  0  0  0  0  0  0  0  0  0  # atno 6908 bound_to 6896
  152.1392  133.4419  159.4795 H   0  0  0  0  0  0  0  0  0  0  0  0  # atno 6909 bound_to 6896
  145.1337  139.3311  143.4652 H   0  0  0  0  0  0  0  0  0  0  0  0  # atno 7974 bound_to 7965
  155.6323  140.0693  157.2645 H   0  0  0  0  0  0  0  0  0  0  0  0  # atno 8008 bound_to 7997
  154.4203  140.1765  156.1534 H   0  0  0  0  0  0  0  0  0  0  0  0  # atno 8009 bound_to 7997
  155.9923  140.3344  155.6768 H   0  0  0  0  0  0  0  0  0  0  0  0  # atno 8010 bound_to 7997
  140.4661  144.0833  150.6225 H   0  0  0  0  0  0  0  0  0  0  0  0  # atno 10167 bound_to 10162
  157.5707  130.8905  149.9263 H   0  0  0  0  0  0  0  0  0  0  0  0  # atno 10718 bound_to 10713
  153.0119  135.6333  154.1827 H   0  0  0  0  0  0  0  0  0  0  0  0  # atno 10763 bound_to 10752
  154.1569  135.2826  155.3121 H   0  0  0  0  0  0  0  0  0  0  0  0  # atno 10764 bound_to 10752
  154.6011  135.5587  153.7436 H   0  0  0  0  0  0  0  0  0  0  0  0  # atno 10765 bound_to 10752
  140.3584  134.7134  157.4315 H   0  0  0  0  0  0  0  0  0  0  0  0  # atno 11005 bound_to 11000
  146.3511  140.1345  142.8596 LP  0  0  0  0  0  0  0  0  0  0  0  0  # atno 17320 bound_to 7965
  145.0608  140.9086  143.4940 LP  0  0  0  0  0  0  0  0  0  0  0  0  # atno 17321 bound_to 7965
  140.4034  143.2692  151.9920 LP  0  0  0  0  0  0  0  0  0  0  0  0  # atno 17342 bound_to 10162
  139.4812  144.5978  151.7659 LP  0  0  0  0  0  0  0  0  0  0  0  0  # atno 17343 bound_to 10162
  156.0753  130.3679  150.0690 LP  0  0  0  0  0  0  0  0  0  0  0  0  # atno 17370 bound_to 10713
  156.8843  130.9567  151.3596 LP  0  0  0  0  0  0  0  0  0  0  0  0  # atno 17371 bound_to 10713
  140.0646  134.5948  155.8710 LP  0  0  0  0  0  0  0  0  0  0  0  0  # atno 17394 bound_to 11000
  141.1991  133.6605  156.5828 LP  0  0  0  0  0  0  0  0  0  0  0  0  # atno 17395 bound_to 11000

$$$$
