AV-unprocessed.smi:2192|AV-procd|sdf|8896|dock4
  -GOLD-   2272012103D 1   1.00000     0.00000
 Structure written by MMmdl.
 42 44  0  0  0  0  0  0  0  0  1 V2000
  155.0418  139.8499  159.5707 C   0  0  0  0  0  0  0  0  0  0  0  0
  154.0022  140.8954  159.5332 N   0  0  0  0  0  0  0  0  0  0  0  0
  153.2600  141.0295  158.3891 C   0  0  0  0  0  0  0  0  0  0  0  0
  153.3891  140.3389  157.3775 O   0  0  0  0  0  0  0  0  0  0  0  0
  152.2598  142.0984  158.4548 C   0  0  0  0  0  0  0  0  0  0  0  0
  152.0834  142.8790  159.5476 C   0  0  0  0  0  0  0  0  0  0  0  0
  151.0718  143.8114  159.3463 N   0  0  0  0  0  0  0  0  0  0  0  0
  150.6809  143.5325  158.1018 C   0  0  0  0  0  0  0  0  0  0  0  0
  151.3428  142.5248  157.4966 N   0  0  0  0  0  0  0  0  0  0  0  0
  151.1170  142.0261  156.1491 C   0  0  0  0  0  0  0  0  0  0  0  0
  150.9543  140.4935  156.1037 C   0  0  2  0  0  0  0  0  0  0  0  0
  151.5780  139.9782  154.9436 O   0  0  0  0  0  0  0  0  0  0  0  0
  149.4811  140.0618  156.0988 C   0  0  0  0  0  0  0  0  0  0  0  0
  148.8544  140.5878  154.9363 O   0  0  0  0  0  0  0  0  0  0  0  0
  147.6760  141.2861  155.0876 C   0  0  0  0  0  0  0  0  0  0  0  0
  147.0799  141.7948  153.9150 C   0  0  0  0  0  0  0  0  0  0  0  0
  145.8740  142.5197  153.9749 C   0  0  0  0  0  0  0  0  0  0  0  0
  145.2505  142.7456  155.2158 C   0  0  0  0  0  0  0  0  0  0  0  0
  144.0915  143.4430  155.2762 F   0  0  0  0  0  0  0  0  0  0  0  0
  145.8350  142.2453  156.3943 C   0  0  0  0  0  0  0  0  0  0  0  0
  147.0404  141.5188  156.3339 C   0  0  0  0  0  0  0  0  0  0  0  0
  152.9035  142.6558  160.6811 N   0  0  0  0  0  0  0  0  0  0  0  0
  152.6840  143.5191  161.8455 C   0  0  0  0  0  0  0  0  0  0  0  0
  153.8596  141.6684  160.6738 C   0  0  0  0  0  0  0  0  0  0  0  0
  154.5739  141.4765  161.6616 O   0  0  0  0  0  0  0  0  0  0  0  0
  155.1276  139.2537  158.6616 H   0  0  0  0  0  0  0  0  0  0  0  0
  154.8470  139.1477  160.3830 H   0  0  0  0  0  0  0  0  0  0  0  0
  156.0229  140.2964  159.7411 H   0  0  0  0  0  0  0  0  0  0  0  0
  149.8901  144.0825  157.6127 H   0  0  0  0  0  0  0  0  0  0  0  0
  150.2354  142.5214  155.7413 H   0  0  0  0  0  0  0  0  0  0  0  0
  151.9538  142.3343  155.5205 H   0  0  0  0  0  0  0  0  0  0  0  0
  151.4486  140.0428  156.9648 H   0  0  0  0  0  0  0  0  0  0  0  0
  151.5222  139.0351  154.9659 H   0  0  0  0  0  0  0  0  0  0  0  0
  149.4093  138.9729  156.1198 H   0  0  0  0  0  0  0  0  0  0  0  0
  148.9817  140.4522  156.9872 H   0  0  0  0  0  0  0  0  0  0  0  0
  147.5524  141.6261  152.9584 H   0  0  0  0  0  0  0  0  0  0  0  0
  145.4282  142.9021  153.0685 H   0  0  0  0  0  0  0  0  0  0  0  0
  145.3584  142.4188  157.3477 H   0  0  0  0  0  0  0  0  0  0  0  0
  147.4575  141.1515  157.2592 H   0  0  0  0  0  0  0  0  0  0  0  0
  153.3483  143.3196  162.6869 H   0  0  0  0  0  0  0  0  0  0  0  0
  151.6612  143.4035  162.2054 H   0  0  0  0  0  0  0  0  0  0  0  0
  152.8229  144.5640  161.5656 H   0  0  0  0  0  0  0  0  0  0  0  0
  1  2  1  0  0  0  0
  1 26  1  0  0  0  0
  1 27  1  0  0  0  0
  1 28  1  0  0  0  0
  2 24  1  0  0  0  0
  2  3  1  0  0  0  0
  3  4  2  0  0  0  0
  3  5  1  0  0  0  0
  5  9  1  0  0  0  0
  5  6  2  0  0  0  0
  6  7  1  0  0  0  0
  6 22  1  0  0  0  0
  7  8  2  0  0  0  0
  8  9  1  0  0  0  0
  8 29  1  0  0  0  0
  9 10  1  0  0  0  0
 10 11  1  0  0  0  0
 10 30  1  0  0  0  0
 10 31  1  0  0  0  0
 11 12  1  0  0  0  0
 11 13  1  0  0  0  0
 11 32  1  0  0  0  0
 12 33  1  0  0  0  0
 13 14  1  0  0  0  0
 13 34  1  0  0  0  0
 13 35  1  0  0  0  0
 14 15  1  0  0  0  0
 15 21  1  0  0  0  0
 15 16  2  0  0  0  0
 16 17  1  0  0  0  0
 16 36  1  0  0  0  0
 17 18  2  0  0  0  0
 17 37  1  0  0  0  0
 18 19  1  0  0  0  0
 18 20  1  0  0  0  0
 20 21  2  0  0  0  0
 20 38  1  0  0  0  0
 21 39  1  0  0  0  0
 22 23  1  0  0  0  0
 22 24  1  0  0  0  0
 23 40  1  0  0  0  0
 23 41  1  0  0  0  0
 23 42  1  0  0  0  0
 24 25  2  0  0  0  0
M  END
> <s_m_source_file>
AV-unprocessed.smi

> <i_m_source_file_index>
2192

> <i_lp_mmshare_version>
43012

> <i_f3d_flags>
0

> <s_epik_input>
Tz1jMW4oW0NIM10pYyg9TyluKFtDSDNdKWMoYzEyKW5bY0hdbjJbQ0gyXVtDQEhdKFtPSF0pW0NIMl1PYzNbY0hdW2NIXWMoRilbY0hdW2NIXTM=

> <s_epik_cmdline>
J2VwaWtfcHl0aG9uJywgJy1waCcsICc3LjAnLCAnLXRuJywgJzgnLCAnLW1hJywgJzIwMCcsICctbWV0YWxfYmluZGluZycsICctaW1hZScsICc8aW5maWxlLm1hZT4nLCAnLW9tYWUnLCAnPG91dGZpbGUubWFlPic=

> <r_lp_tautomer_probability>
1

> <r_epik_Ionization_Penalty>
1.0344e-06

> <r_epik_Ionization_Penalty_Charging>
3.2247e-09

> <r_epik_Ionization_Penalty_Neutral>
1.03118e-06

> <r_epik_State_Penalty>
-0

> <r_epik_Charging_Adjusted_Penalty>
3.2247e-09

> <i_epik_Tot_Q>
0

> <i_epik_Tot_abs_Q>
0

> <r_epik_Metal_State_Penalty>
-0

> <b_epik_Metal_Only>
0

> <s_lp_Force_Field>
OPLS_2005

> <r_lp_Energy>
38.6998

> <b_lp_Chiralities_Consistent>
1

> <s_lp_Variant>
AV-unprocessed.smi:2192-1

> <Gold.Version>
5.8.1

> <Gold.Id.Protein>
6NUR|6NUR_protein|mol2

> <Gold.PLP.Fitness>
56.5931

> <Gold.PLP.PLP>
-50.4733

> <Gold.PLP.part.hbond>
-2.1848

> <Gold.PLP.part.metal>
0.0000

> <Gold.PLP.part.buried>
-7.5962

> <Gold.PLP.part.nonpolar>
-39.7921

> <Gold.PLP.part.repulsive>
0.1889

> <Gold.PLP.ligand.clash>
0.0000

> <Gold.PLP.ligand.torsion>
0.9604

> <Gold.PLP.Chemscore.Hbond>
1.6720

> <Gold.PLP.Chemscore.CHOScore>
1.0000

> <Gold.PLP.Chemscore.Metal>
0.0000

> <Gold.Chemscore.Hbonds>
donor molecule, donor type, donor heavy atom, donor atom, acceptor molecule, acceptor atom, score
      P1  H  7989  7998       L1    12  1.00
      P1  H  7997  8008       L1     4  0.30
      L1  C     8    29       P1  8028  1.00
      L1  C     8    29       P1  8029  0.03

> <Gold.PLP.Chemscore.Internal.Correction>
0.0248

> <Gold.Rescore>
     Score         DG    S(hbond)    S(metal)    S(lipo)     H(rot)  DE(clash)    DE(int)     intcor
      9.87     -12.12       1.70        0.00      71.05       2.88       0.06       2.19       ----

> <Gold.Chemscore.Fitness>
9.8666

> <Gold.Chemscore.DG>
-12.1194

> <Gold.Chemscore.ZeroCoef>
-5.4800

> <Gold.Chemscore.Hbond>
1.7033

> <Gold.Chemscore.Metal>
0.0000

> <Gold.Chemscore.Lipo>
71.0548

> <Gold.Chemscore.Internal_Hbond>
0.0000

> <Gold.Chemscore.DEClash>
0.0614

> <Gold.Chemscore.DEInternal>
2.1914

> <Gold.Chemscore.Rot>
2.8762

> <Gold.Chemscore.Internal.Correction>
   9.000000E+99

> <Gold.Chemscore.Hbonds>
donor molecule, donor type, donor heavy atom, donor atom, acceptor molecule, acceptor atom, score
      P1  H  7989  7998       L1    12  0.96
      P1  H  7997  8008       L1     4  0.30

> <Gold.Chemscore.Hbond.Weighted>
-5.6891

> <Gold.Chemscore.Metal.Weighted>
-0.0000

> <Gold.Chemscore.Lipo.Weighted>
-8.3134

> <Gold.Chemscore.Internal_Hbond.Weighted>
0.0000

> <Gold.Chemscore.DEClash.Weighted>
0.0614

> <Gold.Chemscore.DEInternal.Weighted>
2.1914

> <Gold.Chemscore.Rot.Weighted>
7.3631

> <Gold.Chemscore.Internal.Correction.Weighted>
   9.000000E+99

> <Gold.Protein.RotatedTorsions>
[ 6907 6896 6895 6894 ] final  -81.15 input  -60.11 | X-H torsion
[ 7974 7965 7964 7962 ] final -141.80 input  175.53 | X-H torsion
[ 8008 7997 7996 7995 ] final  -44.02 input   59.86 | X-H torsion
[ 10167 10162 10161 10158 ] final -124.46 input  -65.29 | X-H torsion
[ 10718 10713 10712 10709 ] final   98.85 input   66.30 | X-H torsion
[ 10763 10752 10751 10750 ] final   14.74 input  -60.55 | X-H torsion
[ 11005 11000 10999 10996 ] final  105.38 input  -57.11 | X-H torsion

> <Gold.Protein.ActiveResidues>
 VAL166  LYS551  ARG553  GLY616  TRP617  ASP618  TYR619  PRO620  LYS621  CYS622 
 ASP623  PHE694  ASN695  SER759  ASP760  ASP761  ALA762  ILE779  LEU786  VAL792 
 PHE793  MET794  SER795  GLU796  ALA797  LYS798  CYS799  TRP800  GLU811  SER814 

> <Gold.Protein.RotatedAtoms>
  150.6917  134.3861  159.5055 H   0  0  0  0  0  0  0  0  0  0  0  0  # atno 6907 bound_to 6896
  152.1656  134.8874  160.0547 H   0  0  0  0  0  0  0  0  0  0  0  0  # atno 6908 bound_to 6896
  151.9919  133.3759  159.4185 H   0  0  0  0  0  0  0  0  0  0  0  0  # atno 6909 bound_to 6896
  144.8492  140.6036  143.5401 H   0  0  0  0  0  0  0  0  0  0  0  0  # atno 7974 bound_to 7965
  154.3997  140.1433  156.3614 H   0  0  0  0  0  0  0  0  0  0  0  0  # atno 8008 bound_to 7997
  155.8177  140.3470  155.5475 H   0  0  0  0  0  0  0  0  0  0  0  0  # atno 8009 bound_to 7997
  155.8320  140.0913  157.1777 H   0  0  0  0  0  0  0  0  0  0  0  0  # atno 8010 bound_to 7997
  139.9926  143.5625  152.2336 H   0  0  0  0  0  0  0  0  0  0  0  0  # atno 10167 bound_to 10162
  157.6888  131.0652  150.4859 H   0  0  0  0  0  0  0  0  0  0  0  0  # atno 10718 bound_to 10713
  153.1593  135.6793  153.8766 H   0  0  0  0  0  0  0  0  0  0  0  0  # atno 10763 bound_to 10752
  153.8167  135.3135  155.3407 H   0  0  0  0  0  0  0  0  0  0  0  0  # atno 10764 bound_to 10752
  154.7920  135.4829  154.0163 H   0  0  0  0  0  0  0  0  0  0  0  0  # atno 10765 bound_to 10752
  139.8801  134.9333  156.5505 H   0  0  0  0  0  0  0  0  0  0  0  0  # atno 11005 bound_to 11000
  145.4535  139.1521  143.3905 LP  0  0  0  0  0  0  0  0  0  0  0  0  # atno 17320 bound_to 7965
  146.2770  140.4662  142.8791 LP  0  0  0  0  0  0  0  0  0  0  0  0  # atno 17321 bound_to 7965
  139.6329  144.7646  151.2498 LP  0  0  0  0  0  0  0  0  0  0  0  0  # atno 17342 bound_to 10162
  140.7449  143.6448  150.8302 LP  0  0  0  0  0  0  0  0  0  0  0  0  # atno 17343 bound_to 10162
  156.5188  130.4157  149.6261 LP  0  0  0  0  0  0  0  0  0  0  0  0  # atno 17370 bound_to 10713
  156.3173  130.7261  151.2166 LP  0  0  0  0  0  0  0  0  0  0  0  0  # atno 17371 bound_to 10713
  140.8244  133.8328  155.8925 LP  0  0  0  0  0  0  0  0  0  0  0  0  # atno 17394 bound_to 11000
  140.9388  134.1927  157.4812 LP  0  0  0  0  0  0  0  0  0  0  0  0  # atno 17395 bound_to 11000

$$$$
