AV-unprocessed.smi:2568|AV-procd|sdf|10093|dock2
  -GOLD-   2272014113D 1   1.00000     0.00000
 Structure written by MMmdl.
 25 26  0  0  0  0  0  0  0  0  2 V2000
  151.7157  140.4720  159.1105 C   0  0  0  0  0  0  0  0  0  0  0  0
  150.9216  140.9316  157.9358 C   0  0  0  0  0  0  0  0  0  0  0  0
  150.5032  142.1919  157.8319 N   0  0  0  0  0  0  0  0  0  0  0  0
  149.8420  142.1722  156.6556 N   0  0  0  0  0  0  0  0  0  0  0  0
  149.8956  140.9424  156.1385 C   0  0  0  0  0  0  0  0  0  0  0  0
  149.2621  140.6006  154.8268 C   0  0  1  0  0  0  0  0  0  0  0  0
  149.4485  139.1175  154.4521 C   0  0  0  0  0  0  0  0  0  0  0  0
  148.7203  138.8175  153.2039 N   0  3  0  0  0  0  0  0  0  0  0  0
  147.2969  139.1970  153.3042 C   0  0  0  0  0  0  0  0  0  0  0  0
  147.1695  140.6727  153.7219 C   0  0  0  0  0  0  0  0  0  0  0  0
  147.8709  140.8892  154.9422 O   0  0  0  0  0  0  0  0  0  0  0  0
  150.5771  140.0987  156.9082 N   0  0  0  0  0  0  0  0  0  0  0  0
  149.3884  142.9864  156.2660 H   0  0  0  0  0  0  0  0  0  0  0  0
  152.0272  141.3173  159.7252 H   0  0  0  0  0  0  0  0  0  0  0  0
  152.6083  139.9410  158.7788 H   0  0  0  0  0  0  0  0  0  0  0  0
  151.1197  139.7980  159.7261 H   0  0  0  0  0  0  0  0  0  0  0  0
  149.6975  141.2392  154.0555 H   0  0  0  0  0  0  0  0  0  0  0  0
  150.5050  138.8819  154.3211 H   0  0  0  0  0  0  0  0  0  0  0  0
  149.0703  138.4722  155.2465 H   0  0  0  0  0  0  0  0  0  0  0  0
  149.1420  139.3390  152.4486 H   0  0  0  0  0  0  0  0  0  0  0  0
  146.8073  139.0246  152.3456 H   0  0  0  0  0  0  0  0  0  0  0  0
  146.8057  138.5549  154.0365 H   0  0  0  0  0  0  0  0  0  0  0  0
  147.5581  141.3325  152.9446 H   0  0  0  0  0  0  0  0  0  0  0  0
  146.1208  140.9334  153.8655 H   0  0  0  0  0  0  0  0  0  0  0  0
  148.7915  137.8302  153.0025 H   0  0  0  0  0  0  0  0  0  0  0  0
  1  2  1  0  0  0  0
  1 14  1  0  0  0  0
  1 15  1  0  0  0  0
  1 16  1  0  0  0  0
  2 12  1  0  0  0  0
  2  3  2  0  0  0  0
  3  4  1  0  0  0  0
  4 13  1  0  0  0  0
  4  5  1  0  0  0  0
  5  6  1  0  0  0  0
  5 12  2  0  0  0  0
  6 11  1  0  0  0  0
  6  7  1  0  0  0  0
  6 17  1  0  0  0  0
  7  8  1  0  0  0  0
  7 18  1  0  0  0  0
  7 19  1  0  0  0  0
  8  9  1  0  0  0  0
  8 20  1  0  0  0  0
  8 25  1  0  0  0  0
  9 10  1  0  0  0  0
  9 21  1  0  0  0  0
  9 22  1  0  0  0  0
 10 11  1  0  0  0  0
 10 23  1  0  0  0  0
 10 24  1  0  0  0  0
M  CHG  1   8   1
M  END
> <s_m_source_file>
AV-unprocessed.smi

> <i_m_source_file_index>
2568

> <i_lp_mmshare_version>
43012

> <i_f3d_flags>
0

> <s_epik_input>
W0NIM11jMW5bbkhdYyhuMSlbQ0BASF0yW0NIMl1bTkhdW0NIMl1bQ0gyXU8y

> <s_epik_cmdline>
J2VwaWtfcHl0aG9uJywgJy1waCcsICc3LjAnLCAnLXRuJywgJzgnLCAnLW1hJywgJzIwMCcsICctbWV0YWxfYmluZGluZycsICctaW1hZScsICc8aW5maWxlLm1hZT4nLCAnLW9tYWUnLCAnPG91dGZpbGUubWFlPic=

> <r_epik_Ionization_Penalty>
0.166663

> <r_epik_Ionization_Penalty_Charging>
0.125708

> <r_epik_Ionization_Penalty_Neutral>
0.0409555

> <r_epik_State_Penalty>
1.3004

> <r_epik_Charging_Adjusted_Penalty>
1.42611

> <i_epik_Tot_Q>
1

> <i_epik_Tot_abs_Q>
1

> <r_epik_Metal_State_Penalty>
1.60166

> <b_epik_Metal_Only>
0

> <s_lp_Force_Field>
OPLS_2005

> <r_lp_Energy>
12.4533

> <b_lp_Chiralities_Consistent>
1

> <s_lp_Variant>
AV-unprocessed.smi:2568-6

> <Gold.Version>
5.8.1

> <Gold.Id.Protein>
6NUR|6NUR_protein|mol2

> <Gold.PLP.Fitness>
32.8731

> <Gold.PLP.PLP>
-21.0997

> <Gold.PLP.part.hbond>
-2.9275

> <Gold.PLP.part.metal>
0.0000

> <Gold.PLP.part.buried>
-4.0733

> <Gold.PLP.part.nonpolar>
-15.3303

> <Gold.PLP.part.repulsive>
0.3587

> <Gold.PLP.ligand.clash>
0.0000

> <Gold.PLP.ligand.torsion>
0.0035

> <Gold.PLP.Chemscore.Hbond>
3.9265

> <Gold.PLP.Chemscore.CHOScore>
0.0000

> <Gold.PLP.Chemscore.Metal>
0.0000

> <Gold.Chemscore.Hbonds>
donor molecule, donor type, donor heavy atom, donor atom, acceptor molecule, acceptor atom, score
      L1  H     4    13       P1  8028  1.00
      L1  H     8    20       P1  7957  1.00
      L1  H     8    25       P1  7948  2.00

> <Gold.PLP.Chemscore.Internal.Correction>
0.0010

> <Gold.Rescore>
     Score         DG    S(hbond)    S(metal)    S(lipo)     H(rot)  DE(clash)    DE(int)     intcor
     16.55     -16.56       2.87        0.00      34.54       1.00       0.00       0.00       ----

> <Gold.Chemscore.Fitness>
16.5536

> <Gold.Chemscore.DG>
-16.5558

> <Gold.Chemscore.ZeroCoef>
-5.4800

> <Gold.Chemscore.Hbond>
2.8726

> <Gold.Chemscore.Metal>
0.0000

> <Gold.Chemscore.Lipo>
34.5407

> <Gold.Chemscore.Internal_Hbond>
0.0000

> <Gold.Chemscore.DEClash>
0.0000

> <Gold.Chemscore.DEInternal>
0.0022

> <Gold.Chemscore.Rot>
1.0000

> <Gold.Chemscore.Internal.Correction>
   9.000000E+99

> <Gold.Chemscore.Hbonds>
donor molecule, donor type, donor heavy atom, donor atom, acceptor molecule, acceptor atom, score
      L1  H     4    13       P1  8028  1.00
      L1  H     8    20       P1  7957  0.93
      L1  H     8    25       P1  7948  0.97

> <Gold.Chemscore.Hbond.Weighted>
-9.5945

> <Gold.Chemscore.Metal.Weighted>
-0.0000

> <Gold.Chemscore.Lipo.Weighted>
-4.0413

> <Gold.Chemscore.Internal_Hbond.Weighted>
0.0000

> <Gold.Chemscore.DEClash.Weighted>
0.0000

> <Gold.Chemscore.DEInternal.Weighted>
0.0022

> <Gold.Chemscore.Rot.Weighted>
2.5600

> <Gold.Chemscore.Internal.Correction.Weighted>
   9.000000E+99

> <Gold.Protein.RotatedTorsions>
[ 6907 6896 6895 6894 ] final   28.91 input  -60.11 | X-H torsion
[ 7974 7965 7964 7962 ] final  169.81 input  175.53 | X-H torsion
[ 8008 7997 7996 7995 ] final   -5.45 input   59.86 | X-H torsion
[ 10167 10162 10161 10158 ] final  -87.93 input  -65.29 | X-H torsion
[ 10718 10713 10712 10709 ] final  -47.56 input   66.30 | X-H torsion
[ 10763 10752 10751 10750 ] final -111.27 input  -60.55 | X-H torsion
[ 11005 11000 10999 10996 ] final  112.92 input  -57.11 | X-H torsion

> <Gold.Protein.ActiveResidues>
 VAL166  LYS551  ARG553  GLY616  TRP617  ASP618  TYR619  PRO620  LYS621  CYS622 
 ASP623  PHE694  ASN695  SER759  ASP760  ASP761  ALA762  ILE779  LEU786  VAL792 
 PHE793  MET794  SER795  GLU796  ALA797  LYS798  CYS799  TRP800  GLU811  SER814 

> <Gold.Protein.RotatedAtoms>
  152.0239  134.9807  160.0570 H   0  0  0  0  0  0  0  0  0  0  0  0  # atno 6907 bound_to 6896
  152.1310  133.4403  159.4729 H   0  0  0  0  0  0  0  0  0  0  0  0  # atno 6908 bound_to 6896
  150.6856  134.2339  159.4488 H   0  0  0  0  0  0  0  0  0  0  0  0  # atno 6909 bound_to 6896
  144.7343  139.9109  143.6415 H   0  0  0  0  0  0  0  0  0  0  0  0  # atno 7974 bound_to 7965
  154.6038  140.2458  155.7757 H   0  0  0  0  0  0  0  0  0  0  0  0  # atno 8008 bound_to 7997
  156.2328  140.2961  156.0184 H   0  0  0  0  0  0  0  0  0  0  0  0  # atno 8009 bound_to 7997
  155.2166  140.0399  157.2932 H   0  0  0  0  0  0  0  0  0  0  0  0  # atno 8010 bound_to 7997
  140.3796  143.2755  151.9400 H   0  0  0  0  0  0  0  0  0  0  0  0  # atno 10167 bound_to 10162
  156.2073  130.4159  149.9161 H   0  0  0  0  0  0  0  0  0  0  0  0  # atno 10718 bound_to 10713
  154.8292  135.4533  154.1014 H   0  0  0  0  0  0  0  0  0  0  0  0  # atno 10763 bound_to 10752
  153.2302  135.6904  153.7905 H   0  0  0  0  0  0  0  0  0  0  0  0  # atno 10764 bound_to 10752
  153.7290  135.3330  155.3258 H   0  0  0  0  0  0  0  0  0  0  0  0  # atno 10765 bound_to 10752
  139.8939  134.9539  156.6659 H   0  0  0  0  0  0  0  0  0  0  0  0  # atno 11005 bound_to 11000
  146.1002  139.3997  143.0352 LP  0  0  0  0  0  0  0  0  0  0  0  0  # atno 17320 bound_to 7965
  145.7589  140.9943  143.1210 LP  0  0  0  0  0  0  0  0  0  0  0  0  # atno 17321 bound_to 7965
  139.4796  144.5830  151.7900 LP  0  0  0  0  0  0  0  0  0  0  0  0  # atno 17342 bound_to 10162
  140.4950  144.1253  150.5958 LP  0  0  0  0  0  0  0  0  0  0  0  0  # atno 17343 bound_to 10162
  156.6851  130.8873  151.3581 LP  0  0  0  0  0  0  0  0  0  0  0  0  # atno 17370 bound_to 10713
  157.7019  130.9342  150.0812 LP  0  0  0  0  0  0  0  0  0  0  0  0  # atno 17371 bound_to 10713
  140.7411  133.8977  155.8278 LP  0  0  0  0  0  0  0  0  0  0  0  0  # atno 17394 bound_to 11000
  141.0077  134.1063  157.4253 LP  0  0  0  0  0  0  0  0  0  0  0  0  # atno 17395 bound_to 11000

$$$$
