AV-unprocessed.smi:1962|AV-procd|sdf|7925|dock2
  -GOLD-   2272010 93D 1   1.00000     0.00000
 Structure written by MMmdl.
 35 36  0  0  0  0  0  0  0  0  2 V2000
  151.6489  139.1509  159.1937 C   0  0  0  0  0  0  0  0  0  0  0  0
  152.5632  140.3531  158.9207 C   0  0  1  0  0  0  0  0  0  0  0  0
  152.3204  141.4878  159.9511 C   0  0  0  0  0  0  0  0  0  0  0  0
  152.1488  142.8146  159.3632 N   0  0  0  0  0  0  0  0  0  0  0  0
  152.6880  144.0208  159.7710 C   0  0  0  0  0  0  0  0  0  0  0  0
  152.2539  144.9800  158.9019 C   0  0  0  0  0  0  0  0  0  0  0  0
  151.4540  144.2571  157.9741 C   0  0  0  0  0  0  0  0  0  0  0  0
  151.4035  142.9633  158.2429 N   0  0  0  0  0  0  0  0  0  0  0  0
  153.9591  139.9035  158.9787 N   0  5  0  0  0  0  0  0  0  0  0  0
  154.6719  139.6757  160.1242 C   0  0  0  0  0  0  0  0  0  0  0  0
  154.2039  139.3369  161.2182 O   0  0  0  0  0  0  0  0  0  0  0  0
  156.1559  139.8381  160.0907 C   0  0  0  0  0  0  0  0  0  0  0  0
  156.7111  140.4531  159.0931 N   0  0  0  0  0  0  0  0  0  0  0  0
  158.0743  140.6478  159.0124 N   0  0  0  0  0  0  0  0  0  0  0  0
  158.4976  141.5807  157.9704 C   0  0  0  0  0  0  0  0  0  0  0  0
  158.9895  140.0275  159.7972 C   0  0  0  0  0  0  0  0  0  0  0  0
  160.2017  140.2320  159.7286 O   0  0  0  0  0  0  0  0  0  0  0  0
  158.4483  138.9972  160.7914 C   0  0  0  0  0  0  0  0  0  0  0  0
  157.0068  139.3147  161.2349 C   0  0  0  0  0  0  0  0  0  0  0  0
  150.5990  139.4391  159.1406 H   0  0  0  0  0  0  0  0  0  0  0  0
  151.8272  138.7295  160.1839 H   0  0  0  0  0  0  0  0  0  0  0  0
  151.8081  138.3596  158.4601 H   0  0  0  0  0  0  0  0  0  0  0  0
  152.2987  140.7337  157.9327 H   0  0  0  0  0  0  0  0  0  0  0  0
  151.4196  141.2698  160.5258 H   0  0  0  0  0  0  0  0  0  0  0  0
  153.1381  141.5230  160.6733 H   0  0  0  0  0  0  0  0  0  0  0  0
  153.3221  144.0939  160.6424 H   0  0  0  0  0  0  0  0  0  0  0  0
  152.4747  146.0366  158.9257 H   0  0  0  0  0  0  0  0  0  0  0  0
  150.9164  144.6303  157.1152 H   0  0  0  0  0  0  0  0  0  0  0  0
  158.9883  142.4491  158.4114 H   0  0  0  0  0  0  0  0  0  0  0  0
  157.6550  141.9417  157.3784 H   0  0  0  0  0  0  0  0  0  0  0  0
  159.1984  141.1024  157.2846 H   0  0  0  0  0  0  0  0  0  0  0  0
  158.4736  138.0239  160.2999 H   0  0  0  0  0  0  0  0  0  0  0  0
  159.1058  138.9289  161.6589 H   0  0  0  0  0  0  0  0  0  0  0  0
  157.0174  140.0507  162.0395 H   0  0  0  0  0  0  0  0  0  0  0  0
  156.5766  138.4050  161.6549 H   0  0  0  0  0  0  0  0  0  0  0  0
  1  2  1  0  0  0  0
  1 20  1  0  0  0  0
  1 21  1  0  0  0  0
  1 22  1  0  0  0  0
  2  3  1  0  0  0  0
  2  9  1  0  0  0  0
  2 23  1  0  0  0  0
  3  4  1  0  0  0  0
  3 24  1  0  0  0  0
  3 25  1  0  0  0  0
  4  8  1  0  0  0  0
  4  5  1  0  0  0  0
  5  6  2  0  0  0  0
  5 26  1  0  0  0  0
  6  7  1  0  0  0  0
  6 27  1  0  0  0  0
  7  8  2  0  0  0  0
  7 28  1  0  0  0  0
  9 10  1  0  0  0  0
 10 11  2  0  0  0  0
 10 12  1  0  0  0  0
 12 19  1  0  0  0  0
 12 13  2  0  0  0  0
 13 14  1  0  0  0  0
 14 15  1  0  0  0  0
 14 16  1  0  0  0  0
 15 29  1  0  0  0  0
 15 30  1  0  0  0  0
 15 31  1  0  0  0  0
 16 17  2  0  0  0  0
 16 18  1  0  0  0  0
 18 19  1  0  0  0  0
 18 32  1  0  0  0  0
 18 33  1  0  0  0  0
 19 34  1  0  0  0  0
 19 35  1  0  0  0  0
M  CHG  1   9  -1
M  END
> <s_m_source_file>
AV-unprocessed.smi

> <i_m_source_file_index>
1962

> <i_lp_mmshare_version>
43012

> <i_f3d_flags>
0

> <s_epik_input>
bjFbY0hdW2NIXVtjSF1uMVtDSDJdW0NAQEhdKFtDSDNdKVtOSF1DKD1PKUMyPU5OKFtDSDNdKUMoPU8pW0NIMl1bQ0gyXTI=

> <s_epik_cmdline>
J2VwaWtfcHl0aG9uJywgJy1waCcsICc3LjAnLCAnLXRuJywgJzgnLCAnLW1hJywgJzIwMCcsICctbWV0YWxfYmluZGluZycsICctaW1hZScsICc8aW5maWxlLm1hZT4nLCAnLW9tYWUnLCAnPG91dGZpbGUubWFlPic=

> <r_lp_tautomer_probability>
1

> <r_epik_Ionization_Penalty>
5.21086

> <r_epik_Ionization_Penalty_Charging>
5.21084

> <r_epik_Ionization_Penalty_Neutral>
2.41961e-05

> <r_epik_State_Penalty>
5.21075

> <r_epik_Charging_Adjusted_Penalty>
10.4216

> <i_epik_Tot_Q>
-1

> <i_epik_Tot_abs_Q>
1

> <r_epik_Metal_State_Penalty>
1.27477

> <b_epik_Metal_Only>
1

> <s_epik_Chemistry_Notes>
This compound has an imine and may undergo hydrolysis.

> <s_lp_Force_Field>
OPLS_2005

> <r_lp_Energy>
25.3594

> <b_lp_Chiralities_Consistent>
1

> <s_lp_Variant>
AV-unprocessed.smi:1962-4

> <Gold.Version>
5.8.1

> <Gold.Id.Protein>
6NUR|6NUR_protein|mol2

> <Gold.PLP.Fitness>
43.0065

> <Gold.PLP.PLP>
-36.7143

> <Gold.PLP.part.hbond>
-1.2014

> <Gold.PLP.part.metal>
0.0000

> <Gold.PLP.part.buried>
-4.2816

> <Gold.PLP.part.nonpolar>
-32.0688

> <Gold.PLP.part.repulsive>
0.2548

> <Gold.PLP.ligand.clash>
0.0000

> <Gold.PLP.ligand.torsion>
1.3958

> <Gold.PLP.Chemscore.Hbond>
2.0000

> <Gold.PLP.Chemscore.CHOScore>
1.0000

> <Gold.PLP.Chemscore.Metal>
0.0000

> <Gold.Chemscore.Hbonds>
donor molecule, donor type, donor heavy atom, donor atom, acceptor molecule, acceptor atom, score
      P1  H  7997  8010       L1     9  2.00
      L1  C     7    28       P1  8028  1.00

> <Gold.PLP.Chemscore.Internal.Correction>
0.0839

> <Gold.Rescore>
     Score         DG    S(hbond)    S(metal)    S(lipo)     H(rot)  DE(clash)    DE(int)     intcor
     13.76     -14.84       0.75        0.00      91.32       1.50       0.08       1.00       ----

> <Gold.Chemscore.Fitness>
13.7603

> <Gold.Chemscore.DG>
-14.8396

> <Gold.Chemscore.ZeroCoef>
-5.4800

> <Gold.Chemscore.Hbond>
0.7504

> <Gold.Chemscore.Metal>
0.0000

> <Gold.Chemscore.Lipo>
91.3157

> <Gold.Chemscore.Internal_Hbond>
0.0000

> <Gold.Chemscore.DEClash>
0.0840

> <Gold.Chemscore.DEInternal>
0.9953

> <Gold.Chemscore.Rot>
1.4964

> <Gold.Chemscore.Internal.Correction>
   9.000000E+99

> <Gold.Chemscore.Hbonds>
donor molecule, donor type, donor heavy atom, donor atom, acceptor molecule, acceptor atom, score
      P1  H  7997  8010       L1     9  0.81

> <Gold.Chemscore.Hbond.Weighted>
-2.5065

> <Gold.Chemscore.Metal.Weighted>
-0.0000

> <Gold.Chemscore.Lipo.Weighted>
-10.6839

> <Gold.Chemscore.Internal_Hbond.Weighted>
0.0000

> <Gold.Chemscore.DEClash.Weighted>
0.0840

> <Gold.Chemscore.DEInternal.Weighted>
0.9953

> <Gold.Chemscore.Rot.Weighted>
3.8309

> <Gold.Chemscore.Internal.Correction.Weighted>
   9.000000E+99

> <Gold.Protein.RotatedTorsions>
[ 6907 6896 6895 6894 ] final  153.24 input  -60.11 | X-H torsion
[ 7974 7965 7964 7962 ] final   23.94 input  175.53 | X-H torsion
[ 8008 7997 7996 7995 ] final    3.32 input   59.86 | X-H torsion
[ 10167 10162 10161 10158 ] final  -75.72 input  -65.29 | X-H torsion
[ 10718 10713 10712 10709 ] final -109.85 input   66.30 | X-H torsion
[ 10763 10752 10751 10750 ] final   58.86 input  -60.55 | X-H torsion
[ 11005 11000 10999 10996 ] final  120.08 input  -57.11 | X-H torsion

> <Gold.Protein.ActiveResidues>
 VAL166  LYS551  ARG553  GLY616  TRP617  ASP618  TYR619  PRO620  LYS621  CYS622 
 ASP623  PHE694  ASN695  SER759  ASP760  ASP761  ALA762  ILE779  LEU786  VAL792 
 PHE793  MET794  SER795  GLU796  ALA797  LYS798  CYS799  TRP800  GLU811  SER814 

> <Gold.Protein.RotatedAtoms>
  152.0755  133.4127  159.4477 H   0  0  0  0  0  0  0  0  0  0  0  0  # atno 6907 bound_to 6896
  150.6863  134.3042  159.4728 H   0  0  0  0  0  0  0  0  0  0  0  0  # atno 6908 bound_to 6896
  152.0879  134.9427  160.0623 H   0  0  0  0  0  0  0  0  0  0  0  0  # atno 6909 bound_to 6896
  146.1961  139.7675  142.8796 H   0  0  0  0  0  0  0  0  0  0  0  0  # atno 7974 bound_to 7965
  154.7022  140.2675  155.6708 H   0  0  0  0  0  0  0  0  0  0  0  0  # atno 8008 bound_to 7997
  156.2768  140.2770  156.1560 H   0  0  0  0  0  0  0  0  0  0  0  0  # atno 8009 bound_to 7997
  155.0749  140.0372  157.2610 H   0  0  0  0  0  0  0  0  0  0  0  0  # atno 8010 bound_to 7997
  140.4918  143.2379  151.7894 H   0  0  0  0  0  0  0  0  0  0  0  0  # atno 10167 bound_to 10162
  156.0559  130.5785  150.8156 H   0  0  0  0  0  0  0  0  0  0  0  0  # atno 10718 bound_to 10713
  152.9880  135.5592  154.5621 H   0  0  0  0  0  0  0  0  0  0  0  0  # atno 10763 bound_to 10752
  154.5038  135.2798  155.1401 H   0  0  0  0  0  0  0  0  0  0  0  0  # atno 10764 bound_to 10752
  154.2821  135.6343  153.5404 H   0  0  0  0  0  0  0  0  0  0  0  0  # atno 10765 bound_to 10752
  139.9171  134.9632  156.7753 H   0  0  0  0  0  0  0  0  0  0  0  0  # atno 11005 bound_to 11000
  145.3638  141.0330  143.3270 LP  0  0  0  0  0  0  0  0  0  0  0  0  # atno 17320 bound_to 7965
  144.8584  139.5215  143.6824 LP  0  0  0  0  0  0  0  0  0  0  0  0  # atno 17321 bound_to 7965
  139.4853  144.4638  151.9508 LP  0  0  0  0  0  0  0  0  0  0  0  0  # atno 17342 bound_to 10162
  140.3725  144.2837  150.5918 LP  0  0  0  0  0  0  0  0  0  0  0  0  # atno 17343 bound_to 10162
  157.5527  131.0944  150.9672 LP  0  0  0  0  0  0  0  0  0  0  0  0  # atno 17370 bound_to 10713
  156.9928  130.5570  149.5304 LP  0  0  0  0  0  0  0  0  0  0  0  0  # atno 17371 bound_to 10713
  140.6588  133.9664  155.7793 LP  0  0  0  0  0  0  0  0  0  0  0  0  # atno 17394 bound_to 11000
  141.0658  134.0279  157.3596 LP  0  0  0  0  0  0  0  0  0  0  0  0  # atno 17395 bound_to 11000

$$$$
