AV-unprocessed.smi:1950|AV-procd|sdf|7879|dock3
  -GOLD-   2272010 33D 1   1.00000     0.00000
 Structure written by MMmdl.
 33 34  0  0  0  0  0  0  0  0  1 V2000
  152.1266  144.0653  161.5679 C   0  0  0  0  0  0  0  0  0  0  0  0
  152.0557  144.7056  160.1798 C   0  0  0  0  0  0  0  0  0  0  0  0
  151.7690  145.9008  160.1081 O   0  0  0  0  0  0  0  0  0  0  0  0
  152.3151  143.9480  159.0870 N   0  0  0  0  0  0  0  0  0  0  0  0
  152.5696  142.5049  159.1634 C   0  0  0  0  0  0  0  0  0  0  0  0
  151.3584  141.7566  158.5775 C   0  0  0  0  0  0  0  0  0  0  0  0
  151.0512  142.2212  157.1372 C   0  0  0  0  0  0  0  0  0  0  0  0
  149.7776  141.6565  156.6986 N   0  0  0  0  0  0  0  0  0  0  0  0
  149.5635  140.9914  155.5539 C   0  0  0  0  0  0  0  0  0  0  0  0
  150.4388  140.7741  154.7156 O   0  0  0  0  0  0  0  0  0  0  0  0
  148.2795  140.6046  155.4538 N   0  0  0  0  0  0  0  0  0  0  0  0
  147.6581  139.8745  154.4061 C   0  0  0  0  0  0  0  0  0  0  0  0
  147.4743  138.5450  154.4318 N   0  0  0  0  0  0  0  0  0  0  0  0
  146.8413  138.0856  153.2841 N   0  0  0  0  0  0  0  0  0  0  0  0
  146.5737  139.0850  152.4387 C   0  0  0  0  0  0  0  0  0  0  0  0
  147.0676  140.6857  152.9628 S   0  0  0  0  0  0  0  0  0  0  0  0
  151.0002  143.7613  157.0346 C   0  0  0  0  0  0  0  0  0  0  0  0
  152.2308  144.4071  157.6953 C   0  0  0  0  0  0  0  0  0  0  0  0
  153.1153  143.6433  161.7499 H   0  0  0  0  0  0  0  0  0  0  0  0
  151.3798  143.2777  161.6694 H   0  0  0  0  0  0  0  0  0  0  0  0
  151.9354  144.8074  162.3436 H   0  0  0  0  0  0  0  0  0  0  0  0
  153.4699  142.2654  158.5957 H   0  0  0  0  0  0  0  0  0  0  0  0
  152.7617  142.1624  160.1810 H   0  0  0  0  0  0  0  0  0  0  0  0
  151.5415  140.6814  158.5926 H   0  0  0  0  0  0  0  0  0  0  0  0
  150.4908  141.9309  159.2160 H   0  0  0  0  0  0  0  0  0  0  0  0
  151.8656  141.8752  156.4979 H   0  0  0  0  0  0  0  0  0  0  0  0
  148.9940  141.7823  157.3225 H   0  0  0  0  0  0  0  0  0  0  0  0
  147.6743  140.8616  156.2195 H   0  0  0  0  0  0  0  0  0  0  0  0
  146.0818  138.8783  151.4998 H   0  0  0  0  0  0  0  0  0  0  0  0
  150.9370  144.0639  155.9886 H   0  0  0  0  0  0  0  0  0  0  0  0
  150.0978  144.1365  157.5205 H   0  0  0  0  0  0  0  0  0  0  0  0
  152.1816  145.4904  157.5945 H   0  0  0  0  0  0  0  0  0  0  0  0
  153.1359  144.1083  157.1644 H   0  0  0  0  0  0  0  0  0  0  0  0
  1  2  1  0  0  0  0
  1 19  1  0  0  0  0
  1 20  1  0  0  0  0
  1 21  1  0  0  0  0
  2  3  2  0  0  0  0
  2  4  1  0  0  0  0
  4 18  1  0  0  0  0
  4  5  1  0  0  0  0
  5  6  1  0  0  0  0
  5 22  1  0  0  0  0
  5 23  1  0  0  0  0
  6  7  1  0  0  0  0
  6 24  1  0  0  0  0
  6 25  1  0  0  0  0
  7  8  1  0  0  0  0
  7 17  1  0  0  0  0
  7 26  1  0  0  0  0
  8  9  1  0  0  0  0
  8 27  1  0  0  0  0
  9 10  2  0  0  0  0
  9 11  1  0  0  0  0
 11 12  1  0  0  0  0
 11 28  1  0  0  0  0
 12 16  1  0  0  0  0
 12 13  2  0  0  0  0
 13 14  1  0  0  0  0
 14 15  2  0  0  0  0
 15 16  1  0  0  0  0
 15 29  1  0  0  0  0
 17 18  1  0  0  0  0
 17 30  1  0  0  0  0
 17 31  1  0  0  0  0
 18 32  1  0  0  0  0
 18 33  1  0  0  0  0
M  END
> <s_m_source_file>
AV-unprocessed.smi

> <i_m_source_file_index>
1950

> <i_lp_mmshare_version>
43012

> <i_f3d_flags>
0

> <s_epik_input>
W0NIM11DKD1PKU4xW0NIMl1bQ0gyXVtDSF0oW0NIMl1bQ0gyXTEpW05IXUMoPU8pW05IXWMybm5bY0hdczI=

> <s_epik_cmdline>
J2VwaWtfcHl0aG9uJywgJy1waCcsICc3LjAnLCAnLXRuJywgJzgnLCAnLW1hJywgJzIwMCcsICctbWV0YWxfYmluZGluZycsICctaW1hZScsICc8aW5maWxlLm1hZT4nLCAnLW9tYWUnLCAnPG91dGZpbGUubWFlPic=

> <r_lp_tautomer_probability>
1

> <r_epik_Ionization_Penalty>
0.00190949

> <r_epik_Ionization_Penalty_Charging>
0

> <r_epik_Ionization_Penalty_Neutral>
0.00190949

> <r_epik_State_Penalty>
-0

> <r_epik_Charging_Adjusted_Penalty>
0

> <i_epik_Tot_Q>
0

> <i_epik_Tot_abs_Q>
0

> <r_epik_Metal_State_Penalty>
0.336167

> <b_epik_Metal_Only>
0

> <s_lp_Force_Field>
OPLS_2005

> <r_lp_Energy>
22.3171

> <b_lp_Chiralities_Consistent>
1

> <s_lp_Variant>
AV-unprocessed.smi:1950-1

> <Gold.Version>
5.8.1

> <Gold.Id.Protein>
6NUR|6NUR_protein|mol2

> <Gold.PLP.Fitness>
36.4660

> <Gold.PLP.PLP>
-34.7280

> <Gold.PLP.part.hbond>
-1.6955

> <Gold.PLP.part.metal>
0.0000

> <Gold.PLP.part.buried>
-0.5043

> <Gold.PLP.part.nonpolar>
-34.2238

> <Gold.PLP.part.repulsive>
0.9653

> <Gold.PLP.ligand.clash>
0.0000

> <Gold.PLP.ligand.torsion>
0.8544

> <Gold.PLP.Chemscore.Hbond>
0.8640

> <Gold.PLP.Chemscore.CHOScore>
0.2792

> <Gold.PLP.Chemscore.Metal>
0.0000

> <Gold.Chemscore.Hbonds>
donor molecule, donor type, donor heavy atom, donor atom, acceptor molecule, acceptor atom, score
      P1  H  7989  7998       L1    10  0.83
      L1  C    15    29       P1 10171  0.37

> <Gold.PLP.Chemscore.Internal.Correction>
0.0173

> <Gold.Rescore>
     Score         DG    S(hbond)    S(metal)    S(lipo)     H(rot)  DE(clash)    DE(int)     intcor
     14.17     -15.45       0.93        0.00      80.48       1.00       0.51       0.77       ----

> <Gold.Chemscore.Fitness>
14.1723

> <Gold.Chemscore.DG>
-15.4538

> <Gold.Chemscore.ZeroCoef>
-5.4800

> <Gold.Chemscore.Hbond>
0.9336

> <Gold.Chemscore.Metal>
0.0000

> <Gold.Chemscore.Lipo>
80.4755

> <Gold.Chemscore.Internal_Hbond>
0.0000

> <Gold.Chemscore.DEClash>
0.5130

> <Gold.Chemscore.DEInternal>
0.7685

> <Gold.Chemscore.Rot>
1.0000

> <Gold.Chemscore.Internal.Correction>
   9.000000E+99

> <Gold.Chemscore.Hbonds>
donor molecule, donor type, donor heavy atom, donor atom, acceptor molecule, acceptor atom, score
      P1  H  7989  7998       L1    10  0.83

> <Gold.Chemscore.Hbond.Weighted>
-3.1182

> <Gold.Chemscore.Metal.Weighted>
-0.0000

> <Gold.Chemscore.Lipo.Weighted>
-9.4156

> <Gold.Chemscore.Internal_Hbond.Weighted>
0.0000

> <Gold.Chemscore.DEClash.Weighted>
0.5130

> <Gold.Chemscore.DEInternal.Weighted>
0.7685

> <Gold.Chemscore.Rot.Weighted>
2.5600

> <Gold.Chemscore.Internal.Correction.Weighted>
   9.000000E+99

> <Gold.Protein.RotatedTorsions>
[ 6907 6896 6895 6894 ] final -112.54 input  -60.11 | X-H torsion
[ 7974 7965 7964 7962 ] final  162.52 input  175.53 | X-H torsion
[ 8008 7997 7996 7995 ] final   84.93 input   59.86 | X-H torsion
[ 10167 10162 10161 10158 ] final  -67.63 input  -65.29 | X-H torsion
[ 10718 10713 10712 10709 ] final  -65.97 input   66.30 | X-H torsion
[ 10763 10752 10751 10750 ] final  -12.08 input  -60.55 | X-H torsion
[ 11005 11000 10999 10996 ] final -112.43 input  -57.11 | X-H torsion

> <Gold.Protein.ActiveResidues>
 VAL166  LYS551  ARG553  GLY616  TRP617  ASP618  TYR619  PRO620  LYS621  CYS622 
 ASP623  PHE694  ASN695  SER759  ASP760  ASP761  ALA762  ILE779  LEU786  VAL792 
 PHE793  MET794  SER795  GLU796  ALA797  LYS798  CYS799  TRP800  GLU811  SER814 

> <Gold.Protein.RotatedAtoms>
  150.7765  133.9075  159.3359 H   0  0  0  0  0  0  0  0  0  0  0  0  # atno 6907 bound_to 6896
  151.6949  135.0938  160.0250 H   0  0  0  0  0  0  0  0  0  0  0  0  # atno 6908 bound_to 6896
  152.3803  133.6498  159.6191 H   0  0  0  0  0  0  0  0  0  0  0  0  # atno 6909 bound_to 6896
  144.7632  139.8052  143.6325 H   0  0  0  0  0  0  0  0  0  0  0  0  # atno 7974 bound_to 7965
  155.9435  140.3406  155.6347 H   0  0  0  0  0  0  0  0  0  0  0  0  # atno 8008 bound_to 7997
  155.7010  140.0760  157.2429 H   0  0  0  0  0  0  0  0  0  0  0  0  # atno 8009 bound_to 7997
  154.4107  140.1640  156.2178 H   0  0  0  0  0  0  0  0  0  0  0  0  # atno 8010 bound_to 7997
  140.5568  143.2312  151.6805 H   0  0  0  0  0  0  0  0  0  0  0  0  # atno 10167 bound_to 10162
  156.0639  130.4255  150.1640 H   0  0  0  0  0  0  0  0  0  0  0  0  # atno 10718 bound_to 10713
  153.4932  135.7017  153.5872 H   0  0  0  0  0  0  0  0  0  0  0  0  # atno 10763 bound_to 10752
  153.4036  135.3866  155.2004 H   0  0  0  0  0  0  0  0  0  0  0  0  # atno 10764 bound_to 10752
  154.8715  135.3887  154.4395 H   0  0  0  0  0  0  0  0  0  0  0  0  # atno 10765 bound_to 10752
  141.0676  133.9434  157.2549 H   0  0  0  0  0  0  0  0  0  0  0  0  # atno 11005 bound_to 11000
  146.1716  139.4869  142.9924 LP  0  0  0  0  0  0  0  0  0  0  0  0  # atno 17320 bound_to 7965
  145.6551  141.0254  143.1739 LP  0  0  0  0  0  0  0  0  0  0  0  0  # atno 17321 bound_to 7965
  139.5052  144.3727  152.0454 LP  0  0  0  0  0  0  0  0  0  0  0  0  # atno 17342 bound_to 10162
  140.2850  144.3818  150.6107 LP  0  0  0  0  0  0  0  0  0  0  0  0  # atno 17343 bound_to 10162
  156.9704  130.9833  151.3460 LP  0  0  0  0  0  0  0  0  0  0  0  0  # atno 17370 bound_to 10713
  157.5667  130.8283  149.8337 LP  0  0  0  0  0  0  0  0  0  0  0  0  # atno 17371 bound_to 10713
  139.9491  135.0179  156.8941 LP  0  0  0  0  0  0  0  0  0  0  0  0  # atno 17394 bound_to 11000
  140.5741  134.0414  155.7441 LP  0  0  0  0  0  0  0  0  0  0  0  0  # atno 17395 bound_to 11000

$$$$
