AV-unprocessed.smi:262|AV-procd|sdf|1999|dock1
  -GOLD-   2262021193D 1   1.00000     0.00000
 Structure written by MMmdl.
 60 64  0  0  0  0  0  0  0  0  2 V2000
  146.0001  135.6873  160.3979 O   0  0  0  0  0  0  0  0  0  0  0  0
  147.3139  135.2338  160.6763 C   0  0  0  0  0  0  0  0  0  0  0  0
  148.1467  135.3701  159.3774 C   0  0  0  0  0  0  0  0  0  0  0  0
  148.0939  136.6935  158.7743 N   0  0  0  0  0  0  0  0  0  0  0  0
  148.9901  137.7219  158.9657 C   0  0  0  0  0  0  0  0  0  0  0  0
  148.7294  138.8189  158.3072 N   0  0  0  0  0  0  0  0  0  0  0  0
  147.5700  138.5198  157.6043 C   0  0  0  0  0  0  0  0  0  0  0  0
  146.7492  139.2454  156.7028 C   0  0  0  0  0  0  0  0  0  0  0  0
  147.0336  140.5170  156.3463 N   0  0  0  0  0  0  0  0  0  0  0  0
  147.2119  141.4576  157.4466 C   0  0  0  0  0  0  0  0  0  0  0  0
  148.6845  141.5546  157.8893 C   0  0  0  0  0  0  0  0  0  0  0  0
  149.5784  141.8174  156.7298 N   0  3  0  0  0  0  0  0  0  0  0  0
  151.0050  142.0019  157.1024 C   0  0  0  0  0  0  0  0  0  0  0  0
  151.2007  142.9267  158.3208 C   0  0  2  0  0  0  0  0  0  0  0  0
  151.6049  144.3475  157.9785 C   0  0  0  0  0  0  0  0  0  0  0  0
  152.1841  144.8396  159.3018 C   0  0  0  0  0  0  0  0  0  0  0  0
  152.7274  143.6882  159.9414 O   0  0  0  0  0  0  0  0  0  0  0  0
  152.3607  142.5125  159.2264 C   0  0  0  0  0  0  0  0  0  0  0  0
  149.4099  140.7949  155.6647 C   0  0  0  0  0  0  0  0  0  0  0  0
  147.9401  140.6826  155.2157 C   0  0  0  0  0  0  0  0  0  0  0  0
  145.6566  138.6221  156.1910 N   0  0  0  0  0  0  0  0  0  0  0  0
  145.3869  137.3596  156.5385 C   0  0  0  0  0  0  0  0  0  0  0  0
  146.0643  136.5577  157.3635 N   0  0  0  0  0  0  0  0  0  0  0  0
  147.1584  137.1869  157.8815 C   0  0  0  0  0  0  0  0  0  0  0  0
  147.9082  136.1207  161.7887 C   0  0  0  0  0  0  0  0  0  0  0  0
  147.2216  135.8888  163.1466 C   0  0  0  0  0  0  0  0  0  0  0  0
  147.2867  134.5116  163.4958 O   0  0  0  0  0  0  0  0  0  0  0  0
  146.5900  133.6796  162.5765 C   0  0  0  0  0  0  0  0  0  0  0  0
  147.2329  133.7766  161.1816 C   0  0  0  0  0  0  0  0  0  0  0  0
  146.0583  136.4900  159.9026 H   0  0  0  0  0  0  0  0  0  0  0  0
  149.1926  135.1282  159.5724 H   0  0  0  0  0  0  0  0  0  0  0  0
  147.8042  134.6470  158.6359 H   0  0  0  0  0  0  0  0  0  0  0  0
  149.8482  137.6323  159.6163 H   0  0  0  0  0  0  0  0  0  0  0  0
  146.8634  142.4358  157.1133 H   0  0  0  0  0  0  0  0  0  0  0  0
  146.5815  141.1774  158.2918 H   0  0  0  0  0  0  0  0  0  0  0  0
  148.7679  142.3492  158.6288 H   0  0  0  0  0  0  0  0  0  0  0  0
  148.9947  140.6334  158.3843 H   0  0  0  0  0  0  0  0  0  0  0  0
  151.4606  141.0283  157.2892 H   0  0  0  0  0  0  0  0  0  0  0  0
  151.5395  142.4319  156.2538 H   0  0  0  0  0  0  0  0  0  0  0  0
  150.2992  142.9519  158.9332 H   0  0  0  0  0  0  0  0  0  0  0  0
  152.3779  144.3508  157.2085 H   0  0  0  0  0  0  0  0  0  0  0  0
  150.7723  144.9594  157.6303 H   0  0  0  0  0  0  0  0  0  0  0  0
  152.9392  145.6137  159.1631 H   0  0  0  0  0  0  0  0  0  0  0  0
  151.3945  145.2464  159.9346 H   0  0  0  0  0  0  0  0  0  0  0  0
  152.0941  141.7017  159.9046 H   0  0  0  0  0  0  0  0  0  0  0  0
  153.2196  142.1896  158.6364 H   0  0  0  0  0  0  0  0  0  0  0  0
  150.0267  141.0517  154.8028 H   0  0  0  0  0  0  0  0  0  0  0  0
  149.7691  139.8320  156.0302 H   0  0  0  0  0  0  0  0  0  0  0  0
  147.8221  139.8575  154.5114 H   0  0  0  0  0  0  0  0  0  0  0  0
  147.6483  141.5872  154.6813 H   0  0  0  0  0  0  0  0  0  0  0  0
  144.5023  136.9290  156.0919 H   0  0  0  0  0  0  0  0  0  0  0  0
  148.9703  135.8974  161.8983 H   0  0  0  0  0  0  0  0  0  0  0  0
  147.8455  137.1742  161.5136 H   0  0  0  0  0  0  0  0  0  0  0  0
  147.7242  136.4694  163.9206 H   0  0  0  0  0  0  0  0  0  0  0  0
  146.1831  136.2230  163.1263 H   0  0  0  0  0  0  0  0  0  0  0  0
  146.6336  132.6508  162.9342 H   0  0  0  0  0  0  0  0  0  0  0  0
  145.5353  133.9571  162.5439 H   0  0  0  0  0  0  0  0  0  0  0  0
  146.6799  133.1506  160.4807 H   0  0  0  0  0  0  0  0  0  0  0  0
  148.2397  133.3605  161.2368 H   0  0  0  0  0  0  0  0  0  0  0  0
  149.2755  142.6914  156.3245 H   0  0  0  0  0  0  0  0  0  0  0  0
  1  2  1  0  0  0  0
  1 30  1  0  0  0  0
  2 29  1  0  0  0  0
  2  3  1  0  0  0  0
  2 25  1  0  0  0  0
  3  4  1  0  0  0  0
  3 31  1  0  0  0  0
  3 32  1  0  0  0  0
  4 24  1  0  0  0  0
  4  5  1  0  0  0  0
  5  6  2  0  0  0  0
  5 33  1  0  0  0  0
  6  7  1  0  0  0  0
  7 24  2  0  0  0  0
  7  8  1  0  0  0  0
  8  9  1  0  0  0  0
  8 21  2  0  0  0  0
  9 20  1  0  0  0  0
  9 10  1  0  0  0  0
 10 11  1  0  0  0  0
 10 34  1  0  0  0  0
 10 35  1  0  0  0  0
 11 12  1  0  0  0  0
 11 36  1  0  0  0  0
 11 37  1  0  0  0  0
 12 13  1  0  0  0  0
 12 19  1  0  0  0  0
 12 60  1  0  0  0  0
 13 14  1  0  0  0  0
 13 38  1  0  0  0  0
 13 39  1  0  0  0  0
 14 18  1  0  0  0  0
 14 15  1  0  0  0  0
 14 40  1  0  0  0  0
 15 16  1  0  0  0  0
 15 41  1  0  0  0  0
 15 42  1  0  0  0  0
 16 17  1  0  0  0  0
 16 43  1  0  0  0  0
 16 44  1  0  0  0  0
 17 18  1  0  0  0  0
 18 45  1  0  0  0  0
 18 46  1  0  0  0  0
 19 20  1  0  0  0  0
 19 47  1  0  0  0  0
 19 48  1  0  0  0  0
 20 49  1  0  0  0  0
 20 50  1  0  0  0  0
 21 22  1  0  0  0  0
 22 23  2  0  0  0  0
 22 51  1  0  0  0  0
 23 24  1  0  0  0  0
 25 26  1  0  0  0  0
 25 52  1  0  0  0  0
 25 53  1  0  0  0  0
 26 27  1  0  0  0  0
 26 54  1  0  0  0  0
 26 55  1  0  0  0  0
 27 28  1  0  0  0  0
 28 29  1  0  0  0  0
 28 56  1  0  0  0  0
 28 57  1  0  0  0  0
 29 58  1  0  0  0  0
 29 59  1  0  0  0  0
M  CHG  1  12   1
M  END
> <s_m_source_file>
AV-unprocessed.smi

> <i_m_source_file_index>
262

> <i_lp_mmshare_version>
43012

> <i_f3d_flags>
0

> <s_epik_input>
W0NIMl0xW0NIMl1PW0NIMl1bQ0gyXUMxKFtPSF0pW0NIMl1uKFtjSF1uMiljKGMyMyluW2NIXW5jM040W0NIMl1bQ0gyXU4oW0NIMl1bQ0gyXTQpW0NIMl1bQ0BASF01W0NIMl1bQ0gyXU9bQ0gyXTU=

> <s_epik_cmdline>
J2VwaWtfcHl0aG9uJywgJy1waCcsICc3LjAnLCAnLXRuJywgJzgnLCAnLW1hJywgJzIwMCcsICctbWV0YWxfYmluZGluZycsICctaW1hZScsICc8aW5maWxlLm1hZT4nLCAnLW9tYWUnLCAnPG91dGZpbGUubWFlPic=

> <r_lp_tautomer_probability>
1

> <r_epik_Ionization_Penalty>
0.010889

> <r_epik_Ionization_Penalty_Charging>
0.0108222

> <r_epik_Ionization_Penalty_Neutral>
6.6801e-05

> <r_epik_State_Penalty>
0.00829663

> <r_epik_Charging_Adjusted_Penalty>
0.0191189

> <i_epik_Tot_Q>
1

> <i_epik_Tot_abs_Q>
1

> <r_epik_Metal_State_Penalty>
0.00842341

> <b_epik_Metal_Only>
0

> <s_lp_Force_Field>
OPLS_2005

> <r_lp_Energy>
57.8888

> <b_lp_Chiralities_Consistent>
1

> <s_lp_Variant>
AV-unprocessed.smi:262-1

> <Gold.Version>
5.8.1

> <Gold.Id.Protein>
6NUR|6NUR_protein|mol2

> <Gold.PLP.Fitness>
50.3697

> <Gold.PLP.PLP>
-46.4619

> <Gold.PLP.part.hbond>
-2.7362

> <Gold.PLP.part.metal>
0.0000

> <Gold.PLP.part.buried>
-7.5796

> <Gold.PLP.part.nonpolar>
-37.2567

> <Gold.PLP.part.repulsive>
0.1222

> <Gold.PLP.ligand.clash>
0.0000

> <Gold.PLP.ligand.torsion>
1.3931

> <Gold.PLP.Chemscore.Hbond>
2.0000

> <Gold.PLP.Chemscore.CHOScore>
0.0000

> <Gold.PLP.Chemscore.Metal>
0.0000

> <Gold.Chemscore.Hbonds>
donor molecule, donor type, donor heavy atom, donor atom, acceptor molecule, acceptor atom, score
      L1  H    12    60       P1  8028  1.30

> <Gold.PLP.Chemscore.Internal.Correction>
0.6940

> <Gold.Rescore>
     Score         DG    S(hbond)    S(metal)    S(lipo)     H(rot)  DE(clash)    DE(int)     intcor
     13.07     -16.08       1.00        0.00     117.34       2.53       0.05       2.95       ----

> <Gold.Chemscore.Fitness>
13.0695

> <Gold.Chemscore.DG>
-16.0750

> <Gold.Chemscore.ZeroCoef>
-5.4800

> <Gold.Chemscore.Hbond>
0.9999

> <Gold.Chemscore.Metal>
0.0000

> <Gold.Chemscore.Lipo>
117.3424

> <Gold.Chemscore.Internal_Hbond>
0.0000

> <Gold.Chemscore.DEClash>
0.0524

> <Gold.Chemscore.DEInternal>
2.9531

> <Gold.Chemscore.Rot>
2.5288

> <Gold.Chemscore.Internal.Correction>
   9.000000E+99

> <Gold.Chemscore.Hbonds>
donor molecule, donor type, donor heavy atom, donor atom, acceptor molecule, acceptor atom, score
      L1  H    12    60       P1  8028  0.65

> <Gold.Chemscore.Hbond.Weighted>
-3.3398

> <Gold.Chemscore.Metal.Weighted>
-0.0000

> <Gold.Chemscore.Lipo.Weighted>
-13.7291

> <Gold.Chemscore.Internal_Hbond.Weighted>
0.0000

> <Gold.Chemscore.DEClash.Weighted>
0.0524

> <Gold.Chemscore.DEInternal.Weighted>
2.9531

> <Gold.Chemscore.Rot.Weighted>
6.4738

> <Gold.Chemscore.Internal.Correction.Weighted>
   9.000000E+99

> <Gold.Protein.RotatedTorsions>
[ 6907 6896 6895 6894 ] final -163.48 input  -60.11 | X-H torsion
[ 7974 7965 7964 7962 ] final -152.52 input  175.53 | X-H torsion
[ 8008 7997 7996 7995 ] final   19.62 input   59.86 | X-H torsion
[ 10167 10162 10161 10158 ] final   86.06 input  -65.29 | X-H torsion
[ 10718 10713 10712 10709 ] final  106.18 input   66.30 | X-H torsion
[ 10763 10752 10751 10750 ] final -110.02 input  -60.55 | X-H torsion
[ 11005 11000 10999 10996 ] final  -15.17 input  -57.11 | X-H torsion

> <Gold.Protein.ActiveResidues>
 VAL166  LYS551  ARG553  GLY616  TRP617  ASP618  TYR619  PRO620  LYS621  CYS622 
 ASP623  PHE694  ASN695  SER759  ASP760  ASP761  ALA762  ILE779  LEU786  VAL792 
 PHE793  MET794  SER795  GLU796  ALA797  LYS798  CYS799  TRP800  GLU811  SER814 

> <Gold.Protein.RotatedAtoms>
  151.3967  133.3771  159.2727 H   0  0  0  0  0  0  0  0  0  0  0  0  # atno 6907 bound_to 6896
  150.9464  134.8869  159.7655 H   0  0  0  0  0  0  0  0  0  0  0  0  # atno 6908 bound_to 6896
  152.5093  134.3920  159.9439 H   0  0  0  0  0  0  0  0  0  0  0  0  # atno 6909 bound_to 6896
  144.7790  140.4651  143.5853 H   0  0  0  0  0  0  0  0  0  0  0  0  # atno 7974 bound_to 7965
  154.9235  140.3030  155.5204 H   0  0  0  0  0  0  0  0  0  0  0  0  # atno 8008 bound_to 7997
  156.3008  140.2367  156.4223 H   0  0  0  0  0  0  0  0  0  0  0  0  # atno 8009 bound_to 7997
  154.8308  140.0418  157.1464 H   0  0  0  0  0  0  0  0  0  0  0  0  # atno 8010 bound_to 7997
  139.8913  144.6383  150.8735 H   0  0  0  0  0  0  0  0  0  0  0  0  # atno 10167 bound_to 10162
  157.6678  131.0845  150.5968 H   0  0  0  0  0  0  0  0  0  0  0  0  # atno 10718 bound_to 10713
  154.8225  135.4579  154.0821 H   0  0  0  0  0  0  0  0  0  0  0  0  # atno 10763 bound_to 10752
  153.2162  135.6888  153.8060 H   0  0  0  0  0  0  0  0  0  0  0  0  # atno 10764 bound_to 10752
  153.7494  135.3300  155.3295 H   0  0  0  0  0  0  0  0  0  0  0  0  # atno 10765 bound_to 10752
  140.7939  133.8266  155.9406 H   0  0  0  0  0  0  0  0  0  0  0  0  # atno 11005 bound_to 11000
  145.6105  139.1513  143.3078 LP  0  0  0  0  0  0  0  0  0  0  0  0  # atno 17320 bound_to 7965
  146.1986  140.6221  142.9112 LP  0  0  0  0  0  0  0  0  0  0  0  0  # atno 17321 bound_to 7965
  140.7726  143.3508  151.2019 LP  0  0  0  0  0  0  0  0  0  0  0  0  # atno 17342 bound_to 10162
  139.7107  143.9382  152.2946 LP  0  0  0  0  0  0  0  0  0  0  0  0  # atno 17343 bound_to 10162
  156.6268  130.4421  149.5801 LP  0  0  0  0  0  0  0  0  0  0  0  0  # atno 17370 bound_to 10713
  156.2312  130.6796  151.1466 LP  0  0  0  0  0  0  0  0  0  0  0  0  # atno 17371 bound_to 10713
  140.9362  134.1959  157.4830 LP  0  0  0  0  0  0  0  0  0  0  0  0  # atno 17394 bound_to 11000
  139.8728  134.9853  156.5276 LP  0  0  0  0  0  0  0  0  0  0  0  0  # atno 17395 bound_to 11000

$$$$
