AV-unprocessed.smi:2514|AV-procd|sdf|9896|dock2
  -GOLD-   2272013533D 1   1.00000     0.00000
 Structure written by MMmdl.
 24 25  0  0  0  0  0  0  0  0  1 V2000
  152.5369  143.5169  158.7490 C   0  0  0  0  0  0  0  0  0  0  0  0
  151.2775  143.4500  157.8759 C   0  0  1  0  0  0  0  0  0  0  0  0
  151.3807  144.3842  156.8202 O   0  0  0  0  0  0  0  0  0  0  0  0
  151.0773  142.0976  157.2515 C   0  0  0  0  0  0  0  0  0  0  0  0
  150.1347  141.7102  156.3416 C   0  0  0  0  0  0  0  0  0  0  0  0
  150.4186  140.3774  156.1317 N   0  0  0  0  0  0  0  0  0  0  0  0
  149.7272  139.4684  155.2634 C   0  0  0  0  0  0  0  0  0  0  0  0
  150.4351  138.7349  154.1192 C   0  0  0  0  0  0  0  0  0  0  0  0
  149.1979  138.8797  153.3710 N   0  0  0  0  0  0  0  0  0  0  0  0
  148.7807  140.0057  154.1897 C   0  0  0  0  0  0  0  0  0  0  0  0
  151.4723  139.9684  156.8776 N   0  0  0  0  0  0  0  0  0  0  0  0
  151.8802  140.9949  157.5551 N   0  0  0  0  0  0  0  0  0  0  0  0
  152.4824  142.7981  159.5671 H   0  0  0  0  0  0  0  0  0  0  0  0
  152.6587  144.5075  159.1873 H   0  0  0  0  0  0  0  0  0  0  0  0
  153.4348  143.2960  158.1708 H   0  0  0  0  0  0  0  0  0  0  0  0
  150.4085  143.7177  158.4780 H   0  0  0  0  0  0  0  0  0  0  0  0
  150.6009  144.3233  156.2900 H   0  0  0  0  0  0  0  0  0  0  0  0
  149.3294  142.2373  155.8513 H   0  0  0  0  0  0  0  0  0  0  0  0
  149.2131  138.7586  155.9156 H   0  0  0  0  0  0  0  0  0  0  0  0
  151.2545  139.2860  153.6554 H   0  0  0  0  0  0  0  0  0  0  0  0
  150.6995  137.7014  154.3439 H   0  0  0  0  0  0  0  0  0  0  0  0
  149.3587  139.1426  152.4088 H   0  0  0  0  0  0  0  0  0  0  0  0
  147.7272  139.9856  154.4699 H   0  0  0  0  0  0  0  0  0  0  0  0
  149.0832  140.9614  153.7588 H   0  0  0  0  0  0  0  0  0  0  0  0
  1  2  1  0  0  0  0
  1 13  1  0  0  0  0
  1 14  1  0  0  0  0
  1 15  1  0  0  0  0
  2  3  1  0  0  0  0
  2  4  1  0  0  0  0
  2 16  1  0  0  0  0
  3 17  1  0  0  0  0
  4 12  1  0  0  0  0
  4  5  2  0  0  0  0
  5  6  1  0  0  0  0
  5 18  1  0  0  0  0
  6  7  1  0  0  0  0
  6 11  1  0  0  0  0
  7 10  1  0  0  0  0
  7  8  1  0  0  0  0
  7 19  1  0  0  0  0
  8  9  1  0  0  0  0
  8 20  1  0  0  0  0
  8 21  1  0  0  0  0
  9 10  1  0  0  0  0
  9 22  1  0  0  0  0
 10 23  1  0  0  0  0
 10 24  1  0  0  0  0
 11 12  2  0  0  0  0
M  END
> <s_m_source_file>
AV-unprocessed.smi

> <i_m_source_file_index>
2514

> <i_lp_mmshare_version>
43012

> <i_f3d_flags>
0

> <s_epik_input>
W0NIM11bQ0BIXShbT0hdKWMxW2NIXW4obm4xKVtDSF0yW0NIMl1bTkhdW0NIMl0y

> <s_epik_cmdline>
J2VwaWtfcHl0aG9uJywgJy1waCcsICc3LjAnLCAnLXRuJywgJzgnLCAnLW1hJywgJzIwMCcsICctbWV0YWxfYmluZGluZycsICctaW1hZScsICc8aW5maWxlLm1hZT4nLCAnLW9tYWUnLCAnPG91dGZpbGUubWFlPic=

> <r_lp_tautomer_probability>
1

> <r_epik_Ionization_Penalty>
0.704859

> <r_epik_Ionization_Penalty_Charging>
0

> <r_epik_Ionization_Penalty_Neutral>
0.704859

> <r_epik_State_Penalty>
0.727806

> <r_epik_Charging_Adjusted_Penalty>
0.727806

> <i_epik_Tot_Q>
0

> <i_epik_Tot_abs_Q>
0

> <r_epik_Metal_State_Penalty>
0.727738

> <b_epik_Metal_Only>
0

> <s_lp_Force_Field>
OPLS_2005

> <r_lp_Energy>
11.7069

> <b_lp_Chiralities_Consistent>
1

> <s_lp_Variant>
AV-unprocessed.smi:2514-4

> <Gold.Version>
5.8.1

> <Gold.Id.Protein>
6NUR|6NUR_protein|mol2

> <Gold.PLP.Fitness>
32.1346

> <Gold.PLP.PLP>
-23.4869

> <Gold.PLP.part.hbond>
-2.9506

> <Gold.PLP.part.metal>
0.0000

> <Gold.PLP.part.buried>
-2.0864

> <Gold.PLP.part.nonpolar>
-18.7711

> <Gold.PLP.part.repulsive>
0.0000

> <Gold.PLP.ligand.clash>
0.0000

> <Gold.PLP.ligand.torsion>
0.2729

> <Gold.PLP.Chemscore.Hbond>
2.0000

> <Gold.PLP.Chemscore.CHOScore>
0.9959

> <Gold.PLP.Chemscore.Metal>
0.0000

> <Gold.Chemscore.Hbonds>
donor molecule, donor type, donor heavy atom, donor atom, acceptor molecule, acceptor atom, score
      L1  H     3    17       P1  8028  1.00
      L1  H     9    22       P1  7957  1.00
      L1  C     5    18       P1  8028  1.00

> <Gold.PLP.Chemscore.Internal.Correction>
0.2060

> <Gold.Rescore>
     Score         DG    S(hbond)    S(metal)    S(lipo)     H(rot)  DE(clash)    DE(int)     intcor
     14.06     -14.30       1.97        0.00      58.12       1.78       0.01       0.23       ----

> <Gold.Chemscore.Fitness>
14.0553

> <Gold.Chemscore.DG>
-14.3002

> <Gold.Chemscore.ZeroCoef>
-5.4800

> <Gold.Chemscore.Hbond>
1.9710

> <Gold.Chemscore.Metal>
0.0000

> <Gold.Chemscore.Lipo>
58.1179

> <Gold.Chemscore.Internal_Hbond>
0.0000

> <Gold.Chemscore.DEClash>
0.0126

> <Gold.Chemscore.DEInternal>
0.2323

> <Gold.Chemscore.Rot>
1.7823

> <Gold.Chemscore.Internal.Correction>
   9.000000E+99

> <Gold.Chemscore.Hbonds>
donor molecule, donor type, donor heavy atom, donor atom, acceptor molecule, acceptor atom, score
      L1  H     3    17       P1  8028  0.99
      L1  H     9    22       P1  7957  0.92

> <Gold.Chemscore.Hbond.Weighted>
-6.5831

> <Gold.Chemscore.Metal.Weighted>
-0.0000

> <Gold.Chemscore.Lipo.Weighted>
-6.7998

> <Gold.Chemscore.Internal_Hbond.Weighted>
0.0000

> <Gold.Chemscore.DEClash.Weighted>
0.0126

> <Gold.Chemscore.DEInternal.Weighted>
0.2323

> <Gold.Chemscore.Rot.Weighted>
4.5627

> <Gold.Chemscore.Internal.Correction.Weighted>
   9.000000E+99

> <Gold.Protein.RotatedTorsions>
[ 6907 6896 6895 6894 ] final -119.02 input  -60.11 | X-H torsion
[ 7974 7965 7964 7962 ] final   82.51 input  175.53 | X-H torsion
[ 8008 7997 7996 7995 ] final   36.89 input   59.86 | X-H torsion
[ 10167 10162 10161 10158 ] final   76.85 input  -65.29 | X-H torsion
[ 10718 10713 10712 10709 ] final  129.83 input   66.30 | X-H torsion
[ 10763 10752 10751 10750 ] final -104.62 input  -60.55 | X-H torsion
[ 11005 11000 10999 10996 ] final  -67.19 input  -57.11 | X-H torsion

> <Gold.Protein.ActiveResidues>
 VAL166  LYS551  ARG553  GLY616  TRP617  ASP618  TYR619  PRO620  LYS621  CYS622 
 ASP623  PHE694  ASN695  SER759  ASP760  ASP761  ALA762  ILE779  LEU786  VAL792 
 PHE793  MET794  SER795  GLU796  ALA797  LYS798  CYS799  TRP800  GLU811  SER814 

> <Gold.Protein.RotatedAtoms>
  150.8269  133.8156  159.3114 H   0  0  0  0  0  0  0  0  0  0  0  0  # atno 6907 bound_to 6896
  151.5898  135.1052  160.0046 H   0  0  0  0  0  0  0  0  0  0  0  0  # atno 6908 bound_to 6896
  152.4353  133.7309  159.6643 H   0  0  0  0  0  0  0  0  0  0  0  0  # atno 6909 bound_to 6896
  145.6242  139.2392  143.2121 H   0  0  0  0  0  0  0  0  0  0  0  0  # atno 7974 bound_to 7965
  155.1948  140.3311  155.4352 H   0  0  0  0  0  0  0  0  0  0  0  0  # atno 8008 bound_to 7997
  156.2429  140.1904  156.6989 H   0  0  0  0  0  0  0  0  0  0  0  0  # atno 8009 bound_to 7997
  154.6181  140.0599  156.9566 H   0  0  0  0  0  0  0  0  0  0  0  0  # atno 8010 bound_to 7997
  139.9879  144.5779  150.7844 H   0  0  0  0  0  0  0  0  0  0  0  0  # atno 10167 bound_to 10162
  157.5118  131.1097  150.9282 H   0  0  0  0  0  0  0  0  0  0  0  0  # atno 10718 bound_to 10713
  154.7890  135.4779  154.0011 H   0  0  0  0  0  0  0  0  0  0  0  0  # atno 10763 bound_to 10752
  153.1603  135.6807  153.8759 H   0  0  0  0  0  0  0  0  0  0  0  0  # atno 10764 bound_to 10752
  153.8375  135.3183  155.3401 H   0  0  0  0  0  0  0  0  0  0  0  0  # atno 10765 bound_to 10752
  141.1502  133.6714  156.6255 H   0  0  0  0  0  0  0  0  0  0  0  0  # atno 11005 bound_to 11000
  146.1408  140.7061  142.9368 LP  0  0  0  0  0  0  0  0  0  0  0  0  # atno 17320 bound_to 7965
  144.7219  140.4401  143.7002 LP  0  0  0  0  0  0  0  0  0  0  0  0  # atno 17321 bound_to 7965
  140.7465  143.2892  151.3376 LP  0  0  0  0  0  0  0  0  0  0  0  0  # atno 17342 bound_to 10162
  139.6362  144.0627  152.2517 LP  0  0  0  0  0  0  0  0  0  0  0  0  # atno 17343 bound_to 10162
  156.9920  130.5567  149.5304 LP  0  0  0  0  0  0  0  0  0  0  0  0  # atno 17370 bound_to 10713
  156.0294  130.5386  150.8494 LP  0  0  0  0  0  0  0  0  0  0  0  0  # atno 17371 bound_to 10713
  140.3507  134.7771  157.4465 LP  0  0  0  0  0  0  0  0  0  0  0  0  # atno 17394 bound_to 11000
  140.0863  134.5662  155.8489 LP  0  0  0  0  0  0  0  0  0  0  0  0  # atno 17395 bound_to 11000

$$$$
