AV-unprocessed.smi:101|AV-procd|sdf|940|dock1
  -GOLD-   2262017463D 1   1.00000     0.00000
 Structure written by MMmdl.
 43 45  0  0  0  0  0  0  0  0  2 V2000
  149.8574  132.9125  154.4497 C   0  0  0  0  0  0  0  0  0  0  0  0
  149.7193  133.9760  155.5253 C   0  0  0  0  0  0  0  0  0  0  0  0
  149.6220  135.2913  155.2307 C   0  0  0  0  0  0  0  0  0  0  0  0
  149.4948  136.2592  156.2138 N   0  0  0  0  0  0  0  0  0  0  0  0
  149.3864  137.7358  155.8777 C   0  0  1  0  0  0  0  0  0  0  0  0
  150.3601  138.4648  156.5629 O   0  0  0  0  0  0  0  0  0  0  0  0
  151.4798  138.7419  155.7261 C   0  0  2  0  0  0  0  0  0  0  0  0
  151.9001  140.2059  155.9207 C   0  0  0  0  0  0  0  0  0  0  0  0
  151.6814  140.6251  157.2598 O   0  0  0  0  0  0  0  0  0  0  0  0
  152.6291  140.4025  158.1930 C   0  0  0  0  0  0  0  0  0  0  0  0
  153.4306  139.4673  158.1395 O   0  0  0  0  0  0  0  0  0  0  0  0
  152.6103  141.4028  159.2995 C   0  0  0  0  0  0  0  0  0  0  0  0
  151.8048  142.5590  159.1752 C   0  0  0  0  0  0  0  0  0  0  0  0
  151.7664  143.5215  160.2030 C   0  0  0  0  0  0  0  0  0  0  0  0
  152.5339  143.3399  161.3681 C   0  0  0  0  0  0  0  0  0  0  0  0
  153.3405  142.1950  161.5034 C   0  0  0  0  0  0  0  0  0  0  0  0
  153.3799  141.2323  160.4760 C   0  0  0  0  0  0  0  0  0  0  0  0
  151.0813  138.3741  154.2874 C   0  0  1  0  0  0  0  0  0  0  0  0
  151.8510  137.2655  153.8618 O   0  0  0  0  0  0  0  0  0  0  0  0
  149.6132  137.9711  154.3750 C   0  0  2  0  0  0  0  0  0  0  0  0
  148.7675  138.9920  153.8903 O   0  0  0  0  0  0  0  0  0  0  0  0
  149.4935  135.8687  157.5795 C   0  0  0  0  0  0  0  0  0  0  0  0
  149.4029  136.7520  158.4327 O   0  0  0  0  0  0  0  0  0  0  0  0
  149.5879  134.5440  157.8861 N   0  5  0  0  0  0  0  0  0  0  0  0
  149.6938  133.5719  156.9357 C   0  0  0  0  0  0  0  0  0  0  0  0
  149.7692  132.3785  157.2261 O   0  0  0  0  0  0  0  0  0  0  0  0
  149.8799  133.3552  153.4536 H   0  0  0  0  0  0  0  0  0  0  0  0
  149.0185  132.2173  154.4921 H   0  0  0  0  0  0  0  0  0  0  0  0
  150.7799  132.3484  154.5891 H   0  0  0  0  0  0  0  0  0  0  0  0
  149.6516  135.5785  154.1923 H   0  0  0  0  0  0  0  0  0  0  0  0
  148.3969  138.0280  156.2341 H   0  0  0  0  0  0  0  0  0  0  0  0
  152.3093  138.1170  156.0593 H   0  0  0  0  0  0  0  0  0  0  0  0
  152.9547  140.3214  155.6665 H   0  0  0  0  0  0  0  0  0  0  0  0
  151.3319  140.8458  155.2441 H   0  0  0  0  0  0  0  0  0  0  0  0
  151.2064  142.7207  158.2901 H   0  0  0  0  0  0  0  0  0  0  0  0
  151.1471  144.3998  160.0964 H   0  0  0  0  0  0  0  0  0  0  0  0
  152.5043  144.0775  162.1564 H   0  0  0  0  0  0  0  0  0  0  0  0
  153.9312  142.0537  162.3965 H   0  0  0  0  0  0  0  0  0  0  0  0
  154.0111  140.3677  160.6103 H   0  0  0  0  0  0  0  0  0  0  0  0
  151.2448  139.1916  153.5835 H   0  0  0  0  0  0  0  0  0  0  0  0
  151.5002  136.9578  153.0399 H   0  0  0  0  0  0  0  0  0  0  0  0
  149.3940  137.0737  153.7944 H   0  0  0  0  0  0  0  0  0  0  0  0
  149.0772  139.2491  153.0349 H   0  0  0  0  0  0  0  0  0  0  0  0
  1  2  1  0  0  0  0
  1 27  1  0  0  0  0
  1 28  1  0  0  0  0
  1 29  1  0  0  0  0
  2 25  1  0  0  0  0
  2  3  2  0  0  0  0
  3  4  1  0  0  0  0
  3 30  1  0  0  0  0
  4  5  1  0  0  0  0
  4 22  1  0  0  0  0
  5 20  1  0  0  0  0
  5  6  1  0  0  0  0
  5 31  1  0  0  0  0
  6  7  1  0  0  0  0
  7  8  1  0  0  0  0
  7 18  1  0  0  0  0
  7 32  1  0  0  0  0
  8  9  1  0  0  0  0
  8 33  1  0  0  0  0
  8 34  1  0  0  0  0
  9 10  1  0  0  0  0
 10 11  2  0  0  0  0
 10 12  1  0  0  0  0
 12 17  1  0  0  0  0
 12 13  2  0  0  0  0
 13 14  1  0  0  0  0
 13 35  1  0  0  0  0
 14 15  2  0  0  0  0
 14 36  1  0  0  0  0
 15 16  1  0  0  0  0
 15 37  1  0  0  0  0
 16 17  2  0  0  0  0
 16 38  1  0  0  0  0
 17 39  1  0  0  0  0
 18 19  1  0  0  0  0
 18 20  1  0  0  0  0
 18 40  1  0  0  0  0
 19 41  1  0  0  0  0
 20 21  1  0  0  0  0
 20 42  1  0  0  0  0
 21 43  1  0  0  0  0
 22 23  2  0  0  0  0
 22 24  1  0  0  0  0
 24 25  1  0  0  0  0
 25 26  2  0  0  0  0
M  CHG  1  24  -1
M  END
> <s_m_source_file>
AV-unprocessed.smi

> <i_m_source_file_index>
101

> <i_lp_mmshare_version>
43012

> <i_f3d_flags>
0

> <s_epik_input>
Tz1jMVtuSF1jKD1PKW4oW2NIXWMxW0NIM10pW0NAQEhdMk9bQ0BIXShbQ0BASF0oW09IXSlbQ0BIXTJbT0hdKVtDSDJdT0MoPU8pYzNbY0hdW2NIXVtjSF1bY0hdW2NIXTM=

> <s_epik_cmdline>
J2VwaWtfcHl0aG9uJywgJy1waCcsICc3LjAnLCAnLXRuJywgJzgnLCAnLW1hJywgJzIwMCcsICctbWV0YWxfYmluZGluZycsICctaW1hZScsICc8aW5maWxlLm1hZT4nLCAnLW9tYWUnLCAnPG91dGZpbGUubWFlPic=

> <r_lp_tautomer_probability>
0.999537

> <r_epik_Ionization_Penalty>
3.21006

> <r_epik_Ionization_Penalty_Charging>
5.75142e-08

> <r_epik_Ionization_Penalty_Neutral>
3.21006

> <r_epik_State_Penalty>
3.20925

> <r_epik_Charging_Adjusted_Penalty>
3.20925

> <i_epik_Tot_Q>
-1

> <i_epik_Tot_abs_Q>
1

> <r_epik_Metal_State_Penalty>
0.119957

> <b_epik_Metal_Only>
1

> <s_epik_Chemistry_Notes>
This compound has an ester and may undergo hydrolysis at high or low pH. This compound contains an acetal/aminal-like group ( X-CH(R)-Y where X, Y are N, S, or O) that may be acid/base labile, releasing an aldehyde.

> <s_lp_Force_Field>
OPLS_2005

> <r_lp_Energy>
38.3221

> <b_lp_Chiralities_Consistent>
1

> <s_lp_Variant>
AV-unprocessed.smi:101-28

> <Gold.Version>
5.8.1

> <Gold.Id.Protein>
6NUR|6NUR_protein|mol2

> <Gold.PLP.Fitness>
62.1168

> <Gold.PLP.PLP>
-43.2457

> <Gold.PLP.part.hbond>
-5.0000

> <Gold.PLP.part.metal>
0.0000

> <Gold.PLP.part.buried>
-5.3907

> <Gold.PLP.part.nonpolar>
-33.1673

> <Gold.PLP.part.repulsive>
0.0000

> <Gold.PLP.ligand.clash>
0.0000

> <Gold.PLP.ligand.torsion>
0.9627

> <Gold.PLP.Chemscore.Hbond>
5.8800

> <Gold.PLP.Chemscore.CHOScore>
1.0000

> <Gold.PLP.Chemscore.Metal>
0.0000

> <Gold.Chemscore.Hbonds>
donor molecule, donor type, donor heavy atom, donor atom, acceptor molecule, acceptor atom, score
      L1  H    19    41       P1  7949  1.00
      L1  H    21    43       P1  7957  0.83
      P1  H  6896  6907       L1    24  1.98
      P1  H  7997  8008       L1    11  1.00
      P1  H 10752 10763       L1    19  0.88
      L1  C     3    30       P1  7948  1.00

> <Gold.PLP.Chemscore.Internal.Correction>
0.1565

> <Gold.Rescore>
     Score         DG    S(hbond)    S(metal)    S(lipo)     H(rot)  DE(clash)    DE(int)     intcor
     16.73     -20.61       3.38        0.00     104.20       3.27       1.46       2.43       ----

> <Gold.Chemscore.Fitness>
16.7256

> <Gold.Chemscore.DG>
-20.6145

> <Gold.Chemscore.ZeroCoef>
-5.4800

> <Gold.Chemscore.Hbond>
3.3841

> <Gold.Chemscore.Metal>
0.0000

> <Gold.Chemscore.Lipo>
104.2002

> <Gold.Chemscore.Internal_Hbond>
0.0000

> <Gold.Chemscore.DEClash>
1.4598

> <Gold.Chemscore.DEInternal>
2.4290

> <Gold.Chemscore.Rot>
3.2656

> <Gold.Chemscore.Internal.Correction>
   9.000000E+99

> <Gold.Chemscore.Hbonds>
donor molecule, donor type, donor heavy atom, donor atom, acceptor molecule, acceptor atom, score
      L1  H    19    41       P1  7949  0.91
      L1  H    21    43       P1  7957  0.82
      P1  H  6896  6907       L1    24  0.54
      P1  H  7997  8008       L1    11  0.25
      P1  H 10752 10763       L1    19  0.21

> <Gold.Chemscore.Hbond.Weighted>
-11.3029

> <Gold.Chemscore.Metal.Weighted>
-0.0000

> <Gold.Chemscore.Lipo.Weighted>
-12.1914

> <Gold.Chemscore.Internal_Hbond.Weighted>
0.0000

> <Gold.Chemscore.DEClash.Weighted>
1.4598

> <Gold.Chemscore.DEInternal.Weighted>
2.4290

> <Gold.Chemscore.Rot.Weighted>
8.3598

> <Gold.Chemscore.Internal.Correction.Weighted>
   9.000000E+99

> <Gold.Protein.RotatedTorsions>
[ 6907 6896 6895 6894 ] final  -79.78 input  -60.11 | X-H torsion
[ 7974 7965 7964 7962 ] final -173.82 input  175.53 | X-H torsion
[ 8008 7997 7996 7995 ] final  -74.19 input   59.86 | X-H torsion
[ 10167 10162 10161 10158 ] final  167.74 input  -65.29 | X-H torsion
[ 10718 10713 10712 10709 ] final   89.87 input   66.30 | X-H torsion
[ 10763 10752 10751 10750 ] final   49.86 input  -60.55 | X-H torsion
[ 11005 11000 10999 10996 ] final    3.02 input  -57.11 | X-H torsion

> <Gold.Protein.ActiveResidues>
 VAL166  LYS551  ARG553  GLY616  TRP617  ASP618  TYR619  PRO620  LYS621  CYS622 
 ASP623  PHE694  ASN695  SER759  ASP760  ASP761  ALA762  ILE779  LEU786  VAL792 
 PHE793  MET794  SER795  GLU796  ALA797  LYS798  CYS799  TRP800  GLU811  SER814 

> <Gold.Protein.RotatedAtoms>
  150.6942  134.4069  159.5143 H   0  0  0  0  0  0  0  0  0  0  0  0  # atno 6907 bound_to 6896
  152.1834  134.8732  160.0533 H   0  0  0  0  0  0  0  0  0  0  0  0  # atno 6908 bound_to 6896
  151.9714  133.3692  159.4109 H   0  0  0  0  0  0  0  0  0  0  0  0  # atno 6909 bound_to 6896
  144.7135  140.1564  143.6380 H   0  0  0  0  0  0  0  0  0  0  0  0  # atno 7974 bound_to 7965
  154.5310  140.0766  156.8344 H   0  0  0  0  0  0  0  0  0  0  0  0  # atno 8008 bound_to 7997
  155.3375  140.3405  155.4221 H   0  0  0  0  0  0  0  0  0  0  0  0  # atno 8009 bound_to 7997
  156.1781  140.1642  156.8312 H   0  0  0  0  0  0  0  0  0  0  0  0  # atno 8010 bound_to 7997
  139.4952  144.3889  151.9539 H   0  0  0  0  0  0  0  0  0  0  0  0  # atno 10167 bound_to 10162
  157.6957  131.0349  150.3491 H   0  0  0  0  0  0  0  0  0  0  0  0  # atno 10718 bound_to 10713
  152.9785  135.5898  154.4157 H   0  0  0  0  0  0  0  0  0  0  0  0  # atno 10763 bound_to 10752
  154.3787  135.2767  155.2226 H   0  0  0  0  0  0  0  0  0  0  0  0  # atno 10764 bound_to 10752
  154.4149  135.6073  153.6029 H   0  0  0  0  0  0  0  0  0  0  0  0  # atno 10765 bound_to 10752
  140.5978  133.9864  155.8118 H   0  0  0  0  0  0  0  0  0  0  0  0  # atno 11005 bound_to 11000
  145.9070  139.2464  143.1460 LP  0  0  0  0  0  0  0  0  0  0  0  0  # atno 17320 bound_to 7965
  145.9754  140.8726  143.0141 LP  0  0  0  0  0  0  0  0  0  0  0  0  # atno 17321 bound_to 7965
  140.3326  144.3298  150.5984 LP  0  0  0  0  0  0  0  0  0  0  0  0  # atno 17342 bound_to 10162
  140.5632  143.2189  151.7729 LP  0  0  0  0  0  0  0  0  0  0  0  0  # atno 17343 bound_to 10162
  156.3942  130.3903  149.7007 LP  0  0  0  0  0  0  0  0  0  0  0  0  # atno 17370 bound_to 10713
  156.4347  130.7832  151.2852 LP  0  0  0  0  0  0  0  0  0  0  0  0  # atno 17371 bound_to 10713
  141.0892  133.9943  157.3264 LP  0  0  0  0  0  0  0  0  0  0  0  0  # atno 17394 bound_to 11000
  139.9245  135.0201  156.8186 LP  0  0  0  0  0  0  0  0  0  0  0  0  # atno 17395 bound_to 11000

$$$$
