AV-unprocessed.smi:35|AV-procd|sdf|258|dock8
  -GOLD-   2262016 23D 1   1.00000     0.00000
 Structure written by MMmdl.
 29 30  0  0  0  0  0  0  0  0  1 V2000
  153.0135  142.4223  160.2010 O   0  0  0  0  0  0  0  0  0  0  0  0
  152.3345  141.9857  159.2742 C   0  0  0  0  0  0  0  0  0  0  0  0
  152.2304  140.6087  159.0628 N   0  0  0  0  0  0  0  0  0  0  0  0
  151.4965  139.9980  158.0443 C   0  0  0  0  0  0  0  0  0  0  0  0
  151.4535  138.7707  157.9719 O   0  0  0  0  0  0  0  0  0  0  0  0
  150.8230  140.8409  157.1297 N   0  0  0  0  0  0  0  0  0  0  0  0
  149.9992  140.1924  156.0283 C   0  0  1  0  0  0  0  0  0  0  0  0
  148.8782  139.5653  156.5736 O   0  0  0  0  0  0  0  0  0  0  0  0
  147.7747  140.4601  156.5506 C   0  0  2  0  0  0  0  0  0  0  0  0
  146.4685  139.6633  156.6908 C   0  0  0  0  0  0  0  0  0  0  0  0
  146.3013  139.2198  158.0207 O   0  0  0  0  0  0  0  0  0  0  0  0
  147.9472  141.1834  155.2124 C   0  0  1  0  0  0  0  0  0  0  0  0
  147.4061  142.4872  155.2915 O   0  0  0  0  0  0  0  0  0  0  0  0
  149.4637  141.2407  155.0232 C   0  0  2  0  0  0  0  0  0  0  0  0
  149.8027  140.9053  153.6921 O   0  0  0  0  0  0  0  0  0  0  0  0
  150.8657  142.2176  157.3286 C   0  0  0  0  0  0  0  0  0  0  0  0
  151.5763  142.7942  158.3266 C   0  0  0  0  0  0  0  0  0  0  0  0
  151.5092  144.7715  158.4334 Br  0  0  0  0  0  0  0  0  0  0  0  0
  152.7223  140.0042  159.7046 H   0  0  0  0  0  0  0  0  0  0  0  0
  150.6647  139.4438  155.5935 H   0  0  0  0  0  0  0  0  0  0  0  0
  147.8801  141.1624  157.3796 H   0  0  0  0  0  0  0  0  0  0  0  0
  145.6078  140.2628  156.3932 H   0  0  0  0  0  0  0  0  0  0  0  0
  146.4930  138.7895  156.0393 H   0  0  0  0  0  0  0  0  0  0  0  0
  145.5710  139.6829  158.4024 H   0  0  0  0  0  0  0  0  0  0  0  0
  147.4686  140.6199  154.4097 H   0  0  0  0  0  0  0  0  0  0  0  0
  148.0758  143.0688  155.6186 H   0  0  0  0  0  0  0  0  0  0  0  0
  149.8564  142.2309  155.2603 H   0  0  0  0  0  0  0  0  0  0  0  0
  149.0769  140.4407  153.3049 H   0  0  0  0  0  0  0  0  0  0  0  0
  150.3130  142.8807  156.6810 H   0  0  0  0  0  0  0  0  0  0  0  0
  1  2  2  0  0  0  0
  2 17  1  0  0  0  0
  2  3  1  0  0  0  0
  3 19  1  0  0  0  0
  3  4  1  0  0  0  0
  4  5  2  0  0  0  0
  4  6  1  0  0  0  0
  6  7  1  0  0  0  0
  6 16  1  0  0  0  0
  7 14  1  0  0  0  0
  7  8  1  0  0  0  0
  7 20  1  0  0  0  0
  8  9  1  0  0  0  0
  9 10  1  0  0  0  0
  9 12  1  0  0  0  0
  9 21  1  0  0  0  0
 10 11  1  0  0  0  0
 10 22  1  0  0  0  0
 10 23  1  0  0  0  0
 11 24  1  0  0  0  0
 12 13  1  0  0  0  0
 12 14  1  0  0  0  0
 12 25  1  0  0  0  0
 13 26  1  0  0  0  0
 14 15  1  0  0  0  0
 14 27  1  0  0  0  0
 15 28  1  0  0  0  0
 16 17  2  0  0  0  0
 16 29  1  0  0  0  0
 17 18  1  0  0  0  0
M  END
> <s_m_source_file>
AV-unprocessed.smi

> <i_m_source_file_index>
35

> <i_lp_mmshare_version>
43012

> <i_f3d_flags>
0

> <s_epik_input>
Tz1jMVtuSF1jKD1PKW4oW2NIXWMxQnIpW0NAQEhdMk9bQ0BASF0oW0NIMl1bT0hdKVtDQEBIXShbT0hdKVtDQEhdMltPSF0=

> <s_epik_cmdline>
J2VwaWtfcHl0aG9uJywgJy1waCcsICc3LjAnLCAnLXRuJywgJzgnLCAnLW1hJywgJzIwMCcsICctbWV0YWxfYmluZGluZycsICctaW1hZScsICc8aW5maWxlLm1hZT4nLCAnLW9tYWUnLCAnPG91dGZpbGUubWFlPic=

> <r_lp_tautomer_probability>
0.999537

> <r_epik_Ionization_Penalty>
0.10812

> <r_epik_Ionization_Penalty_Charging>
0.108119

> <r_epik_Ionization_Penalty_Neutral>
4.93006e-07

> <r_epik_State_Penalty>
0.0979238

> <r_epik_Charging_Adjusted_Penalty>
0.206043

> <i_epik_Tot_Q>
0

> <i_epik_Tot_abs_Q>
0

> <r_epik_Metal_State_Penalty>
3.07911

> <b_epik_Metal_Only>
0

> <s_epik_Chemistry_Notes>
This compound contains an acetal/aminal-like group ( X-CH(R)-Y where X, Y are N, S, or O) that may be acid/base labile, releasing an aldehyde.

> <s_lp_Force_Field>
OPLS_2005

> <r_lp_Energy>
26.4636

> <b_lp_Chiralities_Consistent>
1

> <s_lp_Variant>
AV-unprocessed.smi:35-12

> <Gold.Version>
5.8.1

> <Gold.Id.Protein>
6NUR|6NUR_protein|mol2

> <Gold.PLP.Fitness>
37.7103

> <Gold.PLP.PLP>
-27.9769

> <Gold.PLP.part.hbond>
-4.5140

> <Gold.PLP.part.metal>
0.0000

> <Gold.PLP.part.buried>
-4.1525

> <Gold.PLP.part.nonpolar>
-18.5509

> <Gold.PLP.part.repulsive>
0.1180

> <Gold.PLP.ligand.clash>
0.0000

> <Gold.PLP.ligand.torsion>
0.2654

> <Gold.PLP.Chemscore.Hbond>
2.4105

> <Gold.PLP.Chemscore.CHOScore>
1.0000

> <Gold.PLP.Chemscore.Metal>
0.0000

> <Gold.Chemscore.Hbonds>
donor molecule, donor type, donor heavy atom, donor atom, acceptor molecule, acceptor atom, score
      L1  H    13    26       P1  8028  0.99
      L1  H    15    28       P1  7957  0.07
      P1  H  7989  7998       L1    15  0.38
      P1  H  8011  8017       L1    15  0.74
      L1  C    16    29       P1  8028  0.98

> <Gold.PLP.Chemscore.Internal.Correction>
0.0326

> <Gold.Rescore>
     Score         DG    S(hbond)    S(metal)    S(lipo)     H(rot)  DE(clash)    DE(int)     intcor
      7.50      -7.92       1.87        0.00      47.76       3.67       0.07       0.35       ----

> <Gold.Chemscore.Fitness>
7.5001

> <Gold.Chemscore.DG>
-7.9158

> <Gold.Chemscore.ZeroCoef>
-5.4800

> <Gold.Chemscore.Hbond>
1.8693

> <Gold.Chemscore.Metal>
0.0000

> <Gold.Chemscore.Lipo>
47.7602

> <Gold.Chemscore.Internal_Hbond>
0.0000

> <Gold.Chemscore.DEClash>
0.0688

> <Gold.Chemscore.DEInternal>
0.3470

> <Gold.Chemscore.Rot>
3.6701

> <Gold.Chemscore.Internal.Correction>
   9.000000E+99

> <Gold.Chemscore.Hbonds>
donor molecule, donor type, donor heavy atom, donor atom, acceptor molecule, acceptor atom, score
      L1  H    13    26       P1  8028  0.77
      L1  H    15    28       P1  7957  0.07
      P1  H  7989  7998       L1    15  0.30
      P1  H  8011  8017       L1    15  0.08

> <Gold.Chemscore.Hbond.Weighted>
-6.2434

> <Gold.Chemscore.Metal.Weighted>
-0.0000

> <Gold.Chemscore.Lipo.Weighted>
-5.5879

> <Gold.Chemscore.Internal_Hbond.Weighted>
0.0000

> <Gold.Chemscore.DEClash.Weighted>
0.0688

> <Gold.Chemscore.DEInternal.Weighted>
0.3470

> <Gold.Chemscore.Rot.Weighted>
9.3955

> <Gold.Chemscore.Internal.Correction.Weighted>
   9.000000E+99

> <Gold.Protein.RotatedTorsions>
[ 6907 6896 6895 6894 ] final   54.49 input  -60.11 | X-H torsion
[ 7974 7965 7964 7962 ] final   40.46 input  175.53 | X-H torsion
[ 8008 7997 7996 7995 ] final -141.91 input   59.86 | X-H torsion
[ 10167 10162 10161 10158 ] final -122.54 input  -65.29 | X-H torsion
[ 10718 10713 10712 10709 ] final    7.88 input   66.30 | X-H torsion
[ 10763 10752 10751 10750 ] final   39.83 input  -60.55 | X-H torsion
[ 11005 11000 10999 10996 ] final  -52.37 input  -57.11 | X-H torsion

> <Gold.Protein.ActiveResidues>
 VAL166  LYS551  ARG553  GLY616  TRP617  ASP618  TYR619  PRO620  LYS621  CYS622 
 ASP623  PHE694  ASN695  SER759  ASP760  ASP761  ALA762  ILE779  LEU786  VAL792 
 PHE793  MET794  SER795  GLU796  ALA797  LYS798  CYS799  TRP800  GLU811  SER814 

> <Gold.Protein.RotatedAtoms>
  152.3444  134.7091  160.0254 H   0  0  0  0  0  0  0  0  0  0  0  0  # atno 6907 bound_to 6896
  151.7465  133.3319  159.3388 H   0  0  0  0  0  0  0  0  0  0  0  0  # atno 6908 bound_to 6896
  150.7500  134.6163  159.6157 H   0  0  0  0  0  0  0  0  0  0  0  0  # atno 6909 bound_to 6896
  146.0903  139.5531  142.9480 H   0  0  0  0  0  0  0  0  0  0  0  0  # atno 7974 bound_to 7965
  155.4856  140.0564  157.2961 H   0  0  0  0  0  0  0  0  0  0  0  0  # atno 8008 bound_to 7997
  154.4643  140.2011  156.0112 H   0  0  0  0  0  0  0  0  0  0  0  0  # atno 8009 bound_to 7997
  156.0946  140.3228  155.7866 H   0  0  0  0  0  0  0  0  0  0  0  0  # atno 8010 bound_to 7997
  140.0131  143.5421  152.2254 H   0  0  0  0  0  0  0  0  0  0  0  0  # atno 10167 bound_to 10162
  156.9435  130.5870  149.5653 H   0  0  0  0  0  0  0  0  0  0  0  0  # atno 10718 bound_to 10713
  152.9955  135.6209  154.2528 H   0  0  0  0  0  0  0  0  0  0  0  0  # atno 10763 bound_to 10752
  154.2266  135.2794  155.2907 H   0  0  0  0  0  0  0  0  0  0  0  0  # atno 10764 bound_to 10752
  154.5484  135.5740  153.6959 H   0  0  0  0  0  0  0  0  0  0  0  0  # atno 10765 bound_to 10752
  141.0921  133.6631  156.4014 H   0  0  0  0  0  0  0  0  0  0  0  0  # atno 11005 bound_to 11000
  145.6051  141.0349  143.1997 LP  0  0  0  0  0  0  0  0  0  0  0  0  # atno 17320 bound_to 7965
  144.7355  139.7597  143.7331 LP  0  0  0  0  0  0  0  0  0  0  0  0  # atno 17321 bound_to 7965
  139.6191  144.7625  151.2780 LP  0  0  0  0  0  0  0  0  0  0  0  0  # atno 17342 bound_to 10162
  140.7373  143.6682  150.8105 LP  0  0  0  0  0  0  0  0  0  0  0  0  # atno 17343 bound_to 10162
  156.0394  130.5478  150.8734 LP  0  0  0  0  0  0  0  0  0  0  0  0  # atno 17370 bound_to 10713
  157.5769  131.0946  150.9331 LP  0  0  0  0  0  0  0  0  0  0  0  0  # atno 17371 bound_to 10713
  140.5228  134.6287  157.5324 LP  0  0  0  0  0  0  0  0  0  0  0  0  # atno 17394 bound_to 11000
  139.9749  134.7232  155.9970 LP  0  0  0  0  0  0  0  0  0  0  0  0  # atno 17395 bound_to 11000

$$$$
