AV-unprocessed.smi:3303|AV-procd|sdf|12688|dock1
  -GOLD-   2272019 23D 1   1.00000     0.00000
 Structure written by MMmdl.
 44 45  0  0  0  0  0  0  0  0  2 V2000
  151.8428  138.1518  154.8455 C   0  0  0  0  0  0  0  0  0  0  0  0
  150.8491  139.2678  154.4823 C   0  0  1  0  0  0  0  0  0  0  0  0
  149.4352  138.7146  154.2246 C   0  0  0  0  0  0  0  0  0  0  0  0
  148.5031  139.7712  153.7532 N   0  3  1  0  0  0  0  0  0  0  0  0
  147.1972  139.1849  153.3652 C   0  0  0  0  0  0  0  0  0  0  0  0
  148.3970  140.9025  154.7228 C   0  0  2  0  0  0  0  0  0  0  0  0
  147.4630  142.0234  154.2263 C   0  0  0  0  0  0  0  0  0  0  0  0
  149.7922  141.4945  155.0299 C   0  0  0  0  0  0  0  0  0  0  0  0
  150.8155  140.4417  155.4891 C   0  0  1  0  0  0  0  0  0  0  0  0
  150.4705  140.0064  156.8384 N   0  0  0  0  0  0  0  0  0  0  0  0
  150.4665  141.1001  157.8004 C   0  0  0  0  0  0  0  0  0  0  0  0
  151.8545  141.7594  157.8719 C   0  0  0  0  0  0  0  0  0  0  0  0
  151.8959  142.9542  158.8118 C   0  0  0  0  0  0  0  0  0  0  0  0
  152.1924  142.7770  160.1801 C   0  0  0  0  0  0  0  0  0  0  0  0
  152.1907  143.9074  161.0202 C   0  0  0  0  0  0  0  0  0  0  0  0
  151.8914  145.1656  160.4634 C   0  0  0  0  0  0  0  0  0  0  0  0
  151.6090  145.2381  159.0850 C   0  0  0  0  0  0  0  0  0  0  0  0
  151.6081  144.1608  158.2710 N   0  0  0  0  0  0  0  0  0  0  0  0
  151.5417  137.6225  155.7499 H   0  0  0  0  0  0  0  0  0  0  0  0
  152.8445  138.5516  155.0039 H   0  0  0  0  0  0  0  0  0  0  0  0
  151.9089  137.4145  154.0450 H   0  0  0  0  0  0  0  0  0  0  0  0
  151.2003  139.6833  153.5363 H   0  0  0  0  0  0  0  0  0  0  0  0
  149.4942  137.9290  153.4700 H   0  0  0  0  0  0  0  0  0  0  0  0
  149.0368  138.2498  155.1283 H   0  0  0  0  0  0  0  0  0  0  0  0
  146.6450  138.8452  154.2422 H   0  0  0  0  0  0  0  0  0  0  0  0
  147.3379  138.3298  152.7031 H   0  0  0  0  0  0  0  0  0  0  0  0
  146.5809  139.9002  152.8217 H   0  0  0  0  0  0  0  0  0  0  0  0
  147.9785  140.5083  155.6505 H   0  0  0  0  0  0  0  0  0  0  0  0
  147.4861  142.8770  154.9045 H   0  0  0  0  0  0  0  0  0  0  0  0
  146.4241  141.6984  154.1747 H   0  0  0  0  0  0  0  0  0  0  0  0
  147.7573  142.3800  153.2385 H   0  0  0  0  0  0  0  0  0  0  0  0
  150.1756  141.9783  154.1302 H   0  0  0  0  0  0  0  0  0  0  0  0
  149.7110  142.2842  155.7785 H   0  0  0  0  0  0  0  0  0  0  0  0
  151.7942  140.9242  155.5143 H   0  0  0  0  0  0  0  0  0  0  0  0
  149.5604  139.5681  156.8426 H   0  0  0  0  0  0  0  0  0  0  0  0
  149.7227  141.8514  157.5373 H   0  0  0  0  0  0  0  0  0  0  0  0
  150.1875  140.7039  158.7773 H   0  0  0  0  0  0  0  0  0  0  0  0
  152.5849  141.0244  158.2118 H   0  0  0  0  0  0  0  0  0  0  0  0
  152.1791  142.0665  156.8764 H   0  0  0  0  0  0  0  0  0  0  0  0
  152.4102  141.7973  160.5798 H   0  0  0  0  0  0  0  0  0  0  0  0
  152.4122  143.8108  162.0728 H   0  0  0  0  0  0  0  0  0  0  0  0
  151.8800  146.0539  161.0775 H   0  0  0  0  0  0  0  0  0  0  0  0
  151.3757  146.1864  158.6240 H   0  0  0  0  0  0  0  0  0  0  0  0
  148.9075  140.1506  152.9091 H   0  0  0  0  0  0  0  0  0  0  0  0
  1  2  1  0  0  0  0
  1 19  1  0  0  0  0
  1 20  1  0  0  0  0
  1 21  1  0  0  0  0
  2  9  1  0  0  0  0
  2  3  1  0  0  0  0
  2 22  1  0  0  0  0
  3  4  1  0  0  0  0
  3 23  1  0  0  0  0
  3 24  1  0  0  0  0
  4  5  1  0  0  0  0
  4  6  1  0  0  0  0
  4 44  1  0  0  0  0
  5 25  1  0  0  0  0
  5 26  1  0  0  0  0
  5 27  1  0  0  0  0
  6  7  1  0  0  0  0
  6  8  1  0  0  0  0
  6 28  1  0  0  0  0
  7 29  1  0  0  0  0
  7 30  1  0  0  0  0
  7 31  1  0  0  0  0
  8  9  1  0  0  0  0
  8 32  1  0  0  0  0
  8 33  1  0  0  0  0
  9 10  1  0  0  0  0
  9 34  1  0  0  0  0
 10 11  1  0  0  0  0
 10 35  1  0  0  0  0
 11 12  1  0  0  0  0
 11 36  1  0  0  0  0
 11 37  1  0  0  0  0
 12 13  1  0  0  0  0
 12 38  1  0  0  0  0
 12 39  1  0  0  0  0
 13 18  1  0  0  0  0
 13 14  2  0  0  0  0
 14 15  1  0  0  0  0
 14 40  1  0  0  0  0
 15 16  2  0  0  0  0
 15 41  1  0  0  0  0
 16 17  1  0  0  0  0
 16 42  1  0  0  0  0
 17 18  2  0  0  0  0
 17 43  1  0  0  0  0
M  CHG  1   4   1
M  END
> <s_m_source_file>
AV-unprocessed.smi

> <i_m_source_file_index>
3303

> <i_lp_mmshare_version>
43012

> <i_f3d_flags>
0

> <s_epik_input>
W0NIM11bQ0BASF0xW0NIMl1OKFtDSDNdKVtDQEBIXShbQ0gzXSlbQ0gyXVtDQEhdMVtOSF1bQ0gyXVtDSDJdYzJbY0hdW2NIXVtjSF1bY0hdbjI=

> <s_epik_cmdline>
J2VwaWtfcHl0aG9uJywgJy1waCcsICc3LjAnLCAnLXRuJywgJzgnLCAnLW1hJywgJzIwMCcsICctbWV0YWxfYmluZGluZycsICctaW1hZScsICc8aW5maWxlLm1hZT4nLCAnLW9tYWUnLCAnPG91dGZpbGUubWFlPic=

> <r_epik_Ionization_Penalty>
2.31085

> <r_epik_Ionization_Penalty_Charging>
0.000313057

> <r_epik_Ionization_Penalty_Neutral>
2.31054

> <r_epik_State_Penalty>
2.4087

> <r_epik_Charging_Adjusted_Penalty>
2.40902

> <i_epik_Tot_Q>
1

> <i_epik_Tot_abs_Q>
1

> <r_epik_Metal_State_Penalty>
2.30979

> <b_epik_Metal_Only>
0

> <s_lp_Force_Field>
OPLS_2005

> <r_lp_Energy>
27.7125

> <b_lp_Chiralities_Consistent>
1

> <s_lp_Variant>
AV-unprocessed.smi:3303-32

> <Gold.Version>
5.8.1

> <Gold.Id.Protein>
6NUR|6NUR_protein|mol2

> <Gold.PLP.Fitness>
46.7244

> <Gold.PLP.PLP>
-44.4635

> <Gold.PLP.part.hbond>
-1.0000

> <Gold.PLP.part.metal>
0.0000

> <Gold.PLP.part.buried>
-3.7899

> <Gold.PLP.part.nonpolar>
-38.6939

> <Gold.PLP.part.repulsive>
0.1943

> <Gold.PLP.ligand.clash>
0.0000

> <Gold.PLP.ligand.torsion>
0.3769

> <Gold.PLP.Chemscore.Hbond>
1.0000

> <Gold.PLP.Chemscore.CHOScore>
0.0000

> <Gold.PLP.Chemscore.Metal>
0.0000

> <Gold.Chemscore.Hbonds>
donor molecule, donor type, donor heavy atom, donor atom, acceptor molecule, acceptor atom, score
      L1  H     4    44       P1  7957  1.00

> <Gold.PLP.Chemscore.Internal.Correction>
0.0146

> <Gold.Rescore>
     Score         DG    S(hbond)    S(metal)    S(lipo)     H(rot)  DE(clash)    DE(int)     intcor
     19.91     -20.41       0.99        0.00     128.48       1.33       0.13       0.37       ----

> <Gold.Chemscore.Fitness>
19.9116

> <Gold.Chemscore.DG>
-20.4100

> <Gold.Chemscore.ZeroCoef>
-5.4800

> <Gold.Chemscore.Hbond>
0.9868

> <Gold.Chemscore.Metal>
0.0000

> <Gold.Chemscore.Lipo>
128.4758

> <Gold.Chemscore.Internal_Hbond>
0.0000

> <Gold.Chemscore.DEClash>
0.1268

> <Gold.Chemscore.DEInternal>
0.3716

> <Gold.Chemscore.Rot>
1.3272

> <Gold.Chemscore.Internal.Correction>
   9.000000E+99

> <Gold.Chemscore.Hbonds>
donor molecule, donor type, donor heavy atom, donor atom, acceptor molecule, acceptor atom, score
      L1  H     4    44       P1  7957  0.97

> <Gold.Chemscore.Hbond.Weighted>
-3.2960

> <Gold.Chemscore.Metal.Weighted>
-0.0000

> <Gold.Chemscore.Lipo.Weighted>
-15.0317

> <Gold.Chemscore.Internal_Hbond.Weighted>
0.0000

> <Gold.Chemscore.DEClash.Weighted>
0.1268

> <Gold.Chemscore.DEInternal.Weighted>
0.3716

> <Gold.Chemscore.Rot.Weighted>
3.3976

> <Gold.Chemscore.Internal.Correction.Weighted>
   9.000000E+99

> <Gold.Protein.RotatedTorsions>
[ 6907 6896 6895 6894 ] final  -93.32 input  -60.11 | X-H torsion
[ 7974 7965 7964 7962 ] final -150.24 input  175.53 | X-H torsion
[ 8008 7997 7996 7995 ] final   13.03 input   59.86 | X-H torsion
[ 10167 10162 10161 10158 ] final  136.01 input  -65.29 | X-H torsion
[ 10718 10713 10712 10709 ] final   22.90 input   66.30 | X-H torsion
[ 10763 10752 10751 10750 ] final   -5.65 input  -60.55 | X-H torsion
[ 11005 11000 10999 10996 ] final  -59.95 input  -57.11 | X-H torsion

> <Gold.Protein.ActiveResidues>
 VAL166  LYS551  ARG553  GLY616  TRP617  ASP618  TYR619  PRO620  LYS621  CYS622 
 ASP623  PHE694  ASN695  SER759  ASP760  ASP761  ALA762  ILE779  LEU786  VAL792 
 PHE793  MET794  SER795  GLU796  ALA797  LYS798  CYS799  TRP800  GLU811  SER814 

> <Gold.Protein.RotatedAtoms>
  150.6920  134.1986  159.4312 H   0  0  0  0  0  0  0  0  0  0  0  0  # atno 6907 bound_to 6896
  151.9953  134.9955  160.0572 H   0  0  0  0  0  0  0  0  0  0  0  0  # atno 6908 bound_to 6896
  152.1629  133.4558  159.4907 H   0  0  0  0  0  0  0  0  0  0  0  0  # atno 6909 bound_to 6896
  144.7919  140.4957  143.5767 H   0  0  0  0  0  0  0  0  0  0  0  0  # atno 7974 bound_to 7965
  154.8288  140.2896  155.5736 H   0  0  0  0  0  0  0  0  0  0  0  0  # atno 8008 bound_to 7997
  156.3004  140.2536  156.3140 H   0  0  0  0  0  0  0  0  0  0  0  0  # atno 8009 bound_to 7997
  154.9254  140.0385  157.2009 H   0  0  0  0  0  0  0  0  0  0  0  0  # atno 8010 bound_to 7997
  139.5196  144.6487  151.5365 H   0  0  0  0  0  0  0  0  0  0  0  0  # atno 10167 bound_to 10162
  157.1587  130.6707  149.6036 H   0  0  0  0  0  0  0  0  0  0  0  0  # atno 10718 bound_to 10713
  153.4015  135.7005  153.6423 H   0  0  0  0  0  0  0  0  0  0  0  0  # atno 10763 bound_to 10752
  153.4954  135.3663  155.2513 H   0  0  0  0  0  0  0  0  0  0  0  0  # atno 10764 bound_to 10752
  154.8711  135.4099  154.3351 H   0  0  0  0  0  0  0  0  0  0  0  0  # atno 10765 bound_to 10752
  141.1268  133.6619  156.5150 H   0  0  0  0  0  0  0  0  0  0  0  0  # atno 11005 bound_to 11000
  145.5772  139.1487  143.3255 LP  0  0  0  0  0  0  0  0  0  0  0  0  # atno 17320 bound_to 7965
  146.2174  140.5904  142.9032 LP  0  0  0  0  0  0  0  0  0  0  0  0  # atno 17321 bound_to 7965
  140.6283  143.9126  150.6583 LP  0  0  0  0  0  0  0  0  0  0  0  0  # atno 17342 bound_to 10162
  140.2421  143.3655  152.1477 LP  0  0  0  0  0  0  0  0  0  0  0  0  # atno 17343 bound_to 10162
  155.9757  130.4719  150.6481 LP  0  0  0  0  0  0  0  0  0  0  0  0  # atno 17370 bound_to 10713
  157.4153  131.0829  151.1183 LP  0  0  0  0  0  0  0  0  0  0  0  0  # atno 17371 bound_to 10713
  140.4338  134.7077  157.4956 LP  0  0  0  0  0  0  0  0  0  0  0  0  # atno 17394 bound_to 11000
  140.0275  134.6455  155.9152 LP  0  0  0  0  0  0  0  0  0  0  0  0  # atno 17395 bound_to 11000

$$$$
