AV-unprocessed.smi:249|AV-procd|sdf|1928|dock1
  -GOLD-   2262021 43D 1   1.00000     0.00000
 Structure written by MMmdl.
 64 67  0  0  0  0  0  0  0  0  2 V2000
  146.3345  130.1600  152.8881 C   0  0  0  0  0  0  0  0  0  0  0  0
  145.5512  131.1121  151.9710 C   0  0  0  0  0  0  0  0  0  0  0  0
  146.4179  132.1122  151.2801 N   0  3  2  0  0  0  0  0  0  0  0  0
  147.1506  133.0254  152.2022 C   0  0  0  0  0  0  0  0  0  0  0  0
  146.2138  134.0636  152.8481 C   0  0  0  0  0  0  0  0  0  0  0  0
  145.4636  134.8700  151.7696 C   0  0  2  0  0  0  0  0  0  0  0  0
  144.5585  135.8708  152.3457 N   0  0  0  0  0  0  0  0  0  0  0  0
  143.1353  135.5679  152.4945 C   0  0  0  0  0  0  0  0  0  0  0  0
  145.1102  136.6578  153.3047 C   0  0  0  0  0  0  0  0  0  0  0  0
  144.9110  136.3603  154.6163 N   0  0  0  0  0  0  0  0  0  0  0  0
  145.4694  137.1112  155.5696 C   0  0  0  0  0  0  0  0  0  0  0  0
  146.2433  138.1892  155.4343 N   0  0  0  0  0  0  0  0  0  0  0  0
  146.4333  138.5060  154.1215 C   0  0  0  0  0  0  0  0  0  0  0  0
  145.9159  137.7920  153.0036 C   0  0  0  0  0  0  0  0  0  0  0  0
  146.3310  138.3949  151.8227 N   0  0  0  0  0  0  0  0  0  0  0  0
  147.0580  139.4029  152.2197 C   0  0  0  0  0  0  0  0  0  0  0  0
  147.1456  139.5671  153.5846 N   0  0  0  0  0  0  0  0  0  0  0  0
  147.8973  140.6023  154.2811 C   0  0  0  0  0  0  0  0  0  0  0  0
  149.0135  140.0829  155.2338 C   0  0  1  0  0  0  0  0  0  0  0  0
  149.6340  138.8036  154.6217 C   0  0  0  0  0  0  0  0  0  0  0  0
  150.5122  139.1203  153.5609 O   0  0  0  0  0  0  0  0  0  0  0  0
  150.1373  141.1194  155.5500 C   0  0  1  0  0  0  0  0  0  0  0  0
  149.8710  142.1097  156.6756 C   0  0  0  0  0  0  0  0  0  0  0  0
  150.1667  141.2982  157.9325 C   0  0  0  0  0  0  0  0  0  0  0  0
  151.1624  140.3594  157.5420 O   0  0  0  0  0  0  0  0  0  0  0  0
  151.3942  140.4594  156.1402 C   0  0  0  0  0  0  0  0  0  0  0  0
  144.7514  133.9215  150.7848 C   0  0  0  0  0  0  0  0  0  0  0  0
  145.7446  132.8958  150.1987 C   0  0  2  0  0  0  0  0  0  0  0  0
  145.1095  132.0183  149.1051 C   0  0  0  0  0  0  0  0  0  0  0  0
  145.6888  129.3562  153.2421 H   0  0  0  0  0  0  0  0  0  0  0  0
  146.7216  130.6651  153.7726 H   0  0  0  0  0  0  0  0  0  0  0  0
  147.1720  129.7013  152.3617 H   0  0  0  0  0  0  0  0  0  0  0  0
  145.0549  130.4865  151.2317 H   0  0  0  0  0  0  0  0  0  0  0  0
  144.7588  131.6040  152.5347 H   0  0  0  0  0  0  0  0  0  0  0  0
  147.6922  132.4708  152.9665 H   0  0  0  0  0  0  0  0  0  0  0  0
  147.9188  133.5459  151.6286 H   0  0  0  0  0  0  0  0  0  0  0  0
  145.5109  133.5641  153.5145 H   0  0  0  0  0  0  0  0  0  0  0  0
  146.7988  134.7376  153.4750 H   0  0  0  0  0  0  0  0  0  0  0  0
  146.2255  135.3905  151.1896 H   0  0  0  0  0  0  0  0  0  0  0  0
  142.5796  136.4613  152.7824 H   0  0  0  0  0  0  0  0  0  0  0  0
  142.9727  134.8056  153.2570 H   0  0  0  0  0  0  0  0  0  0  0  0
  142.7057  135.2121  151.5594 H   0  0  0  0  0  0  0  0  0  0  0  0
  145.2674  136.8060  156.5857 H   0  0  0  0  0  0  0  0  0  0  0  0
  147.5385  140.0722  151.5206 H   0  0  0  0  0  0  0  0  0  0  0  0
  148.3239  141.2340  153.5018 H   0  0  0  0  0  0  0  0  0  0  0  0
  147.2039  141.2395  154.8311 H   0  0  0  0  0  0  0  0  0  0  0  0
  148.5647  139.7907  156.1822 H   0  0  0  0  0  0  0  0  0  0  0  0
  150.1745  138.2369  155.3807 H   0  0  0  0  0  0  0  0  0  0  0  0
  148.8767  138.1349  154.2170 H   0  0  0  0  0  0  0  0  0  0  0  0
  150.0160  139.1467  152.7571 H   0  0  0  0  0  0  0  0  0  0  0  0
  150.3788  141.6613  154.6346 H   0  0  0  0  0  0  0  0  0  0  0  0
  150.5919  142.9258  156.6060 H   0  0  0  0  0  0  0  0  0  0  0  0
  148.8918  142.5761  156.6712 H   0  0  0  0  0  0  0  0  0  0  0  0
  150.5094  141.9230  158.7574 H   0  0  0  0  0  0  0  0  0  0  0  0
  149.2804  140.7552  158.2622 H   0  0  0  0  0  0  0  0  0  0  0  0
  151.6383  139.4848  155.7214 H   0  0  0  0  0  0  0  0  0  0  0  0
  152.2612  141.1032  155.9838 H   0  0  0  0  0  0  0  0  0  0  0  0
  143.9295  133.3958  151.2700 H   0  0  0  0  0  0  0  0  0  0  0  0
  144.3071  134.5062  149.9782 H   0  0  0  0  0  0  0  0  0  0  0  0
  146.5359  133.4586  149.7001 H   0  0  0  0  0  0  0  0  0  0  0  0
  144.8208  132.6261  148.2469 H   0  0  0  0  0  0  0  0  0  0  0  0
  144.2075  131.5139  149.4518 H   0  0  0  0  0  0  0  0  0  0  0  0
  145.8089  131.2619  148.7477 H   0  0  0  0  0  0  0  0  0  0  0  0
  147.1280  131.5652  150.8143 H   0  0  0  0  0  0  0  0  0  0  0  0
  1  2  1  0  0  0  0
  1 30  1  0  0  0  0
  1 31  1  0  0  0  0
  1 32  1  0  0  0  0
  2  3  1  0  0  0  0
  2 33  1  0  0  0  0
  2 34  1  0  0  0  0
  3 28  1  0  0  0  0
  3  4  1  0  0  0  0
  3 64  1  0  0  0  0
  4  5  1  0  0  0  0
  4 35  1  0  0  0  0
  4 36  1  0  0  0  0
  5  6  1  0  0  0  0
  5 37  1  0  0  0  0
  5 38  1  0  0  0  0
  6  7  1  0  0  0  0
  6 27  1  0  0  0  0
  6 39  1  0  0  0  0
  7  8  1  0  0  0  0
  7  9  1  0  0  0  0
  8 40  1  0  0  0  0
  8 41  1  0  0  0  0
  8 42  1  0  0  0  0
  9 14  1  0  0  0  0
  9 10  2  0  0  0  0
 10 11  1  0  0  0  0
 11 12  2  0  0  0  0
 11 43  1  0  0  0  0
 12 13  1  0  0  0  0
 13 17  1  0  0  0  0
 13 14  2  0  0  0  0
 14 15  1  0  0  0  0
 15 16  2  0  0  0  0
 16 17  1  0  0  0  0
 16 44  1  0  0  0  0
 17 18  1  0  0  0  0
 18 19  1  0  0  0  0
 18 45  1  0  0  0  0
 18 46  1  0  0  0  0
 19 20  1  0  0  0  0
 19 22  1  0  0  0  0
 19 47  1  0  0  0  0
 20 21  1  0  0  0  0
 20 48  1  0  0  0  0
 20 49  1  0  0  0  0
 21 50  1  0  0  0  0
 22 26  1  0  0  0  0
 22 23  1  0  0  0  0
 22 51  1  0  0  0  0
 23 24  1  0  0  0  0
 23 52  1  0  0  0  0
 23 53  1  0  0  0  0
 24 25  1  0  0  0  0
 24 54  1  0  0  0  0
 24 55  1  0  0  0  0
 25 26  1  0  0  0  0
 26 56  1  0  0  0  0
 26 57  1  0  0  0  0
 27 28  1  0  0  0  0
 27 58  1  0  0  0  0
 27 59  1  0  0  0  0
 28 29  1  0  0  0  0
 28 60  1  0  0  0  0
 29 61  1  0  0  0  0
 29 62  1  0  0  0  0
 29 63  1  0  0  0  0
M  CHG  1   3   1
M  END
> <s_m_source_file>
AV-unprocessed.smi

> <i_m_source_file_index>
249

> <i_lp_mmshare_version>
43012

> <i_f3d_flags>
0

> <s_epik_input>
W0NIM11bQ0gyXU4xW0NIMl1bQ0gyXVtDQEhdKFtDSDJdW0NASF0xW0NIM10pTihbQ0gzXSljKG5bY0hdbjIpYyhjMjMpbltjSF1uM1tDSDJdW0NASF0oW0NIMl1bT0hdKVtDQEBIXTRbQ0gyXVtDSDJdT1tDSDJdNA==

> <s_epik_cmdline>
J2VwaWtfcHl0aG9uJywgJy1waCcsICc3LjAnLCAnLXRuJywgJzgnLCAnLW1hJywgJzIwMCcsICctbWV0YWxfYmluZGluZycsICctaW1hZScsICc8aW5maWxlLm1hZT4nLCAnLW9tYWUnLCAnPG91dGZpbGUubWFlPic=

> <r_lp_tautomer_probability>
1

> <r_epik_Ionization_Penalty>
0.00294688

> <r_epik_Ionization_Penalty_Charging>
0.00169971

> <r_epik_Ionization_Penalty_Neutral>
0.00124717

> <r_epik_State_Penalty>
-0

> <r_epik_Charging_Adjusted_Penalty>
0.00169971

> <i_epik_Tot_Q>
1

> <i_epik_Tot_abs_Q>
1

> <r_epik_Metal_State_Penalty>
-0

> <b_epik_Metal_Only>
0

> <s_lp_Force_Field>
OPLS_2005

> <r_lp_Energy>
58.8032

> <b_lp_Chiralities_Consistent>
1

> <s_lp_Variant>
AV-unprocessed.smi:249-31

> <Gold.Version>
5.8.1

> <Gold.Id.Protein>
6NUR|6NUR_protein|mol2

> <Gold.PLP.Fitness>
48.8197

> <Gold.PLP.PLP>
-41.1521

> <Gold.PLP.part.hbond>
-3.0000

> <Gold.PLP.part.metal>
0.0000

> <Gold.PLP.part.buried>
-0.7355

> <Gold.PLP.part.nonpolar>
-37.7456

> <Gold.PLP.part.repulsive>
0.3855

> <Gold.PLP.ligand.clash>
0.0000

> <Gold.PLP.ligand.torsion>
2.4058

> <Gold.PLP.Chemscore.Hbond>
2.8640

> <Gold.PLP.Chemscore.CHOScore>
0.8694

> <Gold.PLP.Chemscore.Metal>
0.0000

> <Gold.Chemscore.Hbonds>
donor molecule, donor type, donor heavy atom, donor atom, acceptor molecule, acceptor atom, score
      L1  H     3    64       P1 10747  0.94
      L1  H    21    50       P1  7957  0.98
      P1  H  7989  7998       L1    21  0.82
      L1  C    16    44       P1  7957  0.88

> <Gold.PLP.Chemscore.Internal.Correction>
1.2789

> <Gold.Rescore>
     Score         DG    S(hbond)    S(metal)    S(lipo)     H(rot)  DE(clash)    DE(int)     intcor
     14.82     -19.55       2.54        0.00     105.67       2.65       2.58       2.15       ----

> <Gold.Chemscore.Fitness>
14.8194

> <Gold.Chemscore.DG>
-19.5470

> <Gold.Chemscore.ZeroCoef>
-5.4800

> <Gold.Chemscore.Hbond>
2.5424

> <Gold.Chemscore.Metal>
0.0000

> <Gold.Chemscore.Lipo>
105.6694

> <Gold.Chemscore.Internal_Hbond>
0.0000

> <Gold.Chemscore.DEClash>
2.5781

> <Gold.Chemscore.DEInternal>
2.1494

> <Gold.Chemscore.Rot>
2.6515

> <Gold.Chemscore.Internal.Correction>
   9.000000E+99

> <Gold.Chemscore.Hbonds>
donor molecule, donor type, donor heavy atom, donor atom, acceptor molecule, acceptor atom, score
      L1  H     3    64       P1 10747  0.90
      L1  H    21    50       P1  7957  0.80
      P1  H  7989  7998       L1    21  0.26

> <Gold.Chemscore.Hbond.Weighted>
-8.4916

> <Gold.Chemscore.Metal.Weighted>
-0.0000

> <Gold.Chemscore.Lipo.Weighted>
-12.3633

> <Gold.Chemscore.Internal_Hbond.Weighted>
0.0000

> <Gold.Chemscore.DEClash.Weighted>
2.5781

> <Gold.Chemscore.DEInternal.Weighted>
2.1494

> <Gold.Chemscore.Rot.Weighted>
6.7880

> <Gold.Chemscore.Internal.Correction.Weighted>
   9.000000E+99

> <Gold.Protein.RotatedTorsions>
[ 6907 6896 6895 6894 ] final  -85.95 input  -60.11 | X-H torsion
[ 7974 7965 7964 7962 ] final   60.91 input  175.53 | X-H torsion
[ 8008 7997 7996 7995 ] final  122.21 input   59.86 | X-H torsion
[ 10167 10162 10161 10158 ] final  105.69 input  -65.29 | X-H torsion
[ 10718 10713 10712 10709 ] final  134.13 input   66.30 | X-H torsion
[ 10763 10752 10751 10750 ] final   21.81 input  -60.55 | X-H torsion
[ 11005 11000 10999 10996 ] final  122.53 input  -57.11 | X-H torsion

> <Gold.Protein.ActiveResidues>
 VAL166  LYS551  ARG553  GLY616  TRP617  ASP618  TYR619  PRO620  LYS621  CYS622 
 ASP623  PHE694  ASN695  SER759  ASP760  ASP761  ALA762  ILE779  LEU786  VAL792 
 PHE793  MET794  SER795  GLU796  ALA797  LYS798  CYS799  TRP800  GLU811  SER814 

> <Gold.Protein.RotatedAtoms>
  150.6868  134.3126  159.4752 H   0  0  0  0  0  0  0  0  0  0  0  0  # atno 6907 bound_to 6896
  152.1010  134.9339  160.0579 H   0  0  0  0  0  0  0  0  0  0  0  0  # atno 6908 bound_to 6896
  152.0618  133.4031  159.4458 H   0  0  0  0  0  0  0  0  0  0  0  0  # atno 6909 bound_to 6896
  145.8908  139.3509  143.0651 H   0  0  0  0  0  0  0  0  0  0  0  0  # atno 7974 bound_to 7965
  156.2718  140.2791  156.1431 H   0  0  0  0  0  0  0  0  0  0  0  0  # atno 8008 bound_to 7997
  155.0932  140.0389  157.2692 H   0  0  0  0  0  0  0  0  0  0  0  0  # atno 8009 bound_to 7997
  154.6873  140.2621  155.6854 H   0  0  0  0  0  0  0  0  0  0  0  0  # atno 8010 bound_to 7997
  139.7071  144.7084  151.1088 H   0  0  0  0  0  0  0  0  0  0  0  0  # atno 10167 bound_to 10162
  157.4703  131.1079  150.9811 H   0  0  0  0  0  0  0  0  0  0  0  0  # atno 10718 bound_to 10713
  153.0966  135.6661  153.9752 H   0  0  0  0  0  0  0  0  0  0  0  0  # atno 10763 bound_to 10752
  153.9335  135.3001  155.3446 H   0  0  0  0  0  0  0  0  0  0  0  0  # atno 10764 bound_to 10752
  154.7384  135.5091  153.9156 H   0  0  0  0  0  0  0  0  0  0  0  0  # atno 10765 bound_to 10752
  139.9272  134.9641  156.8123 H   0  0  0  0  0  0  0  0  0  0  0  0  # atno 11005 bound_to 11000
  145.8911  140.9303  143.0551 LP  0  0  0  0  0  0  0  0  0  0  0  0  # atno 17320 bound_to 7965
  144.6730  140.0907  143.7465 LP  0  0  0  0  0  0  0  0  0  0  0  0  # atno 17321 bound_to 7965
  140.7724  143.5343  150.9387 LP  0  0  0  0  0  0  0  0  0  0  0  0  # atno 17342 bound_to 10162
  139.9027  143.6817  152.3128 LP  0  0  0  0  0  0  0  0  0  0  0  0  # atno 17343 bound_to 10162
  157.0578  130.5813  149.5381 LP  0  0  0  0  0  0  0  0  0  0  0  0  # atno 17370 bound_to 10713
  156.0070  130.5158  150.7863 LP  0  0  0  0  0  0  0  0  0  0  0  0  # atno 17371 bound_to 10713
  140.6302  133.9913  155.7658 LP  0  0  0  0  0  0  0  0  0  0  0  0  # atno 17394 bound_to 11000
  141.0838  134.0022  157.3345 LP  0  0  0  0  0  0  0  0  0  0  0  0  # atno 17395 bound_to 11000

$$$$
