AV-unprocessed.smi:103|AV-procd|sdf|984|dock3
  -GOLD-   2262017553D 1   1.00000     0.00000
 Structure written by MMmdl.
 53 55  0  0  0  0  0  0  0  0  1 V2000
  155.5952  137.5818  160.2491 C   0  0  0  0  0  0  0  0  0  0  0  0
  154.4557  138.2841  159.5230 C   0  0  0  0  0  0  0  0  0  0  0  0
  154.6335  138.8611  158.4500 O   0  0  0  0  0  0  0  0  0  0  0  0
  153.2922  138.1850  160.1827 O   0  0  0  0  0  0  0  0  0  0  0  0
  152.1160  138.7501  159.6251 C   0  0  0  0  0  0  0  0  0  0  0  0
  151.6218  137.8814  158.4518 C   0  0  1  0  0  0  0  0  0  0  0  0
  150.8758  136.7963  158.9832 O   0  0  0  0  0  0  0  0  0  0  0  0
  149.5547  137.1978  159.1710 C   0  0  2  0  0  0  0  0  0  0  0  0
  148.6648  136.0143  158.9330 N   0  0  0  0  0  0  0  0  0  0  0  0
  147.6411  135.5126  159.7116 C   0  0  0  0  0  0  0  0  0  0  0  0
  147.1196  136.1242  161.3095 S   0  0  0  0  0  0  0  0  0  0  0  0
  147.5843  134.7305  162.4139 C   0  0  0  0  0  0  0  0  0  0  0  0
  147.9561  137.2915  161.6272 O   0  0  0  0  0  0  0  0  0  0  0  0
  145.6540  136.2452  161.2643 O   0  0  0  0  0  0  0  0  0  0  0  0
  147.0633  134.4218  159.2866 N   0  0  0  0  0  0  0  0  0  0  0  0
  147.6852  134.1912  158.0677 C   0  0  0  0  0  0  0  0  0  0  0  0
  147.5382  133.2081  157.0570 C   0  0  0  0  0  0  0  0  0  0  0  0
  146.6541  132.2039  157.1361 N   0  0  0  0  0  0  0  0  0  0  0  0
  148.3257  133.2863  155.9592 N   0  0  0  0  0  0  0  0  0  0  0  0
  149.2157  134.2784  155.8561 C   0  0  0  0  0  0  0  0  0  0  0  0
  149.4717  135.2647  156.7197 N   0  0  0  0  0  0  0  0  0  0  0  0
  148.6781  135.1843  157.8285 C   0  0  0  0  0  0  0  0  0  0  0  0
  149.2782  138.3674  158.2001 C   0  0  2  0  0  0  0  0  0  0  0  0
  148.2772  138.0609  157.2331 O   0  0  0  0  0  0  0  0  0  0  0  0
  146.9822  137.9951  157.5823 C   0  0  0  0  0  0  0  0  0  0  0  0
  146.0871  137.6356  156.4051 C   0  0  0  0  0  0  0  0  0  0  0  0
  146.5206  138.1853  158.7070 O   0  0  0  0  0  0  0  0  0  0  0  0
  150.6217  138.5608  157.5069 C   0  0  1  0  0  0  0  0  0  0  0  0
  150.9171  139.9395  157.3163 O   0  0  0  0  0  0  0  0  0  0  0  0
  150.9175  140.4752  156.0848 C   0  0  0  0  0  0  0  0  0  0  0  0
  150.5244  141.9462  156.0961 C   0  0  0  0  0  0  0  0  0  0  0  0
  151.1922  139.8901  155.0373 O   0  0  0  0  0  0  0  0  0  0  0  0
  155.3650  136.5241  160.3775 H   0  0  0  0  0  0  0  0  0  0  0  0
  155.7489  138.0259  161.2327 H   0  0  0  0  0  0  0  0  0  0  0  0
  156.5223  137.6672  159.6821 H   0  0  0  0  0  0  0  0  0  0  0  0
  151.3536  138.7868  160.4043 H   0  0  0  0  0  0  0  0  0  0  0  0
  152.2915  139.7750  159.2947 H   0  0  0  0  0  0  0  0  0  0  0  0
  152.4779  137.4887  157.9024 H   0  0  0  0  0  0  0  0  0  0  0  0
  149.4163  137.4674  160.2164 H   0  0  0  0  0  0  0  0  0  0  0  0
  147.3078  134.9726  163.4396 H   0  0  0  0  0  0  0  0  0  0  0  0
  148.6592  134.5615  162.3564 H   0  0  0  0  0  0  0  0  0  0  0  0
  147.0580  133.8294  162.0996 H   0  0  0  0  0  0  0  0  0  0  0  0
  146.0539  132.1238  157.9444 H   0  0  0  0  0  0  0  0  0  0  0  0
  146.5901  131.5289  156.3879 H   0  0  0  0  0  0  0  0  0  0  0  0
  149.8100  134.2809  154.9541 H   0  0  0  0  0  0  0  0  0  0  0  0
  149.0350  139.2471  158.7982 H   0  0  0  0  0  0  0  0  0  0  0  0
  146.3464  136.6484  156.0223 H   0  0  0  0  0  0  0  0  0  0  0  0
  146.2087  138.3623  155.6020 H   0  0  0  0  0  0  0  0  0  0  0  0
  145.0399  137.6258  156.7076 H   0  0  0  0  0  0  0  0  0  0  0  0
  150.6327  138.0183  156.5598 H   0  0  0  0  0  0  0  0  0  0  0  0
  151.2260  142.5204  156.7013 H   0  0  0  0  0  0  0  0  0  0  0  0
  149.5254  142.0682  156.5144 H   0  0  0  0  0  0  0  0  0  0  0  0
  150.5272  142.3517  155.0842 H   0  0  0  0  0  0  0  0  0  0  0  0
  1  2  1  0  0  0  0
  1 33  1  0  0  0  0
  1 34  1  0  0  0  0
  1 35  1  0  0  0  0
  2  3  2  0  0  0  0
  2  4  1  0  0  0  0
  4  5  1  0  0  0  0
  5  6  1  0  0  0  0
  5 36  1  0  0  0  0
  5 37  1  0  0  0  0
  6 28  1  0  0  0  0
  6  7  1  0  0  0  0
  6 38  1  0  0  0  0
  7  8  1  0  0  0  0
  8  9  1  0  0  0  0
  8 23  1  0  0  0  0
  8 39  1  0  0  0  0
  9 22  1  0  0  0  0
  9 10  1  0  0  0  0
 10 11  1  0  0  0  0
 10 15  2  0  0  0  0
 11 12  1  0  0  0  0
 11 13  2  0  0  0  0
 11 14  2  0  0  0  0
 12 40  1  0  0  0  0
 12 41  1  0  0  0  0
 12 42  1  0  0  0  0
 15 16  1  0  0  0  0
 16 22  2  0  0  0  0
 16 17  1  0  0  0  0
 17 18  1  0  0  0  0
 17 19  2  0  0  0  0
 18 43  1  0  0  0  0
 18 44  1  0  0  0  0
 19 20  1  0  0  0  0
 20 21  2  0  0  0  0
 20 45  1  0  0  0  0
 21 22  1  0  0  0  0
 23 24  1  0  0  0  0
 23 28  1  0  0  0  0
 23 46  1  0  0  0  0
 24 25  1  0  0  0  0
 25 26  1  0  0  0  0
 25 27  2  0  0  0  0
 26 47  1  0  0  0  0
 26 48  1  0  0  0  0
 26 49  1  0  0  0  0
 28 29  1  0  0  0  0
 28 50  1  0  0  0  0
 29 30  1  0  0  0  0
 30 31  1  0  0  0  0
 30 32  2  0  0  0  0
 31 51  1  0  0  0  0
 31 52  1  0  0  0  0
 31 53  1  0  0  0  0
M  END
> <s_m_source_file>
AV-unprocessed.smi

> <i_m_source_file_index>
103

> <i_lp_mmshare_version>
43012

> <i_f3d_flags>
0

> <s_epik_input>
W0NIM11DKD1PKU9bQ0gyXVtDQEBIXTFPW0NASF0oW0NAQEhdKE9DKD1PKVtDSDNdKVtDQEhdMU9DKD1PKVtDSDNdKW4oYyhuMilTKD1PKSg9TylbQ0gzXSljKGMyMyluW2NIXW5jM1tOSDJd

> <s_epik_cmdline>
J2VwaWtfcHl0aG9uJywgJy1waCcsICc3LjAnLCAnLXRuJywgJzgnLCAnLW1hJywgJzIwMCcsICctbWV0YWxfYmluZGluZycsICctaW1hZScsICc8aW5maWxlLm1hZT4nLCAnLW9tYWUnLCAnPG91dGZpbGUubWFlPic=

> <r_lp_tautomer_probability>
1

> <r_epik_Ionization_Penalty>
1.51338e-05

> <r_epik_Ionization_Penalty_Charging>
0

> <r_epik_Ionization_Penalty_Neutral>
1.51338e-05

> <r_epik_State_Penalty>
-0

> <r_epik_Charging_Adjusted_Penalty>
0

> <i_epik_Tot_Q>
0

> <i_epik_Tot_abs_Q>
0

> <r_epik_Metal_State_Penalty>
-0

> <b_epik_Metal_Only>
0

> <s_epik_Chemistry_Notes>
This compound has an ester and may undergo hydrolysis at high or low pH. This compound contains an acetal/aminal-like group ( X-CH(R)-Y where X, Y are N, S, or O) that may be acid/base labile, releasing an aldehyde.

> <s_lp_Force_Field>
OPLS_2005

> <r_lp_Energy>
18.7929

> <b_lp_Chiralities_Consistent>
1

> <s_lp_Variant>
AV-unprocessed.smi:103-8

> <Gold.Version>
5.8.1

> <Gold.Id.Protein>
6NUR|6NUR_protein|mol2

> <Gold.PLP.Fitness>
41.6141

> <Gold.PLP.PLP>
-30.6784

> <Gold.PLP.part.hbond>
-5.8620

> <Gold.PLP.part.metal>
0.0000

> <Gold.PLP.part.buried>
-5.7900

> <Gold.PLP.part.nonpolar>
-19.0532

> <Gold.PLP.part.repulsive>
0.0482

> <Gold.PLP.ligand.clash>
0.0000

> <Gold.PLP.ligand.torsion>
2.5628

> <Gold.PLP.Chemscore.Hbond>
4.5616

> <Gold.PLP.Chemscore.CHOScore>
0.0000

> <Gold.PLP.Chemscore.Metal>
0.0000

> <Gold.Chemscore.Hbonds>
donor molecule, donor type, donor heavy atom, donor atom, acceptor molecule, acceptor atom, score
      P1  H  6896  6908       L1     7  0.99
      P1  H  6931  6943       L1    13  0.84
      P1  H  6934  6947       L1    13  0.61
      P1  H  7989  7998       L1    32  1.00
      P1  H  7997  8009       L1     3  1.00

> <Gold.PLP.Chemscore.Internal.Correction>
2.3765

> <Gold.Rescore>
     Score         DG    S(hbond)    S(metal)    S(lipo)     H(rot)  DE(clash)    DE(int)     intcor
      8.36     -14.27       4.68        0.00      34.46       4.25       0.00       5.90       ----

> <Gold.Chemscore.Fitness>
8.3614

> <Gold.Chemscore.DG>
-14.2673

> <Gold.Chemscore.ZeroCoef>
-5.4800

> <Gold.Chemscore.Hbond>
4.6779

> <Gold.Chemscore.Metal>
0.0000

> <Gold.Chemscore.Lipo>
34.4605

> <Gold.Chemscore.Internal_Hbond>
0.0000

> <Gold.Chemscore.DEClash>
0.0015

> <Gold.Chemscore.DEInternal>
5.9045

> <Gold.Chemscore.Rot>
4.2456

> <Gold.Chemscore.Internal.Correction>
   9.000000E+99

> <Gold.Chemscore.Hbonds>
donor molecule, donor type, donor heavy atom, donor atom, acceptor molecule, acceptor atom, score
      P1  H  6896  6908       L1     7  0.51
      P1  H  6931  6943       L1    13  0.80
      P1  H  6934  6947       L1    13  0.50
      P1  H  7989  7998       L1    32  0.98
      P1  H  7997  8009       L1     3  1.00

> <Gold.Chemscore.Hbond.Weighted>
-15.6241

> <Gold.Chemscore.Metal.Weighted>
-0.0000

> <Gold.Chemscore.Lipo.Weighted>
-4.0319

> <Gold.Chemscore.Internal_Hbond.Weighted>
0.0000

> <Gold.Chemscore.DEClash.Weighted>
0.0015

> <Gold.Chemscore.DEInternal.Weighted>
5.9045

> <Gold.Chemscore.Rot.Weighted>
10.8687

> <Gold.Chemscore.Internal.Correction.Weighted>
   9.000000E+99

> <Gold.Protein.RotatedTorsions>
[ 6907 6896 6895 6894 ] final -157.73 input  -60.11 | X-H torsion
[ 7974 7965 7964 7962 ] final   49.47 input  175.53 | X-H torsion
[ 8008 7997 7996 7995 ] final  129.36 input   59.86 | X-H torsion
[ 10167 10162 10161 10158 ] final   14.69 input  -65.29 | X-H torsion
[ 10718 10713 10712 10709 ] final  158.27 input   66.30 | X-H torsion
[ 10763 10752 10751 10750 ] final  -73.86 input  -60.55 | X-H torsion
[ 11005 11000 10999 10996 ] final -111.87 input  -57.11 | X-H torsion

> <Gold.Protein.ActiveResidues>
 VAL166  LYS551  ARG553  GLY616  TRP617  ASP618  TYR619  PRO620  LYS621  CYS622 
 ASP623  PHE694  ASN695  SER759  ASP760  ASP761  ALA762  ILE779  LEU786  VAL792 
 PHE793  MET794  SER795  GLU796  ALA797  LYS798  CYS799  TRP800  GLU811  SER814 

> <Gold.Protein.RotatedAtoms>
  151.3074  133.4096  159.2643 H   0  0  0  0  0  0  0  0  0  0  0  0  # atno 6907 bound_to 6896
  151.0144  134.9422  159.8035 H   0  0  0  0  0  0  0  0  0  0  0  0  # atno 6908 bound_to 6896
  152.5309  134.3038  159.9140 H   0  0  0  0  0  0  0  0  0  0  0  0  # atno 6909 bound_to 6896
  146.0105  139.4538  142.9959 H   0  0  0  0  0  0  0  0  0  0  0  0  # atno 7974 bound_to 7965
  156.2934  140.2622  156.2585 H   0  0  0  0  0  0  0  0  0  0  0  0  # atno 8008 bound_to 7997
  154.9812  140.0390  157.2296 H   0  0  0  0  0  0  0  0  0  0  0  0  # atno 8009 bound_to 7997
  154.7770  140.2788  155.6097 H   0  0  0  0  0  0  0  0  0  0  0  0  # atno 8010 bound_to 7997
  140.5919  143.8779  150.6881 H   0  0  0  0  0  0  0  0  0  0  0  0  # atno 10167 bound_to 10162
  157.1802  131.0630  151.2136 H   0  0  0  0  0  0  0  0  0  0  0  0  # atno 10718 bound_to 10713
  154.4653  135.5883  153.6283 H   0  0  0  0  0  0  0  0  0  0  0  0  # atno 10763 bound_to 10752
  152.9828  135.6053  154.3435 H   0  0  0  0  0  0  0  0  0  0  0  0  # atno 10764 bound_to 10752
  154.3312  135.2842  155.2450 H   0  0  0  0  0  0  0  0  0  0  0  0  # atno 10765 bound_to 10752
  141.0708  133.9382  157.2488 H   0  0  0  0  0  0  0  0  0  0  0  0  # atno 11005 bound_to 11000
  145.7349  141.0029  143.1332 LP  0  0  0  0  0  0  0  0  0  0  0  0  # atno 17320 bound_to 7965
  144.6951  139.9028  143.7459 LP  0  0  0  0  0  0  0  0  0  0  0  0  # atno 17321 bound_to 7965
  140.2304  143.3740  152.1570 LP  0  0  0  0  0  0  0  0  0  0  0  0  # atno 17342 bound_to 10162
  139.5233  144.7069  151.5326 LP  0  0  0  0  0  0  0  0  0  0  0  0  # atno 17343 bound_to 10162
  157.3960  130.7307  149.6732 LP  0  0  0  0  0  0  0  0  0  0  0  0  # atno 17370 bound_to 10713
  155.9725  130.4133  150.4078 LP  0  0  0  0  0  0  0  0  0  0  0  0  # atno 17371 bound_to 10713
  139.9522  135.0173  156.9026 LP  0  0  0  0  0  0  0  0  0  0  0  0  # atno 17394 bound_to 11000
  140.5676  134.0474  155.7419 LP  0  0  0  0  0  0  0  0  0  0  0  0  # atno 17395 bound_to 11000

$$$$
