AV-unprocessed.smi:2121|AV-procd|sdf|8641|dock1
  -GOLD-   2272011393D 1   1.00000     0.00000
 Structure written by MMmdl.
 49 50  0  0  0  0  0  0  0  0  1 V2000
  151.7816  144.4846  160.7106 C   0  0  0  0  0  0  0  0  0  0  0  0
  152.4149  143.4054  159.8263 C   0  0  2  0  0  0  0  0  0  0  0  0
  151.3848  142.7498  158.8872 C   0  0  0  0  0  0  0  0  0  0  0  0
  151.9970  141.6501  158.1464 N   0  0  0  0  0  0  0  0  0  0  0  0
  151.2441  141.1538  157.0601 C   0  0  0  0  0  0  0  0  0  0  0  0
  151.5838  139.9150  156.4666 C   0  0  0  0  0  0  0  0  0  0  0  0
  150.8238  139.4418  155.3802 C   0  0  0  0  0  0  0  0  0  0  0  0
  149.7440  140.2180  154.9097 C   0  0  0  0  0  0  0  0  0  0  0  0
  148.8767  139.7727  153.7405 C   0  0  0  0  0  0  0  0  0  0  0  0
  148.2733  138.4547  153.9085 N   0  0  0  0  0  0  0  0  0  0  0  0
  147.2750  138.1703  154.7587 C   0  0  0  0  0  0  0  0  0  0  0  0
  146.7579  139.0108  155.4968 O   0  0  0  0  0  0  0  0  0  0  0  0
  146.7711  136.7184  154.7488 C   0  0  2  0  0  0  0  0  0  0  0  0
  147.6827  135.8934  155.6726 C   0  0  0  0  0  0  0  0  0  0  0  0
  146.8532  136.1504  153.4040 N   0  0  0  0  0  0  0  0  0  0  0  0
  145.8140  135.6651  152.7090 C   0  0  0  0  0  0  0  0  0  0  0  0
  146.1706  135.2297  151.5005 N   0  0  0  0  0  0  0  0  0  0  0  0
  144.6574  135.6206  153.1237 O   0  0  0  0  0  0  0  0  0  0  0  0
  149.4712  141.4315  155.5715 C   0  0  0  0  0  0  0  0  0  0  0  0
  150.1951  141.8888  156.6146 N   0  0  0  0  0  0  0  0  0  0  0  0
  152.6770  140.6844  159.0067 C   0  0  0  0  0  0  0  0  0  0  0  0
  153.6711  141.4005  159.9395 C   0  0  2  0  0  0  0  0  0  0  0  0
  154.3188  140.4366  160.9389 C   0  0  0  0  0  0  0  0  0  0  0  0
  152.9805  142.4083  160.6728 O   0  0  0  0  0  0  0  0  0  0  0  0
  151.3429  145.2791  160.1065 H   0  0  0  0  0  0  0  0  0  0  0  0
  152.5260  144.9380  161.3655 H   0  0  0  0  0  0  0  0  0  0  0  0
  150.9942  144.0679  161.3393 H   0  0  0  0  0  0  0  0  0  0  0  0
  153.2093  143.8651  159.2353 H   0  0  0  0  0  0  0  0  0  0  0  0
  150.5462  142.3573  159.4643 H   0  0  0  0  0  0  0  0  0  0  0  0
  150.9804  143.5087  158.2192 H   0  0  0  0  0  0  0  0  0  0  0  0
  152.4039  139.3192  156.8383 H   0  0  0  0  0  0  0  0  0  0  0  0
  151.0712  138.4952  154.9228 H   0  0  0  0  0  0  0  0  0  0  0  0
  148.0748  140.5001  153.6140 H   0  0  0  0  0  0  0  0  0  0  0  0
  149.4597  139.7922  152.8181 H   0  0  0  0  0  0  0  0  0  0  0  0
  148.6398  137.7065  153.3378 H   0  0  0  0  0  0  0  0  0  0  0  0
  145.7423  136.6719  155.1112 H   0  0  0  0  0  0  0  0  0  0  0  0
  147.6567  136.2718  156.6954 H   0  0  0  0  0  0  0  0  0  0  0  0
  148.7216  135.9086  155.3390 H   0  0  0  0  0  0  0  0  0  0  0  0
  147.3630  134.8514  155.7051 H   0  0  0  0  0  0  0  0  0  0  0  0
  147.7632  136.1472  152.9676 H   0  0  0  0  0  0  0  0  0  0  0  0
  145.4808  134.8379  150.8766 H   0  0  0  0  0  0  0  0  0  0  0  0
  147.1371  135.2934  151.2148 H   0  0  0  0  0  0  0  0  0  0  0  0
  148.6494  142.0570  155.2558 H   0  0  0  0  0  0  0  0  0  0  0  0
  151.9346  140.1407  159.5929 H   0  0  0  0  0  0  0  0  0  0  0  0
  153.2134  139.9539  158.3996 H   0  0  0  0  0  0  0  0  0  0  0  0
  154.4605  141.8664  159.3469 H   0  0  0  0  0  0  0  0  0  0  0  0
  154.8720  139.6509  160.4238 H   0  0  0  0  0  0  0  0  0  0  0  0
  153.5688  139.9598  161.5704 H   0  0  0  0  0  0  0  0  0  0  0  0
  155.0172  140.9623  161.5903 H   0  0  0  0  0  0  0  0  0  0  0  0
  1  2  1  0  0  0  0
  1 25  1  0  0  0  0
  1 26  1  0  0  0  0
  1 27  1  0  0  0  0
  2 24  1  0  0  0  0
  2  3  1  0  0  0  0
  2 28  1  0  0  0  0
  3  4  1  0  0  0  0
  3 29  1  0  0  0  0
  3 30  1  0  0  0  0
  4  5  1  0  0  0  0
  4 21  1  0  0  0  0
  5 20  1  0  0  0  0
  5  6  2  0  0  0  0
  6  7  1  0  0  0  0
  6 31  1  0  0  0  0
  7  8  2  0  0  0  0
  7 32  1  0  0  0  0
  8  9  1  0  0  0  0
  8 19  1  0  0  0  0
  9 10  1  0  0  0  0
  9 33  1  0  0  0  0
  9 34  1  0  0  0  0
 10 11  1  0  0  0  0
 10 35  1  0  0  0  0
 11 12  2  0  0  0  0
 11 13  1  0  0  0  0
 13 14  1  0  0  0  0
 13 15  1  0  0  0  0
 13 36  1  0  0  0  0
 14 37  1  0  0  0  0
 14 38  1  0  0  0  0
 14 39  1  0  0  0  0
 15 16  1  0  0  0  0
 15 40  1  0  0  0  0
 16 17  1  0  0  0  0
 16 18  2  0  0  0  0
 17 41  1  0  0  0  0
 17 42  1  0  0  0  0
 19 20  2  0  0  0  0
 19 43  1  0  0  0  0
 21 22  1  0  0  0  0
 21 44  1  0  0  0  0
 21 45  1  0  0  0  0
 22 23  1  0  0  0  0
 22 24  1  0  0  0  0
 22 46  1  0  0  0  0
 23 47  1  0  0  0  0
 23 48  1  0  0  0  0
 23 49  1  0  0  0  0
M  END
> <s_m_source_file>
AV-unprocessed.smi

> <i_m_source_file_index>
2121

> <i_lp_mmshare_version>
43012

> <i_f3d_flags>
0

> <s_epik_input>
W0NIM11bQ0BASF0xW0NIMl1OKFtDSDJdW0NASF0oTzEpW0NIM10pYzJbY0hdW2NIXWMoW2NIXW4yKVtDSDJdW05IXUMoPU8pW0NASF0oW0NIM10pW05IXUMoPU8pW05IMl0=

> <s_epik_cmdline>
J2VwaWtfcHl0aG9uJywgJy1waCcsICc3LjAnLCAnLXRuJywgJzgnLCAnLW1hJywgJzIwMCcsICctbWV0YWxfYmluZGluZycsICctaW1hZScsICc8aW5maWxlLm1hZT4nLCAnLW9tYWUnLCAnPG91dGZpbGUubWFlPic=

> <r_lp_tautomer_probability>
1

> <r_epik_Ionization_Penalty>
0.0063713

> <r_epik_Ionization_Penalty_Charging>
0

> <r_epik_Ionization_Penalty_Neutral>
0.0063713

> <r_epik_State_Penalty>
0.00467069

> <r_epik_Charging_Adjusted_Penalty>
0.00467069

> <i_epik_Tot_Q>
0

> <i_epik_Tot_abs_Q>
0

> <r_epik_Metal_State_Penalty>
-0

> <b_epik_Metal_Only>
0

> <s_lp_Force_Field>
OPLS_2005

> <r_lp_Energy>
8.04486

> <b_lp_Chiralities_Consistent>
1

> <s_lp_Variant>
AV-unprocessed.smi:2121-2

> <Gold.Version>
5.8.1

> <Gold.Id.Protein>
6NUR|6NUR_protein|mol2

> <Gold.PLP.Fitness>
44.2048

> <Gold.PLP.PLP>
-36.0362

> <Gold.PLP.part.hbond>
-3.5256

> <Gold.PLP.part.metal>
0.0000

> <Gold.PLP.part.buried>
0.8469

> <Gold.PLP.part.nonpolar>
-33.8159

> <Gold.PLP.part.repulsive>
0.4138

> <Gold.PLP.ligand.clash>
0.0000

> <Gold.PLP.ligand.torsion>
1.3085

> <Gold.PLP.Chemscore.Hbond>
2.6615

> <Gold.PLP.Chemscore.CHOScore>
0.8148

> <Gold.PLP.Chemscore.Metal>
0.0000

> <Gold.Chemscore.Hbonds>
donor molecule, donor type, donor heavy atom, donor atom, acceptor molecule, acceptor atom, score
      L1  H    10    35       P1  7948  0.84
      L1  H    15    40       P1  7948  1.00
      L1  H    17    42       P1  7948  0.70
      L1  C    19    43       P1  8028  0.45

> <Gold.PLP.Chemscore.Internal.Correction>
0.3567

> <Gold.Rescore>
     Score         DG    S(hbond)    S(metal)    S(lipo)     H(rot)  DE(clash)    DE(int)     intcor
     15.46     -18.61       2.46        0.00      98.64       2.58       1.82       1.34       ----

> <Gold.Chemscore.Fitness>
15.4557

> <Gold.Chemscore.DG>
-18.6142

> <Gold.Chemscore.ZeroCoef>
-5.4800

> <Gold.Chemscore.Hbond>
2.4573

> <Gold.Chemscore.Metal>
0.0000

> <Gold.Chemscore.Lipo>
98.6431

> <Gold.Chemscore.Internal_Hbond>
0.0000

> <Gold.Chemscore.DEClash>
1.8219

> <Gold.Chemscore.DEInternal>
1.3366

> <Gold.Chemscore.Rot>
2.5838

> <Gold.Chemscore.Internal.Correction>
   9.000000E+99

> <Gold.Chemscore.Hbonds>
donor molecule, donor type, donor heavy atom, donor atom, acceptor molecule, acceptor atom, score
      L1  H    10    35       P1  7948  0.82
      L1  H    15    40       P1  7948  0.99
      L1  H    17    42       P1  7948  0.56

> <Gold.Chemscore.Hbond.Weighted>
-8.2074

> <Gold.Chemscore.Metal.Weighted>
-0.0000

> <Gold.Chemscore.Lipo.Weighted>
-11.5412

> <Gold.Chemscore.Internal_Hbond.Weighted>
0.0000

> <Gold.Chemscore.DEClash.Weighted>
1.8219

> <Gold.Chemscore.DEInternal.Weighted>
1.3366

> <Gold.Chemscore.Rot.Weighted>
6.6145

> <Gold.Chemscore.Internal.Correction.Weighted>
   9.000000E+99

> <Gold.Protein.RotatedTorsions>
[ 6907 6896 6895 6894 ] final -149.50 input  -60.11 | X-H torsion
[ 7974 7965 7964 7962 ] final  -90.03 input  175.53 | X-H torsion
[ 8008 7997 7996 7995 ] final  -58.83 input   59.86 | X-H torsion
[ 10167 10162 10161 10158 ] final  -43.84 input  -65.29 | X-H torsion
[ 10718 10713 10712 10709 ] final  118.89 input   66.30 | X-H torsion
[ 10763 10752 10751 10750 ] final -153.92 input  -60.55 | X-H torsion
[ 11005 11000 10999 10996 ] final  163.62 input  -57.11 | X-H torsion

> <Gold.Protein.ActiveResidues>
 VAL166  LYS551  ARG553  GLY616  TRP617  ASP618  TYR619  PRO620  LYS621  CYS622 
 ASP623  PHE694  ASN695  SER759  ASP760  ASP761  ALA762  ILE779  LEU786  VAL792 
 PHE793  MET794  SER795  GLU796  ALA797  LYS798  CYS799  TRP800  GLU811  SER814 

> <Gold.Protein.RotatedAtoms>
  151.1850  133.4702  159.2594 H   0  0  0  0  0  0  0  0  0  0  0  0  # atno 6907 bound_to 6896
  151.1221  135.0085  159.8553 H   0  0  0  0  0  0  0  0  0  0  0  0  # atno 6908 bound_to 6896
  152.5456  134.1760  159.8669 H   0  0  0  0  0  0  0  0  0  0  0  0  # atno 6909 bound_to 6896
  145.4319  140.9556  143.2123 H   0  0  0  0  0  0  0  0  0  0  0  0  # atno 7974 bound_to 7965
  154.4325  140.1075  156.6019 H   0  0  0  0  0  0  0  0  0  0  0  0  # atno 8008 bound_to 7997
  155.5902  140.3492  155.4545 H   0  0  0  0  0  0  0  0  0  0  0  0  # atno 8009 bound_to 7997
  156.0252  140.1248  157.0305 H   0  0  0  0  0  0  0  0  0  0  0  0  # atno 8010 bound_to 7997
  140.6919  143.2961  151.3410 H   0  0  0  0  0  0  0  0  0  0  0  0  # atno 10167 bound_to 10162
  157.5999  131.1052  150.7820 H   0  0  0  0  0  0  0  0  0  0  0  0  # atno 10718 bound_to 10713
  154.7894  135.3202  154.7811 H   0  0  0  0  0  0  0  0  0  0  0  0  # atno 10763 bound_to 10752
  153.8503  135.6863  153.4797 H   0  0  0  0  0  0  0  0  0  0  0  0  # atno 10764 bound_to 10752
  153.1559  135.4680  154.9643 H   0  0  0  0  0  0  0  0  0  0  0  0  # atno 10765 bound_to 10752
  140.2376  134.8075  157.3379 H   0  0  0  0  0  0  0  0  0  0  0  0  # atno 11005 bound_to 11000
  144.8177  139.5847  143.7001 LP  0  0  0  0  0  0  0  0  0  0  0  0  # atno 17320 bound_to 7965
  146.2602  139.6394  142.9367 LP  0  0  0  0  0  0  0  0  0  0  0  0  # atno 17321 bound_to 7965
  139.6331  144.0683  152.2493 LP  0  0  0  0  0  0  0  0  0  0  0  0  # atno 17342 bound_to 10162
  140.0164  144.6185  150.7603 LP  0  0  0  0  0  0  0  0  0  0  0  0  # atno 17343 bound_to 10162
  156.8222  130.4987  149.5342 LP  0  0  0  0  0  0  0  0  0  0  0  0  # atno 17370 bound_to 10713
  156.1070  130.6012  150.9986 LP  0  0  0  0  0  0  0  0  0  0  0  0  # atno 17371 bound_to 10713
  140.1686  134.4638  155.7847 LP  0  0  0  0  0  0  0  0  0  0  0  0  # atno 17394 bound_to 11000
  141.2213  133.6932  156.7668 LP  0  0  0  0  0  0  0  0  0  0  0  0  # atno 17395 bound_to 11000

$$$$
