AV-unprocessed.smi:234|AV-procd|sdf|1791|dock8
  -GOLD-   2262020353D 1   1.00000     0.00000
 Structure written by MMmdl.
 59 62  0  0  0  0  0  0  0  0  1 V2000
  152.2875  142.5044  159.4337 C   0  0  0  0  0  0  0  0  0  0  0  0
  152.4595  141.1057  158.8267 C   0  0  0  0  0  0  0  0  0  0  0  0
  151.2288  140.5584  158.3750 O   0  0  0  0  0  0  0  0  0  0  0  0
  150.5504  141.3401  157.4006 C   0  0  2  0  0  0  0  0  0  0  0  0
  149.0483  141.4092  157.6747 C   0  0  0  0  0  0  0  0  0  0  0  0
  148.8790  141.3396  156.1522 C   0  0  2  0  0  0  0  0  0  0  0  0
  147.7161  140.5685  155.7059 N   0  0  0  0  0  0  0  0  0  0  0  0
  147.5119  140.4565  154.2672 C   0  0  0  0  0  0  0  0  0  0  0  0
  146.5473  140.8114  156.3437 C   0  0  0  0  0  0  0  0  0  0  0  0
  146.3557  140.1904  157.5344 N   0  0  0  0  0  0  0  0  0  0  0  0
  145.2223  140.3820  158.2157 C   0  0  0  0  0  0  0  0  0  0  0  0
  144.1687  141.1332  157.8895 N   0  0  0  0  0  0  0  0  0  0  0  0
  144.3512  141.7474  156.6853 C   0  0  0  0  0  0  0  0  0  0  0  0
  145.5008  141.6443  155.8518 C   0  0  0  0  0  0  0  0  0  0  0  0
  145.3188  142.4054  154.7025 N   0  0  0  0  0  0  0  0  0  0  0  0
  144.1359  142.9348  154.8530 C   0  0  0  0  0  0  0  0  0  0  0  0
  143.4799  142.5851  156.0112 N   0  0  0  0  0  0  0  0  0  0  0  0
  142.1539  143.0156  156.4258 C   0  0  0  0  0  0  0  0  0  0  0  0
  141.0970  141.8867  156.3742 C   0  0  2  0  0  0  0  0  0  0  0  0
  140.6699  141.7261  155.0310 O   0  0  0  0  0  0  0  0  0  0  0  0
  139.8719  142.1429  157.2397 C   0  0  0  0  0  0  0  0  0  0  0  0
  139.3462  140.7357  157.4936 C   0  0  0  0  0  0  0  0  0  0  0  0
  140.5114  139.9304  157.6136 O   0  0  0  0  0  0  0  0  0  0  0  0
  141.6127  140.5486  156.9491 C   0  0  1  0  0  0  0  0  0  0  0  0
  142.2660  139.5777  155.9524 C   0  0  0  0  0  0  0  0  0  0  0  0
  150.2336  140.5818  156.0838 C   0  0  0  0  0  0  0  0  0  0  0  0
  151.1254  140.9231  154.8894 C   0  0  0  0  0  0  0  0  0  0  0  0
  150.1958  139.0473  156.1987 C   0  0  0  0  0  0  0  0  0  0  0  0
  153.2572  142.9476  159.6601 H   0  0  0  0  0  0  0  0  0  0  0  0
  151.7214  142.4708  160.3637 H   0  0  0  0  0  0  0  0  0  0  0  0
  151.7689  143.1703  158.7437 H   0  0  0  0  0  0  0  0  0  0  0  0
  153.1229  141.1730  157.9644 H   0  0  0  0  0  0  0  0  0  0  0  0
  152.9402  140.4293  159.5348 H   0  0  0  0  0  0  0  0  0  0  0  0
  150.9685  142.3372  157.2402 H   0  0  0  0  0  0  0  0  0  0  0  0
  148.6635  140.5372  158.2068 H   0  0  0  0  0  0  0  0  0  0  0  0
  148.7116  142.3408  158.1296 H   0  0  0  0  0  0  0  0  0  0  0  0
  148.9535  142.3264  155.6914 H   0  0  0  0  0  0  0  0  0  0  0  0
  146.6838  139.7860  154.0344 H   0  0  0  0  0  0  0  0  0  0  0  0
  148.3994  140.0612  153.7763 H   0  0  0  0  0  0  0  0  0  0  0  0
  147.2928  141.4336  153.8355 H   0  0  0  0  0  0  0  0  0  0  0  0
  145.1484  139.8570  159.1566 H   0  0  0  0  0  0  0  0  0  0  0  0
  143.7031  143.5930  154.1139 H   0  0  0  0  0  0  0  0  0  0  0  0
  142.2212  143.4241  157.4350 H   0  0  0  0  0  0  0  0  0  0  0  0
  141.8546  143.8436  155.7818 H   0  0  0  0  0  0  0  0  0  0  0  0
  141.4194  141.4929  154.5049 H   0  0  0  0  0  0  0  0  0  0  0  0
  140.1687  142.5908  158.1890 H   0  0  0  0  0  0  0  0  0  0  0  0
  139.1338  142.7988  156.7760 H   0  0  0  0  0  0  0  0  0  0  0  0
  138.7231  140.6735  158.3856 H   0  0  0  0  0  0  0  0  0  0  0  0
  138.7596  140.3855  156.6434 H   0  0  0  0  0  0  0  0  0  0  0  0
  142.3379  140.7649  157.7350 H   0  0  0  0  0  0  0  0  0  0  0  0
  143.0987  140.0517  155.4326 H   0  0  0  0  0  0  0  0  0  0  0  0
  141.5545  139.2284  155.2040 H   0  0  0  0  0  0  0  0  0  0  0  0
  142.6540  138.6992  156.4680 H   0  0  0  0  0  0  0  0  0  0  0  0
  150.6954  140.5699  153.9527 H   0  0  0  0  0  0  0  0  0  0  0  0
  152.1132  140.4719  154.9817 H   0  0  0  0  0  0  0  0  0  0  0  0
  151.2682  141.9996  154.7918 H   0  0  0  0  0  0  0  0  0  0  0  0
  149.8523  138.5796  155.2763 H   0  0  0  0  0  0  0  0  0  0  0  0
  149.5323  138.7100  156.9952 H   0  0  0  0  0  0  0  0  0  0  0  0
  151.1845  138.6420  156.4153 H   0  0  0  0  0  0  0  0  0  0  0  0
  1  2  1  0  0  0  0
  1 29  1  0  0  0  0
  1 30  1  0  0  0  0
  1 31  1  0  0  0  0
  2  3  1  0  0  0  0
  2 32  1  0  0  0  0
  2 33  1  0  0  0  0
  3  4  1  0  0  0  0
  4 26  1  0  0  0  0
  4  5  1  0  0  0  0
  4 34  1  0  0  0  0
  5  6  1  0  0  0  0
  5 35  1  0  0  0  0
  5 36  1  0  0  0  0
  6  7  1  0  0  0  0
  6 26  1  0  0  0  0
  6 37  1  0  0  0  0
  7  8  1  0  0  0  0
  7  9  1  0  0  0  0
  8 38  1  0  0  0  0
  8 39  1  0  0  0  0
  8 40  1  0  0  0  0
  9 14  1  0  0  0  0
  9 10  2  0  0  0  0
 10 11  1  0  0  0  0
 11 12  2  0  0  0  0
 11 41  1  0  0  0  0
 12 13  1  0  0  0  0
 13 17  1  0  0  0  0
 13 14  2  0  0  0  0
 14 15  1  0  0  0  0
 15 16  2  0  0  0  0
 16 17  1  0  0  0  0
 16 42  1  0  0  0  0
 17 18  1  0  0  0  0
 18 19  1  0  0  0  0
 18 43  1  0  0  0  0
 18 44  1  0  0  0  0
 19 24  1  0  0  0  0
 19 20  1  0  0  0  0
 19 21  1  0  0  0  0
 20 45  1  0  0  0  0
 21 22  1  0  0  0  0
 21 46  1  0  0  0  0
 21 47  1  0  0  0  0
 22 23  1  0  0  0  0
 22 48  1  0  0  0  0
 22 49  1  0  0  0  0
 23 24  1  0  0  0  0
 24 25  1  0  0  0  0
 24 50  1  0  0  0  0
 25 51  1  0  0  0  0
 25 52  1  0  0  0  0
 25 53  1  0  0  0  0
 26 27  1  0  0  0  0
 26 28  1  0  0  0  0
 27 54  1  0  0  0  0
 27 55  1  0  0  0  0
 27 56  1  0  0  0  0
 28 57  1  0  0  0  0
 28 58  1  0  0  0  0
 28 59  1  0  0  0  0
M  END
> <s_m_source_file>
AV-unprocessed.smi

> <i_m_source_file_index>
234

> <i_lp_mmshare_version>
43012

> <i_f3d_flags>
0

> <s_epik_input>
W0NIM11bQ0gyXU9bQ0BASF0oQzEoW0NIM10pW0NIM10pW0NIMl1bQ0BIXTFOKFtDSDNdKWMobltjSF1uMiljKGMyMyluW2NIXW4zW0NIMl1bQ0BAXTQoW09IXSlbQ0gyXVtDSDJdT1tDQEhdNFtDSDNd

> <s_epik_cmdline>
J2VwaWtfcHl0aG9uJywgJy1waCcsICc3LjAnLCAnLXRuJywgJzgnLCAnLW1hJywgJzIwMCcsICctbWV0YWxfYmluZGluZycsICctaW1hZScsICc8aW5maWxlLm1hZT4nLCAnLW9tYWUnLCAnPG91dGZpbGUubWFlPic=

> <r_lp_tautomer_probability>
1

> <r_epik_Ionization_Penalty>
0.00349132

> <r_epik_Ionization_Penalty_Charging>
0

> <r_epik_Ionization_Penalty_Neutral>
0.00349132

> <r_epik_State_Penalty>
0.00242418

> <r_epik_Charging_Adjusted_Penalty>
0.00242418

> <i_epik_Tot_Q>
0

> <i_epik_Tot_abs_Q>
0

> <r_epik_Metal_State_Penalty>
-0

> <b_epik_Metal_Only>
0

> <s_lp_Force_Field>
OPLS_2005

> <r_lp_Energy>
50.4374

> <b_lp_Chiralities_Consistent>
1

> <s_lp_Variant>
AV-unprocessed.smi:234-7

> <Gold.Version>
5.8.1

> <Gold.Id.Protein>
6NUR|6NUR_protein|mol2

> <Gold.PLP.Fitness>
36.2715

> <Gold.PLP.PLP>
-36.0082

> <Gold.PLP.part.hbond>
-2.9269

> <Gold.PLP.part.metal>
0.0000

> <Gold.PLP.part.buried>
-5.8793

> <Gold.PLP.part.nonpolar>
-27.8750

> <Gold.PLP.part.repulsive>
0.4231

> <Gold.PLP.ligand.clash>
0.0000

> <Gold.PLP.ligand.torsion>
2.0022

> <Gold.PLP.Chemscore.Hbond>
1.1493

> <Gold.PLP.Chemscore.CHOScore>
0.0000

> <Gold.PLP.Chemscore.Metal>
0.0000

> <Gold.Chemscore.Hbonds>
donor molecule, donor type, donor heavy atom, donor atom, acceptor molecule, acceptor atom, score
      L1  C    16    42       P1 10174  0.73

> <Gold.PLP.Chemscore.Internal.Correction>
0.8197

> <Gold.Rescore>
     Score         DG    S(hbond)    S(metal)    S(lipo)     H(rot)  DE(clash)    DE(int)     intcor
      7.12     -11.45       0.93        0.00      81.72       2.62       0.08       4.25       ----

> <Gold.Chemscore.Fitness>
7.1194

> <Gold.Chemscore.DG>
-11.4486

> <Gold.Chemscore.ZeroCoef>
-5.4800

> <Gold.Chemscore.Hbond>
0.9341

> <Gold.Chemscore.Metal>
0.0000

> <Gold.Chemscore.Lipo>
81.7152

> <Gold.Chemscore.Internal_Hbond>
0.0000

> <Gold.Chemscore.DEClash>
0.0831

> <Gold.Chemscore.DEInternal>
4.2461

> <Gold.Chemscore.Rot>
2.6219

> <Gold.Chemscore.Internal.Correction>
   9.000000E+99

> <Gold.Chemscore.Hbond.Weighted>
-3.1200

> <Gold.Chemscore.Metal.Weighted>
-0.0000

> <Gold.Chemscore.Lipo.Weighted>
-9.5607

> <Gold.Chemscore.Internal_Hbond.Weighted>
0.0000

> <Gold.Chemscore.DEClash.Weighted>
0.0831

> <Gold.Chemscore.DEInternal.Weighted>
4.2461

> <Gold.Chemscore.Rot.Weighted>
6.7121

> <Gold.Chemscore.Internal.Correction.Weighted>
   9.000000E+99

> <Gold.Protein.RotatedTorsions>
[ 6907 6896 6895 6894 ] final   31.88 input  -60.11 | X-H torsion
[ 7974 7965 7964 7962 ] final   38.45 input  175.53 | X-H torsion
[ 8008 7997 7996 7995 ] final  -39.52 input   59.86 | X-H torsion
[ 10167 10162 10161 10158 ] final -130.75 input  -65.29 | X-H torsion
[ 10718 10713 10712 10709 ] final -157.41 input   66.30 | X-H torsion
[ 10763 10752 10751 10750 ] final   -1.42 input  -60.55 | X-H torsion
[ 11005 11000 10999 10996 ] final  164.24 input  -57.11 | X-H torsion

> <Gold.Protein.ActiveResidues>
 VAL166  LYS551  ARG553  GLY616  TRP617  ASP618  TYR619  PRO620  LYS621  CYS622 
 ASP623  PHE694  ASN695  SER759  ASP760  ASP761  ALA762  ILE779  LEU786  VAL792 
 PHE793  MET794  SER795  GLU796  ALA797  LYS798  CYS799  TRP800  GLU811  SER814 

> <Gold.Protein.RotatedAtoms>
  152.0666  134.9560  160.0574 H   0  0  0  0  0  0  0  0  0  0  0  0  # atno 6907 bound_to 6896
  152.0902  133.4192  159.4549 H   0  0  0  0  0  0  0  0  0  0  0  0  # atno 6908 bound_to 6896
  150.6837  134.2799  159.4666 H   0  0  0  0  0  0  0  0  0  0  0  0  # atno 6909 bound_to 6896
  146.1061  139.5770  142.9383 H   0  0  0  0  0  0  0  0  0  0  0  0  # atno 7974 bound_to 7965
  154.4022  140.1549  156.2877 H   0  0  0  0  0  0  0  0  0  0  0  0  # atno 8008 bound_to 7997
  155.8813  140.3443  155.5868 H   0  0  0  0  0  0  0  0  0  0  0  0  # atno 8009 bound_to 7997
  155.7664  140.0824  157.2120 H   0  0  0  0  0  0  0  0  0  0  0  0  # atno 8010 bound_to 7997
  139.9261  143.6326  152.2542 H   0  0  0  0  0  0  0  0  0  0  0  0  # atno 10167 bound_to 10162
  156.5400  130.8559  151.2745 H   0  0  0  0  0  0  0  0  0  0  0  0  # atno 10718 bound_to 10713
  153.3446  135.6982  153.6839 H   0  0  0  0  0  0  0  0  0  0  0  0  # atno 10763 bound_to 10752
  153.5590  135.3538  155.2792 H   0  0  0  0  0  0  0  0  0  0  0  0  # atno 10764 bound_to 10752
  154.8643  135.4244  154.2667 H   0  0  0  0  0  0  0  0  0  0  0  0  # atno 10765 bound_to 10752
  140.2439  134.8029  157.3437 H   0  0  0  0  0  0  0  0  0  0  0  0  # atno 11005 bound_to 11000
  145.5759  141.0388  143.2149 LP  0  0  0  0  0  0  0  0  0  0  0  0  # atno 17320 bound_to 7965
  144.7472  139.7290  143.7287 LP  0  0  0  0  0  0  0  0  0  0  0  0  # atno 17321 bound_to 7965
  139.6821  144.7654  151.1589 LP  0  0  0  0  0  0  0  0  0  0  0  0  # atno 17342 bound_to 10162
  140.7650  143.5709  150.8996 LP  0  0  0  0  0  0  0  0  0  0  0  0  # atno 17343 bound_to 10162
  157.7407  130.9855  150.2395 LP  0  0  0  0  0  0  0  0  0  0  0  0  # atno 17370 bound_to 10713
  156.2981  130.3754  149.7777 LP  0  0  0  0  0  0  0  0  0  0  0  0  # atno 17371 bound_to 10713
  140.1625  134.4710  155.7885 LP  0  0  0  0  0  0  0  0  0  0  0  0  # atno 17394 bound_to 11000
  141.2208  133.6907  156.7569 LP  0  0  0  0  0  0  0  0  0  0  0  0  # atno 17395 bound_to 11000

$$$$
