AV-unprocessed.smi:1651|AV-procd|sdf|6638|dock1
  -GOLD-   22720 7343D 1   1.00000     0.00000
 Structure written by MMmdl.
 43 45  0  0  0  0  0  0  0  0  2 V2000
  146.5423  139.5722  153.8241 O   0  0  0  0  0  0  0  0  0  0  0  0
  147.4237  138.8837  153.3102 C   0  0  0  0  0  0  0  0  0  0  0  0
  147.1860  137.9621  152.3666 N   0  0  0  0  0  0  0  0  0  0  0  0
  145.8740  137.6596  151.8089 C   0  0  0  0  0  0  0  0  0  0  0  0
  145.3538  136.2675  152.1142 C   0  0  0  0  0  0  0  0  0  0  0  0
  144.9284  135.3296  151.0074 C   0  0  0  0  0  0  0  0  0  0  0  0
  143.8915  135.9412  151.9171 C   0  0  0  0  0  0  0  0  0  0  0  0
  148.7305  138.9354  153.6218 N   0  0  0  0  0  0  0  0  0  0  0  0
  149.3892  139.7955  154.5421 C   0  0  0  0  0  0  0  0  0  0  0  0
  150.5065  139.2854  155.2349 C   0  0  0  0  0  0  0  0  0  0  0  0
  151.2035  140.1055  156.1458 C   0  0  0  0  0  0  0  0  0  0  0  0
  150.7858  141.4443  156.3541 C   0  0  0  0  0  0  0  0  0  0  0  0
  151.4181  142.3384  157.2477 N   0  0  0  0  0  0  0  0  0  0  0  0
  151.1669  143.7707  157.0734 C   0  0  0  0  0  0  0  0  0  0  0  0
  152.2062  144.6218  157.8231 C   0  0  0  0  0  0  0  0  0  0  0  0
  152.3015  144.2090  159.2980 C   0  0  0  0  0  0  0  0  0  0  0  0
  152.6056  142.7080  159.3982 C   0  0  0  0  0  0  0  0  0  0  0  0
  151.5613  141.8778  158.6330 C   0  0  0  0  0  0  0  0  0  0  0  0
  149.7128  141.8903  155.6563 N   0  3  0  0  0  0  0  0  0  0  0  0
  149.0150  141.1396  154.7772 C   0  0  0  0  0  0  0  0  0  0  0  0
  147.9670  137.4359  152.0025 H   0  0  0  0  0  0  0  0  0  0  0  0
  145.1686  138.3818  152.2202 H   0  0  0  0  0  0  0  0  0  0  0  0
  145.8810  137.8220  150.7294 H   0  0  0  0  0  0  0  0  0  0  0  0
  145.8187  135.8076  152.9846 H   0  0  0  0  0  0  0  0  0  0  0  0
  144.9772  135.6966  149.9841 H   0  0  0  0  0  0  0  0  0  0  0  0
  145.1495  134.2719  151.1340 H   0  0  0  0  0  0  0  0  0  0  0  0
  143.4184  135.2899  152.6494 H   0  0  0  0  0  0  0  0  0  0  0  0
  143.2510  136.7144  151.4973 H   0  0  0  0  0  0  0  0  0  0  0  0
  149.3199  138.2524  153.1688 H   0  0  0  0  0  0  0  0  0  0  0  0
  150.8313  138.2678  155.0739 H   0  0  0  0  0  0  0  0  0  0  0  0
  152.0574  139.6903  156.6593 H   0  0  0  0  0  0  0  0  0  0  0  0
  151.2068  144.0360  156.0165 H   0  0  0  0  0  0  0  0  0  0  0  0
  150.1629  144.0033  157.4313 H   0  0  0  0  0  0  0  0  0  0  0  0
  153.1821  144.5059  157.3493 H   0  0  0  0  0  0  0  0  0  0  0  0
  151.9485  145.6784  157.7454 H   0  0  0  0  0  0  0  0  0  0  0  0
  153.0777  144.7857  159.8020 H   0  0  0  0  0  0  0  0  0  0  0  0
  151.3632  144.4330  159.8071 H   0  0  0  0  0  0  0  0  0  0  0  0
  153.5986  142.5091  158.9924 H   0  0  0  0  0  0  0  0  0  0  0  0
  152.6317  142.4001  160.4438 H   0  0  0  0  0  0  0  0  0  0  0  0
  150.5914  141.9558  159.1262 H   0  0  0  0  0  0  0  0  0  0  0  0
  151.8541  140.8291  158.6817 H   0  0  0  0  0  0  0  0  0  0  0  0
  148.1977  141.6538  154.2946 H   0  0  0  0  0  0  0  0  0  0  0  0
  149.4117  142.8539  155.8037 H   0  0  0  0  0  0  0  0  0  0  0  0
  1  2  2  0  0  0  0
  2  3  1  0  0  0  0
  2  8  1  0  0  0  0
  3  4  1  0  0  0  0
  3 21  1  0  0  0  0
  4  5  1  0  0  0  0
  4 22  1  0  0  0  0
  4 23  1  0  0  0  0
  5  7  1  0  0  0  0
  5  6  1  0  0  0  0
  5 24  1  0  0  0  0
  6  7  1  0  0  0  0
  6 25  1  0  0  0  0
  6 26  1  0  0  0  0
  7 27  1  0  0  0  0
  7 28  1  0  0  0  0
  8  9  1  0  0  0  0
  8 29  1  0  0  0  0
  9 20  1  0  0  0  0
  9 10  2  0  0  0  0
 10 11  1  0  0  0  0
 10 30  1  0  0  0  0
 11 12  2  0  0  0  0
 11 31  1  0  0  0  0
 12 13  1  0  0  0  0
 12 19  1  0  0  0  0
 13 18  1  0  0  0  0
 13 14  1  0  0  0  0
 14 15  1  0  0  0  0
 14 32  1  0  0  0  0
 14 33  1  0  0  0  0
 15 16  1  0  0  0  0
 15 34  1  0  0  0  0
 15 35  1  0  0  0  0
 16 17  1  0  0  0  0
 16 36  1  0  0  0  0
 16 37  1  0  0  0  0
 17 18  1  0  0  0  0
 17 38  1  0  0  0  0
 17 39  1  0  0  0  0
 18 40  1  0  0  0  0
 18 41  1  0  0  0  0
 19 20  2  0  0  0  0
 19 43  1  0  0  0  0
 20 42  1  0  0  0  0
M  CHG  1  19   1
M  END
> <s_m_source_file>
AV-unprocessed.smi

> <i_m_source_file_index>
1651

> <i_lp_mmshare_version>
43012

> <i_f3d_flags>
0

> <s_epik_input>
W0NIMl0xW0NIMl1bQ0hdMVtDSDJdW05IXUMoPU8pW05IXWMyW2NIXVtjSF1jKG5bY0hdMilOM1tDSDJdW0NIMl1bQ0gyXVtDSDJdW0NIMl0z

> <s_epik_cmdline>
J2VwaWtfcHl0aG9uJywgJy1waCcsICc3LjAnLCAnLXRuJywgJzgnLCAnLW1hJywgJzIwMCcsICctbWV0YWxfYmluZGluZycsICctaW1hZScsICc8aW5maWxlLm1hZT4nLCAnLW9tYWUnLCAnPG91dGZpbGUubWFlPic=

> <r_lp_tautomer_probability>
0.999994

> <r_epik_Ionization_Penalty>
1.09132

> <r_epik_Ionization_Penalty_Charging>
1.09129

> <r_epik_Ionization_Penalty_Neutral>
2.16154e-05

> <r_epik_State_Penalty>
1.1476

> <r_epik_Charging_Adjusted_Penalty>
2.2389

> <i_epik_Tot_Q>
1

> <i_epik_Tot_abs_Q>
1

> <r_epik_Metal_State_Penalty>
1.23617

> <b_epik_Metal_Only>
0

> <s_lp_Force_Field>
OPLS_2005

> <r_lp_Energy>
33.6133

> <b_lp_Chiralities_Consistent>
1

> <s_lp_Variant>
AV-unprocessed.smi:1651-2

> <Gold.Version>
5.8.1

> <Gold.Id.Protein>
6NUR|6NUR_protein|mol2

> <Gold.PLP.Fitness>
52.1211

> <Gold.PLP.PLP>
-43.8772

> <Gold.PLP.part.hbond>
-3.7018

> <Gold.PLP.part.metal>
0.0000

> <Gold.PLP.part.buried>
0.8293

> <Gold.PLP.part.nonpolar>
-42.8967

> <Gold.PLP.part.repulsive>
0.5472

> <Gold.PLP.ligand.clash>
0.0000

> <Gold.PLP.ligand.torsion>
0.9661

> <Gold.PLP.Chemscore.Hbond>
3.0357

> <Gold.PLP.Chemscore.CHOScore>
0.0000

> <Gold.PLP.Chemscore.Metal>
0.0000

> <Gold.Chemscore.Hbonds>
donor molecule, donor type, donor heavy atom, donor atom, acceptor molecule, acceptor atom, score
      L1  H     3    21       P1  7948  1.00
      L1  H     8    29       P1  7948  0.06
      L1  H    19    43       P1  8028  2.00

> <Gold.PLP.Chemscore.Internal.Correction>
1.0691

> <Gold.Rescore>
     Score         DG    S(hbond)    S(metal)    S(lipo)     H(rot)  DE(clash)    DE(int)     intcor
     19.58     -21.25       2.08        0.00     104.66       1.33       0.66       1.02       ----

> <Gold.Chemscore.Fitness>
19.5753

> <Gold.Chemscore.DG>
-21.2527

> <Gold.Chemscore.ZeroCoef>
-5.4800

> <Gold.Chemscore.Hbond>
2.0767

> <Gold.Chemscore.Metal>
0.0000

> <Gold.Chemscore.Lipo>
104.6558

> <Gold.Chemscore.Internal_Hbond>
0.0000

> <Gold.Chemscore.DEClash>
0.6583

> <Gold.Chemscore.DEInternal>
1.0192

> <Gold.Chemscore.Rot>
1.3313

> <Gold.Chemscore.Internal.Correction>
   9.000000E+99

> <Gold.Chemscore.Hbonds>
donor molecule, donor type, donor heavy atom, donor atom, acceptor molecule, acceptor atom, score
      L1  H     3    21       P1  7948  0.93
      L1  H     8    29       P1  7948  0.08
      L1  H    19    43       P1  8028  0.99

> <Gold.Chemscore.Hbond.Weighted>
-6.9362

> <Gold.Chemscore.Metal.Weighted>
-0.0000

> <Gold.Chemscore.Lipo.Weighted>
-12.2447

> <Gold.Chemscore.Internal_Hbond.Weighted>
0.0000

> <Gold.Chemscore.DEClash.Weighted>
0.6583

> <Gold.Chemscore.DEInternal.Weighted>
1.0192

> <Gold.Chemscore.Rot.Weighted>
3.4083

> <Gold.Chemscore.Internal.Correction.Weighted>
   9.000000E+99

> <Gold.Protein.RotatedTorsions>
[ 6907 6896 6895 6894 ] final -154.56 input  -60.11 | X-H torsion
[ 7974 7965 7964 7962 ] final    3.14 input  175.53 | X-H torsion
[ 8008 7997 7996 7995 ] final  166.62 input   59.86 | X-H torsion
[ 10167 10162 10161 10158 ] final   23.15 input  -65.29 | X-H torsion
[ 10718 10713 10712 10709 ] final  164.55 input   66.30 | X-H torsion
[ 10763 10752 10751 10750 ] final  100.34 input  -60.55 | X-H torsion
[ 11005 11000 10999 10996 ] final   78.14 input  -57.11 | X-H torsion

> <Gold.Protein.ActiveResidues>
 VAL166  LYS551  ARG553  GLY616  TRP617  ASP618  TYR619  PRO620  LYS621  CYS622 
 ASP623  PHE694  ASN695  SER759  ASP760  ASP761  ALA762  ILE779  LEU786  VAL792 
 PHE793  MET794  SER795  GLU796  ALA797  LYS798  CYS799  TRP800  GLU811  SER814 

> <Gold.Protein.RotatedAtoms>
  151.2593  133.4310  159.2615 H   0  0  0  0  0  0  0  0  0  0  0  0  # atno 6907 bound_to 6896
  151.0545  134.9695  159.8239 H   0  0  0  0  0  0  0  0  0  0  0  0  # atno 6908 bound_to 6896
  152.5388  134.2546  159.8965 H   0  0  0  0  0  0  0  0  0  0  0  0  # atno 6909 bound_to 6896
  146.2445  140.0730  142.8361 H   0  0  0  0  0  0  0  0  0  0  0  0  # atno 7974 bound_to 7965
  156.1703  140.1638  156.8459 H   0  0  0  0  0  0  0  0  0  0  0  0  # atno 8008 bound_to 7997
  154.5250  140.0769  156.8276 H   0  0  0  0  0  0  0  0  0  0  0  0  # atno 8009 bound_to 7997
  155.3526  140.3391  155.4242 H   0  0  0  0  0  0  0  0  0  0  0  0  # atno 8010 bound_to 7997
  140.5292  143.9870  150.6456 H   0  0  0  0  0  0  0  0  0  0  0  0  # atno 10167 bound_to 10162
  157.0928  131.0422  151.2530 H   0  0  0  0  0  0  0  0  0  0  0  0  # atno 10718 bound_to 10713
  153.3128  135.4082  155.1350 H   0  0  0  0  0  0  0  0  0  0  0  0  # atno 10763 bound_to 10752
  154.8580  135.3568  154.5701 H   0  0  0  0  0  0  0  0  0  0  0  0  # atno 10764 bound_to 10752
  153.6131  135.7067  153.5398 H   0  0  0  0  0  0  0  0  0  0  0  0  # atno 10765 bound_to 10752
  139.9225  134.7740  156.1612 H   0  0  0  0  0  0  0  0  0  0  0  0  # atno 11005 bound_to 11000
  145.0799  140.9214  143.4831 LP  0  0  0  0  0  0  0  0  0  0  0  0  # atno 17320 bound_to 7965
  145.0881  139.2910  143.5749 LP  0  0  0  0  0  0  0  0  0  0  0  0  # atno 17321 bound_to 7965
  140.3241  143.3119  152.0754 LP  0  0  0  0  0  0  0  0  0  0  0  0  # atno 17342 bound_to 10162
  139.4948  144.6554  151.6584 LP  0  0  0  0  0  0  0  0  0  0  0  0  # atno 17343 bound_to 10162
  157.4707  130.7707  149.7320 LP  0  0  0  0  0  0  0  0  0  0  0  0  # atno 17370 bound_to 10713
  155.9893  130.3952  150.3077 LP  0  0  0  0  0  0  0  0  0  0  0  0  # atno 17371 bound_to 10713
  141.0757  133.6776  156.2231 LP  0  0  0  0  0  0  0  0  0  0  0  0  # atno 17394 bound_to 11000
  140.6433  134.5143  157.5571 LP  0  0  0  0  0  0  0  0  0  0  0  0  # atno 17395 bound_to 11000

$$$$
