AV-unprocessed.smi:3323|AV-procd|sdf|12778|dock3
  -GOLD-   2272019123D 1   1.00000     0.00000
 Structure written by MMmdl.
 37 38  0  0  0  0  0  0  0  0  1 V2000
  145.0736  133.4056  151.1284 C   0  0  0  0  0  0  0  0  0  0  0  0
  146.2714  132.5442  151.5437 C   0  0  1  0  0  0  0  0  0  0  0  0
  147.1525  133.2455  152.5944 C   0  0  0  0  0  0  0  0  0  0  0  0
  148.3037  132.3285  153.0471 C   0  0  1  0  0  0  0  0  0  0  0  0
  149.1717  132.9583  154.1563 C   0  0  0  0  0  0  0  0  0  0  0  0
  149.3747  134.3902  153.9614 N   0  0  0  0  0  0  0  0  0  0  0  0
  150.1997  135.1586  154.6860 C   0  0  0  0  0  0  0  0  0  0  0  0
  150.8790  134.7310  155.6188 O   0  0  0  0  0  0  0  0  0  0  0  0
  150.1677  136.4334  154.2608 N   0  0  0  0  0  0  0  0  0  0  0  0
  150.8645  137.5640  154.7683 C   0  0  0  0  0  0  0  0  0  0  0  0
  151.9580  137.4999  155.6663 C   0  0  0  0  0  0  0  0  0  0  0  0
  152.5649  138.6999  156.0846 C   0  0  0  0  0  0  0  0  0  0  0  0
  152.0634  139.9177  155.5862 C   0  0  0  0  0  0  0  0  0  0  0  0
  151.0314  139.9935  154.7199 N   0  0  0  0  0  0  0  0  0  0  0  0
  150.4546  138.8390  154.3235 C   0  0  0  0  0  0  0  0  0  0  0  0
  147.7143  130.9825  153.4967 C   0  0  0  0  0  0  0  0  0  0  0  0
  146.8027  130.3935  152.4085 C   0  0  0  0  0  0  0  0  0  0  0  0
  145.7746  131.3217  152.0806 O   0  0  0  0  0  0  0  0  0  0  0  0
  145.4013  134.3527  150.6993 H   0  0  0  0  0  0  0  0  0  0  0  0
  144.4320  133.6281  151.9816 H   0  0  0  0  0  0  0  0  0  0  0  0
  144.4675  132.8950  150.3798 H   0  0  0  0  0  0  0  0  0  0  0  0
  146.8657  132.3267  150.6543 H   0  0  0  0  0  0  0  0  0  0  0  0
  147.5464  134.1730  152.1776 H   0  0  0  0  0  0  0  0  0  0  0  0
  146.5443  133.5239  153.4562 H   0  0  0  0  0  0  0  0  0  0  0  0
  148.9420  132.1375  152.1830 H   0  0  0  0  0  0  0  0  0  0  0  0
  148.6954  132.8165  155.1268 H   0  0  0  0  0  0  0  0  0  0  0  0
  150.1381  132.4547  154.2137 H   0  0  0  0  0  0  0  0  0  0  0  0
  148.8509  134.8257  153.2164 H   0  0  0  0  0  0  0  0  0  0  0  0
  149.5169  136.6311  153.5150 H   0  0  0  0  0  0  0  0  0  0  0  0
  152.3508  136.5652  156.0339 H   0  0  0  0  0  0  0  0  0  0  0  0
  153.3988  138.6863  156.7705 H   0  0  0  0  0  0  0  0  0  0  0  0
  152.5057  140.8558  155.8879 H   0  0  0  0  0  0  0  0  0  0  0  0
  149.6323  138.9378  153.6297 H   0  0  0  0  0  0  0  0  0  0  0  0
  148.5144  130.2793  153.7300 H   0  0  0  0  0  0  0  0  0  0  0  0
  147.1395  131.1173  154.4139 H   0  0  0  0  0  0  0  0  0  0  0  0
  147.3759  130.1373  151.5161 H   0  0  0  0  0  0  0  0  0  0  0  0
  146.3426  129.4720  152.7654 H   0  0  0  0  0  0  0  0  0  0  0  0
  1  2  1  0  0  0  0
  1 19  1  0  0  0  0
  1 20  1  0  0  0  0
  1 21  1  0  0  0  0
  2 18  1  0  0  0  0
  2  3  1  0  0  0  0
  2 22  1  0  0  0  0
  3  4  1  0  0  0  0
  3 23  1  0  0  0  0
  3 24  1  0  0  0  0
  4  5  1  0  0  0  0
  4 16  1  0  0  0  0
  4 25  1  0  0  0  0
  5  6  1  0  0  0  0
  5 26  1  0  0  0  0
  5 27  1  0  0  0  0
  6  7  1  0  0  0  0
  6 28  1  0  0  0  0
  7  8  2  0  0  0  0
  7  9  1  0  0  0  0
  9 10  1  0  0  0  0
  9 29  1  0  0  0  0
 10 15  1  0  0  0  0
 10 11  2  0  0  0  0
 11 12  1  0  0  0  0
 11 30  1  0  0  0  0
 12 13  2  0  0  0  0
 12 31  1  0  0  0  0
 13 14  1  0  0  0  0
 13 32  1  0  0  0  0
 14 15  2  0  0  0  0
 15 33  1  0  0  0  0
 16 17  1  0  0  0  0
 16 34  1  0  0  0  0
 16 35  1  0  0  0  0
 17 18  1  0  0  0  0
 17 36  1  0  0  0  0
 17 37  1  0  0  0  0
M  END
> <s_m_source_file>
AV-unprocessed.smi

> <i_m_source_file_index>
3323

> <i_lp_mmshare_version>
43012

> <i_f3d_flags>
0

> <s_epik_input>
W0NIM11bQ0BASF0xW0NIMl1bQ0BIXShbQ0gyXVtDSDJdTzEpW0NIMl1bTkhdQyg9TylbTkhdYzJbY0hdW2NIXVtjSF1uW2NIXTI=

> <s_epik_cmdline>
J2VwaWtfcHl0aG9uJywgJy1waCcsICc3LjAnLCAnLXRuJywgJzgnLCAnLW1hJywgJzIwMCcsICctbWV0YWxfYmluZGluZycsICctaW1hZScsICc8aW5maWxlLm1hZT4nLCAnLW9tYWUnLCAnPG91dGZpbGUubWFlPic=

> <r_epik_Ionization_Penalty>
0.00485293

> <r_epik_Ionization_Penalty_Charging>
0

> <r_epik_Ionization_Penalty_Neutral>
0.00485293

> <r_epik_State_Penalty>
0.00349083

> <r_epik_Charging_Adjusted_Penalty>
0.00349083

> <i_epik_Tot_Q>
0

> <i_epik_Tot_abs_Q>
0

> <r_epik_Metal_State_Penalty>
-0

> <b_epik_Metal_Only>
0

> <s_lp_Force_Field>
OPLS_2005

> <r_lp_Energy>
10.9361

> <b_lp_Chiralities_Consistent>
1

> <s_lp_Variant>
AV-unprocessed.smi:3323-2

> <Gold.Version>
5.8.1

> <Gold.Id.Protein>
6NUR|6NUR_protein|mol2

> <Gold.PLP.Fitness>
43.8220

> <Gold.PLP.PLP>
-32.8466

> <Gold.PLP.part.hbond>
-3.9164

> <Gold.PLP.part.metal>
0.0000

> <Gold.PLP.part.buried>
-3.0126

> <Gold.PLP.part.nonpolar>
-25.9073

> <Gold.PLP.part.repulsive>
0.3494

> <Gold.PLP.ligand.clash>
0.0000

> <Gold.PLP.ligand.torsion>
0.2655

> <Gold.PLP.Chemscore.Hbond>
2.9920

> <Gold.PLP.Chemscore.CHOScore>
0.8423

> <Gold.PLP.Chemscore.Metal>
0.0000

> <Gold.Chemscore.Hbonds>
donor molecule, donor type, donor heavy atom, donor atom, acceptor molecule, acceptor atom, score
      L1  H     6    28       P1  7948  0.85
      L1  H     9    29       P1  7948  0.91
      P1  H  7989  7998       L1    14  1.00
      L1  C    15    33       P1  7957  0.57

> <Gold.PLP.Chemscore.Internal.Correction>
0.0033

> <Gold.Rescore>
     Score         DG    S(hbond)    S(metal)    S(lipo)     H(rot)  DE(clash)    DE(int)     intcor
     16.12     -17.37       1.90        0.00      74.26       1.23       0.03       1.21       ----

> <Gold.Chemscore.Fitness>
16.1244

> <Gold.Chemscore.DG>
-17.3678

> <Gold.Chemscore.ZeroCoef>
-5.4800

> <Gold.Chemscore.Hbond>
1.8987

> <Gold.Chemscore.Metal>
0.0000

> <Gold.Chemscore.Lipo>
74.2559

> <Gold.Chemscore.Internal_Hbond>
0.0000

> <Gold.Chemscore.DEClash>
0.0291

> <Gold.Chemscore.DEInternal>
1.2143

> <Gold.Chemscore.Rot>
1.2273

> <Gold.Chemscore.Internal.Correction>
   9.000000E+99

> <Gold.Chemscore.Hbonds>
donor molecule, donor type, donor heavy atom, donor atom, acceptor molecule, acceptor atom, score
      L1  H     6    28       P1  7948  0.21
      L1  H     9    29       P1  7948  0.67
      P1  H  7989  7998       L1    14  0.35

> <Gold.Chemscore.Hbond.Weighted>
-6.3417

> <Gold.Chemscore.Metal.Weighted>
-0.0000

> <Gold.Chemscore.Lipo.Weighted>
-8.6879

> <Gold.Chemscore.Internal_Hbond.Weighted>
0.0000

> <Gold.Chemscore.DEClash.Weighted>
0.0291

> <Gold.Chemscore.DEInternal.Weighted>
1.2143

> <Gold.Chemscore.Rot.Weighted>
3.1418

> <Gold.Chemscore.Internal.Correction.Weighted>
   9.000000E+99

> <Gold.Protein.RotatedTorsions>
[ 6907 6896 6895 6894 ] final  110.58 input  -60.11 | X-H torsion
[ 7974 7965 7964 7962 ] final  -85.70 input  175.53 | X-H torsion
[ 8008 7997 7996 7995 ] final  -42.29 input   59.86 | X-H torsion
[ 10167 10162 10161 10158 ] final  108.25 input  -65.29 | X-H torsion
[ 10718 10713 10712 10709 ] final  128.79 input   66.30 | X-H torsion
[ 10763 10752 10751 10750 ] final   41.34 input  -60.55 | X-H torsion
[ 11005 11000 10999 10996 ] final  -82.34 input  -57.11 | X-H torsion

> <Gold.Protein.ActiveResidues>
 VAL166  LYS551  ARG553  GLY616  TRP617  ASP618  TYR619  PRO620  LYS621  CYS622 
 ASP623  PHE694  ASN695  SER759  ASP760  ASP761  ALA762  ILE779  LEU786  VAL792 
 PHE793  MET794  SER795  GLU796  ALA797  LYS798  CYS799  TRP800  GLU811  SER814 

> <Gold.Protein.RotatedAtoms>
  152.5012  133.8780  159.7331 H   0  0  0  0  0  0  0  0  0  0  0  0  # atno 6907 bound_to 6896
  150.9249  133.6826  159.2830 H   0  0  0  0  0  0  0  0  0  0  0  0  # atno 6908 bound_to 6896
  151.4191  135.1000  159.9661 H   0  0  0  0  0  0  0  0  0  0  0  0  # atno 6909 bound_to 6896
  145.4898  140.9553  143.1818 H   0  0  0  0  0  0  0  0  0  0  0  0  # atno 7974 bound_to 7965
  154.3999  140.1477  156.3331 H   0  0  0  0  0  0  0  0  0  0  0  0  # atno 8008 bound_to 7997
  155.8425  140.3461  155.5620 H   0  0  0  0  0  0  0  0  0  0  0  0  # atno 8009 bound_to 7997
  155.8071  140.0878  157.1915 H   0  0  0  0  0  0  0  0  0  0  0  0  # atno 8010 bound_to 7997
  139.6861  144.7113  151.1429 H   0  0  0  0  0  0  0  0  0  0  0  0  # atno 10167 bound_to 10162
  157.5213  131.1098  150.9150 H   0  0  0  0  0  0  0  0  0  0  0  0  # atno 10718 bound_to 10713
  152.9911  135.6164  154.2772 H   0  0  0  0  0  0  0  0  0  0  0  0  # atno 10763 bound_to 10752
  154.2502  135.2785  155.2821 H   0  0  0  0  0  0  0  0  0  0  0  0  # atno 10764 bound_to 10752
  154.5294  135.5792  153.6804 H   0  0  0  0  0  0  0  0  0  0  0  0  # atno 10765 bound_to 10752
  141.1663  133.7240  156.8557 H   0  0  0  0  0  0  0  0  0  0  0  0  # atno 11005 bound_to 11000
  144.7841  139.6464  143.7142 LP  0  0  0  0  0  0  0  0  0  0  0  0  # atno 17320 bound_to 7965
  146.2291  139.5779  142.9567 LP  0  0  0  0  0  0  0  0  0  0  0  0  # atno 17321 bound_to 7965
  140.7668  143.5627  150.9081 LP  0  0  0  0  0  0  0  0  0  0  0  0  # atno 17342 bound_to 10162
  139.9302  143.6502  152.3078 LP  0  0  0  0  0  0  0  0  0  0  0  0  # atno 17343 bound_to 10162
  156.9760  130.5509  149.5293 LP  0  0  0  0  0  0  0  0  0  0  0  0  # atno 17370 bound_to 10713
  156.0355  130.5443  150.8643 LP  0  0  0  0  0  0  0  0  0  0  0  0  # atno 17371 bound_to 10713
  140.1884  134.8983  157.3031 LP  0  0  0  0  0  0  0  0  0  0  0  0  # atno 17394 bound_to 11000
  140.2317  134.3901  155.7519 LP  0  0  0  0  0  0  0  0  0  0  0  0  # atno 17395 bound_to 11000

$$$$
