AV-unprocessed.smi:72|AV-procd|sdf|674|dock8
  -GOLD-   2262016583D 1   1.00000     0.00000
 Structure written by MMmdl.
 29 30  0  0  0  0  0  0  0  0  1 V2000
  152.3041  136.6052  155.6195 N   0  0  0  0  0  0  0  0  0  0  0  0
  151.6243  137.6628  155.3529 C   0  0  0  0  0  0  0  0  0  0  0  0
  150.8590  137.8643  154.1954 N   0  0  0  0  0  0  0  0  0  0  0  0
  150.1907  138.9696  154.0757 C   0  0  0  0  0  0  0  0  0  0  0  0
  150.1687  139.9881  155.1201 N   0  0  0  0  0  0  0  0  0  0  0  0
  149.4117  141.2988  154.9448 C   0  0  1  0  0  0  0  0  0  0  0  0
  148.9528  141.4067  153.6241 O   0  0  0  0  0  0  0  0  0  0  0  0
  147.5477  141.1774  153.5287 C   0  0  1  0  0  0  0  0  0  0  0  0
  147.2459  139.6748  153.3249 C   0  0  0  0  0  0  0  0  0  0  0  0
  146.2886  139.5122  152.3003 O   0  0  0  0  0  0  0  0  0  0  0  0
  147.0569  141.7655  154.8555 C   0  0  1  0  0  0  0  0  0  0  0  0
  145.7978  141.2621  155.2572 O   0  0  0  0  0  0  0  0  0  0  0  0
  148.1544  141.3924  155.8438 C   0  0  2  0  0  0  0  0  0  0  0  0
  148.2741  142.4140  156.8134 O   0  0  0  0  0  0  0  0  0  0  0  0
  151.0268  139.8415  156.2412 C   0  0  0  0  0  0  0  0  0  0  0  0
  151.1651  140.7198  157.0919 O   0  0  0  0  0  0  0  0  0  0  0  0
  151.6927  138.6695  156.3234 N   0  0  0  0  0  0  0  0  0  0  0  0
  150.1584  142.0709  155.1383 H   0  0  0  0  0  0  0  0  0  0  0  0
  147.1329  141.7450  152.6946 H   0  0  0  0  0  0  0  0  0  0  0  0
  146.9932  142.8502  154.7509 H   0  0  0  0  0  0  0  0  0  0  0  0
  147.9436  140.4274  156.3075 H   0  0  0  0  0  0  0  0  0  0  0  0
  152.7758  136.7003  156.5070 H   0  0  0  0  0  0  0  0  0  0  0  0
  149.6056  139.1959  153.1842 H   0  0  0  0  0  0  0  0  0  0  0  0
  148.1408  139.0925  153.1113 H   0  0  0  0  0  0  0  0  0  0  0  0
  146.8046  139.2487  154.2256 H   0  0  0  0  0  0  0  0  0  0  0  0
  145.5612  140.0900  152.4738 H   0  0  0  0  0  0  0  0  0  0  0  0
  145.1586  141.9523  155.1653 H   0  0  0  0  0  0  0  0  0  0  0  0
  148.2288  143.2490  156.3720 H   0  0  0  0  0  0  0  0  0  0  0  0
  152.2900  138.5295  157.1251 H   0  0  0  0  0  0  0  0  0  0  0  0
  1  2  2  0  0  0  0
  1 22  1  0  0  0  0
  2 17  1  0  0  0  0
  2  3  1  0  0  0  0
  3  4  2  0  0  0  0
  4  5  1  0  0  0  0
  4 23  1  0  0  0  0
  5  6  1  0  0  0  0
  5 15  1  0  0  0  0
  6 18  1  0  0  0  0
  6 13  1  0  0  0  0
  6  7  1  0  0  0  0
  7  8  1  0  0  0  0
  8 19  1  0  0  0  0
  8  9  1  0  0  0  0
  8 11  1  0  0  0  0
  9 10  1  0  0  0  0
  9 24  1  0  0  0  0
  9 25  1  0  0  0  0
 10 26  1  0  0  0  0
 11 20  1  0  0  0  0
 11 12  1  0  0  0  0
 11 13  1  0  0  0  0
 12 27  1  0  0  0  0
 13 21  1  0  0  0  0
 13 14  1  0  0  0  0
 14 28  1  0  0  0  0
 15 16  2  0  0  0  0
 15 17  1  0  0  0  0
 17 29  1  0  0  0  0
M  END
> <s_m_source_file>
AV-unprocessed.smi

> <i_m_source_file_index>
72

> <i_lp_mmshare_version>
43012

> <i_f3d_flags>
0

> <s_epik_input>
W05IMl1jMW5bY0hdbihjKD1PKW4xKVtDQEBIXTJPW0NASF0oW0NIMl1bT0hdKVtDQEBIXShbT0hdKVtDQEhdMltPSF0=

> <s_epik_cmdline>
J2VwaWtfcHl0aG9uJywgJy1waCcsICc3LjAnLCAnLXRuJywgJzgnLCAnLW1hJywgJzIwMCcsICctbWV0YWxfYmluZGluZycsICctaW1hZScsICc8aW5maWxlLm1hZT4nLCAnLW9tYWUnLCAnPG91dGZpbGUubWFlPic=

> <r_lp_tautomer_probability>
7.17554e-07

> <r_epik_Ionization_Penalty>
0.0066451

> <r_epik_Ionization_Penalty_Charging>
0.00663793

> <r_epik_Ionization_Penalty_Neutral>
7.17052e-06

> <r_epik_State_Penalty>
0.419231

> <r_epik_Charging_Adjusted_Penalty>
0.425868

> <i_epik_Tot_Q>
0

> <i_epik_Tot_abs_Q>
0

> <r_epik_Metal_State_Penalty>
1.44144

> <b_epik_Metal_Only>
0

> <s_epik_Chemistry_Notes>
This compound contains an acetal/aminal-like group ( X-CH(R)-Y where X, Y are N, S, or O) that may be acid/base labile, releasing an aldehyde.

> <s_lp_Force_Field>
OPLS_2005

> <r_lp_Energy>
41.469

> <b_lp_Chiralities_Consistent>
1

> <s_lp_Variant>
AV-unprocessed.smi:72-12

> <Gold.Version>
5.8.1

> <Gold.Id.Protein>
6NUR|6NUR_protein|mol2

> <Gold.PLP.Fitness>
37.9249

> <Gold.PLP.PLP>
-25.3344

> <Gold.PLP.part.hbond>
-4.5440

> <Gold.PLP.part.metal>
0.0000

> <Gold.PLP.part.buried>
-4.7517

> <Gold.PLP.part.nonpolar>
-18.9082

> <Gold.PLP.part.repulsive>
2.1246

> <Gold.PLP.ligand.clash>
0.0000

> <Gold.PLP.ligand.torsion>
1.0141

> <Gold.PLP.Chemscore.Hbond>
3.8400

> <Gold.PLP.Chemscore.CHOScore>
1.0000

> <Gold.PLP.Chemscore.Metal>
0.0000

> <Gold.Chemscore.Hbonds>
donor molecule, donor type, donor heavy atom, donor atom, acceptor molecule, acceptor atom, score
      L1  H    10    26       P1 10175  1.00
      L1  H    14    28       P1  8028  1.00
      P1  H  8011  8017       L1     7  0.83
      P1  H 10752 10765       L1     1  0.92
      L1  C     4    23       P1  7957  1.00

> <Gold.PLP.Chemscore.Internal.Correction>
0.0987

> <Gold.Rescore>
     Score         DG    S(hbond)    S(metal)    S(lipo)     H(rot)  DE(clash)    DE(int)     intcor
      7.80     -10.03       3.59        0.00      25.16       4.06       1.39       0.83       ----

> <Gold.Chemscore.Fitness>
7.8005

> <Gold.Chemscore.DG>
-10.0279

> <Gold.Chemscore.ZeroCoef>
-5.4800

> <Gold.Chemscore.Hbond>
3.5920

> <Gold.Chemscore.Metal>
0.0000

> <Gold.Chemscore.Lipo>
25.1631

> <Gold.Chemscore.Internal_Hbond>
0.0000

> <Gold.Chemscore.DEClash>
1.3949

> <Gold.Chemscore.DEInternal>
0.8325

> <Gold.Chemscore.Rot>
4.0600

> <Gold.Chemscore.Internal.Correction>
   9.000000E+99

> <Gold.Chemscore.Hbonds>
donor molecule, donor type, donor heavy atom, donor atom, acceptor molecule, acceptor atom, score
      L1  H    10    26       P1 10175  0.84
      L1  H    14    28       P1  8028  0.44
      P1  H  8011  8017       L1     7  0.80
      P1  H 10752 10765       L1     1  0.62

> <Gold.Chemscore.Hbond.Weighted>
-11.9974

> <Gold.Chemscore.Metal.Weighted>
-0.0000

> <Gold.Chemscore.Lipo.Weighted>
-2.9441

> <Gold.Chemscore.Internal_Hbond.Weighted>
0.0000

> <Gold.Chemscore.DEClash.Weighted>
1.3949

> <Gold.Chemscore.DEInternal.Weighted>
0.8325

> <Gold.Chemscore.Rot.Weighted>
10.3936

> <Gold.Chemscore.Internal.Correction.Weighted>
   9.000000E+99

> <Gold.Protein.RotatedTorsions>
[ 6907 6896 6895 6894 ] final -171.18 input  -60.11 | X-H torsion
[ 7974 7965 7964 7962 ] final   53.00 input  175.53 | X-H torsion
[ 8008 7997 7996 7995 ] final  -51.82 input   59.86 | X-H torsion
[ 10167 10162 10161 10158 ] final -104.00 input  -65.29 | X-H torsion
[ 10718 10713 10712 10709 ] final  159.03 input   66.30 | X-H torsion
[ 10763 10752 10751 10750 ] final -170.14 input  -60.55 | X-H torsion
[ 11005 11000 10999 10996 ] final   -7.03 input  -57.11 | X-H torsion

> <Gold.Protein.ActiveResidues>
 VAL166  LYS551  ARG553  GLY616  TRP617  ASP618  TYR619  PRO620  LYS621  CYS622 
 ASP623  PHE694  ASN695  SER759  ASP760  ASP761  ALA762  ILE779  LEU786  VAL792 
 PHE793  MET794  SER795  GLU796  ALA797  LYS798  CYS799  TRP800  GLU811  SER814 

> <Gold.Protein.RotatedAtoms>
  151.5197  133.3469  159.2898 H   0  0  0  0  0  0  0  0  0  0  0  0  # atno 6907 bound_to 6896
  150.8660  134.8026  159.7130 H   0  0  0  0  0  0  0  0  0  0  0  0  # atno 6908 bound_to 6896
  152.4664  134.5073  159.9795 H   0  0  0  0  0  0  0  0  0  0  0  0  # atno 6909 bound_to 6896
  145.9757  139.4192  143.0163 H   0  0  0  0  0  0  0  0  0  0  0  0  # atno 7974 bound_to 7965
  154.4092  140.1238  156.4892 H   0  0  0  0  0  0  0  0  0  0  0  0  # atno 8008 bound_to 7997
  155.7007  140.3495  155.4912 H   0  0  0  0  0  0  0  0  0  0  0  0  # atno 8009 bound_to 7997
  155.9387  140.1083  157.1063 H   0  0  0  0  0  0  0  0  0  0  0  0  # atno 8010 bound_to 7997
  140.2140  143.3725  152.1027 H   0  0  0  0  0  0  0  0  0  0  0  0  # atno 10167 bound_to 10162
  157.1698  131.0607  151.2189 H   0  0  0  0  0  0  0  0  0  0  0  0  # atno 10718 bound_to 10713
  154.6448  135.2903  155.0060 H   0  0  0  0  0  0  0  0  0  0  0  0  # atno 10763 bound_to 10752
  154.1174  135.6553  153.4900 H   0  0  0  0  0  0  0  0  0  0  0  0  # atno 10764 bound_to 10752
  153.0345  135.5279  154.7330 H   0  0  0  0  0  0  0  0  0  0  0  0  # atno 10765 bound_to 10752
  140.7083  133.8930  155.8732 H   0  0  0  0  0  0  0  0  0  0  0  0  # atno 11005 bound_to 11000
  145.7843  140.9843  143.1083 LP  0  0  0  0  0  0  0  0  0  0  0  0  # atno 17320 bound_to 7965
  144.6848  139.9603  143.7480 LP  0  0  0  0  0  0  0  0  0  0  0  0  # atno 17321 bound_to 7965
  139.5169  144.6984  151.5564 LP  0  0  0  0  0  0  0  0  0  0  0  0  # atno 17342 bound_to 10162
  140.6303  143.9089  150.6600 LP  0  0  0  0  0  0  0  0  0  0  0  0  # atno 17343 bound_to 10162
  157.4054  130.7356  149.6798 LP  0  0  0  0  0  0  0  0  0  0  0  0  # atno 17370 bound_to 10713
  155.9740  130.4109  150.3956 LP  0  0  0  0  0  0  0  0  0  0  0  0  # atno 17371 bound_to 10713
  141.0106  134.1026  157.4225 LP  0  0  0  0  0  0  0  0  0  0  0  0  # atno 17394 bound_to 11000
  139.8878  135.0093  156.6583 LP  0  0  0  0  0  0  0  0  0  0  0  0  # atno 17395 bound_to 11000

$$$$
