AV-unprocessed.smi:1703|AV-procd|sdf|6863|dock7
  -GOLD-   22720 8 53D 1   1.00000     0.00000
 Structure written by MMmdl.
 49 51  0  0  0  0  0  0  0  0  2 V2000
  145.6456  134.6579  155.4751 C   0  0  0  0  0  0  0  0  0  0  0  0
  146.0080  135.4581  154.2192 C   0  0  2  0  0  0  0  0  0  0  0  0
  146.4154  136.9060  154.5515 C   0  0  0  0  0  0  0  0  0  0  0  0
  146.6808  137.6711  153.3104 N   0  3  2  0  0  0  0  0  0  0  0  0
  147.1412  139.0554  153.5878 C   0  0  0  0  0  0  0  0  0  0  0  0
  148.2449  139.1127  154.6670 C   0  0  2  0  0  0  0  0  0  0  0  0
  147.6409  139.2823  155.9333 O   0  0  0  0  0  0  0  0  0  0  0  0
  149.2489  140.2660  154.4667 C   0  0  0  0  0  0  0  0  0  0  0  0
  150.3841  140.1884  155.3769 N   0  0  0  0  0  0  0  0  0  0  0  0
  151.4276  139.3193  155.3605 C   0  0  0  0  0  0  0  0  0  0  0  0
  151.5636  138.2433  154.3270 C   0  0  0  0  0  0  0  0  0  0  0  0
  151.5223  136.9462  154.8814 O   0  0  0  0  0  0  0  0  0  0  0  0
  152.3293  139.4782  156.3296 N   0  0  0  0  0  0  0  0  0  0  0  0
  151.8336  140.5575  157.0339 C   0  0  0  0  0  0  0  0  0  0  0  0
  152.3368  141.2175  158.1777 C   0  0  0  0  0  0  0  0  0  0  0  0
  151.6464  142.3166  158.7290 C   0  0  0  0  0  0  0  0  0  0  0  0
  150.4456  142.7705  158.1458 C   0  0  0  0  0  0  0  0  0  0  0  0
  149.9261  142.1262  157.0066 C   0  0  0  0  0  0  0  0  0  0  0  0
  150.6184  141.0285  156.4612 C   0  0  0  0  0  0  0  0  0  0  0  0
  145.5090  137.6011  152.4027 C   0  0  0  0  0  0  0  0  0  0  0  0
  145.1304  136.1339  152.1254 C   0  0  2  0  0  0  0  0  0  0  0  0
  143.8789  136.0146  151.2487 C   0  0  0  0  0  0  0  0  0  0  0  0
  144.8715  135.4792  153.3625 O   0  0  0  0  0  0  0  0  0  0  0  0
  146.4918  134.5969  156.1599 H   0  0  0  0  0  0  0  0  0  0  0  0
  145.3534  133.6397  155.2173 H   0  0  0  0  0  0  0  0  0  0  0  0
  144.8140  135.1169  156.0106 H   0  0  0  0  0  0  0  0  0  0  0  0
  146.8306  134.9517  153.7110 H   0  0  0  0  0  0  0  0  0  0  0  0
  145.6267  137.4007  155.1213 H   0  0  0  0  0  0  0  0  0  0  0  0
  147.3085  136.9002  155.1777 H   0  0  0  0  0  0  0  0  0  0  0  0
  147.4810  139.5018  152.6524 H   0  0  0  0  0  0  0  0  0  0  0  0
  146.2983  139.6606  153.9251 H   0  0  0  0  0  0  0  0  0  0  0  0
  148.8006  138.1762  154.6870 H   0  0  0  0  0  0  0  0  0  0  0  0
  148.2074  138.9097  156.5921 H   0  0  0  0  0  0  0  0  0  0  0  0
  149.6047  140.2850  153.4370 H   0  0  0  0  0  0  0  0  0  0  0  0
  148.7534  141.2239  154.6304 H   0  0  0  0  0  0  0  0  0  0  0  0
  150.7556  138.3369  153.6005 H   0  0  0  0  0  0  0  0  0  0  0  0
  152.4946  138.3754  153.7763 H   0  0  0  0  0  0  0  0  0  0  0  0
  150.7749  136.8876  155.4566 H   0  0  0  0  0  0  0  0  0  0  0  0
  153.2569  140.8789  158.6306 H   0  0  0  0  0  0  0  0  0  0  0  0
  152.0411  142.8147  159.6027 H   0  0  0  0  0  0  0  0  0  0  0  0
  149.9247  143.6151  158.5729 H   0  0  0  0  0  0  0  0  0  0  0  0
  149.0082  142.4740  156.5570 H   0  0  0  0  0  0  0  0  0  0  0  0
  144.6665  138.1286  152.8532 H   0  0  0  0  0  0  0  0  0  0  0  0
  145.7278  138.0990  151.4589 H   0  0  0  0  0  0  0  0  0  0  0  0
  145.9564  135.6311  151.6187 H   0  0  0  0  0  0  0  0  0  0  0  0
  144.0287  136.4969  150.2824 H   0  0  0  0  0  0  0  0  0  0  0  0
  143.0156  136.4802  151.7250 H   0  0  0  0  0  0  0  0  0  0  0  0
  143.6324  134.9692  151.0620 H   0  0  0  0  0  0  0  0  0  0  0  0
  147.4461  137.2033  152.8450 H   0  0  0  0  0  0  0  0  0  0  0  0
  1  2  1  0  0  0  0
  1 24  1  0  0  0  0
  1 25  1  0  0  0  0
  1 26  1  0  0  0  0
  2 23  1  0  0  0  0
  2  3  1  0  0  0  0
  2 27  1  0  0  0  0
  3  4  1  0  0  0  0
  3 28  1  0  0  0  0
  3 29  1  0  0  0  0
  4  5  1  0  0  0  0
  4 20  1  0  0  0  0
  4 49  1  0  0  0  0
  5  6  1  0  0  0  0
  5 30  1  0  0  0  0
  5 31  1  0  0  0  0
  6  7  1  0  0  0  0
  6  8  1  0  0  0  0
  6 32  1  0  0  0  0
  7 33  1  0  0  0  0
  8  9  1  0  0  0  0
  8 34  1  0  0  0  0
  8 35  1  0  0  0  0
  9 19  1  0  0  0  0
  9 10  1  0  0  0  0
 10 11  1  0  0  0  0
 10 13  2  0  0  0  0
 11 12  1  0  0  0  0
 11 36  1  0  0  0  0
 11 37  1  0  0  0  0
 12 38  1  0  0  0  0
 13 14  1  0  0  0  0
 14 19  2  0  0  0  0
 14 15  1  0  0  0  0
 15 16  2  0  0  0  0
 15 39  1  0  0  0  0
 16 17  1  0  0  0  0
 16 40  1  0  0  0  0
 17 18  2  0  0  0  0
 17 41  1  0  0  0  0
 18 19  1  0  0  0  0
 18 42  1  0  0  0  0
 20 21  1  0  0  0  0
 20 43  1  0  0  0  0
 20 44  1  0  0  0  0
 21 22  1  0  0  0  0
 21 23  1  0  0  0  0
 21 45  1  0  0  0  0
 22 46  1  0  0  0  0
 22 47  1  0  0  0  0
 22 48  1  0  0  0  0
M  CHG  1   4   1
M  END
> <s_m_source_file>
AV-unprocessed.smi

> <i_m_source_file_index>
1703

> <i_lp_mmshare_version>
43012

> <i_f3d_flags>
0

> <s_epik_input>
W0NIM11bQ0BASF0xW0NIMl1OKFtDSDJdW0NASF0oTzEpW0NIM10pW0NIMl1bQ0BIXShbT0hdKVtDSDJdbihjKG4yKVtDSDJdW09IXSljKGMyMylbY0hdW2NIXVtjSF1bY0hdMw==

> <s_epik_cmdline>
J2VwaWtfcHl0aG9uJywgJy1waCcsICc3LjAnLCAnLXRuJywgJzgnLCAnLW1hJywgJzIwMCcsICctbWV0YWxfYmluZGluZycsICctaW1hZScsICc8aW5maWxlLm1hZT4nLCAnLW9tYWUnLCAnPG91dGZpbGUubWFlPic=

> <r_epik_Ionization_Penalty>
0.655661

> <r_epik_Ionization_Penalty_Charging>
0.608065

> <r_epik_Ionization_Penalty_Neutral>
0.0475963

> <r_epik_State_Penalty>
0.695267

> <r_epik_Charging_Adjusted_Penalty>
1.30333

> <i_epik_Tot_Q>
1

> <i_epik_Tot_abs_Q>
1

> <r_epik_Metal_State_Penalty>
0.653591

> <b_epik_Metal_Only>
0

> <s_lp_Force_Field>
OPLS_2005

> <r_lp_Energy>
21.8251

> <b_lp_Chiralities_Consistent>
1

> <s_lp_Variant>
AV-unprocessed.smi:1703-11

> <Gold.Version>
5.8.1

> <Gold.Id.Protein>
6NUR|6NUR_protein|mol2

> <Gold.PLP.Fitness>
46.5338

> <Gold.PLP.PLP>
-35.7234

> <Gold.PLP.part.hbond>
-3.0000

> <Gold.PLP.part.metal>
0.0000

> <Gold.PLP.part.buried>
-3.0548

> <Gold.PLP.part.nonpolar>
-29.4315

> <Gold.PLP.part.repulsive>
0.1028

> <Gold.PLP.ligand.clash>
0.0000

> <Gold.PLP.ligand.torsion>
0.6278

> <Gold.PLP.Chemscore.Hbond>
4.0000

> <Gold.PLP.Chemscore.CHOScore>
0.0000

> <Gold.PLP.Chemscore.Metal>
0.0000

> <Gold.Chemscore.Hbonds>
donor molecule, donor type, donor heavy atom, donor atom, acceptor molecule, acceptor atom, score
      L1  H     4    49       P1  7948  1.95
      P1  H  7997  8010       L1    13  0.66
      P1  H 10752 10764       L1    12  1.00

> <Gold.PLP.Chemscore.Internal.Correction>
0.0661

> <Gold.Rescore>
     Score         DG    S(hbond)    S(metal)    S(lipo)     H(rot)  DE(clash)    DE(int)     intcor
     15.17     -17.03       2.60        0.00      89.35       2.96       0.18       1.68       ----

> <Gold.Chemscore.Fitness>
15.1677

> <Gold.Chemscore.DG>
-17.0291

> <Gold.Chemscore.ZeroCoef>
-5.4800

> <Gold.Chemscore.Hbond>
2.5976

> <Gold.Chemscore.Metal>
0.0000

> <Gold.Chemscore.Lipo>
89.3454

> <Gold.Chemscore.Internal_Hbond>
0.0000

> <Gold.Chemscore.DEClash>
0.1832

> <Gold.Chemscore.DEInternal>
1.6781

> <Gold.Chemscore.Rot>
2.9611

> <Gold.Chemscore.Internal.Correction>
   9.000000E+99

> <Gold.Chemscore.Hbonds>
donor molecule, donor type, donor heavy atom, donor atom, acceptor molecule, acceptor atom, score
      L1  H     4    49       P1  7948  0.91
      P1  H  7997  8010       L1    13  0.13
      P1  H 10752 10764       L1    12  0.93

> <Gold.Chemscore.Hbond.Weighted>
-8.6760

> <Gold.Chemscore.Metal.Weighted>
-0.0000

> <Gold.Chemscore.Lipo.Weighted>
-10.4534

> <Gold.Chemscore.Internal_Hbond.Weighted>
0.0000

> <Gold.Chemscore.DEClash.Weighted>
0.1832

> <Gold.Chemscore.DEInternal.Weighted>
1.6781

> <Gold.Chemscore.Rot.Weighted>
7.5803

> <Gold.Chemscore.Internal.Correction.Weighted>
   9.000000E+99

> <Gold.Protein.RotatedTorsions>
[ 6907 6896 6895 6894 ] final  -56.32 input  -60.11 | X-H torsion
[ 7974 7965 7964 7962 ] final -179.74 input  175.53 | X-H torsion
[ 8008 7997 7996 7995 ] final   88.27 input   59.86 | X-H torsion
[ 10167 10162 10161 10158 ] final -128.96 input  -65.29 | X-H torsion
[ 10718 10713 10712 10709 ] final   87.19 input   66.30 | X-H torsion
[ 10763 10752 10751 10750 ] final  -73.29 input  -60.55 | X-H torsion
[ 11005 11000 10999 10996 ] final   25.10 input  -57.11 | X-H torsion

> <Gold.Protein.ActiveResidues>
 VAL166  LYS551  ARG553  GLY616  TRP617  ASP618  TYR619  PRO620  LYS621  CYS622 
 ASP623  PHE694  ASN695  SER759  ASP760  ASP761  ALA762  ILE779  LEU786  VAL792 
 PHE793  MET794  SER795  GLU796  ALA797  LYS798  CYS799  TRP800  GLU811  SER814 

> <Gold.Protein.RotatedAtoms>
  150.8177  134.7368  159.6744 H   0  0  0  0  0  0  0  0  0  0  0  0  # atno 6907 bound_to 6896
  152.4295  134.5802  159.9955 H   0  0  0  0  0  0  0  0  0  0  0  0  # atno 6908 bound_to 6896
  151.5994  133.3320  159.3080 H   0  0  0  0  0  0  0  0  0  0  0  0  # atno 6909 bound_to 6896
  144.7139  140.0672  143.6430 H   0  0  0  0  0  0  0  0  0  0  0  0  # atno 7974 bound_to 7965
  155.9857  140.3373  155.6705 H   0  0  0  0  0  0  0  0  0  0  0  0  # atno 8008 bound_to 7997
  155.6488  140.0703  157.2612 H   0  0  0  0  0  0  0  0  0  0  0  0  # atno 8009 bound_to 7997
  154.4204  140.1729  156.1640 H   0  0  0  0  0  0  0  0  0  0  0  0  # atno 8010 bound_to 7997
  139.9448  143.6123  152.2493 H   0  0  0  0  0  0  0  0  0  0  0  0  # atno 10167 bound_to 10162
  157.6937  131.0245  150.3086 H   0  0  0  0  0  0  0  0  0  0  0  0  # atno 10718 bound_to 10713
  154.4575  135.5902  153.6233 H   0  0  0  0  0  0  0  0  0  0  0  0  # atno 10763 bound_to 10752
  152.9819  135.6036  154.3528 H   0  0  0  0  0  0  0  0  0  0  0  0  # atno 10764 bound_to 10752
  154.3396  135.2842  155.2408 H   0  0  0  0  0  0  0  0  0  0  0  0  # atno 10765 bound_to 10752
  140.3515  134.2224  155.7679 H   0  0  0  0  0  0  0  0  0  0  0  0  # atno 11005 bound_to 11000
  145.9814  139.2944  143.1040 LP  0  0  0  0  0  0  0  0  0  0  0  0  # atno 17320 bound_to 7965
  145.9006  140.9245  143.0505 LP  0  0  0  0  0  0  0  0  0  0  0  0  # atno 17321 bound_to 7965
  139.6676  144.7662  151.1844 LP  0  0  0  0  0  0  0  0  0  0  0  0  # atno 17342 bound_to 10162
  140.7600  143.5914  150.8792 LP  0  0  0  0  0  0  0  0  0  0  0  0  # atno 17343 bound_to 10162
  156.3590  130.3844  149.7266 LP  0  0  0  0  0  0  0  0  0  0  0  0  # atno 17370 bound_to 10713
  156.4719  130.8000  151.3018 LP  0  0  0  0  0  0  0  0  0  0  0  0  # atno 17371 bound_to 10713
  141.2011  133.7972  157.0459 LP  0  0  0  0  0  0  0  0  0  0  0  0  # atno 17394 bound_to 11000
  140.0699  134.9708  157.1450 LP  0  0  0  0  0  0  0  0  0  0  0  0  # atno 17395 bound_to 11000

$$$$
