AV-unprocessed.smi:3198|AV-procd|sdf|12229|dock4
  -GOLD-   2272018 63D 1   1.00000     0.00000
 Structure written by MMmdl.
 37 38  0  0  0  0  0  0  0  0  1 V2000
  151.9206  144.8026  159.7713 C   0  0  0  0  0  0  0  0  0  0  0  0
  152.2096  143.3170  159.7245 C   0  0  0  0  0  0  0  0  0  0  0  0
  153.0670  142.7145  160.6678 C   0  0  0  0  0  0  0  0  0  0  0  0
  153.2961  141.3291  160.5713 C   0  0  0  0  0  0  0  0  0  0  0  0
  152.6656  140.6056  159.5403 C   0  0  0  0  0  0  0  0  0  0  0  0
  151.8267  141.2955  158.6396 C   0  0  0  0  0  0  0  0  0  0  0  0
  151.2027  140.5693  157.6145 N   0  0  0  0  0  0  0  0  0  0  0  0
  151.7850  139.3429  157.0818 C   0  0  0  0  0  0  0  0  0  0  0  0
  152.2203  139.4882  155.6166 C   0  0  0  0  0  0  0  0  0  0  0  0
  151.1627  140.0723  154.8742 O   0  0  0  0  0  0  0  0  0  0  0  0
  149.9326  139.3880  155.0418 C   0  0  0  0  0  0  0  0  0  0  0  0
  148.8528  140.0963  154.2149 C   0  0  2  0  0  0  0  0  0  0  0  0
  148.8230  141.6111  154.4084 C   0  0  0  0  0  0  0  0  0  0  0  0
  147.3923  141.9856  154.0541 C   0  0  0  0  0  0  0  0  0  0  0  0
  146.6347  140.6555  154.1094 C   0  0  0  0  0  0  0  0  0  0  0  0
  147.5569  139.7218  154.6543 O   0  0  0  0  0  0  0  0  0  0  0  0
  151.6020  142.6279  158.7341 N   0  0  0  0  0  0  0  0  0  0  0  0
  152.3604  145.2639  160.6561 H   0  0  0  0  0  0  0  0  0  0  0  0
  150.8450  144.9802  159.7954 H   0  0  0  0  0  0  0  0  0  0  0  0
  152.3312  145.2952  158.8894 H   0  0  0  0  0  0  0  0  0  0  0  0
  153.5376  143.2961  161.4468 H   0  0  0  0  0  0  0  0  0  0  0  0
  153.9448  140.8294  161.2755 H   0  0  0  0  0  0  0  0  0  0  0  0
  152.8270  139.5417  159.4458 H   0  0  0  0  0  0  0  0  0  0  0  0
  150.2510  140.7934  157.3625 H   0  0  0  0  0  0  0  0  0  0  0  0
  152.6433  139.0702  157.6960 H   0  0  0  0  0  0  0  0  0  0  0  0
  151.0698  138.5255  157.1810 H   0  0  0  0  0  0  0  0  0  0  0  0
  153.0966  140.1359  155.5645 H   0  0  0  0  0  0  0  0  0  0  0  0
  152.5055  138.5235  155.1941 H   0  0  0  0  0  0  0  0  0  0  0  0
  150.0226  138.3428  154.7416 H   0  0  0  0  0  0  0  0  0  0  0  0
  149.6557  139.4056  156.0971 H   0  0  0  0  0  0  0  0  0  0  0  0
  148.9630  139.8606  153.1546 H   0  0  0  0  0  0  0  0  0  0  0  0
  149.0165  141.8608  155.4527 H   0  0  0  0  0  0  0  0  0  0  0  0
  149.5622  142.1291  153.7968 H   0  0  0  0  0  0  0  0  0  0  0  0
  146.9911  142.7123  154.7614 H   0  0  0  0  0  0  0  0  0  0  0  0
  147.3303  142.4189  153.0553 H   0  0  0  0  0  0  0  0  0  0  0  0
  145.7313  140.7123  154.7170 H   0  0  0  0  0  0  0  0  0  0  0  0
  146.3507  140.3352  153.1059 H   0  0  0  0  0  0  0  0  0  0  0  0
  1  2  1  0  0  0  0
  1 18  1  0  0  0  0
  1 19  1  0  0  0  0
  1 20  1  0  0  0  0
  2 17  1  0  0  0  0
  2  3  2  0  0  0  0
  3  4  1  0  0  0  0
  3 21  1  0  0  0  0
  4  5  2  0  0  0  0
  4 22  1  0  0  0  0
  5  6  1  0  0  0  0
  5 23  1  0  0  0  0
  6  7  1  0  0  0  0
  6 17  2  0  0  0  0
  7  8  1  0  0  0  0
  7 24  1  0  0  0  0
  8  9  1  0  0  0  0
  8 25  1  0  0  0  0
  8 26  1  0  0  0  0
  9 10  1  0  0  0  0
  9 27  1  0  0  0  0
  9 28  1  0  0  0  0
 10 11  1  0  0  0  0
 11 12  1  0  0  0  0
 11 29  1  0  0  0  0
 11 30  1  0  0  0  0
 12 16  1  0  0  0  0
 12 13  1  0  0  0  0
 12 31  1  0  0  0  0
 13 14  1  0  0  0  0
 13 32  1  0  0  0  0
 13 33  1  0  0  0  0
 14 15  1  0  0  0  0
 14 34  1  0  0  0  0
 14 35  1  0  0  0  0
 15 16  1  0  0  0  0
 15 36  1  0  0  0  0
 15 37  1  0  0  0  0
M  END
> <s_m_source_file>
AV-unprocessed.smi

> <i_m_source_file_index>
3198

> <i_lp_mmshare_version>
43012

> <i_f3d_flags>
0

> <s_epik_input>
W0NIM11jMVtjSF1bY0hdW2NIXWMobjEpW05IXVtDSDJdW0NIMl1PW0NIMl1bQ0BASF0yW0NIMl1bQ0gyXVtDSDJdTzI=

> <s_epik_cmdline>
J2VwaWtfcHl0aG9uJywgJy1waCcsICc3LjAnLCAnLXRuJywgJzgnLCAnLW1hJywgJzIwMCcsICctbWV0YWxfYmluZGluZycsICctaW1hZScsICc8aW5maWxlLm1hZT4nLCAnLW9tYWUnLCAnPG91dGZpbGUubWFlPic=

> <r_lp_tautomer_probability>
1

> <r_epik_Ionization_Penalty>
1.29225

> <r_epik_Ionization_Penalty_Charging>
0

> <r_epik_Ionization_Penalty_Neutral>
1.29225

> <r_epik_State_Penalty>
1.3654

> <r_epik_Charging_Adjusted_Penalty>
1.3654

> <i_epik_Tot_Q>
0

> <i_epik_Tot_abs_Q>
0

> <r_epik_Metal_State_Penalty>
0.00531989

> <b_epik_Metal_Only>
0

> <s_lp_Force_Field>
OPLS_2005

> <r_lp_Energy>
18.1736

> <b_lp_Chiralities_Consistent>
1

> <s_lp_Variant>
AV-unprocessed.smi:3198-3

> <Gold.Version>
5.8.1

> <Gold.Id.Protein>
6NUR|6NUR_protein|mol2

> <Gold.PLP.Fitness>
41.2636

> <Gold.PLP.PLP>
-38.8213

> <Gold.PLP.part.hbond>
-1.0000

> <Gold.PLP.part.metal>
0.0000

> <Gold.PLP.part.buried>
-3.8747

> <Gold.PLP.part.nonpolar>
-34.5577

> <Gold.PLP.part.repulsive>
0.2246

> <Gold.PLP.ligand.clash>
0.0000

> <Gold.PLP.ligand.torsion>
0.3294

> <Gold.PLP.Chemscore.Hbond>
1.0000

> <Gold.PLP.Chemscore.CHOScore>
0.0000

> <Gold.PLP.Chemscore.Metal>
0.0000

> <Gold.Chemscore.Hbonds>
donor molecule, donor type, donor heavy atom, donor atom, acceptor molecule, acceptor atom, score
      P1  H  7989  7998       L1    10  1.00

> <Gold.PLP.Chemscore.Internal.Correction>
0.1013

> <Gold.Rescore>
     Score         DG    S(hbond)    S(metal)    S(lipo)     H(rot)  DE(clash)    DE(int)     intcor
     16.37     -16.75       0.98        0.00     104.06       1.63       0.09       0.29       ----

> <Gold.Chemscore.Fitness>
16.3745

> <Gold.Chemscore.DG>
-16.7532

> <Gold.Chemscore.ZeroCoef>
-5.4800

> <Gold.Chemscore.Hbond>
0.9803

> <Gold.Chemscore.Metal>
0.0000

> <Gold.Chemscore.Lipo>
104.0566

> <Gold.Chemscore.Internal_Hbond>
0.0000

> <Gold.Chemscore.DEClash>
0.0876

> <Gold.Chemscore.DEInternal>
0.2912

> <Gold.Chemscore.Rot>
1.6311

> <Gold.Chemscore.Internal.Correction>
   9.000000E+99

> <Gold.Chemscore.Hbonds>
donor molecule, donor type, donor heavy atom, donor atom, acceptor molecule, acceptor atom, score
      P1  H  7989  7998       L1    10  0.90

> <Gold.Chemscore.Hbond.Weighted>
-3.2743

> <Gold.Chemscore.Metal.Weighted>
-0.0000

> <Gold.Chemscore.Lipo.Weighted>
-12.1746

> <Gold.Chemscore.Internal_Hbond.Weighted>
0.0000

> <Gold.Chemscore.DEClash.Weighted>
0.0876

> <Gold.Chemscore.DEInternal.Weighted>
0.2912

> <Gold.Chemscore.Rot.Weighted>
4.1757

> <Gold.Chemscore.Internal.Correction.Weighted>
   9.000000E+99

> <Gold.Protein.RotatedTorsions>
[ 6907 6896 6895 6894 ] final   57.32 input  -60.11 | X-H torsion
[ 7974 7965 7964 7962 ] final  -70.60 input  175.53 | X-H torsion
[ 8008 7997 7996 7995 ] final -146.97 input   59.86 | X-H torsion
[ 10167 10162 10161 10158 ] final  157.70 input  -65.29 | X-H torsion
[ 10718 10713 10712 10709 ] final   93.93 input   66.30 | X-H torsion
[ 10763 10752 10751 10750 ] final -116.03 input  -60.55 | X-H torsion
[ 11005 11000 10999 10996 ] final -175.33 input  -57.11 | X-H torsion

> <Gold.Protein.ActiveResidues>
 VAL166  LYS551  ARG553  GLY616  TRP617  ASP618  TYR619  PRO620  LYS621  CYS622 
 ASP623  PHE694  ASN695  SER759  ASP760  ASP761  ALA762  ILE779  LEU786  VAL792 
 PHE793  MET794  SER795  GLU796  ALA797  LYS798  CYS799  TRP800  GLU811  SER814 

> <Gold.Protein.RotatedAtoms>
  152.3720  134.6720  160.0172 H   0  0  0  0  0  0  0  0  0  0  0  0  # atno 6907 bound_to 6896
  151.7010  133.3306  159.3274 H   0  0  0  0  0  0  0  0  0  0  0  0  # atno 6908 bound_to 6896
  150.7680  134.6550  159.6353 H   0  0  0  0  0  0  0  0  0  0  0  0  # atno 6909 bound_to 6896
  145.6889  140.9160  143.0792 H   0  0  0  0  0  0  0  0  0  0  0  0  # atno 7974 bound_to 7965
  155.5680  140.0631  157.2813 H   0  0  0  0  0  0  0  0  0  0  0  0  # atno 8008 bound_to 7997
  154.4370  140.1874  156.0895 H   0  0  0  0  0  0  0  0  0  0  0  0  # atno 8009 bound_to 7997
  156.0398  140.3297  155.7234 H   0  0  0  0  0  0  0  0  0  0  0  0  # atno 8010 bound_to 7997
  139.4824  144.4893  151.8331 H   0  0  0  0  0  0  0  0  0  0  0  0  # atno 10167 bound_to 10162
  157.6951  131.0495  150.4109 H   0  0  0  0  0  0  0  0  0  0  0  0  # atno 10718 bound_to 10713
  154.8504  135.4360  154.1757 H   0  0  0  0  0  0  0  0  0  0  0  0  # atno 10763 bound_to 10752
  153.2860  135.6957  153.7345 H   0  0  0  0  0  0  0  0  0  0  0  0  # atno 10764 bound_to 10752
  153.6531  135.3448  155.3080 H   0  0  0  0  0  0  0  0  0  0  0  0  # atno 10765 bound_to 10752
  140.4645  134.6223  157.4857 H   0  0  0  0  0  0  0  0  0  0  0  0  # atno 11005 bound_to 11000
  144.7003  139.8795  143.7446 LP  0  0  0  0  0  0  0  0  0  0  0  0  # atno 17320 bound_to 7965
  146.0899  139.3889  143.0412 LP  0  0  0  0  0  0  0  0  0  0  0  0  # atno 17321 bound_to 7965
  140.4376  144.2031  150.5890 LP  0  0  0  0  0  0  0  0  0  0  0  0  # atno 17342 bound_to 10162
  140.4716  143.2411  151.9081 LP  0  0  0  0  0  0  0  0  0  0  0  0  # atno 17343 bound_to 10162
  156.4493  130.4008  149.6646 LP  0  0  0  0  0  0  0  0  0  0  0  0  # atno 17370 bound_to 10713
  156.3801  130.7574  151.2566 LP  0  0  0  0  0  0  0  0  0  0  0  0  # atno 17371 bound_to 10713
  139.9924  134.6965  155.9667 LP  0  0  0  0  0  0  0  0  0  0  0  0  # atno 17394 bound_to 11000
  141.1606  133.6539  156.4305 LP  0  0  0  0  0  0  0  0  0  0  0  0  # atno 17395 bound_to 11000

$$$$
