AV-unprocessed.smi:2129|AV-procd|sdf|8683|dock6
  -GOLD-   2272011433D 1   1.00000     0.00000
 Structure written by MMmdl.
 34 34  0  0  0  0  0  0  0  0  1 V2000
  152.7726  142.2733  162.0687 C   0  0  0  0  0  0  0  0  0  0  0  0
  152.0353  143.4665  161.4349 C   0  0  0  0  0  0  0  0  0  0  0  0
  152.0702  143.5331  159.8835 C   0  0  0  0  0  0  0  0  0  0  0  0
  151.5394  144.8956  159.3966 C   0  0  0  0  0  0  0  0  0  0  0  0
  153.5231  143.3784  159.3833 C   0  0  0  0  0  0  0  0  0  0  0  0
  151.2134  142.5049  159.2820 N   0  0  0  0  0  0  0  0  0  0  0  0
  150.9321  142.2917  157.9817 C   0  0  0  0  0  0  0  0  0  0  0  0
  151.3712  142.9917  157.0708 O   0  0  0  0  0  0  0  0  0  0  0  0
  150.0225  141.1013  157.6313 C   0  0  0  0  0  0  0  0  0  0  0  0
  150.6448  140.0873  156.7635 N   0  0  0  0  0  0  0  0  0  0  0  0
  149.9768  139.6257  155.6381 C   0  0  0  0  0  0  0  0  0  0  0  0
  150.4816  138.6848  154.8053 C   0  0  0  0  0  0  0  0  0  0  0  0
  151.7912  138.0958  155.0632 C   0  0  0  0  0  0  0  0  0  0  0  0
  152.3322  137.2383  154.3688 O   0  0  0  0  0  0  0  0  0  0  0  0
  152.4314  138.5853  156.2049 N   0  0  0  0  0  0  0  0  0  0  0  0
  151.9169  139.5540  157.0679 C   0  0  0  0  0  0  0  0  0  0  0  0
  152.5612  139.9078  158.0543 O   0  0  0  0  0  0  0  0  0  0  0  0
  153.3408  138.2054  156.4248 H   0  0  0  0  0  0  0  0  0  0  0  0
  152.7080  142.3208  163.1557 H   0  0  0  0  0  0  0  0  0  0  0  0
  153.8307  142.2653  161.8071 H   0  0  0  0  0  0  0  0  0  0  0  0
  152.3418  141.3210  161.7609 H   0  0  0  0  0  0  0  0  0  0  0  0
  150.9973  143.4507  161.7691 H   0  0  0  0  0  0  0  0  0  0  0  0
  152.4551  144.3829  161.8507 H   0  0  0  0  0  0  0  0  0  0  0  0
  152.1022  145.7210  159.8340 H   0  0  0  0  0  0  0  0  0  0  0  0
  150.4898  145.0400  159.6538 H   0  0  0  0  0  0  0  0  0  0  0  0
  151.6173  144.9852  158.3122 H   0  0  0  0  0  0  0  0  0  0  0  0
  154.1483  144.1987  159.7373 H   0  0  0  0  0  0  0  0  0  0  0  0
  153.5717  143.3767  158.2937 H   0  0  0  0  0  0  0  0  0  0  0  0
  153.9836  142.4548  159.7338 H   0  0  0  0  0  0  0  0  0  0  0  0
  150.7957  141.8587  159.9357 H   0  0  0  0  0  0  0  0  0  0  0  0
  149.6983  140.6415  158.5658 H   0  0  0  0  0  0  0  0  0  0  0  0
  149.1082  141.4819  157.1721 H   0  0  0  0  0  0  0  0  0  0  0  0
  149.0008  140.0307  155.4112 H   0  0  0  0  0  0  0  0  0  0  0  0
  149.9120  138.3650  153.9446 H   0  0  0  0  0  0  0  0  0  0  0  0
  1  2  1  0  0  0  0
  1 19  1  0  0  0  0
  1 20  1  0  0  0  0
  1 21  1  0  0  0  0
  2  3  1  0  0  0  0
  2 22  1  0  0  0  0
  2 23  1  0  0  0  0
  3  4  1  0  0  0  0
  3  5  1  0  0  0  0
  3  6  1  0  0  0  0
  4 24  1  0  0  0  0
  4 25  1  0  0  0  0
  4 26  1  0  0  0  0
  5 27  1  0  0  0  0
  5 28  1  0  0  0  0
  5 29  1  0  0  0  0
  6  7  1  0  0  0  0
  6 30  1  0  0  0  0
  7  8  2  0  0  0  0
  7  9  1  0  0  0  0
  9 10  1  0  0  0  0
  9 31  1  0  0  0  0
  9 32  1  0  0  0  0
 10 16  1  0  0  0  0
 10 11  1  0  0  0  0
 11 12  2  0  0  0  0
 11 33  1  0  0  0  0
 12 13  1  0  0  0  0
 12 34  1  0  0  0  0
 13 14  2  0  0  0  0
 13 15  1  0  0  0  0
 15 18  1  0  0  0  0
 15 16  1  0  0  0  0
 16 17  2  0  0  0  0
M  END
> <s_m_source_file>
AV-unprocessed.smi

> <i_m_source_file_index>
2129

> <i_lp_mmshare_version>
43012

> <i_f3d_flags>
0

> <s_epik_input>
W0NIM11bQ0gyXUMoW0NIM10pKFtDSDNdKVtOSF1DKD1PKVtDSDJdbjFbY0hdW2NIXWMoPU8pW25IXWMxPU8=

> <s_epik_cmdline>
J2VwaWtfcHl0aG9uJywgJy1waCcsICc3LjAnLCAnLXRuJywgJzgnLCAnLW1hJywgJzIwMCcsICctbWV0YWxfYmluZGluZycsICctaW1hZScsICc8aW5maWxlLm1hZT4nLCAnLW9tYWUnLCAnPG91dGZpbGUubWFlPic=

> <r_lp_tautomer_probability>
0.999537

> <r_epik_Ionization_Penalty>
0.00293907

> <r_epik_Ionization_Penalty_Charging>
0.00293905

> <r_epik_Ionization_Penalty_Neutral>
1.95902e-08

> <r_epik_State_Penalty>
0.0020607

> <r_epik_Charging_Adjusted_Penalty>
0.00499975

> <i_epik_Tot_Q>
0

> <i_epik_Tot_abs_Q>
0

> <r_epik_Metal_State_Penalty>
0.360223

> <b_epik_Metal_Only>
0

> <s_lp_Force_Field>
OPLS_2005

> <r_lp_Energy>
5.65175

> <b_lp_Chiralities_Consistent>
1

> <s_lp_Variant>
AV-unprocessed.smi:2129-1

> <Gold.Version>
5.8.1

> <Gold.Id.Protein>
6NUR|6NUR_protein|mol2

> <Gold.PLP.Fitness>
38.6259

> <Gold.PLP.PLP>
-33.6691

> <Gold.PLP.part.hbond>
-2.0000

> <Gold.PLP.part.metal>
0.0000

> <Gold.PLP.part.buried>
-6.3553

> <Gold.PLP.part.nonpolar>
-27.1687

> <Gold.PLP.part.repulsive>
0.5904

> <Gold.PLP.ligand.clash>
0.0000

> <Gold.PLP.ligand.torsion>
0.2150

> <Gold.PLP.Chemscore.Hbond>
1.7840

> <Gold.PLP.Chemscore.CHOScore>
0.0000

> <Gold.PLP.Chemscore.Metal>
0.0000

> <Gold.Chemscore.Hbonds>
donor molecule, donor type, donor heavy atom, donor atom, acceptor molecule, acceptor atom, score
      P1  H  7997  8009       L1    17  0.29
      P1  H 10752 10764       L1    14  0.75

> <Gold.PLP.Chemscore.Internal.Correction>
0.0348

> <Gold.Rescore>
     Score         DG    S(hbond)    S(metal)    S(lipo)     H(rot)  DE(clash)    DE(int)     intcor
     11.85     -15.26       1.76        0.00      75.89       1.95       0.86       2.55       ----

> <Gold.Chemscore.Fitness>
11.8550

> <Gold.Chemscore.DG>
-15.2615

> <Gold.Chemscore.ZeroCoef>
-5.4800

> <Gold.Chemscore.Hbond>
1.7636

> <Gold.Chemscore.Metal>
0.0000

> <Gold.Chemscore.Lipo>
75.8872

> <Gold.Chemscore.Internal_Hbond>
0.0000

> <Gold.Chemscore.DEClash>
0.8572

> <Gold.Chemscore.DEInternal>
2.5493

> <Gold.Chemscore.Rot>
1.9483

> <Gold.Chemscore.Internal.Correction>
   9.000000E+99

> <Gold.Chemscore.Hbonds>
donor molecule, donor type, donor heavy atom, donor atom, acceptor molecule, acceptor atom, score
      P1  H  7997  8009       L1    17  0.03
      P1  H 10752 10764       L1    14  0.74

> <Gold.Chemscore.Hbond.Weighted>
-5.8903

> <Gold.Chemscore.Metal.Weighted>
-0.0000

> <Gold.Chemscore.Lipo.Weighted>
-8.8788

> <Gold.Chemscore.Internal_Hbond.Weighted>
0.0000

> <Gold.Chemscore.DEClash.Weighted>
0.8572

> <Gold.Chemscore.DEInternal.Weighted>
2.5493

> <Gold.Chemscore.Rot.Weighted>
4.9876

> <Gold.Chemscore.Internal.Correction.Weighted>
   9.000000E+99

> <Gold.Protein.RotatedTorsions>
[ 6907 6896 6895 6894 ] final   15.48 input  -60.11 | X-H torsion
[ 7974 7965 7964 7962 ] final   80.32 input  175.53 | X-H torsion
[ 8008 7997 7996 7995 ] final  163.81 input   59.86 | X-H torsion
[ 10167 10162 10161 10158 ] final   15.53 input  -65.29 | X-H torsion
[ 10718 10713 10712 10709 ] final   88.69 input   66.30 | X-H torsion
[ 10763 10752 10751 10750 ] final  -88.75 input  -60.55 | X-H torsion
[ 11005 11000 10999 10996 ] final   88.64 input  -57.11 | X-H torsion

> <Gold.Protein.ActiveResidues>
 VAL166  LYS551  ARG553  GLY616  TRP617  ASP618  TYR619  PRO620  LYS621  CYS622 
 ASP623  PHE694  ASN695  SER759  ASP760  ASP761  ALA762  ILE779  LEU786  VAL792 
 PHE793  MET794  SER795  GLU796  ALA797  LYS798  CYS799  TRP800  GLU811  SER814 

> <Gold.Protein.RotatedAtoms>
  151.8187  135.0658  160.0422 H   0  0  0  0  0  0  0  0  0  0  0  0  # atno 6907 bound_to 6896
  152.2967  133.5610  159.5600 H   0  0  0  0  0  0  0  0  0  0  0  0  # atno 6908 bound_to 6896
  150.7254  134.0267  159.3761 H   0  0  0  0  0  0  0  0  0  0  0  0  # atno 6909 bound_to 6896
  145.6528  139.2452  143.1967 H   0  0  0  0  0  0  0  0  0  0  0  0  # atno 7974 bound_to 7965
  156.1928  140.1713  156.8058 H   0  0  0  0  0  0  0  0  0  0  0  0  # atno 8008 bound_to 7997
  154.5492  140.0721  156.8672 H   0  0  0  0  0  0  0  0  0  0  0  0  # atno 8009 bound_to 7997
  155.3061  140.3364  155.4248 H   0  0  0  0  0  0  0  0  0  0  0  0  # atno 8010 bound_to 7997
  140.5861  143.8887  150.6831 H   0  0  0  0  0  0  0  0  0  0  0  0  # atno 10167 bound_to 10162
  157.6951  131.0304  150.3312 H   0  0  0  0  0  0  0  0  0  0  0  0  # atno 10718 bound_to 10713
  154.6479  135.5365  153.7867 H   0  0  0  0  0  0  0  0  0  0  0  0  # atno 10763 bound_to 10752
  153.0370  135.6475  154.1061 H   0  0  0  0  0  0  0  0  0  0  0  0  # atno 10764 bound_to 10752
  154.0980  135.2935  155.3237 H   0  0  0  0  0  0  0  0  0  0  0  0  # atno 10765 bound_to 10752
  139.8892  134.8501  156.3029 H   0  0  0  0  0  0  0  0  0  0  0  0  # atno 11005 bound_to 11000
  146.1190  140.7333  142.9467 LP  0  0  0  0  0  0  0  0  0  0  0  0  # atno 17320 bound_to 7965
  144.7116  140.4061  143.7076 LP  0  0  0  0  0  0  0  0  0  0  0  0  # atno 17321 bound_to 7965
  140.2398  143.3672  152.1496 LP  0  0  0  0  0  0  0  0  0  0  0  0  # atno 17342 bound_to 10162
  139.5198  144.7025  151.5452 LP  0  0  0  0  0  0  0  0  0  0  0  0  # atno 17343 bound_to 10162
  156.3786  130.3876  149.7119 LP  0  0  0  0  0  0  0  0  0  0  0  0  # atno 17370 bound_to 10713
  156.4510  130.7906  151.2928 LP  0  0  0  0  0  0  0  0  0  0  0  0  # atno 17371 bound_to 10713
  140.9901  133.7214  156.0801 LP  0  0  0  0  0  0  0  0  0  0  0  0  # atno 17394 bound_to 11000
  140.7636  134.3911  157.5521 LP  0  0  0  0  0  0  0  0  0  0  0  0  # atno 17395 bound_to 11000

$$$$
