AV-unprocessed.smi:834|AV-procd|sdf|3885|dock4
  -GOLD-   22720 1343D 1   1.00000     0.00000
 Structure written by MMmdl.
 38 39  0  0  0  0  0  0  0  0  2 V2000
  145.5803  133.3567  163.2035 C   0  0  0  0  0  0  0  0  0  0  0  0
  146.1462  134.4335  162.3428 C   0  0  0  0  0  0  0  0  0  0  0  0
  145.5721  134.8241  161.2024 N   0  0  0  0  0  0  0  0  0  0  0  0
  146.2842  135.8387  160.5795 N   0  0  0  0  0  0  0  0  0  0  0  0
  147.3905  136.1923  161.2488 C   0  0  0  0  0  0  0  0  0  0  0  0
  148.2161  137.1591  160.8154 N   0  5  0  0  0  0  0  0  0  0  0  0
  149.1118  136.8955  159.8369 C   0  0  0  0  0  0  0  0  0  0  0  0
  149.4810  135.7788  159.4657 O   0  0  0  0  0  0  0  0  0  0  0  0
  149.6148  137.9941  159.2558 N   0  0  0  0  0  0  0  0  0  0  0  0
  150.6045  138.0183  158.1836 C   0  0  0  0  0  0  0  0  0  0  0  0
  151.8698  138.7924  158.6028 C   0  0  0  0  0  0  0  0  0  0  0  0
  152.0364  140.1368  157.8872 C   0  0  0  0  0  0  0  0  0  0  0  0
  152.2903  140.1903  156.6831 O   0  0  0  0  0  0  0  0  0  0  0  0
  151.8805  141.2278  158.6525 N   0  0  0  0  0  0  0  0  0  0  0  0
  151.9908  142.6070  158.1847 C   0  0  0  0  0  0  0  0  0  0  0  0
  153.0710  143.3703  158.9752 C   0  0  0  0  0  0  0  0  0  0  0  0
  152.4385  144.7034  159.3785 C   0  0  0  0  0  0  0  0  0  0  0  0
  150.9527  144.3882  159.5165 C   0  0  0  0  0  0  0  0  0  0  0  0
  150.6765  143.3872  158.3944 C   0  0  0  0  0  0  0  0  0  0  0  0
  147.6257  135.2887  162.7449 S   0  0  0  0  0  0  0  0  0  0  0  0
  145.8717  132.3803  162.8167 H   0  0  0  0  0  0  0  0  0  0  0  0
  144.4919  133.4184  163.2213 H   0  0  0  0  0  0  0  0  0  0  0  0
  145.9508  133.4549  164.2239 H   0  0  0  0  0  0  0  0  0  0  0  0
  149.2831  138.8869  159.5898 H   0  0  0  0  0  0  0  0  0  0  0  0
  150.8536  136.9993  157.8815 H   0  0  0  0  0  0  0  0  0  0  0  0
  150.1409  138.4948  157.3193 H   0  0  0  0  0  0  0  0  0  0  0  0
  151.8481  138.9779  159.6775 H   0  0  0  0  0  0  0  0  0  0  0  0
  152.7560  138.1869  158.4076 H   0  0  0  0  0  0  0  0  0  0  0  0
  151.6738  141.0924  159.6317 H   0  0  0  0  0  0  0  0  0  0  0  0
  152.2495  142.6100  157.1240 H   0  0  0  0  0  0  0  0  0  0  0  0
  153.3449  142.8224  159.8783 H   0  0  0  0  0  0  0  0  0  0  0  0
  153.9840  143.5109  158.3955 H   0  0  0  0  0  0  0  0  0  0  0  0
  152.8683  145.1133  160.2929 H   0  0  0  0  0  0  0  0  0  0  0  0
  152.5853  145.4357  158.5834 H   0  0  0  0  0  0  0  0  0  0  0  0
  150.7645  143.9188  160.4830 H   0  0  0  0  0  0  0  0  0  0  0  0
  150.3255  145.2775  159.4491 H   0  0  0  0  0  0  0  0  0  0  0  0
  150.4344  143.9303  157.4800 H   0  0  0  0  0  0  0  0  0  0  0  0
  149.8211  142.7494  158.6213 H   0  0  0  0  0  0  0  0  0  0  0  0
  1  2  1  0  0  0  0
  1 21  1  0  0  0  0
  1 22  1  0  0  0  0
  1 23  1  0  0  0  0
  2 20  1  0  0  0  0
  2  3  2  0  0  0  0
  3  4  1  0  0  0  0
  4  5  2  0  0  0  0
  5  6  1  0  0  0  0
  5 20  1  0  0  0  0
  6  7  1  0  0  0  0
  7  8  2  0  0  0  0
  7  9  1  0  0  0  0
  9 10  1  0  0  0  0
  9 24  1  0  0  0  0
 10 11  1  0  0  0  0
 10 25  1  0  0  0  0
 10 26  1  0  0  0  0
 11 12  1  0  0  0  0
 11 27  1  0  0  0  0
 11 28  1  0  0  0  0
 12 13  2  0  0  0  0
 12 14  1  0  0  0  0
 14 15  1  0  0  0  0
 14 29  1  0  0  0  0
 15 19  1  0  0  0  0
 15 16  1  0  0  0  0
 15 30  1  0  0  0  0
 16 17  1  0  0  0  0
 16 31  1  0  0  0  0
 16 32  1  0  0  0  0
 17 18  1  0  0  0  0
 17 33  1  0  0  0  0
 17 34  1  0  0  0  0
 18 19  1  0  0  0  0
 18 35  1  0  0  0  0
 18 36  1  0  0  0  0
 19 37  1  0  0  0  0
 19 38  1  0  0  0  0
M  CHG  1   6  -1
M  END
> <s_m_source_file>
AV-unprocessed.smi

> <i_m_source_file_index>
834

> <i_lp_mmshare_version>
43012

> <i_f3d_flags>
0

> <s_epik_input>
W0NIM11jMW5uYyhzMSlbTkhdQyg9TylbTkhdW0NIMl1bQ0gyXUMoPU8pW05IXVtDSF0yW0NIMl1bQ0gyXVtDSDJdW0NIMl0y

> <s_epik_cmdline>
J2VwaWtfcHl0aG9uJywgJy1waCcsICc3LjAnLCAnLXRuJywgJzgnLCAnLW1hJywgJzIwMCcsICctbWV0YWxfYmluZGluZycsICctaW1hZScsICc8aW5maWxlLm1hZT4nLCAnLW9tYWUnLCAnPG91dGZpbGUubWFlPic=

> <r_lp_tautomer_probability>
1

> <r_epik_Ionization_Penalty>
3.40129

> <r_epik_Ionization_Penalty_Charging>
3.26946

> <r_epik_Ionization_Penalty_Neutral>
0.131835

> <r_epik_State_Penalty>
3.26707

> <r_epik_Charging_Adjusted_Penalty>
6.53653

> <i_epik_Tot_Q>
-1

> <i_epik_Tot_abs_Q>
1

> <r_epik_Metal_State_Penalty>
0.478667

> <b_epik_Metal_Only>
1

> <s_lp_Force_Field>
OPLS_2005

> <r_lp_Energy>
15.9775

> <b_lp_Chiralities_Consistent>
1

> <s_lp_Variant>
AV-unprocessed.smi:834-2

> <Gold.Version>
5.8.1

> <Gold.Id.Protein>
6NUR|6NUR_protein|mol2

> <Gold.PLP.Fitness>
47.7332

> <Gold.PLP.PLP>
-34.6778

> <Gold.PLP.part.hbond>
-4.0000

> <Gold.PLP.part.metal>
0.0000

> <Gold.PLP.part.buried>
-3.9597

> <Gold.PLP.part.nonpolar>
-28.6273

> <Gold.PLP.part.repulsive>
0.4684

> <Gold.PLP.ligand.clash>
0.0000

> <Gold.PLP.ligand.torsion>
1.2129

> <Gold.PLP.Chemscore.Hbond>
5.1223

> <Gold.PLP.Chemscore.CHOScore>
0.0000

> <Gold.PLP.Chemscore.Metal>
0.0000

> <Gold.Chemscore.Hbonds>
donor molecule, donor type, donor heavy atom, donor atom, acceptor molecule, acceptor atom, score
      P1  H  6896  6907       L1     8  0.99
      P1  H  6931  6943       L1     6  1.79
      P1  H  6934  6947       L1     6  1.00
      P1  H  7997  8008       L1    13  0.91

> <Gold.PLP.Chemscore.Internal.Correction>
0.1143

> <Gold.Rescore>
     Score         DG    S(hbond)    S(metal)    S(lipo)     H(rot)  DE(clash)    DE(int)     intcor
     18.48     -19.74       2.71        0.00      87.20       1.95       0.02       1.25       ----

> <Gold.Chemscore.Fitness>
18.4764

> <Gold.Chemscore.DG>
-19.7429

> <Gold.Chemscore.ZeroCoef>
-5.4800

> <Gold.Chemscore.Hbond>
2.7068

> <Gold.Chemscore.Metal>
0.0000

> <Gold.Chemscore.Lipo>
87.2025

> <Gold.Chemscore.Internal_Hbond>
0.0000

> <Gold.Chemscore.DEClash>
0.0200

> <Gold.Chemscore.DEInternal>
1.2466

> <Gold.Chemscore.Rot>
1.9455

> <Gold.Chemscore.Internal.Correction>
   9.000000E+99

> <Gold.Chemscore.Hbonds>
donor molecule, donor type, donor heavy atom, donor atom, acceptor molecule, acceptor atom, score
      P1  H  6896  6907       L1     8  0.94
      P1  H  6931  6943       L1     6  0.44
      P1  H  6934  6947       L1     6  0.34
      P1  H  7997  8008       L1    13  0.42

> <Gold.Chemscore.Hbond.Weighted>
-9.0408

> <Gold.Chemscore.Metal.Weighted>
-0.0000

> <Gold.Chemscore.Lipo.Weighted>
-10.2027

> <Gold.Chemscore.Internal_Hbond.Weighted>
0.0000

> <Gold.Chemscore.DEClash.Weighted>
0.0200

> <Gold.Chemscore.DEInternal.Weighted>
1.2466

> <Gold.Chemscore.Rot.Weighted>
4.9805

> <Gold.Chemscore.Internal.Correction.Weighted>
   9.000000E+99

> <Gold.Protein.RotatedTorsions>
[ 6907 6896 6895 6894 ] final  -74.53 input  -60.11 | X-H torsion
[ 7974 7965 7964 7962 ] final  130.35 input  175.53 | X-H torsion
[ 8008 7997 7996 7995 ] final  -56.05 input   59.86 | X-H torsion
[ 10167 10162 10161 10158 ] final   62.99 input  -65.29 | X-H torsion
[ 10718 10713 10712 10709 ] final   79.15 input   66.30 | X-H torsion
[ 10763 10752 10751 10750 ] final   19.28 input  -60.55 | X-H torsion
[ 11005 11000 10999 10996 ] final   23.74 input  -57.11 | X-H torsion

> <Gold.Protein.ActiveResidues>
 VAL166  LYS551  ARG553  GLY616  TRP617  ASP618  TYR619  PRO620  LYS621  CYS622 
 ASP623  PHE694  ASN695  SER759  ASP760  ASP761  ALA762  ILE779  LEU786  VAL792 
 PHE793  MET794  SER795  GLU796  ALA797  LYS798  CYS799  TRP800  GLU811  SER814 

> <Gold.Protein.RotatedAtoms>
  150.7090  134.4856  159.5490 H   0  0  0  0  0  0  0  0  0  0  0  0  # atno 6907 bound_to 6896
  152.2484  134.8155  160.0459 H   0  0  0  0  0  0  0  0  0  0  0  0  # atno 6908 bound_to 6896
  151.8911  133.3481  159.3835 H   0  0  0  0  0  0  0  0  0  0  0  0  # atno 6909 bound_to 6896
  145.0189  139.4151  143.5207 H   0  0  0  0  0  0  0  0  0  0  0  0  # atno 7974 bound_to 7965
  154.4216  140.1139  156.5575 H   0  0  0  0  0  0  0  0  0  0  0  0  # atno 8008 bound_to 7997
  155.6346  140.3496  155.4675 H   0  0  0  0  0  0  0  0  0  0  0  0  # atno 8009 bound_to 7997
  155.9920  140.1181  157.0619 H   0  0  0  0  0  0  0  0  0  0  0  0  # atno 8010 bound_to 7997
  140.1379  144.4582  150.6828 H   0  0  0  0  0  0  0  0  0  0  0  0  # atno 10167 bound_to 10162
  157.6768  130.9901  150.1891 H   0  0  0  0  0  0  0  0  0  0  0  0  # atno 10718 bound_to 10713
  153.1175  135.6711  153.9392 H   0  0  0  0  0  0  0  0  0  0  0  0  # atno 10763 bound_to 10752
  153.8917  135.3046  155.3449 H   0  0  0  0  0  0  0  0  0  0  0  0  # atno 10764 bound_to 10752
  154.7590  135.4997  153.9507 H   0  0  0  0  0  0  0  0  0  0  0  0  # atno 10765 bound_to 10752
  140.3663  134.2070  155.7669 H   0  0  0  0  0  0  0  0  0  0  0  0  # atno 11005 bound_to 11000
  146.3482  139.9675  142.8710 LP  0  0  0  0  0  0  0  0  0  0  0  0  # atno 17320 bound_to 7965
  145.1923  140.9817  143.4204 LP  0  0  0  0  0  0  0  0  0  0  0  0  # atno 17321 bound_to 7965
  140.6778  143.2313  151.5462 LP  0  0  0  0  0  0  0  0  0  0  0  0  # atno 17342 bound_to 10162
  139.5487  144.2453  152.1490 LP  0  0  0  0  0  0  0  0  0  0  0  0  # atno 17343 bound_to 10162
  156.2606  130.3710  149.8134 LP  0  0  0  0  0  0  0  0  0  0  0  0  # atno 17370 bound_to 10713
  156.5880  130.8494  151.3401 LP  0  0  0  0  0  0  0  0  0  0  0  0  # atno 17371 bound_to 10713
  141.1968  133.8073  157.0654 LP  0  0  0  0  0  0  0  0  0  0  0  0  # atno 17394 bound_to 11000
  140.0586  134.9767  157.1265 LP  0  0  0  0  0  0  0  0  0  0  0  0  # atno 17395 bound_to 11000

$$$$
