AV-unprocessed.smi:287|AV-procd|sdf|2199|dock10
  -GOLD-   2262022 13D 1   1.00000     0.00000
 Structure written by MMmdl.
 55 58  0  0  0  0  0  0  0  0  1 V2000
  153.8154  142.3171  162.6247 C   0  0  0  0  0  0  0  0  0  0  0  0
  152.9426  142.6949  161.4774 C   0  0  0  0  0  0  0  0  0  0  0  0
  152.6993  142.1417  160.2543 C   0  0  0  0  0  0  0  0  0  0  0  0
  151.7604  142.9822  159.5850 C   0  0  0  0  0  0  0  0  0  0  0  0
  151.2040  142.7593  158.1848 C   0  0  1  0  0  0  0  0  0  0  0  0
  151.3832  144.0336  157.3434 C   0  0  0  0  0  0  0  0  0  0  0  0
  151.8874  141.7433  157.4764 O   0  0  0  0  0  0  0  0  0  0  0  0
  149.7163  142.3389  158.2056 C   0  0  0  0  0  0  0  0  0  0  0  0
  149.1787  142.1049  156.8695 N   0  0  0  0  0  0  0  0  0  0  0  0
  149.2398  140.8768  156.3150 C   0  0  0  0  0  0  0  0  0  0  0  0
  150.1869  139.9808  156.6966 N   0  0  0  0  0  0  0  0  0  0  0  0
  150.2272  138.7724  156.1271 C   0  0  0  0  0  0  0  0  0  0  0  0
  149.4335  138.2700  155.1788 N   0  0  0  0  0  0  0  0  0  0  0  0
  148.4779  139.1656  154.7950 C   0  0  0  0  0  0  0  0  0  0  0  0
  148.3173  140.4807  155.3132 C   0  0  0  0  0  0  0  0  0  0  0  0
  147.2462  141.1068  154.6894 N   0  0  0  0  0  0  0  0  0  0  0  0
  146.8008  140.2089  153.8525 C   0  0  0  0  0  0  0  0  0  0  0  0
  147.4824  139.0121  153.8507 N   0  0  0  0  0  0  0  0  0  0  0  0
  147.2003  137.8090  153.0118 C   0  0  1  0  0  0  0  0  0  0  0  0
  146.9273  136.7391  153.8587 O   0  0  0  0  0  0  0  0  0  0  0  0
  145.9402  135.9138  153.2582 C   0  0  1  0  0  0  0  0  0  0  0  0
  145.2704  135.0067  154.3050 C   0  0  0  0  0  0  0  0  0  0  0  0
  144.5389  133.9850  153.6621 O   0  0  0  0  0  0  0  0  0  0  0  0
  145.0158  136.9213  152.5565 C   0  0  1  0  0  0  0  0  0  0  0  0
  144.0293  137.4279  153.4361 O   0  0  0  0  0  0  0  0  0  0  0  0
  145.9666  138.0338  152.1198 C   0  0  2  0  0  0  0  0  0  0  0  0
  146.2924  137.8660  150.7539 O   0  0  0  0  0  0  0  0  0  0  0  0
  151.4930  143.9907  160.4797 C   0  0  0  0  0  0  0  0  0  0  0  0
  150.6085  145.1937  160.4549 C   0  0  0  0  0  0  0  0  0  0  0  0
  152.2079  143.8251  161.6277 O   0  0  0  0  0  0  0  0  0  0  0  0
  148.1213  137.6309  152.4544 H   0  0  0  0  0  0  0  0  0  0  0  0
  146.4225  135.3071  152.4890 H   0  0  0  0  0  0  0  0  0  0  0  0
  144.4940  136.4616  151.7159 H   0  0  0  0  0  0  0  0  0  0  0  0
  145.5437  139.0294  152.2678 H   0  0  0  0  0  0  0  0  0  0  0  0
  154.4705  141.4875  162.3582 H   0  0  0  0  0  0  0  0  0  0  0  0
  153.2155  142.0124  163.4821 H   0  0  0  0  0  0  0  0  0  0  0  0
  154.4409  143.1568  162.9283 H   0  0  0  0  0  0  0  0  0  0  0  0
  153.1514  141.2370  159.8756 H   0  0  0  0  0  0  0  0  0  0  0  0
  150.8554  144.8784  157.7875 H   0  0  0  0  0  0  0  0  0  0  0  0
  150.9967  143.9030  156.3317 H   0  0  0  0  0  0  0  0  0  0  0  0
  152.4352  144.3105  157.2626 H   0  0  0  0  0  0  0  0  0  0  0  0
  151.4646  141.6253  156.6397 H   0  0  0  0  0  0  0  0  0  0  0  0
  149.6289  141.4014  158.7570 H   0  0  0  0  0  0  0  0  0  0  0  0
  149.1083  143.0719  158.7381 H   0  0  0  0  0  0  0  0  0  0  0  0
  148.8464  142.9222  156.3773 H   0  0  0  0  0  0  0  0  0  0  0  0
  151.0064  138.1138  156.4809 H   0  0  0  0  0  0  0  0  0  0  0  0
  145.9528  140.3960  153.2100 H   0  0  0  0  0  0  0  0  0  0  0  0
  146.0056  134.5754  154.9853 H   0  0  0  0  0  0  0  0  0  0  0  0
  144.5656  135.5814  154.9061 H   0  0  0  0  0  0  0  0  0  0  0  0
  144.5610  133.2117  154.2050 H   0  0  0  0  0  0  0  0  0  0  0  0
  143.6173  138.1749  153.0304 H   0  0  0  0  0  0  0  0  0  0  0  0
  145.5371  138.0951  150.2347 H   0  0  0  0  0  0  0  0  0  0  0  0
  149.5746  144.9088  160.2601 H   0  0  0  0  0  0  0  0  0  0  0  0
  150.9230  145.8877  159.6755 H   0  0  0  0  0  0  0  0  0  0  0  0
  150.6360  145.7246  161.4066 H   0  0  0  0  0  0  0  0  0  0  0  0
  1  2  1  0  0  0  0
  1 35  1  0  0  0  0
  1 36  1  0  0  0  0
  1 37  1  0  0  0  0
  2 30  1  0  0  0  0
  2  3  2  0  0  0  0
  3  4  1  0  0  0  0
  3 38  1  0  0  0  0
  4  5  1  0  0  0  0
  4 28  2  0  0  0  0
  5  6  1  0  0  0  0
  5  7  1  0  0  0  0
  5  8  1  0  0  0  0
  6 39  1  0  0  0  0
  6 40  1  0  0  0  0
  6 41  1  0  0  0  0
  7 42  1  0  0  0  0
  8  9  1  0  0  0  0
  8 43  1  0  0  0  0
  8 44  1  0  0  0  0
  9 10  1  0  0  0  0
  9 45  1  0  0  0  0
 10 15  1  0  0  0  0
 10 11  2  0  0  0  0
 11 12  1  0  0  0  0
 12 13  2  0  0  0  0
 12 46  1  0  0  0  0
 13 14  1  0  0  0  0
 14 18  1  0  0  0  0
 14 15  2  0  0  0  0
 15 16  1  0  0  0  0
 16 17  2  0  0  0  0
 17 18  1  0  0  0  0
 17 47  1  0  0  0  0
 18 19  1  0  0  0  0
 19 31  1  0  0  0  0
 19 26  1  0  0  0  0
 19 20  1  0  0  0  0
 20 21  1  0  0  0  0
 21 32  1  0  0  0  0
 21 22  1  0  0  0  0
 21 24  1  0  0  0  0
 22 23  1  0  0  0  0
 22 48  1  0  0  0  0
 22 49  1  0  0  0  0
 23 50  1  0  0  0  0
 24 33  1  0  0  0  0
 24 25  1  0  0  0  0
 24 26  1  0  0  0  0
 25 51  1  0  0  0  0
 26 34  1  0  0  0  0
 26 27  1  0  0  0  0
 27 52  1  0  0  0  0
 28 29  1  0  0  0  0
 28 30  1  0  0  0  0
 29 53  1  0  0  0  0
 29 54  1  0  0  0  0
 29 55  1  0  0  0  0
M  END
> <s_m_source_file>
AV-unprocessed.smi

> <i_m_source_file_index>
287

> <i_lp_mmshare_version>
43012

> <i_f3d_flags>
0

> <s_epik_input>
W0NIM11jMVtjSF1jKGMobzEpW0NIM10pW0NAQF0oW0NIM10pKFtPSF0pW0NIMl1bTkhdYyhuW2NIXW4yKWMoYzIzKW5bY0hdbjNbQ0BASF00T1tDQEhdKFtDSDJdW09IXSlbQ0BASF0oW09IXSlbQ0BIXTRbT0hd

> <s_epik_cmdline>
J2VwaWtfcHl0aG9uJywgJy1waCcsICc3LjAnLCAnLXRuJywgJzgnLCAnLW1hJywgJzIwMCcsICctbWV0YWxfYmluZGluZycsICctaW1hZScsICc8aW5maWxlLm1hZT4nLCAnLW9tYWUnLCAnPG91dGZpbGUubWFlPic=

> <r_lp_tautomer_probability>
1

> <r_epik_Ionization_Penalty>
0.000992612

> <r_epik_Ionization_Penalty_Charging>
0

> <r_epik_Ionization_Penalty_Neutral>
0.000992612

> <r_epik_State_Penalty>
-0

> <r_epik_Charging_Adjusted_Penalty>
0

> <i_epik_Tot_Q>
0

> <i_epik_Tot_abs_Q>
0

> <r_epik_Metal_State_Penalty>
-0

> <b_epik_Metal_Only>
0

> <s_epik_Chemistry_Notes>
This compound contains an acetal/aminal-like group ( X-CH(R)-Y where X, Y are N, S, or O) that may be acid/base labile, releasing an aldehyde.

> <s_lp_Force_Field>
OPLS_2005

> <r_lp_Energy>
38.8116

> <b_lp_Chiralities_Consistent>
1

> <s_lp_Variant>
AV-unprocessed.smi:287-23

> <Gold.Version>
5.8.1

> <Gold.Id.Protein>
6NUR|6NUR_protein|mol2

> <Gold.PLP.Fitness>
57.4816

> <Gold.PLP.PLP>
-43.6365

> <Gold.PLP.part.hbond>
-5.8031

> <Gold.PLP.part.metal>
0.0000

> <Gold.PLP.part.buried>
-4.0553

> <Gold.PLP.part.nonpolar>
-35.7591

> <Gold.PLP.part.repulsive>
0.4635

> <Gold.PLP.ligand.clash>
0.0000

> <Gold.PLP.ligand.torsion>
0.7161

> <Gold.PLP.Chemscore.Hbond>
4.2600

> <Gold.PLP.Chemscore.CHOScore>
0.8046

> <Gold.PLP.Chemscore.Metal>
0.0000

> <Gold.Chemscore.Hbonds>
donor molecule, donor type, donor heavy atom, donor atom, acceptor molecule, acceptor atom, score
      L1  H     9    45       P1  8028  1.00
      L1  H    25    51       P1 10175  0.24
      L1  H    27    52       P1 10171  1.00
      P1  H  7954  7966       L1    27  0.94
      L1  C    17    47       P1 10175  1.00

> <Gold.PLP.Chemscore.Internal.Correction>
0.0834

> <Gold.Rescore>
     Score         DG    S(hbond)    S(metal)    S(lipo)     H(rot)  DE(clash)    DE(int)     intcor
     12.94     -17.79       3.80        0.00     112.07       5.27       1.15       3.69       ----

> <Gold.Chemscore.Fitness>
12.9420

> <Gold.Chemscore.DG>
-17.7881

> <Gold.Chemscore.ZeroCoef>
-5.4800

> <Gold.Chemscore.Hbond>
3.7964

> <Gold.Chemscore.Metal>
0.0000

> <Gold.Chemscore.Lipo>
112.0696

> <Gold.Chemscore.Internal_Hbond>
0.0000

> <Gold.Chemscore.DEClash>
1.1549

> <Gold.Chemscore.DEInternal>
3.6912

> <Gold.Chemscore.Rot>
5.2672

> <Gold.Chemscore.Internal.Correction>
   9.000000E+99

> <Gold.Chemscore.Hbonds>
donor molecule, donor type, donor heavy atom, donor atom, acceptor molecule, acceptor atom, score
      L1  H     9    45       P1  8028  0.97
      L1  H    23    50       P1 10957  0.02
      L1  H    25    51       P1 10175  0.24
      L1  H    27    52       P1 10171  1.00
      P1  H  7954  7966       L1    27  0.83

> <Gold.Chemscore.Hbond.Weighted>
-12.6799

> <Gold.Chemscore.Metal.Weighted>
-0.0000

> <Gold.Chemscore.Lipo.Weighted>
-13.1121

> <Gold.Chemscore.Internal_Hbond.Weighted>
0.0000

> <Gold.Chemscore.DEClash.Weighted>
1.1549

> <Gold.Chemscore.DEInternal.Weighted>
3.6912

> <Gold.Chemscore.Rot.Weighted>
13.4839

> <Gold.Chemscore.Internal.Correction.Weighted>
   9.000000E+99

> <Gold.Protein.RotatedTorsions>
[ 6907 6896 6895 6894 ] final  -14.39 input  -60.11 | X-H torsion
[ 7974 7965 7964 7962 ] final  -27.81 input  175.53 | X-H torsion
[ 8008 7997 7996 7995 ] final   27.72 input   59.86 | X-H torsion
[ 10167 10162 10161 10158 ] final   62.27 input  -65.29 | X-H torsion
[ 10718 10713 10712 10709 ] final   43.00 input   66.30 | X-H torsion
[ 10763 10752 10751 10750 ] final  117.79 input  -60.55 | X-H torsion
[ 11005 11000 10999 10996 ] final   55.33 input  -57.11 | X-H torsion

> <Gold.Protein.ActiveResidues>
 VAL166  LYS551  ARG553  GLY616  TRP617  ASP618  TYR619  PRO620  LYS621  CYS622 
 ASP623  PHE694  ASN695  SER759  ASP760  ASP761  ALA762  ILE779  LEU786  VAL792 
 PHE793  MET794  SER795  GLU796  ALA797  LYS798  CYS799  TRP800  GLU811  SER814 

> <Gold.Protein.RotatedAtoms>
  151.3402  135.0862  159.9368 H   0  0  0  0  0  0  0  0  0  0  0  0  # atno 6907 bound_to 6896
  152.5213  133.9455  159.7657 H   0  0  0  0  0  0  0  0  0  0  0  0  # atno 6908 bound_to 6896
  150.9810  133.6192  159.2752 H   0  0  0  0  0  0  0  0  0  0  0  0  # atno 6909 bound_to 6896
  146.1332  140.5200  142.8684 H   0  0  0  0  0  0  0  0  0  0  0  0  # atno 7974 bound_to 7965
  155.0473  140.3176  155.4704 H   0  0  0  0  0  0  0  0  0  0  0  0  # atno 8008 bound_to 7997
  156.2842  140.2152  156.5542 H   0  0  0  0  0  0  0  0  0  0  0  0  # atno 8009 bound_to 7997
  154.7239  140.0487  157.0653 H   0  0  0  0  0  0  0  0  0  0  0  0  # atno 8010 bound_to 7997
  140.1457  144.4511  150.6786 H   0  0  0  0  0  0  0  0  0  0  0  0  # atno 10167 bound_to 10162
  157.4111  130.7914  149.7431 H   0  0  0  0  0  0  0  0  0  0  0  0  # atno 10718 bound_to 10713
  153.5577  135.3527  155.2786 H   0  0  0  0  0  0  0  0  0  0  0  0  # atno 10763 bound_to 10752
  154.8699  135.4129  154.2866 H   0  0  0  0  0  0  0  0  0  0  0  0  # atno 10764 bound_to 10752
  153.3605  135.7059  153.6785 H   0  0  0  0  0  0  0  0  0  0  0  0  # atno 10765 bound_to 10752
  140.0616  134.5595  155.9146 H   0  0  0  0  0  0  0  0  0  0  0  0  # atno 11005 bound_to 11000
  144.7712  140.5642  143.6669 LP  0  0  0  0  0  0  0  0  0  0  0  0  # atno 17320 bound_to 7965
  145.5214  139.1476  143.3550 LP  0  0  0  0  0  0  0  0  0  0  0  0  # atno 17321 bound_to 7965
  140.6733  143.2294  151.5570 LP  0  0  0  0  0  0  0  0  0  0  0  0  # atno 17342 bound_to 10162
  139.5450  144.2545  152.1425 LP  0  0  0  0  0  0  0  0  0  0  0  0  # atno 17343 bound_to 10162
  155.9851  130.3986  150.3279 LP  0  0  0  0  0  0  0  0  0  0  0  0  # atno 17370 bound_to 10713
  157.1417  131.0298  151.2924 LP  0  0  0  0  0  0  0  0  0  0  0  0  # atno 17371 bound_to 10713
  141.1975  133.6597  156.5746 LP  0  0  0  0  0  0  0  0  0  0  0  0  # atno 17394 bound_to 11000
  140.3762  134.7563  157.4631 LP  0  0  0  0  0  0  0  0  0  0  0  0  # atno 17395 bound_to 11000

$$$$
