AV-unprocessed.smi:1862|AV-procd|sdf|7549|dock5
  -GOLD-   22720 9263D 1   1.00000     0.00000
 Structure written by MMmdl.
 40 41  0  0  0  0  0  0  0  0  1 V2000
  150.9582  144.0420  156.9907 C   0  0  0  0  0  0  0  0  0  0  0  0
  152.0913  144.6648  157.8252 C   0  0  0  0  0  0  0  0  0  0  0  0
  151.9143  144.5916  159.3675 C   0  0  0  0  0  0  0  0  0  0  0  0
  152.1034  145.9957  159.9820 C   0  0  0  0  0  0  0  0  0  0  0  0
  150.4932  144.1066  159.7157 C   0  0  0  0  0  0  0  0  0  0  0  0
  152.8533  143.6427  159.9811 N   0  0  0  0  0  0  0  0  0  0  0  0
  152.9095  142.3066  159.8317 C   0  0  0  0  0  0  0  0  0  0  0  0
  152.1317  141.6634  159.1262 O   0  0  0  0  0  0  0  0  0  0  0  0
  154.0134  141.5892  160.6156 C   0  0  0  0  0  0  0  0  0  0  0  0
  153.9631  140.1060  160.3830 C   0  0  0  0  0  0  0  0  0  0  0  0
  153.7857  139.4652  159.1809 C   0  0  0  0  0  0  0  0  0  0  0  0
  153.7838  137.7319  159.3585 S   0  0  0  0  0  0  0  0  0  0  0  0
  154.0364  137.9431  161.0936 C   0  0  0  0  0  0  0  0  0  0  0  0
  154.1561  136.9052  162.0649 N   0  0  0  0  0  0  0  0  0  0  0  0
  154.4275  137.1970  163.4691 C   0  0  0  0  0  0  0  0  0  0  0  0
  154.4664  135.8219  164.1282 C   0  0  0  0  0  0  0  0  0  0  0  0
  154.2108  134.9429  163.0115 N   0  0  0  0  0  0  0  0  0  0  0  0
  154.0371  135.5796  161.8510 C   0  0  0  0  0  0  0  0  0  0  0  0
  153.8083  135.0131  160.7840 O   0  0  0  0  0  0  0  0  0  0  0  0
  154.1132  139.2266  161.4607 N   0  0  0  0  0  0  0  0  0  0  0  0
  151.1758  144.1330  155.9265 H   0  0  0  0  0  0  0  0  0  0  0  0
  150.0044  144.5373  157.1689 H   0  0  0  0  0  0  0  0  0  0  0  0
  150.8333  142.9807  157.2053 H   0  0  0  0  0  0  0  0  0  0  0  0
  153.0268  144.1841  157.5384 H   0  0  0  0  0  0  0  0  0  0  0  0
  152.2067  145.7080  157.5288 H   0  0  0  0  0  0  0  0  0  0  0  0
  151.3508  146.6915  159.6093 H   0  0  0  0  0  0  0  0  0  0  0  0
  153.0772  146.4227  159.7421 H   0  0  0  0  0  0  0  0  0  0  0  0
  152.0147  145.9704  161.0688 H   0  0  0  0  0  0  0  0  0  0  0  0
  149.7338  144.7477  159.2670 H   0  0  0  0  0  0  0  0  0  0  0  0
  150.3264  144.1104  160.7937 H   0  0  0  0  0  0  0  0  0  0  0  0
  150.3120  143.0894  159.3682 H   0  0  0  0  0  0  0  0  0  0  0  0
  153.5430  144.0540  160.5930 H   0  0  0  0  0  0  0  0  0  0  0  0
  154.9900  141.9809  160.3278 H   0  0  0  0  0  0  0  0  0  0  0  0
  153.8896  141.8205  161.6741 H   0  0  0  0  0  0  0  0  0  0  0  0
  153.6507  139.9073  158.2051 H   0  0  0  0  0  0  0  0  0  0  0  0
  155.3799  137.7184  163.5777 H   0  0  0  0  0  0  0  0  0  0  0  0
  153.6382  137.8196  163.8932 H   0  0  0  0  0  0  0  0  0  0  0  0
  155.4389  135.6069  164.5720 H   0  0  0  0  0  0  0  0  0  0  0  0
  153.6942  135.7101  164.8902 H   0  0  0  0  0  0  0  0  0  0  0  0
  154.1673  133.9390  163.1125 H   0  0  0  0  0  0  0  0  0  0  0  0
  1  2  1  0  0  0  0
  1 21  1  0  0  0  0
  1 22  1  0  0  0  0
  1 23  1  0  0  0  0
  2  3  1  0  0  0  0
  2 24  1  0  0  0  0
  2 25  1  0  0  0  0
  3  4  1  0  0  0  0
  3  5  1  0  0  0  0
  3  6  1  0  0  0  0
  4 26  1  0  0  0  0
  4 27  1  0  0  0  0
  4 28  1  0  0  0  0
  5 29  1  0  0  0  0
  5 30  1  0  0  0  0
  5 31  1  0  0  0  0
  6  7  1  0  0  0  0
  6 32  1  0  0  0  0
  7  8  2  0  0  0  0
  7  9  1  0  0  0  0
  9 10  1  0  0  0  0
  9 33  1  0  0  0  0
  9 34  1  0  0  0  0
 10 20  1  0  0  0  0
 10 11  2  0  0  0  0
 11 12  1  0  0  0  0
 11 35  1  0  0  0  0
 12 13  1  0  0  0  0
 13 14  1  0  0  0  0
 13 20  2  0  0  0  0
 14 18  1  0  0  0  0
 14 15  1  0  0  0  0
 15 16  1  0  0  0  0
 15 36  1  0  0  0  0
 15 37  1  0  0  0  0
 16 17  1  0  0  0  0
 16 38  1  0  0  0  0
 16 39  1  0  0  0  0
 17 18  1  0  0  0  0
 17 40  1  0  0  0  0
 18 19  2  0  0  0  0
M  END
> <s_m_source_file>
AV-unprocessed.smi

> <i_m_source_file_index>
1862

> <i_lp_mmshare_version>
43012

> <i_f3d_flags>
0

> <s_epik_input>
W0NIM11bQ0gyXUMoW0NIM10pKFtDSDNdKVtOSF1DKD1PKVtDSDJdYzFbY0hdc2MobjEpTjJbQ0gyXVtDSDJdW05IXUMyPU8=

> <s_epik_cmdline>
J2VwaWtfcHl0aG9uJywgJy1waCcsICc3LjAnLCAnLXRuJywgJzgnLCAnLW1hJywgJzIwMCcsICctbWV0YWxfYmluZGluZycsICctaW1hZScsICc8aW5maWxlLm1hZT4nLCAnLW9tYWUnLCAnPG91dGZpbGUubWFlPic=

> <r_lp_tautomer_probability>
1

> <r_epik_Ionization_Penalty>
0.000124031

> <r_epik_Ionization_Penalty_Charging>
0

> <r_epik_Ionization_Penalty_Neutral>
0.000124031

> <r_epik_State_Penalty>
-0

> <r_epik_Charging_Adjusted_Penalty>
0

> <i_epik_Tot_Q>
0

> <i_epik_Tot_abs_Q>
0

> <r_epik_Metal_State_Penalty>
-0

> <b_epik_Metal_Only>
0

> <s_lp_Force_Field>
OPLS_2005

> <r_lp_Energy>
34.1106

> <b_lp_Chiralities_Consistent>
1

> <s_lp_Variant>
AV-unprocessed.smi:1862-1

> <Gold.Version>
5.8.1

> <Gold.Id.Protein>
6NUR|6NUR_protein|mol2

> <Gold.PLP.Fitness>
42.0940

> <Gold.PLP.PLP>
-41.8691

> <Gold.PLP.part.hbond>
-1.0000

> <Gold.PLP.part.metal>
0.0000

> <Gold.PLP.part.buried>
-2.5020

> <Gold.PLP.part.nonpolar>
-39.1422

> <Gold.PLP.part.repulsive>
0.0642

> <Gold.PLP.ligand.clash>
0.0000

> <Gold.PLP.ligand.torsion>
1.3320

> <Gold.PLP.Chemscore.Hbond>
0.9588

> <Gold.PLP.Chemscore.CHOScore>
0.0000

> <Gold.PLP.Chemscore.Metal>
0.0000

> <Gold.Chemscore.Hbonds>
donor molecule, donor type, donor heavy atom, donor atom, acceptor molecule, acceptor atom, score
      P1  H  6896  6909       L1    19  1.00

> <Gold.PLP.Chemscore.Internal.Correction>
0.0127

> <Gold.Rescore>
     Score         DG    S(hbond)    S(metal)    S(lipo)     H(rot)  DE(clash)    DE(int)     intcor
     12.94     -16.56       0.93        0.00     105.86       1.72       0.11       3.52       ----

> <Gold.Chemscore.Fitness>
12.9374

> <Gold.Chemscore.DG>
-16.5606

> <Gold.Chemscore.ZeroCoef>
-5.4800

> <Gold.Chemscore.Hbond>
0.9297

> <Gold.Chemscore.Metal>
0.0000

> <Gold.Chemscore.Lipo>
105.8602

> <Gold.Chemscore.Internal_Hbond>
0.0000

> <Gold.Chemscore.DEClash>
0.1059

> <Gold.Chemscore.DEInternal>
3.5172

> <Gold.Chemscore.Rot>
1.7228

> <Gold.Chemscore.Internal.Correction>
   9.000000E+99

> <Gold.Chemscore.Hbonds>
donor molecule, donor type, donor heavy atom, donor atom, acceptor molecule, acceptor atom, score
      P1  H  6896  6909       L1    19  0.93

> <Gold.Chemscore.Hbond.Weighted>
-3.1052

> <Gold.Chemscore.Metal.Weighted>
-0.0000

> <Gold.Chemscore.Lipo.Weighted>
-12.3856

> <Gold.Chemscore.Internal_Hbond.Weighted>
0.0000

> <Gold.Chemscore.DEClash.Weighted>
0.1059

> <Gold.Chemscore.DEInternal.Weighted>
3.5172

> <Gold.Chemscore.Rot.Weighted>
4.4103

> <Gold.Chemscore.Internal.Correction.Weighted>
   9.000000E+99

> <Gold.Protein.RotatedTorsions>
[ 6907 6896 6895 6894 ] final -175.67 input  -60.11 | X-H torsion
[ 7974 7965 7964 7962 ] final  -21.33 input  175.53 | X-H torsion
[ 8008 7997 7996 7995 ] final  130.41 input   59.86 | X-H torsion
[ 10167 10162 10161 10158 ] final -139.38 input  -65.29 | X-H torsion
[ 10718 10713 10712 10709 ] final   80.54 input   66.30 | X-H torsion
[ 10763 10752 10751 10750 ] final   71.52 input  -60.55 | X-H torsion
[ 11005 11000 10999 10996 ] final -150.92 input  -57.11 | X-H torsion

> <Gold.Protein.ActiveResidues>
 VAL166  LYS551  ARG553  GLY616  TRP617  ASP618  TYR619  PRO620  LYS621  CYS622 
 ASP623  PHE694  ASN695  SER759  ASP760  ASP761  ALA762  ILE779  LEU786  VAL792 
 PHE793  MET794  SER795  GLU796  ALA797  LYS798  CYS799  TRP800  GLU811  SER814 

> <Gold.Protein.RotatedAtoms>
  151.5924  133.3365  159.3030 H   0  0  0  0  0  0  0  0  0  0  0  0  # atno 6907 bound_to 6896
  150.8253  134.7484  159.6818 H   0  0  0  0  0  0  0  0  0  0  0  0  # atno 6908 bound_to 6896
  152.4343  134.5724  159.9976 H   0  0  0  0  0  0  0  0  0  0  0  0  # atno 6909 bound_to 6896
  146.1739  140.4327  142.8521 H   0  0  0  0  0  0  0  0  0  0  0  0  # atno 7974 bound_to 7965
  156.2954  140.2596  156.2757 H   0  0  0  0  0  0  0  0  0  0  0  0  # atno 8008 bound_to 7997
  154.9651  140.0392  157.2227 H   0  0  0  0  0  0  0  0  0  0  0  0  # atno 8009 bound_to 7997
  154.7910  140.2812  155.5996 H   0  0  0  0  0  0  0  0  0  0  0  0  # atno 8010 bound_to 7997
  139.8385  143.7352  152.2664 H   0  0  0  0  0  0  0  0  0  0  0  0  # atno 10167 bound_to 10162
  157.6809  130.9964  150.2094 H   0  0  0  0  0  0  0  0  0  0  0  0  # atno 10718 bound_to 10713
  153.0404  135.5134  154.7605 H   0  0  0  0  0  0  0  0  0  0  0  0  # atno 10763 bound_to 10752
  154.6548  135.2930  154.9944 H   0  0  0  0  0  0  0  0  0  0  0  0  # atno 10764 bound_to 10752
  154.0816  135.6663  153.4891 H   0  0  0  0  0  0  0  0  0  0  0  0  # atno 10765 bound_to 10752
  140.7351  134.3577  157.5159 H   0  0  0  0  0  0  0  0  0  0  0  0  # atno 11005 bound_to 11000
  144.8205  140.6541  143.6356 LP  0  0  0  0  0  0  0  0  0  0  0  0  # atno 17320 bound_to 7965
  145.4266  139.1555  143.4045 LP  0  0  0  0  0  0  0  0  0  0  0  0  # atno 17321 bound_to 7965
  139.7582  144.7514  151.0403 LP  0  0  0  0  0  0  0  0  0  0  0  0  # atno 17342 bound_to 10162
  140.7800  143.4781  151.0055 LP  0  0  0  0  0  0  0  0  0  0  0  0  # atno 17343 bound_to 10162
  156.2768  130.3728  149.7975 LP  0  0  0  0  0  0  0  0  0  0  0  0  # atno 17370 bound_to 10713
  156.5675  130.8410  151.3347 LP  0  0  0  0  0  0  0  0  0  0  0  0  # atno 17371 bound_to 10713
  139.8818  134.9044  156.2876 LP  0  0  0  0  0  0  0  0  0  0  0  0  # atno 17394 bound_to 11000
  140.9887  133.7222  156.0780 LP  0  0  0  0  0  0  0  0  0  0  0  0  # atno 17395 bound_to 11000

$$$$
