AV-unprocessed.smi:1154|AV-procd|sdf|4903|dock6
  -GOLD-   22720 3483D 1   1.00000     0.00000
 Structure written by MMmdl.
 42 43  0  0  0  0  0  0  0  0  2 V2000
  144.3336  133.3803  150.2616 C   0  0  0  0  0  0  0  0  0  0  0  0
  145.5379  132.7150  150.9429 C   0  0  1  0  0  0  0  0  0  0  0  0
  145.8169  133.3398  152.3220 C   0  0  0  0  0  0  0  0  0  0  0  0
  146.9822  132.6359  153.0416 C   0  0  2  0  0  0  0  0  0  0  0  0
  148.3564  132.9930  152.4480 C   0  0  0  0  0  0  0  0  0  0  0  0
  146.7459  131.1133  153.0906 C   0  0  0  0  0  0  0  0  0  0  0  0
  146.5072  130.5505  151.7360 N   0  3  1  0  0  0  0  0  0  0  0  0
  146.4306  129.0677  151.7479 C   0  0  0  0  0  0  0  0  0  0  0  0
  147.5641  128.4315  152.5690 C   0  0  0  0  0  0  0  0  0  0  0  0
  147.7520  127.0396  152.1852 N   0  0  0  0  0  0  0  0  0  0  0  0
  148.4553  126.6370  151.1155 C   0  0  0  0  0  0  0  0  0  0  0  0
  148.9903  127.4184  150.3302 O   0  0  0  0  0  0  0  0  0  0  0  0
  148.5674  125.1271  150.8856 C   0  0  0  0  0  0  0  0  0  0  0  0
  149.3683  124.8176  149.7146 N   0  0  0  0  0  0  0  0  0  0  0  0
  150.6218  125.1485  149.3981 C   0  0  0  0  0  0  0  0  0  0  0  0
  150.9693  124.6711  148.2130 N   0  0  0  0  0  0  0  0  0  0  0  0
  149.8316  123.9988  147.7987 N   0  0  0  0  0  0  0  0  0  0  0  0
  148.8784  124.0815  148.6859 N   0  0  0  0  0  0  0  0  0  0  0  0
  145.3395  131.1928  151.0761 C   0  0  0  0  0  0  0  0  0  0  0  0
  143.4223  133.2466  150.8455 H   0  0  0  0  0  0  0  0  0  0  0  0
  144.1595  132.9582  149.2714 H   0  0  0  0  0  0  0  0  0  0  0  0
  144.4955  134.4515  150.1379 H   0  0  0  0  0  0  0  0  0  0  0  0
  146.4044  132.8881  150.3038 H   0  0  0  0  0  0  0  0  0  0  0  0
  146.0244  134.4060  152.2220 H   0  0  0  0  0  0  0  0  0  0  0  0
  144.9205  133.2618  152.9391 H   0  0  0  0  0  0  0  0  0  0  0  0
  146.9916  132.9977  154.0707 H   0  0  0  0  0  0  0  0  0  0  0  0
  148.4630  132.6407  151.4221 H   0  0  0  0  0  0  0  0  0  0  0  0
  149.1614  132.5470  153.0329 H   0  0  0  0  0  0  0  0  0  0  0  0
  148.5142  134.0719  152.4464 H   0  0  0  0  0  0  0  0  0  0  0  0
  147.6074  130.6285  153.5523 H   0  0  0  0  0  0  0  0  0  0  0  0
  145.8863  130.8902  153.7250 H   0  0  0  0  0  0  0  0  0  0  0  0
  145.4829  128.7603  152.1927 H   0  0  0  0  0  0  0  0  0  0  0  0
  146.4277  128.6882  150.7248 H   0  0  0  0  0  0  0  0  0  0  0  0
  148.5062  128.9584  152.4194 H   0  0  0  0  0  0  0  0  0  0  0  0
  147.3263  128.4895  153.6327 H   0  0  0  0  0  0  0  0  0  0  0  0
  147.3371  126.3356  152.7782 H   0  0  0  0  0  0  0  0  0  0  0  0
  149.0198  124.6572  151.7595 H   0  0  0  0  0  0  0  0  0  0  0  0
  147.5757  124.6895  150.7601 H   0  0  0  0  0  0  0  0  0  0  0  0
  151.2710  125.7405  150.0262 H   0  0  0  0  0  0  0  0  0  0  0  0
  144.4355  130.9771  151.6481 H   0  0  0  0  0  0  0  0  0  0  0  0
  145.1900  130.7692  150.0835 H   0  0  0  0  0  0  0  0  0  0  0  0
  147.3227  130.7879  151.1891 H   0  0  0  0  0  0  0  0  0  0  0  0
  1  2  1  0  0  0  0
  1 20  1  0  0  0  0
  1 21  1  0  0  0  0
  1 22  1  0  0  0  0
  2 19  1  0  0  0  0
  2  3  1  0  0  0  0
  2 23  1  0  0  0  0
  3  4  1  0  0  0  0
  3 24  1  0  0  0  0
  3 25  1  0  0  0  0
  4  5  1  0  0  0  0
  4  6  1  0  0  0  0
  4 26  1  0  0  0  0
  5 27  1  0  0  0  0
  5 28  1  0  0  0  0
  5 29  1  0  0  0  0
  6  7  1  0  0  0  0
  6 30  1  0  0  0  0
  6 31  1  0  0  0  0
  7  8  1  0  0  0  0
  7 19  1  0  0  0  0
  7 42  1  0  0  0  0
  8  9  1  0  0  0  0
  8 32  1  0  0  0  0
  8 33  1  0  0  0  0
  9 10  1  0  0  0  0
  9 34  1  0  0  0  0
  9 35  1  0  0  0  0
 10 11  1  0  0  0  0
 10 36  1  0  0  0  0
 11 12  2  0  0  0  0
 11 13  1  0  0  0  0
 13 14  1  0  0  0  0
 13 37  1  0  0  0  0
 13 38  1  0  0  0  0
 14 18  1  0  0  0  0
 14 15  1  0  0  0  0
 15 16  2  0  0  0  0
 15 39  1  0  0  0  0
 16 17  1  0  0  0  0
 17 18  2  0  0  0  0
 19 40  1  0  0  0  0
 19 41  1  0  0  0  0
M  CHG  1   7   1
M  END
> <s_m_source_file>
AV-unprocessed.smi

> <i_m_source_file_index>
1154

> <i_lp_mmshare_version>
43012

> <i_f3d_flags>
0

> <s_epik_input>
W0NIM11bQ0BASF0xW0NIMl1bQ0BASF0oW0NIM10pW0NIMl1OKFtDSDJdMSlbQ0gyXVtDSDJdW05IXUMoPU8pW0NIMl1uMltjSF1ubm4y

> <s_epik_cmdline>
J2VwaWtfcHl0aG9uJywgJy1waCcsICc3LjAnLCAnLXRuJywgJzgnLCAnLW1hJywgJzIwMCcsICctbWV0YWxfYmluZGluZycsICctaW1hZScsICc8aW5maWxlLm1hZT4nLCAnLW9tYWUnLCAnPG91dGZpbGUubWFlPic=

> <r_lp_tautomer_probability>
1

> <r_epik_Ionization_Penalty>
0.00217773

> <r_epik_Ionization_Penalty_Charging>
0.00217329

> <r_epik_Ionization_Penalty_Neutral>
4.43997e-06

> <r_epik_State_Penalty>
0.00149294

> <r_epik_Charging_Adjusted_Penalty>
0.00366623

> <i_epik_Tot_Q>
1

> <i_epik_Tot_abs_Q>
1

> <r_epik_Metal_State_Penalty>
-0

> <b_epik_Metal_Only>
0

> <s_lp_Force_Field>
OPLS_2005

> <r_lp_Energy>
22.3383

> <b_lp_Chiralities_Consistent>
1

> <s_lp_Variant>
AV-unprocessed.smi:1154-4

> <Gold.Version>
5.8.1

> <Gold.Id.Protein>
6NUR|6NUR_protein|mol2

> <Gold.PLP.Fitness>
38.7094

> <Gold.PLP.PLP>
-33.3139

> <Gold.PLP.part.hbond>
-1.2170

> <Gold.PLP.part.metal>
0.0000

> <Gold.PLP.part.buried>
-5.3433

> <Gold.PLP.part.nonpolar>
-27.1665

> <Gold.PLP.part.repulsive>
0.7145

> <Gold.PLP.ligand.clash>
0.0000

> <Gold.PLP.ligand.torsion>
0.3174

> <Gold.PLP.Chemscore.Hbond>
1.0000

> <Gold.PLP.Chemscore.CHOScore>
1.0000

> <Gold.PLP.Chemscore.Metal>
0.0000

> <Gold.Chemscore.Hbonds>
donor molecule, donor type, donor heavy atom, donor atom, acceptor molecule, acceptor atom, score
      L1  H     7    42       P1 10747  1.00
      L1  C    15    39       P1 10737  0.74

> <Gold.PLP.Chemscore.Internal.Correction>
0.0302

> <Gold.Rescore>
     Score         DG    S(hbond)    S(metal)    S(lipo)     H(rot)  DE(clash)    DE(int)     intcor
     10.39     -10.77       0.99        0.00      75.43       2.67       0.03       0.34       ----

> <Gold.Chemscore.Fitness>
10.3938

> <Gold.Chemscore.DG>
-10.7676

> <Gold.Chemscore.ZeroCoef>
-5.4800

> <Gold.Chemscore.Hbond>
0.9854

> <Gold.Chemscore.Metal>
0.0000

> <Gold.Chemscore.Lipo>
75.4259

> <Gold.Chemscore.Internal_Hbond>
0.0000

> <Gold.Chemscore.DEClash>
0.0348

> <Gold.Chemscore.DEInternal>
0.3390

> <Gold.Chemscore.Rot>
2.6674

> <Gold.Chemscore.Internal.Correction>
   9.000000E+99

> <Gold.Chemscore.Hbonds>
donor molecule, donor type, donor heavy atom, donor atom, acceptor molecule, acceptor atom, score
      L1  H     7    42       P1 10747  1.00

> <Gold.Chemscore.Hbond.Weighted>
-3.2913

> <Gold.Chemscore.Metal.Weighted>
-0.0000

> <Gold.Chemscore.Lipo.Weighted>
-8.8248

> <Gold.Chemscore.Internal_Hbond.Weighted>
0.0000

> <Gold.Chemscore.DEClash.Weighted>
0.0348

> <Gold.Chemscore.DEInternal.Weighted>
0.3390

> <Gold.Chemscore.Rot.Weighted>
6.8286

> <Gold.Chemscore.Internal.Correction.Weighted>
   9.000000E+99

> <Gold.Protein.RotatedTorsions>
[ 6907 6896 6895 6894 ] final   -5.49 input  -60.11 | X-H torsion
[ 7974 7965 7964 7962 ] final   20.34 input  175.53 | X-H torsion
[ 8008 7997 7996 7995 ] final    5.19 input   59.86 | X-H torsion
[ 10167 10162 10161 10158 ] final  174.06 input  -65.29 | X-H torsion
[ 10718 10713 10712 10709 ] final -143.84 input   66.30 | X-H torsion
[ 10763 10752 10751 10750 ] final  -69.91 input  -60.55 | X-H torsion
[ 11005 11000 10999 10996 ] final  -84.57 input  -57.11 | X-H torsion

> <Gold.Protein.ActiveResidues>
 VAL166  LYS551  ARG553  GLY616  TRP617  ASP618  TYR619  PRO620  LYS621  CYS622 
 ASP623  PHE694  ASN695  SER759  ASP760  ASP761  ALA762  ILE779  LEU786  VAL792 
 PHE793  MET794  SER795  GLU796  ALA797  LYS798  CYS799  TRP800  GLU811  SER814 

> <Gold.Protein.RotatedAtoms>
  151.4808  135.1052  159.9776 H   0  0  0  0  0  0  0  0  0  0  0  0  # atno 6907 bound_to 6896
  152.4780  133.8180  159.7049 H   0  0  0  0  0  0  0  0  0  0  0  0  # atno 6908 bound_to 6896
  150.8831  133.7283  159.2953 H   0  0  0  0  0  0  0  0  0  0  0  0  # atno 6909 bound_to 6896
  146.2115  139.8184  142.8685 H   0  0  0  0  0  0  0  0  0  0  0  0  # atno 7974 bound_to 7965
  154.7253  140.2720  155.6505 H   0  0  0  0  0  0  0  0  0  0  0  0  # atno 8008 bound_to 7997
  156.2835  140.2726  156.1861 H   0  0  0  0  0  0  0  0  0  0  0  0  # atno 8009 bound_to 7997
  155.0453  140.0371  157.2514 H   0  0  0  0  0  0  0  0  0  0  0  0  # atno 8010 bound_to 7997
  139.5129  144.3190  152.0220 H   0  0  0  0  0  0  0  0  0  0  0  0  # atno 10167 bound_to 10162
  156.3628  130.7747  151.1917 H   0  0  0  0  0  0  0  0  0  0  0  0  # atno 10718 bound_to 10713
  154.4101  135.6011  153.5948 H   0  0  0  0  0  0  0  0  0  0  0  0  # atno 10763 bound_to 10752
  152.9790  135.5927  154.4080 H   0  0  0  0  0  0  0  0  0  0  0  0  # atno 10764 bound_to 10752
  154.3891  135.2842  155.2144 H   0  0  0  0  0  0  0  0  0  0  0  0  # atno 10765 bound_to 10752
  141.1649  133.7353  156.8888 H   0  0  0  0  0  0  0  0  0  0  0  0  # atno 11005 bound_to 11000
  145.3122  141.0223  143.3548 LP  0  0  0  0  0  0  0  0  0  0  0  0  # atno 17320 bound_to 7965
  144.8927  139.4753  143.6670 LP  0  0  0  0  0  0  0  0  0  0  0  0  # atno 17321 bound_to 7965
  140.2632  144.4044  150.6178 LP  0  0  0  0  0  0  0  0  0  0  0  0  # atno 17342 bound_to 10162
  140.6142  143.2171  151.6826 LP  0  0  0  0  0  0  0  0  0  0  0  0  # atno 17343 bound_to 10162
  157.7475  131.0395  150.4553 LP  0  0  0  0  0  0  0  0  0  0  0  0  # atno 17370 bound_to 10713
  156.4767  130.4064  149.6486 LP  0  0  0  0  0  0  0  0  0  0  0  0  # atno 17371 bound_to 10713
  140.1663  134.9131  157.2778 LP  0  0  0  0  0  0  0  0  0  0  0  0  # atno 17394 bound_to 11000
  140.2553  134.3635  155.7426 LP  0  0  0  0  0  0  0  0  0  0  0  0  # atno 17395 bound_to 11000

$$$$
