AV-unprocessed.smi:2911|AV-procd|sdf|11180|dock5
  -GOLD-   2272016 73D 1   1.00000     0.00000
 Structure written by MMmdl.
 41 42  0  0  0  0  0  0  0  0  1 V2000
  153.5025  137.1898  157.6201 C   0  0  0  0  0  0  0  0  0  0  0  0
  152.7470  138.1663  156.7850 C   0  0  0  0  0  0  0  0  0  0  0  0
  153.2346  138.6107  155.6330 N   0  0  0  0  0  0  0  0  0  0  0  0
  152.2397  139.4879  155.1777 O   0  0  0  0  0  0  0  0  0  0  0  0
  151.2571  139.4475  156.1095 C   0  0  0  0  0  0  0  0  0  0  0  0
  150.0605  140.3205  155.9333 C   0  0  0  0  0  0  0  0  0  0  0  0
  149.6706  141.0492  157.2291 C   0  0  0  0  0  0  0  0  0  0  0  0
  150.8192  141.7087  157.8396 N   0  0  0  0  0  0  0  0  0  0  0  0
  150.7534  142.7309  158.7097 C   0  0  0  0  0  0  0  0  0  0  0  0
  149.6842  143.2504  159.0301 O   0  0  0  0  0  0  0  0  0  0  0  0
  151.9696  143.1940  159.0963 N   0  0  0  0  0  0  0  0  0  0  0  0
  153.0916  142.2692  159.3378 C   0  0  0  0  0  0  0  0  0  0  0  0
  153.1030  141.8735  160.8271 C   0  0  0  0  0  0  0  0  0  0  0  0
  153.1928  143.1152  161.7401 C   0  0  2  0  0  0  0  0  0  0  0  0
  153.0809  142.7381  163.2236 C   0  0  0  0  0  0  0  0  0  0  0  0
  152.1455  144.1778  161.3408 C   0  0  0  0  0  0  0  0  0  0  0  0
  152.1933  144.4620  159.8251 C   0  0  2  0  0  0  0  0  0  0  0  0
  151.2752  145.6329  159.4143 C   0  0  0  0  0  0  0  0  0  0  0  0
  151.5270  138.6531  157.1427 N   0  0  0  0  0  0  0  0  0  0  0  0
  154.5730  137.2600  157.4242 H   0  0  0  0  0  0  0  0  0  0  0  0
  153.1748  136.1742  157.3982 H   0  0  0  0  0  0  0  0  0  0  0  0
  153.3348  137.3841  158.6799 H   0  0  0  0  0  0  0  0  0  0  0  0
  150.2730  141.0391  155.1407 H   0  0  0  0  0  0  0  0  0  0  0  0
  149.2299  139.7061  155.5835 H   0  0  0  0  0  0  0  0  0  0  0  0
  148.9185  141.8091  157.0152 H   0  0  0  0  0  0  0  0  0  0  0  0
  149.2174  140.3538  157.9378 H   0  0  0  0  0  0  0  0  0  0  0  0
  151.7331  141.3627  157.5857 H   0  0  0  0  0  0  0  0  0  0  0  0
  153.0493  141.3688  158.7241 H   0  0  0  0  0  0  0  0  0  0  0  0
  154.0318  142.7537  159.0709 H   0  0  0  0  0  0  0  0  0  0  0  0
  152.1977  141.3098  161.0581 H   0  0  0  0  0  0  0  0  0  0  0  0
  153.9406  141.2038  161.0252 H   0  0  0  0  0  0  0  0  0  0  0  0
  154.1785  143.5577  161.5893 H   0  0  0  0  0  0  0  0  0  0  0  0
  152.1126  142.2890  163.4463 H   0  0  0  0  0  0  0  0  0  0  0  0
  153.1957  143.6151  163.8610 H   0  0  0  0  0  0  0  0  0  0  0  0
  153.8531  142.0219  163.5058 H   0  0  0  0  0  0  0  0  0  0  0  0
  151.1462  143.8395  161.6193 H   0  0  0  0  0  0  0  0  0  0  0  0
  152.3257  145.0976  161.8986 H   0  0  0  0  0  0  0  0  0  0  0  0
  153.2033  144.7951  159.5802 H   0  0  0  0  0  0  0  0  0  0  0  0
  151.6437  146.5696  159.8332 H   0  0  0  0  0  0  0  0  0  0  0  0
  150.2538  145.5110  159.7740 H   0  0  0  0  0  0  0  0  0  0  0  0
  151.2446  145.7513  158.3308 H   0  0  0  0  0  0  0  0  0  0  0  0
  1  2  1  0  0  0  0
  1 20  1  0  0  0  0
  1 21  1  0  0  0  0
  1 22  1  0  0  0  0
  2 19  1  0  0  0  0
  2  3  2  0  0  0  0
  3  4  1  0  0  0  0
  4  5  1  0  0  0  0
  5  6  1  0  0  0  0
  5 19  2  0  0  0  0
  6  7  1  0  0  0  0
  6 23  1  0  0  0  0
  6 24  1  0  0  0  0
  7  8  1  0  0  0  0
  7 25  1  0  0  0  0
  7 26  1  0  0  0  0
  8  9  1  0  0  0  0
  8 27  1  0  0  0  0
  9 10  2  0  0  0  0
  9 11  1  0  0  0  0
 11 17  1  0  0  0  0
 11 12  1  0  0  0  0
 12 13  1  0  0  0  0
 12 28  1  0  0  0  0
 12 29  1  0  0  0  0
 13 14  1  0  0  0  0
 13 30  1  0  0  0  0
 13 31  1  0  0  0  0
 14 15  1  0  0  0  0
 14 16  1  0  0  0  0
 14 32  1  0  0  0  0
 15 33  1  0  0  0  0
 15 34  1  0  0  0  0
 15 35  1  0  0  0  0
 16 17  1  0  0  0  0
 16 36  1  0  0  0  0
 16 37  1  0  0  0  0
 17 18  1  0  0  0  0
 17 38  1  0  0  0  0
 18 39  1  0  0  0  0
 18 40  1  0  0  0  0
 18 41  1  0  0  0  0
M  END
> <s_m_source_file>
AV-unprocessed.smi

> <i_m_source_file_index>
2911

> <i_lp_mmshare_version>
43012

> <i_f3d_flags>
0

> <s_epik_input>
W0NIM11jMW5vYyhuMSlbQ0gyXVtDSDJdW05IXUMoPU8pTjJbQ0gyXVtDSDJdW0NAQEhdKFtDSDNdKVtDSDJdW0NASF0yW0NIM10=

> <s_epik_cmdline>
J2VwaWtfcHl0aG9uJywgJy1waCcsICc3LjAnLCAnLXRuJywgJzgnLCAnLW1hJywgJzIwMCcsICctbWV0YWxfYmluZGluZycsICctaW1hZScsICc8aW5maWxlLm1hZT4nLCAnLW9tYWUnLCAnPG91dGZpbGUubWFlPic=

> <r_lp_tautomer_probability>
1

> <r_epik_Ionization_Penalty>
6.61671e-05

> <r_epik_Ionization_Penalty_Charging>
0

> <r_epik_Ionization_Penalty_Neutral>
6.61671e-05

> <r_epik_State_Penalty>
-0

> <r_epik_Charging_Adjusted_Penalty>
0

> <i_epik_Tot_Q>
0

> <i_epik_Tot_abs_Q>
0

> <r_epik_Metal_State_Penalty>
-0

> <b_epik_Metal_Only>
0

> <s_lp_Force_Field>
OPLS_2005

> <r_lp_Energy>
29.3819

> <b_lp_Chiralities_Consistent>
1

> <s_lp_Variant>
AV-unprocessed.smi:2911-4

> <Gold.Version>
5.8.1

> <Gold.Id.Protein>
6NUR|6NUR_protein|mol2

> <Gold.PLP.Fitness>
46.0382

> <Gold.PLP.PLP>
-41.6964

> <Gold.PLP.part.hbond>
-2.7118

> <Gold.PLP.part.metal>
0.0000

> <Gold.PLP.part.buried>
-5.7667

> <Gold.PLP.part.nonpolar>
-33.0007

> <Gold.PLP.part.repulsive>
0.2154

> <Gold.PLP.ligand.clash>
0.0000

> <Gold.PLP.ligand.torsion>
0.6718

> <Gold.PLP.Chemscore.Hbond>
1.7520

> <Gold.PLP.Chemscore.CHOScore>
0.0000

> <Gold.PLP.Chemscore.Metal>
0.0000

> <Gold.Chemscore.Hbonds>
donor molecule, donor type, donor heavy atom, donor atom, acceptor molecule, acceptor atom, score
      P1  H  7989  7998       L1     4  0.38
      P1  H  7997  8010       L1     3  0.33

> <Gold.PLP.Chemscore.Internal.Correction>
0.4294

> <Gold.Rescore>
     Score         DG    S(hbond)    S(metal)    S(lipo)     H(rot)  DE(clash)    DE(int)     intcor
     13.87     -15.88       0.99        0.00      95.99       1.61       0.05       1.96       ----

> <Gold.Chemscore.Fitness>
13.8686

> <Gold.Chemscore.DG>
-15.8834

> <Gold.Chemscore.ZeroCoef>
-5.4800

> <Gold.Chemscore.Hbond>
0.9853

> <Gold.Chemscore.Metal>
0.0000

> <Gold.Chemscore.Lipo>
95.9921

> <Gold.Chemscore.Internal_Hbond>
0.0000

> <Gold.Chemscore.DEClash>
0.0526

> <Gold.Chemscore.DEInternal>
1.9622

> <Gold.Chemscore.Rot>
1.6088

> <Gold.Chemscore.Internal.Correction>
   9.000000E+99

> <Gold.Chemscore.Hbonds>
donor molecule, donor type, donor heavy atom, donor atom, acceptor molecule, acceptor atom, score
      P1  H  7989  7998       L1     4  0.30
      P1  H  7997  8010       L1     3  0.01

> <Gold.Chemscore.Hbond.Weighted>
-3.2909

> <Gold.Chemscore.Metal.Weighted>
-0.0000

> <Gold.Chemscore.Lipo.Weighted>
-11.2311

> <Gold.Chemscore.Internal_Hbond.Weighted>
0.0000

> <Gold.Chemscore.DEClash.Weighted>
0.0526

> <Gold.Chemscore.DEInternal.Weighted>
1.9622

> <Gold.Chemscore.Rot.Weighted>
4.1186

> <Gold.Chemscore.Internal.Correction.Weighted>
   9.000000E+99

> <Gold.Protein.RotatedTorsions>
[ 6907 6896 6895 6894 ] final  -77.53 input  -60.11 | X-H torsion
[ 7974 7965 7964 7962 ] final  136.32 input  175.53 | X-H torsion
[ 8008 7997 7996 7995 ] final  114.56 input   59.86 | X-H torsion
[ 10167 10162 10161 10158 ] final -110.64 input  -65.29 | X-H torsion
[ 10718 10713 10712 10709 ] final  -31.29 input   66.30 | X-H torsion
[ 10763 10752 10751 10750 ] final  -77.21 input  -60.55 | X-H torsion
[ 11005 11000 10999 10996 ] final  -64.11 input  -57.11 | X-H torsion

> <Gold.Protein.ActiveResidues>
 VAL166  LYS551  ARG553  GLY616  TRP617  ASP618  TYR619  PRO620  LYS621  CYS622 
 ASP623  PHE694  ASN695  SER759  ASP760  ASP761  ALA762  ILE779  LEU786  VAL792 
 PHE793  MET794  SER795  GLU796  ALA797  LYS798  CYS799  TRP800  GLU811  SER814 

> <Gold.Protein.RotatedAtoms>
  150.6996  134.4408  159.5291 H   0  0  0  0  0  0  0  0  0  0  0  0  # atno 6907 bound_to 6896
  152.2118  134.8491  160.0505 H   0  0  0  0  0  0  0  0  0  0  0  0  # atno 6908 bound_to 6896
  151.9374  133.3593  159.3989 H   0  0  0  0  0  0  0  0  0  0  0  0  # atno 6909 bound_to 6896
  144.9576  139.4746  143.5495 H   0  0  0  0  0  0  0  0  0  0  0  0  # atno 7974 bound_to 7965
  156.2328  140.2957  156.0233 H   0  0  0  0  0  0  0  0  0  0  0  0  # atno 8008 bound_to 7997
  155.2176  140.0414  157.2960 H   0  0  0  0  0  0  0  0  0  0  0  0  # atno 8009 bound_to 7997
  154.6026  140.2431  155.7780 H   0  0  0  0  0  0  0  0  0  0  0  0  # atno 8010 bound_to 7997
  140.1423  143.4269  152.1553 H   0  0  0  0  0  0  0  0  0  0  0  0  # atno 10167 bound_to 10162
  156.3891  130.4369  149.7409 H   0  0  0  0  0  0  0  0  0  0  0  0  # atno 10718 bound_to 10713
  154.5100  135.5771  153.6597 H   0  0  0  0  0  0  0  0  0  0  0  0  # atno 10763 bound_to 10752
  152.9895  135.6156  154.2891 H   0  0  0  0  0  0  0  0  0  0  0  0  # atno 10764 bound_to 10752
  154.2805  135.2851  155.2678 H   0  0  0  0  0  0  0  0  0  0  0  0  # atno 10765 bound_to 10752
  141.1414  133.6661  156.5783 H   0  0  0  0  0  0  0  0  0  0  0  0  # atno 11005 bound_to 11000
  146.3342  139.8705  142.8841 LP  0  0  0  0  0  0  0  0  0  0  0  0  # atno 17320 bound_to 7965
  145.2748  141.0120  143.3751 LP  0  0  0  0  0  0  0  0  0  0  0  0  # atno 17321 bound_to 7965
  139.5466  144.7303  151.4565 LP  0  0  0  0  0  0  0  0  0  0  0  0  # atno 17342 bound_to 10162
  140.6753  143.8204  150.7050 LP  0  0  0  0  0  0  0  0  0  0  0  0  # atno 17343 bound_to 10162
  156.4469  130.7888  151.2909 LP  0  0  0  0  0  0  0  0  0  0  0  0  # atno 17370 bound_to 10713
  157.7498  131.0107  150.3318 LP  0  0  0  0  0  0  0  0  0  0  0  0  # atno 17371 bound_to 10713
  140.3858  134.7483  157.4690 LP  0  0  0  0  0  0  0  0  0  0  0  0  # atno 17394 bound_to 11000
  140.0603  134.6005  155.8756 LP  0  0  0  0  0  0  0  0  0  0  0  0  # atno 17395 bound_to 11000

$$$$
