AV-unprocessed.smi:3202|AV-procd|sdf|12241|dock6
  -GOLD-   2272018 73D 1   1.00000     0.00000
 Structure written by MMmdl.
 43 44  0  0  0  0  0  0  0  0  2 V2000
  138.9482  139.2666  153.3451 C   0  0  0  0  0  0  0  0  0  0  0  0
  140.1898  138.4606  153.5217 C   0  0  0  0  0  0  0  0  0  0  0  0
  140.3766  137.1350  153.7953 C   0  0  0  0  0  0  0  0  0  0  0  0
  141.7933  136.9796  153.8400 C   0  0  0  0  0  0  0  0  0  0  0  0
  142.5731  135.7217  154.1129 C   0  0  0  0  0  0  0  0  0  0  0  0
  142.5670  134.7246  152.9308 C   0  0  2  0  0  0  0  0  0  0  0  0
  141.3023  133.8506  152.8943 C   0  0  0  0  0  0  0  0  0  0  0  0
  143.7549  133.8415  152.9838 N   0  3  0  0  0  0  0  0  0  0  0  0
  144.4521  133.6071  151.6964 C   0  0  2  0  0  0  0  0  0  0  0  0
  143.6158  132.8070  150.6873 C   0  0  0  0  0  0  0  0  0  0  0  0
  144.6310  132.1051  149.7762 C   0  0  0  0  0  0  0  0  0  0  0  0
  146.0133  132.3567  150.3962 C   0  0  0  0  0  0  0  0  0  0  0  0
  145.7648  132.8084  151.8467 C   0  0  0  0  0  0  0  0  0  0  0  0
  146.9168  133.6930  152.3589 C   0  0  0  0  0  0  0  0  0  0  0  0
  145.6162  131.5712  152.7627 C   0  0  0  0  0  0  0  0  0  0  0  0
  142.4331  138.1181  153.6121 N   0  0  0  0  0  0  0  0  0  0  0  0
  141.4459  139.0125  153.4209 N   0  0  0  0  0  0  0  0  0  0  0  0
  141.6411  139.9839  153.2224 H   0  0  0  0  0  0  0  0  0  0  0  0
  138.0616  138.6348  153.4027 H   0  0  0  0  0  0  0  0  0  0  0  0
  138.9431  139.7650  152.3755 H   0  0  0  0  0  0  0  0  0  0  0  0
  138.8685  140.0297  154.1195 H   0  0  0  0  0  0  0  0  0  0  0  0
  139.6131  136.3853  153.9427 H   0  0  0  0  0  0  0  0  0  0  0  0
  143.5963  136.0000  154.3630 H   0  0  0  0  0  0  0  0  0  0  0  0
  142.1810  135.2296  155.0044 H   0  0  0  0  0  0  0  0  0  0  0  0
  142.5955  135.2864  151.9970 H   0  0  0  0  0  0  0  0  0  0  0  0
  140.4050  134.4477  152.7315 H   0  0  0  0  0  0  0  0  0  0  0  0
  141.1725  133.2990  153.8260 H   0  0  0  0  0  0  0  0  0  0  0  0
  141.3515  133.1245  152.0823 H   0  0  0  0  0  0  0  0  0  0  0  0
  144.4106  134.2371  153.6423 H   0  0  0  0  0  0  0  0  0  0  0  0
  144.6958  134.5679  151.2419 H   0  0  0  0  0  0  0  0  0  0  0  0
  143.0089  132.0591  151.1999 H   0  0  0  0  0  0  0  0  0  0  0  0
  142.9362  133.4451  150.1216 H   0  0  0  0  0  0  0  0  0  0  0  0
  144.4167  131.0368  149.7300 H   0  0  0  0  0  0  0  0  0  0  0  0
  144.5879  132.4894  148.7565 H   0  0  0  0  0  0  0  0  0  0  0  0
  146.6623  131.4829  150.3282 H   0  0  0  0  0  0  0  0  0  0  0  0
  146.5029  133.1563  149.8380 H   0  0  0  0  0  0  0  0  0  0  0  0
  147.8578  133.1423  152.3759 H   0  0  0  0  0  0  0  0  0  0  0  0
  146.7241  134.0475  153.3720 H   0  0  0  0  0  0  0  0  0  0  0  0
  147.0631  134.5702  151.7275 H   0  0  0  0  0  0  0  0  0  0  0  0
  146.5268  130.9712  152.7582 H   0  0  0  0  0  0  0  0  0  0  0  0
  144.8005  130.9207  152.4465 H   0  0  0  0  0  0  0  0  0  0  0  0
  145.4277  131.8555  153.7983 H   0  0  0  0  0  0  0  0  0  0  0  0
  143.4614  132.9401  153.3325 H   0  0  0  0  0  0  0  0  0  0  0  0
  1  2  1  0  0  0  0
  1 19  1  0  0  0  0
  1 20  1  0  0  0  0
  1 21  1  0  0  0  0
  2 17  1  0  0  0  0
  2  3  2  0  0  0  0
  3  4  1  0  0  0  0
  3 22  1  0  0  0  0
  4  5  1  0  0  0  0
  4 16  2  0  0  0  0
  5  6  1  0  0  0  0
  5 23  1  0  0  0  0
  5 24  1  0  0  0  0
  6  7  1  0  0  0  0
  6  8  1  0  0  0  0
  6 25  1  0  0  0  0
  7 26  1  0  0  0  0
  7 27  1  0  0  0  0
  7 28  1  0  0  0  0
  8  9  1  0  0  0  0
  8 29  1  0  0  0  0
  8 43  1  0  0  0  0
  9 13  1  0  0  0  0
  9 10  1  0  0  0  0
  9 30  1  0  0  0  0
 10 11  1  0  0  0  0
 10 31  1  0  0  0  0
 10 32  1  0  0  0  0
 11 12  1  0  0  0  0
 11 33  1  0  0  0  0
 11 34  1  0  0  0  0
 12 13  1  0  0  0  0
 12 35  1  0  0  0  0
 12 36  1  0  0  0  0
 13 14  1  0  0  0  0
 13 15  1  0  0  0  0
 14 37  1  0  0  0  0
 14 38  1  0  0  0  0
 14 39  1  0  0  0  0
 15 40  1  0  0  0  0
 15 41  1  0  0  0  0
 15 42  1  0  0  0  0
 16 17  1  0  0  0  0
 17 18  1  0  0  0  0
M  CHG  1   8   1
M  END
> <s_m_source_file>
AV-unprocessed.smi

> <i_m_source_file_index>
3202

> <i_lp_mmshare_version>
43012

> <i_f3d_flags>
0

> <s_epik_input>
W0NIM11jMVtjSF1jKG5bbkhdMSlbQ0gyXVtDQEhdKFtDSDNdKVtOSF1bQ0BASF0oQzIoW0NIM10pW0NIM10pW0NIMl1bQ0gyXVtDSDJdMg==

> <s_epik_cmdline>
J2VwaWtfcHl0aG9uJywgJy1waCcsICc3LjAnLCAnLXRuJywgJzgnLCAnLW1hJywgJzIwMCcsICctbWV0YWxfYmluZGluZycsICctaW1hZScsICc8aW5maWxlLm1hZT4nLCAnLW9tYWUnLCAnPG91dGZpbGUubWFlPic=

> <r_lp_tautomer_probability>
0.5

> <r_epik_Ionization_Penalty>
0.000341671

> <r_epik_Ionization_Penalty_Charging>
0.000281809

> <r_epik_Ionization_Penalty_Neutral>
5.9862e-05

> <r_epik_State_Penalty>
0.41068

> <r_epik_Charging_Adjusted_Penalty>
0.410962

> <i_epik_Tot_Q>
1

> <i_epik_Tot_abs_Q>
1

> <r_epik_Metal_State_Penalty>
0.410672

> <b_epik_Metal_Only>
0

> <s_lp_Force_Field>
OPLS_2005

> <r_lp_Energy>
28.8614

> <b_lp_Chiralities_Consistent>
1

> <s_lp_Variant>
AV-unprocessed.smi:3202-1

> <Gold.Version>
5.8.1

> <Gold.Id.Protein>
6NUR|6NUR_protein|mol2

> <Gold.PLP.Fitness>
37.7749

> <Gold.PLP.PLP>
-32.8942

> <Gold.PLP.part.hbond>
-2.7874

> <Gold.PLP.part.metal>
0.0000

> <Gold.PLP.part.buried>
-3.5255

> <Gold.PLP.part.nonpolar>
-29.5614

> <Gold.PLP.part.repulsive>
2.1640

> <Gold.PLP.ligand.clash>
0.0000

> <Gold.PLP.ligand.torsion>
1.0207

> <Gold.PLP.Chemscore.Hbond>
2.3050

> <Gold.PLP.Chemscore.CHOScore>
0.0000

> <Gold.PLP.Chemscore.Metal>
0.0000

> <Gold.Chemscore.Hbonds>
donor molecule, donor type, donor heavy atom, donor atom, acceptor molecule, acceptor atom, score
      L1  H     8    43       P1 10957  2.00
      L1  H    17    18       P1 10175  0.28

> <Gold.PLP.Chemscore.Internal.Correction>
0.0072

> <Gold.Rescore>
     Score         DG    S(hbond)    S(metal)    S(lipo)     H(rot)  DE(clash)    DE(int)     intcor
     14.65     -15.76       0.89        0.00      94.37       1.46       0.15       0.96       ----

> <Gold.Chemscore.Fitness>
14.6500

> <Gold.Chemscore.DG>
-15.7627

> <Gold.Chemscore.ZeroCoef>
-5.4800

> <Gold.Chemscore.Hbond>
0.8916

> <Gold.Chemscore.Metal>
0.0000

> <Gold.Chemscore.Lipo>
94.3701

> <Gold.Chemscore.Internal_Hbond>
0.0000

> <Gold.Chemscore.DEClash>
0.1501

> <Gold.Chemscore.DEInternal>
0.9626

> <Gold.Chemscore.Rot>
1.4596

> <Gold.Chemscore.Internal.Correction>
   9.000000E+99

> <Gold.Chemscore.Hbonds>
donor molecule, donor type, donor heavy atom, donor atom, acceptor molecule, acceptor atom, score
      L1  H     8    43       P1 10957  0.64
      L1  H    17    18       P1 10175  0.07

> <Gold.Chemscore.Hbond.Weighted>
-2.9779

> <Gold.Chemscore.Metal.Weighted>
-0.0000

> <Gold.Chemscore.Lipo.Weighted>
-11.0413

> <Gold.Chemscore.Internal_Hbond.Weighted>
0.0000

> <Gold.Chemscore.DEClash.Weighted>
0.1501

> <Gold.Chemscore.DEInternal.Weighted>
0.9626

> <Gold.Chemscore.Rot.Weighted>
3.7365

> <Gold.Chemscore.Internal.Correction.Weighted>
   9.000000E+99

> <Gold.Protein.RotatedTorsions>
[ 6907 6896 6895 6894 ] final  106.33 input  -60.11 | X-H torsion
[ 7974 7965 7964 7962 ] final  139.41 input  175.53 | X-H torsion
[ 8008 7997 7996 7995 ] final  124.96 input   59.86 | X-H torsion
[ 10167 10162 10161 10158 ] final  175.53 input  -65.29 | X-H torsion
[ 10718 10713 10712 10709 ] final   82.46 input   66.30 | X-H torsion
[ 10763 10752 10751 10750 ] final    0.32 input  -60.55 | X-H torsion
[ 11005 11000 10999 10996 ] final  -18.90 input  -57.11 | X-H torsion

> <Gold.Protein.ActiveResidues>
 VAL166  LYS551  ARG553  GLY616  TRP617  ASP618  TYR619  PRO620  LYS621  CYS622 
 ASP623  PHE694  ASN695  SER759  ASP760  ASP761  ALA762  ILE779  LEU786  VAL792 
 PHE793  MET794  SER795  GLU796  ALA797  LYS798  CYS799  TRP800  GLU811  SER814 

> <Gold.Protein.RotatedAtoms>
  152.5198  133.9397  159.7620 H   0  0  0  0  0  0  0  0  0  0  0  0  # atno 6907 bound_to 6896
  150.9729  133.6316  159.2742 H   0  0  0  0  0  0  0  0  0  0  0  0  # atno 6908 bound_to 6896
  151.3521  135.0892  159.9459 H   0  0  0  0  0  0  0  0  0  0  0  0  # atno 6909 bound_to 6896
  144.9282  139.5081  143.5631 H   0  0  0  0  0  0  0  0  0  0  0  0  # atno 7974 bound_to 7965
  156.2819  140.2727  156.1873 H   0  0  0  0  0  0  0  0  0  0  0  0  # atno 8008 bound_to 7997
  155.0495  140.0386  157.2556 H   0  0  0  0  0  0  0  0  0  0  0  0  # atno 8009 bound_to 7997
  154.7207  140.2687  155.6549 H   0  0  0  0  0  0  0  0  0  0  0  0  # atno 8010 bound_to 7997
  139.5180  144.3021  152.0369 H   0  0  0  0  0  0  0  0  0  0  0  0  # atno 10167 bound_to 10162
  157.6857  131.0048  150.2377 H   0  0  0  0  0  0  0  0  0  0  0  0  # atno 10718 bound_to 10713
  153.3222  135.6970  153.7021 H   0  0  0  0  0  0  0  0  0  0  0  0  # atno 10763 bound_to 10752
  153.5857  135.3489  155.2892 H   0  0  0  0  0  0  0  0  0  0  0  0  # atno 10764 bound_to 10752
  154.8600  135.4305  154.2388 H   0  0  0  0  0  0  0  0  0  0  0  0  # atno 10765 bound_to 10752
  140.8313  133.7994  155.9762 H   0  0  0  0  0  0  0  0  0  0  0  0  # atno 11005 bound_to 11000
  146.3235  139.8212  142.8926 LP  0  0  0  0  0  0  0  0  0  0  0  0  # atno 17320 bound_to 7965
  145.3185  141.0238  143.3514 LP  0  0  0  0  0  0  0  0  0  0  0  0  # atno 17321 bound_to 7965
  140.2468  144.4211  150.6237 LP  0  0  0  0  0  0  0  0  0  0  0  0  # atno 17342 bound_to 10162
  140.6252  143.2180  151.6611 LP  0  0  0  0  0  0  0  0  0  0  0  0  # atno 17343 bound_to 10162
  156.2998  130.3757  149.7761 LP  0  0  0  0  0  0  0  0  0  0  0  0  # atno 17370 bound_to 10713
  156.5395  130.8293  151.3264 LP  0  0  0  0  0  0  0  0  0  0  0  0  # atno 17371 bound_to 10713
  140.8994  134.2397  157.5050 LP  0  0  0  0  0  0  0  0  0  0  0  0  # atno 17394 bound_to 11000
  139.8705  134.9699  156.4684 LP  0  0  0  0  0  0  0  0  0  0  0  0  # atno 17395 bound_to 11000

$$$$
