AV-unprocessed.smi:1224|AV-procd|sdf|5135|dock8
  -GOLD-   22720 4193D 1   1.00000     0.00000
 Structure written by MMmdl.
 44 46  0  0  0  0  0  0  0  0  2 V2000
  152.2862  145.2000  160.5555 C   0  0  0  0  0  0  0  0  0  0  0  0
  151.9461  144.0119  159.6718 C   0  0  0  0  0  0  0  0  0  0  0  0
  151.3365  144.2552  158.4201 C   0  0  0  0  0  0  0  0  0  0  0  0
  151.0397  143.1486  157.6332 C   0  0  0  0  0  0  0  0  0  0  0  0
  150.4503  143.0533  156.3705 N   0  3  0  0  0  0  0  0  0  0  0  0
  150.3686  141.7439  156.0046 C   0  0  0  0  0  0  0  0  0  0  0  0
  150.8917  141.0025  157.0185 N   0  0  0  0  0  0  0  0  0  0  0  0
  151.0481  139.5474  157.1443 C   0  0  0  0  0  0  0  0  0  0  0  0
  149.9685  138.9030  158.0396 C   0  0  1  0  0  0  0  0  0  0  0  0
  148.6930  139.2266  157.5247 O   0  0  0  0  0  0  0  0  0  0  0  0
  150.0849  137.3721  158.0964 C   0  0  0  0  0  0  0  0  0  0  0  0
  149.4705  136.8356  159.3097 N   0  0  0  0  0  0  0  0  0  0  0  0
  148.0389  136.5743  159.1863 C   0  0  0  0  0  0  0  0  0  0  0  0
  147.4350  136.0493  160.4481 C   0  0  0  0  0  0  0  0  0  0  0  0
  147.3714  136.6683  161.6709 C   0  0  0  0  0  0  0  0  0  0  0  0
  146.7283  135.8768  162.6671 C   0  0  0  0  0  0  0  0  0  0  0  0
  146.3090  134.6629  162.1913 C   0  0  0  0  0  0  0  0  0  0  0  0
  146.6977  134.4680  160.5043 S   0  0  0  0  0  0  0  0  0  0  0  0
  151.3277  141.8358  158.0531 C   0  0  0  0  0  0  0  0  0  0  0  0
  151.9282  141.5775  159.2825 C   0  0  0  0  0  0  0  0  0  0  0  0
  152.2375  142.6898  160.0978 C   0  0  0  0  0  0  0  0  0  0  0  0
  152.8931  142.4401  161.4454 C   0  0  0  0  0  0  0  0  0  0  0  0
  152.0079  146.1421  160.0821 H   0  0  0  0  0  0  0  0  0  0  0  0
  153.3569  145.2325  160.7579 H   0  0  0  0  0  0  0  0  0  0  0  0
  151.7554  145.1351  161.5056 H   0  0  0  0  0  0  0  0  0  0  0  0
  151.1120  145.2586  158.0890 H   0  0  0  0  0  0  0  0  0  0  0  0
  149.9594  141.3625  155.0800 H   0  0  0  0  0  0  0  0  0  0  0  0
  151.0078  139.1251  156.1391 H   0  0  0  0  0  0  0  0  0  0  0  0
  152.0502  139.3437  157.5240 H   0  0  0  0  0  0  0  0  0  0  0  0
  150.0257  139.3085  159.0507 H   0  0  0  0  0  0  0  0  0  0  0  0
  148.1437  139.5066  158.2406 H   0  0  0  0  0  0  0  0  0  0  0  0
  149.5908  136.9414  157.2244 H   0  0  0  0  0  0  0  0  0  0  0  0
  151.1336  137.0785  158.0345 H   0  0  0  0  0  0  0  0  0  0  0  0
  149.6378  137.4618  160.0905 H   0  0  0  0  0  0  0  0  0  0  0  0
  147.5310  137.5029  158.9248 H   0  0  0  0  0  0  0  0  0  0  0  0
  147.8496  135.8885  158.3596 H   0  0  0  0  0  0  0  0  0  0  0  0
  147.7628  137.6523  161.8824 H   0  0  0  0  0  0  0  0  0  0  0  0
  146.5978  136.2205  163.6825 H   0  0  0  0  0  0  0  0  0  0  0  0
  145.7984  133.8752  162.7252 H   0  0  0  0  0  0  0  0  0  0  0  0
  152.1500  140.5703  159.6038 H   0  0  0  0  0  0  0  0  0  0  0  0
  153.0189  141.3738  161.6365 H   0  0  0  0  0  0  0  0  0  0  0  0
  152.2848  142.8521  162.2509 H   0  0  0  0  0  0  0  0  0  0  0  0
  153.8787  142.9045  161.4828 H   0  0  0  0  0  0  0  0  0  0  0  0
  150.1292  143.8233  155.7976 H   0  0  0  0  0  0  0  0  0  0  0  0
  1  2  1  0  0  0  0
  1 23  1  0  0  0  0
  1 24  1  0  0  0  0
  1 25  1  0  0  0  0
  2 21  1  0  0  0  0
  2  3  2  0  0  0  0
  3  4  1  0  0  0  0
  3 26  1  0  0  0  0
  4 19  2  0  0  0  0
  4  5  1  0  0  0  0
  5  6  2  0  0  0  0
  5 44  1  0  0  0  0
  6  7  1  0  0  0  0
  6 27  1  0  0  0  0
  7  8  1  0  0  0  0
  7 19  1  0  0  0  0
  8  9  1  0  0  0  0
  8 28  1  0  0  0  0
  8 29  1  0  0  0  0
  9 10  1  0  0  0  0
  9 11  1  0  0  0  0
  9 30  1  0  0  0  0
 10 31  1  0  0  0  0
 11 12  1  0  0  0  0
 11 32  1  0  0  0  0
 11 33  1  0  0  0  0
 12 13  1  0  0  0  0
 12 34  1  0  0  0  0
 13 14  1  0  0  0  0
 13 35  1  0  0  0  0
 13 36  1  0  0  0  0
 14 18  1  0  0  0  0
 14 15  2  0  0  0  0
 15 16  1  0  0  0  0
 15 37  1  0  0  0  0
 16 17  2  0  0  0  0
 16 38  1  0  0  0  0
 17 18  1  0  0  0  0
 17 39  1  0  0  0  0
 19 20  1  0  0  0  0
 20 21  2  0  0  0  0
 20 40  1  0  0  0  0
 21 22  1  0  0  0  0
 22 41  1  0  0  0  0
 22 42  1  0  0  0  0
 22 43  1  0  0  0  0
M  CHG  1   5   1
M  END
> <s_m_source_file>
AV-unprocessed.smi

> <i_m_source_file_index>
1224

> <i_lp_mmshare_version>
43012

> <i_f3d_flags>
0

> <s_epik_input>
W0NIM11jKFtjSF0xKWMoW0NIM10pW2NIXWMoYzEyKW4oW2NIXW4yKVtDSDJdW0NASF0oW09IXSlbQ0gyXVtOSF1bQ0gyXWMzW2NIXVtjSF1bY0hdczM=

> <s_epik_cmdline>
J2VwaWtfcHl0aG9uJywgJy1waCcsICc3LjAnLCAnLXRuJywgJzgnLCAnLW1hJywgJzIwMCcsICctbWV0YWxfYmluZGluZycsICctaW1hZScsICc8aW5maWxlLm1hZT4nLCAnLW9tYWUnLCAnPG91dGZpbGUubWFlPic=

> <r_epik_Ionization_Penalty>
2.3772

> <r_epik_Ionization_Penalty_Charging>
0.996291

> <r_epik_Ionization_Penalty_Neutral>
1.38091

> <r_epik_State_Penalty>
2.60954

> <r_epik_Charging_Adjusted_Penalty>
3.60583

> <i_epik_Tot_Q>
1

> <i_epik_Tot_abs_Q>
1

> <r_epik_Metal_State_Penalty>
6.5861

> <b_epik_Metal_Only>
0

> <s_lp_Force_Field>
OPLS_2005

> <r_lp_Energy>
14.7648

> <b_lp_Chiralities_Consistent>
1

> <s_lp_Variant>
AV-unprocessed.smi:1224-8

> <Gold.Version>
5.8.1

> <Gold.Id.Protein>
6NUR|6NUR_protein|mol2

> <Gold.PLP.Fitness>
61.2631

> <Gold.PLP.PLP>
-53.5788

> <Gold.PLP.part.hbond>
-2.0000

> <Gold.PLP.part.metal>
0.0000

> <Gold.PLP.part.buried>
-7.1688

> <Gold.PLP.part.nonpolar>
-45.6289

> <Gold.PLP.part.repulsive>
0.0837

> <Gold.PLP.ligand.clash>
0.0000

> <Gold.PLP.ligand.torsion>
0.6715

> <Gold.PLP.Chemscore.Hbond>
2.9840

> <Gold.PLP.Chemscore.CHOScore>
0.0000

> <Gold.PLP.Chemscore.Metal>
0.0000

> <Gold.Chemscore.Hbonds>
donor molecule, donor type, donor heavy atom, donor atom, acceptor molecule, acceptor atom, score
      L1  H     5    44       P1  8028  1.59

> <Gold.PLP.Chemscore.Internal.Correction>
0.0752

> <Gold.Rescore>
     Score         DG    S(hbond)    S(metal)    S(lipo)     H(rot)  DE(clash)    DE(int)     intcor
     18.28     -19.00       1.03        0.00     138.62       2.40       0.00       0.72       ----

> <Gold.Chemscore.Fitness>
18.2770

> <Gold.Chemscore.DG>
-18.9969

> <Gold.Chemscore.ZeroCoef>
-5.4800

> <Gold.Chemscore.Hbond>
1.0300

> <Gold.Chemscore.Metal>
0.0000

> <Gold.Chemscore.Lipo>
138.6165

> <Gold.Chemscore.Internal_Hbond>
0.0000

> <Gold.Chemscore.DEClash>
0.0044

> <Gold.Chemscore.DEInternal>
0.7155

> <Gold.Chemscore.Rot>
2.3990

> <Gold.Chemscore.Internal.Correction>
   9.000000E+99

> <Gold.Chemscore.Hbonds>
donor molecule, donor type, donor heavy atom, donor atom, acceptor molecule, acceptor atom, score
      L1  H     5    44       P1  8028  0.73
      P1  H  6896  6907       L1    12  0.01

> <Gold.Chemscore.Hbond.Weighted>
-3.4403

> <Gold.Chemscore.Metal.Weighted>
-0.0000

> <Gold.Chemscore.Lipo.Weighted>
-16.2181

> <Gold.Chemscore.Internal_Hbond.Weighted>
0.0000

> <Gold.Chemscore.DEClash.Weighted>
0.0044

> <Gold.Chemscore.DEInternal.Weighted>
0.7155

> <Gold.Chemscore.Rot.Weighted>
6.1415

> <Gold.Chemscore.Internal.Correction.Weighted>
   9.000000E+99

> <Gold.Protein.RotatedTorsions>
[ 6907 6896 6895 6894 ] final  -52.68 input  -60.11 | X-H torsion
[ 7974 7965 7964 7962 ] final -123.09 input  175.53 | X-H torsion
[ 8008 7997 7996 7995 ] final  -39.02 input   59.86 | X-H torsion
[ 10167 10162 10161 10158 ] final  -37.60 input  -65.29 | X-H torsion
[ 10718 10713 10712 10709 ] final -151.08 input   66.30 | X-H torsion
[ 10763 10752 10751 10750 ] final  -92.06 input  -60.55 | X-H torsion
[ 11005 11000 10999 10996 ] final   33.15 input  -57.11 | X-H torsion

> <Gold.Protein.ActiveResidues>
 VAL166  LYS551  ARG553  GLY616  TRP617  ASP618  TYR619  PRO620  LYS621  CYS622 
 ASP623  PHE694  ASN695  SER759  ASP760  ASP761  ALA762  ILE779  LEU786  VAL792 
 PHE793  MET794  SER795  GLU796  ALA797  LYS798  CYS799  TRP800  GLU811  SER814 

> <Gold.Protein.RotatedAtoms>
  150.8496  134.7816  159.6997 H   0  0  0  0  0  0  0  0  0  0  0  0  # atno 6907 bound_to 6896
  152.4564  134.5279  159.9812 H   0  0  0  0  0  0  0  0  0  0  0  0  # atno 6908 bound_to 6896
  151.5402  133.3396  159.2970 H   0  0  0  0  0  0  0  0  0  0  0  0  # atno 6909 bound_to 6896
  145.0224  140.8000  143.4372 H   0  0  0  0  0  0  0  0  0  0  0  0  # atno 7974 bound_to 7965
  154.4028  140.1562  156.2795 H   0  0  0  0  0  0  0  0  0  0  0  0  # atno 8008 bound_to 7997
  155.8882  140.3440  155.5915 H   0  0  0  0  0  0  0  0  0  0  0  0  # atno 8009 bound_to 7997
  155.7589  140.0815  157.2155 H   0  0  0  0  0  0  0  0  0  0  0  0  # atno 8010 bound_to 7997
  140.7114  143.3331  151.2524 H   0  0  0  0  0  0  0  0  0  0  0  0  # atno 10167 bound_to 10162
  156.4545  130.8184  151.2415 H   0  0  0  0  0  0  0  0  0  0  0  0  # atno 10718 bound_to 10713
  154.6823  135.5245  153.8279 H   0  0  0  0  0  0  0  0  0  0  0  0  # atno 10763 bound_to 10752
  153.0573  135.6555  154.0556 H   0  0  0  0  0  0  0  0  0  0  0  0  # atno 10764 bound_to 10752
  154.0441  135.2974  155.3330 H   0  0  0  0  0  0  0  0  0  0  0  0  # atno 10765 bound_to 10752
  140.2661  134.3136  155.7842 H   0  0  0  0  0  0  0  0  0  0  0  0  # atno 11005 bound_to 11000
  145.1877  139.2317  143.5259 LP  0  0  0  0  0  0  0  0  0  0  0  0  # atno 17320 bound_to 7965
  146.3487  140.1666  142.8590 LP  0  0  0  0  0  0  0  0  0  0  0  0  # atno 17321 bound_to 7965
  139.6819  143.9840  152.2813 LP  0  0  0  0  0  0  0  0  0  0  0  0  # atno 17342 bound_to 10162
  139.9473  144.6643  150.8207 LP  0  0  0  0  0  0  0  0  0  0  0  0  # atno 17343 bound_to 10162
  157.7501  131.0127  150.3395 LP  0  0  0  0  0  0  0  0  0  0  0  0  # atno 17370 bound_to 10713
  156.3781  130.3875  149.7123 LP  0  0  0  0  0  0  0  0  0  0  0  0  # atno 17371 bound_to 10713
  141.2184  133.7438  156.9262 LP  0  0  0  0  0  0  0  0  0  0  0  0  # atno 17394 bound_to 11000
  140.1418  134.9288  157.2477 LP  0  0  0  0  0  0  0  0  0  0  0  0  # atno 17395 bound_to 11000

$$$$
