AV-unprocessed.smi:3216|AV-procd|sdf|12288|dock1
  -GOLD-   2272018133D 1   1.00000     0.00000
 Structure written by MMmdl.
 36 36  0  0  0  0  0  0  0  0  1 V2000
  144.8245  131.1145  151.1865 C   0  0  0  0  0  0  0  0  0  0  0  0
  145.4066  132.4874  150.8065 C   0  0  0  0  0  0  0  0  0  0  0  0
  146.4984  132.9062  151.8020 C   0  0  0  0  0  0  0  0  0  0  0  0
  144.3203  133.5747  150.6986 C   0  0  0  0  0  0  0  0  0  0  0  0
  144.8814  134.8555  150.2882 N   0  0  0  0  0  0  0  0  0  0  0  0
  145.2891  135.8118  151.1344 C   0  0  0  0  0  0  0  0  0  0  0  0
  145.2306  135.7012  152.3591 O   0  0  0  0  0  0  0  0  0  0  0  0
  145.8598  137.0872  150.5032 C   0  0  0  0  0  0  0  0  0  0  0  0
  147.0154  137.6549  151.2159 N   0  0  0  0  0  0  0  0  0  0  0  0
  146.6826  138.8084  152.0462 C   0  0  0  0  0  0  0  0  0  0  0  0
  147.1672  138.5865  153.4887 C   0  0  0  0  0  0  0  0  0  0  0  0
  147.9039  139.7266  154.0059 N   0  0  0  0  0  0  0  0  0  0  0  0
  149.1826  139.7569  154.5217 C   0  0  0  0  0  0  0  0  0  0  0  0
  149.4453  141.0475  154.8817 C   0  0  0  0  0  0  0  0  0  0  0  0
  148.2516  141.7428  154.5404 C   0  0  0  0  0  0  0  0  0  0  0  0
  147.3321  140.9504  154.0133 N   0  0  0  0  0  0  0  0  0  0  0  0
  144.3128  131.1553  152.1486 H   0  0  0  0  0  0  0  0  0  0  0  0
  145.6110  130.3628  151.2610 H   0  0  0  0  0  0  0  0  0  0  0  0
  144.1091  130.7601  150.4440 H   0  0  0  0  0  0  0  0  0  0  0  0
  145.8800  132.3880  149.8286 H   0  0  0  0  0  0  0  0  0  0  0  0
  146.0935  133.0242  152.8076 H   0  0  0  0  0  0  0  0  0  0  0  0
  146.9524  133.8543  151.5126 H   0  0  0  0  0  0  0  0  0  0  0  0
  147.2946  132.1628  151.8488 H   0  0  0  0  0  0  0  0  0  0  0  0
  143.5528  133.2666  149.9864 H   0  0  0  0  0  0  0  0  0  0  0  0
  143.8257  133.7053  151.6625 H   0  0  0  0  0  0  0  0  0  0  0  0
  144.9664  135.0248  149.2965 H   0  0  0  0  0  0  0  0  0  0  0  0
  146.1346  136.9042  149.4629 H   0  0  0  0  0  0  0  0  0  0  0  0
  145.0662  137.8347  150.4825 H   0  0  0  0  0  0  0  0  0  0  0  0
  147.4794  136.9584  151.7810 H   0  0  0  0  0  0  0  0  0  0  0  0
  147.1230  139.7236  151.6488 H   0  0  0  0  0  0  0  0  0  0  0  0
  145.6005  138.9458  152.0469 H   0  0  0  0  0  0  0  0  0  0  0  0
  146.3104  138.4186  154.1421 H   0  0  0  0  0  0  0  0  0  0  0  0
  147.7875  137.6907  153.5545 H   0  0  0  0  0  0  0  0  0  0  0  0
  149.7900  138.8667  154.5917 H   0  0  0  0  0  0  0  0  0  0  0  0
  150.3514  141.4356  155.3228 H   0  0  0  0  0  0  0  0  0  0  0  0
  148.0276  142.7928  154.6582 H   0  0  0  0  0  0  0  0  0  0  0  0
  1  2  1  0  0  0  0
  1 17  1  0  0  0  0
  1 18  1  0  0  0  0
  1 19  1  0  0  0  0
  2  3  1  0  0  0  0
  2  4  1  0  0  0  0
  2 20  1  0  0  0  0
  3 21  1  0  0  0  0
  3 22  1  0  0  0  0
  3 23  1  0  0  0  0
  4  5  1  0  0  0  0
  4 24  1  0  0  0  0
  4 25  1  0  0  0  0
  5  6  1  0  0  0  0
  5 26  1  0  0  0  0
  6  7  2  0  0  0  0
  6  8  1  0  0  0  0
  8  9  1  0  0  0  0
  8 27  1  0  0  0  0
  8 28  1  0  0  0  0
  9 10  1  0  0  0  0
  9 29  1  0  0  0  0
 10 11  1  0  0  0  0
 10 30  1  0  0  0  0
 10 31  1  0  0  0  0
 11 12  1  0  0  0  0
 11 32  1  0  0  0  0
 11 33  1  0  0  0  0
 12 16  1  0  0  0  0
 12 13  1  0  0  0  0
 13 14  2  0  0  0  0
 13 34  1  0  0  0  0
 14 15  1  0  0  0  0
 14 35  1  0  0  0  0
 15 16  2  0  0  0  0
 15 36  1  0  0  0  0
M  END
> <s_m_source_file>
AV-unprocessed.smi

> <i_m_source_file_index>
3216

> <i_lp_mmshare_version>
43012

> <i_f3d_flags>
0

> <s_epik_input>
W0NIM11bQ0hdKFtDSDNdKVtDSDJdW05IXUMoPU8pW0NIMl1bTkhdW0NIMl1bQ0gyXW4xW2NIXVtjSF1bY0hdbjE=

> <s_epik_cmdline>
J2VwaWtfcHl0aG9uJywgJy1waCcsICc3LjAnLCAnLXRuJywgJzgnLCAnLW1hJywgJzIwMCcsICctbWV0YWxfYmluZGluZycsICctaW1hZScsICc8aW5maWxlLm1hZT4nLCAnLW9tYWUnLCAnPG91dGZpbGUubWFlPic=

> <r_lp_tautomer_probability>
1

> <r_epik_Ionization_Penalty>
0.724936

> <r_epik_Ionization_Penalty_Charging>
0

> <r_epik_Ionization_Penalty_Neutral>
0.724936

> <r_epik_State_Penalty>
0.747957

> <r_epik_Charging_Adjusted_Penalty>
0.747957

> <i_epik_Tot_Q>
0

> <i_epik_Tot_abs_Q>
0

> <r_epik_Metal_State_Penalty>
0.746186

> <b_epik_Metal_Only>
0

> <s_lp_Force_Field>
OPLS_2005

> <r_lp_Energy>
6.66152

> <b_lp_Chiralities_Consistent>
1

> <s_lp_Variant>
AV-unprocessed.smi:3216-2

> <Gold.Version>
5.8.1

> <Gold.Id.Protein>
6NUR|6NUR_protein|mol2

> <Gold.PLP.Fitness>
43.1457

> <Gold.PLP.PLP>
-34.7965

> <Gold.PLP.part.hbond>
-3.0000

> <Gold.PLP.part.metal>
0.0000

> <Gold.PLP.part.buried>
1.0430

> <Gold.PLP.part.nonpolar>
-33.8012

> <Gold.PLP.part.repulsive>
0.3630

> <Gold.PLP.ligand.clash>
0.0000

> <Gold.PLP.ligand.torsion>
1.5106

> <Gold.PLP.Chemscore.Hbond>
2.7660

> <Gold.PLP.Chemscore.CHOScore>
0.9569

> <Gold.PLP.Chemscore.Metal>
0.0000

> <Gold.Chemscore.Hbonds>
donor molecule, donor type, donor heavy atom, donor atom, acceptor molecule, acceptor atom, score
      L1  H     5    26       P1  7921  0.90
      L1  H     9    29       P1  7948  0.74
      P1  H  7954  7966       L1     9  1.00
      L1  C    15    36       P1  8028  1.00

> <Gold.PLP.Chemscore.Internal.Correction>
0.2016

> <Gold.Rescore>
     Score         DG    S(hbond)    S(metal)    S(lipo)     H(rot)  DE(clash)    DE(int)     intcor
     13.01     -16.26       1.96        0.00      84.88       2.22       1.66       1.60       ----

> <Gold.Chemscore.Fitness>
13.0085

> <Gold.Chemscore.DG>
-16.2632

> <Gold.Chemscore.ZeroCoef>
-5.4800

> <Gold.Chemscore.Hbond>
1.9590

> <Gold.Chemscore.Metal>
0.0000

> <Gold.Chemscore.Lipo>
84.8752

> <Gold.Chemscore.Internal_Hbond>
0.0000

> <Gold.Chemscore.DEClash>
1.6593

> <Gold.Chemscore.DEInternal>
1.5954

> <Gold.Chemscore.Rot>
2.2227

> <Gold.Chemscore.Internal.Correction>
   9.000000E+99

> <Gold.Chemscore.Hbonds>
donor molecule, donor type, donor heavy atom, donor atom, acceptor molecule, acceptor atom, score
      L1  H     5    26       P1  7921  0.82
      L1  H     9    29       P1  7948  0.71
      P1  H  7954  7966       L1     9  0.09

> <Gold.Chemscore.Hbond.Weighted>
-6.5429

> <Gold.Chemscore.Metal.Weighted>
-0.0000

> <Gold.Chemscore.Lipo.Weighted>
-9.9304

> <Gold.Chemscore.Internal_Hbond.Weighted>
0.0000

> <Gold.Chemscore.DEClash.Weighted>
1.6593

> <Gold.Chemscore.DEInternal.Weighted>
1.5954

> <Gold.Chemscore.Rot.Weighted>
5.6902

> <Gold.Chemscore.Internal.Correction.Weighted>
   9.000000E+99

> <Gold.Protein.RotatedTorsions>
[ 6907 6896 6895 6894 ] final   96.24 input  -60.11 | X-H torsion
[ 7974 7965 7964 7962 ] final -106.84 input  175.53 | X-H torsion
[ 8008 7997 7996 7995 ] final   -0.26 input   59.86 | X-H torsion
[ 10167 10162 10161 10158 ] final -155.32 input  -65.29 | X-H torsion
[ 10718 10713 10712 10709 ] final  157.94 input   66.30 | X-H torsion
[ 10763 10752 10751 10750 ] final   35.15 input  -60.55 | X-H torsion
[ 11005 11000 10999 10996 ] final   30.24 input  -57.11 | X-H torsion

> <Gold.Protein.ActiveResidues>
 VAL166  LYS551  ARG553  GLY616  TRP617  ASP618  TYR619  PRO620  LYS621  CYS622 
 ASP623  PHE694  ASN695  SER759  ASP760  ASP761  ALA762  ILE779  LEU786  VAL792 
 PHE793  MET794  SER795  GLU796  ALA797  LYS798  CYS799  TRP800  GLU811  SER814 

> <Gold.Protein.RotatedAtoms>
  152.5437  134.0916  159.8278 H   0  0  0  0  0  0  0  0  0  0  0  0  # atno 6907 bound_to 6896
  151.1005  133.5240  159.2617 H   0  0  0  0  0  0  0  0  0  0  0  0  # atno 6908 bound_to 6896
  151.1997  135.0446  159.8921 H   0  0  0  0  0  0  0  0  0  0  0  0  # atno 6909 bound_to 6896
  145.2128  140.9103  143.3304 H   0  0  0  0  0  0  0  0  0  0  0  0  # atno 7974 bound_to 7965
  154.6600  140.2588  155.7119 H   0  0  0  0  0  0  0  0  0  0  0  0  # atno 8008 bound_to 7997
  156.2614  140.2850  156.0990 H   0  0  0  0  0  0  0  0  0  0  0  0  # atno 8009 bound_to 7997
  155.1322  140.0379  157.2768 H   0  0  0  0  0  0  0  0  0  0  0  0  # atno 8010 bound_to 7997
  139.6940  143.9372  152.2398 H   0  0  0  0  0  0  0  0  0  0  0  0  # atno 10167 bound_to 10162
  157.1846  131.0640  151.2113 H   0  0  0  0  0  0  0  0  0  0  0  0  # atno 10718 bound_to 10713
  153.0132  135.6341  154.1781 H   0  0  0  0  0  0  0  0  0  0  0  0  # atno 10763 bound_to 10752
  154.1522  135.2828  155.3134 H   0  0  0  0  0  0  0  0  0  0  0  0  # atno 10764 bound_to 10752
  154.6045  135.5576  153.7469 H   0  0  0  0  0  0  0  0  0  0  0  0  # atno 10765 bound_to 10752
  140.2964  134.2806  155.7763 H   0  0  0  0  0  0  0  0  0  0  0  0  # atno 11005 bound_to 11000
  144.9839  139.3756  143.6248 LP  0  0  0  0  0  0  0  0  0  0  0  0  # atno 17320 bound_to 7965
  146.3393  139.8992  142.8797 LP  0  0  0  0  0  0  0  0  0  0  0  0  # atno 17321 bound_to 7965
  139.9196  144.6807  150.8475 LP  0  0  0  0  0  0  0  0  0  0  0  0  # atno 17342 bound_to 10162
  140.7691  143.3384  151.2259 LP  0  0  0  0  0  0  0  0  0  0  0  0  # atno 17343 bound_to 10162
  157.3919  130.7287  149.6704 LP  0  0  0  0  0  0  0  0  0  0  0  0  # atno 17370 bound_to 10713
  155.9719  130.4144  150.4130 LP  0  0  0  0  0  0  0  0  0  0  0  0  # atno 17371 bound_to 10713
  141.2136  133.7618  156.9702 LP  0  0  0  0  0  0  0  0  0  0  0  0  # atno 17394 bound_to 11000
  140.1148  134.9454  157.2118 LP  0  0  0  0  0  0  0  0  0  0  0  0  # atno 17395 bound_to 11000

$$$$
