AV-unprocessed.smi:2198|AV-procd|sdf|8913|dock7
  -GOLD-   2272012133D 1   1.00000     0.00000
 Structure written by MMmdl.
 43 44  0  0  0  0  0  0  0  0  1 V2000
  147.3008  140.0808  153.3026 C   0  0  0  0  0  0  0  0  0  0  0  0
  148.2337  139.4876  154.3372 C   0  0  0  0  0  0  0  0  0  0  0  0
  147.8353  138.9363  155.4362 N   0  0  0  0  0  0  0  0  0  0  0  0
  148.7950  138.4174  156.3167 C   0  0  0  0  0  0  0  0  0  0  0  0
  148.2461  137.7860  157.5849 C   0  0  0  0  0  0  0  0  0  0  0  0
  150.1305  138.4830  156.0394 C   0  0  0  0  0  0  0  0  0  0  0  0
  151.2006  137.9276  156.9772 C   0  0  0  0  0  0  0  0  0  0  0  0
  152.1778  138.9630  157.5361 C   0  0  0  0  0  0  0  0  0  0  0  0
  153.3680  138.6778  157.6653 O   0  0  0  0  0  0  0  0  0  0  0  0
  151.6648  140.1615  157.8540 N   0  0  0  0  0  0  0  0  0  0  0  0
  152.4227  141.2929  158.3787 C   0  0  2  0  0  0  0  0  0  0  0  0
  152.8573  141.0262  159.8332 C   0  0  0  0  0  0  0  0  0  0  0  0
  153.5903  142.2384  160.4272 C   0  0  0  0  0  0  0  0  0  0  0  0
  152.7339  143.5110  160.3314 C   0  0  0  0  0  0  0  0  0  0  0  0
  152.2988  143.7929  158.8805 C   0  0  2  0  0  0  0  0  0  0  0  0
  151.4362  145.0600  158.7903 C   0  0  0  0  0  0  0  0  0  0  0  0
  151.5683  142.5715  158.2886 C   0  0  0  0  0  0  0  0  0  0  0  0
  150.5740  139.1175  154.7827 C   0  0  0  0  0  0  0  0  0  0  0  0
  151.7484  139.2358  154.4365 O   0  0  0  0  0  0  0  0  0  0  0  0
  149.5812  139.5877  153.9952 N   0  0  0  0  0  0  0  0  0  0  0  0
  149.8343  140.0310  153.1242 H   0  0  0  0  0  0  0  0  0  0  0  0
  146.7057  140.8791  153.7469 H   0  0  0  0  0  0  0  0  0  0  0  0
  146.6218  139.3148  152.9271 H   0  0  0  0  0  0  0  0  0  0  0  0
  147.8493  140.4952  152.4555 H   0  0  0  0  0  0  0  0  0  0  0  0
  148.5483  136.7412  157.6583 H   0  0  0  0  0  0  0  0  0  0  0  0
  147.1559  137.8174  157.6029 H   0  0  0  0  0  0  0  0  0  0  0  0
  148.6076  138.3164  158.4658 H   0  0  0  0  0  0  0  0  0  0  0  0
  150.7081  137.4122  157.8023 H   0  0  0  0  0  0  0  0  0  0  0  0
  151.7808  137.1500  156.4794 H   0  0  0  0  0  0  0  0  0  0  0  0
  150.6751  140.3037  157.7128 H   0  0  0  0  0  0  0  0  0  0  0  0
  153.3141  141.4394  157.7654 H   0  0  0  0  0  0  0  0  0  0  0  0
  151.9832  140.7972  160.4447 H   0  0  0  0  0  0  0  0  0  0  0  0
  153.5050  140.1499  159.8793 H   0  0  0  0  0  0  0  0  0  0  0  0
  153.8495  142.0423  161.4680 H   0  0  0  0  0  0  0  0  0  0  0  0
  154.5317  142.3903  159.8978 H   0  0  0  0  0  0  0  0  0  0  0  0
  151.8538  143.4051  160.9673 H   0  0  0  0  0  0  0  0  0  0  0  0
  153.2972  144.3590  160.7232 H   0  0  0  0  0  0  0  0  0  0  0  0
  153.1983  143.9657  158.2878 H   0  0  0  0  0  0  0  0  0  0  0  0
  150.5174  144.9560  159.3684 H   0  0  0  0  0  0  0  0  0  0  0  0
  151.1576  145.2728  157.7578 H   0  0  0  0  0  0  0  0  0  0  0  0
  151.9730  145.9288  159.1718 H   0  0  0  0  0  0  0  0  0  0  0  0
  151.3107  142.7667  157.2465 H   0  0  0  0  0  0  0  0  0  0  0  0
  150.6250  142.4211  158.8159 H   0  0  0  0  0  0  0  0  0  0  0  0
  1  2  1  0  0  0  0
  1 22  1  0  0  0  0
  1 23  1  0  0  0  0
  1 24  1  0  0  0  0
  2 20  1  0  0  0  0
  2  3  2  0  0  0  0
  3  4  1  0  0  0  0
  4  5  1  0  0  0  0
  4  6  2  0  0  0  0
  5 25  1  0  0  0  0
  5 26  1  0  0  0  0
  5 27  1  0  0  0  0
  6  7  1  0  0  0  0
  6 18  1  0  0  0  0
  7  8  1  0  0  0  0
  7 28  1  0  0  0  0
  7 29  1  0  0  0  0
  8  9  2  0  0  0  0
  8 10  1  0  0  0  0
 10 11  1  0  0  0  0
 10 30  1  0  0  0  0
 11 17  1  0  0  0  0
 11 12  1  0  0  0  0
 11 31  1  0  0  0  0
 12 13  1  0  0  0  0
 12 32  1  0  0  0  0
 12 33  1  0  0  0  0
 13 14  1  0  0  0  0
 13 34  1  0  0  0  0
 13 35  1  0  0  0  0
 14 15  1  0  0  0  0
 14 36  1  0  0  0  0
 14 37  1  0  0  0  0
 15 16  1  0  0  0  0
 15 17  1  0  0  0  0
 15 38  1  0  0  0  0
 16 39  1  0  0  0  0
 16 40  1  0  0  0  0
 16 41  1  0  0  0  0
 17 42  1  0  0  0  0
 17 43  1  0  0  0  0
 18 19  2  0  0  0  0
 18 20  1  0  0  0  0
 20 21  1  0  0  0  0
M  END
> <s_m_source_file>
AV-unprocessed.smi

> <i_m_source_file_index>
2198

> <i_lp_mmshare_version>
43012

> <i_f3d_flags>
0

> <s_epik_input>
W0NIM11jMW5jKFtDSDNdKWMoYyg9TylbbkhdMSlbQ0gyXUMoPU8pW05IXVtDQEBIXTJbQ0gyXVtDSDJdW0NIMl1bQ0BASF0oW0NIM10pW0NIMl0y

> <s_epik_cmdline>
J2VwaWtfcHl0aG9uJywgJy1waCcsICc3LjAnLCAnLXRuJywgJzgnLCAnLW1hJywgJzIwMCcsICctbWV0YWxfYmluZGluZycsICctaW1hZScsICc8aW5maWxlLm1hZT4nLCAnLW9tYWUnLCAnPG91dGZpbGUubWFlPic=

> <r_lp_tautomer_probability>
0.839158

> <r_epik_Ionization_Penalty>
0.000372587

> <r_epik_Ionization_Penalty_Charging>
0.000337977

> <r_epik_Ionization_Penalty_Neutral>
3.46101e-05

> <r_epik_State_Penalty>
0.09125

> <r_epik_Charging_Adjusted_Penalty>
0.091588

> <i_epik_Tot_Q>
0

> <i_epik_Tot_abs_Q>
0

> <r_epik_Metal_State_Penalty>
0.25197

> <b_epik_Metal_Only>
0

> <s_lp_Force_Field>
OPLS_2005

> <r_lp_Energy>
10.3768

> <b_lp_Chiralities_Consistent>
1

> <s_lp_Variant>
AV-unprocessed.smi:2198-3

> <Gold.Version>
5.8.1

> <Gold.Id.Protein>
6NUR|6NUR_protein|mol2

> <Gold.PLP.Fitness>
41.1573

> <Gold.PLP.PLP>
-33.3323

> <Gold.PLP.part.hbond>
-3.0000

> <Gold.PLP.part.metal>
0.0000

> <Gold.PLP.part.buried>
-3.8787

> <Gold.PLP.part.nonpolar>
-26.5005

> <Gold.PLP.part.repulsive>
0.3392

> <Gold.PLP.ligand.clash>
0.0000

> <Gold.PLP.ligand.torsion>
0.4571

> <Gold.PLP.Chemscore.Hbond>
2.9120

> <Gold.PLP.Chemscore.CHOScore>
0.0000

> <Gold.PLP.Chemscore.Metal>
0.0000

> <Gold.Chemscore.Hbonds>
donor molecule, donor type, donor heavy atom, donor atom, acceptor molecule, acceptor atom, score
      L1  H    20    21       P1  7957  0.93
      P1  H  7989  7998       L1    19  1.00
      P1  H  7997  8009       L1     9  1.00

> <Gold.PLP.Chemscore.Internal.Correction>
0.0033

> <Gold.Rescore>
     Score         DG    S(hbond)    S(metal)    S(lipo)     H(rot)  DE(clash)    DE(int)     intcor
     21.03     -21.87       2.89        0.00      90.05       1.48       0.34       0.50       ----

> <Gold.Chemscore.Fitness>
21.0292

> <Gold.Chemscore.DG>
-21.8707

> <Gold.Chemscore.ZeroCoef>
-5.4800

> <Gold.Chemscore.Hbond>
2.8874

> <Gold.Chemscore.Metal>
0.0000

> <Gold.Chemscore.Lipo>
90.0513

> <Gold.Chemscore.Internal_Hbond>
0.0000

> <Gold.Chemscore.DEClash>
0.3403

> <Gold.Chemscore.DEInternal>
0.5012

> <Gold.Chemscore.Rot>
1.4801

> <Gold.Chemscore.Internal.Correction>
   9.000000E+99

> <Gold.Chemscore.Hbonds>
donor molecule, donor type, donor heavy atom, donor atom, acceptor molecule, acceptor atom, score
      L1  H    20    21       P1  7957  0.89
      P1  H  7989  7998       L1    19  0.29
      P1  H  7997  8009       L1     9  0.74

> <Gold.Chemscore.Hbond.Weighted>
-9.6439

> <Gold.Chemscore.Metal.Weighted>
-0.0000

> <Gold.Chemscore.Lipo.Weighted>
-10.5360

> <Gold.Chemscore.Internal_Hbond.Weighted>
0.0000

> <Gold.Chemscore.DEClash.Weighted>
0.3403

> <Gold.Chemscore.DEInternal.Weighted>
0.5012

> <Gold.Chemscore.Rot.Weighted>
3.7891

> <Gold.Chemscore.Internal.Correction.Weighted>
   9.000000E+99

> <Gold.Protein.RotatedTorsions>
[ 6907 6896 6895 6894 ] final -141.60 input  -60.11 | X-H torsion
[ 7974 7965 7964 7962 ] final  -89.24 input  175.53 | X-H torsion
[ 8008 7997 7996 7995 ] final  167.60 input   59.86 | X-H torsion
[ 10167 10162 10161 10158 ] final  169.39 input  -65.29 | X-H torsion
[ 10718 10713 10712 10709 ] final  114.81 input   66.30 | X-H torsion
[ 10763 10752 10751 10750 ] final   55.21 input  -60.55 | X-H torsion
[ 11005 11000 10999 10996 ] final -153.60 input  -57.11 | X-H torsion

> <Gold.Protein.ActiveResidues>
 VAL166  LYS551  ARG553  GLY616  TRP617  ASP618  TYR619  PRO620  LYS621  CYS622 
 ASP623  PHE694  ASN695  SER759  ASP760  ASP761  ALA762  ILE779  LEU786  VAL792 
 PHE793  MET794  SER795  GLU796  ALA797  LYS798  CYS799  TRP800  GLU811  SER814 

> <Gold.Protein.RotatedAtoms>
  151.0759  133.5428  159.2623 H   0  0  0  0  0  0  0  0  0  0  0  0  # atno 6907 bound_to 6896
  151.2350  135.0567  159.9012 H   0  0  0  0  0  0  0  0  0  0  0  0  # atno 6908 bound_to 6896
  152.5417  134.0543  159.8177 H   0  0  0  0  0  0  0  0  0  0  0  0  # atno 6909 bound_to 6896
  145.4425  140.9559  143.2067 H   0  0  0  0  0  0  0  0  0  0  0  0  # atno 7974 bound_to 7965
  156.1620  140.1612  156.8596 H   0  0  0  0  0  0  0  0  0  0  0  0  # atno 8008 bound_to 7997
  154.5170  140.0787  156.8135 H   0  0  0  0  0  0  0  0  0  0  0  0  # atno 8009 bound_to 7997
  155.3688  140.3399  155.4245 H   0  0  0  0  0  0  0  0  0  0  0  0  # atno 8010 bound_to 7997
  139.4991  144.3711  151.9723 H   0  0  0  0  0  0  0  0  0  0  0  0  # atno 10167 bound_to 10162
  157.6259  131.1004  150.7240 H   0  0  0  0  0  0  0  0  0  0  0  0  # atno 10718 bound_to 10713
  152.9814  135.5718  154.5030 H   0  0  0  0  0  0  0  0  0  0  0  0  # atno 10763 bound_to 10752
  154.4546  135.2779  155.1759 H   0  0  0  0  0  0  0  0  0  0  0  0  # atno 10764 bound_to 10752
  154.3372  135.6237  153.5632 H   0  0  0  0  0  0  0  0  0  0  0  0  # atno 10765 bound_to 10752
  140.7064  134.3881  157.5203 H   0  0  0  0  0  0  0  0  0  0  0  0  # atno 11005 bound_to 11000
  144.8113  139.5958  143.7028 LP  0  0  0  0  0  0  0  0  0  0  0  0  # atno 17320 bound_to 7965
  146.2549  139.6279  142.9402 LP  0  0  0  0  0  0  0  0  0  0  0  0  # atno 17321 bound_to 7965
  140.3147  144.3497  150.6024 LP  0  0  0  0  0  0  0  0  0  0  0  0  # atno 17342 bound_to 10162
  140.5771  143.2175  151.7496 LP  0  0  0  0  0  0  0  0  0  0  0  0  # atno 17343 bound_to 10162
  156.7588  130.4792  149.5441 LP  0  0  0  0  0  0  0  0  0  0  0  0  # atno 17370 bound_to 10713
  156.1431  130.6258  151.0494 LP  0  0  0  0  0  0  0  0  0  0  0  0  # atno 17371 bound_to 10713
  139.8883  134.8860  156.2481 LP  0  0  0  0  0  0  0  0  0  0  0  0  # atno 17394 bound_to 11000
  141.0121  133.7089  156.1129 LP  0  0  0  0  0  0  0  0  0  0  0  0  # atno 17395 bound_to 11000

$$$$
