AV-unprocessed.smi:2261|AV-procd|sdf|9136|dock10
  -GOLD-   2272012343D 1   1.00000     0.00000
 Structure written by MMmdl.
 41 42  0  0  0  0  0  0  0  0  1 V2000
  146.9861  139.1621  152.8674 C   0  0  0  0  0  0  0  0  0  0  0  0
  147.2335  139.3031  154.3771 C   0  0  0  0  0  0  0  0  0  0  0  0
  146.9145  137.9910  155.1140 C   0  0  0  0  0  0  0  0  0  0  0  0
  148.6480  139.8067  154.6898 C   0  0  0  0  0  0  0  0  0  0  0  0
  148.4392  140.7031  155.8944 C   0  0  1  0  0  0  0  0  0  0  0  0
  149.5075  141.6928  156.0145 N   0  0  0  0  0  0  0  0  0  0  0  0
  150.7628  141.4367  156.4118 C   0  0  0  0  0  0  0  0  0  0  0  0
  151.1649  140.3151  156.7192 O   0  0  0  0  0  0  0  0  0  0  0  0
  151.7139  142.6318  156.4691 C   0  0  0  0  0  0  0  0  0  0  0  0
  152.3246  142.7507  157.8534 C   0  0  0  0  0  0  0  0  0  0  0  0
  152.2533  143.9592  158.5772 C   0  0  0  0  0  0  0  0  0  0  0  0
  152.8378  144.0188  159.8567 C   0  0  0  0  0  0  0  0  0  0  0  0
  153.4701  142.8642  160.3598 C   0  0  0  0  0  0  0  0  0  0  0  0
  153.5439  141.7017  159.6767 N   0  0  0  0  0  0  0  0  0  0  0  0
  152.9815  141.6530  158.4498 C   0  0  0  0  0  0  0  0  0  0  0  0
  147.0464  141.3112  155.6180 C   0  0  0  0  0  0  0  0  0  0  0  0
  146.2578  141.5805  156.9093 C   0  0  0  0  0  0  0  0  0  0  0  0
  147.0672  142.5659  154.7197 C   0  0  0  0  0  0  0  0  0  0  0  0
  146.3514  140.3014  154.8880 O   0  0  0  0  0  0  0  0  0  0  0  0
  147.6539  138.4219  152.4258 H   0  0  0  0  0  0  0  0  0  0  0  0
  147.1484  140.1081  152.3499 H   0  0  0  0  0  0  0  0  0  0  0  0
  145.9614  138.8502  152.6633 H   0  0  0  0  0  0  0  0  0  0  0  0
  147.5632  137.1816  154.7778 H   0  0  0  0  0  0  0  0  0  0  0  0
  145.8832  137.6828  154.9391 H   0  0  0  0  0  0  0  0  0  0  0  0
  147.0460  138.0952  156.1912 H   0  0  0  0  0  0  0  0  0  0  0  0
  149.3587  139.0015  154.8796 H   0  0  0  0  0  0  0  0  0  0  0  0
  149.0345  140.3914  153.8533 H   0  0  0  0  0  0  0  0  0  0  0  0
  148.4053  140.0716  156.7845 H   0  0  0  0  0  0  0  0  0  0  0  0
  149.2709  142.6461  155.7812 H   0  0  0  0  0  0  0  0  0  0  0  0
  152.5005  142.5258  155.7205 H   0  0  0  0  0  0  0  0  0  0  0  0
  151.1691  143.5448  156.2255 H   0  0  0  0  0  0  0  0  0  0  0  0
  151.7624  144.8262  158.1600 H   0  0  0  0  0  0  0  0  0  0  0  0
  152.8033  144.9275  160.4390 H   0  0  0  0  0  0  0  0  0  0  0  0
  153.9285  142.8749  161.3376 H   0  0  0  0  0  0  0  0  0  0  0  0
  153.0596  140.7102  157.9282 H   0  0  0  0  0  0  0  0  0  0  0  0
  146.7335  142.3552  157.5107 H   0  0  0  0  0  0  0  0  0  0  0  0
  146.1835  140.6815  157.5221 H   0  0  0  0  0  0  0  0  0  0  0  0
  145.2427  141.9111  156.6882 H   0  0  0  0  0  0  0  0  0  0  0  0
  147.5432  143.4101  155.2195 H   0  0  0  0  0  0  0  0  0  0  0  0
  146.0545  142.8737  154.4580 H   0  0  0  0  0  0  0  0  0  0  0  0
  147.6023  142.3850  153.7874 H   0  0  0  0  0  0  0  0  0  0  0  0
  1  2  1  0  0  0  0
  1 20  1  0  0  0  0
  1 21  1  0  0  0  0
  1 22  1  0  0  0  0
  2 19  1  0  0  0  0
  2  3  1  0  0  0  0
  2  4  1  0  0  0  0
  3 23  1  0  0  0  0
  3 24  1  0  0  0  0
  3 25  1  0  0  0  0
  4  5  1  0  0  0  0
  4 26  1  0  0  0  0
  4 27  1  0  0  0  0
  5  6  1  0  0  0  0
  5 16  1  0  0  0  0
  5 28  1  0  0  0  0
  6  7  1  0  0  0  0
  6 29  1  0  0  0  0
  7  8  2  0  0  0  0
  7  9  1  0  0  0  0
  9 10  1  0  0  0  0
  9 30  1  0  0  0  0
  9 31  1  0  0  0  0
 10 15  1  0  0  0  0
 10 11  2  0  0  0  0
 11 12  1  0  0  0  0
 11 32  1  0  0  0  0
 12 13  2  0  0  0  0
 12 33  1  0  0  0  0
 13 14  1  0  0  0  0
 13 34  1  0  0  0  0
 14 15  2  0  0  0  0
 15 35  1  0  0  0  0
 16 17  1  0  0  0  0
 16 18  1  0  0  0  0
 16 19  1  0  0  0  0
 17 36  1  0  0  0  0
 17 37  1  0  0  0  0
 17 38  1  0  0  0  0
 18 39  1  0  0  0  0
 18 40  1  0  0  0  0
 18 41  1  0  0  0  0
M  END
> <s_m_source_file>
AV-unprocessed.smi

> <i_m_source_file_index>
2261

> <i_lp_mmshare_version>
43012

> <i_f3d_flags>
0

> <s_epik_input>
W0NIM11DMShbQ0gzXSlbQ0gyXVtDQEhdKEMoTzEpKFtDSDNdKVtDSDNdKVtOSF1DKD1PKVtDSDJdYzJbY0hdW2NIXVtjSF1uW2NIXTI=

> <s_epik_cmdline>
J2VwaWtfcHl0aG9uJywgJy1waCcsICc3LjAnLCAnLXRuJywgJzgnLCAnLW1hJywgJzIwMCcsICctbWV0YWxfYmluZGluZycsICctaW1hZScsICc8aW5maWxlLm1hZT4nLCAnLW9tYWUnLCAnPG91dGZpbGUubWFlPic=

> <r_epik_Ionization_Penalty>
0.00420617

> <r_epik_Ionization_Penalty_Charging>
0

> <r_epik_Ionization_Penalty_Neutral>
0.00420617

> <r_epik_State_Penalty>
0.0030219

> <r_epik_Charging_Adjusted_Penalty>
0.0030219

> <i_epik_Tot_Q>
0

> <i_epik_Tot_abs_Q>
0

> <r_epik_Metal_State_Penalty>
-0

> <b_epik_Metal_Only>
0

> <s_lp_Force_Field>
OPLS_2005

> <r_lp_Energy>
17.0757

> <b_lp_Chiralities_Consistent>
1

> <s_lp_Variant>
AV-unprocessed.smi:2261-1

> <Gold.Version>
5.8.1

> <Gold.Id.Protein>
6NUR|6NUR_protein|mol2

> <Gold.PLP.Fitness>
35.7122

> <Gold.PLP.PLP>
-33.0561

> <Gold.PLP.part.hbond>
-1.0000

> <Gold.PLP.part.metal>
0.0000

> <Gold.PLP.part.buried>
-4.2026

> <Gold.PLP.part.nonpolar>
-28.2970

> <Gold.PLP.part.repulsive>
0.2385

> <Gold.PLP.ligand.clash>
0.0000

> <Gold.PLP.ligand.torsion>
0.1784

> <Gold.PLP.Chemscore.Hbond>
1.0000

> <Gold.PLP.Chemscore.CHOScore>
0.0000

> <Gold.PLP.Chemscore.Metal>
0.0000

> <Gold.Chemscore.Hbonds>
donor molecule, donor type, donor heavy atom, donor atom, acceptor molecule, acceptor atom, score
      L1  H     6    29       P1  8028  0.80

> <Gold.PLP.Chemscore.Internal.Correction>
0.0129

> <Gold.Rescore>
     Score         DG    S(hbond)    S(metal)    S(lipo)     H(rot)  DE(clash)    DE(int)     intcor
     15.17     -17.35       0.99        0.00     101.35       1.28       0.59       1.59       ----

> <Gold.Chemscore.Fitness>
15.1708

> <Gold.Chemscore.DG>
-17.3527

> <Gold.Chemscore.ZeroCoef>
-5.4800

> <Gold.Chemscore.Hbond>
0.9886

> <Gold.Chemscore.Metal>
0.0000

> <Gold.Chemscore.Lipo>
101.3534

> <Gold.Chemscore.Internal_Hbond>
0.0000

> <Gold.Chemscore.DEClash>
0.5903

> <Gold.Chemscore.DEInternal>
1.5916

> <Gold.Chemscore.Rot>
1.2842

> <Gold.Chemscore.Internal.Correction>
   9.000000E+99

> <Gold.Chemscore.Hbonds>
donor molecule, donor type, donor heavy atom, donor atom, acceptor molecule, acceptor atom, score
      L1  H     6    29       P1  8028  0.79

> <Gold.Chemscore.Hbond.Weighted>
-3.3019

> <Gold.Chemscore.Metal.Weighted>
-0.0000

> <Gold.Chemscore.Lipo.Weighted>
-11.8583

> <Gold.Chemscore.Internal_Hbond.Weighted>
0.0000

> <Gold.Chemscore.DEClash.Weighted>
0.5903

> <Gold.Chemscore.DEInternal.Weighted>
1.5916

> <Gold.Chemscore.Rot.Weighted>
3.2875

> <Gold.Chemscore.Internal.Correction.Weighted>
   9.000000E+99

> <Gold.Protein.RotatedTorsions>
[ 6907 6896 6895 6894 ] final   -2.55 input  -60.11 | X-H torsion
[ 7974 7965 7964 7962 ] final   19.56 input  175.53 | X-H torsion
[ 8008 7997 7996 7995 ] final   49.88 input   59.86 | X-H torsion
[ 10167 10162 10161 10158 ] final   59.42 input  -65.29 | X-H torsion
[ 10718 10713 10712 10709 ] final  -54.35 input   66.30 | X-H torsion
[ 10763 10752 10751 10750 ] final  -58.92 input  -60.55 | X-H torsion
[ 11005 11000 10999 10996 ] final -159.69 input  -57.11 | X-H torsion

> <Gold.Protein.ActiveResidues>
 VAL166  LYS551  ARG553  GLY616  TRP617  ASP618  TYR619  PRO620  LYS621  CYS622 
 ASP623  PHE694  ASN695  SER759  ASP760  ASP761  ALA762  ILE779  LEU786  VAL792 
 PHE793  MET794  SER795  GLU796  ALA797  LYS798  CYS799  TRP800  GLU811  SER814 

> <Gold.Protein.RotatedAtoms>
  151.5281  135.1068  159.9895 H   0  0  0  0  0  0  0  0  0  0  0  0  # atno 6907 bound_to 6896
  152.4591  133.7780  159.6845 H   0  0  0  0  0  0  0  0  0  0  0  0  # atno 6908 bound_to 6896
  150.8546  133.7670  159.3038 H   0  0  0  0  0  0  0  0  0  0  0  0  # atno 6909 bound_to 6896
  146.2145  139.8296  142.8663 H   0  0  0  0  0  0  0  0  0  0  0  0  # atno 7974 bound_to 7965
  155.4095  140.3441  155.4262 H   0  0  0  0  0  0  0  0  0  0  0  0  # atno 8008 bound_to 7997
  156.1457  140.1555  156.8883 H   0  0  0  0  0  0  0  0  0  0  0  0  # atno 8009 bound_to 7997
  154.5008  140.0815  156.7775 H   0  0  0  0  0  0  0  0  0  0  0  0  # atno 8010 bound_to 7997
  140.1766  144.4224  150.6635 H   0  0  0  0  0  0  0  0  0  0  0  0  # atno 10167 bound_to 10162
  156.1458  130.4153  150.0026 H   0  0  0  0  0  0  0  0  0  0  0  0  # atno 10718 bound_to 10713
  154.2457  135.6335  153.5222 H   0  0  0  0  0  0  0  0  0  0  0  0  # atno 10763 bound_to 10752
  152.9921  135.5552  154.5862 H   0  0  0  0  0  0  0  0  0  0  0  0  # atno 10764 bound_to 10752
  154.5378  135.2892  155.1097 H   0  0  0  0  0  0  0  0  0  0  0  0  # atno 10765 bound_to 10752
  140.6398  134.4563  157.5233 H   0  0  0  0  0  0  0  0  0  0  0  0  # atno 11005 bound_to 11000
  145.3011  141.0194  143.3608 LP  0  0  0  0  0  0  0  0  0  0  0  0  # atno 17320 bound_to 7965
  144.9005  139.4656  143.6635 LP  0  0  0  0  0  0  0  0  0  0  0  0  # atno 17321 bound_to 7965
  140.6547  143.2234  151.5995 LP  0  0  0  0  0  0  0  0  0  0  0  0  # atno 17342 bound_to 10162
  139.5314  144.2904  152.1157 LP  0  0  0  0  0  0  0  0  0  0  0  0  # atno 17343 bound_to 10162
  156.7898  130.9252  151.3646 LP  0  0  0  0  0  0  0  0  0  0  0  0  # atno 17370 bound_to 10713
  157.6615  130.8970  149.9841 LP  0  0  0  0  0  0  0  0  0  0  0  0  # atno 17371 bound_to 10713
  139.9084  134.8398  156.1618 LP  0  0  0  0  0  0  0  0  0  0  0  0  # atno 17394 bound_to 11000
  141.0615  133.6839  156.1961 LP  0  0  0  0  0  0  0  0  0  0  0  0  # atno 17395 bound_to 11000

$$$$
