AV-unprocessed.smi:86|AV-procd|sdf|815|dock9
  -GOLD-   2262017213D 1   1.00000     0.00000
 Structure written by MMmdl.
 51 55  0  0  0  0  0  0  0  0  1 V2000
  147.2740  138.0229  150.5506 O   0  0  0  0  0  0  0  0  0  0  0  0
  147.3681  139.3336  151.0712 C   0  0  0  0  0  0  0  0  0  0  0  0
  147.2578  139.3409  152.6060 C   0  0  0  0  0  0  0  0  0  0  0  0
  147.1585  140.7839  153.1441 C   0  0  0  0  0  0  0  0  0  0  0  0
  148.2280  141.1553  154.0588 N   0  0  0  0  0  0  0  0  0  0  0  0
  149.4593  141.6646  153.7162 C   0  0  0  0  0  0  0  0  0  0  0  0
  150.2518  141.9225  154.7192 N   0  0  0  0  0  0  0  0  0  0  0  0
  149.5104  141.5811  155.8459 C   0  0  0  0  0  0  0  0  0  0  0  0
  149.7506  141.6123  157.2531 C   0  0  0  0  0  0  0  0  0  0  0  0
  150.9009  142.0422  157.8343 N   0  0  0  0  0  0  0  0  0  0  0  0
  151.4055  143.4017  157.6574 C   0  0  0  0  0  0  0  0  0  0  0  0
  152.2603  143.6922  158.9006 C   0  0  1  0  0  0  0  0  0  0  0  0
  151.4385  144.4246  159.9846 C   0  0  0  0  0  0  0  0  0  0  0  0
  152.1229  144.3847  161.3572 C   0  0  0  0  0  0  0  0  0  0  0  0
  152.3563  142.9310  161.7950 C   0  0  2  0  0  0  0  0  0  0  0  0
  152.9823  142.9130  163.0604 O   0  0  0  0  0  0  0  0  0  0  0  0
  153.2392  142.1898  160.7776 C   0  0  0  0  0  0  0  0  0  0  0  0
  152.6990  142.2840  159.3373 C   0  0  1  0  0  0  0  0  0  0  0  0
  151.4762  141.4220  159.0173 C   0  0  0  0  0  0  0  0  0  0  0  0
  148.7420  141.1942  158.0628 N   0  0  0  0  0  0  0  0  0  0  0  0
  147.5859  140.7699  157.5469 C   0  0  0  0  0  0  0  0  0  0  0  0
  147.2279  140.6829  156.2658 N   0  0  0  0  0  0  0  0  0  0  0  0
  148.2299  141.1011  155.4421 C   0  0  0  0  0  0  0  0  0  0  0  0
  146.2451  138.3414  153.1820 C   0  0  0  0  0  0  0  0  0  0  0  0
  147.2821  137.3892  153.4986 O   0  0  0  0  0  0  0  0  0  0  0  0
  148.2683  138.4265  153.3136 C   0  0  0  0  0  0  0  0  0  0  0  0
  147.8281  137.4558  151.0650 H   0  0  0  0  0  0  0  0  0  0  0  0
  148.3267  139.7473  150.7558 H   0  0  0  0  0  0  0  0  0  0  0  0
  146.6056  139.9600  150.6087 H   0  0  0  0  0  0  0  0  0  0  0  0
  147.1534  141.4989  152.3205 H   0  0  0  0  0  0  0  0  0  0  0  0
  146.2107  140.9338  153.6627 H   0  0  0  0  0  0  0  0  0  0  0  0
  149.7564  141.8326  152.6911 H   0  0  0  0  0  0  0  0  0  0  0  0
  152.0188  143.4284  156.7562 H   0  0  0  0  0  0  0  0  0  0  0  0
  150.6064  144.1353  157.5427 H   0  0  0  0  0  0  0  0  0  0  0  0
  153.1286  144.3007  158.6446 H   0  0  0  0  0  0  0  0  0  0  0  0
  151.2698  145.4589  159.6836 H   0  0  0  0  0  0  0  0  0  0  0  0
  150.4501  143.9713  160.0740 H   0  0  0  0  0  0  0  0  0  0  0  0
  153.0708  144.9229  161.3118 H   0  0  0  0  0  0  0  0  0  0  0  0
  151.5037  144.9023  162.0907 H   0  0  0  0  0  0  0  0  0  0  0  0
  151.3975  142.4206  161.8920 H   0  0  0  0  0  0  0  0  0  0  0  0
  152.3389  143.1322  163.7171 H   0  0  0  0  0  0  0  0  0  0  0  0
  154.2406  142.6228  160.7971 H   0  0  0  0  0  0  0  0  0  0  0  0
  153.3553  141.1439  161.0644 H   0  0  0  0  0  0  0  0  0  0  0  0
  153.4958  141.9618  158.6644 H   0  0  0  0  0  0  0  0  0  0  0  0
  150.7489  141.4433  159.8295 H   0  0  0  0  0  0  0  0  0  0  0  0
  151.7623  140.3865  158.8314 H   0  0  0  0  0  0  0  0  0  0  0  0
  146.8408  140.4566  158.2632 H   0  0  0  0  0  0  0  0  0  0  0  0
  145.7334  138.6949  154.0789 H   0  0  0  0  0  0  0  0  0  0  0  0
  145.5306  137.9581  152.4527 H   0  0  0  0  0  0  0  0  0  0  0  0
  149.1014  138.1113  152.6843 H   0  0  0  0  0  0  0  0  0  0  0  0
  148.6264  138.8082  154.2703 H   0  0  0  0  0  0  0  0  0  0  0  0
  1  2  1  0  0  0  0
  1 27  1  0  0  0  0
  2  3  1  0  0  0  0
  2 28  1  0  0  0  0
  2 29  1  0  0  0  0
  3 26  1  0  0  0  0
  3  4  1  0  0  0  0
  3 24  1  0  0  0  0
  4  5  1  0  0  0  0
  4 30  1  0  0  0  0
  4 31  1  0  0  0  0
  5 23  1  0  0  0  0
  5  6  1  0  0  0  0
  6  7  2  0  0  0  0
  6 32  1  0  0  0  0
  7  8  1  0  0  0  0
  8 23  2  0  0  0  0
  8  9  1  0  0  0  0
  9 10  1  0  0  0  0
  9 20  2  0  0  0  0
 10 19  1  0  0  0  0
 10 11  1  0  0  0  0
 11 12  1  0  0  0  0
 11 33  1  0  0  0  0
 11 34  1  0  0  0  0
 12 18  1  0  0  0  0
 12 13  1  0  0  0  0
 12 35  1  0  0  0  0
 13 14  1  0  0  0  0
 13 36  1  0  0  0  0
 13 37  1  0  0  0  0
 14 15  1  0  0  0  0
 14 38  1  0  0  0  0
 14 39  1  0  0  0  0
 15 16  1  0  0  0  0
 15 17  1  0  0  0  0
 15 40  1  0  0  0  0
 16 41  1  0  0  0  0
 17 18  1  0  0  0  0
 17 42  1  0  0  0  0
 17 43  1  0  0  0  0
 18 19  1  0  0  0  0
 18 44  1  0  0  0  0
 19 45  1  0  0  0  0
 19 46  1  0  0  0  0
 20 21  1  0  0  0  0
 21 22  2  0  0  0  0
 21 47  1  0  0  0  0
 22 23  1  0  0  0  0
 24 25  1  0  0  0  0
 24 48  1  0  0  0  0
 24 49  1  0  0  0  0
 25 26  1  0  0  0  0
 26 50  1  0  0  0  0
 26 51  1  0  0  0  0
M  END
> <s_m_source_file>
AV-unprocessed.smi

> <i_m_source_file_index>
86

> <i_lp_mmshare_version>
43012

> <i_f3d_flags>
0

> <s_epik_input>
W0NIMl0xT1tDSDJdQzEoW0NIMl1bT0hdKVtDSDJdbihbY0hdbjIpYyhjMjMpbltjSF1uYzNOKFtDSDJdNClbQ0gyXVtDQEBIXShbQ0BIXTQ1KVtDSDJdW0NASF0oW09IXSlbQ0gyXVtDSDJdNQ==

> <s_epik_cmdline>
J2VwaWtfcHl0aG9uJywgJy1waCcsICc3LjAnLCAnLXRuJywgJzgnLCAnLW1hJywgJzIwMCcsICctbWV0YWxfYmluZGluZycsICctaW1hZScsICc8aW5maWxlLm1hZT4nLCAnLW9tYWUnLCAnPG91dGZpbGUubWFlPic=

> <r_lp_tautomer_probability>
1

> <r_epik_Ionization_Penalty>
0.00425795

> <r_epik_Ionization_Penalty_Charging>
0

> <r_epik_Ionization_Penalty_Neutral>
0.00425795

> <r_epik_State_Penalty>
0.00299946

> <r_epik_Charging_Adjusted_Penalty>
0.00299946

> <i_epik_Tot_Q>
0

> <i_epik_Tot_abs_Q>
0

> <r_epik_Metal_State_Penalty>
-0

> <b_epik_Metal_Only>
0

> <s_lp_Force_Field>
OPLS_2005

> <r_lp_Energy>
53.5729

> <b_lp_Chiralities_Consistent>
1

> <s_lp_Variant>
AV-unprocessed.smi:86-4

> <Gold.Version>
5.8.1

> <Gold.Id.Protein>
6NUR|6NUR_protein|mol2

> <Gold.PLP.Fitness>
48.1101

> <Gold.PLP.PLP>
-45.9216

> <Gold.PLP.part.hbond>
-4.7739

> <Gold.PLP.part.metal>
0.0000

> <Gold.PLP.part.buried>
4.0052

> <Gold.PLP.part.nonpolar>
-46.3238

> <Gold.PLP.part.repulsive>
0.3252

> <Gold.PLP.ligand.clash>
0.0000

> <Gold.PLP.ligand.torsion>
2.3835

> <Gold.PLP.Chemscore.Hbond>
1.1659

> <Gold.PLP.Chemscore.CHOScore>
1.0000

> <Gold.PLP.Chemscore.Metal>
0.0000

> <Gold.Chemscore.Hbonds>
donor molecule, donor type, donor heavy atom, donor atom, acceptor molecule, acceptor atom, score
      L1  H     1    27       P1  7948  1.00
      P1  H  7989  7998       L1     7  0.01
      L1  C     6    32       P1  7957  0.80

> <Gold.PLP.Chemscore.Internal.Correction>
0.4579

> <Gold.Rescore>
     Score         DG    S(hbond)    S(metal)    S(lipo)     H(rot)  DE(clash)    DE(int)     intcor
     11.59     -15.82       1.00        0.00     120.44       2.76       0.91       3.32       ----

> <Gold.Chemscore.Fitness>
11.5854

> <Gold.Chemscore.DG>
-15.8248

> <Gold.Chemscore.ZeroCoef>
-5.4800

> <Gold.Chemscore.Hbond>
0.9959

> <Gold.Chemscore.Metal>
0.0000

> <Gold.Chemscore.Lipo>
120.4445

> <Gold.Chemscore.Internal_Hbond>
0.0000

> <Gold.Chemscore.DEClash>
0.9150

> <Gold.Chemscore.DEInternal>
3.3245

> <Gold.Chemscore.Rot>
2.7630

> <Gold.Chemscore.Internal.Correction>
   9.000000E+99

> <Gold.Chemscore.Hbonds>
donor molecule, donor type, donor heavy atom, donor atom, acceptor molecule, acceptor atom, score
      L1  H     1    27       P1  7948  0.98

> <Gold.Chemscore.Hbond.Weighted>
-3.3261

> <Gold.Chemscore.Metal.Weighted>
-0.0000

> <Gold.Chemscore.Lipo.Weighted>
-14.0920

> <Gold.Chemscore.Internal_Hbond.Weighted>
0.0000

> <Gold.Chemscore.DEClash.Weighted>
0.9150

> <Gold.Chemscore.DEInternal.Weighted>
3.3245

> <Gold.Chemscore.Rot.Weighted>
7.0734

> <Gold.Chemscore.Internal.Correction.Weighted>
   9.000000E+99

> <Gold.Protein.RotatedTorsions>
[ 6907 6896 6895 6894 ] final   35.07 input  -60.11 | X-H torsion
[ 7974 7965 7964 7962 ] final   45.65 input  175.53 | X-H torsion
[ 8008 7997 7996 7995 ] final -119.94 input   59.86 | X-H torsion
[ 10167 10162 10161 10158 ] final  172.13 input  -65.29 | X-H torsion
[ 10718 10713 10712 10709 ] final  -59.68 input   66.30 | X-H torsion
[ 10763 10752 10751 10750 ] final  -69.40 input  -60.55 | X-H torsion
[ 11005 11000 10999 10996 ] final  107.12 input  -57.11 | X-H torsion

> <Gold.Protein.ActiveResidues>
 VAL166  LYS551  ARG553  GLY616  TRP617  ASP618  TYR619  PRO620  LYS621  CYS622 
 ASP623  PHE694  ASN695  SER759  ASP760  ASP761  ALA762  ILE779  LEU786  VAL792 
 PHE793  MET794  SER795  GLU796  ALA797  LYS798  CYS799  TRP800  GLU811  SER814 

> <Gold.Protein.RotatedAtoms>
  152.1111  134.9273  160.0566 H   0  0  0  0  0  0  0  0  0  0  0  0  # atno 6907 bound_to 6896
  152.0451  133.3989  159.4361 H   0  0  0  0  0  0  0  0  0  0  0  0  # atno 6908 bound_to 6896
  150.6843  134.3292  159.4863 H   0  0  0  0  0  0  0  0  0  0  0  0  # atno 6909 bound_to 6896
  146.0461  139.4941  142.9748 H   0  0  0  0  0  0  0  0  0  0  0  0  # atno 7974 bound_to 7965
  155.1238  140.0399  157.2757 H   0  0  0  0  0  0  0  0  0  0  0  0  # atno 8008 bound_to 7997
  154.6593  140.2587  155.7100 H   0  0  0  0  0  0  0  0  0  0  0  0  # atno 8009 bound_to 7997
  156.2612  140.2820  156.1059 H   0  0  0  0  0  0  0  0  0  0  0  0  # atno 8010 bound_to 7997
  139.5067  144.3408  152.0020 H   0  0  0  0  0  0  0  0  0  0  0  0  # atno 10167 bound_to 10162
  156.1044  130.4182  150.0748 H   0  0  0  0  0  0  0  0  0  0  0  0  # atno 10718 bound_to 10713
  154.4028  135.6027  153.5907 H   0  0  0  0  0  0  0  0  0  0  0  0  # atno 10763 bound_to 10752
  152.9788  135.5910  154.4164 H   0  0  0  0  0  0  0  0  0  0  0  0  # atno 10764 bound_to 10752
  154.3965  135.2842  155.2101 H   0  0  0  0  0  0  0  0  0  0  0  0  # atno 10765 bound_to 10752
  139.8823  134.9391  156.5771 H   0  0  0  0  0  0  0  0  0  0  0  0  # atno 11005 bound_to 11000
  145.6803  141.0193  143.1610 LP  0  0  0  0  0  0  0  0  0  0  0  0  # atno 17320 bound_to 7965
  144.7098  139.8414  143.7418 LP  0  0  0  0  0  0  0  0  0  0  0  0  # atno 17321 bound_to 7965
  140.2846  144.3822  150.6108 LP  0  0  0  0  0  0  0  0  0  0  0  0  # atno 17342 bound_to 10162
  140.5992  143.2167  151.7104 LP  0  0  0  0  0  0  0  0  0  0  0  0  # atno 17343 bound_to 10162
  156.8727  130.9530  151.3607 LP  0  0  0  0  0  0  0  0  0  0  0  0  # atno 17370 bound_to 10713
  157.6219  130.8662  149.9124 LP  0  0  0  0  0  0  0  0  0  0  0  0  # atno 17371 bound_to 10713
  140.8055  133.8471  155.8764 LP  0  0  0  0  0  0  0  0  0  0  0  0  # atno 17394 bound_to 11000
  140.9554  134.1725  157.4696 LP  0  0  0  0  0  0  0  0  0  0  0  0  # atno 17395 bound_to 11000

$$$$
