AV-unprocessed.smi:1827|AV-procd|sdf|7419|dock8
  -GOLD-   22720 9103D 1   1.00000     0.00000
 Structure written by MMmdl.
 43 44  0  0  0  0  0  0  0  0  1 V2000
  146.2863  131.7928  149.7553 C   0  0  0  0  0  0  0  0  0  0  0  0
  145.5074  133.0427  150.0592 C   0  0  0  0  0  0  0  0  0  0  0  0
  144.3664  133.2547  149.4161 N   0  0  0  0  0  0  0  0  0  0  0  0
  143.8820  134.3991  149.9445 N   0  0  0  0  0  0  0  0  0  0  0  0
  144.6881  134.9374  150.9220 C   0  0  0  0  0  0  0  0  0  0  0  0
  144.3366  136.1911  151.6512 C   0  0  0  0  0  0  0  0  0  0  0  0
  145.7594  134.0950  150.9941 C   0  0  0  0  0  0  0  0  0  0  0  0
  146.8389  134.2484  151.8994 N   0  0  0  0  0  0  0  0  0  0  0  0
  147.1757  133.4181  152.8977 C   0  0  0  0  0  0  0  0  0  0  0  0
  146.6084  132.3558  153.1522 O   0  0  0  0  0  0  0  0  0  0  0  0
  148.2317  133.8798  153.5820 N   0  0  0  0  0  0  0  0  0  0  0  0
  148.8459  133.2171  154.7284 C   0  0  0  0  0  0  0  0  0  0  0  0
  149.9913  134.0646  155.3067 C   0  0  0  0  0  0  0  0  0  0  0  0
  150.7292  133.3088  156.4247 C   0  0  0  0  0  0  0  0  0  0  0  0
  151.2643  132.0383  155.9246 N   0  0  0  0  0  0  0  0  0  0  0  0
  152.0770  131.4009  156.9858 C   0  0  0  0  0  0  0  0  0  0  0  0
  153.1315  132.3186  157.6160 C   0  0  0  0  0  0  0  0  0  0  0  0
  154.4121  132.0511  157.3485 N   0  0  0  0  0  0  0  0  0  0  0  0
  152.7926  133.2594  158.3308 O   0  0  0  0  0  0  0  0  0  0  0  0
  150.1700  131.1756  155.4557 C   0  0  0  0  0  0  0  0  0  0  0  0
  149.4038  131.8512  154.3043 C   0  0  0  0  0  0  0  0  0  0  0  0
  143.0045  134.7926  149.6354 H   0  0  0  0  0  0  0  0  0  0  0  0
  146.8009  131.4222  150.6417 H   0  0  0  0  0  0  0  0  0  0  0  0
  147.0337  131.9755  148.9831 H   0  0  0  0  0  0  0  0  0  0  0  0
  145.6352  130.9929  149.4012 H   0  0  0  0  0  0  0  0  0  0  0  0
  145.0131  136.3629  152.4884 H   0  0  0  0  0  0  0  0  0  0  0  0
  143.3218  136.1385  152.0456 H   0  0  0  0  0  0  0  0  0  0  0  0
  144.3980  137.0535  150.9873 H   0  0  0  0  0  0  0  0  0  0  0  0
  147.4643  135.0193  151.7172 H   0  0  0  0  0  0  0  0  0  0  0  0
  148.6366  134.7591  153.2957 H   0  0  0  0  0  0  0  0  0  0  0  0
  148.0903  133.0585  155.5003 H   0  0  0  0  0  0  0  0  0  0  0  0
  150.6984  134.3254  154.5175 H   0  0  0  0  0  0  0  0  0  0  0  0
  149.6037  135.0063  155.6970 H   0  0  0  0  0  0  0  0  0  0  0  0
  151.5441  133.9346  156.7914 H   0  0  0  0  0  0  0  0  0  0  0  0
  150.0594  133.1346  157.2688 H   0  0  0  0  0  0  0  0  0  0  0  0
  151.4216  131.0720  157.7937 H   0  0  0  0  0  0  0  0  0  0  0  0
  152.5562  130.5022  156.5921 H   0  0  0  0  0  0  0  0  0  0  0  0
  155.1413  132.6278  157.7416 H   0  0  0  0  0  0  0  0  0  0  0  0
  154.6455  131.2701  156.7525 H   0  0  0  0  0  0  0  0  0  0  0  0
  150.5537  130.2232  155.0904 H   0  0  0  0  0  0  0  0  0  0  0  0
  149.4917  130.9477  156.2798 H   0  0  0  0  0  0  0  0  0  0  0  0
  148.5913  131.2032  153.9739 H   0  0  0  0  0  0  0  0  0  0  0  0
  150.0715  131.9696  153.4493 H   0  0  0  0  0  0  0  0  0  0  0  0
  1  2  1  0  0  0  0
  1 23  1  0  0  0  0
  1 24  1  0  0  0  0
  1 25  1  0  0  0  0
  2  7  1  0  0  0  0
  2  3  2  0  0  0  0
  3  4  1  0  0  0  0
  4 22  1  0  0  0  0
  4  5  1  0  0  0  0
  5  6  1  0  0  0  0
  5  7  2  0  0  0  0
  6 26  1  0  0  0  0
  6 27  1  0  0  0  0
  6 28  1  0  0  0  0
  7  8  1  0  0  0  0
  8  9  1  0  0  0  0
  8 29  1  0  0  0  0
  9 10  2  0  0  0  0
  9 11  1  0  0  0  0
 11 12  1  0  0  0  0
 11 30  1  0  0  0  0
 12 21  1  0  0  0  0
 12 13  1  0  0  0  0
 12 31  1  0  0  0  0
 13 14  1  0  0  0  0
 13 32  1  0  0  0  0
 13 33  1  0  0  0  0
 14 15  1  0  0  0  0
 14 34  1  0  0  0  0
 14 35  1  0  0  0  0
 15 16  1  0  0  0  0
 15 20  1  0  0  0  0
 16 17  1  0  0  0  0
 16 36  1  0  0  0  0
 16 37  1  0  0  0  0
 17 18  1  0  0  0  0
 17 19  2  0  0  0  0
 18 38  1  0  0  0  0
 18 39  1  0  0  0  0
 20 21  1  0  0  0  0
 20 40  1  0  0  0  0
 20 41  1  0  0  0  0
 21 42  1  0  0  0  0
 21 43  1  0  0  0  0
M  END
> <s_m_source_file>
AV-unprocessed.smi

> <i_m_source_file_index>
1827

> <i_lp_mmshare_version>
43012

> <i_f3d_flags>
0

> <s_epik_input>
W0NIM11jMW5bbkhdYyhbQ0gzXSljMVtOSF1DKD1PKVtOSF1bQ0hdMltDSDJdW0NIMl1OKFtDSDJdW0NIMl0yKVtDSDJdQyg9TylbTkgyXQ==

> <s_epik_cmdline>
J2VwaWtfcHl0aG9uJywgJy1waCcsICc3LjAnLCAnLXRuJywgJzgnLCAnLW1hJywgJzIwMCcsICctbWV0YWxfYmluZGluZycsICctaW1hZScsICc8aW5maWxlLm1hZT4nLCAnLW9tYWUnLCAnPG91dGZpbGUubWFlPic=

> <r_lp_tautomer_probability>
0.5

> <r_epik_Ionization_Penalty>
0.165173

> <r_epik_Ionization_Penalty_Charging>
0

> <r_epik_Ionization_Penalty_Neutral>
0.165173

> <r_epik_State_Penalty>
0.154069

> <r_epik_Charging_Adjusted_Penalty>
0.154069

> <i_epik_Tot_Q>
0

> <i_epik_Tot_abs_Q>
0

> <r_epik_Metal_State_Penalty>
0.171338

> <b_epik_Metal_Only>
0

> <s_lp_Force_Field>
OPLS_2005

> <r_lp_Energy>
14.0389

> <b_lp_Chiralities_Consistent>
1

> <s_lp_Variant>
AV-unprocessed.smi:1827-1

> <Gold.Version>
5.8.1

> <Gold.Id.Protein>
6NUR|6NUR_protein|mol2

> <Gold.PLP.Fitness>
42.0552

> <Gold.PLP.PLP>
-32.6845

> <Gold.PLP.part.hbond>
-4.0000

> <Gold.PLP.part.metal>
0.0000

> <Gold.PLP.part.buried>
-3.0672

> <Gold.PLP.part.nonpolar>
-25.7151

> <Gold.PLP.part.repulsive>
0.6265

> <Gold.PLP.ligand.clash>
0.0000

> <Gold.PLP.ligand.torsion>
0.7182

> <Gold.PLP.Chemscore.Hbond>
3.5040

> <Gold.PLP.Chemscore.CHOScore>
0.0000

> <Gold.PLP.Chemscore.Metal>
0.0000

> <Gold.Chemscore.Hbonds>
donor molecule, donor type, donor heavy atom, donor atom, acceptor molecule, acceptor atom, score
      L1  H     4    22       P1 10186  0.88
      L1  H     8    29       P1  7948  1.00
      L1  H    11    30       P1  7948  0.98
      P1  H  6896  6909       L1    19  0.35

> <Gold.PLP.Chemscore.Internal.Correction>
0.2952

> <Gold.Rescore>
     Score         DG    S(hbond)    S(metal)    S(lipo)     H(rot)  DE(clash)    DE(int)     intcor
     16.78     -18.96       3.33        0.00      63.00       1.96       0.47       1.71       ----

> <Gold.Chemscore.Fitness>
16.7773

> <Gold.Chemscore.DG>
-18.9559

> <Gold.Chemscore.ZeroCoef>
-5.4800

> <Gold.Chemscore.Hbond>
3.3313

> <Gold.Chemscore.Metal>
0.0000

> <Gold.Chemscore.Lipo>
62.9999

> <Gold.Chemscore.Internal_Hbond>
0.0000

> <Gold.Chemscore.DEClash>
0.4705

> <Gold.Chemscore.DEInternal>
1.7080

> <Gold.Chemscore.Rot>
1.9616

> <Gold.Chemscore.Internal.Correction>
   9.000000E+99

> <Gold.Chemscore.Hbonds>
donor molecule, donor type, donor heavy atom, donor atom, acceptor molecule, acceptor atom, score
      L1  H     4    22       P1 10186  0.67
      L1  H     8    29       P1  7948  0.78
      L1  H    11    30       P1  7948  0.39
      P1  H  6896  6909       L1    19  0.35

> <Gold.Chemscore.Hbond.Weighted>
-11.1265

> <Gold.Chemscore.Metal.Weighted>
-0.0000

> <Gold.Chemscore.Lipo.Weighted>
-7.3710

> <Gold.Chemscore.Internal_Hbond.Weighted>
0.0000

> <Gold.Chemscore.DEClash.Weighted>
0.4705

> <Gold.Chemscore.DEInternal.Weighted>
1.7080

> <Gold.Chemscore.Rot.Weighted>
5.0216

> <Gold.Chemscore.Internal.Correction.Weighted>
   9.000000E+99

> <Gold.Protein.RotatedTorsions>
[ 6907 6896 6895 6894 ] final  -63.93 input  -60.11 | X-H torsion
[ 7974 7965 7964 7962 ] final  123.74 input  175.53 | X-H torsion
[ 8008 7997 7996 7995 ] final  143.42 input   59.86 | X-H torsion
[ 10167 10162 10161 10158 ] final   91.41 input  -65.29 | X-H torsion
[ 10718 10713 10712 10709 ] final  119.60 input   66.30 | X-H torsion
[ 10763 10752 10751 10750 ] final   27.22 input  -60.55 | X-H torsion
[ 11005 11000 10999 10996 ] final  136.52 input  -57.11 | X-H torsion

> <Gold.Protein.ActiveResidues>
 VAL166  LYS551  ARG553  GLY616  TRP617  ASP618  TYR619  PRO620  LYS621  CYS622 
 ASP623  PHE694  ASN695  SER759  ASP760  ASP761  ALA762  ILE779  LEU786  VAL792 
 PHE793  MET794  SER795  GLU796  ALA797  LYS798  CYS799  TRP800  GLU811  SER814 

> <Gold.Protein.RotatedAtoms>
  150.7618  134.6368  159.6215 H   0  0  0  0  0  0  0  0  0  0  0  0  # atno 6907 bound_to 6896
  152.3629  134.6843  160.0210 H   0  0  0  0  0  0  0  0  0  0  0  0  # atno 6908 bound_to 6896
  151.7228  133.3279  159.3356 H   0  0  0  0  0  0  0  0  0  0  0  0  # atno 6909 bound_to 6896
  145.0924  139.3577  143.4854 H   0  0  0  0  0  0  0  0  0  0  0  0  # atno 7974 bound_to 7965
  156.2930  140.2263  156.4887 H   0  0  0  0  0  0  0  0  0  0  0  0  # atno 8008 bound_to 7997
  154.7789  140.0461  157.1133 H   0  0  0  0  0  0  0  0  0  0  0  0  # atno 8009 bound_to 7997
  154.9782  140.3075  155.4961 H   0  0  0  0  0  0  0  0  0  0  0  0  # atno 8010 bound_to 7997
  139.8377  144.6656  150.9321 H   0  0  0  0  0  0  0  0  0  0  0  0  # atno 10167 bound_to 10162
  157.5950  131.1059  150.7919 H   0  0  0  0  0  0  0  0  0  0  0  0  # atno 10718 bound_to 10713
  153.0570  135.6542  154.0554 H   0  0  0  0  0  0  0  0  0  0  0  0  # atno 10763 bound_to 10752
  154.0230  135.2918  155.3380 H   0  0  0  0  0  0  0  0  0  0  0  0  # atno 10764 bound_to 10752
  154.6890  135.5290  153.8433 H   0  0  0  0  0  0  0  0  0  0  0  0  # atno 10765 bound_to 10752
  140.0051  134.9462  157.0158 H   0  0  0  0  0  0  0  0  0  0  0  0  # atno 11005 bound_to 11000
  146.3531  140.0764  142.8620 LP  0  0  0  0  0  0  0  0  0  0  0  0  # atno 17320 bound_to 7965
  145.1050  140.9370  143.4690 LP  0  0  0  0  0  0  0  0  0  0  0  0  # atno 17321 bound_to 7965
  140.7801  143.3941  151.1259 LP  0  0  0  0  0  0  0  0  0  0  0  0  # atno 17342 bound_to 10162
  139.7590  143.8664  152.3095 LP  0  0  0  0  0  0  0  0  0  0  0  0  # atno 17343 bound_to 10162
  156.8331  130.5022  149.5329 LP  0  0  0  0  0  0  0  0  0  0  0  0  # atno 17370 bound_to 10713
  156.1011  130.5970  150.9896 LP  0  0  0  0  0  0  0  0  0  0  0  0  # atno 17371 bound_to 10713
  140.4655  134.1440  155.7196 LP  0  0  0  0  0  0  0  0  0  0  0  0  # atno 17394 bound_to 11000
  141.1671  133.8681  157.1682 LP  0  0  0  0  0  0  0  0  0  0  0  0  # atno 17395 bound_to 11000

$$$$
