AV-unprocessed.smi:2627|AV-procd|sdf|10241|dock4
  -GOLD-   2272014253D 1   1.00000     0.00000
 Structure written by MMmdl.
 40 42  0  0  0  0  0  0  0  0  2 V2000
  152.8713  138.5029  154.4633 C   0  0  0  0  0  0  0  0  0  0  0  0
  151.5490  137.7936  154.7817 C   0  0  2  0  0  0  0  0  0  0  0  0
  151.5199  136.5595  154.0949 O   0  0  0  0  0  0  0  0  0  0  0  0
  150.3800  138.6623  154.4336 C   0  0  0  0  0  0  0  0  0  0  0  0
  149.4212  138.3827  153.5048 N   0  3  0  0  0  0  0  0  0  0  0  0
  148.4945  139.4243  153.4516 C   0  0  0  0  0  0  0  0  0  0  0  0
  147.3522  139.5892  152.6743 C   0  0  0  0  0  0  0  0  0  0  0  0
  146.6196  140.7784  152.8706 C   0  0  0  0  0  0  0  0  0  0  0  0
  147.0295  141.7465  153.8106 C   0  0  0  0  0  0  0  0  0  0  0  0
  148.1902  141.5685  154.5923 C   0  0  0  0  0  0  0  0  0  0  0  0
  148.9106  140.3917  154.3890 C   0  0  0  0  0  0  0  0  0  0  0  0
  150.0834  139.8856  154.9602 N   0  0  0  0  0  0  0  0  0  0  0  0
  150.7845  140.6731  155.9823 C   0  0  0  0  0  0  0  0  0  0  0  0
  149.9915  140.7393  157.2926 C   0  0  0  0  0  0  0  0  0  0  0  0
  150.9097  140.8952  158.3644 O   0  0  0  0  0  0  0  0  0  0  0  0
  151.4005  142.1566  158.6239 C   0  0  0  0  0  0  0  0  0  0  0  0
  152.3105  142.2803  159.6943 C   0  0  0  0  0  0  0  0  0  0  0  0
  152.8608  143.5316  160.0323 C   0  0  0  0  0  0  0  0  0  0  0  0
  152.5054  144.6776  159.2975 C   0  0  0  0  0  0  0  0  0  0  0  0
  151.5998  144.5688  158.2258 C   0  0  0  0  0  0  0  0  0  0  0  0
  151.0487  143.3172  157.8885 C   0  0  0  0  0  0  0  0  0  0  0  0
  152.9557  139.4401  155.0143 H   0  0  0  0  0  0  0  0  0  0  0  0
  152.9540  138.7329  153.4005 H   0  0  0  0  0  0  0  0  0  0  0  0
  153.7255  137.8830  154.7377 H   0  0  0  0  0  0  0  0  0  0  0  0
  151.5128  137.5685  155.8480 H   0  0  0  0  0  0  0  0  0  0  0  0
  151.3719  136.7297  153.1769 H   0  0  0  0  0  0  0  0  0  0  0  0
  147.0354  138.8484  151.9546 H   0  0  0  0  0  0  0  0  0  0  0  0
  145.7253  140.9512  152.2894 H   0  0  0  0  0  0  0  0  0  0  0  0
  146.4418  142.6447  153.9346 H   0  0  0  0  0  0  0  0  0  0  0  0
  148.4935  142.3160  155.3104 H   0  0  0  0  0  0  0  0  0  0  0  0
  151.7546  140.2059  156.1532 H   0  0  0  0  0  0  0  0  0  0  0  0
  150.9891  141.6703  155.5919 H   0  0  0  0  0  0  0  0  0  0  0  0
  149.2937  141.5777  157.2657 H   0  0  0  0  0  0  0  0  0  0  0  0
  149.4174  139.8199  157.4197 H   0  0  0  0  0  0  0  0  0  0  0  0
  152.5879  141.4055  160.2639 H   0  0  0  0  0  0  0  0  0  0  0  0
  153.5550  143.6113  160.8557 H   0  0  0  0  0  0  0  0  0  0  0  0
  152.9269  145.6381  159.5548 H   0  0  0  0  0  0  0  0  0  0  0  0
  151.3267  145.4476  157.6605 H   0  0  0  0  0  0  0  0  0  0  0  0
  150.3588  143.2742  157.0597 H   0  0  0  0  0  0  0  0  0  0  0  0
  149.4062  137.5349  152.9522 H   0  0  0  0  0  0  0  0  0  0  0  0
  1  2  1  0  0  0  0
  1 22  1  0  0  0  0
  1 23  1  0  0  0  0
  1 24  1  0  0  0  0
  2  3  1  0  0  0  0
  2  4  1  0  0  0  0
  2 25  1  0  0  0  0
  3 26  1  0  0  0  0
  4 12  1  0  0  0  0
  4  5  2  0  0  0  0
  5  6  1  0  0  0  0
  5 40  1  0  0  0  0
  6 11  2  0  0  0  0
  6  7  1  0  0  0  0
  7  8  2  0  0  0  0
  7 27  1  0  0  0  0
  8  9  1  0  0  0  0
  8 28  1  0  0  0  0
  9 10  2  0  0  0  0
  9 29  1  0  0  0  0
 10 11  1  0  0  0  0
 10 30  1  0  0  0  0
 11 12  1  0  0  0  0
 12 13  1  0  0  0  0
 13 14  1  0  0  0  0
 13 31  1  0  0  0  0
 13 32  1  0  0  0  0
 14 15  1  0  0  0  0
 14 33  1  0  0  0  0
 14 34  1  0  0  0  0
 15 16  1  0  0  0  0
 16 21  1  0  0  0  0
 16 17  2  0  0  0  0
 17 18  1  0  0  0  0
 17 35  1  0  0  0  0
 18 19  2  0  0  0  0
 18 36  1  0  0  0  0
 19 20  1  0  0  0  0
 19 37  1  0  0  0  0
 20 21  2  0  0  0  0
 20 38  1  0  0  0  0
 21 39  1  0  0  0  0
M  CHG  1   5   1
M  END
> <s_m_source_file>
AV-unprocessed.smi

> <i_m_source_file_index>
2627

> <i_lp_mmshare_version>
43012

> <i_f3d_flags>
0

> <s_epik_input>
W2NIXTFbY0hdW2NIXVtjSF1jKGMxMiluKGMobjIpW0NASF0oW0NIM10pW09IXSlbQ0gyXVtDSDJdT2MzW2NIXVtjSF1bY0hdW2NIXVtjSF0z

> <s_epik_cmdline>
J2VwaWtfcHl0aG9uJywgJy1waCcsICc3LjAnLCAnLXRuJywgJzgnLCAnLW1hJywgJzIwMCcsICctbWV0YWxfYmluZGluZycsICctaW1hZScsICc8aW5maWxlLm1hZT4nLCAnLW9tYWUnLCAnPG91dGZpbGUubWFlPic=

> <r_lp_tautomer_probability>
1

> <r_epik_Ionization_Penalty>
1.52183

> <r_epik_Ionization_Penalty_Charging>
1.5218

> <r_epik_Ionization_Penalty_Neutral>
2.92192e-05

> <r_epik_State_Penalty>
1.61369

> <r_epik_Charging_Adjusted_Penalty>
3.13549

> <i_epik_Tot_Q>
1

> <i_epik_Tot_abs_Q>
1

> <r_epik_Metal_State_Penalty>
5.66625

> <b_epik_Metal_Only>
0

> <s_lp_Force_Field>
OPLS_2005

> <r_lp_Energy>
19.9406

> <b_lp_Chiralities_Consistent>
1

> <s_lp_Variant>
AV-unprocessed.smi:2627-3

> <Gold.Version>
5.8.1

> <Gold.Id.Protein>
6NUR|6NUR_protein|mol2

> <Gold.PLP.Fitness>
60.6926

> <Gold.PLP.PLP>
-49.5755

> <Gold.PLP.part.hbond>
-4.0000

> <Gold.PLP.part.metal>
0.0000

> <Gold.PLP.part.buried>
0.9006

> <Gold.PLP.part.nonpolar>
-47.7308

> <Gold.PLP.part.repulsive>
0.0700

> <Gold.PLP.ligand.clash>
0.0000

> <Gold.PLP.ligand.torsion>
0.3785

> <Gold.PLP.Chemscore.Hbond>
3.9280

> <Gold.PLP.Chemscore.CHOScore>
0.0000

> <Gold.PLP.Chemscore.Metal>
0.0000

> <Gold.Chemscore.Hbonds>
donor molecule, donor type, donor heavy atom, donor atom, acceptor molecule, acceptor atom, score
      L1  H     3    26       P1  7949  0.91
      L1  H     5    40       P1  7948  2.00
      P1  H 10752 10765       L1     3  1.00

> <Gold.PLP.Chemscore.Internal.Correction>
0.0901

> <Gold.Rescore>
     Score         DG    S(hbond)    S(metal)    S(lipo)     H(rot)  DE(clash)    DE(int)     intcor
     21.47     -24.99       2.42        0.00     144.26       2.13       3.19       0.33       ----

> <Gold.Chemscore.Fitness>
21.4713

> <Gold.Chemscore.DG>
-24.9911

> <Gold.Chemscore.ZeroCoef>
-5.4800

> <Gold.Chemscore.Hbond>
2.4206

> <Gold.Chemscore.Metal>
0.0000

> <Gold.Chemscore.Lipo>
144.2632

> <Gold.Chemscore.Internal_Hbond>
0.0000

> <Gold.Chemscore.DEClash>
3.1907

> <Gold.Chemscore.DEInternal>
0.3291

> <Gold.Chemscore.Rot>
2.1299

> <Gold.Chemscore.Internal.Correction>
   9.000000E+99

> <Gold.Chemscore.Hbonds>
donor molecule, donor type, donor heavy atom, donor atom, acceptor molecule, acceptor atom, score
      L1  H     3    26       P1  7949  0.70
      L1  H     5    40       P1  7948  0.91
      P1  H 10752 10765       L1     3  0.68

> <Gold.Chemscore.Hbond.Weighted>
-8.0849

> <Gold.Chemscore.Metal.Weighted>
-0.0000

> <Gold.Chemscore.Lipo.Weighted>
-16.8788

> <Gold.Chemscore.Internal_Hbond.Weighted>
0.0000

> <Gold.Chemscore.DEClash.Weighted>
3.1907

> <Gold.Chemscore.DEInternal.Weighted>
0.3291

> <Gold.Chemscore.Rot.Weighted>
5.4526

> <Gold.Chemscore.Internal.Correction.Weighted>
   9.000000E+99

> <Gold.Protein.RotatedTorsions>
[ 6907 6896 6895 6894 ] final  164.73 input  -60.11 | X-H torsion
[ 7974 7965 7964 7962 ] final  167.84 input  175.53 | X-H torsion
[ 8008 7997 7996 7995 ] final -159.23 input   59.86 | X-H torsion
[ 10167 10162 10161 10158 ] final  -16.46 input  -65.29 | X-H torsion
[ 10718 10713 10712 10709 ] final -161.92 input   66.30 | X-H torsion
[ 10763 10752 10751 10750 ] final  174.94 input  -60.55 | X-H torsion
[ 11005 11000 10999 10996 ] final   98.44 input  -57.11 | X-H torsion

> <Gold.Protein.ActiveResidues>
 VAL166  LYS551  ARG553  GLY616  TRP617  ASP618  TYR619  PRO620  LYS621  CYS622 
 ASP623  PHE694  ASN695  SER759  ASP760  ASP761  ALA762  ILE779  LEU786  VAL792 
 PHE793  MET794  SER795  GLU796  ALA797  LYS798  CYS799  TRP800  GLU811  SER814 

> <Gold.Protein.RotatedAtoms>
  151.9054  133.3548  159.3844 H   0  0  0  0  0  0  0  0  0  0  0  0  # atno 6907 bound_to 6896
  150.7070  134.4786  159.5469 H   0  0  0  0  0  0  0  0  0  0  0  0  # atno 6908 bound_to 6896
  152.2382  134.8255  160.0515 H   0  0  0  0  0  0  0  0  0  0  0  0  # atno 6909 bound_to 6896
  144.7409  139.8820  143.6397 H   0  0  0  0  0  0  0  0  0  0  0  0  # atno 7974 bound_to 7965
  155.7595  140.0837  157.2162 H   0  0  0  0  0  0  0  0  0  0  0  0  # atno 8008 bound_to 7997
  154.4005  140.1545  156.2872 H   0  0  0  0  0  0  0  0  0  0  0  0  # atno 8009 bound_to 7997
  155.8853  140.3418  155.5920 H   0  0  0  0  0  0  0  0  0  0  0  0  # atno 8010 bound_to 7997
  140.7234  143.5114  150.9745 H   0  0  0  0  0  0  0  0  0  0  0  0  # atno 10167 bound_to 10162
  156.6031  130.8819  151.2918 H   0  0  0  0  0  0  0  0  0  0  0  0  # atno 10718 bound_to 10713
  154.4608  135.2767  155.1714 H   0  0  0  0  0  0  0  0  0  0  0  0  # atno 10763 bound_to 10752
  154.3503  135.6151  153.5643 H   0  0  0  0  0  0  0  0  0  0  0  0  # atno 10764 bound_to 10752
  152.9854  135.5810  154.4970 H   0  0  0  0  0  0  0  0  0  0  0  0  # atno 10765 bound_to 10752
  139.8772  134.9049  156.4456 H   0  0  0  0  0  0  0  0  0  0  0  0  # atno 11005 bound_to 11000
  146.1204  139.4221  143.0232 LP  0  0  0  0  0  0  0  0  0  0  0  0  # atno 17320 bound_to 7965
  145.7313  141.0041  143.1350 LP  0  0  0  0  0  0  0  0  0  0  0  0  # atno 17321 bound_to 7965
  139.8828  143.7051  152.3155 LP  0  0  0  0  0  0  0  0  0  0  0  0  # atno 17342 bound_to 10162
  139.7339  144.7576  151.0758 LP  0  0  0  0  0  0  0  0  0  0  0  0  # atno 17343 bound_to 10162
  157.7274  130.9643  150.1698 LP  0  0  0  0  0  0  0  0  0  0  0  0  # atno 17370 bound_to 10713
  156.2452  130.3695  149.8293 LP  0  0  0  0  0  0  0  0  0  0  0  0  # atno 17371 bound_to 10713
  140.8968  133.7808  155.9635 LP  0  0  0  0  0  0  0  0  0  0  0  0  # atno 17394 bound_to 11000
  140.8694  134.2745  157.5198 LP  0  0  0  0  0  0  0  0  0  0  0  0  # atno 17395 bound_to 11000

$$$$
