AV-unprocessed.smi:797|AV-procd|sdf|3768|dock2
  -GOLD-   22720 1203D 1   1.00000     0.00000
 Structure written by MMmdl.
 34 35  0  0  0  0  0  0  0  0  2 V2000
  150.1187  134.2813  154.6899 C   0  0  0  0  0  0  0  0  0  0  0  0
  150.4483  135.5483  155.4223 C   0  0  0  0  0  0  0  0  0  0  0  0
  149.6125  136.6726  155.6624 C   0  0  0  0  0  0  0  0  0  0  0  0
  150.4157  137.5294  156.3603 C   0  0  0  0  0  0  0  0  0  0  0  0
  150.1980  138.8929  156.9293 C   0  0  0  0  0  0  0  0  0  0  0  0
  151.3654  140.1008  156.1655 S   0  0  0  0  0  0  0  0  0  0  0  0
  152.7098  139.6854  156.5974 O   0  0  0  0  0  0  0  0  0  0  0  0
  151.0908  140.0875  154.7190 O   0  0  0  0  0  0  0  0  0  0  0  0
  150.8913  141.4757  156.8864 N   0  5  0  0  0  0  0  0  0  0  0  0
  151.8282  142.2235  157.7114 C   0  0  0  0  0  0  0  0  0  0  0  0
  152.0493  141.4865  159.0552 C   0  0  0  0  0  0  0  0  0  0  0  0
  152.9310  142.2811  160.0522 C   0  0  0  0  0  0  0  0  0  0  0  0
  152.3801  143.6945  160.3356 C   0  0  0  0  0  0  0  0  0  0  0  0
  152.1629  144.4417  159.0031 C   0  0  0  0  0  0  0  0  0  0  0  0
  151.2836  143.6443  158.0069 C   0  0  0  0  0  0  0  0  0  0  0  0
  151.6418  136.9749  156.5444 O   0  0  0  0  0  0  0  0  0  0  0  0
  151.6525  135.7110  155.9441 N   0  0  0  0  0  0  0  0  0  0  0  0
  149.2719  134.4257  154.0186 H   0  0  0  0  0  0  0  0  0  0  0  0
  149.8589  133.4842  155.3864 H   0  0  0  0  0  0  0  0  0  0  0  0
  150.9615  133.9388  154.0888 H   0  0  0  0  0  0  0  0  0  0  0  0
  148.5879  136.8336  155.3621 H   0  0  0  0  0  0  0  0  0  0  0  0
  149.1762  139.2359  156.7698 H   0  0  0  0  0  0  0  0  0  0  0  0
  150.3833  138.8843  158.0030 H   0  0  0  0  0  0  0  0  0  0  0  0
  152.7993  142.3216  157.2244 H   0  0  0  0  0  0  0  0  0  0  0  0
  151.0848  141.2884  159.5258 H   0  0  0  0  0  0  0  0  0  0  0  0
  152.5023  140.5117  158.8707 H   0  0  0  0  0  0  0  0  0  0  0  0
  153.0064  141.7284  160.9890 H   0  0  0  0  0  0  0  0  0  0  0  0
  153.9514  142.3590  159.6711 H   0  0  0  0  0  0  0  0  0  0  0  0
  151.4339  143.6189  160.8727 H   0  0  0  0  0  0  0  0  0  0  0  0
  153.0643  144.2501  160.9775 H   0  0  0  0  0  0  0  0  0  0  0  0
  151.6982  145.4078  159.2019 H   0  0  0  0  0  0  0  0  0  0  0  0
  153.1310  144.6662  158.5507 H   0  0  0  0  0  0  0  0  0  0  0  0
  151.1948  144.2116  157.0803 H   0  0  0  0  0  0  0  0  0  0  0  0
  150.2737  143.5699  158.4134 H   0  0  0  0  0  0  0  0  0  0  0  0
  1  2  1  0  0  0  0
  1 18  1  0  0  0  0
  1 19  1  0  0  0  0
  1 20  1  0  0  0  0
  2 17  2  0  0  0  0
  2  3  1  0  0  0  0
  3  4  2  0  0  0  0
  3 21  1  0  0  0  0
  4  5  1  0  0  0  0
  4 16  1  0  0  0  0
  5  6  1  0  0  0  0
  5 22  1  0  0  0  0
  5 23  1  0  0  0  0
  6  7  2  0  0  0  0
  6  8  2  0  0  0  0
  6  9  1  0  0  0  0
  9 10  1  0  0  0  0
 10 15  1  0  0  0  0
 10 11  1  0  0  0  0
 10 24  1  0  0  0  0
 11 12  1  0  0  0  0
 11 25  1  0  0  0  0
 11 26  1  0  0  0  0
 12 13  1  0  0  0  0
 12 27  1  0  0  0  0
 12 28  1  0  0  0  0
 13 14  1  0  0  0  0
 13 29  1  0  0  0  0
 13 30  1  0  0  0  0
 14 15  1  0  0  0  0
 14 31  1  0  0  0  0
 14 32  1  0  0  0  0
 15 33  1  0  0  0  0
 15 34  1  0  0  0  0
 16 17  1  0  0  0  0
M  CHG  1   9  -1
M  END
> <s_m_source_file>
AV-unprocessed.smi

> <i_m_source_file_index>
797

> <i_lp_mmshare_version>
43012

> <i_f3d_flags>
0

> <s_epik_input>
W0NIM11jMVtjSF1jKG9uMSlbQ0gyXVMoPU8pKD1PKVtOSF1bQ0hdMltDSDJdW0NIMl1bQ0gyXVtDSDJdW0NIMl0y

> <s_epik_cmdline>
J2VwaWtfcHl0aG9uJywgJy1waCcsICc3LjAnLCAnLXRuJywgJzgnLCAnLW1hJywgJzIwMCcsICctbWV0YWxfYmluZGluZycsICctaW1hZScsICc8aW5maWxlLm1hZT4nLCAnLW9tYWUnLCAnPG91dGZpbGUubWFlPic=

> <r_lp_tautomer_probability>
1

> <r_epik_Ionization_Penalty>
5.48284

> <r_epik_Ionization_Penalty_Charging>
5.48284

> <r_epik_Ionization_Penalty_Neutral>
9.17401e-10

> <r_epik_State_Penalty>
5.48278

> <r_epik_Charging_Adjusted_Penalty>
10.9656

> <i_epik_Tot_Q>
-1

> <i_epik_Tot_abs_Q>
1

> <r_epik_Metal_State_Penalty>
1.49378

> <b_epik_Metal_Only>
1

> <s_lp_Force_Field>
OPLS_2005

> <r_lp_Energy>
6.0802

> <b_lp_Chiralities_Consistent>
1

> <s_lp_Variant>
AV-unprocessed.smi:797-2

> <Gold.Version>
5.8.1

> <Gold.Id.Protein>
6NUR|6NUR_protein|mol2

> <Gold.PLP.Fitness>
39.1737

> <Gold.PLP.PLP>
-30.5895

> <Gold.PLP.part.hbond>
-3.0000

> <Gold.PLP.part.metal>
0.0000

> <Gold.PLP.part.buried>
-5.5077

> <Gold.PLP.part.nonpolar>
-22.3655

> <Gold.PLP.part.repulsive>
0.1506

> <Gold.PLP.ligand.clash>
0.0000

> <Gold.PLP.ligand.torsion>
0.7084

> <Gold.PLP.Chemscore.Hbond>
3.0000

> <Gold.PLP.Chemscore.CHOScore>
0.0000

> <Gold.PLP.Chemscore.Metal>
0.0000

> <Gold.Chemscore.Hbonds>
donor molecule, donor type, donor heavy atom, donor atom, acceptor molecule, acceptor atom, score
      P1  H  7989  7998       L1     8  1.00
      P1  H  7997  8009       L1     7  1.00
      P1  H 10752 10764       L1    17  1.00

> <Gold.PLP.Chemscore.Internal.Correction>
1.0009

> <Gold.Rescore>
     Score         DG    S(hbond)    S(metal)    S(lipo)     H(rot)  DE(clash)    DE(int)     intcor
     19.79     -21.79       2.96        0.00      84.63       1.35       0.08       1.92       ----

> <Gold.Chemscore.Fitness>
19.7936

> <Gold.Chemscore.DG>
-21.7884

> <Gold.Chemscore.ZeroCoef>
-5.4800

> <Gold.Chemscore.Hbond>
2.9566

> <Gold.Chemscore.Metal>
0.0000

> <Gold.Chemscore.Lipo>
84.6261

> <Gold.Chemscore.Internal_Hbond>
0.0000

> <Gold.Chemscore.DEClash>
0.0760

> <Gold.Chemscore.DEInternal>
1.9187

> <Gold.Chemscore.Rot>
1.3546

> <Gold.Chemscore.Internal.Correction>
   9.000000E+99

> <Gold.Chemscore.Hbonds>
donor molecule, donor type, donor heavy atom, donor atom, acceptor molecule, acceptor atom, score
      P1  H  7989  7998       L1     8  0.95
      P1  H  7997  8009       L1     7  1.00
      P1  H 10752 10764       L1    17  0.78

> <Gold.Chemscore.Hbond.Weighted>
-9.8750

> <Gold.Chemscore.Metal.Weighted>
-0.0000

> <Gold.Chemscore.Lipo.Weighted>
-9.9013

> <Gold.Chemscore.Internal_Hbond.Weighted>
0.0000

> <Gold.Chemscore.DEClash.Weighted>
0.0760

> <Gold.Chemscore.DEInternal.Weighted>
1.9187

> <Gold.Chemscore.Rot.Weighted>
3.4679

> <Gold.Chemscore.Internal.Correction.Weighted>
   9.000000E+99

> <Gold.Protein.RotatedTorsions>
[ 6907 6896 6895 6894 ] final    0.43 input  -60.11 | X-H torsion
[ 7974 7965 7964 7962 ] final -143.98 input  175.53 | X-H torsion
[ 8008 7997 7996 7995 ] final -165.01 input   59.86 | X-H torsion
[ 10167 10162 10161 10158 ] final   -7.55 input  -65.29 | X-H torsion
[ 10718 10713 10712 10709 ] final -147.57 input   66.30 | X-H torsion
[ 10763 10752 10751 10750 ] final  -31.39 input  -60.55 | X-H torsion
[ 11005 11000 10999 10996 ] final  105.24 input  -57.11 | X-H torsion

> <Gold.Protein.ActiveResidues>
 VAL166  LYS551  ARG553  GLY616  TRP617  ASP618  TYR619  PRO620  LYS621  CYS622 
 ASP623  PHE694  ASN695  SER759  ASP760  ASP761  ALA762  ILE779  LEU786  VAL792 
 PHE793  MET794  SER795  GLU796  ALA797  LYS798  CYS799  TRP800  GLU811  SER814 

> <Gold.Protein.RotatedAtoms>
  151.5764  135.1060  160.0006 H   0  0  0  0  0  0  0  0  0  0  0  0  # atno 6907 bound_to 6896
  152.4376  133.7384  159.6638 H   0  0  0  0  0  0  0  0  0  0  0  0  # atno 6908 bound_to 6896
  150.8276  133.8076  159.3135 H   0  0  0  0  0  0  0  0  0  0  0  0  # atno 6909 bound_to 6896
  144.8330  140.5767  143.5502 H   0  0  0  0  0  0  0  0  0  0  0  0  # atno 7974 bound_to 7965
  155.8437  140.0952  157.1718 H   0  0  0  0  0  0  0  0  0  0  0  0  # atno 8008 bound_to 7997
  154.3983  140.1396  156.3821 H   0  0  0  0  0  0  0  0  0  0  0  0  # atno 8009 bound_to 7997
  155.8037  140.3452  155.5420 H   0  0  0  0  0  0  0  0  0  0  0  0  # atno 8010 bound_to 7997
  140.7032  143.6068  150.8743 H   0  0  0  0  0  0  0  0  0  0  0  0  # atno 10167 bound_to 10162
  156.4092  130.7973  151.2189 H   0  0  0  0  0  0  0  0  0  0  0  0  # atno 10718 bound_to 10713
  153.7965  135.6893  153.4862 H   0  0  0  0  0  0  0  0  0  0  0  0  # atno 10763 bound_to 10752
  153.1716  135.4540  154.9908 H   0  0  0  0  0  0  0  0  0  0  0  0  # atno 10764 bound_to 10752
  154.8023  135.3343  154.7457 H   0  0  0  0  0  0  0  0  0  0  0  0  # atno 10765 bound_to 10752
  139.8800  134.9329  156.5484 H   0  0  0  0  0  0  0  0  0  0  0  0  # atno 11005 bound_to 11000
  145.4855  139.1492  143.3738 LP  0  0  0  0  0  0  0  0  0  0  0  0  # atno 17320 bound_to 7965
  146.2631  140.4992  142.8845 LP  0  0  0  0  0  0  0  0  0  0  0  0  # atno 17321 bound_to 7965
  139.9792  143.5970  152.2948 LP  0  0  0  0  0  0  0  0  0  0  0  0  # atno 17342 bound_to 10162
  139.6585  144.7662  151.2009 LP  0  0  0  0  0  0  0  0  0  0  0  0  # atno 17343 bound_to 10162
  157.7506  131.0263  150.3955 LP  0  0  0  0  0  0  0  0  0  0  0  0  # atno 17370 bound_to 10713
  156.4250  130.3960  149.6799 LP  0  0  0  0  0  0  0  0  0  0  0  0  # atno 17371 bound_to 10713
  140.8259  133.8317  155.8938 LP  0  0  0  0  0  0  0  0  0  0  0  0  # atno 17394 bound_to 11000
  140.9375  134.1943  157.4821 LP  0  0  0  0  0  0  0  0  0  0  0  0  # atno 17395 bound_to 11000

$$$$
