AV-unprocessed.smi:2911|AV-procd|sdf|11179|dock5
  -GOLD-   2272016 73D 1   1.00000     0.00000
 Structure written by MMmdl.
 41 42  0  0  0  0  0  0  0  0  1 V2000
  147.3442  133.8841  162.5271 C   0  0  0  0  0  0  0  0  0  0  0  0
  147.6276  135.1071  161.7235 C   0  0  0  0  0  0  0  0  0  0  0  0
  147.4195  136.3198  162.2215 N   0  0  0  0  0  0  0  0  0  0  0  0
  147.7904  137.1693  161.1692 O   0  0  0  0  0  0  0  0  0  0  0  0
  148.1949  136.3565  160.1635 C   0  0  0  0  0  0  0  0  0  0  0  0
  148.6127  136.9649  158.8670 C   0  0  0  0  0  0  0  0  0  0  0  0
  150.0920  136.6993  158.5458 C   0  0  0  0  0  0  0  0  0  0  0  0
  150.8902  137.9159  158.6459 N   0  0  0  0  0  0  0  0  0  0  0  0
  152.0708  138.0230  159.2795 C   0  0  0  0  0  0  0  0  0  0  0  0
  152.5760  137.0677  159.8714 O   0  0  0  0  0  0  0  0  0  0  0  0
  152.6216  139.2665  159.2605 N   0  0  0  0  0  0  0  0  0  0  0  0
  152.3263  140.3076  158.2510 C   0  0  0  0  0  0  0  0  0  0  0  0
  151.9531  141.6358  158.9244 C   0  0  0  0  0  0  0  0  0  0  0  0
  153.0778  142.1111  159.8556 C   0  0  1  0  0  0  0  0  0  0  0  0
  152.7171  143.4294  160.5545 C   0  0  0  0  0  0  0  0  0  0  0  0
  153.4135  141.0041  160.8687 C   0  0  0  0  0  0  0  0  0  0  0  0
  153.6964  139.6369  160.2077 C   0  0  2  0  0  0  0  0  0  0  0  0
  155.0880  139.5303  159.5575 C   0  0  0  0  0  0  0  0  0  0  0  0
  148.0974  135.0598  160.4468 N   0  0  0  0  0  0  0  0  0  0  0  0
  147.6580  134.0249  163.5620 H   0  0  0  0  0  0  0  0  0  0  0  0
  147.8787  133.0250  162.1210 H   0  0  0  0  0  0  0  0  0  0  0  0
  146.2764  133.6654  162.5137 H   0  0  0  0  0  0  0  0  0  0  0  0
  147.9739  136.5669  158.0777 H   0  0  0  0  0  0  0  0  0  0  0  0
  148.4239  138.0382  158.9106 H   0  0  0  0  0  0  0  0  0  0  0  0
  150.4989  135.9724  159.2492 H   0  0  0  0  0  0  0  0  0  0  0  0
  150.1962  136.2610  157.5515 H   0  0  0  0  0  0  0  0  0  0  0  0
  150.5182  138.7423  158.2009 H   0  0  0  0  0  0  0  0  0  0  0  0
  153.2065  140.4478  157.6234 H   0  0  0  0  0  0  0  0  0  0  0  0
  151.5298  140.0428  157.5563 H   0  0  0  0  0  0  0  0  0  0  0  0
  151.7564  142.3911  158.1627 H   0  0  0  0  0  0  0  0  0  0  0  0
  151.0265  141.5130  159.4871 H   0  0  0  0  0  0  0  0  0  0  0  0
  153.9645  142.2953  159.2477 H   0  0  0  0  0  0  0  0  0  0  0  0
  151.8316  143.3178  161.1811 H   0  0  0  0  0  0  0  0  0  0  0  0
  152.5136  144.2162  159.8276 H   0  0  0  0  0  0  0  0  0  0  0  0
  153.5339  143.7720  161.1904 H   0  0  0  0  0  0  0  0  0  0  0  0
  154.2626  141.3028  161.4846 H   0  0  0  0  0  0  0  0  0  0  0  0
  152.5724  140.8895  161.5543 H   0  0  0  0  0  0  0  0  0  0  0  0
  153.7103  138.9317  161.0406 H   0  0  0  0  0  0  0  0  0  0  0  0
  155.8737  139.7148  160.2904 H   0  0  0  0  0  0  0  0  0  0  0  0
  155.2209  140.2496  158.7501 H   0  0  0  0  0  0  0  0  0  0  0  0
  155.2525  138.5340  159.1462 H   0  0  0  0  0  0  0  0  0  0  0  0
  1  2  1  0  0  0  0
  1 20  1  0  0  0  0
  1 21  1  0  0  0  0
  1 22  1  0  0  0  0
  2 19  1  0  0  0  0
  2  3  2  0  0  0  0
  3  4  1  0  0  0  0
  4  5  1  0  0  0  0
  5  6  1  0  0  0  0
  5 19  2  0  0  0  0
  6  7  1  0  0  0  0
  6 23  1  0  0  0  0
  6 24  1  0  0  0  0
  7  8  1  0  0  0  0
  7 25  1  0  0  0  0
  7 26  1  0  0  0  0
  8  9  1  0  0  0  0
  8 27  1  0  0  0  0
  9 10  2  0  0  0  0
  9 11  1  0  0  0  0
 11 17  1  0  0  0  0
 11 12  1  0  0  0  0
 12 13  1  0  0  0  0
 12 28  1  0  0  0  0
 12 29  1  0  0  0  0
 13 14  1  0  0  0  0
 13 30  1  0  0  0  0
 13 31  1  0  0  0  0
 14 15  1  0  0  0  0
 14 16  1  0  0  0  0
 14 32  1  0  0  0  0
 15 33  1  0  0  0  0
 15 34  1  0  0  0  0
 15 35  1  0  0  0  0
 16 17  1  0  0  0  0
 16 36  1  0  0  0  0
 16 37  1  0  0  0  0
 17 18  1  0  0  0  0
 17 38  1  0  0  0  0
 18 39  1  0  0  0  0
 18 40  1  0  0  0  0
 18 41  1  0  0  0  0
M  END
> <s_m_source_file>
AV-unprocessed.smi

> <i_m_source_file_index>
2911

> <i_lp_mmshare_version>
43012

> <i_f3d_flags>
0

> <s_epik_input>
W0NIM11jMW5vYyhuMSlbQ0gyXVtDSDJdW05IXUMoPU8pTjJbQ0gyXVtDSDJdW0NAQEhdKFtDSDNdKVtDSDJdW0NASF0yW0NIM10=

> <s_epik_cmdline>
J2VwaWtfcHl0aG9uJywgJy1waCcsICc3LjAnLCAnLXRuJywgJzgnLCAnLW1hJywgJzIwMCcsICctbWV0YWxfYmluZGluZycsICctaW1hZScsICc8aW5maWxlLm1hZT4nLCAnLW9tYWUnLCAnPG91dGZpbGUubWFlPic=

> <r_lp_tautomer_probability>
1

> <r_epik_Ionization_Penalty>
6.61671e-05

> <r_epik_Ionization_Penalty_Charging>
0

> <r_epik_Ionization_Penalty_Neutral>
6.61671e-05

> <r_epik_State_Penalty>
-0

> <r_epik_Charging_Adjusted_Penalty>
0

> <i_epik_Tot_Q>
0

> <i_epik_Tot_abs_Q>
0

> <r_epik_Metal_State_Penalty>
-0

> <b_epik_Metal_Only>
0

> <s_lp_Force_Field>
OPLS_2005

> <r_lp_Energy>
30.51

> <b_lp_Chiralities_Consistent>
1

> <s_lp_Variant>
AV-unprocessed.smi:2911-3

> <Gold.Version>
5.8.1

> <Gold.Id.Protein>
6NUR|6NUR_protein|mol2

> <Gold.PLP.Fitness>
43.3527

> <Gold.PLP.PLP>
-36.1982

> <Gold.PLP.part.hbond>
-3.0000

> <Gold.PLP.part.metal>
0.0000

> <Gold.PLP.part.buried>
-4.7309

> <Gold.PLP.part.nonpolar>
-28.4705

> <Gold.PLP.part.repulsive>
0.1344

> <Gold.PLP.ligand.clash>
0.0000

> <Gold.PLP.ligand.torsion>
0.6237

> <Gold.PLP.Chemscore.Hbond>
2.7920

> <Gold.PLP.Chemscore.CHOScore>
0.0000

> <Gold.PLP.Chemscore.Metal>
0.0000

> <Gold.Chemscore.Hbonds>
donor molecule, donor type, donor heavy atom, donor atom, acceptor molecule, acceptor atom, score
      P1  H  6896  6909       L1    10  0.86
      P1  H  6931  6943       L1     4  0.98
      P1  H  6934  6947       L1     4  0.82

> <Gold.PLP.Chemscore.Internal.Correction>
0.0258

> <Gold.Rescore>
     Score         DG    S(hbond)    S(metal)    S(lipo)     H(rot)  DE(clash)    DE(int)     intcor
     17.58     -18.30       2.60        0.00      70.42       1.61       0.00       0.71       ----

> <Gold.Chemscore.Fitness>
17.5837

> <Gold.Chemscore.DG>
-18.2987

> <Gold.Chemscore.ZeroCoef>
-5.4800

> <Gold.Chemscore.Hbond>
2.6043

> <Gold.Chemscore.Metal>
0.0000

> <Gold.Chemscore.Lipo>
70.4192

> <Gold.Chemscore.Internal_Hbond>
0.0000

> <Gold.Chemscore.DEClash>
0.0009

> <Gold.Chemscore.DEInternal>
0.7141

> <Gold.Chemscore.Rot>
1.6088

> <Gold.Chemscore.Internal.Correction>
   9.000000E+99

> <Gold.Chemscore.Hbonds>
donor molecule, donor type, donor heavy atom, donor atom, acceptor molecule, acceptor atom, score
      P1  H  6896  6909       L1    10  0.84
      P1  H  6931  6943       L1     4  0.39
      P1  H  6934  6947       L1     4  0.80

> <Gold.Chemscore.Hbond.Weighted>
-8.6983

> <Gold.Chemscore.Metal.Weighted>
-0.0000

> <Gold.Chemscore.Lipo.Weighted>
-8.2390

> <Gold.Chemscore.Internal_Hbond.Weighted>
0.0000

> <Gold.Chemscore.DEClash.Weighted>
0.0009

> <Gold.Chemscore.DEInternal.Weighted>
0.7141

> <Gold.Chemscore.Rot.Weighted>
4.1186

> <Gold.Chemscore.Internal.Correction.Weighted>
   9.000000E+99

> <Gold.Protein.RotatedTorsions>
[ 6907 6896 6895 6894 ] final  130.33 input  -60.11 | X-H torsion
[ 7974 7965 7964 7962 ] final -176.08 input  175.53 | X-H torsion
[ 8008 7997 7996 7995 ] final   -8.87 input   59.86 | X-H torsion
[ 10167 10162 10161 10158 ] final   51.77 input  -65.29 | X-H torsion
[ 10718 10713 10712 10709 ] final  161.14 input   66.30 | X-H torsion
[ 10763 10752 10751 10750 ] final  155.84 input  -60.55 | X-H torsion
[ 11005 11000 10999 10996 ] final  149.56 input  -57.11 | X-H torsion

> <Gold.Protein.ActiveResidues>
 VAL166  LYS551  ARG553  GLY616  TRP617  ASP618  TYR619  PRO620  LYS621  CYS622 
 ASP623  PHE694  ASN695  SER759  ASP760  ASP761  ALA762  ILE779  LEU786  VAL792 
 PHE793  MET794  SER795  GLU796  ALA797  LYS798  CYS799  TRP800  GLU811  SER814 

> <Gold.Protein.RotatedAtoms>
  152.3537  133.6210  159.5963 H   0  0  0  0  0  0  0  0  0  0  0  0  # atno 6907 bound_to 6896
  150.7554  133.9534  159.3502 H   0  0  0  0  0  0  0  0  0  0  0  0  # atno 6908 bound_to 6896
  151.7382  135.0861  160.0362 H   0  0  0  0  0  0  0  0  0  0  0  0  # atno 6909 bound_to 6896
  144.7127  140.1224  143.6404 H   0  0  0  0  0  0  0  0  0  0  0  0  # atno 7974 bound_to 7965
  154.5700  140.2370  155.8206 H   0  0  0  0  0  0  0  0  0  0  0  0  # atno 8008 bound_to 7997
  156.2099  140.3029  155.9667 H   0  0  0  0  0  0  0  0  0  0  0  0  # atno 8009 bound_to 7997
  155.2730  140.0419  157.2999 H   0  0  0  0  0  0  0  0  0  0  0  0  # atno 8010 bound_to 7997
  140.2584  144.3400  150.6325 H   0  0  0  0  0  0  0  0  0  0  0  0  # atno 10167 bound_to 10162
  157.1406  131.0539  151.2328 H   0  0  0  0  0  0  0  0  0  0  0  0  # atno 10718 bound_to 10713
  154.1748  135.2802  155.3070 H   0  0  0  0  0  0  0  0  0  0  0  0  # atno 10763 bound_to 10752
  154.6048  135.5518  153.7414 H   0  0  0  0  0  0  0  0  0  0  0  0  # atno 10764 bound_to 10752
  153.0154  135.6400  154.1888 H   0  0  0  0  0  0  0  0  0  0  0  0  # atno 10765 bound_to 10752
  140.1056  134.8956  157.1860 H   0  0  0  0  0  0  0  0  0  0  0  0  # atno 11005 bound_to 11000
  145.9359  139.2637  143.1297 LP  0  0  0  0  0  0  0  0  0  0  0  0  # atno 17320 bound_to 7965
  145.9474  140.8934  143.0276 LP  0  0  0  0  0  0  0  0  0  0  0  0  # atno 17321 bound_to 7965
  140.5985  143.2167  151.7118 LP  0  0  0  0  0  0  0  0  0  0  0  0  # atno 17342 bound_to 10162
  139.5024  144.3830  152.0357 LP  0  0  0  0  0  0  0  0  0  0  0  0  # atno 17343 bound_to 10162
  157.4310  130.7490  149.6990 LP  0  0  0  0  0  0  0  0  0  0  0  0  # atno 17370 bound_to 10713
  155.9789  130.4046  150.3618 LP  0  0  0  0  0  0  0  0  0  0  0  0  # atno 17371 bound_to 10713
  140.3161  134.2969  155.7256 LP  0  0  0  0  0  0  0  0  0  0  0  0  # atno 17394 bound_to 11000
  141.2117  133.7680  156.9845 LP  0  0  0  0  0  0  0  0  0  0  0  0  # atno 17395 bound_to 11000

$$$$
