AV-unprocessed.smi:1791|AV-procd|sdf|7219|dock8
  -GOLD-   22720 8463D 1   1.00000     0.00000
 Structure written by MMmdl.
 38 39  0  0  0  0  0  0  0  0  1 V2000
  147.5617  129.6923  153.3084 C   0  0  0  0  0  0  0  0  0  0  0  0
  148.6658  130.0826  154.1179 O   0  0  0  0  0  0  0  0  0  0  0  0
  148.9463  131.4285  154.2377 C   0  0  0  0  0  0  0  0  0  0  0  0
  149.9786  131.8284  155.1095 C   0  0  0  0  0  0  0  0  0  0  0  0
  150.2731  133.1998  155.2349 C   0  0  0  0  0  0  0  0  0  0  0  0
  149.5262  134.1319  154.4749 C   0  0  0  0  0  0  0  0  0  0  0  0
  149.7110  135.5407  154.5171 N   0  0  0  0  0  0  0  0  0  0  0  0
  150.6720  136.2480  155.1361 C   0  0  0  0  0  0  0  0  0  0  0  0
  151.5880  135.7715  155.8054 O   0  0  0  0  0  0  0  0  0  0  0  0
  150.5164  137.5616  154.9158 N   0  0  0  0  0  0  0  0  0  0  0  0
  151.3770  138.6253  155.4296 C   0  0  1  0  0  0  0  0  0  0  0  0
  152.6028  138.7541  154.5119 C   0  0  0  0  0  0  0  0  0  0  0  0
  150.5724  139.9366  155.5211 C   0  0  2  0  0  0  0  0  0  0  0  0
  149.3828  139.8919  156.4824 C   0  0  0  0  0  0  0  0  0  0  0  0
  148.4236  140.9328  155.9247 C   0  0  0  0  0  0  0  0  0  0  0  0
  148.9742  141.2398  154.5302 C   0  0  0  0  0  0  0  0  0  0  0  0
  149.9376  140.2260  154.2847 O   0  0  0  0  0  0  0  0  0  0  0  0
  148.5052  133.6293  153.6423 C   0  0  0  0  0  0  0  0  0  0  0  0
  148.2184  132.3166  153.5169 N   0  0  0  0  0  0  0  0  0  0  0  0
  147.4740  128.6061  153.3162 H   0  0  0  0  0  0  0  0  0  0  0  0
  147.6972  130.0052  152.2721 H   0  0  0  0  0  0  0  0  0  0  0  0
  146.6242  130.1020  153.6867 H   0  0  0  0  0  0  0  0  0  0  0  0
  150.5342  131.0952  155.6755 H   0  0  0  0  0  0  0  0  0  0  0  0
  151.0526  133.5025  155.9160 H   0  0  0  0  0  0  0  0  0  0  0  0
  149.0645  136.0750  153.9554 H   0  0  0  0  0  0  0  0  0  0  0  0
  149.7321  137.8537  154.3516 H   0  0  0  0  0  0  0  0  0  0  0  0
  151.7361  138.3715  156.4284 H   0  0  0  0  0  0  0  0  0  0  0  0
  153.3004  139.5049  154.8834 H   0  0  0  0  0  0  0  0  0  0  0  0
  152.3143  139.0397  153.4998 H   0  0  0  0  0  0  0  0  0  0  0  0
  153.1456  137.8104  154.4497 H   0  0  0  0  0  0  0  0  0  0  0  0
  151.2281  140.7701  155.7821 H   0  0  0  0  0  0  0  0  0  0  0  0
  148.9093  138.9097  156.4523 H   0  0  0  0  0  0  0  0  0  0  0  0
  149.6705  140.0939  157.5147 H   0  0  0  0  0  0  0  0  0  0  0  0
  147.4089  140.5360  155.8773 H   0  0  0  0  0  0  0  0  0  0  0  0
  148.4035  141.8333  156.5391 H   0  0  0  0  0  0  0  0  0  0  0  0
  148.1993  141.2412  153.7633 H   0  0  0  0  0  0  0  0  0  0  0  0
  149.4671  142.2129  154.5184 H   0  0  0  0  0  0  0  0  0  0  0  0
  147.8998  134.3012  153.0515 H   0  0  0  0  0  0  0  0  0  0  0  0
  1  2  1  0  0  0  0
  1 20  1  0  0  0  0
  1 21  1  0  0  0  0
  1 22  1  0  0  0  0
  2  3  1  0  0  0  0
  3 19  1  0  0  0  0
  3  4  2  0  0  0  0
  4  5  1  0  0  0  0
  4 23  1  0  0  0  0
  5  6  2  0  0  0  0
  5 24  1  0  0  0  0
  6  7  1  0  0  0  0
  6 18  1  0  0  0  0
  7  8  1  0  0  0  0
  7 25  1  0  0  0  0
  8  9  2  0  0  0  0
  8 10  1  0  0  0  0
 10 11  1  0  0  0  0
 10 26  1  0  0  0  0
 11 12  1  0  0  0  0
 11 13  1  0  0  0  0
 11 27  1  0  0  0  0
 12 28  1  0  0  0  0
 12 29  1  0  0  0  0
 12 30  1  0  0  0  0
 13 17  1  0  0  0  0
 13 14  1  0  0  0  0
 13 31  1  0  0  0  0
 14 15  1  0  0  0  0
 14 32  1  0  0  0  0
 14 33  1  0  0  0  0
 15 16  1  0  0  0  0
 15 34  1  0  0  0  0
 15 35  1  0  0  0  0
 16 17  1  0  0  0  0
 16 36  1  0  0  0  0
 16 37  1  0  0  0  0
 18 19  2  0  0  0  0
 18 38  1  0  0  0  0
M  END
> <s_m_source_file>
AV-unprocessed.smi

> <i_m_source_file_index>
1791

> <i_lp_mmshare_version>
43012

> <i_f3d_flags>
0

> <s_epik_input>
W0NIM11PYzFbY0hdW2NIXWMoW2NIXW4xKVtOSF1DKD1PKVtOSF1bQ0BIXShbQ0gzXSlbQ0BASF0yW0NIMl1bQ0gyXVtDSDJdTzI=

> <s_epik_cmdline>
J2VwaWtfcHl0aG9uJywgJy1waCcsICc3LjAnLCAnLXRuJywgJzgnLCAnLW1hJywgJzIwMCcsICctbWV0YWxfYmluZGluZycsICctaW1hZScsICc8aW5maWxlLm1hZT4nLCAnLW9tYWUnLCAnPG91dGZpbGUubWFlPic=

> <r_lp_tautomer_probability>
1

> <r_epik_Ionization_Penalty>
9.18737e-05

> <r_epik_Ionization_Penalty_Charging>
0

> <r_epik_Ionization_Penalty_Neutral>
9.18737e-05

> <r_epik_State_Penalty>
-0

> <r_epik_Charging_Adjusted_Penalty>
0

> <i_epik_Tot_Q>
0

> <i_epik_Tot_abs_Q>
0

> <r_epik_Metal_State_Penalty>
-0

> <b_epik_Metal_Only>
0

> <s_lp_Force_Field>
OPLS_2005

> <r_lp_Energy>
20.9022

> <b_lp_Chiralities_Consistent>
1

> <s_lp_Variant>
AV-unprocessed.smi:1791-2

> <Gold.Version>
5.8.1

> <Gold.Id.Protein>
6NUR|6NUR_protein|mol2

> <Gold.PLP.Fitness>
41.8721

> <Gold.PLP.PLP>
-31.5888

> <Gold.PLP.part.hbond>
-3.1300

> <Gold.PLP.part.metal>
0.0000

> <Gold.PLP.part.buried>
-3.4367

> <Gold.PLP.part.nonpolar>
-25.3367

> <Gold.PLP.part.repulsive>
0.4731

> <Gold.PLP.ligand.clash>
0.0000

> <Gold.PLP.ligand.torsion>
0.4028

> <Gold.PLP.Chemscore.Hbond>
2.7280

> <Gold.PLP.Chemscore.CHOScore>
0.9548

> <Gold.PLP.Chemscore.Metal>
0.0000

> <Gold.Chemscore.Hbonds>
donor molecule, donor type, donor heavy atom, donor atom, acceptor molecule, acceptor atom, score
      L1  H     7    25       P1  7948  0.48
      P1  H  7989  7998       L1    17  0.59
      P1  H 10752 10765       L1     9  1.00
      L1  C    18    38       P1  7948  0.79

> <Gold.PLP.Chemscore.Internal.Correction>
0.0404

> <Gold.Rescore>
     Score         DG    S(hbond)    S(metal)    S(lipo)     H(rot)  DE(clash)    DE(int)     intcor
     15.05     -16.89       2.24        0.00      65.75       1.47       0.08       1.76       ----

> <Gold.Chemscore.Fitness>
15.0525

> <Gold.Chemscore.DG>
-16.8929

> <Gold.Chemscore.ZeroCoef>
-5.4800

> <Gold.Chemscore.Hbond>
2.2400

> <Gold.Chemscore.Metal>
0.0000

> <Gold.Chemscore.Lipo>
65.7501

> <Gold.Chemscore.Internal_Hbond>
0.0000

> <Gold.Chemscore.DEClash>
0.0834

> <Gold.Chemscore.DEInternal>
1.7571

> <Gold.Chemscore.Rot>
1.4693

> <Gold.Chemscore.Internal.Correction>
   9.000000E+99

> <Gold.Chemscore.Hbonds>
donor molecule, donor type, donor heavy atom, donor atom, acceptor molecule, acceptor atom, score
      L1  H     7    25       P1  7948  0.45
      P1  H  7989  7998       L1    17  0.04
      P1  H 10752 10765       L1     9  0.93

> <Gold.Chemscore.Hbond.Weighted>
-7.4815

> <Gold.Chemscore.Metal.Weighted>
-0.0000

> <Gold.Chemscore.Lipo.Weighted>
-7.6928

> <Gold.Chemscore.Internal_Hbond.Weighted>
0.0000

> <Gold.Chemscore.DEClash.Weighted>
0.0834

> <Gold.Chemscore.DEInternal.Weighted>
1.7571

> <Gold.Chemscore.Rot.Weighted>
3.7613

> <Gold.Chemscore.Internal.Correction.Weighted>
   9.000000E+99

> <Gold.Protein.RotatedTorsions>
[ 6907 6896 6895 6894 ] final -168.67 input  -60.11 | X-H torsion
[ 7974 7965 7964 7962 ] final   42.71 input  175.53 | X-H torsion
[ 8008 7997 7996 7995 ] final  112.83 input   59.86 | X-H torsion
[ 10167 10162 10161 10158 ] final -104.48 input  -65.29 | X-H torsion
[ 10718 10713 10712 10709 ] final  -19.22 input   66.30 | X-H torsion
[ 10763 10752 10751 10750 ] final -156.81 input  -60.55 | X-H torsion
[ 11005 11000 10999 10996 ] final  166.61 input  -57.11 | X-H torsion

> <Gold.Protein.ActiveResidues>
 VAL166  LYS551  ARG553  GLY616  TRP617  ASP618  TYR619  PRO620  LYS621  CYS622 
 ASP623  PHE694  ASN695  SER759  ASP760  ASP761  ALA762  ILE779  LEU786  VAL792 
 PHE793  MET794  SER795  GLU796  ALA797  LYS798  CYS799  TRP800  GLU811  SER814 

> <Gold.Protein.RotatedAtoms>
  151.4793  133.3550  159.2835 H   0  0  0  0  0  0  0  0  0  0  0  0  # atno 6907 bound_to 6896
  150.8908  134.8313  159.7303 H   0  0  0  0  0  0  0  0  0  0  0  0  # atno 6908 bound_to 6896
  152.4822  134.4702  159.9685 H   0  0  0  0  0  0  0  0  0  0  0  0  # atno 6909 bound_to 6896
  146.0717  139.5269  142.9593 H   0  0  0  0  0  0  0  0  0  0  0  0  # atno 7974 bound_to 7965
  156.2218  140.2991  155.9972 H   0  0  0  0  0  0  0  0  0  0  0  0  # atno 8008 bound_to 7997
  155.2460  140.0424  157.2998 H   0  0  0  0  0  0  0  0  0  0  0  0  # atno 8009 bound_to 7997
  154.5853  140.2386  155.8004 H   0  0  0  0  0  0  0  0  0  0  0  0  # atno 8010 bound_to 7997
  140.2089  143.3762  152.1067 H   0  0  0  0  0  0  0  0  0  0  0  0  # atno 10167 bound_to 10162
  156.5487  130.4696  149.6463 H   0  0  0  0  0  0  0  0  0  0  0  0  # atno 10718 bound_to 10713
  154.7684  135.3138  154.8239 H   0  0  0  0  0  0  0  0  0  0  0  0  # atno 10763 bound_to 10752
  153.8981  135.6818  153.4761 H   0  0  0  0  0  0  0  0  0  0  0  0  # atno 10764 bound_to 10752
  153.1294  135.4787  154.9258 H   0  0  0  0  0  0  0  0  0  0  0  0  # atno 10765 bound_to 10752
  140.2682  134.7848  157.3651 H   0  0  0  0  0  0  0  0  0  0  0  0  # atno 11005 bound_to 11000
  145.6379  141.0290  143.1828 LP  0  0  0  0  0  0  0  0  0  0  0  0  # atno 17320 bound_to 7965
  144.7236  139.7949  143.7373 LP  0  0  0  0  0  0  0  0  0  0  0  0  # atno 17321 bound_to 7965
  139.5188  144.7010  151.5492 LP  0  0  0  0  0  0  0  0  0  0  0  0  # atno 17342 bound_to 10162
  140.6338  143.9025  150.6629 LP  0  0  0  0  0  0  0  0  0  0  0  0  # atno 17343 bound_to 10162
  156.2905  130.7121  151.1969 LP  0  0  0  0  0  0  0  0  0  0  0  0  # atno 17370 bound_to 10713
  157.7392  131.0532  150.5249 LP  0  0  0  0  0  0  0  0  0  0  0  0  # atno 17371 bound_to 10713
  140.1399  134.4986  155.8040 LP  0  0  0  0  0  0  0  0  0  0  0  0  # atno 17394 bound_to 11000
  141.2181  133.6821  156.7191 LP  0  0  0  0  0  0  0  0  0  0  0  0  # atno 17395 bound_to 11000

$$$$
