AV-unprocessed.smi:2877|AV-procd|sdf|11044|dock5
  -GOLD-   2272015513D 1   1.00000     0.00000
 Structure written by MMmdl.
 40 41  0  0  0  0  0  0  0  0  2 V2000
  150.0258  143.6271  158.4605 O   0  0  0  0  0  0  0  0  0  0  0  0
  151.0234  142.8968  158.4563 C   0  0  0  0  0  0  0  0  0  0  0  0
  151.0293  141.5434  157.6918 C   0  0  0  0  0  0  0  0  0  0  0  0
  151.8050  141.4606  156.3517 C   0  0  0  0  0  0  0  0  0  0  0  0
  151.1867  140.4649  155.4787 N   0  5  0  0  0  0  0  0  0  0  0  0
  150.8812  139.1913  155.8630 C   0  0  0  0  0  0  0  0  0  0  0  0
  150.6706  138.7343  156.9928 O   0  0  0  0  0  0  0  0  0  0  0  0
  150.7987  138.2335  154.6553 C   0  0  0  0  0  0  0  0  0  0  0  0
  149.8536  138.6665  153.8161 F   0  0  0  0  0  0  0  0  0  0  0  0
  151.9594  138.2607  153.9929 F   0  0  0  0  0  0  0  0  0  0  0  0
  150.4636  136.8094  155.0999 C   0  0  0  0  0  0  0  0  0  0  0  0
  149.2443  136.5175  155.7541 C   0  0  0  0  0  0  0  0  0  0  0  0
  148.9809  135.1876  156.1332 C   0  0  0  0  0  0  0  0  0  0  0  0
  149.9416  134.1985  155.8508 C   0  0  0  0  0  0  0  0  0  0  0  0
  151.1266  134.5856  155.1951 C   0  0  0  0  0  0  0  0  0  0  0  0
  151.3891  135.8575  154.8269 N   0  0  0  0  0  0  0  0  0  0  0  0
  152.1506  143.2544  159.1239 N   0  0  0  0  0  0  0  0  0  0  0  0
  152.2273  144.4556  159.9676 C   0  0  0  0  0  0  0  0  0  0  0  0
  152.2929  144.0205  161.4434 C   0  0  0  0  0  0  0  0  0  0  0  0
  153.4788  143.0673  161.6857 C   0  0  0  0  0  0  0  0  0  0  0  0
  153.5010  141.9147  160.6636 C   0  0  0  0  0  0  0  0  0  0  0  0
  153.3804  142.4544  159.2269 C   0  0  0  0  0  0  0  0  0  0  0  0
  151.4297  140.7873  158.3686 H   0  0  0  0  0  0  0  0  0  0  0  0
  149.9922  141.2713  157.4907 H   0  0  0  0  0  0  0  0  0  0  0  0
  151.8000  142.4433  155.8792 H   0  0  0  0  0  0  0  0  0  0  0  0
  152.8551  141.2440  156.5543 H   0  0  0  0  0  0  0  0  0  0  0  0
  148.5189  137.2928  155.9513 H   0  0  0  0  0  0  0  0  0  0  0  0
  148.0574  134.9308  156.6305 H   0  0  0  0  0  0  0  0  0  0  0  0
  149.7735  133.1684  156.1275 H   0  0  0  0  0  0  0  0  0  0  0  0
  151.8849  133.8534  154.9607 H   0  0  0  0  0  0  0  0  0  0  0  0
  153.1186  145.0270  159.7046 H   0  0  0  0  0  0  0  0  0  0  0  0
  151.3882  145.1367  159.8203 H   0  0  0  0  0  0  0  0  0  0  0  0
  152.3776  144.8942  162.0902 H   0  0  0  0  0  0  0  0  0  0  0  0
  151.3619  143.5217  161.7163 H   0  0  0  0  0  0  0  0  0  0  0  0
  154.4092  143.6310  161.6061 H   0  0  0  0  0  0  0  0  0  0  0  0
  153.4443  142.6712  162.7010 H   0  0  0  0  0  0  0  0  0  0  0  0
  154.4194  141.3375  160.7728 H   0  0  0  0  0  0  0  0  0  0  0  0
  152.6768  141.2289  160.8653 H   0  0  0  0  0  0  0  0  0  0  0  0
  153.4372  141.6334  158.5145 H   0  0  0  0  0  0  0  0  0  0  0  0
  154.2381  143.0883  158.9969 H   0  0  0  0  0  0  0  0  0  0  0  0
  1  2  2  0  0  0  0
  2  3  1  0  0  0  0
  2 17  1  0  0  0  0
  3  4  1  0  0  0  0
  3 23  1  0  0  0  0
  3 24  1  0  0  0  0
  4  5  1  0  0  0  0
  4 25  1  0  0  0  0
  4 26  1  0  0  0  0
  5  6  1  0  0  0  0
  6  7  2  0  0  0  0
  6  8  1  0  0  0  0
  8  9  1  0  0  0  0
  8 10  1  0  0  0  0
  8 11  1  0  0  0  0
 11 16  1  0  0  0  0
 11 12  2  0  0  0  0
 12 13  1  0  0  0  0
 12 27  1  0  0  0  0
 13 14  2  0  0  0  0
 13 28  1  0  0  0  0
 14 15  1  0  0  0  0
 14 29  1  0  0  0  0
 15 16  2  0  0  0  0
 15 30  1  0  0  0  0
 17 22  1  0  0  0  0
 17 18  1  0  0  0  0
 18 19  1  0  0  0  0
 18 31  1  0  0  0  0
 18 32  1  0  0  0  0
 19 20  1  0  0  0  0
 19 33  1  0  0  0  0
 19 34  1  0  0  0  0
 20 21  1  0  0  0  0
 20 35  1  0  0  0  0
 20 36  1  0  0  0  0
 21 22  1  0  0  0  0
 21 37  1  0  0  0  0
 21 38  1  0  0  0  0
 22 39  1  0  0  0  0
 22 40  1  0  0  0  0
M  CHG  1   5  -1
M  END
> <s_m_source_file>
AV-unprocessed.smi

> <i_m_source_file_index>
2877

> <i_lp_mmshare_version>
43012

> <i_f3d_flags>
0

> <s_epik_input>
W0NIMl0xW0NIMl1bQ0gyXVtDSDJdW0NIMl1OMUMoPU8pW0NIMl1bQ0gyXVtOSF1DKD1PKUMoRikoRiljMltjSF1bY0hdW2NIXVtjSF1uMg==

> <s_epik_cmdline>
J2VwaWtfcHl0aG9uJywgJy1waCcsICc3LjAnLCAnLXRuJywgJzgnLCAnLW1hJywgJzIwMCcsICctbWV0YWxfYmluZGluZycsICctaW1hZScsICc8aW5maWxlLm1hZT4nLCAnLW9tYWUnLCAnPG91dGZpbGUubWFlPic=

> <r_lp_tautomer_probability>
1

> <r_epik_Ionization_Penalty>
5.30743

> <r_epik_Ionization_Penalty_Charging>
5.30743

> <r_epik_Ionization_Penalty_Neutral>
2.29237e-06

> <r_epik_State_Penalty>
5.30735

> <r_epik_Charging_Adjusted_Penalty>
10.6148

> <i_epik_Tot_Q>
-1

> <i_epik_Tot_abs_Q>
1

> <r_epik_Metal_State_Penalty>
1.35027

> <b_epik_Metal_Only>
1

> <s_lp_Force_Field>
OPLS_2005

> <r_lp_Energy>
42.7236

> <b_lp_Chiralities_Consistent>
1

> <s_lp_Variant>
AV-unprocessed.smi:2877-2

> <Gold.Version>
5.8.1

> <Gold.Id.Protein>
6NUR|6NUR_protein|mol2

> <Gold.PLP.Fitness>
44.4238

> <Gold.PLP.PLP>
-40.3392

> <Gold.PLP.part.hbond>
-2.0000

> <Gold.PLP.part.metal>
0.0000

> <Gold.PLP.part.buried>
-4.8509

> <Gold.PLP.part.nonpolar>
-33.5536

> <Gold.PLP.part.repulsive>
0.6534

> <Gold.PLP.ligand.clash>
0.0000

> <Gold.PLP.ligand.torsion>
0.5638

> <Gold.PLP.Chemscore.Hbond>
1.7088

> <Gold.PLP.Chemscore.CHOScore>
0.0000

> <Gold.PLP.Chemscore.Metal>
0.0000

> <Gold.Chemscore.Hbonds>
donor molecule, donor type, donor heavy atom, donor atom, acceptor molecule, acceptor atom, score
      P1  H  7989  7998       L1     5  0.86
      P1  H 10752 10764       L1    16  0.80

> <Gold.PLP.Chemscore.Internal.Correction>
0.0859

> <Gold.Rescore>
     Score         DG    S(hbond)    S(metal)    S(lipo)     H(rot)  DE(clash)    DE(int)     intcor
     12.76     -16.02       1.18        0.00      97.69       1.89       1.28       1.99       ----

> <Gold.Chemscore.Fitness>
12.7568

> <Gold.Chemscore.DG>
-16.0236

> <Gold.Chemscore.ZeroCoef>
-5.4800

> <Gold.Chemscore.Hbond>
1.1809

> <Gold.Chemscore.Metal>
0.0000

> <Gold.Chemscore.Lipo>
97.6946

> <Gold.Chemscore.Internal_Hbond>
0.0000

> <Gold.Chemscore.DEClash>
1.2782

> <Gold.Chemscore.DEInternal>
1.9886

> <Gold.Chemscore.Rot>
1.8871

> <Gold.Chemscore.Internal.Correction>
   9.000000E+99

> <Gold.Chemscore.Hbonds>
donor molecule, donor type, donor heavy atom, donor atom, acceptor molecule, acceptor atom, score
      P1  H  7989  7998       L1     5  0.58
      P1  H 10752 10764       L1    16  0.12

> <Gold.Chemscore.Hbond.Weighted>
-3.9443

> <Gold.Chemscore.Metal.Weighted>
-0.0000

> <Gold.Chemscore.Lipo.Weighted>
-11.4303

> <Gold.Chemscore.Internal_Hbond.Weighted>
0.0000

> <Gold.Chemscore.DEClash.Weighted>
1.2782

> <Gold.Chemscore.DEInternal.Weighted>
1.9886

> <Gold.Chemscore.Rot.Weighted>
4.8309

> <Gold.Chemscore.Internal.Correction.Weighted>
   9.000000E+99

> <Gold.Protein.RotatedTorsions>
[ 6907 6896 6895 6894 ] final  -97.12 input  -60.11 | X-H torsion
[ 7974 7965 7964 7962 ] final   17.78 input  175.53 | X-H torsion
[ 8008 7997 7996 7995 ] final   64.55 input   59.86 | X-H torsion
[ 10167 10162 10161 10158 ] final  -28.59 input  -65.29 | X-H torsion
[ 10718 10713 10712 10709 ] final  136.96 input   66.30 | X-H torsion
[ 10763 10752 10751 10750 ] final  -71.87 input  -60.55 | X-H torsion
[ 11005 11000 10999 10996 ] final  161.58 input  -57.11 | X-H torsion

> <Gold.Protein.ActiveResidues>
 VAL166  LYS551  ARG553  GLY616  TRP617  ASP618  TYR619  PRO620  LYS621  CYS622 
 ASP623  PHE694  ASN695  SER759  ASP760  ASP761  ALA762  ILE779  LEU786  VAL792 
 PHE793  MET794  SER795  GLU796  ALA797  LYS798  CYS799  TRP800  GLU811  SER814 

> <Gold.Protein.RotatedAtoms>
  150.7007  134.1397  159.4100 H   0  0  0  0  0  0  0  0  0  0  0  0  # atno 6907 bound_to 6896
  151.9382  135.0223  160.0543 H   0  0  0  0  0  0  0  0  0  0  0  0  # atno 6908 bound_to 6896
  152.2117  133.4881  159.5150 H   0  0  0  0  0  0  0  0  0  0  0  0  # atno 6909 bound_to 6896
  146.2207  139.8553  142.8615 H   0  0  0  0  0  0  0  0  0  0  0  0  # atno 7974 bound_to 7965
  155.6477  140.3497  155.4737 H   0  0  0  0  0  0  0  0  0  0  0  0  # atno 8008 bound_to 7997
  155.9873  140.1186  157.0694 H   0  0  0  0  0  0  0  0  0  0  0  0  # atno 8009 bound_to 7997
  154.4209  140.1126  156.5504 H   0  0  0  0  0  0  0  0  0  0  0  0  # atno 8010 bound_to 7997
  140.7268  143.3998  151.1285 H   0  0  0  0  0  0  0  0  0  0  0  0  # atno 10167 bound_to 10162
  157.4411  131.1058  151.0142 H   0  0  0  0  0  0  0  0  0  0  0  0  # atno 10718 bound_to 10713
  154.4377  135.5948  153.6109 H   0  0  0  0  0  0  0  0  0  0  0  0  # atno 10763 bound_to 10752
  152.9803  135.5990  154.3760 H   0  0  0  0  0  0  0  0  0  0  0  0  # atno 10764 bound_to 10752
  154.3607  135.2841  155.2300 H   0  0  0  0  0  0  0  0  0  0  0  0  # atno 10765 bound_to 10752
  140.2172  134.8223  157.3182 H   0  0  0  0  0  0  0  0  0  0  0  0  # atno 11005 bound_to 11000
  145.2760  141.0123  143.3745 LP  0  0  0  0  0  0  0  0  0  0  0  0  # atno 17320 bound_to 7965
  144.9187  139.4438  143.6552 LP  0  0  0  0  0  0  0  0  0  0  0  0  # atno 17321 bound_to 7965
  139.7616  143.8627  152.3101 LP  0  0  0  0  0  0  0  0  0  0  0  0  # atno 17342 bound_to 10162
  139.8515  144.7162  150.9208 LP  0  0  0  0  0  0  0  0  0  0  0  0  # atno 17343 bound_to 10162
  157.1004  130.5979  149.5459 LP  0  0  0  0  0  0  0  0  0  0  0  0  # atno 17370 bound_to 10713
  155.9949  130.5014  150.7439 LP  0  0  0  0  0  0  0  0  0  0  0  0  # atno 17371 bound_to 10713
  140.1888  134.4397  155.7728 LP  0  0  0  0  0  0  0  0  0  0  0  0  # atno 17394 bound_to 11000
  141.2224  133.7017  156.7992 LP  0  0  0  0  0  0  0  0  0  0  0  0  # atno 17395 bound_to 11000

$$$$
