AV-unprocessed.smi:3046|AV-procd|sdf|11615|dock3
  -GOLD-   2272016593D 1   1.00000     0.00000
 Structure written by MMmdl.
 38 38  0  0  0  0  0  0  0  0  2 V2000
  151.6499  139.4630  154.9273 C   0  0  0  0  0  0  0  0  0  0  0  0
  150.8993  138.3747  154.7009 C   0  0  0  0  0  0  0  0  0  0  0  0
  151.4525  137.0132  154.3282 C   0  0  0  0  0  0  0  0  0  0  0  0
  150.3890  136.0254  154.1916 N   0  0  0  0  0  0  0  0  0  0  0  0
  150.2529  134.9273  154.9514 C   0  0  0  0  0  0  0  0  0  0  0  0
  151.0181  134.6452  155.8743 O   0  0  0  0  0  0  0  0  0  0  0  0
  149.0695  134.0092  154.6182 C   0  0  2  0  0  0  0  0  0  0  0  0
  149.5847  132.6723  154.0635 C   0  0  0  0  0  0  0  0  0  0  0  0
  148.1563  134.6332  153.6319 N   0  3  0  0  0  0  0  0  0  0  0  0
  147.2780  133.7173  152.8624 C   0  0  1  0  0  0  0  0  0  0  0  0
  146.5368  132.7358  153.7862 C   0  0  0  0  0  0  0  0  0  0  0  0
  146.2770  134.5330  152.0204 C   0  0  0  0  0  0  0  0  0  0  0  0
  145.5643  133.7092  151.0595 N   0  0  0  0  0  0  0  0  0  0  0  0
  145.9008  132.4576  150.5878 C   0  0  0  0  0  0  0  0  0  0  0  0
  144.9370  132.0879  149.6941 C   0  0  0  0  0  0  0  0  0  0  0  0
  144.0398  133.1923  149.6870 C   0  0  0  0  0  0  0  0  0  0  0  0
  144.4195  134.1623  150.5033 N   0  0  0  0  0  0  0  0  0  0  0  0
  152.7275  139.4275  154.8575 H   0  0  0  0  0  0  0  0  0  0  0  0
  151.1935  140.4072  155.1860 H   0  0  0  0  0  0  0  0  0  0  0  0
  149.8242  138.4534  154.7762 H   0  0  0  0  0  0  0  0  0  0  0  0
  152.0172  137.0968  153.3984 H   0  0  0  0  0  0  0  0  0  0  0  0
  152.1514  136.6718  155.0924 H   0  0  0  0  0  0  0  0  0  0  0  0
  149.7115  136.1868  153.4603 H   0  0  0  0  0  0  0  0  0  0  0  0
  148.5156  133.7980  155.5345 H   0  0  0  0  0  0  0  0  0  0  0  0
  150.2426  132.1725  154.7756 H   0  0  0  0  0  0  0  0  0  0  0  0
  150.1419  132.8105  153.1358 H   0  0  0  0  0  0  0  0  0  0  0  0
  148.7576  131.9931  153.8537 H   0  0  0  0  0  0  0  0  0  0  0  0
  147.5988  135.3383  154.0933 H   0  0  0  0  0  0  0  0  0  0  0  0
  147.8950  133.1407  152.1714 H   0  0  0  0  0  0  0  0  0  0  0  0
  145.8534  132.1045  153.2176 H   0  0  0  0  0  0  0  0  0  0  0  0
  145.9503  133.2642  154.5389 H   0  0  0  0  0  0  0  0  0  0  0  0
  147.2261  132.0696  154.3042 H   0  0  0  0  0  0  0  0  0  0  0  0
  145.5365  135.0028  152.6691 H   0  0  0  0  0  0  0  0  0  0  0  0
  146.7829  135.3425  151.4911 H   0  0  0  0  0  0  0  0  0  0  0  0
  146.7885  131.9404  150.9219 H   0  0  0  0  0  0  0  0  0  0  0  0
  144.8802  131.1676  149.1315 H   0  0  0  0  0  0  0  0  0  0  0  0
  143.1316  133.3180  149.1160 H   0  0  0  0  0  0  0  0  0  0  0  0
  148.7425  135.0950  152.9507 H   0  0  0  0  0  0  0  0  0  0  0  0
  1  2  2  0  0  0  0
  1 18  1  0  0  0  0
  1 19  1  0  0  0  0
  2  3  1  0  0  0  0
  2 20  1  0  0  0  0
  3  4  1  0  0  0  0
  3 21  1  0  0  0  0
  3 22  1  0  0  0  0
  4  5  1  0  0  0  0
  4 23  1  0  0  0  0
  5  6  2  0  0  0  0
  5  7  1  0  0  0  0
  7  8  1  0  0  0  0
  7  9  1  0  0  0  0
  7 24  1  0  0  0  0
  8 25  1  0  0  0  0
  8 26  1  0  0  0  0
  8 27  1  0  0  0  0
  9 10  1  0  0  0  0
  9 28  1  0  0  0  0
  9 38  1  0  0  0  0
 10 11  1  0  0  0  0
 10 12  1  0  0  0  0
 10 29  1  0  0  0  0
 11 30  1  0  0  0  0
 11 31  1  0  0  0  0
 11 32  1  0  0  0  0
 12 13  1  0  0  0  0
 12 33  1  0  0  0  0
 12 34  1  0  0  0  0
 13 17  1  0  0  0  0
 13 14  1  0  0  0  0
 14 15  2  0  0  0  0
 14 35  1  0  0  0  0
 15 16  1  0  0  0  0
 15 36  1  0  0  0  0
 16 17  2  0  0  0  0
 16 37  1  0  0  0  0
M  CHG  1   9   1
M  END
> <s_m_source_file>
AV-unprocessed.smi

> <i_m_source_file_index>
3046

> <i_lp_mmshare_version>
43012

> <i_f3d_flags>
0

> <s_epik_input>
W0NIMl09W0NIXVtDSDJdW05IXUMoPU8pW0NASF0oW0NIM10pW05IXVtDQEhdKFtDSDNdKVtDSDJdbjFbY0hdW2NIXVtjSF1uMQ==

> <s_epik_cmdline>
J2VwaWtfcHl0aG9uJywgJy1waCcsICc3LjAnLCAnLXRuJywgJzgnLCAnLW1hJywgJzIwMCcsICctbWV0YWxfYmluZGluZycsICctaW1hZScsICc8aW5maWxlLm1hZT4nLCAnLW9tYWUnLCAnPG91dGZpbGUubWFlPic=

> <r_lp_tautomer_probability>
1

> <r_epik_Ionization_Penalty>
0.132961

> <r_epik_Ionization_Penalty_Charging>
0.132956

> <r_epik_Ionization_Penalty_Neutral>
5.00268e-06

> <r_epik_State_Penalty>
0.122332

> <r_epik_Charging_Adjusted_Penalty>
0.255288

> <i_epik_Tot_Q>
1

> <i_epik_Tot_abs_Q>
1

> <r_epik_Metal_State_Penalty>
0.122338

> <b_epik_Metal_Only>
0

> <s_lp_Force_Field>
OPLS_2005

> <r_lp_Energy>
6.26821

> <b_lp_Chiralities_Consistent>
1

> <s_lp_Variant>
AV-unprocessed.smi:3046-3

> <Gold.Version>
5.8.1

> <Gold.Id.Protein>
6NUR|6NUR_protein|mol2

> <Gold.PLP.Fitness>
46.3107

> <Gold.PLP.PLP>
-32.5566

> <Gold.PLP.part.hbond>
-2.8430

> <Gold.PLP.part.metal>
0.0000

> <Gold.PLP.part.buried>
-3.1200

> <Gold.PLP.part.nonpolar>
-27.1902

> <Gold.PLP.part.repulsive>
0.2703

> <Gold.PLP.ligand.clash>
0.0000

> <Gold.PLP.ligand.torsion>
0.6998

> <Gold.PLP.Chemscore.Hbond>
3.0000

> <Gold.PLP.Chemscore.CHOScore>
2.0000

> <Gold.PLP.Chemscore.Metal>
0.0000

> <Gold.Chemscore.Hbonds>
donor molecule, donor type, donor heavy atom, donor atom, acceptor molecule, acceptor atom, score
      L1  H     4    23       P1  7948  0.95
      L1  H     9    38       P1  7948  2.00
      L1  C    14    35       P1 10747  1.00
      L1  C    16    37       P1 10186  1.00

> <Gold.PLP.Chemscore.Internal.Correction>
0.1538

> <Gold.Rescore>
     Score         DG    S(hbond)    S(metal)    S(lipo)     H(rot)  DE(clash)    DE(int)     intcor
     13.90     -14.86       1.89        0.00      75.56       2.26       0.00       0.96       ----

> <Gold.Chemscore.Fitness>
13.8971

> <Gold.Chemscore.DG>
-14.8558

> <Gold.Chemscore.ZeroCoef>
-5.4800

> <Gold.Chemscore.Hbond>
1.8946

> <Gold.Chemscore.Metal>
0.0000

> <Gold.Chemscore.Lipo>
75.5569

> <Gold.Chemscore.Internal_Hbond>
0.0000

> <Gold.Chemscore.DEClash>
0.0029

> <Gold.Chemscore.DEInternal>
0.9558

> <Gold.Chemscore.Rot>
2.2626

> <Gold.Chemscore.Internal.Correction>
   9.000000E+99

> <Gold.Chemscore.Hbonds>
donor molecule, donor type, donor heavy atom, donor atom, acceptor molecule, acceptor atom, score
      L1  H     4    23       P1  7948  0.21
      L1  H     9    38       P1  7948  0.41

> <Gold.Chemscore.Hbond.Weighted>
-6.3278

> <Gold.Chemscore.Metal.Weighted>
-0.0000

> <Gold.Chemscore.Lipo.Weighted>
-8.8402

> <Gold.Chemscore.Internal_Hbond.Weighted>
0.0000

> <Gold.Chemscore.DEClash.Weighted>
0.0029

> <Gold.Chemscore.DEInternal.Weighted>
0.9558

> <Gold.Chemscore.Rot.Weighted>
5.7922

> <Gold.Chemscore.Internal.Correction.Weighted>
   9.000000E+99

> <Gold.Protein.RotatedTorsions>
[ 6907 6896 6895 6894 ] final  -69.74 input  -60.11 | X-H torsion
[ 7974 7965 7964 7962 ] final -152.53 input  175.53 | X-H torsion
[ 8008 7997 7996 7995 ] final  -51.84 input   59.86 | X-H torsion
[ 10167 10162 10161 10158 ] final   41.75 input  -65.29 | X-H torsion
[ 10718 10713 10712 10709 ] final   75.02 input   66.30 | X-H torsion
[ 10763 10752 10751 10750 ] final  157.83 input  -60.55 | X-H torsion
[ 11005 11000 10999 10996 ] final  172.94 input  -57.11 | X-H torsion

> <Gold.Protein.ActiveResidues>
 VAL166  LYS551  ARG553  GLY616  TRP617  ASP618  TYR619  PRO620  LYS621  CYS622 
 ASP623  PHE694  ASN695  SER759  ASP760  ASP761  ALA762  ILE779  LEU786  VAL792 
 PHE793  MET794  SER795  GLU796  ALA797  LYS798  CYS799  TRP800  GLU811  SER814 

> <Gold.Protein.RotatedAtoms>
  150.7290  134.5553  159.5814 H   0  0  0  0  0  0  0  0  0  0  0  0  # atno 6907 bound_to 6896
  152.3030  134.7586  160.0362 H   0  0  0  0  0  0  0  0  0  0  0  0  # atno 6908 bound_to 6896
  151.8160  133.3352  159.3606 H   0  0  0  0  0  0  0  0  0  0  0  0  # atno 6909 bound_to 6896
  144.7789  140.4649  143.5853 H   0  0  0  0  0  0  0  0  0  0  0  0  # atno 7974 bound_to 7965
  154.4092  140.1238  156.4894 H   0  0  0  0  0  0  0  0  0  0  0  0  # atno 8008 bound_to 7997
  155.7006  140.3495  155.4912 H   0  0  0  0  0  0  0  0  0  0  0  0  # atno 8009 bound_to 7997
  155.9389  140.1083  157.1062 H   0  0  0  0  0  0  0  0  0  0  0  0  # atno 8010 bound_to 7997
  140.3613  144.2225  150.6138 H   0  0  0  0  0  0  0  0  0  0  0  0  # atno 10167 bound_to 10162
  157.6617  130.9706  150.1294 H   0  0  0  0  0  0  0  0  0  0  0  0  # atno 10718 bound_to 10713
  154.2065  135.2788  155.2973 H   0  0  0  0  0  0  0  0  0  0  0  0  # atno 10763 bound_to 10752
  154.5813  135.5588  153.7191 H   0  0  0  0  0  0  0  0  0  0  0  0  # atno 10764 bound_to 10752
  153.0075  135.6345  154.2204 H   0  0  0  0  0  0  0  0  0  0  0  0  # atno 10765 bound_to 10752
  140.3351  134.7324  157.4162 H   0  0  0  0  0  0  0  0  0  0  0  0  # atno 11005 bound_to 11000
  145.6106  139.1513  143.3078 LP  0  0  0  0  0  0  0  0  0  0  0  0  # atno 17320 bound_to 7965
  146.1985  140.6223  142.9113 LP  0  0  0  0  0  0  0  0  0  0  0  0  # atno 17321 bound_to 7965
  140.5125  143.2287  151.8514 LP  0  0  0  0  0  0  0  0  0  0  0  0  # atno 17342 bound_to 10162
  139.4814  144.4933  151.9156 LP  0  0  0  0  0  0  0  0  0  0  0  0  # atno 17343 bound_to 10162
  156.2145  130.3669  149.8630 LP  0  0  0  0  0  0  0  0  0  0  0  0  # atno 17370 bound_to 10713
  156.6500  130.8740  151.3529 LP  0  0  0  0  0  0  0  0  0  0  0  0  # atno 17371 bound_to 10713
  140.0828  134.5708  155.8523 LP  0  0  0  0  0  0  0  0  0  0  0  0  # atno 17394 bound_to 11000
  141.2053  133.6646  156.6174 LP  0  0  0  0  0  0  0  0  0  0  0  0  # atno 17395 bound_to 11000

$$$$
