AV-unprocessed.smi:879|AV-procd|sdf|4033|dock6
  -GOLD-   22720 1523D 1   1.00000     0.00000
 Structure written by MMmdl.
 39 40  0  0  0  0  0  0  0  0  1 V2000
  150.1133  134.7142  154.7376 C   0  0  0  0  0  0  0  0  0  0  0  0
  150.4881  136.0603  154.3321 N   0  0  0  0  0  0  0  0  0  0  0  0
  151.4107  136.8071  154.9559 C   0  0  0  0  0  0  0  0  0  0  0  0
  152.0344  136.4133  155.9430 O   0  0  0  0  0  0  0  0  0  0  0  0
  151.6612  138.1983  154.3586 C   0  0  0  0  0  0  0  0  0  0  0  0
  151.5366  139.2898  155.3764 C   0  0  0  0  0  0  0  0  0  0  0  0
  150.9673  140.4517  155.0758 N   0  0  0  0  0  0  0  0  0  0  0  0
  151.0594  141.1765  156.2723 O   0  0  0  0  0  0  0  0  0  0  0  0
  151.6730  140.3542  157.1572 C   0  0  0  0  0  0  0  0  0  0  0  0
  151.9563  140.8544  158.5370 C   0  0  0  0  0  0  0  0  0  0  0  0
  152.5970  142.2602  158.5773 C   0  0  0  0  0  0  0  0  0  0  0  0
  153.1525  142.5767  159.9846 C   0  0  0  0  0  0  0  0  0  0  0  0
  152.1475  143.1903  160.9748 C   0  0  0  0  0  0  0  0  0  0  0  0
  152.0975  144.7258  160.8977 C   0  0  0  0  0  0  0  0  0  0  0  0
  151.4216  145.2861  159.6373 C   0  0  0  0  0  0  0  0  0  0  0  0
  152.0247  144.7990  158.3080 C   0  0  0  0  0  0  0  0  0  0  0  0
  151.6592  143.3399  157.9855 C   0  0  0  0  0  0  0  0  0  0  0  0
  152.0109  139.1723  156.6482 N   0  0  0  0  0  0  0  0  0  0  0  0
  149.3734  134.3103  154.0467 H   0  0  0  0  0  0  0  0  0  0  0  0
  149.6796  134.7184  155.7382 H   0  0  0  0  0  0  0  0  0  0  0  0
  150.9793  134.0507  154.7359 H   0  0  0  0  0  0  0  0  0  0  0  0
  150.0175  136.4483  153.5273 H   0  0  0  0  0  0  0  0  0  0  0  0
  152.6604  138.2230  153.9224 H   0  0  0  0  0  0  0  0  0  0  0  0
  150.9561  138.3811  153.5461 H   0  0  0  0  0  0  0  0  0  0  0  0
  151.0238  140.8529  159.1027 H   0  0  0  0  0  0  0  0  0  0  0  0
  152.6097  140.1308  159.0256 H   0  0  0  0  0  0  0  0  0  0  0  0
  153.4701  142.2153  157.9241 H   0  0  0  0  0  0  0  0  0  0  0  0
  153.5601  141.6623  160.4176 H   0  0  0  0  0  0  0  0  0  0  0  0
  154.0125  143.2415  159.8927 H   0  0  0  0  0  0  0  0  0  0  0  0
  151.1547  142.7569  160.8497 H   0  0  0  0  0  0  0  0  0  0  0  0
  152.4634  142.9226  161.9836 H   0  0  0  0  0  0  0  0  0  0  0  0
  151.5579  145.1007  161.7678 H   0  0  0  0  0  0  0  0  0  0  0  0
  153.1066  145.1306  160.9827 H   0  0  0  0  0  0  0  0  0  0  0  0
  150.3552  145.0594  159.6619 H   0  0  0  0  0  0  0  0  0  0  0  0
  151.4904  146.3737  159.6724 H   0  0  0  0  0  0  0  0  0  0  0  0
  151.6178  145.4277  157.5155 H   0  0  0  0  0  0  0  0  0  0  0  0
  153.1042  144.9517  158.2821 H   0  0  0  0  0  0  0  0  0  0  0  0
  151.6519  143.2229  156.9010 H   0  0  0  0  0  0  0  0  0  0  0  0
  150.6315  143.1533  158.2997 H   0  0  0  0  0  0  0  0  0  0  0  0
  1  2  1  0  0  0  0
  1 19  1  0  0  0  0
  1 20  1  0  0  0  0
  1 21  1  0  0  0  0
  2  3  1  0  0  0  0
  2 22  1  0  0  0  0
  3  4  2  0  0  0  0
  3  5  1  0  0  0  0
  5  6  1  0  0  0  0
  5 23  1  0  0  0  0
  5 24  1  0  0  0  0
  6 18  1  0  0  0  0
  6  7  2  0  0  0  0
  7  8  1  0  0  0  0
  8  9  1  0  0  0  0
  9 10  1  0  0  0  0
  9 18  2  0  0  0  0
 10 11  1  0  0  0  0
 10 25  1  0  0  0  0
 10 26  1  0  0  0  0
 11 17  1  0  0  0  0
 11 12  1  0  0  0  0
 11 27  1  0  0  0  0
 12 13  1  0  0  0  0
 12 28  1  0  0  0  0
 12 29  1  0  0  0  0
 13 14  1  0  0  0  0
 13 30  1  0  0  0  0
 13 31  1  0  0  0  0
 14 15  1  0  0  0  0
 14 32  1  0  0  0  0
 14 33  1  0  0  0  0
 15 16  1  0  0  0  0
 15 34  1  0  0  0  0
 15 35  1  0  0  0  0
 16 17  1  0  0  0  0
 16 36  1  0  0  0  0
 16 37  1  0  0  0  0
 17 38  1  0  0  0  0
 17 39  1  0  0  0  0
M  END
> <s_m_source_file>
AV-unprocessed.smi

> <i_m_source_file_index>
879

> <i_lp_mmshare_version>
43012

> <i_f3d_flags>
0

> <s_epik_input>
W0NIM11bTkhdQyg9TylbQ0gyXWMxbm9jKG4xKVtDSDJdW0NIXTJbQ0gyXVtDSDJdW0NIMl1bQ0gyXVtDSDJdW0NIMl0y

> <s_epik_cmdline>
J2VwaWtfcHl0aG9uJywgJy1waCcsICc3LjAnLCAnLXRuJywgJzgnLCAnLW1hJywgJzIwMCcsICctbWV0YWxfYmluZGluZycsICctaW1hZScsICc8aW5maWxlLm1hZT4nLCAnLW9tYWUnLCAnPG91dGZpbGUubWFlPic=

> <r_lp_tautomer_probability>
1

> <r_epik_Ionization_Penalty>
1.02915e-07

> <r_epik_Ionization_Penalty_Charging>
0

> <r_epik_Ionization_Penalty_Neutral>
1.02915e-07

> <r_epik_State_Penalty>
-0

> <r_epik_Charging_Adjusted_Penalty>
0

> <i_epik_Tot_Q>
0

> <i_epik_Tot_abs_Q>
0

> <r_epik_Metal_State_Penalty>
-0

> <b_epik_Metal_Only>
0

> <s_lp_Force_Field>
OPLS_2005

> <r_lp_Energy>
15.7019

> <b_lp_Chiralities_Consistent>
1

> <s_lp_Variant>
AV-unprocessed.smi:879-1

> <Gold.Version>
5.8.1

> <Gold.Id.Protein>
6NUR|6NUR_protein|mol2

> <Gold.PLP.Fitness>
50.8152

> <Gold.PLP.PLP>
-42.8694

> <Gold.PLP.part.hbond>
-3.9924

> <Gold.PLP.part.metal>
0.0000

> <Gold.PLP.part.buried>
-5.3154

> <Gold.PLP.part.nonpolar>
-33.2633

> <Gold.PLP.part.repulsive>
0.1918

> <Gold.PLP.ligand.clash>
0.0000

> <Gold.PLP.ligand.torsion>
0.4916

> <Gold.PLP.Chemscore.Hbond>
2.9600

> <Gold.PLP.Chemscore.CHOScore>
0.0000

> <Gold.PLP.Chemscore.Metal>
0.0000

> <Gold.Chemscore.Hbonds>
donor molecule, donor type, donor heavy atom, donor atom, acceptor molecule, acceptor atom, score
      L1  H     2    22       P1  7948  0.75
      P1  H  7989  7998       L1     7  1.00
      P1  H 10752 10765       L1     4  1.00

> <Gold.PLP.Chemscore.Internal.Correction>
0.0490

> <Gold.Rescore>
     Score         DG    S(hbond)    S(metal)    S(lipo)     H(rot)  DE(clash)    DE(int)     intcor
     15.15     -18.72       1.82        0.00     101.49       1.84       0.00       3.57       ----

> <Gold.Chemscore.Fitness>
15.1481

> <Gold.Chemscore.DG>
-18.7232

> <Gold.Chemscore.ZeroCoef>
-5.4800

> <Gold.Chemscore.Hbond>
1.8199

> <Gold.Chemscore.Metal>
0.0000

> <Gold.Chemscore.Lipo>
101.4939

> <Gold.Chemscore.Internal_Hbond>
0.0000

> <Gold.Chemscore.DEClash>
0.0004

> <Gold.Chemscore.DEInternal>
3.5747

> <Gold.Chemscore.Rot>
1.8399

> <Gold.Chemscore.Internal.Correction>
   9.000000E+99

> <Gold.Chemscore.Hbonds>
donor molecule, donor type, donor heavy atom, donor atom, acceptor molecule, acceptor atom, score
      L1  H     2    22       P1  7948  0.09
      P1  H  7989  7998       L1     7  0.48
      P1  H 10752 10765       L1     4  0.25

> <Gold.Chemscore.Hbond.Weighted>
-6.0785

> <Gold.Chemscore.Metal.Weighted>
-0.0000

> <Gold.Chemscore.Lipo.Weighted>
-11.8748

> <Gold.Chemscore.Internal_Hbond.Weighted>
0.0000

> <Gold.Chemscore.DEClash.Weighted>
0.0004

> <Gold.Chemscore.DEInternal.Weighted>
3.5747

> <Gold.Chemscore.Rot.Weighted>
4.7101

> <Gold.Chemscore.Internal.Correction.Weighted>
   9.000000E+99

> <Gold.Protein.RotatedTorsions>
[ 6907 6896 6895 6894 ] final -147.47 input  -60.11 | X-H torsion
[ 7974 7965 7964 7962 ] final   88.99 input  175.53 | X-H torsion
[ 8008 7997 7996 7995 ] final  -37.58 input   59.86 | X-H torsion
[ 10167 10162 10161 10158 ] final   79.47 input  -65.29 | X-H torsion
[ 10718 10713 10712 10709 ] final -179.96 input   66.30 | X-H torsion
[ 10763 10752 10751 10750 ] final -139.21 input  -60.55 | X-H torsion
[ 11005 11000 10999 10996 ] final   70.37 input  -57.11 | X-H torsion

> <Gold.Protein.ActiveResidues>
 VAL166  LYS551  ARG553  GLY616  TRP617  ASP618  TYR619  PRO620  LYS621  CYS622 
 ASP623  PHE694  ASN695  SER759  ASP760  ASP761  ALA762  ILE779  LEU786  VAL792 
 PHE793  MET794  SER795  GLU796  ALA797  LYS798  CYS799  TRP800  GLU811  SER814 

> <Gold.Protein.RotatedAtoms>
  151.1562  133.4875  159.2594 H   0  0  0  0  0  0  0  0  0  0  0  0  # atno 6907 bound_to 6896
  151.1502  135.0223  159.8675 H   0  0  0  0  0  0  0  0  0  0  0  0  # atno 6908 bound_to 6896
  152.5463  134.1447  159.8546 H   0  0  0  0  0  0  0  0  0  0  0  0  # atno 6909 bound_to 6896
  145.5383  139.2287  143.2580 H   0  0  0  0  0  0  0  0  0  0  0  0  # atno 7974 bound_to 7965
  154.4051  140.1600  156.2559 H   0  0  0  0  0  0  0  0  0  0  0  0  # atno 8008 bound_to 7997
  155.9078  140.3429  155.6053 H   0  0  0  0  0  0  0  0  0  0  0  0  # atno 8009 bound_to 7997
  155.7371  140.0788  157.2253 H   0  0  0  0  0  0  0  0  0  0  0  0  # atno 8010 bound_to 7997
  139.9600  144.5968  150.8081 H   0  0  0  0  0  0  0  0  0  0  0  0  # atno 10167 bound_to 10162
  156.8669  130.9770  151.3077 H   0  0  0  0  0  0  0  0  0  0  0  0  # atno 10718 bound_to 10713
  154.8615  135.3589  154.5510 H   0  0  0  0  0  0  0  0  0  0  0  0  # atno 10763 bound_to 10752
  153.6128  135.7009  153.5345 H   0  0  0  0  0  0  0  0  0  0  0  0  # atno 10764 bound_to 10752
  153.3194  135.4155  155.1365 H   0  0  0  0  0  0  0  0  0  0  0  0  # atno 10765 bound_to 10752
  139.9601  134.7075  156.0664 H   0  0  0  0  0  0  0  0  0  0  0  0  # atno 11005 bound_to 11000
  146.1998  140.6202  142.9107 LP  0  0  0  0  0  0  0  0  0  0  0  0  # atno 17320 bound_to 7965
  144.7590  140.5377  143.6748 LP  0  0  0  0  0  0  0  0  0  0  0  0  # atno 17321 bound_to 7965
  140.7556  143.3050  151.2985 LP  0  0  0  0  0  0  0  0  0  0  0  0  # atno 17342 bound_to 10162
  139.6562  144.0273  152.2661 LP  0  0  0  0  0  0  0  0  0  0  0  0  # atno 17343 bound_to 10162
  157.6218  130.8661  149.9122 LP  0  0  0  0  0  0  0  0  0  0  0  0  # atno 17370 bound_to 10713
  156.0747  130.3680  150.0702 LP  0  0  0  0  0  0  0  0  0  0  0  0  # atno 17371 bound_to 10713
  141.1277  133.6594  156.3382 LP  0  0  0  0  0  0  0  0  0  0  0  0  # atno 17394 bound_to 11000
  140.5519  134.6019  157.5410 LP  0  0  0  0  0  0  0  0  0  0  0  0  # atno 17395 bound_to 11000

$$$$
