AV-unprocessed.smi:1880|AV-procd|sdf|7637|dock3
  -GOLD-   22720 9363D 1   1.00000     0.00000
 Structure written by MMmdl.
 37 39  0  0  0  0  0  0  0  0  2 V2000
  144.5119  138.1069  152.4073 O   0  0  0  0  0  0  0  0  0  0  0  0
  145.8115  137.5527  152.4595 C   0  0  2  0  0  0  0  0  0  0  0  0
  146.8163  138.6546  152.8332 C   0  0  0  0  0  0  0  0  0  0  0  0
  147.5369  138.2805  153.9963 O   0  0  0  0  0  0  0  0  0  0  0  0
  148.8965  138.6750  153.9507 C   0  0  0  0  0  0  0  0  0  0  0  0
  148.9739  139.9990  154.6312 C   0  0  0  0  0  0  0  0  0  0  0  0
  148.0329  140.8829  155.0821 C   0  0  0  0  0  0  0  0  0  0  0  0
  148.7477  141.9724  155.6526 C   0  0  0  0  0  0  0  0  0  0  0  0
  150.0720  141.6711  155.5075 C   0  0  0  0  0  0  0  0  0  0  0  0
  150.2271  140.4699  154.8873 O   0  0  0  0  0  0  0  0  0  0  0  0
  146.1703  136.8071  151.1586 C   0  0  0  0  0  0  0  0  0  0  0  0
  145.3132  135.6375  150.9190 N   0  0  0  0  0  0  0  0  0  0  0  0
  144.1252  135.5523  150.2611 C   0  0  0  0  0  0  0  0  0  0  0  0
  143.7177  134.2541  150.3144 N   0  3  0  0  0  0  0  0  0  0  0  0
  144.6588  133.4979  151.0168 C   0  0  0  0  0  0  0  0  0  0  0  0
  144.6874  132.1434  151.3323 C   0  0  0  0  0  0  0  0  0  0  0  0
  145.8016  131.6852  152.0657 C   0  0  0  0  0  0  0  0  0  0  0  0
  145.8778  130.3758  152.4015 F   0  0  0  0  0  0  0  0  0  0  0  0
  146.8359  132.5630  152.4542 C   0  0  0  0  0  0  0  0  0  0  0  0
  147.8890  132.0808  153.1554 F   0  0  0  0  0  0  0  0  0  0  0  0
  146.7963  133.9345  152.1274 C   0  0  0  0  0  0  0  0  0  0  0  0
  145.6887  134.3799  151.4064 C   0  0  0  0  0  0  0  0  0  0  0  0
  144.2881  138.2626  151.5029 H   0  0  0  0  0  0  0  0  0  0  0  0
  145.7953  136.8301  153.2762 H   0  0  0  0  0  0  0  0  0  0  0  0
  147.4957  138.8547  152.0026 H   0  0  0  0  0  0  0  0  0  0  0  0
  146.2750  139.5802  153.0353 H   0  0  0  0  0  0  0  0  0  0  0  0
  149.5297  137.9469  154.4602 H   0  0  0  0  0  0  0  0  0  0  0  0
  149.2383  138.7566  152.9180 H   0  0  0  0  0  0  0  0  0  0  0  0
  146.9623  140.7593  155.0114 H   0  0  0  0  0  0  0  0  0  0  0  0
  148.3444  142.8631  156.1113 H   0  0  0  0  0  0  0  0  0  0  0  0
  150.9899  142.1733  155.7757 H   0  0  0  0  0  0  0  0  0  0  0  0
  146.1246  137.4662  150.2916 H   0  0  0  0  0  0  0  0  0  0  0  0
  147.1988  136.4478  151.2118 H   0  0  0  0  0  0  0  0  0  0  0  0
  143.5998  136.3677  149.7845 H   0  0  0  0  0  0  0  0  0  0  0  0
  143.8992  131.4672  151.0355 H   0  0  0  0  0  0  0  0  0  0  0  0
  147.5969  134.5949  152.4266 H   0  0  0  0  0  0  0  0  0  0  0  0
  142.8587  133.9128  149.9018 H   0  0  0  0  0  0  0  0  0  0  0  0
  1  2  1  0  0  0  0
  1 23  1  0  0  0  0
  2  3  1  0  0  0  0
  2 11  1  0  0  0  0
  2 24  1  0  0  0  0
  3  4  1  0  0  0  0
  3 25  1  0  0  0  0
  3 26  1  0  0  0  0
  4  5  1  0  0  0  0
  5  6  1  0  0  0  0
  5 27  1  0  0  0  0
  5 28  1  0  0  0  0
  6 10  1  0  0  0  0
  6  7  2  0  0  0  0
  7  8  1  0  0  0  0
  7 29  1  0  0  0  0
  8  9  2  0  0  0  0
  8 30  1  0  0  0  0
  9 10  1  0  0  0  0
  9 31  1  0  0  0  0
 11 12  1  0  0  0  0
 11 32  1  0  0  0  0
 11 33  1  0  0  0  0
 12 22  1  0  0  0  0
 12 13  1  0  0  0  0
 13 14  2  0  0  0  0
 13 34  1  0  0  0  0
 14 15  1  0  0  0  0
 14 37  1  0  0  0  0
 15 22  2  0  0  0  0
 15 16  1  0  0  0  0
 16 17  2  0  0  0  0
 16 35  1  0  0  0  0
 17 18  1  0  0  0  0
 17 19  1  0  0  0  0
 19 20  1  0  0  0  0
 19 21  2  0  0  0  0
 21 22  1  0  0  0  0
 21 36  1  0  0  0  0
M  CHG  1  14   1
M  END
> <s_m_source_file>
AV-unprocessed.smi

> <i_m_source_file_index>
1880

> <i_lp_mmshare_version>
43012

> <i_f3d_flags>
0

> <s_epik_input>
W2NIXTFjKEYpYyhGKVtjSF1jKGMxMiluKFtjSF1uMilbQ0gyXVtDQEhdKFtPSF0pW0NIMl1PW0NIMl1jM1tjSF1bY0hdW2NIXW8z

> <s_epik_cmdline>
J2VwaWtfcHl0aG9uJywgJy1waCcsICc3LjAnLCAnLXRuJywgJzgnLCAnLW1hJywgJzIwMCcsICctbWV0YWxfYmluZGluZycsICctaW1hZScsICc8aW5maWxlLm1hZT4nLCAnLW9tYWUnLCAnPG91dGZpbGUubWFlPic=

> <r_epik_Ionization_Penalty>
2.17656

> <r_epik_Ionization_Penalty_Charging>
2.17656

> <r_epik_Ionization_Penalty_Neutral>
9.34185e-07

> <r_epik_State_Penalty>
2.31826

> <r_epik_Charging_Adjusted_Penalty>
4.49482

> <i_epik_Tot_Q>
1

> <i_epik_Tot_abs_Q>
1

> <r_epik_Metal_State_Penalty>
6.39906

> <b_epik_Metal_Only>
0

> <s_lp_Force_Field>
OPLS_2005

> <r_lp_Energy>
13.1736

> <b_lp_Chiralities_Consistent>
1

> <s_lp_Variant>
AV-unprocessed.smi:1880-3

> <Gold.Version>
5.8.1

> <Gold.Id.Protein>
6NUR|6NUR_protein|mol2

> <Gold.PLP.Fitness>
47.5517

> <Gold.PLP.PLP>
-36.8009

> <Gold.PLP.part.hbond>
-3.9207

> <Gold.PLP.part.metal>
0.0000

> <Gold.PLP.part.buried>
2.9703

> <Gold.PLP.part.nonpolar>
-36.5549

> <Gold.PLP.part.repulsive>
0.2636

> <Gold.PLP.ligand.clash>
0.0000

> <Gold.PLP.ligand.torsion>
1.6958

> <Gold.PLP.Chemscore.Hbond>
3.6880

> <Gold.PLP.Chemscore.CHOScore>
1.0000

> <Gold.PLP.Chemscore.Metal>
0.0000

> <Gold.Chemscore.Hbonds>
donor molecule, donor type, donor heavy atom, donor atom, acceptor molecule, acceptor atom, score
      L1  H     1    23       P1 10171  1.00
      L1  H    14    37       P1 10186  1.66
      P1  H  7989  7998       L1    10  0.98
      L1  C    13    34       P1 10171  1.00

> <Gold.PLP.Chemscore.Internal.Correction>
0.0784

> <Gold.Rescore>
     Score         DG    S(hbond)    S(metal)    S(lipo)     H(rot)  DE(clash)    DE(int)     intcor
     13.31     -16.33       2.55        0.00      84.12       2.94       1.44       1.59       ----

> <Gold.Chemscore.Fitness>
13.3097

> <Gold.Chemscore.DG>
-16.3332

> <Gold.Chemscore.ZeroCoef>
-5.4800

> <Gold.Chemscore.Hbond>
2.5538

> <Gold.Chemscore.Metal>
0.0000

> <Gold.Chemscore.Lipo>
84.1198

> <Gold.Chemscore.Internal_Hbond>
0.0000

> <Gold.Chemscore.DEClash>
1.4383

> <Gold.Chemscore.DEInternal>
1.5852

> <Gold.Chemscore.Rot>
2.9369

> <Gold.Chemscore.Internal.Correction>
   9.000000E+99

> <Gold.Chemscore.Hbonds>
donor molecule, donor type, donor heavy atom, donor atom, acceptor molecule, acceptor atom, score
      L1  H     1    23       P1 10171  1.00
      L1  H    14    37       P1 10186  0.82
      P1  H  7989  7998       L1    10  0.31

> <Gold.Chemscore.Hbond.Weighted>
-8.5297

> <Gold.Chemscore.Metal.Weighted>
-0.0000

> <Gold.Chemscore.Lipo.Weighted>
-9.8420

> <Gold.Chemscore.Internal_Hbond.Weighted>
0.0000

> <Gold.Chemscore.DEClash.Weighted>
1.4383

> <Gold.Chemscore.DEInternal.Weighted>
1.5852

> <Gold.Chemscore.Rot.Weighted>
7.5185

> <Gold.Chemscore.Internal.Correction.Weighted>
   9.000000E+99

> <Gold.Protein.RotatedTorsions>
[ 6907 6896 6895 6894 ] final -155.00 input  -60.11 | X-H torsion
[ 7974 7965 7964 7962 ] final   92.16 input  175.53 | X-H torsion
[ 8008 7997 7996 7995 ] final  174.54 input   59.86 | X-H torsion
[ 10167 10162 10161 10158 ] final -166.93 input  -65.29 | X-H torsion
[ 10718 10713 10712 10709 ] final   77.89 input   66.30 | X-H torsion
[ 10763 10752 10751 10750 ] final  -93.87 input  -60.55 | X-H torsion
[ 11005 11000 10999 10996 ] final  160.60 input  -57.11 | X-H torsion

> <Gold.Protein.ActiveResidues>
 VAL166  LYS551  ARG553  GLY616  TRP617  ASP618  TYR619  PRO620  LYS621  CYS622 
 ASP623  PHE694  ASN695  SER759  ASP760  ASP761  ALA762  ILE779  LEU786  VAL792 
 PHE793  MET794  SER795  GLU796  ALA797  LYS798  CYS799  TRP800  GLU811  SER814 

> <Gold.Protein.RotatedAtoms>
  151.2659  133.4279  159.2618 H   0  0  0  0  0  0  0  0  0  0  0  0  # atno 6907 bound_to 6896
  151.0489  134.9659  159.8211 H   0  0  0  0  0  0  0  0  0  0  0  0  # atno 6908 bound_to 6896
  152.5379  134.2614  159.8989 H   0  0  0  0  0  0  0  0  0  0  0  0  # atno 6909 bound_to 6896
  145.4961  139.2276  143.2803 H   0  0  0  0  0  0  0  0  0  0  0  0  # atno 7974 bound_to 7965
  156.0964  140.1432  156.9526 H   0  0  0  0  0  0  0  0  0  0  0  0  # atno 8008 bound_to 7997
  154.4674  140.0921  156.7102 H   0  0  0  0  0  0  0  0  0  0  0  0  # atno 8009 bound_to 7997
  155.4834  140.3445  155.4345 H   0  0  0  0  0  0  0  0  0  0  0  0  # atno 8010 bound_to 7997
  139.6083  144.0868  152.1815 H   0  0  0  0  0  0  0  0  0  0  0  0  # atno 10167 bound_to 10162
  157.6726  130.9843  150.1707 H   0  0  0  0  0  0  0  0  0  0  0  0  # atno 10718 bound_to 10713
  154.7001  135.5178  153.8514 H   0  0  0  0  0  0  0  0  0  0  0  0  # atno 10763 bound_to 10752
  153.0697  135.6597  154.0284 H   0  0  0  0  0  0  0  0  0  0  0  0  # atno 10764 bound_to 10752
  154.0144  135.2999  155.3368 H   0  0  0  0  0  0  0  0  0  0  0  0  # atno 10765 bound_to 10752
  140.2075  134.8292  157.3085 H   0  0  0  0  0  0  0  0  0  0  0  0  # atno 11005 bound_to 11000
  146.2255  140.5758  142.8998 LP  0  0  0  0  0  0  0  0  0  0  0  0  # atno 17320 bound_to 7965
  144.7806  140.5833  143.6608 LP  0  0  0  0  0  0  0  0  0  0  0  0  # atno 17321 bound_to 7965
  140.0480  144.5955  150.7358 LP  0  0  0  0  0  0  0  0  0  0  0  0  # atno 17342 bound_to 10162
  140.7300  143.2679  151.3984 LP  0  0  0  0  0  0  0  0  0  0  0  0  # atno 17343 bound_to 10162
  156.2462  130.3696  149.8283 LP  0  0  0  0  0  0  0  0  0  0  0  0  # atno 17370 bound_to 10713
  156.6069  130.8570  151.3445 LP  0  0  0  0  0  0  0  0  0  0  0  0  # atno 17371 bound_to 10713
  140.1986  134.4282  155.7675 LP  0  0  0  0  0  0  0  0  0  0  0  0  # atno 17394 bound_to 11000
  141.2227  133.7061  156.8146 LP  0  0  0  0  0  0  0  0  0  0  0  0  # atno 17395 bound_to 11000

$$$$
