AV-unprocessed.smi:1475|AV-procd|sdf|5976|dock9
  -GOLD-   22720 6 63D 1   1.00000     0.00000
 Structure written by MMmdl.
 50 51  0  0  0  0  0  0  0  0  2 V2000
  153.1443  142.4991  162.1519 C   0  0  0  0  0  0  0  0  0  0  0  0
  152.4076  143.3038  161.1224 C   0  0  0  0  0  0  0  0  0  0  0  0
  151.6024  144.4600  161.3200 C   0  0  0  0  0  0  0  0  0  0  0  0
  151.1732  144.7913  160.0660 C   0  0  0  0  0  0  0  0  0  0  0  0
  150.2958  145.9124  159.6152 C   0  0  0  0  0  0  0  0  0  0  0  0
  151.7149  143.8602  159.1974 N   0  0  0  0  0  0  0  0  0  0  0  0
  151.5799  143.7650  157.7526 C   0  0  0  0  0  0  0  0  0  0  0  0
  150.9137  142.4487  157.3501 C   0  0  0  0  0  0  0  0  0  0  0  0
  151.4939  141.3800  157.5404 O   0  0  0  0  0  0  0  0  0  0  0  0
  149.6929  142.5381  156.7993 N   0  0  0  0  0  0  0  0  0  0  0  0
  148.8725  141.4040  156.3910 C   0  0  0  0  0  0  0  0  0  0  0  0
  148.3112  141.5859  154.9663 C   0  0  0  0  0  0  0  0  0  0  0  0
  147.1216  142.4743  154.9268 N   0  3  1  0  0  0  0  0  0  0  0  0
  146.7320  142.8183  153.5345 C   0  0  0  0  0  0  0  0  0  0  0  0
  145.5896  143.8523  153.5058 C   0  0  1  0  0  0  0  0  0  0  0  0
  145.1937  144.2123  152.0666 C   0  0  0  0  0  0  0  0  0  0  0  0
  144.3833  143.3344  154.3062 C   0  0  0  0  0  0  0  0  0  0  0  0
  144.8033  142.9556  155.7358 C   0  0  1  0  0  0  0  0  0  0  0  0
  143.6153  142.4167  156.5452 C   0  0  0  0  0  0  0  0  0  0  0  0
  145.9658  141.9448  155.6994 C   0  0  0  0  0  0  0  0  0  0  0  0
  152.4718  142.9499  159.8492 N   0  0  0  0  0  0  0  0  0  0  0  0
  152.9659  142.8866  163.1550 H   0  0  0  0  0  0  0  0  0  0  0  0
  154.2195  142.5235  161.9736 H   0  0  0  0  0  0  0  0  0  0  0  0
  152.8255  141.4565  162.1381 H   0  0  0  0  0  0  0  0  0  0  0  0
  151.3738  144.9699  162.2443 H   0  0  0  0  0  0  0  0  0  0  0  0
  150.0065  146.5417  160.4569 H   0  0  0  0  0  0  0  0  0  0  0  0
  149.3849  145.5314  159.1534 H   0  0  0  0  0  0  0  0  0  0  0  0
  150.8090  146.5419  158.8884 H   0  0  0  0  0  0  0  0  0  0  0  0
  150.9980  144.6124  157.3863 H   0  0  0  0  0  0  0  0  0  0  0  0
  152.5663  143.8387  157.2934 H   0  0  0  0  0  0  0  0  0  0  0  0
  149.2915  143.4588  156.6892 H   0  0  0  0  0  0  0  0  0  0  0  0
  149.4695  140.4959  156.4764 H   0  0  0  0  0  0  0  0  0  0  0  0
  148.0531  141.3062  157.1036 H   0  0  0  0  0  0  0  0  0  0  0  0
  149.1009  142.0153  154.3481 H   0  0  0  0  0  0  0  0  0  0  0  0
  148.0574  140.6253  154.5159 H   0  0  0  0  0  0  0  0  0  0  0  0
  147.5951  143.2261  153.0064 H   0  0  0  0  0  0  0  0  0  0  0  0
  146.4374  141.9105  153.0051 H   0  0  0  0  0  0  0  0  0  0  0  0
  145.9479  144.7647  153.9852 H   0  0  0  0  0  0  0  0  0  0  0  0
  144.8173  143.3418  151.5283 H   0  0  0  0  0  0  0  0  0  0  0  0
  146.0457  144.6045  151.5106 H   0  0  0  0  0  0  0  0  0  0  0  0
  144.4138  144.9742  152.0529 H   0  0  0  0  0  0  0  0  0  0  0  0
  143.6028  144.0958  154.3371 H   0  0  0  0  0  0  0  0  0  0  0  0
  143.9512  142.4667  153.8052 H   0  0  0  0  0  0  0  0  0  0  0  0
  145.1573  143.8586  156.2357 H   0  0  0  0  0  0  0  0  0  0  0  0
  143.2082  141.5093  156.0980 H   0  0  0  0  0  0  0  0  0  0  0  0
  142.8110  143.1510  156.5978 H   0  0  0  0  0  0  0  0  0  0  0  0
  143.9111  142.1799  157.5677 H   0  0  0  0  0  0  0  0  0  0  0  0
  145.6354  141.0026  155.2588 H   0  0  0  0  0  0  0  0  0  0  0  0
  146.2662  141.7236  156.7226 H   0  0  0  0  0  0  0  0  0  0  0  0
  147.3973  143.3418  155.3645 H   0  0  0  0  0  0  0  0  0  0  0  0
  1  2  1  0  0  0  0
  1 22  1  0  0  0  0
  1 23  1  0  0  0  0
  1 24  1  0  0  0  0
  2 21  2  0  0  0  0
  2  3  1  0  0  0  0
  3  4  2  0  0  0  0
  3 25  1  0  0  0  0
  4  5  1  0  0  0  0
  4  6  1  0  0  0  0
  5 26  1  0  0  0  0
  5 27  1  0  0  0  0
  5 28  1  0  0  0  0
  6  7  1  0  0  0  0
  6 21  1  0  0  0  0
  7  8  1  0  0  0  0
  7 29  1  0  0  0  0
  7 30  1  0  0  0  0
  8  9  2  0  0  0  0
  8 10  1  0  0  0  0
 10 11  1  0  0  0  0
 10 31  1  0  0  0  0
 11 12  1  0  0  0  0
 11 32  1  0  0  0  0
 11 33  1  0  0  0  0
 12 13  1  0  0  0  0
 12 34  1  0  0  0  0
 12 35  1  0  0  0  0
 13 20  1  0  0  0  0
 13 14  1  0  0  0  0
 13 50  1  0  0  0  0
 14 15  1  0  0  0  0
 14 36  1  0  0  0  0
 14 37  1  0  0  0  0
 15 16  1  0  0  0  0
 15 17  1  0  0  0  0
 15 38  1  0  0  0  0
 16 39  1  0  0  0  0
 16 40  1  0  0  0  0
 16 41  1  0  0  0  0
 17 18  1  0  0  0  0
 17 42  1  0  0  0  0
 17 43  1  0  0  0  0
 18 19  1  0  0  0  0
 18 20  1  0  0  0  0
 18 44  1  0  0  0  0
 19 45  1  0  0  0  0
 19 46  1  0  0  0  0
 19 47  1  0  0  0  0
 20 48  1  0  0  0  0
 20 49  1  0  0  0  0
M  CHG  1  13   1
M  END
> <s_m_source_file>
AV-unprocessed.smi

> <i_m_source_file_index>
1475

> <i_lp_mmshare_version>
43012

> <i_f3d_flags>
0

> <s_epik_input>
W0NIM11jMVtjSF1jKFtDSDNdKW4objEpW0NIMl1DKD1PKVtOSF1bQ0gyXVtDSDJdTjJbQ0gyXVtDQEBIXShbQ0gzXSlbQ0gyXVtDQEBIXShbQ0gzXSlbQ0gyXTI=

> <s_epik_cmdline>
J2VwaWtfcHl0aG9uJywgJy1waCcsICc3LjAnLCAnLXRuJywgJzgnLCAnLW1hJywgJzIwMCcsICctbWV0YWxfYmluZGluZycsICctaW1hZScsICc8aW5maWxlLm1hZT4nLCAnLW9tYWUnLCAnPG91dGZpbGUubWFlPic=

> <r_lp_tautomer_probability>
1

> <r_epik_Ionization_Penalty>
0.00206431

> <r_epik_Ionization_Penalty_Charging>
0.00187095

> <r_epik_Ionization_Penalty_Neutral>
0.000193364

> <r_epik_State_Penalty>
-0

> <r_epik_Charging_Adjusted_Penalty>
0.00187095

> <i_epik_Tot_Q>
1

> <i_epik_Tot_abs_Q>
1

> <r_epik_Metal_State_Penalty>
-0

> <b_epik_Metal_Only>
0

> <s_lp_Force_Field>
OPLS_2005

> <r_lp_Energy>
13.7816

> <b_lp_Chiralities_Consistent>
1

> <s_lp_Variant>
AV-unprocessed.smi:1475-1

> <Gold.Version>
5.8.1

> <Gold.Id.Protein>
6NUR|6NUR_protein|mol2

> <Gold.PLP.Fitness>
51.9884

> <Gold.PLP.PLP>
-44.2993

> <Gold.PLP.part.hbond>
-2.0000

> <Gold.PLP.part.metal>
0.0000

> <Gold.PLP.part.buried>
-7.2950

> <Gold.PLP.part.nonpolar>
-35.8058

> <Gold.PLP.part.repulsive>
0.1421

> <Gold.PLP.ligand.clash>
0.0000

> <Gold.PLP.ligand.torsion>
0.2249

> <Gold.PLP.Chemscore.Hbond>
2.7000

> <Gold.PLP.Chemscore.CHOScore>
0.0000

> <Gold.PLP.Chemscore.Metal>
0.0000

> <Gold.Chemscore.Hbonds>
donor molecule, donor type, donor heavy atom, donor atom, acceptor molecule, acceptor atom, score
      L1  H    10    31       P1  8028  0.98
      L1  H    13    50       P1  8028  1.34

> <Gold.PLP.Chemscore.Internal.Correction>
0.0388

> <Gold.Rescore>
     Score         DG    S(hbond)    S(metal)    S(lipo)     H(rot)  DE(clash)    DE(int)     intcor
     15.34     -18.35       1.04        0.00     116.15       1.64       2.36       0.65       ----

> <Gold.Chemscore.Fitness>
15.3415

> <Gold.Chemscore.DG>
-18.3501

> <Gold.Chemscore.ZeroCoef>
-5.4800

> <Gold.Chemscore.Hbond>
1.0415

> <Gold.Chemscore.Metal>
0.0000

> <Gold.Chemscore.Lipo>
116.1494

> <Gold.Chemscore.Internal_Hbond>
0.0000

> <Gold.Chemscore.DEClash>
2.3624

> <Gold.Chemscore.DEInternal>
0.6463

> <Gold.Chemscore.Rot>
1.6399

> <Gold.Chemscore.Internal.Correction>
   9.000000E+99

> <Gold.Chemscore.Hbonds>
donor molecule, donor type, donor heavy atom, donor atom, acceptor molecule, acceptor atom, score
      L1  H    10    31       P1  8028  0.91
      L1  H    13    50       P1  8028  0.06

> <Gold.Chemscore.Hbond.Weighted>
-3.4788

> <Gold.Chemscore.Metal.Weighted>
-0.0000

> <Gold.Chemscore.Lipo.Weighted>
-13.5895

> <Gold.Chemscore.Internal_Hbond.Weighted>
0.0000

> <Gold.Chemscore.DEClash.Weighted>
2.3624

> <Gold.Chemscore.DEInternal.Weighted>
0.6463

> <Gold.Chemscore.Rot.Weighted>
4.1982

> <Gold.Chemscore.Internal.Correction.Weighted>
   9.000000E+99

> <Gold.Protein.RotatedTorsions>
[ 6907 6896 6895 6894 ] final   22.11 input  -60.11 | X-H torsion
[ 7974 7965 7964 7962 ] final  -55.01 input  175.53 | X-H torsion
[ 8008 7997 7996 7995 ] final  154.63 input   59.86 | X-H torsion
[ 10167 10162 10161 10158 ] final   65.35 input  -65.29 | X-H torsion
[ 10718 10713 10712 10709 ] final   40.50 input   66.30 | X-H torsion
[ 10763 10752 10751 10750 ] final -165.04 input  -60.55 | X-H torsion
[ 11005 11000 10999 10996 ] final  154.58 input  -57.11 | X-H torsion

> <Gold.Protein.ActiveResidues>
 VAL166  LYS551  ARG553  GLY616  TRP617  ASP618  TYR619  PRO620  LYS621  CYS622 
 ASP623  PHE694  ASN695  SER759  ASP760  ASP761  ALA762  ILE779  LEU786  VAL792 
 PHE793  MET794  SER795  GLU796  ALA797  LYS798  CYS799  TRP800  GLU811  SER814 

> <Gold.Protein.RotatedAtoms>
  151.9221  135.0293  160.0522 H   0  0  0  0  0  0  0  0  0  0  0  0  # atno 6907 bound_to 6896
  152.2190  133.4964  159.5160 H   0  0  0  0  0  0  0  0  0  0  0  0  # atno 6908 bound_to 6896
  150.6995  134.1284  159.4103 H   0  0  0  0  0  0  0  0  0  0  0  0  # atno 6909 bound_to 6896
  145.8791  140.8158  142.9849 H   0  0  0  0  0  0  0  0  0  0  0  0  # atno 7974 bound_to 7965
  156.2521  140.1961  156.6676 H   0  0  0  0  0  0  0  0  0  0  0  0  # atno 8008 bound_to 7997
  154.6417  140.0583  156.9879 H   0  0  0  0  0  0  0  0  0  0  0  0  # atno 8009 bound_to 7997
  155.1552  140.3255  155.4425 H   0  0  0  0  0  0  0  0  0  0  0  0  # atno 8010 bound_to 7997
  140.1123  144.4807  150.6970 H   0  0  0  0  0  0  0  0  0  0  0  0  # atno 10167 bound_to 10162
  157.3829  130.7763  149.7207 H   0  0  0  0  0  0  0  0  0  0  0  0  # atno 10718 bound_to 10713
  154.6970  135.2981  154.9396 H   0  0  0  0  0  0  0  0  0  0  0  0  # atno 10763 bound_to 10752
  154.0341  135.6666  153.4787 H   0  0  0  0  0  0  0  0  0  0  0  0  # atno 10764 bound_to 10752
  153.0653  135.5091  154.8094 H   0  0  0  0  0  0  0  0  0  0  0  0  # atno 10765 bound_to 10752
  140.1502  134.8680  157.2444 H   0  0  0  0  0  0  0  0  0  0  0  0  # atno 11005 bound_to 11000
  144.6727  140.1356  143.7440 LP  0  0  0  0  0  0  0  0  0  0  0  0  # atno 17320 bound_to 7965
  145.9045  139.2450  143.1474 LP  0  0  0  0  0  0  0  0  0  0  0  0  # atno 17321 bound_to 7965
  140.6919  143.2381  151.5108 LP  0  0  0  0  0  0  0  0  0  0  0  0  # atno 17342 bound_to 10162
  139.5613  144.2150  152.1695 LP  0  0  0  0  0  0  0  0  0  0  0  0  # atno 17343 bound_to 10162
  155.9780  130.4056  150.3677 LP  0  0  0  0  0  0  0  0  0  0  0  0  # atno 17370 bound_to 10713
  157.1784  131.0386  151.2761 LP  0  0  0  0  0  0  0  0  0  0  0  0  # atno 17371 bound_to 10713
  140.2614  134.3567  155.7405 LP  0  0  0  0  0  0  0  0  0  0  0  0  # atno 17394 bound_to 11000
  141.2198  133.7371  156.9085 LP  0  0  0  0  0  0  0  0  0  0  0  0  # atno 17395 bound_to 11000

$$$$
