AV-unprocessed.smi:2265|AV-procd|sdf|9143|dock5
  -GOLD-   2272012353D 1   1.00000     0.00000
 Structure written by MMmdl.
 36 37  0  0  0  0  0  0  0  0  1 V2000
  153.0040  143.2553  162.8353 C   0  0  0  0  0  0  0  0  0  0  0  0
  152.4474  143.5758  161.4438 C   0  0  0  0  0  0  0  0  0  0  0  0
  153.2680  142.9301  160.3191 C   0  0  0  0  0  0  0  0  0  0  0  0
  152.7637  143.3113  158.9417 C   0  0  2  0  0  0  0  0  0  0  0  0
  152.4608  144.7489  158.6125 C   0  0  0  0  0  0  0  0  0  0  0  0
  151.3299  143.7483  158.7336 C   0  0  1  0  0  0  0  0  0  0  0  0
  150.6711  143.3777  157.5178 N   0  0  0  0  0  0  0  0  0  0  0  0
  150.4073  142.1358  157.0734 C   0  0  0  0  0  0  0  0  0  0  0  0
  150.7044  141.1498  157.7476 O   0  0  0  0  0  0  0  0  0  0  0  0
  149.7688  142.1049  155.8825 N   0  0  0  0  0  0  0  0  0  0  0  0
  149.3296  140.9887  155.1603 C   0  0  0  0  0  0  0  0  0  0  0  0
  149.8670  139.8063  155.2741 N   0  0  0  0  0  0  0  0  0  0  0  0
  149.4069  138.7172  154.5338 C   0  0  0  0  0  0  0  0  0  0  0  0
  148.3866  138.8530  153.6677 C   0  0  0  0  0  0  0  0  0  0  0  0
  147.7607  140.0947  153.4882 N   0  0  0  0  0  0  0  0  0  0  0  0
  146.6549  140.1878  152.5346 C   0  0  0  0  0  0  0  0  0  0  0  0
  148.1659  141.1907  154.1856 C   0  0  0  0  0  0  0  0  0  0  0  0
  147.6451  142.3015  154.0647 O   0  0  0  0  0  0  0  0  0  0  0  0
  152.4031  143.7279  163.6125 H   0  0  0  0  0  0  0  0  0  0  0  0
  154.0282  143.6138  162.9422 H   0  0  0  0  0  0  0  0  0  0  0  0
  153.0031  142.1808  163.0213 H   0  0  0  0  0  0  0  0  0  0  0  0
  151.4130  143.2354  161.3839 H   0  0  0  0  0  0  0  0  0  0  0  0
  152.4252  144.6573  161.3057 H   0  0  0  0  0  0  0  0  0  0  0  0
  154.3124  143.2332  160.3991 H   0  0  0  0  0  0  0  0  0  0  0  0
  153.2488  141.8442  160.4206 H   0  0  0  0  0  0  0  0  0  0  0  0
  153.2026  142.7209  158.1391 H   0  0  0  0  0  0  0  0  0  0  0  0
  152.5660  145.4843  159.4081 H   0  0  0  0  0  0  0  0  0  0  0  0
  152.7301  145.1002  157.6182 H   0  0  0  0  0  0  0  0  0  0  0  0
  150.7121  143.8654  159.6230 H   0  0  0  0  0  0  0  0  0  0  0  0
  150.2908  144.1393  156.9746 H   0  0  0  0  0  0  0  0  0  0  0  0
  149.5667  143.0076  155.4777 H   0  0  0  0  0  0  0  0  0  0  0  0
  149.9090  137.7743  154.6935 H   0  0  0  0  0  0  0  0  0  0  0  0
  147.9959  138.0398  153.0737 H   0  0  0  0  0  0  0  0  0  0  0  0
  146.8611  140.9474  151.7791 H   0  0  0  0  0  0  0  0  0  0  0  0
  145.7318  140.4601  153.0480 H   0  0  0  0  0  0  0  0  0  0  0  0
  146.4750  139.2485  152.0110 H   0  0  0  0  0  0  0  0  0  0  0  0
  1  2  1  0  0  0  0
  1 19  1  0  0  0  0
  1 20  1  0  0  0  0
  1 21  1  0  0  0  0
  2  3  1  0  0  0  0
  2 22  1  0  0  0  0
  2 23  1  0  0  0  0
  3  4  1  0  0  0  0
  3 24  1  0  0  0  0
  3 25  1  0  0  0  0
  4  6  1  0  0  0  0
  4  5  1  0  0  0  0
  4 26  1  0  0  0  0
  5  6  1  0  0  0  0
  5 27  1  0  0  0  0
  5 28  1  0  0  0  0
  6  7  1  0  0  0  0
  6 29  1  0  0  0  0
  7  8  1  0  0  0  0
  7 30  1  0  0  0  0
  8  9  2  0  0  0  0
  8 10  1  0  0  0  0
 10 11  1  0  0  0  0
 10 31  1  0  0  0  0
 11 17  1  0  0  0  0
 11 12  2  0  0  0  0
 12 13  1  0  0  0  0
 13 14  2  0  0  0  0
 13 32  1  0  0  0  0
 14 15  1  0  0  0  0
 14 33  1  0  0  0  0
 15 16  1  0  0  0  0
 15 17  1  0  0  0  0
 16 34  1  0  0  0  0
 16 35  1  0  0  0  0
 16 36  1  0  0  0  0
 17 18  2  0  0  0  0
M  END
> <s_m_source_file>
AV-unprocessed.smi

> <i_m_source_file_index>
2265

> <i_lp_mmshare_version>
43012

> <i_f3d_flags>
0

> <s_epik_input>
W0NIM11bQ0gyXVtDSDJdW0NAQEhdMVtDSDJdW0NASF0xW05IXUMoPU8pW05IXWMybltjSF1bY0hdbihbQ0gzXSljMj1P

> <s_epik_cmdline>
J2VwaWtfcHl0aG9uJywgJy1waCcsICc3LjAnLCAnLXRuJywgJzgnLCAnLW1hJywgJzIwMCcsICctbWV0YWxfYmluZGluZycsICctaW1hZScsICc8aW5maWxlLm1hZT4nLCAnLW9tYWUnLCAnPG91dGZpbGUubWFlPic=

> <r_lp_tautomer_probability>
1

> <r_epik_Ionization_Penalty>
0.000728552

> <r_epik_Ionization_Penalty_Charging>
1.67739e-07

> <r_epik_Ionization_Penalty_Neutral>
0.000728385

> <r_epik_State_Penalty>
-0

> <r_epik_Charging_Adjusted_Penalty>
1.67739e-07

> <i_epik_Tot_Q>
0

> <i_epik_Tot_abs_Q>
0

> <r_epik_Metal_State_Penalty>
-0

> <b_epik_Metal_Only>
0

> <s_lp_Force_Field>
OPLS_2005

> <r_lp_Energy>
43.0048

> <b_lp_Chiralities_Consistent>
1

> <s_lp_Variant>
AV-unprocessed.smi:2265-1

> <Gold.Version>
5.8.1

> <Gold.Id.Protein>
6NUR|6NUR_protein|mol2

> <Gold.PLP.Fitness>
47.8507

> <Gold.PLP.PLP>
-39.3422

> <Gold.PLP.part.hbond>
-2.2418

> <Gold.PLP.part.metal>
0.0000

> <Gold.PLP.part.buried>
0.0306

> <Gold.PLP.part.nonpolar>
-37.9562

> <Gold.PLP.part.repulsive>
0.4997

> <Gold.PLP.ligand.clash>
0.0000

> <Gold.PLP.ligand.torsion>
0.4750

> <Gold.PLP.Chemscore.Hbond>
1.9600

> <Gold.PLP.Chemscore.CHOScore>
1.0000

> <Gold.PLP.Chemscore.Metal>
0.0000

> <Gold.Chemscore.Hbonds>
donor molecule, donor type, donor heavy atom, donor atom, acceptor molecule, acceptor atom, score
      L1  H     7    30       P1  8028  0.96
      L1  H    10    31       P1  8028  1.00
      L1  C    14    33       P1  7948  1.00

> <Gold.PLP.Chemscore.Internal.Correction>
0.5785

> <Gold.Rescore>
     Score         DG    S(hbond)    S(metal)    S(lipo)     H(rot)  DE(clash)    DE(int)     intcor
     16.43     -18.89       1.87        0.00      93.23       1.46       0.81       1.65       ----

> <Gold.Chemscore.Fitness>
16.4268

> <Gold.Chemscore.DG>
-18.8871

> <Gold.Chemscore.ZeroCoef>
-5.4800

> <Gold.Chemscore.Hbond>
1.8676

> <Gold.Chemscore.Metal>
0.0000

> <Gold.Chemscore.Lipo>
93.2305

> <Gold.Chemscore.Internal_Hbond>
0.0000

> <Gold.Chemscore.DEClash>
0.8090

> <Gold.Chemscore.DEInternal>
1.6512

> <Gold.Chemscore.Rot>
1.4604

> <Gold.Chemscore.Internal.Correction>
   9.000000E+99

> <Gold.Chemscore.Hbonds>
donor molecule, donor type, donor heavy atom, donor atom, acceptor molecule, acceptor atom, score
      L1  H     7    30       P1  8028  0.86
      L1  H    10    31       P1  8028  0.94

> <Gold.Chemscore.Hbond.Weighted>
-6.2379

> <Gold.Chemscore.Metal.Weighted>
-0.0000

> <Gold.Chemscore.Lipo.Weighted>
-10.9080

> <Gold.Chemscore.Internal_Hbond.Weighted>
0.0000

> <Gold.Chemscore.DEClash.Weighted>
0.8090

> <Gold.Chemscore.DEInternal.Weighted>
1.6512

> <Gold.Chemscore.Rot.Weighted>
3.7387

> <Gold.Chemscore.Internal.Correction.Weighted>
   9.000000E+99

> <Gold.Protein.RotatedTorsions>
[ 6907 6896 6895 6894 ] final   76.64 input  -60.11 | X-H torsion
[ 7974 7965 7964 7962 ] final  167.63 input  175.53 | X-H torsion
[ 8008 7997 7996 7995 ] final -123.45 input   59.86 | X-H torsion
[ 10167 10162 10161 10158 ] final  -99.28 input  -65.29 | X-H torsion
[ 10718 10713 10712 10709 ] final   11.46 input   66.30 | X-H torsion
[ 10763 10752 10751 10750 ] final   25.10 input  -60.55 | X-H torsion
[ 11005 11000 10999 10996 ] final  102.16 input  -57.11 | X-H torsion

> <Gold.Protein.ActiveResidues>
 VAL166  LYS551  ARG553  GLY616  TRP617  ASP618  TYR619  PRO620  LYS621  CYS622 
 ASP623  PHE694  ASN695  SER759  ASP760  ASP761  ALA762  ILE779  LEU786  VAL792 
 PHE793  MET794  SER795  GLU796  ALA797  LYS798  CYS799  TRP800  GLU811  SER814 

> <Gold.Protein.RotatedAtoms>
  152.5082  134.3938  159.9392 H   0  0  0  0  0  0  0  0  0  0  0  0  # atno 6907 bound_to 6896
  151.3899  133.3786  159.2727 H   0  0  0  0  0  0  0  0  0  0  0  0  # atno 6908 bound_to 6896
  150.9440  134.8868  159.7689 H   0  0  0  0  0  0  0  0  0  0  0  0  # atno 6909 bound_to 6896
  144.7417  139.8789  143.6394 H   0  0  0  0  0  0  0  0  0  0  0  0  # atno 7974 bound_to 7965
  155.1807  140.0410  157.2881 H   0  0  0  0  0  0  0  0  0  0  0  0  # atno 8008 bound_to 7997
  154.6205  140.2499  155.7527 H   0  0  0  0  0  0  0  0  0  0  0  0  # atno 8009 bound_to 7997
  156.2431  140.2896  156.0511 H   0  0  0  0  0  0  0  0  0  0  0  0  # atno 8010 bound_to 7997
  140.2641  143.3387  152.0597 H   0  0  0  0  0  0  0  0  0  0  0  0  # atno 10167 bound_to 10162
  156.9958  130.6060  149.5691 H   0  0  0  0  0  0  0  0  0  0  0  0  # atno 10718 bound_to 10713
  153.0716  135.6590  154.0235 H   0  0  0  0  0  0  0  0  0  0  0  0  # atno 10763 bound_to 10752
  153.9879  135.2949  155.3416 H   0  0  0  0  0  0  0  0  0  0  0  0  # atno 10764 bound_to 10752
  154.7092  135.5212  153.8711 H   0  0  0  0  0  0  0  0  0  0  0  0  # atno 10765 bound_to 10752
  139.8776  134.9213  156.5016 H   0  0  0  0  0  0  0  0  0  0  0  0  # atno 11005 bound_to 11000
  146.1226  139.4247  143.0219 LP  0  0  0  0  0  0  0  0  0  0  0  0  # atno 17320 bound_to 7965
  145.7282  141.0051  143.1366 LP  0  0  0  0  0  0  0  0  0  0  0  0  # atno 17321 bound_to 7965
  139.5008  144.6699  151.6267 LP  0  0  0  0  0  0  0  0  0  0  0  0  # atno 17342 bound_to 10162
  140.5942  143.9726  150.6344 LP  0  0  0  0  0  0  0  0  0  0  0  0  # atno 17343 bound_to 10162
  156.0189  130.5284  150.8219 LP  0  0  0  0  0  0  0  0  0  0  0  0  # atno 17370 bound_to 10713
  157.5426  131.0941  150.9807 LP  0  0  0  0  0  0  0  0  0  0  0  0  # atno 17371 bound_to 10713
  140.8585  133.8077  155.9241 LP  0  0  0  0  0  0  0  0  0  0  0  0  # atno 17394 bound_to 11000
  140.9073  134.2304  157.5007 LP  0  0  0  0  0  0  0  0  0  0  0  0  # atno 17395 bound_to 11000

$$$$
