AV-unprocessed.smi:1628|AV-procd|sdf|6520|dock7
  -GOLD-   22720 7193D 1   1.00000     0.00000
 Structure written by MMmdl.
 55 57  0  0  0  0  0  0  0  0  2 V2000
  147.0101  139.1903  154.7212 O   0  0  0  0  0  0  0  0  0  0  0  0
  147.7404  139.3233  153.7396 C   0  0  0  0  0  0  0  0  0  0  0  0
  147.4040  138.9064  152.5116 N   0  0  0  0  0  0  0  0  0  0  0  0
  146.1523  138.2346  152.1892 C   0  0  0  0  0  0  0  0  0  0  0  0
  145.8750  137.0968  153.1915 C   0  0  0  0  0  0  0  0  0  0  0  0
  146.2471  135.7481  152.6872 N   0  3  0  0  0  0  0  0  0  0  0  0
  145.3587  135.2693  151.5951 C   0  0  0  0  0  0  0  0  0  0  0  0
  146.0427  134.2549  150.6651 C   0  0  0  0  0  0  0  0  0  0  0  0
  146.5589  132.9824  151.3588 C   0  0  0  0  0  0  0  0  0  0  0  0
  147.8427  133.2317  152.1671 C   0  0  0  0  0  0  0  0  0  0  0  0
  147.6465  133.8403  153.5685 C   0  0  0  0  0  0  0  0  0  0  0  0
  146.4176  134.7440  153.7700 C   0  0  0  0  0  0  0  0  0  0  0  0
  148.9489  139.9116  153.7425 N   0  0  0  0  0  0  0  0  0  0  0  0
  149.6759  140.4262  154.8501 C   0  0  0  0  0  0  0  0  0  0  0  0
  151.0589  140.1690  154.9150 C   0  0  0  0  0  0  0  0  0  0  0  0
  151.7978  140.6460  156.0141 C   0  0  0  0  0  0  0  0  0  0  0  0
  151.1319  141.3672  157.0329 C   0  0  0  0  0  0  0  0  0  0  0  0
  151.8509  141.8550  158.1459 N   0  0  0  0  0  0  0  0  0  0  0  0
  151.6263  143.2590  158.4812 C   0  0  0  0  0  0  0  0  0  0  0  0
  152.6793  143.7436  159.4928 C   0  0  0  0  0  0  0  0  0  0  0  0
  152.6785  142.8951  160.6359 O   0  0  0  0  0  0  0  0  0  0  0  0
  153.0115  141.5530  160.2985 C   0  0  0  0  0  0  0  0  0  0  0  0
  151.9675  140.9907  159.3193 C   0  0  0  0  0  0  0  0  0  0  0  0
  149.7972  141.5970  156.9793 N   0  0  0  0  0  0  0  0  0  0  0  0
  149.0924  141.1407  155.9227 C   0  0  0  0  0  0  0  0  0  0  0  0
  148.0561  139.0604  151.7563 H   0  0  0  0  0  0  0  0  0  0  0  0
  145.3403  138.9633  152.2034 H   0  0  0  0  0  0  0  0  0  0  0  0
  146.2198  137.8482  151.1716 H   0  0  0  0  0  0  0  0  0  0  0  0
  146.4143  137.2839  154.1211 H   0  0  0  0  0  0  0  0  0  0  0  0
  144.8173  137.0878  153.4589 H   0  0  0  0  0  0  0  0  0  0  0  0
  144.4392  134.8500  152.0059 H   0  0  0  0  0  0  0  0  0  0  0  0
  145.0528  136.1194  150.9837 H   0  0  0  0  0  0  0  0  0  0  0  0
  145.3223  133.9615  149.9007 H   0  0  0  0  0  0  0  0  0  0  0  0
  146.8582  134.7396  150.1267 H   0  0  0  0  0  0  0  0  0  0  0  0
  145.7849  132.5250  151.9762 H   0  0  0  0  0  0  0  0  0  0  0  0
  146.7894  132.2522  150.5823 H   0  0  0  0  0  0  0  0  0  0  0  0
  148.3803  132.2895  152.2803 H   0  0  0  0  0  0  0  0  0  0  0  0
  148.5096  133.8705  151.5867 H   0  0  0  0  0  0  0  0  0  0  0  0
  147.5827  133.0302  154.2957 H   0  0  0  0  0  0  0  0  0  0  0  0
  148.5488  134.3936  153.8317 H   0  0  0  0  0  0  0  0  0  0  0  0
  146.5419  135.2449  154.7313 H   0  0  0  0  0  0  0  0  0  0  0  0
  145.5138  134.1422  153.8751 H   0  0  0  0  0  0  0  0  0  0  0  0
  149.3878  140.0363  152.8421 H   0  0  0  0  0  0  0  0  0  0  0  0
  151.5532  139.6116  154.1327 H   0  0  0  0  0  0  0  0  0  0  0  0
  152.8559  140.4391  156.0701 H   0  0  0  0  0  0  0  0  0  0  0  0
  151.6640  143.8967  157.5992 H   0  0  0  0  0  0  0  0  0  0  0  0
  150.6265  143.3628  158.9048 H   0  0  0  0  0  0  0  0  0  0  0  0
  153.6725  143.7626  159.0409 H   0  0  0  0  0  0  0  0  0  0  0  0
  152.4545  144.7626  159.8084 H   0  0  0  0  0  0  0  0  0  0  0  0
  154.0124  141.5125  159.8659 H   0  0  0  0  0  0  0  0  0  0  0  0
  153.0338  140.9529  161.2082 H   0  0  0  0  0  0  0  0  0  0  0  0
  150.9966  140.9159  159.8112 H   0  0  0  0  0  0  0  0  0  0  0  0
  152.2607  139.9840  159.0194 H   0  0  0  0  0  0  0  0  0  0  0  0
  148.0335  141.3418  155.9673 H   0  0  0  0  0  0  0  0  0  0  0  0
  147.1607  135.8726  152.2746 H   0  0  0  0  0  0  0  0  0  0  0  0
  1  2  2  0  0  0  0
  2  3  1  0  0  0  0
  2 13  1  0  0  0  0
  3  4  1  0  0  0  0
  3 26  1  0  0  0  0
  4  5  1  0  0  0  0
  4 27  1  0  0  0  0
  4 28  1  0  0  0  0
  5  6  1  0  0  0  0
  5 29  1  0  0  0  0
  5 30  1  0  0  0  0
  6 12  1  0  0  0  0
  6  7  1  0  0  0  0
  6 55  1  0  0  0  0
  7  8  1  0  0  0  0
  7 31  1  0  0  0  0
  7 32  1  0  0  0  0
  8  9  1  0  0  0  0
  8 33  1  0  0  0  0
  8 34  1  0  0  0  0
  9 10  1  0  0  0  0
  9 35  1  0  0  0  0
  9 36  1  0  0  0  0
 10 11  1  0  0  0  0
 10 37  1  0  0  0  0
 10 38  1  0  0  0  0
 11 12  1  0  0  0  0
 11 39  1  0  0  0  0
 11 40  1  0  0  0  0
 12 41  1  0  0  0  0
 12 42  1  0  0  0  0
 13 14  1  0  0  0  0
 13 43  1  0  0  0  0
 14 25  1  0  0  0  0
 14 15  2  0  0  0  0
 15 16  1  0  0  0  0
 15 44  1  0  0  0  0
 16 17  2  0  0  0  0
 16 45  1  0  0  0  0
 17 18  1  0  0  0  0
 17 24  1  0  0  0  0
 18 23  1  0  0  0  0
 18 19  1  0  0  0  0
 19 20  1  0  0  0  0
 19 46  1  0  0  0  0
 19 47  1  0  0  0  0
 20 21  1  0  0  0  0
 20 48  1  0  0  0  0
 20 49  1  0  0  0  0
 21 22  1  0  0  0  0
 22 23  1  0  0  0  0
 22 50  1  0  0  0  0
 22 51  1  0  0  0  0
 23 52  1  0  0  0  0
 23 53  1  0  0  0  0
 24 25  2  0  0  0  0
 25 54  1  0  0  0  0
M  CHG  1   6   1
M  END
> <s_m_source_file>
AV-unprocessed.smi

> <i_m_source_file_index>
1628

> <i_lp_mmshare_version>
43012

> <i_f3d_flags>
0

> <s_epik_input>
W0NIMl0xW0NIMl1bQ0gyXVtDSDJdW0NIMl1bQ0gyXU4xW0NIMl1bQ0gyXVtOSF1DKD1PKVtOSF1jMltjSF1bY0hdYyhuW2NIXTIpTjNbQ0gyXVtDSDJdT1tDSDJdW0NIMl0z

> <s_epik_cmdline>
J2VwaWtfcHl0aG9uJywgJy1waCcsICc3LjAnLCAnLXRuJywgJzgnLCAnLW1hJywgJzIwMCcsICctbWV0YWxfYmluZGluZycsICctaW1hZScsICc8aW5maWxlLm1hZT4nLCAnLW9tYWUnLCAnPG91dGZpbGUubWFlPic=

> <r_lp_tautomer_probability>
1

> <r_epik_Ionization_Penalty>
0.00380107

> <r_epik_Ionization_Penalty_Charging>
0.00211816

> <r_epik_Ionization_Penalty_Neutral>
0.00168291

> <r_epik_State_Penalty>
-0

> <r_epik_Charging_Adjusted_Penalty>
0.00211816

> <i_epik_Tot_Q>
1

> <i_epik_Tot_abs_Q>
1

> <r_epik_Metal_State_Penalty>
-0

> <b_epik_Metal_Only>
0

> <s_lp_Force_Field>
OPLS_2005

> <r_lp_Energy>
41.9459

> <b_lp_Chiralities_Consistent>
1

> <s_lp_Variant>
AV-unprocessed.smi:1628-1

> <Gold.Version>
5.8.1

> <Gold.Id.Protein>
6NUR|6NUR_protein|mol2

> <Gold.PLP.Fitness>
53.8135

> <Gold.PLP.PLP>
-44.2631

> <Gold.PLP.part.hbond>
-4.0000

> <Gold.PLP.part.metal>
0.0000

> <Gold.PLP.part.buried>
-3.1887

> <Gold.PLP.part.nonpolar>
-37.6079

> <Gold.PLP.part.repulsive>
0.4258

> <Gold.PLP.ligand.clash>
0.0000

> <Gold.PLP.ligand.torsion>
1.2542

> <Gold.PLP.Chemscore.Hbond>
3.8800

> <Gold.PLP.Chemscore.CHOScore>
0.0000

> <Gold.PLP.Chemscore.Metal>
0.0000

> <Gold.Chemscore.Hbonds>
donor molecule, donor type, donor heavy atom, donor atom, acceptor molecule, acceptor atom, score
      L1  H     3    26       P1  7957  0.96
      L1  H     6    55       P1  7948  2.00
      L1  H    13    43       P1  7957  1.00

> <Gold.PLP.Chemscore.Internal.Correction>
0.4189

> <Gold.Rescore>
     Score         DG    S(hbond)    S(metal)    S(lipo)     H(rot)  DE(clash)    DE(int)     intcor
     19.31     -23.54       2.88        0.00     107.26       1.60       1.16       3.07       ----

> <Gold.Chemscore.Fitness>
19.3138

> <Gold.Chemscore.DG>
-23.5422

> <Gold.Chemscore.ZeroCoef>
-5.4800

> <Gold.Chemscore.Hbond>
2.8750

> <Gold.Chemscore.Metal>
0.0000

> <Gold.Chemscore.Lipo>
107.2613

> <Gold.Chemscore.Internal_Hbond>
0.0000

> <Gold.Chemscore.DEClash>
1.1562

> <Gold.Chemscore.DEInternal>
3.0722

> <Gold.Chemscore.Rot>
1.5976

> <Gold.Chemscore.Internal.Correction>
   9.000000E+99

> <Gold.Chemscore.Hbonds>
donor molecule, donor type, donor heavy atom, donor atom, acceptor molecule, acceptor atom, score
      L1  H     3    26       P1  7957  0.88
      L1  H     6    55       P1  7948  1.00
      L1  H    13    43       P1  7957  1.00

> <Gold.Chemscore.Hbond.Weighted>
-9.6025

> <Gold.Chemscore.Metal.Weighted>
-0.0000

> <Gold.Chemscore.Lipo.Weighted>
-12.5496

> <Gold.Chemscore.Internal_Hbond.Weighted>
0.0000

> <Gold.Chemscore.DEClash.Weighted>
1.1562

> <Gold.Chemscore.DEInternal.Weighted>
3.0722

> <Gold.Chemscore.Rot.Weighted>
4.0899

> <Gold.Chemscore.Internal.Correction.Weighted>
   9.000000E+99

> <Gold.Protein.RotatedTorsions>
[ 6907 6896 6895 6894 ] final  144.83 input  -60.11 | X-H torsion
[ 7974 7965 7964 7962 ] final -154.62 input  175.53 | X-H torsion
[ 8008 7997 7996 7995 ] final  132.54 input   59.86 | X-H torsion
[ 10167 10162 10161 10158 ] final -176.49 input  -65.29 | X-H torsion
[ 10718 10713 10712 10709 ] final -173.90 input   66.30 | X-H torsion
[ 10763 10752 10751 10750 ] final  176.82 input  -60.55 | X-H torsion
[ 11005 11000 10999 10996 ] final  -41.91 input  -57.11 | X-H torsion

> <Gold.Protein.ActiveResidues>
 VAL166  LYS551  ARG553  GLY616  TRP617  ASP618  TYR619  PRO620  LYS621  CYS622 
 ASP623  PHE694  ASN695  SER759  ASP760  ASP761  ALA762  ILE779  LEU786  VAL792 
 PHE793  MET794  SER795  GLU796  ALA797  LYS798  CYS799  TRP800  GLU811  SER814 

> <Gold.Protein.RotatedAtoms>
  152.1886  133.4757  159.4995 H   0  0  0  0  0  0  0  0  0  0  0  0  # atno 6907 bound_to 6896
  150.6947  134.1742  159.4233 H   0  0  0  0  0  0  0  0  0  0  0  0  # atno 6908 bound_to 6896
  151.9655  135.0102  160.0600 H   0  0  0  0  0  0  0  0  0  0  0  0  # atno 6909 bound_to 6896
  144.7680  140.4362  143.5928 H   0  0  0  0  0  0  0  0  0  0  0  0  # atno 7974 bound_to 7965
  156.2983  140.2544  156.3106 H   0  0  0  0  0  0  0  0  0  0  0  0  # atno 8008 bound_to 7997
  154.9329  140.0398  157.2076 H   0  0  0  0  0  0  0  0  0  0  0  0  # atno 8009 bound_to 7997
  154.8200  140.2858  155.5797 H   0  0  0  0  0  0  0  0  0  0  0  0  # atno 8010 bound_to 7997
  139.5527  144.2068  152.1105 H   0  0  0  0  0  0  0  0  0  0  0  0  # atno 10167 bound_to 10162
  156.7771  130.9470  151.3120 H   0  0  0  0  0  0  0  0  0  0  0  0  # atno 10718 bound_to 10713
  154.4862  135.2777  155.1532 H   0  0  0  0  0  0  0  0  0  0  0  0  # atno 10763 bound_to 10752
  154.3222  135.6207  153.5517 H   0  0  0  0  0  0  0  0  0  0  0  0  # atno 10764 bound_to 10752
  152.9881  135.5745  154.5274 H   0  0  0  0  0  0  0  0  0  0  0  0  # atno 10765 bound_to 10752
  141.0279  133.6833  156.2522 H   0  0  0  0  0  0  0  0  0  0  0  0  # atno 11005 bound_to 11000
  145.6410  139.1550  143.2915 LP  0  0  0  0  0  0  0  0  0  0  0  0  # atno 17320 bound_to 7965
  146.1804  140.6507  142.9192 LP  0  0  0  0  0  0  0  0  0  0  0  0  # atno 17321 bound_to 7965
  140.1567  144.5064  150.6656 LP  0  0  0  0  0  0  0  0  0  0  0  0  # atno 17342 bound_to 10162
  140.6793  143.2319  151.5426 LP  0  0  0  0  0  0  0  0  0  0  0  0  # atno 17343 bound_to 10162
  157.6664  130.9011  149.9941 LP  0  0  0  0  0  0  0  0  0  0  0  0  # atno 17370 bound_to 10713
  156.1241  130.3645  149.9838 LP  0  0  0  0  0  0  0  0  0  0  0  0  # atno 17371 bound_to 10713
  140.6459  134.5118  157.5573 LP  0  0  0  0  0  0  0  0  0  0  0  0  # atno 17394 bound_to 11000
  139.9188  134.8191  156.1278 LP  0  0  0  0  0  0  0  0  0  0  0  0  # atno 17395 bound_to 11000

$$$$
