AV-unprocessed.smi:1525|AV-procd|sdf|6143|dock5
  -GOLD-   22720 6283D 1   1.00000     0.00000
 Structure written by MMmdl.
 49 51  0  0  0  0  0  0  0  0  2 V2000
  149.4992  132.4122  154.8022 O   0  0  0  0  0  0  0  0  0  0  0  0
  148.8263  133.1776  154.1118 C   0  0  0  0  0  0  0  0  0  0  0  0
  148.9514  134.5116  154.1457 N   0  0  0  0  0  0  0  0  0  0  0  0
  149.8765  135.2416  155.0037 C   0  0  0  0  0  0  0  0  0  0  0  0
  149.6113  136.7574  154.9412 C   0  0  0  0  0  0  0  0  0  0  0  0
  150.7389  137.5977  155.3387 N   0  0  0  0  0  0  0  0  0  0  0  0
  151.7212  137.6933  154.2637 C   0  0  0  0  0  0  0  0  0  0  0  0
  152.9195  138.5759  154.6535 C   0  0  0  0  0  0  0  0  0  0  0  0
  152.4559  139.8693  155.0261 O   0  0  0  0  0  0  0  0  0  0  0  0
  151.5276  139.8286  156.1048 C   0  0  0  0  0  0  0  0  0  0  0  0
  150.3258  138.9462  155.7229 C   0  0  0  0  0  0  0  0  0  0  0  0
  147.8648  132.7993  153.2531 N   0  0  0  0  0  0  0  0  0  0  0  0
  147.4289  131.4770  152.9538 C   0  0  0  0  0  0  0  0  0  0  0  0
  148.0632  130.3351  153.5070 C   0  0  0  0  0  0  0  0  0  0  0  0
  147.6005  129.0472  153.1749 C   0  0  0  0  0  0  0  0  0  0  0  0
  146.5173  128.9191  152.2876 C   0  0  0  0  0  0  0  0  0  0  0  0
  145.9465  130.0244  151.7653 N   0  3  0  0  0  0  0  0  0  0  0  0
  146.3478  131.2882  152.0496 C   0  0  0  0  0  0  0  0  0  0  0  0
  145.6919  132.3692  151.4228 N   0  0  0  0  0  0  0  0  0  0  0  0
  145.8024  132.3683  149.9661 C   0  0  0  0  0  0  0  0  0  0  0  0
  144.4516  132.8438  149.4252 C   0  0  0  0  0  0  0  0  0  0  0  0
  143.4787  132.4675  150.5359 C   0  0  0  0  0  0  0  0  0  0  0  0
  144.3149  132.6919  151.7936 C   0  0  0  0  0  0  0  0  0  0  0  0
  148.3576  135.0647  153.5455 H   0  0  0  0  0  0  0  0  0  0  0  0
  149.8005  134.8639  156.0240 H   0  0  0  0  0  0  0  0  0  0  0  0
  150.8910  135.0280  154.6669 H   0  0  0  0  0  0  0  0  0  0  0  0
  149.3393  137.0021  153.9134 H   0  0  0  0  0  0  0  0  0  0  0  0
  148.7388  137.0051  155.5479 H   0  0  0  0  0  0  0  0  0  0  0  0
  152.0796  136.6977  153.9999 H   0  0  0  0  0  0  0  0  0  0  0  0
  151.2504  138.1024  153.3683 H   0  0  0  0  0  0  0  0  0  0  0  0
  153.4773  138.1293  155.4780 H   0  0  0  0  0  0  0  0  0  0  0  0
  153.6089  138.6723  153.8147 H   0  0  0  0  0  0  0  0  0  0  0  0
  152.0184  139.4453  157.0007 H   0  0  0  0  0  0  0  0  0  0  0  0
  151.1972  140.8426  156.3297 H   0  0  0  0  0  0  0  0  0  0  0  0
  149.7811  139.4145  154.9015 H   0  0  0  0  0  0  0  0  0  0  0  0
  149.6420  138.9072  156.5700 H   0  0  0  0  0  0  0  0  0  0  0  0
  147.3245  133.5425  152.8354 H   0  0  0  0  0  0  0  0  0  0  0  0
  148.9077  130.4259  154.1730 H   0  0  0  0  0  0  0  0  0  0  0  0
  148.0743  128.1704  153.5919 H   0  0  0  0  0  0  0  0  0  0  0  0
  146.0985  127.9737  151.9744 H   0  0  0  0  0  0  0  0  0  0  0  0
  146.6110  133.0193  149.6330 H   0  0  0  0  0  0  0  0  0  0  0  0
  146.0135  131.3605  149.6043 H   0  0  0  0  0  0  0  0  0  0  0  0
  144.4636  133.9273  149.2988 H   0  0  0  0  0  0  0  0  0  0  0  0
  144.1982  132.3952  148.4642 H   0  0  0  0  0  0  0  0  0  0  0  0
  142.5630  133.0595  150.5226 H   0  0  0  0  0  0  0  0  0  0  0  0
  143.2053  131.4150  150.4513 H   0  0  0  0  0  0  0  0  0  0  0  0
  143.9279  132.1293  152.6431 H   0  0  0  0  0  0  0  0  0  0  0  0
  144.2859  133.7450  152.0749 H   0  0  0  0  0  0  0  0  0  0  0  0
  145.1705  129.9007  151.1148 H   0  0  0  0  0  0  0  0  0  0  0  0
  1  2  2  0  0  0  0
  2  3  1  0  0  0  0
  2 12  1  0  0  0  0
  3  4  1  0  0  0  0
  3 24  1  0  0  0  0
  4  5  1  0  0  0  0
  4 25  1  0  0  0  0
  4 26  1  0  0  0  0
  5  6  1  0  0  0  0
  5 27  1  0  0  0  0
  5 28  1  0  0  0  0
  6 11  1  0  0  0  0
  6  7  1  0  0  0  0
  7  8  1  0  0  0  0
  7 29  1  0  0  0  0
  7 30  1  0  0  0  0
  8  9  1  0  0  0  0
  8 31  1  0  0  0  0
  8 32  1  0  0  0  0
  9 10  1  0  0  0  0
 10 11  1  0  0  0  0
 10 33  1  0  0  0  0
 10 34  1  0  0  0  0
 11 35  1  0  0  0  0
 11 36  1  0  0  0  0
 12 13  1  0  0  0  0
 12 37  1  0  0  0  0
 13 18  1  0  0  0  0
 13 14  2  0  0  0  0
 14 15  1  0  0  0  0
 14 38  1  0  0  0  0
 15 16  2  0  0  0  0
 15 39  1  0  0  0  0
 16 17  1  0  0  0  0
 16 40  1  0  0  0  0
 17 18  2  0  0  0  0
 17 49  1  0  0  0  0
 18 19  1  0  0  0  0
 19 23  1  0  0  0  0
 19 20  1  0  0  0  0
 20 21  1  0  0  0  0
 20 41  1  0  0  0  0
 20 42  1  0  0  0  0
 21 22  1  0  0  0  0
 21 43  1  0  0  0  0
 21 44  1  0  0  0  0
 22 23  1  0  0  0  0
 22 45  1  0  0  0  0
 22 46  1  0  0  0  0
 23 47  1  0  0  0  0
 23 48  1  0  0  0  0
M  CHG  1  17   1
M  END
> <s_m_source_file>
AV-unprocessed.smi

> <i_m_source_file_index>
1525

> <i_lp_mmshare_version>
43012

> <i_f3d_flags>
0

> <s_epik_input>
W0NIMl0xW0NIMl1PW0NIMl1bQ0gyXU4xW0NIMl1bQ0gyXVtOSF1DKD1PKVtOSF1jMltjSF1bY0hdW2NIXW5jMk4zW0NIMl1bQ0gyXVtDSDJdW0NIMl0z

> <s_epik_cmdline>
J2VwaWtfcHl0aG9uJywgJy1waCcsICc3LjAnLCAnLXRuJywgJzgnLCAnLW1hJywgJzIwMCcsICctbWV0YWxfYmluZGluZycsICctaW1hZScsICc8aW5maWxlLm1hZT4nLCAnLW9tYWUnLCAnPG91dGZpbGUubWFlPic=

> <r_epik_Ionization_Penalty>
1.38385

> <r_epik_Ionization_Penalty_Charging>
1.11784

> <r_epik_Ionization_Penalty_Neutral>
0.26601

> <r_epik_State_Penalty>
1.46794

> <r_epik_Charging_Adjusted_Penalty>
2.58578

> <i_epik_Tot_Q>
1

> <i_epik_Tot_abs_Q>
1

> <r_epik_Metal_State_Penalty>
1.54909

> <b_epik_Metal_Only>
0

> <s_lp_Force_Field>
OPLS_2005

> <r_lp_Energy>
56.1891

> <b_lp_Chiralities_Consistent>
1

> <s_lp_Variant>
AV-unprocessed.smi:1525-3

> <Gold.Version>
5.8.1

> <Gold.Id.Protein>
6NUR|6NUR_protein|mol2

> <Gold.PLP.Fitness>
43.7711

> <Gold.PLP.PLP>
-40.5464

> <Gold.PLP.part.hbond>
-2.3945

> <Gold.PLP.part.metal>
0.0000

> <Gold.PLP.part.buried>
-3.6599

> <Gold.PLP.part.nonpolar>
-34.2506

> <Gold.PLP.part.repulsive>
0.2774

> <Gold.PLP.ligand.clash>
0.0000

> <Gold.PLP.ligand.torsion>
0.4121

> <Gold.PLP.Chemscore.Hbond>
1.2871

> <Gold.PLP.Chemscore.CHOScore>
0.0000

> <Gold.PLP.Chemscore.Metal>
0.0000

> <Gold.Chemscore.Hbonds>
donor molecule, donor type, donor heavy atom, donor atom, acceptor molecule, acceptor atom, score
      L1  H     3    24       P1  7948  0.42
      P1  H  7989  7998       L1     9  0.62
      P1  H  7997  8010       L1     9  0.20

> <Gold.PLP.Chemscore.Internal.Correction>
0.1877

> <Gold.Rescore>
     Score         DG    S(hbond)    S(metal)    S(lipo)     H(rot)  DE(clash)    DE(int)     intcor
     13.92     -15.98       0.85        0.00     101.35       1.63       0.24       1.82       ----

> <Gold.Chemscore.Fitness>
13.9228

> <Gold.Chemscore.DG>
-15.9846

> <Gold.Chemscore.ZeroCoef>
-5.4800

> <Gold.Chemscore.Hbond>
0.8459

> <Gold.Chemscore.Metal>
0.0000

> <Gold.Chemscore.Lipo>
101.3510

> <Gold.Chemscore.Internal_Hbond>
0.0000

> <Gold.Chemscore.DEClash>
0.2395

> <Gold.Chemscore.DEInternal>
1.8223

> <Gold.Chemscore.Rot>
1.6323

> <Gold.Chemscore.Internal.Correction>
   9.000000E+99

> <Gold.Chemscore.Hbonds>
donor molecule, donor type, donor heavy atom, donor atom, acceptor molecule, acceptor atom, score
      L1  H     3    24       P1  7948  0.39
      P1  H  7989  7998       L1     9  0.40

> <Gold.Chemscore.Hbond.Weighted>
-2.8252

> <Gold.Chemscore.Metal.Weighted>
-0.0000

> <Gold.Chemscore.Lipo.Weighted>
-11.8581

> <Gold.Chemscore.Internal_Hbond.Weighted>
0.0000

> <Gold.Chemscore.DEClash.Weighted>
0.2395

> <Gold.Chemscore.DEInternal.Weighted>
1.8223

> <Gold.Chemscore.Rot.Weighted>
4.1786

> <Gold.Chemscore.Internal.Correction.Weighted>
   9.000000E+99

> <Gold.Protein.RotatedTorsions>
[ 6907 6896 6895 6894 ] final -129.31 input  -60.11 | X-H torsion
[ 7974 7965 7964 7962 ] final  -32.83 input  175.53 | X-H torsion
[ 8008 7997 7996 7995 ] final  103.78 input   59.86 | X-H torsion
[ 10167 10162 10161 10158 ] final  172.59 input  -65.29 | X-H torsion
[ 10718 10713 10712 10709 ] final -142.10 input   66.30 | X-H torsion
[ 10763 10752 10751 10750 ] final   63.42 input  -60.55 | X-H torsion
[ 11005 11000 10999 10996 ] final  134.22 input  -57.11 | X-H torsion

> <Gold.Protein.ActiveResidues>
 VAL166  LYS551  ARG553  GLY616  TRP617  ASP618  TYR619  PRO620  LYS621  CYS622 
 ASP623  PHE694  ASN695  SER759  ASP760  ASP761  ALA762  ILE779  LEU786  VAL792 
 PHE793  MET794  SER795  GLU796  ALA797  LYS798  CYS799  TRP800  GLU811  SER814 

> <Gold.Protein.RotatedAtoms>
  150.9273  133.6808  159.2818 H   0  0  0  0  0  0  0  0  0  0  0  0  # atno 6907 bound_to 6896
  151.4242  135.1000  159.9633 H   0  0  0  0  0  0  0  0  0  0  0  0  # atno 6908 bound_to 6896
  152.5009  133.8718  159.7357 H   0  0  0  0  0  0  0  0  0  0  0  0  # atno 6909 bound_to 6896
  146.0959  140.5841  142.8843 H   0  0  0  0  0  0  0  0  0  0  0  0  # atno 7974 bound_to 7965
  156.1514  140.3159  155.8654 H   0  0  0  0  0  0  0  0  0  0  0  0  # atno 8008 bound_to 7997
  155.3963  140.0497  157.3056 H   0  0  0  0  0  0  0  0  0  0  0  0  # atno 8009 bound_to 7997
  154.5062  140.2148  155.9258 H   0  0  0  0  0  0  0  0  0  0  0  0  # atno 8010 bound_to 7997
  139.5081  144.3357  152.0068 H   0  0  0  0  0  0  0  0  0  0  0  0  # atno 10167 bound_to 10162
  156.3419  130.7642  151.1779 H   0  0  0  0  0  0  0  0  0  0  0  0  # atno 10718 bound_to 10713
  153.0017  135.5430  154.6349 H   0  0  0  0  0  0  0  0  0  0  0  0  # atno 10763 bound_to 10752
  154.5618  135.2834  155.0914 H   0  0  0  0  0  0  0  0  0  0  0  0  # atno 10764 bound_to 10752
  154.2114  135.6466  153.5169 H   0  0  0  0  0  0  0  0  0  0  0  0  # atno 10765 bound_to 10752
  139.9901  134.9518  156.9835 H   0  0  0  0  0  0  0  0  0  0  0  0  # atno 11005 bound_to 11000
  144.7395  140.4902  143.6879 LP  0  0  0  0  0  0  0  0  0  0  0  0  # atno 17320 bound_to 7965
  145.5949  139.1498  143.3161 LP  0  0  0  0  0  0  0  0  0  0  0  0  # atno 17321 bound_to 7965
  140.2795  144.3875  150.6123 LP  0  0  0  0  0  0  0  0  0  0  0  0  # atno 17342 bound_to 10162
  140.6028  143.2167  151.7038 LP  0  0  0  0  0  0  0  0  0  0  0  0  # atno 17343 bound_to 10162
  157.7448  131.0452  150.4832 LP  0  0  0  0  0  0  0  0  0  0  0  0  # atno 17370 bound_to 10713
  156.5013  130.4118  149.6351 LP  0  0  0  0  0  0  0  0  0  0  0  0  # atno 17371 bound_to 10713
  140.4926  134.1178  155.7235 LP  0  0  0  0  0  0  0  0  0  0  0  0  # atno 17394 bound_to 11000
  141.1558  133.8885  157.1980 LP  0  0  0  0  0  0  0  0  0  0  0  0  # atno 17395 bound_to 11000

$$$$
