AV-unprocessed.smi:1529|AV-procd|sdf|6154|dock4
  -GOLD-   22720 6303D 1   1.00000     0.00000
 Structure written by MMmdl.
 50 51  0  0  0  0  0  0  0  0  1 V2000
  146.2813  133.2535  151.1177 C   0  0  0  0  0  0  0  0  0  0  0  0
  145.4573  134.5266  151.2793 C   0  0  0  0  0  0  0  0  0  0  0  0
  144.2875  134.5581  150.8986 O   0  0  0  0  0  0  0  0  0  0  0  0
  146.0819  135.5695  151.8468 N   0  0  0  0  0  0  0  0  0  0  0  0
  145.4787  136.8735  152.0981 C   0  0  0  0  0  0  0  0  0  0  0  0
  146.2530  137.6633  153.1657 C   0  0  0  0  0  0  0  0  0  0  0  0
  146.9329  138.9139  152.5853 C   0  0  0  0  0  0  0  0  0  0  0  0
  147.7853  139.5711  153.5694 N   0  0  0  0  0  0  0  0  0  0  0  0
  147.5294  140.7607  154.1385 C   0  0  0  0  0  0  0  0  0  0  0  0
  146.5240  141.4281  153.8948 O   0  0  0  0  0  0  0  0  0  0  0  0
  148.5236  141.2167  155.1670 C   0  0  0  0  0  0  0  0  0  0  0  0
  149.9089  140.9883  155.0164 C   0  0  0  0  0  0  0  0  0  0  0  0
  150.7929  141.4578  156.0069 C   0  0  0  0  0  0  0  0  0  0  0  0
  150.2729  142.1530  157.1237 C   0  0  0  0  0  0  0  0  0  0  0  0
  151.1419  142.6280  158.1290 N   0  0  0  0  0  0  0  0  0  0  0  0
  151.9254  143.8084  157.7756 C   0  0  0  0  0  0  0  0  0  0  0  0
  152.5817  144.4311  159.0232 C   0  0  1  0  0  0  0  0  0  0  0  0
  151.5939  145.2107  159.9095 C   0  0  0  0  0  0  0  0  0  0  0  0
  153.2952  143.4335  159.7571 O   0  0  0  0  0  0  0  0  0  0  0  0
  152.5132  142.3062  160.1494 C   0  0  2  0  0  0  0  0  0  0  0  0
  153.4236  141.3405  160.9149 C   0  0  0  0  0  0  0  0  0  0  0  0
  151.8979  141.6469  158.9026 C   0  0  0  0  0  0  0  0  0  0  0  0
  148.9445  142.3879  157.2569 N   0  0  0  0  0  0  0  0  0  0  0  0
  148.1007  141.9358  156.3052 C   0  0  0  0  0  0  0  0  0  0  0  0
  147.2023  133.4614  150.5721 H   0  0  0  0  0  0  0  0  0  0  0  0
  145.7222  132.4970  150.5660 H   0  0  0  0  0  0  0  0  0  0  0  0
  146.5415  132.8423  152.0936 H   0  0  0  0  0  0  0  0  0  0  0  0
  147.0442  135.4495  152.1287 H   0  0  0  0  0  0  0  0  0  0  0  0
  145.4183  137.4437  151.1693 H   0  0  0  0  0  0  0  0  0  0  0  0
  144.4527  136.7110  152.4289 H   0  0  0  0  0  0  0  0  0  0  0  0
  145.5732  137.9576  153.9666 H   0  0  0  0  0  0  0  0  0  0  0  0
  147.0053  137.0177  153.6212 H   0  0  0  0  0  0  0  0  0  0  0  0
  147.5155  138.6563  151.6992 H   0  0  0  0  0  0  0  0  0  0  0  0
  146.1774  139.6303  152.2616 H   0  0  0  0  0  0  0  0  0  0  0  0
  148.6237  139.0819  153.8470 H   0  0  0  0  0  0  0  0  0  0  0  0
  150.3012  140.4669  154.1554 H   0  0  0  0  0  0  0  0  0  0  0  0
  151.8544  141.2957  155.8916 H   0  0  0  0  0  0  0  0  0  0  0  0
  152.7001  143.5019  157.0714 H   0  0  0  0  0  0  0  0  0  0  0  0
  151.3254  144.5625  157.2678 H   0  0  0  0  0  0  0  0  0  0  0  0
  153.3292  145.1473  158.6806 H   0  0  0  0  0  0  0  0  0  0  0  0
  151.1684  146.0527  159.3633 H   0  0  0  0  0  0  0  0  0  0  0  0
  152.0947  145.6093  160.7922 H   0  0  0  0  0  0  0  0  0  0  0  0
  150.7618  144.5925  160.2461 H   0  0  0  0  0  0  0  0  0  0  0  0
  151.7190  142.6266  160.8237 H   0  0  0  0  0  0  0  0  0  0  0  0
  152.8719  140.4606  161.2467 H   0  0  0  0  0  0  0  0  0  0  0  0
  153.8459  141.8205  161.7980 H   0  0  0  0  0  0  0  0  0  0  0  0
  154.2516  141.0016  160.2917 H   0  0  0  0  0  0  0  0  0  0  0  0
  151.2467  140.8283  159.2121 H   0  0  0  0  0  0  0  0  0  0  0  0
  152.6817  141.2210  158.2745 H   0  0  0  0  0  0  0  0  0  0  0  0
  147.0551  142.1544  156.4675 H   0  0  0  0  0  0  0  0  0  0  0  0
  1  2  1  0  0  0  0
  1 25  1  0  0  0  0
  1 26  1  0  0  0  0
  1 27  1  0  0  0  0
  2  3  2  0  0  0  0
  2  4  1  0  0  0  0
  4  5  1  0  0  0  0
  4 28  1  0  0  0  0
  5  6  1  0  0  0  0
  5 29  1  0  0  0  0
  5 30  1  0  0  0  0
  6  7  1  0  0  0  0
  6 31  1  0  0  0  0
  6 32  1  0  0  0  0
  7  8  1  0  0  0  0
  7 33  1  0  0  0  0
  7 34  1  0  0  0  0
  8  9  1  0  0  0  0
  8 35  1  0  0  0  0
  9 10  2  0  0  0  0
  9 11  1  0  0  0  0
 11 24  1  0  0  0  0
 11 12  2  0  0  0  0
 12 13  1  0  0  0  0
 12 36  1  0  0  0  0
 13 14  2  0  0  0  0
 13 37  1  0  0  0  0
 14 15  1  0  0  0  0
 14 23  1  0  0  0  0
 15 22  1  0  0  0  0
 15 16  1  0  0  0  0
 16 17  1  0  0  0  0
 16 38  1  0  0  0  0
 16 39  1  0  0  0  0
 17 18  1  0  0  0  0
 17 19  1  0  0  0  0
 17 40  1  0  0  0  0
 18 41  1  0  0  0  0
 18 42  1  0  0  0  0
 18 43  1  0  0  0  0
 19 20  1  0  0  0  0
 20 21  1  0  0  0  0
 20 22  1  0  0  0  0
 20 44  1  0  0  0  0
 21 45  1  0  0  0  0
 21 46  1  0  0  0  0
 21 47  1  0  0  0  0
 22 48  1  0  0  0  0
 22 49  1  0  0  0  0
 23 24  2  0  0  0  0
 24 50  1  0  0  0  0
M  END
> <s_m_source_file>
AV-unprocessed.smi

> <i_m_source_file_index>
1529

> <i_lp_mmshare_version>
43012

> <i_f3d_flags>
0

> <s_epik_input>
W0NIM11DKD1PKVtOSF1bQ0gyXVtDSDJdW0NIMl1bTkhdQyg9TyljMVtjSF1bY0hdYyhuW2NIXTEpTjJbQ0gyXVtDQEBIXShbQ0gzXSlPW0NAQEhdKFtDSDNdKVtDSDJdMg==

> <s_epik_cmdline>
J2VwaWtfcHl0aG9uJywgJy1waCcsICc3LjAnLCAnLXRuJywgJzgnLCAnLW1hJywgJzIwMCcsICctbWV0YWxfYmluZGluZycsICctaW1hZScsICc8aW5maWxlLm1hZT4nLCAnLW9tYWUnLCAnPG91dGZpbGUubWFlPic=

> <r_lp_tautomer_probability>
1

> <r_epik_Ionization_Penalty>
2.1474e-05

> <r_epik_Ionization_Penalty_Charging>
0

> <r_epik_Ionization_Penalty_Neutral>
2.1474e-05

> <r_epik_State_Penalty>
-0

> <r_epik_Charging_Adjusted_Penalty>
0

> <i_epik_Tot_Q>
0

> <i_epik_Tot_abs_Q>
0

> <r_epik_Metal_State_Penalty>
-0

> <b_epik_Metal_Only>
0

> <s_lp_Force_Field>
OPLS_2005

> <r_lp_Energy>
18.7347

> <b_lp_Chiralities_Consistent>
1

> <s_lp_Variant>
AV-unprocessed.smi:1529-3

> <Gold.Version>
5.8.1

> <Gold.Id.Protein>
6NUR|6NUR_protein|mol2

> <Gold.PLP.Fitness>
48.3813

> <Gold.PLP.PLP>
-47.5511

> <Gold.PLP.part.hbond>
-1.8816

> <Gold.PLP.part.metal>
0.0000

> <Gold.PLP.part.buried>
-5.0761

> <Gold.PLP.part.nonpolar>
-42.0164

> <Gold.PLP.part.repulsive>
1.8126

> <Gold.PLP.ligand.clash>
0.0000

> <Gold.PLP.ligand.torsion>
1.2598

> <Gold.PLP.Chemscore.Hbond>
1.0000

> <Gold.PLP.Chemscore.CHOScore>
0.0000

> <Gold.PLP.Chemscore.Metal>
0.0000

> <Gold.Chemscore.Hbonds>
donor molecule, donor type, donor heavy atom, donor atom, acceptor molecule, acceptor atom, score
      L1  H     4    28       P1  7948  0.80

> <Gold.PLP.Chemscore.Internal.Correction>
0.3498

> <Gold.Rescore>
     Score         DG    S(hbond)    S(metal)    S(lipo)     H(rot)  DE(clash)    DE(int)     intcor
     15.41     -17.11       0.99        0.00     116.40       2.07       0.48       1.22       ----

> <Gold.Chemscore.Fitness>
15.4094

> <Gold.Chemscore.DG>
-17.1094

> <Gold.Chemscore.ZeroCoef>
-5.4800

> <Gold.Chemscore.Hbond>
0.9920

> <Gold.Chemscore.Metal>
0.0000

> <Gold.Chemscore.Lipo>
116.3992

> <Gold.Chemscore.Internal_Hbond>
0.0000

> <Gold.Chemscore.DEClash>
0.4768

> <Gold.Chemscore.DEInternal>
1.2233

> <Gold.Chemscore.Rot>
2.0713

> <Gold.Chemscore.Internal.Correction>
   9.000000E+99

> <Gold.Chemscore.Hbonds>
donor molecule, donor type, donor heavy atom, donor atom, acceptor molecule, acceptor atom, score
      L1  H     4    28       P1  7948  0.75

> <Gold.Chemscore.Hbond.Weighted>
-3.3132

> <Gold.Chemscore.Metal.Weighted>
-0.0000

> <Gold.Chemscore.Lipo.Weighted>
-13.6187

> <Gold.Chemscore.Internal_Hbond.Weighted>
0.0000

> <Gold.Chemscore.DEClash.Weighted>
0.4768

> <Gold.Chemscore.DEInternal.Weighted>
1.2233

> <Gold.Chemscore.Rot.Weighted>
5.3025

> <Gold.Chemscore.Internal.Correction.Weighted>
   9.000000E+99

> <Gold.Protein.RotatedTorsions>
[ 6907 6896 6895 6894 ] final   17.98 input  -60.11 | X-H torsion
[ 7974 7965 7964 7962 ] final  128.61 input  175.53 | X-H torsion
[ 8008 7997 7996 7995 ] final  164.69 input   59.86 | X-H torsion
[ 10167 10162 10161 10158 ] final   70.21 input  -65.29 | X-H torsion
[ 10718 10713 10712 10709 ] final -143.92 input   66.30 | X-H torsion
[ 10763 10752 10751 10750 ] final  177.73 input  -60.55 | X-H torsion
[ 11005 11000 10999 10996 ] final  168.98 input  -57.11 | X-H torsion

> <Gold.Protein.ActiveResidues>
 VAL166  LYS551  ARG553  GLY616  TRP617  ASP618  TYR619  PRO620  LYS621  CYS622 
 ASP623  PHE694  ASN695  SER759  ASP760  ASP761  ALA762  ILE779  LEU786  VAL792 
 PHE793  MET794  SER795  GLU796  ALA797  LYS798  CYS799  TRP800  GLU811  SER814 

> <Gold.Protein.RotatedAtoms>
  151.8581  135.0534  160.0466 H   0  0  0  0  0  0  0  0  0  0  0  0  # atno 6907 bound_to 6896
  152.2684  133.5355  159.5432 H   0  0  0  0  0  0  0  0  0  0  0  0  # atno 6908 bound_to 6896
  150.7142  134.0648  159.3886 H   0  0  0  0  0  0  0  0  0  0  0  0  # atno 6909 bound_to 6896
  145.0377  139.3990  143.5118 H   0  0  0  0  0  0  0  0  0  0  0  0  # atno 7974 bound_to 7965
  156.1860  140.1690  156.8184 H   0  0  0  0  0  0  0  0  0  0  0  0  # atno 8008 bound_to 7997
  154.5415  140.0736  156.8549 H   0  0  0  0  0  0  0  0  0  0  0  0  # atno 8009 bound_to 7997
  155.3206  140.3373  155.4243 H   0  0  0  0  0  0  0  0  0  0  0  0  # atno 8010 bound_to 7997
  140.0594  144.5245  150.7305 H   0  0  0  0  0  0  0  0  0  0  0  0  # atno 10167 bound_to 10162
  156.3638  130.7752  151.1924 H   0  0  0  0  0  0  0  0  0  0  0  0  # atno 10718 bound_to 10713
  154.4983  135.2782  155.1441 H   0  0  0  0  0  0  0  0  0  0  0  0  # atno 10763 bound_to 10752
  154.3085  135.6234  153.5459 H   0  0  0  0  0  0  0  0  0  0  0  0  # atno 10764 bound_to 10752
  152.9898  135.5714  154.5420 H   0  0  0  0  0  0  0  0  0  0  0  0  # atno 10765 bound_to 10752
  140.2929  134.7658  157.3853 H   0  0  0  0  0  0  0  0  0  0  0  0  # atno 11005 bound_to 11000
  146.3506  139.9961  142.8681 LP  0  0  0  0  0  0  0  0  0  0  0  0  # atno 17320 bound_to 7965
  145.1688  140.9710  143.4334 LP  0  0  0  0  0  0  0  0  0  0  0  0  # atno 17321 bound_to 7965
  140.7179  143.2561  151.4375 LP  0  0  0  0  0  0  0  0  0  0  0  0  # atno 17342 bound_to 10162
  139.5903  144.1513  152.2080 LP  0  0  0  0  0  0  0  0  0  0  0  0  # atno 17343 bound_to 10162
  157.7476  131.0392  150.4539 LP  0  0  0  0  0  0  0  0  0  0  0  0  # atno 17370 bound_to 10713
  156.4755  130.4062  149.6493 LP  0  0  0  0  0  0  0  0  0  0  0  0  # atno 17371 bound_to 10713
  140.1179  134.5259  155.8209 LP  0  0  0  0  0  0  0  0  0  0  0  0  # atno 17394 bound_to 11000
  141.2143  133.6746  156.6810 LP  0  0  0  0  0  0  0  0  0  0  0  0  # atno 17395 bound_to 11000

$$$$
