AV-unprocessed.smi:3305|AV-procd|sdf|12699|dock4
  -GOLD-   2272019 33D 1   1.00000     0.00000
 Structure written by MMmdl.
 32 33  0  0  0  0  0  0  0  0  1 V2000
  152.6597  143.4939  161.7102 C   0  0  0  0  0  0  0  0  0  0  0  0
  152.2211  143.5318  160.2803 C   0  0  0  0  0  0  0  0  0  0  0  0
  152.4108  144.5508  159.3804 C   0  0  0  0  0  0  0  0  0  0  0  0
  151.7145  144.1830  157.8255 S   0  0  0  0  0  0  0  0  0  0  0  0
  151.1948  142.6269  158.4610 C   0  0  0  0  0  0  0  0  0  0  0  0
  150.3964  141.6399  157.6695 C   0  0  0  0  0  0  0  0  0  0  0  0
  150.2868  141.9828  156.1687 C   0  0  0  0  0  0  0  0  0  0  0  0
  150.2392  140.7986  155.3162 N   0  0  0  0  0  0  0  0  0  0  0  0
  151.2925  140.0293  155.0026 C   0  0  0  0  0  0  0  0  0  0  0  0
  152.4463  140.2958  155.3407 O   0  0  0  0  0  0  0  0  0  0  0  0
  150.9846  138.7501  154.2086 C   0  0  2  0  0  0  0  0  0  0  0  0
  150.0824  137.7956  154.9984 C   0  0  0  0  0  0  0  0  0  0  0  0
  150.9478  136.5590  155.2515 C   0  0  0  0  0  0  0  0  0  0  0  0
  152.2783  137.0070  155.0531 O   0  0  0  0  0  0  0  0  0  0  0  0
  152.2438  137.9088  153.9593 C   0  0  0  0  0  0  0  0  0  0  0  0
  151.5312  142.4437  159.7412 N   0  0  0  0  0  0  0  0  0  0  0  0
  153.1960  144.4013  161.9882 H   0  0  0  0  0  0  0  0  0  0  0  0
  153.3224  142.6486  161.8964 H   0  0  0  0  0  0  0  0  0  0  0  0
  151.8047  143.3979  162.3799 H   0  0  0  0  0  0  0  0  0  0  0  0
  152.9098  145.4954  159.5391 H   0  0  0  0  0  0  0  0  0  0  0  0
  150.8427  140.6527  157.7904 H   0  0  0  0  0  0  0  0  0  0  0  0
  149.3990  141.5764  158.1068 H   0  0  0  0  0  0  0  0  0  0  0  0
  149.3659  142.5397  155.9947 H   0  0  0  0  0  0  0  0  0  0  0  0
  151.1053  142.6370  155.8647 H   0  0  0  0  0  0  0  0  0  0  0  0
  149.3277  140.5060  154.9951 H   0  0  0  0  0  0  0  0  0  0  0  0
  150.5253  139.0187  153.2561 H   0  0  0  0  0  0  0  0  0  0  0  0
  149.7557  138.2267  155.9466 H   0  0  0  0  0  0  0  0  0  0  0  0
  149.1823  137.5362  154.4404 H   0  0  0  0  0  0  0  0  0  0  0  0
  150.8100  136.1470  156.2512 H   0  0  0  0  0  0  0  0  0  0  0  0
  150.7213  135.7763  154.5260 H   0  0  0  0  0  0  0  0  0  0  0  0
  152.1544  137.3496  153.0266 H   0  0  0  0  0  0  0  0  0  0  0  0
  153.1608  138.4972  153.9071 H   0  0  0  0  0  0  0  0  0  0  0  0
  1  2  1  0  0  0  0
  1 17  1  0  0  0  0
  1 18  1  0  0  0  0
  1 19  1  0  0  0  0
  2 16  1  0  0  0  0
  2  3  2  0  0  0  0
  3  4  1  0  0  0  0
  3 20  1  0  0  0  0
  4  5  1  0  0  0  0
  5  6  1  0  0  0  0
  5 16  2  0  0  0  0
  6  7  1  0  0  0  0
  6 21  1  0  0  0  0
  6 22  1  0  0  0  0
  7  8  1  0  0  0  0
  7 23  1  0  0  0  0
  7 24  1  0  0  0  0
  8  9  1  0  0  0  0
  8 25  1  0  0  0  0
  9 10  2  0  0  0  0
  9 11  1  0  0  0  0
 11 15  1  0  0  0  0
 11 12  1  0  0  0  0
 11 26  1  0  0  0  0
 12 13  1  0  0  0  0
 12 27  1  0  0  0  0
 12 28  1  0  0  0  0
 13 14  1  0  0  0  0
 13 29  1  0  0  0  0
 13 30  1  0  0  0  0
 14 15  1  0  0  0  0
 15 31  1  0  0  0  0
 15 32  1  0  0  0  0
M  END
> <s_m_source_file>
AV-unprocessed.smi

> <i_m_source_file_index>
3305

> <i_lp_mmshare_version>
43012

> <i_f3d_flags>
0

> <s_epik_input>
W0NIM11jMVtjSF1zYyhuMSlbQ0gyXVtDSDJdW05IXUMoPU8pW0NAQEhdMltDSDJdW0NIMl1PW0NIMl0y

> <s_epik_cmdline>
J2VwaWtfcHl0aG9uJywgJy1waCcsICc3LjAnLCAnLXRuJywgJzgnLCAnLW1hJywgJzIwMCcsICctbWV0YWxfYmluZGluZycsICctaW1hZScsICc8aW5maWxlLm1hZT4nLCAnLW9tYWUnLCAnPG91dGZpbGUubWFlPic=

> <r_epik_Ionization_Penalty>
0.00102754

> <r_epik_Ionization_Penalty_Charging>
0

> <r_epik_Ionization_Penalty_Neutral>
0.00102754

> <r_epik_State_Penalty>
0.000671034

> <r_epik_Charging_Adjusted_Penalty>
0.000671034

> <i_epik_Tot_Q>
0

> <i_epik_Tot_abs_Q>
0

> <r_epik_Metal_State_Penalty>
-0

> <b_epik_Metal_Only>
0

> <s_lp_Force_Field>
OPLS_2005

> <r_lp_Energy>
8.47785

> <b_lp_Chiralities_Consistent>
1

> <s_lp_Variant>
AV-unprocessed.smi:3305-1

> <Gold.Version>
5.8.1

> <Gold.Id.Protein>
6NUR|6NUR_protein|mol2

> <Gold.PLP.Fitness>
40.3039

> <Gold.PLP.PLP>
-35.1158

> <Gold.PLP.part.hbond>
-3.4490

> <Gold.PLP.part.metal>
0.0000

> <Gold.PLP.part.buried>
0.3799

> <Gold.PLP.part.nonpolar>
-31.9135

> <Gold.PLP.part.repulsive>
0.1991

> <Gold.PLP.ligand.clash>
0.0000

> <Gold.PLP.ligand.torsion>
0.4196

> <Gold.PLP.Chemscore.Hbond>
1.9920

> <Gold.PLP.Chemscore.CHOScore>
0.0000

> <Gold.PLP.Chemscore.Metal>
0.0000

> <Gold.Chemscore.Hbonds>
donor molecule, donor type, donor heavy atom, donor atom, acceptor molecule, acceptor atom, score
      P1  H  7997  8010       L1    10  0.88
      P1  H 10752 10764       L1    14  0.69

> <Gold.PLP.Chemscore.Internal.Correction>
0.0513

> <Gold.Rescore>
     Score         DG    S(hbond)    S(metal)    S(lipo)     H(rot)  DE(clash)    DE(int)     intcor
     15.44     -16.98       1.22        0.00      96.54       1.52       1.12       0.42       ----

> <Gold.Chemscore.Fitness>
15.4429

> <Gold.Chemscore.DG>
-16.9803

> <Gold.Chemscore.ZeroCoef>
-5.4800

> <Gold.Chemscore.Hbond>
1.2233

> <Gold.Chemscore.Metal>
0.0000

> <Gold.Chemscore.Lipo>
96.5398

> <Gold.Chemscore.Internal_Hbond>
0.0000

> <Gold.Chemscore.DEClash>
1.1221

> <Gold.Chemscore.DEInternal>
0.4152

> <Gold.Chemscore.Rot>
1.5159

> <Gold.Chemscore.Internal.Correction>
   9.000000E+99

> <Gold.Chemscore.Hbonds>
donor molecule, donor type, donor heavy atom, donor atom, acceptor molecule, acceptor atom, score
      P1  H  7997  8010       L1    10  0.84
      P1  H 10752 10764       L1    14  0.17

> <Gold.Chemscore.Hbond.Weighted>
-4.0858

> <Gold.Chemscore.Metal.Weighted>
-0.0000

> <Gold.Chemscore.Lipo.Weighted>
-11.2952

> <Gold.Chemscore.Internal_Hbond.Weighted>
0.0000

> <Gold.Chemscore.DEClash.Weighted>
1.1221

> <Gold.Chemscore.DEInternal.Weighted>
0.4152

> <Gold.Chemscore.Rot.Weighted>
3.8807

> <Gold.Chemscore.Internal.Correction.Weighted>
   9.000000E+99

> <Gold.Protein.RotatedTorsions>
[ 6907 6896 6895 6894 ] final  154.59 input  -60.11 | X-H torsion
[ 7974 7965 7964 7962 ] final  -99.92 input  175.53 | X-H torsion
[ 8008 7997 7996 7995 ] final   87.17 input   59.86 | X-H torsion
[ 10167 10162 10161 10158 ] final   87.88 input  -65.29 | X-H torsion
[ 10718 10713 10712 10709 ] final   97.83 input   66.30 | X-H torsion
[ 10763 10752 10751 10750 ] final  -39.71 input  -60.55 | X-H torsion
[ 11005 11000 10999 10996 ] final -117.46 input  -57.11 | X-H torsion

> <Gold.Protein.ActiveResidues>
 VAL166  LYS551  ARG553  GLY616  TRP617  ASP618  TYR619  PRO620  LYS621  CYS622 
 ASP623  PHE694  ASN695  SER759  ASP760  ASP761  ALA762  ILE779  LEU786  VAL792 
 PHE793  MET794  SER795  GLU796  ALA797  LYS798  CYS799  TRP800  GLU811  SER814 

> <Gold.Protein.RotatedAtoms>
  152.0563  133.4042  159.4398 H   0  0  0  0  0  0  0  0  0  0  0  0  # atno 6907 bound_to 6896
  150.6868  134.3251  159.4812 H   0  0  0  0  0  0  0  0  0  0  0  0  # atno 6908 bound_to 6896
  152.1066  134.9303  160.0618 H   0  0  0  0  0  0  0  0  0  0  0  0  # atno 6909 bound_to 6896
  145.3013  140.9378  143.2822 H   0  0  0  0  0  0  0  0  0  0  0  0  # atno 7974 bound_to 7965
  155.9720  140.3385  155.6584 H   0  0  0  0  0  0  0  0  0  0  0  0  # atno 8008 bound_to 7997
  155.6661  140.0721  157.2555 H   0  0  0  0  0  0  0  0  0  0  0  0  # atno 8009 bound_to 7997
  154.4169  140.1700  156.1817 H   0  0  0  0  0  0  0  0  0  0  0  0  # atno 8010 bound_to 7997
  139.8729  144.6483  150.8929 H   0  0  0  0  0  0  0  0  0  0  0  0  # atno 10167 bound_to 10162
  157.6906  131.0621  150.4704 H   0  0  0  0  0  0  0  0  0  0  0  0  # atno 10718 bound_to 10713
  153.9339  135.6769  153.4745 H   0  0  0  0  0  0  0  0  0  0  0  0  # atno 10763 bound_to 10752
  153.0966  135.4848  154.8786 H   0  0  0  0  0  0  0  0  0  0  0  0  # atno 10764 bound_to 10752
  154.7413  135.3161  154.8680 H   0  0  0  0  0  0  0  0  0  0  0  0  # atno 10765 bound_to 10752
  141.0353  133.9919  157.3080 H   0  0  0  0  0  0  0  0  0  0  0  0  # atno 11005 bound_to 11000
  144.9091  139.4551  143.6595 LP  0  0  0  0  0  0  0  0  0  0  0  0  # atno 17320 bound_to 7965
  146.3151  139.7889  142.8990 LP  0  0  0  0  0  0  0  0  0  0  0  0  # atno 17321 bound_to 7965
  140.7758  143.3649  151.1758 LP  0  0  0  0  0  0  0  0  0  0  0  0  # atno 17342 bound_to 10162
  139.7267  143.9137  152.3005 LP  0  0  0  0  0  0  0  0  0  0  0  0  # atno 17343 bound_to 10162
  156.5042  130.4124  149.6336 LP  0  0  0  0  0  0  0  0  0  0  0  0  # atno 17370 bound_to 10713
  156.3300  130.7326  151.2254 LP  0  0  0  0  0  0  0  0  0  0  0  0  # atno 17371 bound_to 10713
  139.9236  135.0201  156.8155 LP  0  0  0  0  0  0  0  0  0  0  0  0  # atno 17394 bound_to 11000
  140.6333  133.9885  155.7672 LP  0  0  0  0  0  0  0  0  0  0  0  0  # atno 17395 bound_to 11000

$$$$
