AV-unprocessed.smi:1741|AV-procd|sdf|7017|dock6
  -GOLD-   22720 8233D 1   1.00000     0.00000
 Structure written by MMmdl.
 38 39  0  0  0  0  0  0  0  0  1 V2000
  146.0102  142.9648  153.7676 C   0  0  0  0  0  0  0  0  0  0  0  0
  147.4397  142.6089  154.1913 C   0  0  0  0  0  0  0  0  0  0  0  0
  147.7199  141.2003  153.9941 N   0  0  0  0  0  0  0  0  0  0  0  0
  146.9381  140.2569  153.3576 C   0  0  0  0  0  0  0  0  0  0  0  0
  147.6321  139.0834  153.4442 C   0  0  0  0  0  0  0  0  0  0  0  0
  147.2892  137.7972  152.9561 N   0  0  0  0  0  0  0  0  0  0  0  0
  146.0724  137.2292  152.9381 C   0  0  0  0  0  0  0  0  0  0  0  0
  145.0420  137.7544  153.3601 O   0  0  0  0  0  0  0  0  0  0  0  0
  146.1200  136.0021  152.4003 N   0  0  0  0  0  0  0  0  0  0  0  0
  144.9903  135.0870  152.2519 C   0  0  1  0  0  0  0  0  0  0  0  0
  143.7712  135.8824  151.7595 C   0  0  0  0  0  0  0  0  0  0  0  0
  145.3819  133.9472  151.2909 C   0  0  2  0  0  0  0  0  0  0  0  0
  144.2352  133.0087  150.9122 C   0  0  0  0  0  0  0  0  0  0  0  0
  144.9814  131.7518  150.5296 C   0  0  0  0  0  0  0  0  0  0  0  0
  146.1060  131.7330  151.5597 C   0  0  0  0  0  0  0  0  0  0  0  0
  146.3533  133.0956  151.8968 O   0  0  0  0  0  0  0  0  0  0  0  0
  148.8266  139.3907  154.1457 C   0  0  0  0  0  0  0  0  0  0  0  0
  148.8714  140.6721  154.4776 N   0  0  0  0  0  0  0  0  0  0  0  0
  145.8153  144.0270  153.9160 H   0  0  0  0  0  0  0  0  0  0  0  0
  145.2762  142.4068  154.3496 H   0  0  0  0  0  0  0  0  0  0  0  0
  145.8439  142.7400  152.7136 H   0  0  0  0  0  0  0  0  0  0  0  0
  148.1603  143.1904  153.6148 H   0  0  0  0  0  0  0  0  0  0  0  0
  147.5988  142.8594  155.2412 H   0  0  0  0  0  0  0  0  0  0  0  0
  145.9844  140.5058  152.9160 H   0  0  0  0  0  0  0  0  0  0  0  0
  148.0526  137.2492  152.5872 H   0  0  0  0  0  0  0  0  0  0  0  0
  147.0169  135.6609  152.0873 H   0  0  0  0  0  0  0  0  0  0  0  0
  144.7314  134.6465  153.2164 H   0  0  0  0  0  0  0  0  0  0  0  0
  142.8866  135.2498  151.6867 H   0  0  0  0  0  0  0  0  0  0  0  0
  143.9512  136.3183  150.7761 H   0  0  0  0  0  0  0  0  0  0  0  0
  143.5310  136.6952  152.4457 H   0  0  0  0  0  0  0  0  0  0  0  0
  145.8230  134.3553  150.3796 H   0  0  0  0  0  0  0  0  0  0  0  0
  143.5943  132.8138  151.7733 H   0  0  0  0  0  0  0  0  0  0  0  0
  143.6151  133.3977  150.1040 H   0  0  0  0  0  0  0  0  0  0  0  0
  144.3606  130.8560  150.5588 H   0  0  0  0  0  0  0  0  0  0  0  0
  145.3922  131.8526  149.5241 H   0  0  0  0  0  0  0  0  0  0  0  0
  145.7892  131.2070  152.4611 H   0  0  0  0  0  0  0  0  0  0  0  0
  147.0057  131.2466  151.1822 H   0  0  0  0  0  0  0  0  0  0  0  0
  149.6438  138.7407  154.4216 H   0  0  0  0  0  0  0  0  0  0  0  0
  1  2  1  0  0  0  0
  1 19  1  0  0  0  0
  1 20  1  0  0  0  0
  1 21  1  0  0  0  0
  2  3  1  0  0  0  0
  2 22  1  0  0  0  0
  2 23  1  0  0  0  0
  3 18  1  0  0  0  0
  3  4  1  0  0  0  0
  4  5  2  0  0  0  0
  4 24  1  0  0  0  0
  5  6  1  0  0  0  0
  5 17  1  0  0  0  0
  6  7  1  0  0  0  0
  6 25  1  0  0  0  0
  7  8  2  0  0  0  0
  7  9  1  0  0  0  0
  9 10  1  0  0  0  0
  9 26  1  0  0  0  0
 10 11  1  0  0  0  0
 10 12  1  0  0  0  0
 10 27  1  0  0  0  0
 11 28  1  0  0  0  0
 11 29  1  0  0  0  0
 11 30  1  0  0  0  0
 12 16  1  0  0  0  0
 12 13  1  0  0  0  0
 12 31  1  0  0  0  0
 13 14  1  0  0  0  0
 13 32  1  0  0  0  0
 13 33  1  0  0  0  0
 14 15  1  0  0  0  0
 14 34  1  0  0  0  0
 14 35  1  0  0  0  0
 15 16  1  0  0  0  0
 15 36  1  0  0  0  0
 15 37  1  0  0  0  0
 17 18  2  0  0  0  0
 17 38  1  0  0  0  0
M  END
> <s_m_source_file>
AV-unprocessed.smi

> <i_m_source_file_index>
1741

> <i_lp_mmshare_version>
43012

> <i_f3d_flags>
0

> <s_epik_input>
W0NIM11bQ0gyXW4xW2NIXWMoW2NIXW4xKVtOSF1DKD1PKVtOSF1bQ0BIXShbQ0gzXSlbQ0BASF0yW0NIMl1bQ0gyXVtDSDJdTzI=

> <s_epik_cmdline>
J2VwaWtfcHl0aG9uJywgJy1waCcsICc3LjAnLCAnLXRuJywgJzgnLCAnLW1hJywgJzIwMCcsICctbWV0YWxfYmluZGluZycsICctaW1hZScsICc8aW5maWxlLm1hZT4nLCAnLW9tYWUnLCAnPG91dGZpbGUubWFlPic=

> <r_lp_tautomer_probability>
1

> <r_epik_Ionization_Penalty>
0.000179292

> <r_epik_Ionization_Penalty_Charging>
0

> <r_epik_Ionization_Penalty_Neutral>
0.000179292

> <r_epik_State_Penalty>
-0

> <r_epik_Charging_Adjusted_Penalty>
0

> <i_epik_Tot_Q>
0

> <i_epik_Tot_abs_Q>
0

> <r_epik_Metal_State_Penalty>
-0

> <b_epik_Metal_Only>
0

> <s_lp_Force_Field>
OPLS_2005

> <r_lp_Energy>
22.1754

> <b_lp_Chiralities_Consistent>
1

> <s_lp_Variant>
AV-unprocessed.smi:1741-2

> <Gold.Version>
5.8.1

> <Gold.Id.Protein>
6NUR|6NUR_protein|mol2

> <Gold.PLP.Fitness>
37.7592

> <Gold.PLP.PLP>
-30.4079

> <Gold.PLP.part.hbond>
-1.9856

> <Gold.PLP.part.metal>
0.0000

> <Gold.PLP.part.buried>
-2.2410

> <Gold.PLP.part.nonpolar>
-26.7104

> <Gold.PLP.part.repulsive>
0.5560

> <Gold.PLP.ligand.clash>
0.0000

> <Gold.PLP.ligand.torsion>
0.6292

> <Gold.PLP.Chemscore.Hbond>
1.8640

> <Gold.PLP.Chemscore.CHOScore>
1.0000

> <Gold.PLP.Chemscore.Metal>
0.0000

> <Gold.Chemscore.Hbonds>
donor molecule, donor type, donor heavy atom, donor atom, acceptor molecule, acceptor atom, score
      L1  H     6    25       P1  7948  1.00
      L1  H     9    26       P1  7948  0.86
      L1  C     4    24       P1 10175  1.00

> <Gold.PLP.Chemscore.Internal.Correction>
0.0177

> <Gold.Rescore>
     Score         DG    S(hbond)    S(metal)    S(lipo)     H(rot)  DE(clash)    DE(int)     intcor
     14.85     -16.27       1.96        0.00      66.58       1.38       0.11       1.31       ----

> <Gold.Chemscore.Fitness>
14.8482

> <Gold.Chemscore.DG>
-16.2704

> <Gold.Chemscore.ZeroCoef>
-5.4800

> <Gold.Chemscore.Hbond>
1.9553

> <Gold.Chemscore.Metal>
0.0000

> <Gold.Chemscore.Lipo>
66.5791

> <Gold.Chemscore.Internal_Hbond>
0.0000

> <Gold.Chemscore.DEClash>
0.1127

> <Gold.Chemscore.DEInternal>
1.3094

> <Gold.Chemscore.Rot>
1.3790

> <Gold.Chemscore.Internal.Correction>
   9.000000E+99

> <Gold.Chemscore.Hbonds>
donor molecule, donor type, donor heavy atom, donor atom, acceptor molecule, acceptor atom, score
      L1  H     6    25       P1  7948  0.93
      L1  H     9    26       P1  7948  0.82

> <Gold.Chemscore.Hbond.Weighted>
-6.5308

> <Gold.Chemscore.Metal.Weighted>
-0.0000

> <Gold.Chemscore.Lipo.Weighted>
-7.7898

> <Gold.Chemscore.Internal_Hbond.Weighted>
0.0000

> <Gold.Chemscore.DEClash.Weighted>
0.1127

> <Gold.Chemscore.DEInternal.Weighted>
1.3094

> <Gold.Chemscore.Rot.Weighted>
3.5302

> <Gold.Chemscore.Internal.Correction.Weighted>
   9.000000E+99

> <Gold.Protein.RotatedTorsions>
[ 6907 6896 6895 6894 ] final  179.01 input  -60.11 | X-H torsion
[ 7974 7965 7964 7962 ] final  -44.73 input  175.53 | X-H torsion
[ 8008 7997 7996 7995 ] final -156.57 input   59.86 | X-H torsion
[ 10167 10162 10161 10158 ] final -141.60 input  -65.29 | X-H torsion
[ 10718 10713 10712 10709 ] final  -61.91 input   66.30 | X-H torsion
[ 10763 10752 10751 10750 ] final   66.83 input  -60.55 | X-H torsion
[ 11005 11000 10999 10996 ] final  -98.99 input  -57.11 | X-H torsion

> <Gold.Protein.ActiveResidues>
 VAL166  LYS551  ARG553  GLY616  TRP617  ASP618  TYR619  PRO620  LYS621  CYS622 
 ASP623  PHE694  ASN695  SER759  ASP760  ASP761  ALA762  ILE779  LEU786  VAL792 
 PHE793  MET794  SER795  GLU796  ALA797  LYS798  CYS799  TRP800  GLU811  SER814 

> <Gold.Protein.RotatedAtoms>
  151.6785  133.3312  159.3213 H   0  0  0  0  0  0  0  0  0  0  0  0  # atno 6907 bound_to 6896
  150.7834  134.6801  159.6448 H   0  0  0  0  0  0  0  0  0  0  0  0  # atno 6908 bound_to 6896
  152.3897  134.6464  160.0164 H   0  0  0  0  0  0  0  0  0  0  0  0  # atno 6909 bound_to 6896
  145.9891  140.7200  142.9326 H   0  0  0  0  0  0  0  0  0  0  0  0  # atno 7974 bound_to 7965
  155.7192  140.0788  157.2338 H   0  0  0  0  0  0  0  0  0  0  0  0  # atno 8008 bound_to 7997
  154.4047  140.1616  156.2437 H   0  0  0  0  0  0  0  0  0  0  0  0  # atno 8009 bound_to 7997
  155.9212  140.3397  155.6177 H   0  0  0  0  0  0  0  0  0  0  0  0  # atno 8010 bound_to 7997
  139.8169  143.7626  152.2665 H   0  0  0  0  0  0  0  0  0  0  0  0  # atno 10167 bound_to 10162
  156.0890  130.4203  150.1061 H   0  0  0  0  0  0  0  0  0  0  0  0  # atno 10718 bound_to 10713
  153.0158  135.5306  154.6885 H   0  0  0  0  0  0  0  0  0  0  0  0  # atno 10763 bound_to 10752
  154.6026  135.2870  155.0521 H   0  0  0  0  0  0  0  0  0  0  0  0  # atno 10764 bound_to 10752
  154.1573  135.6553  153.5030 H   0  0  0  0  0  0  0  0  0  0  0  0  # atno 10765 bound_to 10752
  141.1325  133.8287  157.0912 H   0  0  0  0  0  0  0  0  0  0  0  0  # atno 11005 bound_to 11000
  144.6883  140.3039  143.7259 LP  0  0  0  0  0  0  0  0  0  0  0  0  # atno 17320 bound_to 7965
  145.7657  139.1839  143.2241 LP  0  0  0  0  0  0  0  0  0  0  0  0  # atno 17321 bound_to 7965
  139.7792  144.7450  151.0112 LP  0  0  0  0  0  0  0  0  0  0  0  0  # atno 17342 bound_to 10162
  140.7815  143.4560  151.0345 LP  0  0  0  0  0  0  0  0  0  0  0  0  # atno 17343 bound_to 10162
  156.9075  130.9641  151.3568 LP  0  0  0  0  0  0  0  0  0  0  0  0  # atno 17370 bound_to 10713
  157.6033  130.8529  149.8836 LP  0  0  0  0  0  0  0  0  0  0  0  0  # atno 17371 bound_to 10713
  140.0391  134.9863  157.0928 LP  0  0  0  0  0  0  0  0  0  0  0  0  # atno 17394 bound_to 11000
  140.4163  134.1927  155.7163 LP  0  0  0  0  0  0  0  0  0  0  0  0  # atno 17395 bound_to 11000

$$$$
