AV-unprocessed.smi:1936|AV-procd|sdf|7829|dock9
  -GOLD-   22720 9573D 1   1.00000     0.00000
 Structure written by MMmdl.
 38 39  0  0  0  0  0  0  0  0  1 V2000
  145.0941  137.7770  154.1760 C   0  0  0  0  0  0  0  0  0  0  0  0
  146.1767  137.6529  153.0959 C   0  0  2  0  0  0  0  0  0  0  0  0
  146.8030  139.0214  152.7516 C   0  0  0  0  0  0  0  0  0  0  0  0
  147.6670  139.5940  153.7868 N   0  0  0  0  0  0  0  0  0  0  0  0
  147.9924  140.9975  153.5450 C   0  0  0  0  0  0  0  0  0  0  0  0
  148.8975  141.5713  154.6487 C   0  0  0  0  0  0  0  0  0  0  0  0
  150.0778  140.7821  154.7607 O   0  0  0  0  0  0  0  0  0  0  0  0
  149.8008  139.4131  155.0377 C   0  0  0  0  0  0  0  0  0  0  0  0
  148.9033  138.8352  153.9300 C   0  0  0  0  0  0  0  0  0  0  0  0
  145.6045  137.0620  151.8886 N   0  0  0  0  0  0  0  0  0  0  0  0
  144.7855  135.9996  151.8476 C   0  0  0  0  0  0  0  0  0  0  0  0
  144.2821  135.4834  152.8449 O   0  0  0  0  0  0  0  0  0  0  0  0
  144.5312  135.4014  150.4647 C   0  0  0  0  0  0  0  0  0  0  0  0
  144.9376  134.0063  150.4323 N   0  0  0  0  0  0  0  0  0  0  0  0
  144.2154  132.9110  150.0034 C   0  0  0  0  0  0  0  0  0  0  0  0
  145.0160  131.8141  150.1441 C   0  0  0  0  0  0  0  0  0  0  0  0
  146.2258  132.3452  150.6725 C   0  0  0  0  0  0  0  0  0  0  0  0
  146.1759  133.6563  150.8442 N   0  0  0  0  0  0  0  0  0  0  0  0
  145.5018  138.2097  155.0899 H   0  0  0  0  0  0  0  0  0  0  0  0
  144.6800  136.8009  154.4302 H   0  0  0  0  0  0  0  0  0  0  0  0
  144.2716  138.4122  153.8449 H   0  0  0  0  0  0  0  0  0  0  0  0
  146.9602  137.0087  153.4972 H   0  0  0  0  0  0  0  0  0  0  0  0
  147.3917  138.8962  151.8416 H   0  0  0  0  0  0  0  0  0  0  0  0
  146.0127  139.7295  152.4981 H   0  0  0  0  0  0  0  0  0  0  0  0
  148.4876  141.1021  152.5785 H   0  0  0  0  0  0  0  0  0  0  0  0
  147.0829  141.5958  153.4977 H   0  0  0  0  0  0  0  0  0  0  0  0
  149.1760  142.5988  154.4145 H   0  0  0  0  0  0  0  0  0  0  0  0
  148.3727  141.5922  155.6048 H   0  0  0  0  0  0  0  0  0  0  0  0
  150.7400  138.8626  155.0919 H   0  0  0  0  0  0  0  0  0  0  0  0
  149.3186  139.3223  156.0122 H   0  0  0  0  0  0  0  0  0  0  0  0
  148.6750  137.7938  154.1599 H   0  0  0  0  0  0  0  0  0  0  0  0
  149.4492  138.8343  152.9852 H   0  0  0  0  0  0  0  0  0  0  0  0
  145.9536  137.4154  151.0098 H   0  0  0  0  0  0  0  0  0  0  0  0
  143.4734  135.4814  150.2087 H   0  0  0  0  0  0  0  0  0  0  0  0
  145.0901  135.9507  149.7058 H   0  0  0  0  0  0  0  0  0  0  0  0
  143.2054  133.0034  149.6314 H   0  0  0  0  0  0  0  0  0  0  0  0
  144.7762  130.7897  149.9019 H   0  0  0  0  0  0  0  0  0  0  0  0
  147.1335  131.8207  150.9326 H   0  0  0  0  0  0  0  0  0  0  0  0
  1  2  1  0  0  0  0
  1 19  1  0  0  0  0
  1 20  1  0  0  0  0
  1 21  1  0  0  0  0
  2  3  1  0  0  0  0
  2 10  1  0  0  0  0
  2 22  1  0  0  0  0
  3  4  1  0  0  0  0
  3 23  1  0  0  0  0
  3 24  1  0  0  0  0
  4  9  1  0  0  0  0
  4  5  1  0  0  0  0
  5  6  1  0  0  0  0
  5 25  1  0  0  0  0
  5 26  1  0  0  0  0
  6  7  1  0  0  0  0
  6 27  1  0  0  0  0
  6 28  1  0  0  0  0
  7  8  1  0  0  0  0
  8  9  1  0  0  0  0
  8 29  1  0  0  0  0
  8 30  1  0  0  0  0
  9 31  1  0  0  0  0
  9 32  1  0  0  0  0
 10 11  1  0  0  0  0
 10 33  1  0  0  0  0
 11 12  2  0  0  0  0
 11 13  1  0  0  0  0
 13 14  1  0  0  0  0
 13 34  1  0  0  0  0
 13 35  1  0  0  0  0
 14 18  1  0  0  0  0
 14 15  1  0  0  0  0
 15 16  2  0  0  0  0
 15 36  1  0  0  0  0
 16 17  1  0  0  0  0
 16 37  1  0  0  0  0
 17 18  2  0  0  0  0
 17 38  1  0  0  0  0
M  END
> <s_m_source_file>
AV-unprocessed.smi

> <i_m_source_file_index>
1936

> <i_lp_mmshare_version>
43012

> <i_f3d_flags>
0

> <s_epik_input>
W0NIMl0xW0NIMl1PW0NIMl1bQ0gyXU4xW0NIMl1bQ0BASF0oW0NIM10pW05IXUMoPU8pW0NIMl1uMltjSF1bY0hdW2NIXW4y

> <s_epik_cmdline>
J2VwaWtfcHl0aG9uJywgJy1waCcsICc3LjAnLCAnLXRuJywgJzgnLCAnLW1hJywgJzIwMCcsICctbWV0YWxfYmluZGluZycsICctaW1hZScsICc8aW5maWxlLm1hZT4nLCAnLW9tYWUnLCAnPG91dGZpbGUubWFlPic=

> <r_lp_tautomer_probability>
1

> <r_epik_Ionization_Penalty>
0.196927

> <r_epik_Ionization_Penalty_Charging>
0

> <r_epik_Ionization_Penalty_Neutral>
0.196927

> <r_epik_State_Penalty>
0.186684

> <r_epik_Charging_Adjusted_Penalty>
0.186684

> <i_epik_Tot_Q>
0

> <i_epik_Tot_abs_Q>
0

> <r_epik_Metal_State_Penalty>
0.186682

> <b_epik_Metal_Only>
0

> <s_lp_Force_Field>
OPLS_2005

> <r_lp_Energy>
24.3888

> <b_lp_Chiralities_Consistent>
1

> <s_lp_Variant>
AV-unprocessed.smi:1936-1

> <Gold.Version>
5.8.1

> <Gold.Id.Protein>
6NUR|6NUR_protein|mol2

> <Gold.PLP.Fitness>
39.2759

> <Gold.PLP.PLP>
-31.5324

> <Gold.PLP.part.hbond>
-1.7922

> <Gold.PLP.part.metal>
0.0000

> <Gold.PLP.part.buried>
-2.3554

> <Gold.PLP.part.nonpolar>
-28.4302

> <Gold.PLP.part.repulsive>
0.5728

> <Gold.PLP.ligand.clash>
0.0000

> <Gold.PLP.ligand.torsion>
0.3707

> <Gold.PLP.Chemscore.Hbond>
0.8160

> <Gold.PLP.Chemscore.CHOScore>
2.0000

> <Gold.PLP.Chemscore.Metal>
0.0000

> <Gold.Chemscore.Hbonds>
donor molecule, donor type, donor heavy atom, donor atom, acceptor molecule, acceptor atom, score
      P1  H  7989  7998       L1     7  0.78
      L1  C    15    36       P1 10186  0.79
      L1  C    17    38       P1 10747  1.00

> <Gold.PLP.Chemscore.Internal.Correction>
0.0368

> <Gold.Rescore>
     Score         DG    S(hbond)    S(metal)    S(lipo)     H(rot)  DE(clash)    DE(int)     intcor
     10.51     -12.41       0.84        0.00      75.81       1.85       0.10       1.79       ----

> <Gold.Chemscore.Fitness>
10.5136

> <Gold.Chemscore.DG>
-12.4101

> <Gold.Chemscore.ZeroCoef>
-5.4800

> <Gold.Chemscore.Hbond>
0.8410

> <Gold.Chemscore.Metal>
0.0000

> <Gold.Chemscore.Lipo>
75.8086

> <Gold.Chemscore.Internal_Hbond>
0.0000

> <Gold.Chemscore.DEClash>
0.1046

> <Gold.Chemscore.DEInternal>
1.7919

> <Gold.Chemscore.Rot>
1.8549

> <Gold.Chemscore.Internal.Correction>
   9.000000E+99

> <Gold.Chemscore.Hbonds>
donor molecule, donor type, donor heavy atom, donor atom, acceptor molecule, acceptor atom, score
      P1  H  7989  7998       L1     7  0.52

> <Gold.Chemscore.Hbond.Weighted>
-2.8090

> <Gold.Chemscore.Metal.Weighted>
-0.0000

> <Gold.Chemscore.Lipo.Weighted>
-8.8696

> <Gold.Chemscore.Internal_Hbond.Weighted>
0.0000

> <Gold.Chemscore.DEClash.Weighted>
0.1046

> <Gold.Chemscore.DEInternal.Weighted>
1.7919

> <Gold.Chemscore.Rot.Weighted>
4.7485

> <Gold.Chemscore.Internal.Correction.Weighted>
   9.000000E+99

> <Gold.Protein.RotatedTorsions>
[ 6907 6896 6895 6894 ] final  130.00 input  -60.11 | X-H torsion
[ 7974 7965 7964 7962 ] final   40.90 input  175.53 | X-H torsion
[ 8008 7997 7996 7995 ] final  118.25 input   59.86 | X-H torsion
[ 10167 10162 10161 10158 ] final   87.01 input  -65.29 | X-H torsion
[ 10718 10713 10712 10709 ] final  -84.20 input   66.30 | X-H torsion
[ 10763 10752 10751 10750 ] final    3.69 input  -60.55 | X-H torsion
[ 11005 11000 10999 10996 ] final   91.32 input  -57.11 | X-H torsion

> <Gold.Protein.ActiveResidues>
 VAL166  LYS551  ARG553  GLY616  TRP617  ASP618  TYR619  PRO620  LYS621  CYS622 
 ASP623  PHE694  ASN695  SER759  ASP760  ASP761  ALA762  ILE779  LEU786  VAL792 
 PHE793  MET794  SER795  GLU796  ALA797  LYS798  CYS799  TRP800  GLU811  SER814 

> <Gold.Protein.RotatedAtoms>
  152.3569  133.6248  159.5985 H   0  0  0  0  0  0  0  0  0  0  0  0  # atno 6907 bound_to 6896
  150.7574  133.9486  159.3487 H   0  0  0  0  0  0  0  0  0  0  0  0  # atno 6908 bound_to 6896
  151.7330  135.0872  160.0354 H   0  0  0  0  0  0  0  0  0  0  0  0  # atno 6909 bound_to 6896
  146.0867  139.5479  142.9502 H   0  0  0  0  0  0  0  0  0  0  0  0  # atno 7974 bound_to 7965
  156.2537  140.2879  156.0805 H   0  0  0  0  0  0  0  0  0  0  0  0  # atno 8008 bound_to 7997
  155.1571  140.0398  157.2851 H   0  0  0  0  0  0  0  0  0  0  0  0  # atno 8009 bound_to 7997
  154.6419  140.2524  155.7319 H   0  0  0  0  0  0  0  0  0  0  0  0  # atno 8010 bound_to 7997
  139.8817  144.6436  150.8835 H   0  0  0  0  0  0  0  0  0  0  0  0  # atno 10167 bound_to 10162
  156.0009  130.4690  150.4374 H   0  0  0  0  0  0  0  0  0  0  0  0  # atno 10718 bound_to 10713
  153.2802  135.6940  153.7393 H   0  0  0  0  0  0  0  0  0  0  0  0  # atno 10763 bound_to 10752
  153.6383  135.3398  155.3064 H   0  0  0  0  0  0  0  0  0  0  0  0  # atno 10764 bound_to 10752
  154.8493  135.4425  154.1853 H   0  0  0  0  0  0  0  0  0  0  0  0  # atno 10765 bound_to 10752
  139.8841  134.8667  156.3411 H   0  0  0  0  0  0  0  0  0  0  0  0  # atno 11005 bound_to 11000
  145.6116  141.0338  143.1963 LP  0  0  0  0  0  0  0  0  0  0  0  0  # atno 17320 bound_to 7965
  144.7331  139.7666  143.7339 LP  0  0  0  0  0  0  0  0  0  0  0  0  # atno 17321 bound_to 7965
  140.7743  143.3580  151.1883 LP  0  0  0  0  0  0  0  0  0  0  0  0  # atno 17342 bound_to 10162
  139.7190  143.9254  152.2978 LP  0  0  0  0  0  0  0  0  0  0  0  0  # atno 17343 bound_to 10162
  157.2417  131.0527  151.2432 LP  0  0  0  0  0  0  0  0  0  0  0  0  # atno 17370 bound_to 10713
  157.3613  130.7133  149.6504 LP  0  0  0  0  0  0  0  0  0  0  0  0  # atno 17371 bound_to 10713
  140.9658  133.7359  156.0465 LP  0  0  0  0  0  0  0  0  0  0  0  0  # atno 17394 bound_to 11000
  140.7932  134.3593  157.5459 LP  0  0  0  0  0  0  0  0  0  0  0  0  # atno 17395 bound_to 11000

$$$$
