AV-unprocessed.smi:263|AV-procd|sdf|2003|dock7
  -GOLD-   2262021193D 1   1.00000     0.00000
 Structure written by MMmdl.
 57 61  0  0  0  0  0  0  0  0  1 V2000
  140.2058  138.4282  151.3014 O   0  0  0  0  0  0  0  0  0  0  0  0
  139.8956  138.5911  152.6749 C   0  0  0  0  0  0  0  0  0  0  0  0
  141.1931  138.3328  153.4809 C   0  0  0  0  0  0  0  0  0  0  0  0
  141.8018  137.0380  153.2157 N   0  0  0  0  0  0  0  0  0  0  0  0
  141.2188  135.8014  153.3755 C   0  0  0  0  0  0  0  0  0  0  0  0
  141.9759  134.7850  153.0634 N   0  0  0  0  0  0  0  0  0  0  0  0
  143.1727  135.3637  152.6566 C   0  0  0  0  0  0  0  0  0  0  0  0
  144.4158  134.8491  152.1903 C   0  0  0  0  0  0  0  0  0  0  0  0
  144.6464  133.5211  152.0266 N   0  0  0  0  0  0  0  0  0  0  0  0
  144.4149  133.0319  150.6674 C   0  0  0  0  0  0  0  0  0  0  0  0
  144.3401  131.4934  150.6294 C   0  0  0  0  0  0  0  0  0  0  0  0
  145.5669  130.8372  151.2971 C   0  0  2  0  0  0  0  0  0  0  0  0
  146.7012  131.1450  150.5025 O   0  0  0  0  0  0  0  0  0  0  0  0
  145.4360  129.2984  151.3492 C   0  0  0  0  0  0  0  0  0  0  0  0
  146.6007  128.6381  152.1117 C   0  0  0  0  0  0  0  0  0  0  0  0
  146.7644  129.2319  153.5200 C   0  0  0  0  0  0  0  0  0  0  0  0
  146.9159  130.7613  153.4722 C   0  0  0  0  0  0  0  0  0  0  0  0
  145.7328  131.4108  152.7283 C   0  0  1  0  0  0  0  0  0  0  0  0
  145.8083  132.9495  152.7112 C   0  0  0  0  0  0  0  0  0  0  0  0
  145.3937  135.7490  151.8987 N   0  0  0  0  0  0  0  0  0  0  0  0
  145.1723  137.0589  152.0428 C   0  0  0  0  0  0  0  0  0  0  0  0
  144.0656  137.6768  152.4586 N   0  0  0  0  0  0  0  0  0  0  0  0
  143.0827  136.7807  152.7591 C   0  0  0  0  0  0  0  0  0  0  0  0
  139.3376  140.0169  152.8815 C   0  0  0  0  0  0  0  0  0  0  0  0
  137.9488  140.1944  152.2427 C   0  0  0  0  0  0  0  0  0  0  0  0
  137.0522  139.2091  152.7408 O   0  0  0  0  0  0  0  0  0  0  0  0
  137.4517  137.8859  152.4054 C   0  0  0  0  0  0  0  0  0  0  0  0
  138.8097  137.5636  153.0548 C   0  0  0  0  0  0  0  0  0  0  0  0
  140.1716  139.2748  150.8833 H   0  0  0  0  0  0  0  0  0  0  0  0
  141.9310  139.1032  153.2528 H   0  0  0  0  0  0  0  0  0  0  0  0
  141.0003  138.4088  154.5520 H   0  0  0  0  0  0  0  0  0  0  0  0
  140.2055  135.6761  153.7288 H   0  0  0  0  0  0  0  0  0  0  0  0
  143.4959  133.4414  150.2499 H   0  0  0  0  0  0  0  0  0  0  0  0
  145.2256  133.3837  150.0282 H   0  0  0  0  0  0  0  0  0  0  0  0
  143.4331  131.1745  151.1448 H   0  0  0  0  0  0  0  0  0  0  0  0
  144.2389  131.1530  149.5981 H   0  0  0  0  0  0  0  0  0  0  0  0
  147.4780  130.9243  150.9932 H   0  0  0  0  0  0  0  0  0  0  0  0
  144.5001  129.0317  151.8421 H   0  0  0  0  0  0  0  0  0  0  0  0
  145.3742  128.8874  150.3406 H   0  0  0  0  0  0  0  0  0  0  0  0
  146.4348  127.5627  152.1811 H   0  0  0  0  0  0  0  0  0  0  0  0
  147.5281  128.7672  151.5526 H   0  0  0  0  0  0  0  0  0  0  0  0
  145.8968  128.9709  154.1273 H   0  0  0  0  0  0  0  0  0  0  0  0
  147.6301  128.7879  154.0121 H   0  0  0  0  0  0  0  0  0  0  0  0
  146.9763  131.1526  154.4883 H   0  0  0  0  0  0  0  0  0  0  0  0
  147.8561  131.0239  152.9859 H   0  0  0  0  0  0  0  0  0  0  0  0
  144.8326  131.1507  153.2886 H   0  0  0  0  0  0  0  0  0  0  0  0
  146.7230  133.2795  152.2167 H   0  0  0  0  0  0  0  0  0  0  0  0
  145.8467  133.3191  153.7369 H   0  0  0  0  0  0  0  0  0  0  0  0
  145.9995  137.7040  151.7861 H   0  0  0  0  0  0  0  0  0  0  0  0
  139.2547  140.2182  153.9502 H   0  0  0  0  0  0  0  0  0  0  0  0
  140.0213  140.7659  152.4799 H   0  0  0  0  0  0  0  0  0  0  0  0
  137.5533  141.1814  152.4828 H   0  0  0  0  0  0  0  0  0  0  0  0
  138.0059  140.1348  151.1548 H   0  0  0  0  0  0  0  0  0  0  0  0
  136.6933  137.1905  152.7651 H   0  0  0  0  0  0  0  0  0  0  0  0
  137.4956  137.7703  151.3213 H   0  0  0  0  0  0  0  0  0  0  0  0
  139.1241  136.5547  152.7847 H   0  0  0  0  0  0  0  0  0  0  0  0
  138.6790  137.5614  154.1378 H   0  0  0  0  0  0  0  0  0  0  0  0
  1  2  1  0  0  0  0
  1 29  1  0  0  0  0
  2 28  1  0  0  0  0
  2  3  1  0  0  0  0
  2 24  1  0  0  0  0
  3  4  1  0  0  0  0
  3 30  1  0  0  0  0
  3 31  1  0  0  0  0
  4 23  1  0  0  0  0
  4  5  1  0  0  0  0
  5  6  2  0  0  0  0
  5 32  1  0  0  0  0
  6  7  1  0  0  0  0
  7 23  2  0  0  0  0
  7  8  1  0  0  0  0
  8  9  1  0  0  0  0
  8 20  2  0  0  0  0
  9 19  1  0  0  0  0
  9 10  1  0  0  0  0
 10 11  1  0  0  0  0
 10 33  1  0  0  0  0
 10 34  1  0  0  0  0
 11 12  1  0  0  0  0
 11 35  1  0  0  0  0
 11 36  1  0  0  0  0
 12 18  1  0  0  0  0
 12 13  1  0  0  0  0
 12 14  1  0  0  0  0
 13 37  1  0  0  0  0
 14 15  1  0  0  0  0
 14 38  1  0  0  0  0
 14 39  1  0  0  0  0
 15 16  1  0  0  0  0
 15 40  1  0  0  0  0
 15 41  1  0  0  0  0
 16 17  1  0  0  0  0
 16 42  1  0  0  0  0
 16 43  1  0  0  0  0
 17 18  1  0  0  0  0
 17 44  1  0  0  0  0
 17 45  1  0  0  0  0
 18 19  1  0  0  0  0
 18 46  1  0  0  0  0
 19 47  1  0  0  0  0
 19 48  1  0  0  0  0
 20 21  1  0  0  0  0
 21 22  2  0  0  0  0
 21 49  1  0  0  0  0
 22 23  1  0  0  0  0
 24 25  1  0  0  0  0
 24 50  1  0  0  0  0
 24 51  1  0  0  0  0
 25 26  1  0  0  0  0
 25 52  1  0  0  0  0
 25 53  1  0  0  0  0
 26 27  1  0  0  0  0
 27 28  1  0  0  0  0
 27 54  1  0  0  0  0
 27 55  1  0  0  0  0
 28 56  1  0  0  0  0
 28 57  1  0  0  0  0
M  END
> <s_m_source_file>
AV-unprocessed.smi

> <i_m_source_file_index>
263

> <i_lp_mmshare_version>
43012

> <i_f3d_flags>
0

> <s_epik_input>
W0NIMl0xW0NIMl1PW0NIMl1bQ0gyXUMxKFtPSF0pW0NIMl1uKFtjSF1uMiljKGMyMyluW2NIXW5jM04oW0NIMl1bQ0gyXTQpW0NIMl1bQ0BASF0oW0NAXTQ1W09IXSlbQ0gyXVtDSDJdW0NIMl1bQ0gyXTU=

> <s_epik_cmdline>
J2VwaWtfcHl0aG9uJywgJy1waCcsICc3LjAnLCAnLXRuJywgJzgnLCAnLW1hJywgJzIwMCcsICctbWV0YWxfYmluZGluZycsICctaW1hZScsICc8aW5maWxlLm1hZT4nLCAnLW9tYWUnLCAnPG91dGZpbGUubWFlPic=

> <r_lp_tautomer_probability>
1

> <r_epik_Ionization_Penalty>
0.00747493

> <r_epik_Ionization_Penalty_Charging>
0

> <r_epik_Ionization_Penalty_Neutral>
0.00747493

> <r_epik_State_Penalty>
0.00549307

> <r_epik_Charging_Adjusted_Penalty>
0.00549307

> <i_epik_Tot_Q>
0

> <i_epik_Tot_abs_Q>
0

> <r_epik_Metal_State_Penalty>
-0

> <b_epik_Metal_Only>
0

> <s_lp_Force_Field>
OPLS_2005

> <r_lp_Energy>
38.6154

> <b_lp_Chiralities_Consistent>
1

> <s_lp_Variant>
AV-unprocessed.smi:263-1

> <Gold.Version>
5.8.1

> <Gold.Id.Protein>
6NUR|6NUR_protein|mol2

> <Gold.PLP.Fitness>
48.6264

> <Gold.PLP.PLP>
-40.1357

> <Gold.PLP.part.hbond>
-1.8754

> <Gold.PLP.part.metal>
0.0000

> <Gold.PLP.part.buried>
-5.5922

> <Gold.PLP.part.nonpolar>
-36.2223

> <Gold.PLP.part.repulsive>
3.9408

> <Gold.PLP.ligand.clash>
0.0000

> <Gold.PLP.ligand.torsion>
0.3963

> <Gold.PLP.Chemscore.Hbond>
1.9920

> <Gold.PLP.Chemscore.CHOScore>
0.9777

> <Gold.PLP.Chemscore.Metal>
0.0000

> <Gold.Chemscore.Hbonds>
donor molecule, donor type, donor heavy atom, donor atom, acceptor molecule, acceptor atom, score
      L1  H     1    29       P1 10160  0.26
      L1  H    13    37       P1 10747  0.43

> <Gold.PLP.Chemscore.Internal.Correction>
0.3743

> <Gold.Rescore>
     Score         DG    S(hbond)    S(metal)    S(lipo)     H(rot)  DE(clash)    DE(int)     intcor
     12.80     -18.27       1.93        0.00     111.66       2.62       5.06       0.41       ----

> <Gold.Chemscore.Fitness>
12.8022

> <Gold.Chemscore.DG>
-18.2667

> <Gold.Chemscore.ZeroCoef>
-5.4800

> <Gold.Chemscore.Hbond>
1.9275

> <Gold.Chemscore.Metal>
0.0000

> <Gold.Chemscore.Lipo>
111.6606

> <Gold.Chemscore.Internal_Hbond>
0.0000

> <Gold.Chemscore.DEClash>
5.0554

> <Gold.Chemscore.DEInternal>
0.4091

> <Gold.Chemscore.Rot>
2.6232

> <Gold.Chemscore.Internal.Correction>
   9.000000E+99

> <Gold.Chemscore.Hbonds>
donor molecule, donor type, donor heavy atom, donor atom, acceptor molecule, acceptor atom, score
      L1  H     1    29       P1 10160  0.24
      L1  H    13    37       P1 10747  0.44

> <Gold.Chemscore.Hbond.Weighted>
-6.4379

> <Gold.Chemscore.Metal.Weighted>
-0.0000

> <Gold.Chemscore.Lipo.Weighted>
-13.0643

> <Gold.Chemscore.Internal_Hbond.Weighted>
0.0000

> <Gold.Chemscore.DEClash.Weighted>
5.0554

> <Gold.Chemscore.DEInternal.Weighted>
0.4091

> <Gold.Chemscore.Rot.Weighted>
6.7155

> <Gold.Chemscore.Internal.Correction.Weighted>
   9.000000E+99

> <Gold.Protein.RotatedTorsions>
[ 6907 6896 6895 6894 ] final  123.36 input  -60.11 | X-H torsion
[ 7974 7965 7964 7962 ] final -167.71 input  175.53 | X-H torsion
[ 8008 7997 7996 7995 ] final  178.86 input   59.86 | X-H torsion
[ 10167 10162 10161 10158 ] final  -93.13 input  -65.29 | X-H torsion
[ 10718 10713 10712 10709 ] final -178.35 input   66.30 | X-H torsion
[ 10763 10752 10751 10750 ] final   -7.32 input  -60.55 | X-H torsion
[ 11005 11000 10999 10996 ] final -159.93 input  -57.11 | X-H torsion

> <Gold.Protein.ActiveResidues>
 VAL166  LYS551  ARG553  GLY616  TRP617  ASP618  TYR619  PRO620  LYS621  CYS622 
 ASP623  PHE694  ASN695  SER759  ASP760  ASP761  ALA762  ILE779  LEU786  VAL792 
 PHE793  MET794  SER795  GLU796  ALA797  LYS798  CYS799  TRP800  GLU811  SER814 

> <Gold.Protein.RotatedAtoms>
  152.4168  133.7051  159.6446 H   0  0  0  0  0  0  0  0  0  0  0  0  # atno 6907 bound_to 6896
  150.8045  133.8525  159.3218 H   0  0  0  0  0  0  0  0  0  0  0  0  # atno 6908 bound_to 6896
  151.6253  135.1030  160.0162 H   0  0  0  0  0  0  0  0  0  0  0  0  # atno 6909 bound_to 6896
  144.7217  140.2477  143.6283 H   0  0  0  0  0  0  0  0  0  0  0  0  # atno 7974 bound_to 7965
  156.0499  140.1323  157.0062 H   0  0  0  0  0  0  0  0  0  0  0  0  # atno 8008 bound_to 7997
  154.4430  140.1013  156.6431 H   0  0  0  0  0  0  0  0  0  0  0  0  # atno 8009 bound_to 7997
  155.5539  140.3463  155.4477 H   0  0  0  0  0  0  0  0  0  0  0  0  # atno 8010 bound_to 7997
  140.3278  143.3012  151.9975 H   0  0  0  0  0  0  0  0  0  0  0  0  # atno 10167 bound_to 10162
  156.8430  130.9693  151.3098 H   0  0  0  0  0  0  0  0  0  0  0  0  # atno 10718 bound_to 10713
  153.4248  135.7011  153.6270 H   0  0  0  0  0  0  0  0  0  0  0  0  # atno 10763 bound_to 10752
  153.4710  135.3715  155.2391 H   0  0  0  0  0  0  0  0  0  0  0  0  # atno 10764 bound_to 10752
  154.8723  135.4043  154.3622 H   0  0  0  0  0  0  0  0  0  0  0  0  # atno 10765 bound_to 10752
  140.6371  134.4590  157.5232 H   0  0  0  0  0  0  0  0  0  0  0  0  # atno 11005 bound_to 11000
  145.8258  139.2064  143.1911 LP  0  0  0  0  0  0  0  0  0  0  0  0  # atno 17320 bound_to 7965
  146.0474  140.8104  142.9798 LP  0  0  0  0  0  0  0  0  0  0  0  0  # atno 17321 bound_to 7965
  139.4862  144.6259  151.7165 LP  0  0  0  0  0  0  0  0  0  0  0  0  # atno 17342 bound_to 10162
  140.5425  144.0557  150.6094 LP  0  0  0  0  0  0  0  0  0  0  0  0  # atno 17343 bound_to 10162
  157.6345  130.8756  149.9334 LP  0  0  0  0  0  0  0  0  0  0  0  0  # atno 17370 bound_to 10713
  156.0870  130.3667  150.0468 LP  0  0  0  0  0  0  0  0  0  0  0  0  # atno 17371 bound_to 10713
  139.9094  134.8378  156.1584 LP  0  0  0  0  0  0  0  0  0  0  0  0  # atno 17394 bound_to 11000
  141.0634  133.6831  156.1996 LP  0  0  0  0  0  0  0  0  0  0  0  0  # atno 17395 bound_to 11000

$$$$
