AV-unprocessed.smi:1570|AV-procd|sdf|6315|dock9
  -GOLD-   22720 6523D 1   1.00000     0.00000
 Structure written by MMmdl.
 51 53  0  0  0  0  0  0  0  0  1 V2000
  155.7050  140.0919  160.2010 C   0  0  0  0  0  0  0  0  0  0  0  0
  154.4232  140.5807  160.8867 C   0  0  0  0  0  0  0  0  0  0  0  0
  153.3409  140.7572  159.9213 N   0  0  0  0  0  0  0  0  0  0  0  0
  152.8214  139.8070  159.1087 C   0  0  0  0  0  0  0  0  0  0  0  0
  153.1695  138.6273  159.0598 O   0  0  0  0  0  0  0  0  0  0  0  0
  151.8493  140.3796  158.3601 N   0  0  0  0  0  0  0  0  0  0  0  0
  151.0143  139.7147  157.3614 C   0  0  0  0  0  0  0  0  0  0  0  0
  151.4606  140.0606  155.9233 C   0  0  1  0  0  0  0  0  0  0  0  0
  152.8291  139.7523  155.7467 O   0  0  0  0  0  0  0  0  0  0  0  0
  150.6449  139.3806  154.7978 C   0  0  0  0  0  0  0  0  0  0  0  0
  149.1930  139.6005  154.7823 N   0  0  0  0  0  0  0  0  0  0  0  0
  148.5937  138.9653  153.6140 C   0  0  0  0  0  0  0  0  0  0  0  0
  147.0636  139.1252  153.5848 C   0  0  2  0  0  0  0  0  0  0  0  0
  146.4451  138.5252  152.3177 C   0  0  0  0  0  0  0  0  0  0  0  0
  146.7348  140.5119  153.6244 O   0  0  0  0  0  0  0  0  0  0  0  0
  147.2971  141.2367  154.7186 C   0  0  1  0  0  0  0  0  0  0  0  0
  146.5774  140.9218  156.0412 C   0  0  0  0  0  0  0  0  0  0  0  0
  148.8217  141.0141  154.7870 C   0  0  0  0  0  0  0  0  0  0  0  0
  151.7404  141.7339  158.7066 C   0  0  0  0  0  0  0  0  0  0  0  0
  150.8880  142.7456  158.2309 C   0  0  0  0  0  0  0  0  0  0  0  0
  151.0365  144.0344  158.7951 C   0  0  0  0  0  0  0  0  0  0  0  0
  152.0092  144.2812  159.7985 C   0  0  0  0  0  0  0  0  0  0  0  0
  152.8524  143.2439  160.2611 C   0  0  0  0  0  0  0  0  0  0  0  0
  152.6825  141.9726  159.6856 C   0  0  0  0  0  0  0  0  0  0  0  0
  156.5074  139.9642  160.9275 H   0  0  0  0  0  0  0  0  0  0  0  0
  156.0472  140.8038  159.4494 H   0  0  0  0  0  0  0  0  0  0  0  0
  155.5473  139.1321  159.7079 H   0  0  0  0  0  0  0  0  0  0  0  0
  154.1216  139.8689  161.6566 H   0  0  0  0  0  0  0  0  0  0  0  0
  154.6111  141.5219  161.4039 H   0  0  0  0  0  0  0  0  0  0  0  0
  151.0150  138.6384  157.5349 H   0  0  0  0  0  0  0  0  0  0  0  0
  149.9845  140.0398  157.5182 H   0  0  0  0  0  0  0  0  0  0  0  0
  151.3531  141.1363  155.7751 H   0  0  0  0  0  0  0  0  0  0  0  0
  152.8957  138.8541  155.4597 H   0  0  0  0  0  0  0  0  0  0  0  0
  151.0712  139.6367  153.8267 H   0  0  0  0  0  0  0  0  0  0  0  0
  150.8187  138.3091  154.9097 H   0  0  0  0  0  0  0  0  0  0  0  0
  149.0228  139.3882  152.7040 H   0  0  0  0  0  0  0  0  0  0  0  0
  148.8375  137.9022  153.6072 H   0  0  0  0  0  0  0  0  0  0  0  0
  146.6276  138.6231  154.4490 H   0  0  0  0  0  0  0  0  0  0  0  0
  146.6586  137.4586  152.2439 H   0  0  0  0  0  0  0  0  0  0  0  0
  146.8352  139.0080  151.4212 H   0  0  0  0  0  0  0  0  0  0  0  0
  145.3618  138.6480  152.3184 H   0  0  0  0  0  0  0  0  0  0  0  0
  147.1232  142.2921  154.5069 H   0  0  0  0  0  0  0  0  0  0  0  0
  146.9438  141.5619  156.8439 H   0  0  0  0  0  0  0  0  0  0  0  0
  146.7289  139.8893  156.3549 H   0  0  0  0  0  0  0  0  0  0  0  0
  145.5042  141.0896  155.9491 H   0  0  0  0  0  0  0  0  0  0  0  0
  149.1931  141.5064  155.6817 H   0  0  0  0  0  0  0  0  0  0  0  0
  149.2912  141.5145  153.9386 H   0  0  0  0  0  0  0  0  0  0  0  0
  150.1484  142.5520  157.4683 H   0  0  0  0  0  0  0  0  0  0  0  0
  150.4014  144.8403  158.4578 H   0  0  0  0  0  0  0  0  0  0  0  0
  152.1065  145.2729  160.2150 H   0  0  0  0  0  0  0  0  0  0  0  0
  153.5939  143.4257  161.0248 H   0  0  0  0  0  0  0  0  0  0  0  0
  1  2  1  0  0  0  0
  1 25  1  0  0  0  0
  1 26  1  0  0  0  0
  1 27  1  0  0  0  0
  2  3  1  0  0  0  0
  2 28  1  0  0  0  0
  2 29  1  0  0  0  0
  3 24  1  0  0  0  0
  3  4  1  0  0  0  0
  4  5  2  0  0  0  0
  4  6  1  0  0  0  0
  6  7  1  0  0  0  0
  6 19  1  0  0  0  0
  7  8  1  0  0  0  0
  7 30  1  0  0  0  0
  7 31  1  0  0  0  0
  8  9  1  0  0  0  0
  8 10  1  0  0  0  0
  8 32  1  0  0  0  0
  9 33  1  0  0  0  0
 10 11  1  0  0  0  0
 10 34  1  0  0  0  0
 10 35  1  0  0  0  0
 11 18  1  0  0  0  0
 11 12  1  0  0  0  0
 12 13  1  0  0  0  0
 12 36  1  0  0  0  0
 12 37  1  0  0  0  0
 13 14  1  0  0  0  0
 13 15  1  0  0  0  0
 13 38  1  0  0  0  0
 14 39  1  0  0  0  0
 14 40  1  0  0  0  0
 14 41  1  0  0  0  0
 15 16  1  0  0  0  0
 16 17  1  0  0  0  0
 16 18  1  0  0  0  0
 16 42  1  0  0  0  0
 17 43  1  0  0  0  0
 17 44  1  0  0  0  0
 17 45  1  0  0  0  0
 18 46  1  0  0  0  0
 18 47  1  0  0  0  0
 19 24  2  0  0  0  0
 19 20  1  0  0  0  0
 20 21  2  0  0  0  0
 20 48  1  0  0  0  0
 21 22  1  0  0  0  0
 21 49  1  0  0  0  0
 22 23  2  0  0  0  0
 22 50  1  0  0  0  0
 23 24  1  0  0  0  0
 23 51  1  0  0  0  0
M  END
> <s_m_source_file>
AV-unprocessed.smi

> <i_m_source_file_index>
1570

> <i_lp_mmshare_version>
43012

> <i_f3d_flags>
0

> <s_epik_input>
W2NIXTFbY0hdW2NIXVtjSF1jKGMxMiluKFtDSDJdW0NIM10pYyg9TyluMltDSDJdW0NASF0oW09IXSlbQ0gyXU4zW0NIMl1bQ0BASF0oW0NIM10pT1tDQEBIXShbQ0gzXSlbQ0gyXTM=

> <s_epik_cmdline>
J2VwaWtfcHl0aG9uJywgJy1waCcsICc3LjAnLCAnLXRuJywgJzgnLCAnLW1hJywgJzIwMCcsICctbWV0YWxfYmluZGluZycsICctaW1hZScsICc8aW5maWxlLm1hZT4nLCAnLW9tYWUnLCAnPG91dGZpbGUubWFlPic=

> <r_epik_Ionization_Penalty>
0.214359

> <r_epik_Ionization_Penalty_Charging>
2.30976e-09

> <r_epik_Ionization_Penalty_Neutral>
0.214359

> <r_epik_State_Penalty>
0.204533

> <r_epik_Charging_Adjusted_Penalty>
0.204533

> <i_epik_Tot_Q>
0

> <i_epik_Tot_abs_Q>
0

> <r_epik_Metal_State_Penalty>
0.204533

> <b_epik_Metal_Only>
0

> <s_lp_Force_Field>
OPLS_2005

> <r_lp_Energy>
68.4361

> <b_lp_Chiralities_Consistent>
1

> <s_lp_Variant>
AV-unprocessed.smi:1570-4

> <Gold.Version>
5.8.1

> <Gold.Id.Protein>
6NUR|6NUR_protein|mol2

> <Gold.PLP.Fitness>
57.9344

> <Gold.PLP.PLP>
-55.3699

> <Gold.PLP.part.hbond>
-1.0000

> <Gold.PLP.part.metal>
0.0000

> <Gold.PLP.part.buried>
-2.9069

> <Gold.PLP.part.nonpolar>
-52.4198

> <Gold.PLP.part.repulsive>
0.2910

> <Gold.PLP.ligand.clash>
0.0000

> <Gold.PLP.ligand.torsion>
0.2391

> <Gold.PLP.Chemscore.Hbond>
1.0000

> <Gold.PLP.Chemscore.CHOScore>
0.0000

> <Gold.PLP.Chemscore.Metal>
0.0000

> <Gold.Chemscore.Hbonds>
donor molecule, donor type, donor heavy atom, donor atom, acceptor molecule, acceptor atom, score
      P1  H  7997  8008       L1     9  0.86

> <Gold.PLP.Chemscore.Internal.Correction>
0.0427

> <Gold.Rescore>
     Score         DG    S(hbond)    S(metal)    S(lipo)     H(rot)  DE(clash)    DE(int)     intcor
     19.04     -19.91       0.90        0.00     142.62       2.06       0.34       0.53       ----

> <Gold.Chemscore.Fitness>
19.0438

> <Gold.Chemscore.DG>
-19.9135

> <Gold.Chemscore.ZeroCoef>
-5.4800

> <Gold.Chemscore.Hbond>
0.9023

> <Gold.Chemscore.Metal>
0.0000

> <Gold.Chemscore.Lipo>
142.6223

> <Gold.Chemscore.Internal_Hbond>
0.0000

> <Gold.Chemscore.DEClash>
0.3364

> <Gold.Chemscore.DEInternal>
0.5333

> <Gold.Chemscore.Rot>
2.0574

> <Gold.Chemscore.Internal.Correction>
   9.000000E+99

> <Gold.Chemscore.Hbonds>
donor molecule, donor type, donor heavy atom, donor atom, acceptor molecule, acceptor atom, score
      P1  H  7997  8008       L1     9  0.42

> <Gold.Chemscore.Hbond.Weighted>
-3.0136

> <Gold.Chemscore.Metal.Weighted>
-0.0000

> <Gold.Chemscore.Lipo.Weighted>
-16.6868

> <Gold.Chemscore.Internal_Hbond.Weighted>
0.0000

> <Gold.Chemscore.DEClash.Weighted>
0.3364

> <Gold.Chemscore.DEInternal.Weighted>
0.5333

> <Gold.Chemscore.Rot.Weighted>
5.2669

> <Gold.Chemscore.Internal.Correction.Weighted>
   9.000000E+99

> <Gold.Protein.RotatedTorsions>
[ 6907 6896 6895 6894 ] final  -11.37 input  -60.11 | X-H torsion
[ 7974 7965 7964 7962 ] final  -80.16 input  175.53 | X-H torsion
[ 8008 7997 7996 7995 ] final  -56.50 input   59.86 | X-H torsion
[ 10167 10162 10161 10158 ] final  -55.02 input  -65.29 | X-H torsion
[ 10718 10713 10712 10709 ] final   79.75 input   66.30 | X-H torsion
[ 10763 10752 10751 10750 ] final  108.03 input  -60.55 | X-H torsion
[ 11005 11000 10999 10996 ] final -170.89 input  -57.11 | X-H torsion

> <Gold.Protein.ActiveResidues>
 VAL166  LYS551  ARG553  GLY616  TRP617  ASP618  TYR619  PRO620  LYS621  CYS622 
 ASP623  PHE694  ASN695  SER759  ASP760  ASP761  ALA762  ILE779  LEU786  VAL792 
 PHE793  MET794  SER795  GLU796  ALA797  LYS798  CYS799  TRP800  GLU811  SER814 

> <Gold.Protein.RotatedAtoms>
  151.3872  135.0950  159.9514 H   0  0  0  0  0  0  0  0  0  0  0  0  # atno 6907 bound_to 6896
  152.5090  133.9014  159.7453 H   0  0  0  0  0  0  0  0  0  0  0  0  # atno 6908 bound_to 6896
  150.9460  133.6547  159.2810 H   0  0  0  0  0  0  0  0  0  0  0  0  # atno 6909 bound_to 6896
  145.5637  140.9478  143.1433 H   0  0  0  0  0  0  0  0  0  0  0  0  # atno 7974 bound_to 7965
  154.4232  140.1128  156.5647 H   0  0  0  0  0  0  0  0  0  0  0  0  # atno 8008 bound_to 7997
  155.6275  140.3495  155.4653 H   0  0  0  0  0  0  0  0  0  0  0  0  # atno 8009 bound_to 7997
  155.9975  140.1192  157.0569 H   0  0  0  0  0  0  0  0  0  0  0  0  # atno 8010 bound_to 7997
  140.6398  143.2501  151.5021 H   0  0  0  0  0  0  0  0  0  0  0  0  # atno 10167 bound_to 10162
  157.6786  130.9928  150.1979 H   0  0  0  0  0  0  0  0  0  0  0  0  # atno 10718 bound_to 10713
  153.4150  135.3825  155.2074 H   0  0  0  0  0  0  0  0  0  0  0  0  # atno 10763 bound_to 10752
  154.8740  135.3803  154.4454 H   0  0  0  0  0  0  0  0  0  0  0  0  # atno 10764 bound_to 10752
  153.4967  135.7088  153.5916 H   0  0  0  0  0  0  0  0  0  0  0  0  # atno 10765 bound_to 10752
  140.5144  134.5770  157.5029 H   0  0  0  0  0  0  0  0  0  0  0  0  # atno 11005 bound_to 11000
  144.7471  139.7292  143.7288 LP  0  0  0  0  0  0  0  0  0  0  0  0  # atno 17320 bound_to 7965
  146.1833  139.5036  142.9852 LP  0  0  0  0  0  0  0  0  0  0  0  0  # atno 17321 bound_to 7965
  139.5607  144.2163  152.1686 LP  0  0  0  0  0  0  0  0  0  0  0  0  # atno 17342 bound_to 10162
  140.1430  144.5184  150.6732 LP  0  0  0  0  0  0  0  0  0  0  0  0  # atno 17343 bound_to 10162
  156.2676  130.3718  149.8065 LP  0  0  0  0  0  0  0  0  0  0  0  0  # atno 17370 bound_to 10713
  156.5792  130.8458  151.3378 LP  0  0  0  0  0  0  0  0  0  0  0  0  # atno 17371 bound_to 10713
  139.9640  134.7403  156.0176 LP  0  0  0  0  0  0  0  0  0  0  0  0  # atno 17394 bound_to 11000
  141.1368  133.6573  156.3616 LP  0  0  0  0  0  0  0  0  0  0  0  0  # atno 17395 bound_to 11000

$$$$
