AV-unprocessed.smi:1952|AV-procd|sdf|7887|dock4
  -GOLD-   2272010 43D 1   1.00000     0.00000
 Structure written by MMmdl.
 38 39  0  0  0  0  0  0  0  0  2 V2000
  146.0689  134.2341  161.8046 C   0  0  0  0  0  0  0  0  0  0  0  0
  147.0758  135.1383  161.1795 C   0  0  0  0  0  0  0  0  0  0  0  0
  148.2125  134.9031  160.4597 C   0  0  0  0  0  0  0  0  0  0  0  0
  148.6962  136.2102  160.1789 C   0  0  0  0  0  0  0  0  0  0  0  0
  149.7996  136.5089  159.4762 N   0  5  0  0  0  0  0  0  0  0  0  0
  149.8856  137.6842  158.8109 C   0  0  0  0  0  0  0  0  0  0  0  0
  148.9482  138.4355  158.5321 O   0  0  0  0  0  0  0  0  0  0  0  0
  151.1354  138.0089  158.4488 N   0  0  0  0  0  0  0  0  0  0  0  0
  151.5447  139.2235  157.7449 C   0  0  2  0  0  0  0  0  0  0  0  0
  152.2367  138.8559  156.4238 C   0  0  0  0  0  0  0  0  0  0  0  0
  152.4696  140.0680  158.6458 C   0  0  0  0  0  0  0  0  0  0  0  0
  152.0028  141.4238  158.9421 N   0  0  0  0  0  0  0  0  0  0  0  0
  151.7179  142.2025  157.7392 C   0  0  0  0  0  0  0  0  0  0  0  0
  151.2479  143.6281  158.0777 C   0  0  0  0  0  0  0  0  0  0  0  0
  152.2237  144.2764  158.8875 O   0  0  0  0  0  0  0  0  0  0  0  0
  152.4908  143.5689  160.0939 C   0  0  0  0  0  0  0  0  0  0  0  0
  152.9707  142.1463  159.7595 C   0  0  0  0  0  0  0  0  0  0  0  0
  147.9121  137.1554  160.6698 N   0  0  0  0  0  0  0  0  0  0  0  0
  146.8745  136.4762  161.3197 O   0  0  0  0  0  0  0  0  0  0  0  0
  145.6300  133.5723  161.0579 H   0  0  0  0  0  0  0  0  0  0  0  0
  145.2621  134.8026  162.2678 H   0  0  0  0  0  0  0  0  0  0  0  0
  146.5316  133.6164  162.5742 H   0  0  0  0  0  0  0  0  0  0  0  0
  148.6353  133.9493  160.1824 H   0  0  0  0  0  0  0  0  0  0  0  0
  151.8701  137.3651  158.7028 H   0  0  0  0  0  0  0  0  0  0  0  0
  150.6645  139.8179  157.4976 H   0  0  0  0  0  0  0  0  0  0  0  0
  152.5438  139.7504  155.8814 H   0  0  0  0  0  0  0  0  0  0  0  0
  151.5687  138.2905  155.7730 H   0  0  0  0  0  0  0  0  0  0  0  0
  153.1258  138.2485  156.5962 H   0  0  0  0  0  0  0  0  0  0  0  0
  152.5968  139.5308  159.5868 H   0  0  0  0  0  0  0  0  0  0  0  0
  153.4624  140.1160  158.1958 H   0  0  0  0  0  0  0  0  0  0  0  0
  152.6087  142.2535  157.1113 H   0  0  0  0  0  0  0  0  0  0  0  0
  150.9429  141.7163  157.1474 H   0  0  0  0  0  0  0  0  0  0  0  0
  151.0998  144.2054  157.1651 H   0  0  0  0  0  0  0  0  0  0  0  0
  150.2904  143.6031  158.6002 H   0  0  0  0  0  0  0  0  0  0  0  0
  153.2534  144.1034  160.6605 H   0  0  0  0  0  0  0  0  0  0  0  0
  151.5928  143.5384  160.7130 H   0  0  0  0  0  0  0  0  0  0  0  0
  153.1526  141.6013  160.6864 H   0  0  0  0  0  0  0  0  0  0  0  0
  153.9272  142.2026  159.2375 H   0  0  0  0  0  0  0  0  0  0  0  0
  1  2  1  0  0  0  0
  1 20  1  0  0  0  0
  1 21  1  0  0  0  0
  1 22  1  0  0  0  0
  2 19  1  0  0  0  0
  2  3  2  0  0  0  0
  3  4  1  0  0  0  0
  3 23  1  0  0  0  0
  4  5  1  0  0  0  0
  4 18  2  0  0  0  0
  5  6  1  0  0  0  0
  6  7  2  0  0  0  0
  6  8  1  0  0  0  0
  8  9  1  0  0  0  0
  8 24  1  0  0  0  0
  9 10  1  0  0  0  0
  9 11  1  0  0  0  0
  9 25  1  0  0  0  0
 10 26  1  0  0  0  0
 10 27  1  0  0  0  0
 10 28  1  0  0  0  0
 11 12  1  0  0  0  0
 11 29  1  0  0  0  0
 11 30  1  0  0  0  0
 12 17  1  0  0  0  0
 12 13  1  0  0  0  0
 13 14  1  0  0  0  0
 13 31  1  0  0  0  0
 13 32  1  0  0  0  0
 14 15  1  0  0  0  0
 14 33  1  0  0  0  0
 14 34  1  0  0  0  0
 15 16  1  0  0  0  0
 16 17  1  0  0  0  0
 16 35  1  0  0  0  0
 16 36  1  0  0  0  0
 17 37  1  0  0  0  0
 17 38  1  0  0  0  0
 18 19  1  0  0  0  0
M  CHG  1   5  -1
M  END
> <s_m_source_file>
AV-unprocessed.smi

> <i_m_source_file_index>
1952

> <i_lp_mmshare_version>
43012

> <i_f3d_flags>
0

> <s_epik_input>
W0NIM11jMVtjSF1jKG5vMSlbTkhdQyg9TylbTkhdW0NASF0oW0NIM10pW0NIMl1OMltDSDJdW0NIMl1PW0NIMl1bQ0gyXTI=

> <s_epik_cmdline>
J2VwaWtfcHl0aG9uJywgJy1waCcsICc3LjAnLCAnLXRuJywgJzgnLCAnLW1hJywgJzIwMCcsICctbWV0YWxfYmluZGluZycsICctaW1hZScsICc8aW5maWxlLm1hZT4nLCAnLW9tYWUnLCAnPG91dGZpbGUubWFlPic=

> <r_epik_Ionization_Penalty>
6.81701

> <r_epik_Ionization_Penalty_Charging>
6.50532

> <r_epik_Ionization_Penalty_Neutral>
0.311686

> <r_epik_State_Penalty>
6.70952

> <r_epik_Charging_Adjusted_Penalty>
13.2148

> <i_epik_Tot_Q>
-1

> <i_epik_Tot_abs_Q>
1

> <r_epik_Metal_State_Penalty>
2.64135

> <b_epik_Metal_Only>
1

> <s_lp_Force_Field>
OPLS_2005

> <r_lp_Energy>
18.9741

> <b_lp_Chiralities_Consistent>
1

> <s_lp_Variant>
AV-unprocessed.smi:1952-5

> <Gold.Version>
5.8.1

> <Gold.Id.Protein>
6NUR|6NUR_protein|mol2

> <Gold.PLP.Fitness>
41.7996

> <Gold.PLP.PLP>
-32.6443

> <Gold.PLP.part.hbond>
-3.9694

> <Gold.PLP.part.metal>
0.0000

> <Gold.PLP.part.buried>
-5.7882

> <Gold.PLP.part.nonpolar>
-23.3156

> <Gold.PLP.part.repulsive>
0.1121

> <Gold.PLP.ligand.clash>
0.0000

> <Gold.PLP.ligand.torsion>
0.9703

> <Gold.PLP.Chemscore.Hbond>
3.6800

> <Gold.PLP.Chemscore.CHOScore>
0.0000

> <Gold.PLP.Chemscore.Metal>
0.0000

> <Gold.Chemscore.Hbonds>
donor molecule, donor type, donor heavy atom, donor atom, acceptor molecule, acceptor atom, score
      P1  H  6896  6909       L1     5  2.00
      P1  H  6931  6943       L1    18  0.83
      P1  H  6934  6947       L1    18  0.73

> <Gold.PLP.Chemscore.Internal.Correction>
0.0559

> <Gold.Rescore>
     Score         DG    S(hbond)    S(metal)    S(lipo)     H(rot)  DE(clash)    DE(int)     intcor
     15.10     -17.57       2.11        0.00      76.73       1.53       0.00       2.47       ----

> <Gold.Chemscore.Fitness>
15.1037

> <Gold.Chemscore.DG>
-17.5717

> <Gold.Chemscore.ZeroCoef>
-5.4800

> <Gold.Chemscore.Hbond>
2.1064

> <Gold.Chemscore.Metal>
0.0000

> <Gold.Chemscore.Lipo>
76.7312

> <Gold.Chemscore.Internal_Hbond>
0.0000

> <Gold.Chemscore.DEClash>
0.0000

> <Gold.Chemscore.DEInternal>
2.4679

> <Gold.Chemscore.Rot>
1.5317

> <Gold.Chemscore.Internal.Correction>
   9.000000E+99

> <Gold.Chemscore.Hbonds>
donor molecule, donor type, donor heavy atom, donor atom, acceptor molecule, acceptor atom, score
      P1  H  6896  6909       L1     5  0.34
      P1  H  6931  6943       L1    18  0.42
      P1  H  6934  6947       L1    18  0.14

> <Gold.Chemscore.Hbond.Weighted>
-7.0352

> <Gold.Chemscore.Metal.Weighted>
-0.0000

> <Gold.Chemscore.Lipo.Weighted>
-8.9775

> <Gold.Chemscore.Internal_Hbond.Weighted>
0.0000

> <Gold.Chemscore.DEClash.Weighted>
0.0000

> <Gold.Chemscore.DEInternal.Weighted>
2.4679

> <Gold.Chemscore.Rot.Weighted>
3.9211

> <Gold.Chemscore.Internal.Correction.Weighted>
   9.000000E+99

> <Gold.Protein.RotatedTorsions>
[ 6907 6896 6895 6894 ] final   76.21 input  -60.11 | X-H torsion
[ 7974 7965 7964 7962 ] final  124.54 input  175.53 | X-H torsion
[ 8008 7997 7996 7995 ] final  164.71 input   59.86 | X-H torsion
[ 10167 10162 10161 10158 ] final -110.07 input  -65.29 | X-H torsion
[ 10718 10713 10712 10709 ] final   81.31 input   66.30 | X-H torsion
[ 10763 10752 10751 10750 ] final -121.89 input  -60.55 | X-H torsion
[ 11005 11000 10999 10996 ] final  -14.23 input  -57.11 | X-H torsion

> <Gold.Protein.ActiveResidues>
 VAL166  LYS551  ARG553  GLY616  TRP617  ASP618  TYR619  PRO620  LYS621  CYS622 
 ASP623  PHE694  ASN695  SER759  ASP760  ASP761  ALA762  ILE779  LEU786  VAL792 
 PHE793  MET794  SER795  GLU796  ALA797  LYS798  CYS799  TRP800  GLU811  SER814 

> <Gold.Protein.RotatedAtoms>
  152.5062  134.4003  159.9414 H   0  0  0  0  0  0  0  0  0  0  0  0  # atno 6907 bound_to 6896
  151.3967  133.3764  159.2735 H   0  0  0  0  0  0  0  0  0  0  0  0  # atno 6908 bound_to 6896
  150.9392  134.8823  159.7660 H   0  0  0  0  0  0  0  0  0  0  0  0  # atno 6909 bound_to 6896
  145.0833  139.3641  143.4898 H   0  0  0  0  0  0  0  0  0  0  0  0  # atno 7974 bound_to 7965
  156.1858  140.1689  156.8187 H   0  0  0  0  0  0  0  0  0  0  0  0  # atno 8008 bound_to 7997
  154.5413  140.0736  156.8547 H   0  0  0  0  0  0  0  0  0  0  0  0  # atno 8009 bound_to 7997
  155.3210  140.3373  155.4243 H   0  0  0  0  0  0  0  0  0  0  0  0  # atno 8010 bound_to 7997
  140.1485  143.4219  152.1512 H   0  0  0  0  0  0  0  0  0  0  0  0  # atno 10167 bound_to 10162
  157.6829  130.9998  150.2208 H   0  0  0  0  0  0  0  0  0  0  0  0  # atno 10718 bound_to 10713
  154.8678  135.4152  154.2694 H   0  0  0  0  0  0  0  0  0  0  0  0  # atno 10763 bound_to 10752
  153.3607  135.7003  153.6720 H   0  0  0  0  0  0  0  0  0  0  0  0  # atno 10764 bound_to 10752
  153.5622  135.3607  155.2776 H   0  0  0  0  0  0  0  0  0  0  0  0  # atno 10765 bound_to 10752
  140.7843  133.8338  155.9320 H   0  0  0  0  0  0  0  0  0  0  0  0  # atno 11005 bound_to 11000
  146.3531  140.0633  142.8628 LP  0  0  0  0  0  0  0  0  0  0  0  0  # atno 17320 bound_to 7965
  145.1153  140.9430  143.4632 LP  0  0  0  0  0  0  0  0  0  0  0  0  # atno 17321 bound_to 7965
  139.5437  144.7280  151.4651 LP  0  0  0  0  0  0  0  0  0  0  0  0  # atno 17342 bound_to 10162
  140.6717  143.8279  150.7007 LP  0  0  0  0  0  0  0  0  0  0  0  0  # atno 17343 bound_to 10162
  156.2860  130.3739  149.7888 LP  0  0  0  0  0  0  0  0  0  0  0  0  # atno 17370 bound_to 10713
  156.5562  130.8363  151.3315 LP  0  0  0  0  0  0  0  0  0  0  0  0  # atno 17371 bound_to 10713
  140.9452  134.1849  157.4768 LP  0  0  0  0  0  0  0  0  0  0  0  0  # atno 17394 bound_to 11000
  139.8738  134.9887  156.5427 LP  0  0  0  0  0  0  0  0  0  0  0  0  # atno 17395 bound_to 11000

$$$$
