AV-unprocessed.smi:1207|AV-procd|sdf|5055|dock5
  -GOLD-   22720 4 83D 1   1.00000     0.00000
 Structure written by MMmdl.
 52 54  0  0  0  0  0  0  0  0  2 V2000
  152.4684  143.0831  161.1975 C   0  0  0  0  0  0  0  0  0  0  0  0
  152.1722  142.4038  159.8713 C   0  0  0  0  0  0  0  0  0  0  0  0
  151.2726  143.0297  158.9787 C   0  0  0  0  0  0  0  0  0  0  0  0
  151.0268  142.3869  157.7712 C   0  0  0  0  0  0  0  0  0  0  0  0
  150.2093  142.7396  156.6948 N   0  3  0  0  0  0  0  0  0  0  0  0
  150.3004  141.7881  155.7243 C   0  0  0  0  0  0  0  0  0  0  0  0
  151.1632  140.8337  156.1664 N   0  0  0  0  0  0  0  0  0  0  0  0
  151.6238  139.6008  155.5148 C   0  0  0  0  0  0  0  0  0  0  0  0
  150.4983  138.8682  154.7588 C   0  0  2  0  0  0  0  0  0  0  0  0
  150.1170  139.6395  153.6368 O   0  0  0  0  0  0  0  0  0  0  0  0
  149.2567  138.6597  155.6499 C   0  0  0  0  0  0  0  0  0  0  0  0
  148.2665  137.7131  155.1317 N   0  0  0  0  0  0  0  0  0  0  0  0
  147.3250  138.4059  154.2562 C   0  0  0  0  0  0  0  0  0  0  0  0
  147.5562  137.0129  156.2076 C   0  0  0  0  0  0  0  0  0  0  0  0
  148.4105  135.9886  156.9094 C   0  0  0  0  0  0  0  0  0  0  0  0
  148.6552  135.8623  158.3067 C   0  0  0  0  0  0  0  0  0  0  0  0
  148.1233  136.7105  159.4259 C   0  0  0  0  0  0  0  0  0  0  0  0
  149.4601  134.8485  158.5781 N   0  0  0  0  0  0  0  0  0  0  0  0
  149.7750  134.2694  157.3450 O   0  0  0  0  0  0  0  0  0  0  0  0
  149.1390  134.9651  156.3682 C   0  0  0  0  0  0  0  0  0  0  0  0
  149.3556  134.4992  154.9681 C   0  0  0  0  0  0  0  0  0  0  0  0
  151.6390  141.1631  157.4394 C   0  0  0  0  0  0  0  0  0  0  0  0
  152.5240  140.5302  158.3082 C   0  0  0  0  0  0  0  0  0  0  0  0
  152.7895  141.1695  159.5403 C   0  0  0  0  0  0  0  0  0  0  0  0
  153.7558  140.5058  160.5066 C   0  0  0  0  0  0  0  0  0  0  0  0
  151.9120  144.0151  161.3015 H   0  0  0  0  0  0  0  0  0  0  0  0
  153.5299  143.3184  161.2778 H   0  0  0  0  0  0  0  0  0  0  0  0
  152.1924  142.4357  162.0303 H   0  0  0  0  0  0  0  0  0  0  0  0
  150.7993  143.9693  159.2239 H   0  0  0  0  0  0  0  0  0  0  0  0
  149.7865  141.7925  154.7736 H   0  0  0  0  0  0  0  0  0  0  0  0
  152.4450  139.8552  154.8432 H   0  0  0  0  0  0  0  0  0  0  0  0
  152.0436  138.9568  156.2891 H   0  0  0  0  0  0  0  0  0  0  0  0
  150.8859  137.9193  154.3937 H   0  0  0  0  0  0  0  0  0  0  0  0
  150.1918  139.0979  152.8655 H   0  0  0  0  0  0  0  0  0  0  0  0
  149.5728  138.3284  156.6404 H   0  0  0  0  0  0  0  0  0  0  0  0
  148.7906  139.6343  155.8058 H   0  0  0  0  0  0  0  0  0  0  0  0
  146.6198  137.7101  153.8012 H   0  0  0  0  0  0  0  0  0  0  0  0
  147.8496  138.9072  153.4422 H   0  0  0  0  0  0  0  0  0  0  0  0
  146.7555  139.1569  154.8053 H   0  0  0  0  0  0  0  0  0  0  0  0
  147.2005  137.7260  156.9482 H   0  0  0  0  0  0  0  0  0  0  0  0
  146.6530  136.5531  155.8041 H   0  0  0  0  0  0  0  0  0  0  0  0
  148.5400  137.7167  159.3818 H   0  0  0  0  0  0  0  0  0  0  0  0
  148.3684  136.2933  160.4033 H   0  0  0  0  0  0  0  0  0  0  0  0
  147.0382  136.7971  159.3668 H   0  0  0  0  0  0  0  0  0  0  0  0
  148.5497  134.8333  154.3146 H   0  0  0  0  0  0  0  0  0  0  0  0
  149.3951  133.4107  154.9228 H   0  0  0  0  0  0  0  0  0  0  0  0
  150.2940  134.8888  154.5740 H   0  0  0  0  0  0  0  0  0  0  0  0
  152.9940  139.5916  158.0541 H   0  0  0  0  0  0  0  0  0  0  0  0
  154.1404  139.5678  160.1053 H   0  0  0  0  0  0  0  0  0  0  0  0
  153.2607  140.2849  161.4525 H   0  0  0  0  0  0  0  0  0  0  0  0
  154.6076  141.1571  160.7044 H   0  0  0  0  0  0  0  0  0  0  0  0
  149.6335  143.5687  156.6232 H   0  0  0  0  0  0  0  0  0  0  0  0
  1  2  1  0  0  0  0
  1 26  1  0  0  0  0
  1 27  1  0  0  0  0
  1 28  1  0  0  0  0
  2 24  1  0  0  0  0
  2  3  2  0  0  0  0
  3  4  1  0  0  0  0
  3 29  1  0  0  0  0
  4 22  2  0  0  0  0
  4  5  1  0  0  0  0
  5  6  2  0  0  0  0
  5 52  1  0  0  0  0
  6  7  1  0  0  0  0
  6 30  1  0  0  0  0
  7  8  1  0  0  0  0
  7 22  1  0  0  0  0
  8  9  1  0  0  0  0
  8 31  1  0  0  0  0
  8 32  1  0  0  0  0
  9 10  1  0  0  0  0
  9 11  1  0  0  0  0
  9 33  1  0  0  0  0
 10 34  1  0  0  0  0
 11 12  1  0  0  0  0
 11 35  1  0  0  0  0
 11 36  1  0  0  0  0
 12 13  1  0  0  0  0
 12 14  1  0  0  0  0
 13 37  1  0  0  0  0
 13 38  1  0  0  0  0
 13 39  1  0  0  0  0
 14 15  1  0  0  0  0
 14 40  1  0  0  0  0
 14 41  1  0  0  0  0
 15 20  2  0  0  0  0
 15 16  1  0  0  0  0
 16 17  1  0  0  0  0
 16 18  2  0  0  0  0
 17 42  1  0  0  0  0
 17 43  1  0  0  0  0
 17 44  1  0  0  0  0
 18 19  1  0  0  0  0
 19 20  1  0  0  0  0
 20 21  1  0  0  0  0
 21 45  1  0  0  0  0
 21 46  1  0  0  0  0
 21 47  1  0  0  0  0
 22 23  1  0  0  0  0
 23 24  2  0  0  0  0
 23 48  1  0  0  0  0
 24 25  1  0  0  0  0
 25 49  1  0  0  0  0
 25 50  1  0  0  0  0
 25 51  1  0  0  0  0
M  CHG  1   5   1
M  END
> <s_m_source_file>
AV-unprocessed.smi

> <i_m_source_file_index>
1207

> <i_lp_mmshare_version>
43012

> <i_f3d_flags>
0

> <s_epik_input>
W0NIM11jKFtjSF0xKWMoW0NIM10pW2NIXWMoYzEyKW4oW2NIXW4yKVtDSDJdW0NASF0oW09IXSlbQ0gyXU4oW0NIM10pW0NIMl1jM2MoW0NIM10pbm9jM1tDSDNd

> <s_epik_cmdline>
J2VwaWtfcHl0aG9uJywgJy1waCcsICc3LjAnLCAnLXRuJywgJzgnLCAnLW1hJywgJzIwMCcsICctbWV0YWxfYmluZGluZycsICctaW1hZScsICc8aW5maWxlLm1hZT4nLCAnLW9tYWUnLCAnPG91dGZpbGUubWFlPic=

> <r_epik_Ionization_Penalty>
1.48114

> <r_epik_Ionization_Penalty_Charging>
1.21121

> <r_epik_Ionization_Penalty_Neutral>
0.269933

> <r_epik_State_Penalty>
1.53013

> <r_epik_Charging_Adjusted_Penalty>
2.74134

> <i_epik_Tot_Q>
1

> <i_epik_Tot_abs_Q>
1

> <r_epik_Metal_State_Penalty>
1.60462

> <b_epik_Metal_Only>
0

> <s_lp_Force_Field>
OPLS_2005

> <r_lp_Energy>
21.4613

> <b_lp_Chiralities_Consistent>
1

> <s_lp_Variant>
AV-unprocessed.smi:1207-7

> <Gold.Version>
5.8.1

> <Gold.Id.Protein>
6NUR|6NUR_protein|mol2

> <Gold.PLP.Fitness>
53.1945

> <Gold.PLP.PLP>
-42.3044

> <Gold.PLP.part.hbond>
-4.8069

> <Gold.PLP.part.metal>
0.0000

> <Gold.PLP.part.buried>
-5.2285

> <Gold.PLP.part.nonpolar>
-32.5551

> <Gold.PLP.part.repulsive>
0.1235

> <Gold.PLP.ligand.clash>
0.0000

> <Gold.PLP.ligand.torsion>
0.9213

> <Gold.PLP.Chemscore.Hbond>
4.1200

> <Gold.PLP.Chemscore.CHOScore>
0.0000

> <Gold.PLP.Chemscore.Metal>
0.0000

> <Gold.Chemscore.Hbonds>
donor molecule, donor type, donor heavy atom, donor atom, acceptor molecule, acceptor atom, score
      L1  H     5    52       P1  8028  1.98
      L1  H    10    34       P1  7957  0.29
      P1  H  6896  6909       L1    18  1.00
      P1  H  7989  7998       L1    10  0.85

> <Gold.PLP.Chemscore.Internal.Correction>
0.3727

> <Gold.Rescore>
     Score         DG    S(hbond)    S(metal)    S(lipo)     H(rot)  DE(clash)    DE(int)     intcor
     17.49     -19.62       2.38        0.00     106.77       2.46       0.10       2.04       ----

> <Gold.Chemscore.Fitness>
17.4865

> <Gold.Chemscore.DG>
-19.6232

> <Gold.Chemscore.ZeroCoef>
-5.4800

> <Gold.Chemscore.Hbond>
2.3762

> <Gold.Chemscore.Metal>
0.0000

> <Gold.Chemscore.Lipo>
106.7749

> <Gold.Chemscore.Internal_Hbond>
0.0000

> <Gold.Chemscore.DEClash>
0.0999

> <Gold.Chemscore.DEInternal>
2.0368

> <Gold.Chemscore.Rot>
2.4555

> <Gold.Chemscore.Internal.Correction>
   9.000000E+99

> <Gold.Chemscore.Hbonds>
donor molecule, donor type, donor heavy atom, donor atom, acceptor molecule, acceptor atom, score
      L1  H     5    52       P1  8028  0.94
      L1  H    10    34       P1  7957  0.20
      P1  H  6896  6909       L1    18  0.58
      P1  H  7989  7998       L1    10  0.11

> <Gold.Chemscore.Hbond.Weighted>
-7.9366

> <Gold.Chemscore.Metal.Weighted>
-0.0000

> <Gold.Chemscore.Lipo.Weighted>
-12.4927

> <Gold.Chemscore.Internal_Hbond.Weighted>
0.0000

> <Gold.Chemscore.DEClash.Weighted>
0.0999

> <Gold.Chemscore.DEInternal.Weighted>
2.0368

> <Gold.Chemscore.Rot.Weighted>
6.2861

> <Gold.Chemscore.Internal.Correction.Weighted>
   9.000000E+99

> <Gold.Protein.RotatedTorsions>
[ 6907 6896 6895 6894 ] final   49.98 input  -60.11 | X-H torsion
[ 7974 7965 7964 7962 ] final -122.06 input  175.53 | X-H torsion
[ 8008 7997 7996 7995 ] final  170.35 input   59.86 | X-H torsion
[ 10167 10162 10161 10158 ] final  -26.88 input  -65.29 | X-H torsion
[ 10718 10713 10712 10709 ] final  138.08 input   66.30 | X-H torsion
[ 10763 10752 10751 10750 ] final  -33.16 input  -60.55 | X-H torsion
[ 11005 11000 10999 10996 ] final -142.76 input  -57.11 | X-H torsion

> <Gold.Protein.ActiveResidues>
 VAL166  LYS551  ARG553  GLY616  TRP617  ASP618  TYR619  PRO620  LYS621  CYS622 
 ASP623  PHE694  ASN695  SER759  ASP760  ASP761  ALA762  ILE779  LEU786  VAL792 
 PHE793  MET794  SER795  GLU796  ALA797  LYS798  CYS799  TRP800  GLU811  SER814 

> <Gold.Protein.RotatedAtoms>
  152.2968  134.7658  160.0366 H   0  0  0  0  0  0  0  0  0  0  0  0  # atno 6907 bound_to 6896
  151.8185  133.3386  159.3585 H   0  0  0  0  0  0  0  0  0  0  0  0  # atno 6908 bound_to 6896
  150.7255  134.5526  159.5846 H   0  0  0  0  0  0  0  0  0  0  0  0  # atno 6909 bound_to 6896
  145.0335  140.8087  143.4309 H   0  0  0  0  0  0  0  0  0  0  0  0  # atno 7974 bound_to 7965
  156.1374  140.1540  156.8973 H   0  0  0  0  0  0  0  0  0  0  0  0  # atno 8008 bound_to 7997
  154.4958  140.0838  156.7733 H   0  0  0  0  0  0  0  0  0  0  0  0  # atno 8009 bound_to 7997
  155.4143  140.3420  155.4268 H   0  0  0  0  0  0  0  0  0  0  0  0  # atno 8010 bound_to 7997
  140.7280  143.4140  151.1059 H   0  0  0  0  0  0  0  0  0  0  0  0  # atno 10167 bound_to 10162
  157.4292  131.1047  151.0269 H   0  0  0  0  0  0  0  0  0  0  0  0  # atno 10718 bound_to 10713
  153.8257  135.6870  153.4821 H   0  0  0  0  0  0  0  0  0  0  0  0  # atno 10763 bound_to 10752
  153.1541  135.4606  154.9678 H   0  0  0  0  0  0  0  0  0  0  0  0  # atno 10764 bound_to 10752
  154.7908  135.3301  154.7725 H   0  0  0  0  0  0  0  0  0  0  0  0  # atno 10765 bound_to 10752
  140.8193  134.2651  157.4907 H   0  0  0  0  0  0  0  0  0  0  0  0  # atno 11005 bound_to 11000
  145.1739  139.2388  143.5327 LP  0  0  0  0  0  0  0  0  0  0  0  0  # atno 17320 bound_to 7965
  146.3501  140.1497  142.8592 LP  0  0  0  0  0  0  0  0  0  0  0  0  # atno 17321 bound_to 7965
  139.7777  143.8401  152.3132 LP  0  0  0  0  0  0  0  0  0  0  0  0  # atno 17342 bound_to 10162
  139.8341  144.7240  150.9413 LP  0  0  0  0  0  0  0  0  0  0  0  0  # atno 17343 bound_to 10162
  157.1171  130.6046  149.5496 LP  0  0  0  0  0  0  0  0  0  0  0  0  # atno 17370 bound_to 10713
  155.9907  130.4959  150.7269 LP  0  0  0  0  0  0  0  0  0  0  0  0  # atno 17371 bound_to 10713
  139.8709  134.9526  156.4120 LP  0  0  0  0  0  0  0  0  0  0  0  0  # atno 17394 bound_to 11000
  140.9116  133.7708  155.9798 LP  0  0  0  0  0  0  0  0  0  0  0  0  # atno 17395 bound_to 11000

$$$$
