AV-unprocessed.smi:3284|AV-procd|sdf|12577|dock4
  -GOLD-   2272018503D 1   1.00000     0.00000
 Structure written by MMmdl.
 45 46  0  0  0  0  0  0  0  0  3 V2000
  151.4396  145.3225  159.4090 C   0  0  0  0  0  0  0  0  0  0  0  0
  151.9602  144.0743  160.1043 C   0  0  0  0  0  0  0  0  0  0  0  0
  152.2197  144.1082  161.4254 C   0  0  0  0  0  0  0  0  0  0  0  0
  152.8075  142.9576  162.2091 C   0  0  0  0  0  0  0  0  0  0  0  0
  153.5190  141.9687  161.2827 C   0  0  0  0  0  0  0  0  0  0  0  0
  152.6282  141.5747  160.0931 C   0  0  2  0  0  0  0  0  0  0  0  0
  153.3459  140.5033  159.2492 C   0  0  0  0  0  0  0  0  0  0  0  0
  152.1933  142.8112  159.2473 C   0  0  1  0  0  0  0  0  0  0  0  0
  150.9684  142.4515  158.3656 C   0  0  0  0  0  0  0  0  0  0  0  0
  151.3103  141.5043  157.2856 N   0  3  0  0  0  0  0  0  0  0  0  0
  150.1559  140.7860  156.7099 C   0  0  0  0  0  0  0  0  0  0  0  0
  150.1237  140.9080  155.1771 C   0  0  0  0  0  0  0  0  0  0  0  0
  148.7953  141.3475  154.6334 C   0  0  0  0  0  0  0  0  0  0  0  0
  148.3101  142.5943  154.6884 N   0  3  0  0  0  0  0  0  0  0  0  0
  147.0655  142.6486  154.1225 C   0  0  0  0  0  0  0  0  0  0  0  0
  146.7770  141.3776  153.7006 C   0  0  0  0  0  0  0  0  0  0  0  0
  147.8588  140.5994  154.0248 N   0  0  0  0  0  0  0  0  0  0  0  0
  148.0055  139.1664  153.7618 C   0  0  0  0  0  0  0  0  0  0  0  0
  152.0391  145.5480  158.5269 H   0  0  0  0  0  0  0  0  0  0  0  0
  151.4857  146.1905  160.0675 H   0  0  0  0  0  0  0  0  0  0  0  0
  150.3986  145.1994  159.1111 H   0  0  0  0  0  0  0  0  0  0  0  0
  152.0205  145.0068  161.9917 H   0  0  0  0  0  0  0  0  0  0  0  0
  153.5129  143.3478  162.9432 H   0  0  0  0  0  0  0  0  0  0  0  0
  152.0070  142.4659  162.7628 H   0  0  0  0  0  0  0  0  0  0  0  0
  154.4433  142.4163  160.9140 H   0  0  0  0  0  0  0  0  0  0  0  0
  153.8104  141.0855  161.8524 H   0  0  0  0  0  0  0  0  0  0  0  0
  151.7295  141.1181  160.5113 H   0  0  0  0  0  0  0  0  0  0  0  0
  154.2515  140.9020  158.7908 H   0  0  0  0  0  0  0  0  0  0  0  0
  152.7175  140.1092  158.4522 H   0  0  0  0  0  0  0  0  0  0  0  0
  153.6396  139.6538  159.8669 H   0  0  0  0  0  0  0  0  0  0  0  0
  153.0273  143.0583  158.5887 H   0  0  0  0  0  0  0  0  0  0  0  0
  150.1725  141.9927  158.9499 H   0  0  0  0  0  0  0  0  0  0  0  0
  150.5490  143.3646  157.9405 H   0  0  0  0  0  0  0  0  0  0  0  0
  151.7475  142.0356  156.5463 H   0  0  0  0  0  0  0  0  0  0  0  0
  150.2105  139.7362  156.9995 H   0  0  0  0  0  0  0  0  0  0  0  0
  149.2338  141.1836  157.1338 H   0  0  0  0  0  0  0  0  0  0  0  0
  150.8662  141.6291  154.8323 H   0  0  0  0  0  0  0  0  0  0  0  0
  150.3659  139.9539  154.7083 H   0  0  0  0  0  0  0  0  0  0  0  0
  146.4939  143.5636  154.0626 H   0  0  0  0  0  0  0  0  0  0  0  0
  145.9036  140.9806  153.2033 H   0  0  0  0  0  0  0  0  0  0  0  0
  147.1801  138.8256  153.1358 H   0  0  0  0  0  0  0  0  0  0  0  0
  147.9879  138.6204  154.7046 H   0  0  0  0  0  0  0  0  0  0  0  0
  148.9458  138.9837  153.2411 H   0  0  0  0  0  0  0  0  0  0  0  0
  151.9774  140.8335  157.6401 H   0  0  0  0  0  0  0  0  0  0  0  0
  148.7989  143.3878  155.0841 H   0  0  0  0  0  0  0  0  0  0  0  0
  1  2  1  0  0  0  0
  1 19  1  0  0  0  0
  1 20  1  0  0  0  0
  1 21  1  0  0  0  0
  2  8  1  0  0  0  0
  2  3  2  0  0  0  0
  3  4  1  0  0  0  0
  3 22  1  0  0  0  0
  4  5  1  0  0  0  0
  4 23  1  0  0  0  0
  4 24  1  0  0  0  0
  5  6  1  0  0  0  0
  5 25  1  0  0  0  0
  5 26  1  0  0  0  0
  6  7  1  0  0  0  0
  6  8  1  0  0  0  0
  6 27  1  0  0  0  0
  7 28  1  0  0  0  0
  7 29  1  0  0  0  0
  7 30  1  0  0  0  0
  8  9  1  0  0  0  0
  8 31  1  0  0  0  0
  9 10  1  0  0  0  0
  9 32  1  0  0  0  0
  9 33  1  0  0  0  0
 10 11  1  0  0  0  0
 10 34  1  0  0  0  0
 10 44  1  0  0  0  0
 11 12  1  0  0  0  0
 11 35  1  0  0  0  0
 11 36  1  0  0  0  0
 12 13  1  0  0  0  0
 12 37  1  0  0  0  0
 12 38  1  0  0  0  0
 13 17  1  0  0  0  0
 13 14  2  0  0  0  0
 14 15  1  0  0  0  0
 14 45  1  0  0  0  0
 15 16  2  0  0  0  0
 15 39  1  0  0  0  0
 16 17  1  0  0  0  0
 16 40  1  0  0  0  0
 17 18  1  0  0  0  0
 18 41  1  0  0  0  0
 18 42  1  0  0  0  0
 18 43  1  0  0  0  0
M  CHG  1  10   1
M  CHG  1  14   1
M  END
> <s_m_source_file>
AV-unprocessed.smi

> <i_m_source_file_index>
3284

> <i_lp_mmshare_version>
43012

> <i_f3d_flags>
0

> <s_epik_input>
W0NIM11DMT1bQ0hdW0NIMl1bQ0gyXVtDQEBIXShbQ0gzXSlbQ0BIXTFbQ0gyXVtOSF1bQ0gyXVtDSDJdYzJuW2NIXVtjSF1uMltDSDNd

> <s_epik_cmdline>
J2VwaWtfcHl0aG9uJywgJy1waCcsICc3LjAnLCAnLXRuJywgJzgnLCAnLW1hJywgJzIwMCcsICctbWV0YWxfYmluZGluZycsICctaW1hZScsICc8aW5maWxlLm1hZT4nLCAnLW9tYWUnLCAnPG91dGZpbGUubWFlPic=

> <r_lp_tautomer_probability>
1

> <r_epik_Ionization_Penalty>
0.892846

> <r_epik_Ionization_Penalty_Charging>
0.00275802

> <r_epik_Ionization_Penalty_Neutral>
0.890088

> <r_epik_State_Penalty>
0.485211

> <r_epik_Charging_Adjusted_Penalty>
0.487969

> <i_epik_Tot_Q>
2

> <i_epik_Tot_abs_Q>
2

> <r_epik_Metal_State_Penalty>
4.22898

> <b_epik_Metal_Only>
0

> <s_lp_Force_Field>
OPLS_2005

> <r_lp_Energy>
25.617

> <b_lp_Chiralities_Consistent>
1

> <s_lp_Variant>
AV-unprocessed.smi:3284-6

> <Gold.Version>
5.8.1

> <Gold.Id.Protein>
6NUR|6NUR_protein|mol2

> <Gold.PLP.Fitness>
55.1565

> <Gold.PLP.PLP>
-48.2009

> <Gold.PLP.part.hbond>
-0.8917

> <Gold.PLP.part.metal>
0.0000

> <Gold.PLP.part.buried>
-4.8097

> <Gold.PLP.part.nonpolar>
-42.6358

> <Gold.PLP.part.repulsive>
0.2860

> <Gold.PLP.ligand.clash>
0.0000

> <Gold.PLP.ligand.torsion>
1.0827

> <Gold.PLP.Chemscore.Hbond>
2.0000

> <Gold.PLP.Chemscore.CHOScore>
1.0000

> <Gold.PLP.Chemscore.Metal>
0.0000

> <Gold.Chemscore.Hbonds>
donor molecule, donor type, donor heavy atom, donor atom, acceptor molecule, acceptor atom, score
      L1  H    14    45       P1  8028  1.53
      L1  C    16    40       P1 10175  1.00

> <Gold.PLP.Chemscore.Internal.Correction>
0.1209

> <Gold.Rescore>
     Score         DG    S(hbond)    S(metal)    S(lipo)     H(rot)  DE(clash)    DE(int)     intcor
     18.18     -19.55       0.99        0.00     129.10       1.70       0.13       1.24       ----

> <Gold.Chemscore.Fitness>
18.1797

> <Gold.Chemscore.DG>
-19.5521

> <Gold.Chemscore.ZeroCoef>
-5.4800

> <Gold.Chemscore.Hbond>
0.9937

> <Gold.Chemscore.Metal>
0.0000

> <Gold.Chemscore.Lipo>
129.0970

> <Gold.Chemscore.Internal_Hbond>
0.0000

> <Gold.Chemscore.DEClash>
0.1321

> <Gold.Chemscore.DEInternal>
1.2403

> <Gold.Chemscore.Rot>
1.6997

> <Gold.Chemscore.Internal.Correction>
   9.000000E+99

> <Gold.Chemscore.Hbonds>
donor molecule, donor type, donor heavy atom, donor atom, acceptor molecule, acceptor atom, score
      L1  H    14    45       P1  8028  0.72

> <Gold.Chemscore.Hbond.Weighted>
-3.3190

> <Gold.Chemscore.Metal.Weighted>
-0.0000

> <Gold.Chemscore.Lipo.Weighted>
-15.1043

> <Gold.Chemscore.Internal_Hbond.Weighted>
0.0000

> <Gold.Chemscore.DEClash.Weighted>
0.1321

> <Gold.Chemscore.DEInternal.Weighted>
1.2403

> <Gold.Chemscore.Rot.Weighted>
4.3512

> <Gold.Chemscore.Internal.Correction.Weighted>
   9.000000E+99

> <Gold.Protein.RotatedTorsions>
[ 6907 6896 6895 6894 ] final  -51.47 input  -60.11 | X-H torsion
[ 7974 7965 7964 7962 ] final -153.16 input  175.53 | X-H torsion
[ 8008 7997 7996 7995 ] final  108.91 input   59.86 | X-H torsion
[ 10167 10162 10161 10158 ] final -168.86 input  -65.29 | X-H torsion
[ 10718 10713 10712 10709 ] final  -61.80 input   66.30 | X-H torsion
[ 10763 10752 10751 10750 ] final  -48.37 input  -60.55 | X-H torsion
[ 11005 11000 10999 10996 ] final  -83.61 input  -57.11 | X-H torsion

> <Gold.Protein.ActiveResidues>
 VAL166  LYS551  ARG553  GLY616  TRP617  ASP618  TYR619  PRO620  LYS621  CYS622 
 ASP623  PHE694  ASN695  SER759  ASP760  ASP761  ALA762  ILE779  LEU786  VAL792 
 PHE793  MET794  SER795  GLU796  ALA797  LYS798  CYS799  TRP800  GLU811  SER814 

> <Gold.Protein.RotatedAtoms>
  150.8608  134.7959  159.7080 H   0  0  0  0  0  0  0  0  0  0  0  0  # atno 6907 bound_to 6896
  152.4645  134.5103  159.9761 H   0  0  0  0  0  0  0  0  0  0  0  0  # atno 6908 bound_to 6896
  151.5208  133.3428  159.2936 H   0  0  0  0  0  0  0  0  0  0  0  0  # atno 6909 bound_to 6896
  144.7755  140.4563  143.5876 H   0  0  0  0  0  0  0  0  0  0  0  0  # atno 7974 bound_to 7965
  156.1939  140.3067  155.9388 H   0  0  0  0  0  0  0  0  0  0  0  0  # atno 8008 bound_to 7997
  155.3110  140.0451  157.3052 H   0  0  0  0  0  0  0  0  0  0  0  0  # atno 8009 bound_to 7997
  154.5486  140.2284  155.8531 H   0  0  0  0  0  0  0  0  0  0  0  0  # atno 8010 bound_to 7997
  139.5959  144.1114  152.1688 H   0  0  0  0  0  0  0  0  0  0  0  0  # atno 10167 bound_to 10162
  156.0897  130.4202  150.1045 H   0  0  0  0  0  0  0  0  0  0  0  0  # atno 10718 bound_to 10713
  154.0767  135.6597  153.4832 H   0  0  0  0  0  0  0  0  0  0  0  0  # atno 10763 bound_to 10752
  153.0371  135.5170  154.7514 H   0  0  0  0  0  0  0  0  0  0  0  0  # atno 10764 bound_to 10752
  154.6596  135.3013  154.9851 H   0  0  0  0  0  0  0  0  0  0  0  0  # atno 10765 bound_to 10752
  141.1656  133.7303  156.8746 H   0  0  0  0  0  0  0  0  0  0  0  0  # atno 11005 bound_to 11000
  145.6198  139.1523  143.3029 LP  0  0  0  0  0  0  0  0  0  0  0  0  # atno 17320 bound_to 7965
  146.1932  140.6309  142.9136 LP  0  0  0  0  0  0  0  0  0  0  0  0  # atno 17321 bound_to 7965
  140.0699  144.5788  150.7200 LP  0  0  0  0  0  0  0  0  0  0  0  0  # atno 17342 bound_to 10162
  140.7211  143.2590  151.4275 LP  0  0  0  0  0  0  0  0  0  0  0  0  # atno 17343 bound_to 10162
  156.9058  130.9635  151.3570 LP  0  0  0  0  0  0  0  0  0  0  0  0  # atno 17370 bound_to 10713
  157.6043  130.8535  149.8850 LP  0  0  0  0  0  0  0  0  0  0  0  0  # atno 17371 bound_to 10713
  140.1758  134.9068  157.2888 LP  0  0  0  0  0  0  0  0  0  0  0  0  # atno 17394 bound_to 11000
  140.2451  134.3750  155.7465 LP  0  0  0  0  0  0  0  0  0  0  0  0  # atno 17395 bound_to 11000

$$$$
