AV-unprocessed.smi:81|AV-procd|sdf|786|dock2
  -GOLD-   2262017153D 1   1.00000     0.00000
 Structure written by MMmdl.
 64 67  0  0  0  0  0  0  0  0  2 V2000
  141.6597  137.6431  154.7309 C   0  0  0  0  0  0  0  0  0  0  0  0
  141.8892  136.9836  153.3610 C   0  0  0  0  0  0  0  0  0  0  0  0
  141.4477  135.5137  153.3913 C   0  0  0  0  0  0  0  0  0  0  0  0
  143.3635  137.0930  152.9086 C   0  0  0  0  0  0  0  0  0  0  0  0
  144.2278  136.0249  153.4201 N   0  0  0  0  0  0  0  0  0  0  0  0
  145.0980  136.4143  154.3847 C   0  0  0  0  0  0  0  0  0  0  0  0
  145.0176  135.8766  155.6306 N   0  0  0  0  0  0  0  0  0  0  0  0
  145.8877  136.2456  156.5753 C   0  0  0  0  0  0  0  0  0  0  0  0
  146.8984  137.1128  156.4859 N   0  0  0  0  0  0  0  0  0  0  0  0
  146.9878  137.6439  155.2327 C   0  0  0  0  0  0  0  0  0  0  0  0
  146.1312  137.3560  154.1346 C   0  0  0  0  0  0  0  0  0  0  0  0
  146.5214  138.0866  153.0198 N   0  0  0  0  0  0  0  0  0  0  0  0
  147.5567  138.7648  153.4339 C   0  0  0  0  0  0  0  0  0  0  0  0
  147.9140  138.5498  154.7464 N   0  0  0  0  0  0  0  0  0  0  0  0
  149.0311  139.1540  155.4564 C   0  0  0  0  0  0  0  0  0  0  0  0
  150.4112  138.7968  154.8436 C   0  0  1  0  0  0  0  0  0  0  0  0
  150.4934  139.4056  153.5656 O   0  0  0  0  0  0  0  0  0  0  0  0
  151.5940  139.2926  155.6703 C   0  0  0  0  0  0  0  0  0  0  0  0
  152.6933  138.3024  155.3185 C   0  0  0  0  0  0  0  0  0  0  0  0
  151.9930  137.0720  155.2671 O   0  0  0  0  0  0  0  0  0  0  0  0
  150.7186  137.2835  154.6634 C   0  0  1  0  0  0  0  0  0  0  0  0
  149.7343  136.2968  155.3105 C   0  0  0  0  0  0  0  0  0  0  0  0
  144.7424  135.0688  152.4289 C   0  0  2  0  0  0  0  0  0  0  0  0
  143.6391  134.3535  151.6209 C   0  0  0  0  0  0  0  0  0  0  0  0
  144.2510  133.4377  150.5483 C   0  0  0  0  0  0  0  0  0  0  0  0
  145.1752  132.4488  151.1569 N   0  3  1  0  0  0  0  0  0  0  0  0
  145.6865  131.4753  150.1683 C   0  0  0  0  0  0  0  0  0  0  0  0
  146.2665  133.1031  151.9211 C   0  0  0  0  0  0  0  0  0  0  0  0
  145.7023  134.0150  153.0228 C   0  0  0  0  0  0  0  0  0  0  0  0
  142.2720  137.1762  155.5030 H   0  0  0  0  0  0  0  0  0  0  0  0
  140.6167  137.5582  155.0372 H   0  0  0  0  0  0  0  0  0  0  0  0
  141.9053  138.7047  154.7094 H   0  0  0  0  0  0  0  0  0  0  0  0
  141.2518  137.4879  152.6339 H   0  0  0  0  0  0  0  0  0  0  0  0
  142.0391  134.9360  154.1025 H   0  0  0  0  0  0  0  0  0  0  0  0
  141.5599  135.0502  152.4108 H   0  0  0  0  0  0  0  0  0  0  0  0
  140.3997  135.4232  153.6781 H   0  0  0  0  0  0  0  0  0  0  0  0
  143.4023  137.0864  151.8187 H   0  0  0  0  0  0  0  0  0  0  0  0
  143.7687  138.0579  153.2165 H   0  0  0  0  0  0  0  0  0  0  0  0
  145.7593  135.7760  157.5394 H   0  0  0  0  0  0  0  0  0  0  0  0
  148.0984  139.4380  152.7855 H   0  0  0  0  0  0  0  0  0  0  0  0
  148.8771  140.2333  155.4502 H   0  0  0  0  0  0  0  0  0  0  0  0
  148.9840  138.8398  156.4999 H   0  0  0  0  0  0  0  0  0  0  0  0
  150.2944  138.7554  152.9095 H   0  0  0  0  0  0  0  0  0  0  0  0
  151.8689  140.3297  155.4719 H   0  0  0  0  0  0  0  0  0  0  0  0
  151.3707  139.2059  156.7344 H   0  0  0  0  0  0  0  0  0  0  0  0
  153.1260  138.5238  154.3417 H   0  0  0  0  0  0  0  0  0  0  0  0
  153.4949  138.2797  156.0569 H   0  0  0  0  0  0  0  0  0  0  0  0
  150.8060  137.0356  153.6038 H   0  0  0  0  0  0  0  0  0  0  0  0
  148.7348  136.3951  154.8872 H   0  0  0  0  0  0  0  0  0  0  0  0
  149.6663  136.4474  156.3880 H   0  0  0  0  0  0  0  0  0  0  0  0
  150.0579  135.2690  155.1450 H   0  0  0  0  0  0  0  0  0  0  0  0
  145.3149  135.6646  151.7167 H   0  0  0  0  0  0  0  0  0  0  0  0
  143.0070  133.7536  152.2767 H   0  0  0  0  0  0  0  0  0  0  0  0
  142.9894  135.0881  151.1439 H   0  0  0  0  0  0  0  0  0  0  0  0
  143.4534  132.9153  150.0188 H   0  0  0  0  0  0  0  0  0  0  0  0
  144.7873  134.0328  149.8075 H   0  0  0  0  0  0  0  0  0  0  0  0
  146.2879  131.9712  149.4052 H   0  0  0  0  0  0  0  0  0  0  0  0
  144.8631  130.9597  149.6733 H   0  0  0  0  0  0  0  0  0  0  0  0
  146.3054  130.7209  150.6551 H   0  0  0  0  0  0  0  0  0  0  0  0
  146.9035  132.3411  152.3721 H   0  0  0  0  0  0  0  0  0  0  0  0
  146.8954  133.6803  151.2413 H   0  0  0  0  0  0  0  0  0  0  0  0
  146.5272  134.4990  153.5460 H   0  0  0  0  0  0  0  0  0  0  0  0
  145.1850  133.4000  153.7596 H   0  0  0  0  0  0  0  0  0  0  0  0
  144.6322  131.9204  151.8250 H   0  0  0  0  0  0  0  0  0  0  0  0
  1  2  1  0  0  0  0
  1 30  1  0  0  0  0
  1 31  1  0  0  0  0
  1 32  1  0  0  0  0
  2  3  1  0  0  0  0
  2  4  1  0  0  0  0
  2 33  1  0  0  0  0
  3 34  1  0  0  0  0
  3 35  1  0  0  0  0
  3 36  1  0  0  0  0
  4  5  1  0  0  0  0
  4 37  1  0  0  0  0
  4 38  1  0  0  0  0
  5  6  1  0  0  0  0
  5 23  1  0  0  0  0
  6 11  1  0  0  0  0
  6  7  2  0  0  0  0
  7  8  1  0  0  0  0
  8  9  2  0  0  0  0
  8 39  1  0  0  0  0
  9 10  1  0  0  0  0
 10 14  1  0  0  0  0
 10 11  2  0  0  0  0
 11 12  1  0  0  0  0
 12 13  2  0  0  0  0
 13 14  1  0  0  0  0
 13 40  1  0  0  0  0
 14 15  1  0  0  0  0
 15 16  1  0  0  0  0
 15 41  1  0  0  0  0
 15 42  1  0  0  0  0
 16 21  1  0  0  0  0
 16 17  1  0  0  0  0
 16 18  1  0  0  0  0
 17 43  1  0  0  0  0
 18 19  1  0  0  0  0
 18 44  1  0  0  0  0
 18 45  1  0  0  0  0
 19 20  1  0  0  0  0
 19 46  1  0  0  0  0
 19 47  1  0  0  0  0
 20 21  1  0  0  0  0
 21 22  1  0  0  0  0
 21 48  1  0  0  0  0
 22 49  1  0  0  0  0
 22 50  1  0  0  0  0
 22 51  1  0  0  0  0
 23 29  1  0  0  0  0
 23 24  1  0  0  0  0
 23 52  1  0  0  0  0
 24 25  1  0  0  0  0
 24 53  1  0  0  0  0
 24 54  1  0  0  0  0
 25 26  1  0  0  0  0
 25 55  1  0  0  0  0
 25 56  1  0  0  0  0
 26 27  1  0  0  0  0
 26 28  1  0  0  0  0
 26 64  1  0  0  0  0
 27 57  1  0  0  0  0
 27 58  1  0  0  0  0
 27 59  1  0  0  0  0
 28 29  1  0  0  0  0
 28 60  1  0  0  0  0
 28 61  1  0  0  0  0
 29 62  1  0  0  0  0
 29 63  1  0  0  0  0
M  CHG  1  26   1
M  END
> <s_m_source_file>
AV-unprocessed.smi

> <i_m_source_file_index>
81

> <i_lp_mmshare_version>
43012

> <i_f3d_flags>
0

> <s_epik_input>
W0NIMl0xW0NIMl1OKFtDSDNdKVtDSDJdW0NIMl1bQ0hdMU4oW0NIMl1bQ0hdKFtDSDNdKVtDSDNdKWMobltjSF1uMiljKGMyMyluW2NIXW4zW0NIMl1bQ0BAXTQoW09IXSlbQ0gyXVtDSDJdT1tDQEhdNFtDSDNd

> <s_epik_cmdline>
J2VwaWtfcHl0aG9uJywgJy1waCcsICc3LjAnLCAnLXRuJywgJzgnLCAnLW1hJywgJzIwMCcsICctbWV0YWxfYmluZGluZycsICctaW1hZScsICc8aW5maWxlLm1hZT4nLCAnLW9tYWUnLCAnPG91dGZpbGUubWFlPic=

> <r_lp_tautomer_probability>
1

> <r_epik_Ionization_Penalty>
0.00272708

> <r_epik_Ionization_Penalty_Charging>
0.00158983

> <r_epik_Ionization_Penalty_Neutral>
0.00113725

> <r_epik_State_Penalty>
-0

> <r_epik_Charging_Adjusted_Penalty>
0.00158983

> <i_epik_Tot_Q>
1

> <i_epik_Tot_abs_Q>
1

> <r_epik_Metal_State_Penalty>
-0

> <b_epik_Metal_Only>
0

> <s_lp_Force_Field>
OPLS_2005

> <r_lp_Energy>
44.8479

> <b_lp_Chiralities_Consistent>
1

> <s_lp_Variant>
AV-unprocessed.smi:81-1

> <Gold.Version>
5.8.1

> <Gold.Id.Protein>
6NUR|6NUR_protein|mol2

> <Gold.PLP.Fitness>
45.3878

> <Gold.PLP.PLP>
-38.6092

> <Gold.PLP.part.hbond>
-2.9755

> <Gold.PLP.part.metal>
0.0000

> <Gold.PLP.part.buried>
-5.0356

> <Gold.PLP.part.nonpolar>
-31.6427

> <Gold.PLP.part.repulsive>
0.4567

> <Gold.PLP.ligand.clash>
0.0000

> <Gold.PLP.ligand.torsion>
1.4285

> <Gold.PLP.Chemscore.Hbond>
1.8985

> <Gold.PLP.Chemscore.CHOScore>
1.0000

> <Gold.PLP.Chemscore.Metal>
0.0000

> <Gold.Chemscore.Hbonds>
donor molecule, donor type, donor heavy atom, donor atom, acceptor molecule, acceptor atom, score
      L1  H    17    43       P1  7957  0.03
      P1  H  7989  7998       L1    17  0.88
      P1  H 10752 10765       L1    20  0.86
      L1  C    13    40       P1  7957  1.00

> <Gold.PLP.Chemscore.Internal.Correction>
0.9401

> <Gold.Rescore>
     Score         DG    S(hbond)    S(metal)    S(lipo)     H(rot)  DE(clash)    DE(int)     intcor
     11.65     -15.79       1.97        0.00      88.40       2.58       0.29       3.85       ----

> <Gold.Chemscore.Fitness>
11.6491

> <Gold.Chemscore.DG>
-15.7909

> <Gold.Chemscore.ZeroCoef>
-5.4800

> <Gold.Chemscore.Hbond>
1.9659

> <Gold.Chemscore.Metal>
0.0000

> <Gold.Chemscore.Lipo>
88.4023

> <Gold.Chemscore.Internal_Hbond>
0.0000

> <Gold.Chemscore.DEClash>
0.2921

> <Gold.Chemscore.DEInternal>
3.8497

> <Gold.Chemscore.Rot>
2.5774

> <Gold.Chemscore.Internal.Correction>
   9.000000E+99

> <Gold.Chemscore.Hbonds>
donor molecule, donor type, donor heavy atom, donor atom, acceptor molecule, acceptor atom, score
      L1  H    17    43       P1  7957  0.02
      P1  H  7989  7998       L1    17  0.78
      P1  H 10752 10765       L1    20  0.76

> <Gold.Chemscore.Hbond.Weighted>
-6.5661

> <Gold.Chemscore.Metal.Weighted>
-0.0000

> <Gold.Chemscore.Lipo.Weighted>
-10.3431

> <Gold.Chemscore.Internal_Hbond.Weighted>
0.0000

> <Gold.Chemscore.DEClash.Weighted>
0.2921

> <Gold.Chemscore.DEInternal.Weighted>
3.8497

> <Gold.Chemscore.Rot.Weighted>
6.5982

> <Gold.Chemscore.Internal.Correction.Weighted>
   9.000000E+99

> <Gold.Protein.RotatedTorsions>
[ 6907 6896 6895 6894 ] final  -61.97 input  -60.11 | X-H torsion
[ 7974 7965 7964 7962 ] final  159.55 input  175.53 | X-H torsion
[ 8008 7997 7996 7995 ] final  -80.39 input   59.86 | X-H torsion
[ 10167 10162 10161 10158 ] final   40.73 input  -65.29 | X-H torsion
[ 10718 10713 10712 10709 ] final -140.94 input   66.30 | X-H torsion
[ 10763 10752 10751 10750 ] final -159.30 input  -60.55 | X-H torsion
[ 11005 11000 10999 10996 ] final   71.88 input  -57.11 | X-H torsion

> <Gold.Protein.ActiveResidues>
 VAL166  LYS551  ARG553  GLY616  TRP617  ASP618  TYR619  PRO620  LYS621  CYS622 
 ASP623  PHE694  ASN695  SER759  ASP760  ASP761  ALA762  ILE779  LEU786  VAL792 
 PHE793  MET794  SER795  GLU796  ALA797  LYS798  CYS799  TRP800  GLU811  SER814 

> <Gold.Protein.RotatedAtoms>
  150.7747  134.6633  159.6351 H   0  0  0  0  0  0  0  0  0  0  0  0  # atno 6907 bound_to 6896
  152.3813  134.6583  160.0151 H   0  0  0  0  0  0  0  0  0  0  0  0  # atno 6908 bound_to 6896
  151.6912  133.3274  159.3279 H   0  0  0  0  0  0  0  0  0  0  0  0  # atno 6909 bound_to 6896
  144.7784  139.7633  143.6269 H   0  0  0  0  0  0  0  0  0  0  0  0  # atno 7974 bound_to 7965
  154.5879  140.0663  156.9197 H   0  0  0  0  0  0  0  0  0  0  0  0  # atno 8008 bound_to 7997
  155.2347  140.3340  155.4281 H   0  0  0  0  0  0  0  0  0  0  0  0  # atno 8009 bound_to 7997
  156.2235  140.1809  156.7403 H   0  0  0  0  0  0  0  0  0  0  0  0  # atno 8010 bound_to 7997
  140.3713  144.2101  150.6133 H   0  0  0  0  0  0  0  0  0  0  0  0  # atno 10167 bound_to 10162
  156.3282  130.7572  151.1684 H   0  0  0  0  0  0  0  0  0  0  0  0  # atno 10718 bound_to 10713
  154.7486  135.3086  154.8600 H   0  0  0  0  0  0  0  0  0  0  0  0  # atno 10763 bound_to 10752
  153.9393  135.6776  153.4748 H   0  0  0  0  0  0  0  0  0  0  0  0  # atno 10764 bound_to 10752
  153.1082  135.4879  154.8915 H   0  0  0  0  0  0  0  0  0  0  0  0  # atno 10765 bound_to 10752
  139.9520  134.7210  156.0840 H   0  0  0  0  0  0  0  0  0  0  0  0  # atno 11005 bound_to 11000
  146.1977  139.5254  142.9763 LP  0  0  0  0  0  0  0  0  0  0  0  0  # atno 17320 bound_to 7965
  145.6120  141.0338  143.1961 LP  0  0  0  0  0  0  0  0  0  0  0  0  # atno 17321 bound_to 7965
  140.5030  143.2312  151.8650 LP  0  0  0  0  0  0  0  0  0  0  0  0  # atno 17342 bound_to 10162
  139.4803  144.5037  151.9026 LP  0  0  0  0  0  0  0  0  0  0  0  0  # atno 17343 bound_to 10162
  157.7425  131.0488  150.5017 LP  0  0  0  0  0  0  0  0  0  0  0  0  # atno 17370 bound_to 10713
  156.5179  130.4155  149.6266 LP  0  0  0  0  0  0  0  0  0  0  0  0  # atno 17371 bound_to 10713
  141.1185  133.6620  156.3154 LP  0  0  0  0  0  0  0  0  0  0  0  0  # atno 17394 bound_to 11000
  140.5697  134.5853  157.5454 LP  0  0  0  0  0  0  0  0  0  0  0  0  # atno 17395 bound_to 11000

$$$$
