AV-unprocessed.smi:2840|AV-procd|sdf|10932|dock2
  -GOLD-   2272015373D 1   1.00000     0.00000
 Structure written by MMmdl.
 36 37  0  0  0  0  0  0  0  0  1 V2000
  145.6559  148.0763  159.3007 C   0  0  0  0  0  0  0  0  0  0  0  0
  145.1129  146.6631  159.5728 C   0  0  1  0  0  0  0  0  0  0  0  0
  144.7196  145.9452  158.2650 C   0  0  0  0  0  0  0  0  0  0  0  0
  144.1163  144.5590  158.5415 C   0  0  0  0  0  0  0  0  0  0  0  0
  145.0709  143.6894  159.3727 C   0  0  0  0  0  0  0  0  0  0  0  0
  145.4729  144.3957  160.6793 C   0  0  0  0  0  0  0  0  0  0  0  0
  146.0720  145.7943  160.4271 C   0  0  1  0  0  0  0  0  0  0  0  0
  147.3918  145.6615  159.8057 N   0  0  0  0  0  0  0  0  0  0  0  0
  148.4748  145.0965  160.3603 C   0  0  0  0  0  0  0  0  0  0  0  0
  148.4960  144.6373  161.5027 O   0  0  0  0  0  0  0  0  0  0  0  0
  149.5135  145.1041  159.5066 N   0  0  0  0  0  0  0  0  0  0  0  0
  150.8175  144.5764  159.7040 C   0  0  0  0  0  0  0  0  0  0  0  0
  151.6999  144.7381  158.6119 C   0  0  0  0  0  0  0  0  0  0  0  0
  153.0153  144.2431  158.7042 C   0  0  0  0  0  0  0  0  0  0  0  0
  153.4156  143.5998  159.8888 C   0  0  0  0  0  0  0  0  0  0  0  0
  152.4762  143.4830  160.9298 C   0  0  0  0  0  0  0  0  0  0  0  0
  151.2149  143.9556  160.8430 N   0  0  0  0  0  0  0  0  0  0  0  0
  146.5379  148.0542  158.6606 H   0  0  0  0  0  0  0  0  0  0  0  0
  145.9301  148.5759  160.2303 H   0  0  0  0  0  0  0  0  0  0  0  0
  144.9063  148.6935  158.8049 H   0  0  0  0  0  0  0  0  0  0  0  0
  144.1989  146.7901  160.1549 H   0  0  0  0  0  0  0  0  0  0  0  0
  143.9998  146.5492  157.7115 H   0  0  0  0  0  0  0  0  0  0  0  0
  145.5927  145.8416  157.6194 H   0  0  0  0  0  0  0  0  0  0  0  0
  143.1703  144.6723  159.0726 H   0  0  0  0  0  0  0  0  0  0  0  0
  143.8844  144.0603  157.6001 H   0  0  0  0  0  0  0  0  0  0  0  0
  144.5981  142.7334  159.5991 H   0  0  0  0  0  0  0  0  0  0  0  0
  145.9610  143.4595  158.7862 H   0  0  0  0  0  0  0  0  0  0  0  0
  144.5913  144.4941  161.3140 H   0  0  0  0  0  0  0  0  0  0  0  0
  146.1777  143.7772  161.2366 H   0  0  0  0  0  0  0  0  0  0  0  0
  146.1830  146.2739  161.4011 H   0  0  0  0  0  0  0  0  0  0  0  0
  147.4789  146.0178  158.8653 H   0  0  0  0  0  0  0  0  0  0  0  0
  149.3463  145.5185  158.6018 H   0  0  0  0  0  0  0  0  0  0  0  0
  151.3757  145.2345  157.7087 H   0  0  0  0  0  0  0  0  0  0  0  0
  153.7041  144.3546  157.8797 H   0  0  0  0  0  0  0  0  0  0  0  0
  154.4156  143.2068  159.9971 H   0  0  0  0  0  0  0  0  0  0  0  0
  152.7439  142.9966  161.8562 H   0  0  0  0  0  0  0  0  0  0  0  0
  1  2  1  0  0  0  0
  1 18  1  0  0  0  0
  1 19  1  0  0  0  0
  1 20  1  0  0  0  0
  2  7  1  0  0  0  0
  2  3  1  0  0  0  0
  2 21  1  0  0  0  0
  3  4  1  0  0  0  0
  3 22  1  0  0  0  0
  3 23  1  0  0  0  0
  4  5  1  0  0  0  0
  4 24  1  0  0  0  0
  4 25  1  0  0  0  0
  5  6  1  0  0  0  0
  5 26  1  0  0  0  0
  5 27  1  0  0  0  0
  6  7  1  0  0  0  0
  6 28  1  0  0  0  0
  6 29  1  0  0  0  0
  7  8  1  0  0  0  0
  7 30  1  0  0  0  0
  8  9  1  0  0  0  0
  8 31  1  0  0  0  0
  9 10  2  0  0  0  0
  9 11  1  0  0  0  0
 11 12  1  0  0  0  0
 11 32  1  0  0  0  0
 12 17  1  0  0  0  0
 12 13  2  0  0  0  0
 13 14  1  0  0  0  0
 13 33  1  0  0  0  0
 14 15  2  0  0  0  0
 14 34  1  0  0  0  0
 15 16  1  0  0  0  0
 15 35  1  0  0  0  0
 16 17  2  0  0  0  0
 16 36  1  0  0  0  0
M  END
> <s_m_source_file>
AV-unprocessed.smi

> <i_m_source_file_index>
2840

> <i_lp_mmshare_version>
43012

> <i_f3d_flags>
0

> <s_epik_input>
W0NIM11bQ0BASF0xW0NIMl1bQ0gyXVtDSDJdW0NIMl1bQ0BIXTFbTkhdQyg9TylbTkhdYzJbY0hdW2NIXVtjSF1bY0hdbjI=

> <s_epik_cmdline>
J2VwaWtfcHl0aG9uJywgJy1waCcsICc3LjAnLCAnLXRuJywgJzgnLCAnLW1hJywgJzIwMCcsICctbWV0YWxfYmluZGluZycsICctaW1hZScsICc8aW5maWxlLm1hZT4nLCAnLW9tYWUnLCAnPG91dGZpbGUubWFlPic=

> <r_lp_tautomer_probability>
1

> <r_epik_Ionization_Penalty>
5.29956e-05

> <r_epik_Ionization_Penalty_Charging>
0

> <r_epik_Ionization_Penalty_Neutral>
5.29956e-05

> <r_epik_State_Penalty>
-0

> <r_epik_Charging_Adjusted_Penalty>
0

> <i_epik_Tot_Q>
0

> <i_epik_Tot_abs_Q>
0

> <r_epik_Metal_State_Penalty>
-0

> <b_epik_Metal_Only>
0

> <s_lp_Force_Field>
OPLS_2005

> <r_lp_Energy>
11.7155

> <b_lp_Chiralities_Consistent>
1

> <s_lp_Variant>
AV-unprocessed.smi:2840-2

> <Gold.Version>
5.8.1

> <Gold.Id.Protein>
6NUR|6NUR_protein|mol2

> <Gold.PLP.Fitness>
44.3264

> <Gold.PLP.PLP>
-36.2078

> <Gold.PLP.part.hbond>
-3.9985

> <Gold.PLP.part.metal>
0.0000

> <Gold.PLP.part.buried>
-6.5436

> <Gold.PLP.part.nonpolar>
-27.9188

> <Gold.PLP.part.repulsive>
0.6867

> <Gold.PLP.ligand.clash>
0.0000

> <Gold.PLP.ligand.torsion>
0.0363

> <Gold.PLP.Chemscore.Hbond>
2.7280

> <Gold.PLP.Chemscore.CHOScore>
0.0000

> <Gold.PLP.Chemscore.Metal>
0.0000

> <Gold.Chemscore.Hbonds>
donor molecule, donor type, donor heavy atom, donor atom, acceptor molecule, acceptor atom, score
      L1  H     8    31       P1  8029  1.00
      L1  H    11    32       P1  8029  0.88
      P1  H  6933  6944       L1    10  0.36

> <Gold.PLP.Chemscore.Internal.Correction>
0.0071

> <Gold.Rescore>
     Score         DG    S(hbond)    S(metal)    S(lipo)     H(rot)  DE(clash)    DE(int)     intcor
     20.39     -21.80       2.89        0.00      78.99       1.00       0.02       1.39       ----

> <Gold.Chemscore.Fitness>
20.3943

> <Gold.Chemscore.DG>
-21.8007

> <Gold.Chemscore.ZeroCoef>
-5.4800

> <Gold.Chemscore.Hbond>
2.8860

> <Gold.Chemscore.Metal>
0.0000

> <Gold.Chemscore.Lipo>
78.9853

> <Gold.Chemscore.Internal_Hbond>
0.0000

> <Gold.Chemscore.DEClash>
0.0174

> <Gold.Chemscore.DEInternal>
1.3890

> <Gold.Chemscore.Rot>
1.0000

> <Gold.Chemscore.Internal.Correction>
   9.000000E+99

> <Gold.Chemscore.Hbonds>
donor molecule, donor type, donor heavy atom, donor atom, acceptor molecule, acceptor atom, score
      L1  H     8    31       P1  8029  0.98
      L1  H    11    32       P1  8029  0.80
      P1  H  6933  6944       L1    10  0.27

> <Gold.Chemscore.Hbond.Weighted>
-9.6394

> <Gold.Chemscore.Metal.Weighted>
-0.0000

> <Gold.Chemscore.Lipo.Weighted>
-9.2413

> <Gold.Chemscore.Internal_Hbond.Weighted>
0.0000

> <Gold.Chemscore.DEClash.Weighted>
0.0174

> <Gold.Chemscore.DEInternal.Weighted>
1.3890

> <Gold.Chemscore.Rot.Weighted>
2.5600

> <Gold.Chemscore.Internal.Correction.Weighted>
   9.000000E+99

> <Gold.Protein.RotatedTorsions>
[ 6907 6896 6895 6894 ] final   49.44 input  -60.11 | X-H torsion
[ 7974 7965 7964 7962 ] final  115.29 input  175.53 | X-H torsion
[ 8008 7997 7996 7995 ] final  131.53 input   59.86 | X-H torsion
[ 10167 10162 10161 10158 ] final   91.31 input  -65.29 | X-H torsion
[ 10718 10713 10712 10709 ] final -119.00 input   66.30 | X-H torsion
[ 10763 10752 10751 10750 ] final   26.71 input  -60.55 | X-H torsion
[ 11005 11000 10999 10996 ] final   35.56 input  -57.11 | X-H torsion

> <Gold.Protein.ActiveResidues>
 VAL166  LYS551  ARG553  GLY616  TRP617  ASP618  TYR619  PRO620  LYS621  CYS622 
 ASP623  PHE694  ASN695  SER759  ASP760  ASP761  ALA762  ILE779  LEU786  VAL792 
 PHE793  MET794  SER795  GLU796  ALA797  LYS798  CYS799  TRP800  GLU811  SER814 

> <Gold.Protein.RotatedAtoms>
  152.2908  134.7724  160.0378 H   0  0  0  0  0  0  0  0  0  0  0  0  # atno 6907 bound_to 6896
  151.8271  133.3398  159.3610 H   0  0  0  0  0  0  0  0  0  0  0  0  # atno 6908 bound_to 6896
  150.7229  134.5447  159.5809 H   0  0  0  0  0  0  0  0  0  0  0  0  # atno 6909 bound_to 6896
  145.1938  139.2986  143.4354 H   0  0  0  0  0  0  0  0  0  0  0  0  # atno 7974 bound_to 7965
  156.2971  140.2569  156.2941 H   0  0  0  0  0  0  0  0  0  0  0  0  # atno 8008 bound_to 7997
  154.9481  140.0395  157.2149 H   0  0  0  0  0  0  0  0  0  0  0  0  # atno 8009 bound_to 7997
  154.8062  140.2836  155.5890 H   0  0  0  0  0  0  0  0  0  0  0  0  # atno 8010 bound_to 7997
  139.8387  144.6652  150.9310 H   0  0  0  0  0  0  0  0  0  0  0  0  # atno 10167 bound_to 10162
  156.1148  130.6277  150.9362 H   0  0  0  0  0  0  0  0  0  0  0  0  # atno 10718 bound_to 10713
  153.0604  135.6554  154.0477 H   0  0  0  0  0  0  0  0  0  0  0  0  # atno 10763 bound_to 10752
  154.0146  135.2925  155.3390 H   0  0  0  0  0  0  0  0  0  0  0  0  # atno 10764 bound_to 10752
  154.6939  135.5271  153.8499 H   0  0  0  0  0  0  0  0  0  0  0  0  # atno 10765 bound_to 10752
  140.2414  134.3410  155.7924 H   0  0  0  0  0  0  0  0  0  0  0  0  # atno 11005 bound_to 11000
  146.3431  140.2160  142.8590 LP  0  0  0  0  0  0  0  0  0  0  0  0  # atno 17320 bound_to 7965
  145.0014  140.8635  143.5279 LP  0  0  0  0  0  0  0  0  0  0  0  0  # atno 17321 bound_to 7965
  140.7800  143.3933  151.1273 LP  0  0  0  0  0  0  0  0  0  0  0  0  # atno 17342 bound_to 10162
  139.7581  143.8677  152.3093 LP  0  0  0  0  0  0  0  0  0  0  0  0  # atno 17343 bound_to 10162
  157.6331  131.0919  150.8402 LP  0  0  0  0  0  0  0  0  0  0  0  0  # atno 17370 bound_to 10713
  156.8507  130.5079  149.5312 LP  0  0  0  0  0  0  0  0  0  0  0  0  # atno 17371 bound_to 10713
  141.2210  133.7301  156.8892 LP  0  0  0  0  0  0  0  0  0  0  0  0  # atno 17394 bound_to 11000
  140.1649  134.9140  157.2761 LP  0  0  0  0  0  0  0  0  0  0  0  0  # atno 17395 bound_to 11000

$$$$
