AV-unprocessed.smi:772|AV-procd|sdf|3685|dock7
  -GOLD-   22720 1103D 1   1.00000     0.00000
 Structure written by MMmdl.
 46 47  0  0  0  0  0  0  0  0  1 V2000
  144.9632  131.7369  150.6049 C   0  0  0  0  0  0  0  0  0  0  0  0
  145.1463  133.1918  150.9828 C   0  0  0  0  0  0  0  0  0  0  0  0
  144.3570  134.1988  150.3883 C   0  0  0  0  0  0  0  0  0  0  0  0
  144.5808  135.5364  150.7664 C   0  0  0  0  0  0  0  0  0  0  0  0
  145.5811  135.8152  151.7198 C   0  0  0  0  0  0  0  0  0  0  0  0
  145.8885  137.2454  152.1280 C   0  0  0  0  0  0  0  0  0  0  0  0
  146.3239  137.3837  153.5998 C   0  0  0  0  0  0  0  0  0  0  0  0
  147.6682  137.9430  153.7246 N   0  0  0  0  0  0  0  0  0  0  0  0
  148.0151  138.9971  154.4846 C   0  0  0  0  0  0  0  0  0  0  0  0
  147.2059  139.5821  155.2063 O   0  0  0  0  0  0  0  0  0  0  0  0
  149.3049  139.3957  154.3450 N   0  0  0  0  0  0  0  0  0  0  0  0
  150.3987  138.5932  153.7750 C   0  0  0  0  0  0  0  0  0  0  0  0
  151.1704  137.9183  154.9195 C   0  0  0  0  0  0  0  0  0  0  0  0
  151.9349  139.1585  156.0095 S   0  0  0  0  0  0  0  0  0  0  0  0
  150.4967  140.2422  156.3260 C   0  0  1  0  0  0  0  0  0  0  0  0
  150.8684  141.4817  157.1786 C   0  0  0  0  0  0  0  0  0  0  0  0
  151.7782  141.1645  158.3803 C   0  0  0  0  0  0  0  0  0  0  0  0
  149.6232  142.2671  157.6249 C   0  0  0  0  0  0  0  0  0  0  0  0
  149.8056  140.6127  154.9949 C   0  0  0  0  0  0  0  0  0  0  0  0
  146.3093  134.7336  152.2596 C   0  0  0  0  0  0  0  0  0  0  0  0
  146.1033  133.4483  151.9017 N   0  0  0  0  0  0  0  0  0  0  0  0
  144.0717  131.5966  149.9930 H   0  0  0  0  0  0  0  0  0  0  0  0
  144.8618  131.1196  151.4980 H   0  0  0  0  0  0  0  0  0  0  0  0
  145.8252  131.3844  150.0381 H   0  0  0  0  0  0  0  0  0  0  0  0
  143.6030  133.9562  149.6541 H   0  0  0  0  0  0  0  0  0  0  0  0
  144.0038  136.3341  150.3223 H   0  0  0  0  0  0  0  0  0  0  0  0
  146.6704  137.6353  151.4755 H   0  0  0  0  0  0  0  0  0  0  0  0
  145.0079  137.8633  151.9474 H   0  0  0  0  0  0  0  0  0  0  0  0
  145.6015  137.9911  154.1477 H   0  0  0  0  0  0  0  0  0  0  0  0
  146.3166  136.4035  154.0766 H   0  0  0  0  0  0  0  0  0  0  0  0
  148.3864  137.5236  153.1525 H   0  0  0  0  0  0  0  0  0  0  0  0
  150.0550  137.8410  153.0650 H   0  0  0  0  0  0  0  0  0  0  0  0
  151.0692  139.2337  153.2002 H   0  0  0  0  0  0  0  0  0  0  0  0
  150.5040  137.2878  155.5093 H   0  0  0  0  0  0  0  0  0  0  0  0
  151.9537  137.2726  154.5220 H   0  0  0  0  0  0  0  0  0  0  0  0
  149.7873  139.6509  156.9073 H   0  0  0  0  0  0  0  0  0  0  0  0
  151.4313  142.1533  156.5289 H   0  0  0  0  0  0  0  0  0  0  0  0
  151.2873  140.5077  159.0985 H   0  0  0  0  0  0  0  0  0  0  0  0
  152.0521  142.0778  158.9091 H   0  0  0  0  0  0  0  0  0  0  0  0
  152.7063  140.6862  158.0692 H   0  0  0  0  0  0  0  0  0  0  0  0
  149.0046  141.6879  158.3106 H   0  0  0  0  0  0  0  0  0  0  0  0
  149.0047  142.5439  156.7707 H   0  0  0  0  0  0  0  0  0  0  0  0
  149.9044  143.1883  158.1359 H   0  0  0  0  0  0  0  0  0  0  0  0
  150.5009  141.1218  154.3267 H   0  0  0  0  0  0  0  0  0  0  0  0
  149.0017  141.3292  155.1714 H   0  0  0  0  0  0  0  0  0  0  0  0
  147.0906  134.9041  152.9857 H   0  0  0  0  0  0  0  0  0  0  0  0
  1  2  1  0  0  0  0
  1 22  1  0  0  0  0
  1 23  1  0  0  0  0
  1 24  1  0  0  0  0
  2 21  1  0  0  0  0
  2  3  2  0  0  0  0
  3  4  1  0  0  0  0
  3 25  1  0  0  0  0
  4  5  2  0  0  0  0
  4 26  1  0  0  0  0
  5  6  1  0  0  0  0
  5 20  1  0  0  0  0
  6  7  1  0  0  0  0
  6 27  1  0  0  0  0
  6 28  1  0  0  0  0
  7  8  1  0  0  0  0
  7 29  1  0  0  0  0
  7 30  1  0  0  0  0
  8  9  1  0  0  0  0
  8 31  1  0  0  0  0
  9 10  2  0  0  0  0
  9 11  1  0  0  0  0
 11 19  1  0  0  0  0
 11 12  1  0  0  0  0
 12 13  1  0  0  0  0
 12 32  1  0  0  0  0
 12 33  1  0  0  0  0
 13 14  1  0  0  0  0
 13 34  1  0  0  0  0
 13 35  1  0  0  0  0
 14 15  1  0  0  0  0
 15 16  1  0  0  0  0
 15 19  1  0  0  0  0
 15 36  1  0  0  0  0
 16 17  1  0  0  0  0
 16 18  1  0  0  0  0
 16 37  1  0  0  0  0
 17 38  1  0  0  0  0
 17 39  1  0  0  0  0
 17 40  1  0  0  0  0
 18 41  1  0  0  0  0
 18 42  1  0  0  0  0
 18 43  1  0  0  0  0
 19 44  1  0  0  0  0
 19 45  1  0  0  0  0
 20 21  2  0  0  0  0
 20 46  1  0  0  0  0
M  END
> <s_m_source_file>
AV-unprocessed.smi

> <i_m_source_file_index>
772

> <i_lp_mmshare_version>
43012

> <i_f3d_flags>
0

> <s_epik_input>
W0NIM11jMVtjSF1bY0hdYyhbY0hdbjEpW0NIMl1bQ0gyXVtOSF1DKD1PKU4yW0NIMl1bQ0gyXVNbQ0BIXShbQ0gyXTIpW0NIXShbQ0gzXSlbQ0gzXQ==

> <s_epik_cmdline>
J2VwaWtfcHl0aG9uJywgJy1waCcsICc3LjAnLCAnLXRuJywgJzgnLCAnLW1hJywgJzIwMCcsICctbWV0YWxfYmluZGluZycsICctaW1hZScsICc8aW5maWxlLm1hZT4nLCAnLW9tYWUnLCAnPG91dGZpbGUubWFlPic=

> <r_epik_Ionization_Penalty>
0.0566916

> <r_epik_Ionization_Penalty_Charging>
0

> <r_epik_Ionization_Penalty_Neutral>
0.0566916

> <r_epik_State_Penalty>
0.0488669

> <r_epik_Charging_Adjusted_Penalty>
0.0488669

> <i_epik_Tot_Q>
0

> <i_epik_Tot_abs_Q>
0

> <r_epik_Metal_State_Penalty>
0.0445784

> <b_epik_Metal_Only>
0

> <s_lp_Force_Field>
OPLS_2005

> <r_lp_Energy>
25.3974

> <b_lp_Chiralities_Consistent>
1

> <s_lp_Variant>
AV-unprocessed.smi:772-1

> <Gold.Version>
5.8.1

> <Gold.Id.Protein>
6NUR|6NUR_protein|mol2

> <Gold.PLP.Fitness>
38.3846

> <Gold.PLP.PLP>
-35.5223

> <Gold.PLP.part.hbond>
-1.0000

> <Gold.PLP.part.metal>
0.0000

> <Gold.PLP.part.buried>
-0.1466

> <Gold.PLP.part.nonpolar>
-33.6184

> <Gold.PLP.part.repulsive>
0.1806

> <Gold.PLP.ligand.clash>
0.0000

> <Gold.PLP.ligand.torsion>
0.9476

> <Gold.PLP.Chemscore.Hbond>
1.0000

> <Gold.PLP.Chemscore.CHOScore>
0.5554

> <Gold.PLP.Chemscore.Metal>
0.0000

> <Gold.Chemscore.Hbonds>
donor molecule, donor type, donor heavy atom, donor atom, acceptor molecule, acceptor atom, score
      L1  H     8    31       P1  7948  1.00
      L1  C    20    46       P1  7948  0.56

> <Gold.PLP.Chemscore.Internal.Correction>
0.0914

> <Gold.Rescore>
     Score         DG    S(hbond)    S(metal)    S(lipo)     H(rot)  DE(clash)    DE(int)     intcor
     15.93     -17.20       0.98        0.00     101.20       1.32       0.44       0.83       ----

> <Gold.Chemscore.Fitness>
15.9308

> <Gold.Chemscore.DG>
-17.2046

> <Gold.Chemscore.ZeroCoef>
-5.4800

> <Gold.Chemscore.Hbond>
0.9795

> <Gold.Chemscore.Metal>
0.0000

> <Gold.Chemscore.Lipo>
101.2010

> <Gold.Chemscore.Internal_Hbond>
0.0000

> <Gold.Chemscore.DEClash>
0.4407

> <Gold.Chemscore.DEInternal>
0.8331

> <Gold.Chemscore.Rot>
1.3233

> <Gold.Chemscore.Internal.Correction>
   9.000000E+99

> <Gold.Chemscore.Hbonds>
donor molecule, donor type, donor heavy atom, donor atom, acceptor molecule, acceptor atom, score
      L1  H     8    31       P1  7948  0.96

> <Gold.Chemscore.Hbond.Weighted>
-3.2717

> <Gold.Chemscore.Metal.Weighted>
-0.0000

> <Gold.Chemscore.Lipo.Weighted>
-11.8405

> <Gold.Chemscore.Internal_Hbond.Weighted>
0.0000

> <Gold.Chemscore.DEClash.Weighted>
0.4407

> <Gold.Chemscore.DEInternal.Weighted>
0.8331

> <Gold.Chemscore.Rot.Weighted>
3.3876

> <Gold.Chemscore.Internal.Correction.Weighted>
   9.000000E+99

> <Gold.Protein.RotatedTorsions>
[ 6907 6896 6895 6894 ] final  118.47 input  -60.11 | X-H torsion
[ 7974 7965 7964 7962 ] final  121.56 input  175.53 | X-H torsion
[ 8008 7997 7996 7995 ] final  127.95 input   59.86 | X-H torsion
[ 10167 10162 10161 10158 ] final   77.65 input  -65.29 | X-H torsion
[ 10718 10713 10712 10709 ] final  -47.80 input   66.30 | X-H torsion
[ 10763 10752 10751 10750 ] final   64.29 input  -60.55 | X-H torsion
[ 11005 11000 10999 10996 ] final   71.72 input  -57.11 | X-H torsion

> <Gold.Protein.ActiveResidues>
 VAL166  LYS551  ARG553  GLY616  TRP617  ASP618  TYR619  PRO620  LYS621  CYS622 
 ASP623  PHE694  ASN695  SER759  ASP760  ASP761  ALA762  ILE779  LEU786  VAL792 
 PHE793  MET794  SER795  GLU796  ALA797  LYS798  CYS799  TRP800  GLU811  SER814 

> <Gold.Protein.RotatedAtoms>
  152.4540  133.7686  159.6786 H   0  0  0  0  0  0  0  0  0  0  0  0  # atno 6907 bound_to 6896
  150.8461  133.7850  159.3049 H   0  0  0  0  0  0  0  0  0  0  0  0  # atno 6908 bound_to 6896
  151.5460  135.1071  159.9990 H   0  0  0  0  0  0  0  0  0  0  0  0  # atno 6909 bound_to 6896
  145.1179  139.3409  143.4729 H   0  0  0  0  0  0  0  0  0  0  0  0  # atno 7974 bound_to 7965
  156.2903  140.2656  156.2357 H   0  0  0  0  0  0  0  0  0  0  0  0  # atno 8008 bound_to 7997
  155.0027  140.0387  157.2385 H   0  0  0  0  0  0  0  0  0  0  0  0  # atno 8009 bound_to 7997
  154.7587  140.2756  155.6237 H   0  0  0  0  0  0  0  0  0  0  0  0  # atno 8010 bound_to 7997
  139.9793  144.5838  150.7915 H   0  0  0  0  0  0  0  0  0  0  0  0  # atno 10167 bound_to 10162
  156.2049  130.4158  149.9191 H   0  0  0  0  0  0  0  0  0  0  0  0  # atno 10718 bound_to 10713
  153.0050  135.5398  154.6487 H   0  0  0  0  0  0  0  0  0  0  0  0  # atno 10763 bound_to 10752
  154.5724  135.2843  155.0816 H   0  0  0  0  0  0  0  0  0  0  0  0  # atno 10764 bound_to 10752
  154.1976  135.6489  153.5130 H   0  0  0  0  0  0  0  0  0  0  0  0  # atno 10765 bound_to 10752
  139.9528  134.7196  156.0822 H   0  0  0  0  0  0  0  0  0  0  0  0  # atno 11005 bound_to 11000
  146.3523  140.1126  142.8603 LP  0  0  0  0  0  0  0  0  0  0  0  0  # atno 17320 bound_to 7965
  145.0773  140.9197  143.4846 LP  0  0  0  0  0  0  0  0  0  0  0  0  # atno 17321 bound_to 7965
  140.7495  143.2939  151.3256 LP  0  0  0  0  0  0  0  0  0  0  0  0  # atno 17342 bound_to 10162
  139.6422  144.0518  152.2563 LP  0  0  0  0  0  0  0  0  0  0  0  0  # atno 17343 bound_to 10162
  156.6888  130.8887  151.3585 LP  0  0  0  0  0  0  0  0  0  0  0  0  # atno 17370 bound_to 10713
  157.7007  130.9330  150.0776 LP  0  0  0  0  0  0  0  0  0  0  0  0  # atno 17371 bound_to 10713
  141.1195  133.6617  156.3177 LP  0  0  0  0  0  0  0  0  0  0  0  0  # atno 17394 bound_to 11000
  140.5678  134.5870  157.5450 LP  0  0  0  0  0  0  0  0  0  0  0  0  # atno 17395 bound_to 11000

$$$$
