AV-unprocessed.smi:1682|AV-procd|sdf|6743|dock2
  -GOLD-   22720 7493D 1   1.00000     0.00000
 Structure written by MMmdl.
 38 39  0  0  0  0  0  0  0  0  1 V2000
  149.2466  134.3317  158.0233 O   0  0  0  0  0  0  0  0  0  0  0  0
  148.5888  134.9913  157.2175 C   0  0  0  0  0  0  0  0  0  0  0  0
  148.6877  134.8375  155.8882 N   0  0  0  0  0  0  0  0  0  0  0  0
  149.5893  133.9050  155.2218 C   0  0  0  0  0  0  0  0  0  0  0  0
  148.8656  132.6060  154.8289 C   0  0  0  0  0  0  0  0  0  0  0  0
  147.7550  132.8463  153.8244 C   0  0  0  0  0  0  0  0  0  0  0  0
  148.0505  133.0332  152.4572 C   0  0  0  0  0  0  0  0  0  0  0  0
  146.9836  133.2501  151.5641 C   0  0  0  0  0  0  0  0  0  0  0  0
  145.6695  133.2704  152.0694 C   0  0  0  0  0  0  0  0  0  0  0  0
  145.4800  133.0712  153.4515 C   0  0  0  0  0  0  0  0  0  0  0  0
  146.4959  132.8619  154.3166 N   0  0  0  0  0  0  0  0  0  0  0  0
  147.6007  136.0578  157.7155 C   0  0  2  0  0  0  0  0  0  0  0  0
  148.2805  137.0385  158.6919 C   0  0  0  0  0  0  0  0  0  0  0  0
  147.6615  136.7019  160.0386 C   0  0  0  0  0  0  0  0  0  0  0  0
  148.0389  137.2130  161.0915 O   0  0  0  0  0  0  0  0  0  0  0  0
  146.6900  135.7929  159.9052 N   0  0  0  0  0  0  0  0  0  0  0  0
  145.8853  135.2160  160.9799 C   0  0  0  0  0  0  0  0  0  0  0  0
  146.7528  134.5793  162.0807 C   0  0  0  0  0  0  0  0  0  0  0  0
  145.9789  133.8285  162.8629 F   0  0  0  0  0  0  0  0  0  0  0  0
  147.6907  133.8019  161.5393 F   0  0  0  0  0  0  0  0  0  0  0  0
  147.3372  135.5112  162.8331 F   0  0  0  0  0  0  0  0  0  0  0  0
  146.4316  135.4470  158.5172 C   0  0  0  0  0  0  0  0  0  0  0  0
  148.1091  135.4161  155.2967 H   0  0  0  0  0  0  0  0  0  0  0  0
  150.0322  134.3765  154.3427 H   0  0  0  0  0  0  0  0  0  0  0  0
  150.4118  133.6832  155.9025 H   0  0  0  0  0  0  0  0  0  0  0  0
  149.5772  131.8947  154.4069 H   0  0  0  0  0  0  0  0  0  0  0  0
  148.4435  132.1268  155.7130 H   0  0  0  0  0  0  0  0  0  0  0  0
  149.0695  133.0105  152.0997 H   0  0  0  0  0  0  0  0  0  0  0  0
  147.1699  133.3981  150.5106 H   0  0  0  0  0  0  0  0  0  0  0  0
  144.8272  133.4348  151.4140 H   0  0  0  0  0  0  0  0  0  0  0  0
  144.4857  133.0798  153.8729 H   0  0  0  0  0  0  0  0  0  0  0  0
  147.2063  136.6042  156.8569 H   0  0  0  0  0  0  0  0  0  0  0  0
  149.3664  136.9366  158.7333 H   0  0  0  0  0  0  0  0  0  0  0  0
  148.0492  138.0727  158.4353 H   0  0  0  0  0  0  0  0  0  0  0  0
  145.2421  135.9856  161.4096 H   0  0  0  0  0  0  0  0  0  0  0  0
  145.2175  134.4637  160.5578 H   0  0  0  0  0  0  0  0  0  0  0  0
  145.4817  135.8852  158.2081 H   0  0  0  0  0  0  0  0  0  0  0  0
  146.3487  134.3656  158.3969 H   0  0  0  0  0  0  0  0  0  0  0  0
  1  2  2  0  0  0  0
  2  3  1  0  0  0  0
  2 12  1  0  0  0  0
  3  4  1  0  0  0  0
  3 23  1  0  0  0  0
  4  5  1  0  0  0  0
  4 24  1  0  0  0  0
  4 25  1  0  0  0  0
  5  6  1  0  0  0  0
  5 26  1  0  0  0  0
  5 27  1  0  0  0  0
  6 11  1  0  0  0  0
  6  7  2  0  0  0  0
  7  8  1  0  0  0  0
  7 28  1  0  0  0  0
  8  9  2  0  0  0  0
  8 29  1  0  0  0  0
  9 10  1  0  0  0  0
  9 30  1  0  0  0  0
 10 11  2  0  0  0  0
 10 31  1  0  0  0  0
 12 22  1  0  0  0  0
 12 13  1  0  0  0  0
 12 32  1  0  0  0  0
 13 14  1  0  0  0  0
 13 33  1  0  0  0  0
 13 34  1  0  0  0  0
 14 15  2  0  0  0  0
 14 16  1  0  0  0  0
 16 17  1  0  0  0  0
 16 22  1  0  0  0  0
 17 18  1  0  0  0  0
 17 35  1  0  0  0  0
 17 36  1  0  0  0  0
 18 19  1  0  0  0  0
 18 20  1  0  0  0  0
 18 21  1  0  0  0  0
 22 37  1  0  0  0  0
 22 38  1  0  0  0  0
M  END
> <s_m_source_file>
AV-unprocessed.smi

> <i_m_source_file_index>
1682

> <i_lp_mmshare_version>
43012

> <i_f3d_flags>
0

> <s_epik_input>
RkMoRikoRilbQ0gyXU4oW0NIMl0xKUMoPU8pW0NIMl1bQ0BIXTFDKD1PKVtOSF1bQ0gyXVtDSDJdYzJbY0hdW2NIXVtjSF1bY0hdbjI=

> <s_epik_cmdline>
J2VwaWtfcHl0aG9uJywgJy1waCcsICc3LjAnLCAnLXRuJywgJzgnLCAnLW1hJywgJzIwMCcsICctbWV0YWxfYmluZGluZycsICctaW1hZScsICc8aW5maWxlLm1hZT4nLCAnLW9tYWUnLCAnPG91dGZpbGUubWFlPic=

> <r_epik_Ionization_Penalty>
0.0252359

> <r_epik_Ionization_Penalty_Charging>
0

> <r_epik_Ionization_Penalty_Neutral>
0.0252359

> <r_epik_State_Penalty>
0.020532

> <r_epik_Charging_Adjusted_Penalty>
0.020532

> <i_epik_Tot_Q>
0

> <i_epik_Tot_abs_Q>
0

> <r_epik_Metal_State_Penalty>
0.0196899

> <b_epik_Metal_Only>
0

> <s_lp_Force_Field>
OPLS_2005

> <r_lp_Energy>
9.5977

> <b_lp_Chiralities_Consistent>
1

> <s_lp_Variant>
AV-unprocessed.smi:1682-1

> <Gold.Version>
5.8.1

> <Gold.Id.Protein>
6NUR|6NUR_protein|mol2

> <Gold.PLP.Fitness>
42.2193

> <Gold.PLP.PLP>
-32.4395

> <Gold.PLP.part.hbond>
-3.0000

> <Gold.PLP.part.metal>
0.0000

> <Gold.PLP.part.buried>
-1.0262

> <Gold.PLP.part.nonpolar>
-29.0307

> <Gold.PLP.part.repulsive>
0.0733

> <Gold.PLP.ligand.clash>
0.0000

> <Gold.PLP.ligand.torsion>
0.6668

> <Gold.PLP.Chemscore.Hbond>
2.6363

> <Gold.PLP.Chemscore.CHOScore>
0.9992

> <Gold.PLP.Chemscore.Metal>
0.0000

> <Gold.Chemscore.Hbonds>
donor molecule, donor type, donor heavy atom, donor atom, acceptor molecule, acceptor atom, score
      P1  H  6896  6907       L1     1  1.00
      P1  H  6931  6943       L1    15  0.98
      P1  H  6934  6947       L1    15  0.70
      L1  C    10    31       P1 10957  1.00

> <Gold.PLP.Chemscore.Internal.Correction>
0.2071

> <Gold.Rescore>
     Score         DG    S(hbond)    S(metal)    S(lipo)     H(rot)  DE(clash)    DE(int)     intcor
     12.52     -14.89       2.58        0.00      52.52       2.09       0.08       2.29       ----

> <Gold.Chemscore.Fitness>
12.5169

> <Gold.Chemscore.DG>
-14.8907

> <Gold.Chemscore.ZeroCoef>
-5.4800

> <Gold.Chemscore.Hbond>
2.5786

> <Gold.Chemscore.Metal>
0.0000

> <Gold.Chemscore.Lipo>
52.5178

> <Gold.Chemscore.Internal_Hbond>
0.0000

> <Gold.Chemscore.DEClash>
0.0821

> <Gold.Chemscore.DEInternal>
2.2918

> <Gold.Chemscore.Rot>
2.0884

> <Gold.Chemscore.Internal.Correction>
   9.000000E+99

> <Gold.Chemscore.Hbonds>
donor molecule, donor type, donor heavy atom, donor atom, acceptor molecule, acceptor atom, score
      P1  H  6896  6907       L1     1  0.99
      P1  H  6931  6943       L1    15  0.93
      P1  H  6934  6947       L1    15  0.20

> <Gold.Chemscore.Hbond.Weighted>
-8.6125

> <Gold.Chemscore.Metal.Weighted>
-0.0000

> <Gold.Chemscore.Lipo.Weighted>
-6.1446

> <Gold.Chemscore.Internal_Hbond.Weighted>
0.0000

> <Gold.Chemscore.DEClash.Weighted>
0.0821

> <Gold.Chemscore.DEInternal.Weighted>
2.2918

> <Gold.Chemscore.Rot.Weighted>
5.3464

> <Gold.Chemscore.Internal.Correction.Weighted>
   9.000000E+99

> <Gold.Protein.RotatedTorsions>
[ 6907 6896 6895 6894 ] final  -91.41 input  -60.11 | X-H torsion
[ 7974 7965 7964 7962 ] final    3.43 input  175.53 | X-H torsion
[ 8008 7997 7996 7995 ] final  -15.66 input   59.86 | X-H torsion
[ 10167 10162 10161 10158 ] final  -20.39 input  -65.29 | X-H torsion
[ 10718 10713 10712 10709 ] final   99.00 input   66.30 | X-H torsion
[ 10763 10752 10751 10750 ] final  -52.90 input  -60.55 | X-H torsion
[ 11005 11000 10999 10996 ] final  -61.41 input  -57.11 | X-H torsion

> <Gold.Protein.ActiveResidues>
 VAL166  LYS551  ARG553  GLY616  TRP617  ASP618  TYR619  PRO620  LYS621  CYS622 
 ASP623  PHE694  ASN695  SER759  ASP760  ASP761  ALA762  ILE779  LEU786  VAL792 
 PHE793  MET794  SER795  GLU796  ALA797  LYS798  CYS799  TRP800  GLU811  SER814 

> <Gold.Protein.RotatedAtoms>
  150.6892  134.2281  159.4423 H   0  0  0  0  0  0  0  0  0  0  0  0  # atno 6907 bound_to 6896
  152.0233  134.9807  160.0580 H   0  0  0  0  0  0  0  0  0  0  0  0  # atno 6908 bound_to 6896
  152.1375  133.4409  159.4788 H   0  0  0  0  0  0  0  0  0  0  0  0  # atno 6909 bound_to 6896
  146.2445  140.0687  142.8364 H   0  0  0  0  0  0  0  0  0  0  0  0  # atno 7974 bound_to 7965
  154.5113  140.2190  155.9152 H   0  0  0  0  0  0  0  0  0  0  0  0  # atno 8008 bound_to 7997
  156.1555  140.3153  155.8685 H   0  0  0  0  0  0  0  0  0  0  0  0  # atno 8009 bound_to 7997
  155.3855  140.0475  157.3033 H   0  0  0  0  0  0  0  0  0  0  0  0  # atno 8010 bound_to 7997
  140.7276  143.4727  151.0225 H   0  0  0  0  0  0  0  0  0  0  0  0  # atno 10167 bound_to 10162
  157.6885  131.0657  150.4882 H   0  0  0  0  0  0  0  0  0  0  0  0  # atno 10718 bound_to 10713
  154.1502  135.6491  153.4962 H   0  0  0  0  0  0  0  0  0  0  0  0  # atno 10763 bound_to 10752
  153.0140  135.5336  154.6816 H   0  0  0  0  0  0  0  0  0  0  0  0  # atno 10764 bound_to 10752
  154.6101  135.2953  155.0412 H   0  0  0  0  0  0  0  0  0  0  0  0  # atno 10765 bound_to 10752
  141.1323  133.6630  156.5370 H   0  0  0  0  0  0  0  0  0  0  0  0  # atno 11005 bound_to 11000
  145.0835  140.9237  143.4811 LP  0  0  0  0  0  0  0  0  0  0  0  0  # atno 17320 bound_to 7965
  145.0845  139.2935  143.5766 LP  0  0  0  0  0  0  0  0  0  0  0  0  # atno 17321 bound_to 7965
  139.8420  143.7551  152.3180 LP  0  0  0  0  0  0  0  0  0  0  0  0  # atno 17342 bound_to 10162
  139.7703  144.7478  151.0234 LP  0  0  0  0  0  0  0  0  0  0  0  0  # atno 17343 bound_to 10162
  156.5210  130.4162  149.6250 LP  0  0  0  0  0  0  0  0  0  0  0  0  # atno 17370 bound_to 10713
  156.3154  130.7251  151.2153 LP  0  0  0  0  0  0  0  0  0  0  0  0  # atno 17371 bound_to 10713
  140.4170  134.7221  157.4868 LP  0  0  0  0  0  0  0  0  0  0  0  0  # atno 17394 bound_to 11000
  140.0387  134.6299  155.9009 LP  0  0  0  0  0  0  0  0  0  0  0  0  # atno 17395 bound_to 11000

$$$$
