AV-unprocessed.smi:2393|AV-procd|sdf|9488|dock9
  -GOLD-   2272013113D 1   1.00000     0.00000
 Structure written by MMmdl.
 43 44  0  0  0  0  0  0  0  0  1 V2000
  143.5181  132.9396  151.3612 C   0  0  0  0  0  0  0  0  0  0  0  0
  143.7051  134.2196  152.1485 C   0  0  0  0  0  0  0  0  0  0  0  0
  142.5997  134.9054  152.6875 C   0  0  0  0  0  0  0  0  0  0  0  0
  142.8408  136.0888  153.4127 C   0  0  0  0  0  0  0  0  0  0  0  0
  141.6991  136.8777  154.0190 C   0  0  0  0  0  0  0  0  0  0  0  0
  144.0784  136.5892  153.6151 N   0  0  0  0  0  0  0  0  0  0  0  0
  145.1505  135.9368  153.1011 C   0  0  0  0  0  0  0  0  0  0  0  0
  146.4900  136.3848  153.2495 N   0  0  0  0  0  0  0  0  0  0  0  0
  146.9779  137.2578  154.1484 C   0  0  0  0  0  0  0  0  0  0  0  0
  146.3316  137.7792  155.0578 O   0  0  0  0  0  0  0  0  0  0  0  0
  148.2824  137.4911  153.9413 N   0  0  0  0  0  0  0  0  0  0  0  0
  149.1120  138.3851  154.7444 C   0  0  2  0  0  0  0  0  0  0  0  0
  148.8241  139.8439  154.3718 C   0  0  0  0  0  0  0  0  0  0  0  0
  149.7664  140.7873  155.1322 C   0  0  0  0  0  0  0  0  0  0  0  0
  151.1274  140.4455  154.8764 O   0  0  0  0  0  0  0  0  0  0  0  0
  151.5250  139.1159  155.2291 C   0  0  0  0  0  0  0  0  0  0  0  0
  152.9633  138.9761  154.7041 C   0  0  0  0  0  0  0  0  0  0  0  0
  151.5311  138.9326  156.7624 C   0  0  0  0  0  0  0  0  0  0  0  0
  150.6061  138.0928  154.5182 C   0  0  0  0  0  0  0  0  0  0  0  0
  144.9959  134.7456  152.3571 C   0  0  0  0  0  0  0  0  0  0  0  0
  142.4614  132.7253  151.1975 H   0  0  0  0  0  0  0  0  0  0  0  0
  143.9583  132.0997  151.8993 H   0  0  0  0  0  0  0  0  0  0  0  0
  144.0041  133.0177  150.3885 H   0  0  0  0  0  0  0  0  0  0  0  0
  141.5943  134.5348  152.5492 H   0  0  0  0  0  0  0  0  0  0  0  0
  140.7339  136.4960  153.6850 H   0  0  0  0  0  0  0  0  0  0  0  0
  141.7654  137.9278  153.7328 H   0  0  0  0  0  0  0  0  0  0  0  0
  141.7334  136.8151  155.1069 H   0  0  0  0  0  0  0  0  0  0  0  0
  147.1497  136.0072  152.5858 H   0  0  0  0  0  0  0  0  0  0  0  0
  148.7351  137.0193  153.1722 H   0  0  0  0  0  0  0  0  0  0  0  0
  148.8663  138.2461  155.7983 H   0  0  0  0  0  0  0  0  0  0  0  0
  148.9588  139.9892  153.2988 H   0  0  0  0  0  0  0  0  0  0  0  0
  147.7865  140.0951  154.5943 H   0  0  0  0  0  0  0  0  0  0  0  0
  149.6035  141.8140  154.8046 H   0  0  0  0  0  0  0  0  0  0  0  0
  149.5563  140.7706  156.2015 H   0  0  0  0  0  0  0  0  0  0  0  0
  153.3647  137.9824  154.9056 H   0  0  0  0  0  0  0  0  0  0  0  0
  153.6273  139.7031  155.1732 H   0  0  0  0  0  0  0  0  0  0  0  0
  153.0104  139.1396  153.6270 H   0  0  0  0  0  0  0  0  0  0  0  0
  151.9274  137.9541  157.0357 H   0  0  0  0  0  0  0  0  0  0  0  0
  150.5370  139.0050  157.2012 H   0  0  0  0  0  0  0  0  0  0  0  0
  152.1554  139.6857  157.2442 H   0  0  0  0  0  0  0  0  0  0  0  0
  150.8484  137.0807  154.8455 H   0  0  0  0  0  0  0  0  0  0  0  0
  150.8063  138.1190  153.4457 H   0  0  0  0  0  0  0  0  0  0  0  0
  145.8582  134.2360  151.9517 H   0  0  0  0  0  0  0  0  0  0  0  0
  1  2  1  0  0  0  0
  1 21  1  0  0  0  0
  1 22  1  0  0  0  0
  1 23  1  0  0  0  0
  2 20  1  0  0  0  0
  2  3  2  0  0  0  0
  3  4  1  0  0  0  0
  3 24  1  0  0  0  0
  4  5  1  0  0  0  0
  4  6  2  0  0  0  0
  5 25  1  0  0  0  0
  5 26  1  0  0  0  0
  5 27  1  0  0  0  0
  6  7  1  0  0  0  0
  7  8  1  0  0  0  0
  7 20  2  0  0  0  0
  8  9  1  0  0  0  0
  8 28  1  0  0  0  0
  9 10  2  0  0  0  0
  9 11  1  0  0  0  0
 11 12  1  0  0  0  0
 11 29  1  0  0  0  0
 12 19  1  0  0  0  0
 12 13  1  0  0  0  0
 12 30  1  0  0  0  0
 13 14  1  0  0  0  0
 13 31  1  0  0  0  0
 13 32  1  0  0  0  0
 14 15  1  0  0  0  0
 14 33  1  0  0  0  0
 14 34  1  0  0  0  0
 15 16  1  0  0  0  0
 16 17  1  0  0  0  0
 16 18  1  0  0  0  0
 16 19  1  0  0  0  0
 17 35  1  0  0  0  0
 17 36  1  0  0  0  0
 17 37  1  0  0  0  0
 18 38  1  0  0  0  0
 18 39  1  0  0  0  0
 18 40  1  0  0  0  0
 19 41  1  0  0  0  0
 19 42  1  0  0  0  0
 20 43  1  0  0  0  0
M  END
> <s_m_source_file>
AV-unprocessed.smi

> <i_m_source_file_index>
2393

> <i_lp_mmshare_version>
43012

> <i_f3d_flags>
0

> <s_epik_input>
W0NIM11jMVtjSF1jKFtDSDNdKW5jKFtjSF0xKVtOSF1DKD1PKVtOSF1bQ0BASF0oW0NIMl0yKVtDSDJdW0NIMl1PQzIoW0NIM10pW0NIM10=

> <s_epik_cmdline>
J2VwaWtfcHl0aG9uJywgJy1waCcsICc3LjAnLCAnLXRuJywgJzgnLCAnLW1hJywgJzIwMCcsICctbWV0YWxfYmluZGluZycsICctaW1hZScsICc8aW5maWxlLm1hZT4nLCAnLW9tYWUnLCAnPG91dGZpbGUubWFlPic=

> <r_lp_tautomer_probability>
1

> <r_epik_Ionization_Penalty>
0.000261351

> <r_epik_Ionization_Penalty_Charging>
0

> <r_epik_Ionization_Penalty_Neutral>
0.000261351

> <r_epik_State_Penalty>
-0

> <r_epik_Charging_Adjusted_Penalty>
0

> <i_epik_Tot_Q>
0

> <i_epik_Tot_abs_Q>
0

> <r_epik_Metal_State_Penalty>
-0

> <b_epik_Metal_Only>
0

> <s_lp_Force_Field>
OPLS_2005

> <r_lp_Energy>
12.7135

> <b_lp_Chiralities_Consistent>
1

> <s_lp_Variant>
AV-unprocessed.smi:2393-1

> <Gold.Version>
5.8.1

> <Gold.Id.Protein>
6NUR|6NUR_protein|mol2

> <Gold.PLP.Fitness>
38.6904

> <Gold.PLP.PLP>
-30.6396

> <Gold.PLP.part.hbond>
-2.7779

> <Gold.PLP.part.metal>
0.0000

> <Gold.PLP.part.buried>
-4.0440

> <Gold.PLP.part.nonpolar>
-24.4206

> <Gold.PLP.part.repulsive>
0.1979

> <Gold.PLP.ligand.clash>
0.0000

> <Gold.PLP.ligand.torsion>
0.3057

> <Gold.PLP.Chemscore.Hbond>
2.8873

> <Gold.PLP.Chemscore.CHOScore>
0.0000

> <Gold.PLP.Chemscore.Metal>
0.0000

> <Gold.Chemscore.Hbonds>
donor molecule, donor type, donor heavy atom, donor atom, acceptor molecule, acceptor atom, score
      L1  H     8    28       P1  7948  0.90
      L1  H    11    29       P1  7948  1.00
      P1  H  7989  7998       L1    15  0.99

> <Gold.PLP.Chemscore.Internal.Correction>
0.0004

> <Gold.Rescore>
     Score         DG    S(hbond)    S(metal)    S(lipo)     H(rot)  DE(clash)    DE(int)     intcor
     18.70     -20.25       2.58        0.00      74.61       1.00       0.08       1.47       ----

> <Gold.Chemscore.Fitness>
18.6996

> <Gold.Chemscore.DG>
-20.2503

> <Gold.Chemscore.ZeroCoef>
-5.4800

> <Gold.Chemscore.Hbond>
2.5753

> <Gold.Chemscore.Metal>
0.0000

> <Gold.Chemscore.Lipo>
74.6059

> <Gold.Chemscore.Internal_Hbond>
0.0000

> <Gold.Chemscore.DEClash>
0.0816

> <Gold.Chemscore.DEInternal>
1.4691

> <Gold.Chemscore.Rot>
1.0000

> <Gold.Chemscore.Internal.Correction>
   9.000000E+99

> <Gold.Chemscore.Hbonds>
donor molecule, donor type, donor heavy atom, donor atom, acceptor molecule, acceptor atom, score
      L1  H     8    28       P1  7948  0.87
      L1  H    11    29       P1  7948  0.93
      P1  H  7989  7998       L1    15  0.67

> <Gold.Chemscore.Hbond.Weighted>
-8.6014

> <Gold.Chemscore.Metal.Weighted>
-0.0000

> <Gold.Chemscore.Lipo.Weighted>
-8.7289

> <Gold.Chemscore.Internal_Hbond.Weighted>
0.0000

> <Gold.Chemscore.DEClash.Weighted>
0.0816

> <Gold.Chemscore.DEInternal.Weighted>
1.4691

> <Gold.Chemscore.Rot.Weighted>
2.5600

> <Gold.Chemscore.Internal.Correction.Weighted>
   9.000000E+99

> <Gold.Protein.RotatedTorsions>
[ 6907 6896 6895 6894 ] final -105.92 input  -60.11 | X-H torsion
[ 7974 7965 7964 7962 ] final  -55.74 input  175.53 | X-H torsion
[ 8008 7997 7996 7995 ] final  -62.05 input   59.86 | X-H torsion
[ 10167 10162 10161 10158 ] final  -36.73 input  -65.29 | X-H torsion
[ 10718 10713 10712 10709 ] final   77.12 input   66.30 | X-H torsion
[ 10763 10752 10751 10750 ] final  -35.70 input  -60.55 | X-H torsion
[ 11005 11000 10999 10996 ] final   13.52 input  -57.11 | X-H torsion

> <Gold.Protein.ActiveResidues>
 VAL166  LYS551  ARG553  GLY616  TRP617  ASP618  TYR619  PRO620  LYS621  CYS622 
 ASP623  PHE694  ASN695  SER759  ASP760  ASP761  ALA762  ILE779  LEU786  VAL792 
 PHE793  MET794  SER795  GLU796  ALA797  LYS798  CYS799  TRP800  GLU811  SER814 

> <Gold.Protein.RotatedAtoms>
  150.7362  134.0054  159.3651 H   0  0  0  0  0  0  0  0  0  0  0  0  # atno 6907 bound_to 6896
  151.8011  135.0706  160.0410 H   0  0  0  0  0  0  0  0  0  0  0  0  # atno 6908 bound_to 6896
  152.3140  133.5746  159.5736 H   0  0  0  0  0  0  0  0  0  0  0  0  # atno 6909 bound_to 6896
  145.8707  140.8218  142.9889 H   0  0  0  0  0  0  0  0  0  0  0  0  # atno 7974 bound_to 7965
  154.4479  140.1004  156.6526 H   0  0  0  0  0  0  0  0  0  0  0  0  # atno 8008 bound_to 7997
  155.5381  140.3483  155.4422 H   0  0  0  0  0  0  0  0  0  0  0  0  # atno 8009 bound_to 7997
  156.0617  140.1328  156.9923 H   0  0  0  0  0  0  0  0  0  0  0  0  # atno 8010 bound_to 7997
  140.7135  143.3389  151.2402 H   0  0  0  0  0  0  0  0  0  0  0  0  # atno 10167 bound_to 10162
  157.6699  130.9806  150.1595 H   0  0  0  0  0  0  0  0  0  0  0  0  # atno 10718 bound_to 10713
  153.8675  135.6834  153.4777 H   0  0  0  0  0  0  0  0  0  0  0  0  # atno 10763 bound_to 10752
  153.1306  135.4699  154.9340 H   0  0  0  0  0  0  0  0  0  0  0  0  # atno 10764 bound_to 10752
  154.7729  135.3244  154.8101 H   0  0  0  0  0  0  0  0  0  0  0  0  # atno 10765 bound_to 10752
  140.4798  134.0947  155.7748 H   0  0  0  0  0  0  0  0  0  0  0  0  # atno 11005 bound_to 11000
  144.6726  140.1235  143.7448 LP  0  0  0  0  0  0  0  0  0  0  0  0  # atno 17320 bound_to 7965
  145.9140  139.2504  143.1421 LP  0  0  0  0  0  0  0  0  0  0  0  0  # atno 17321 bound_to 7965
  139.6891  143.9723  152.2850 LP  0  0  0  0  0  0  0  0  0  0  0  0  # atno 17342 bound_to 10162
  139.9378  144.6700  150.8297 LP  0  0  0  0  0  0  0  0  0  0  0  0  # atno 17343 bound_to 10162
  156.2375  130.3688  149.8374 LP  0  0  0  0  0  0  0  0  0  0  0  0  # atno 17370 bound_to 10713
  156.6184  130.8616  151.3470 LP  0  0  0  0  0  0  0  0  0  0  0  0  # atno 17371 bound_to 10713
  141.1537  133.8922  157.2033 LP  0  0  0  0  0  0  0  0  0  0  0  0  # atno 17394 bound_to 11000
  139.9833  135.0090  156.9803 LP  0  0  0  0  0  0  0  0  0  0  0  0  # atno 17395 bound_to 11000

$$$$
