AV-unprocessed.smi:2063|AV-procd|sdf|8415|dock4
  -GOLD-   2272011103D 1   1.00000     0.00000
 Structure written by MMmdl.
 38 39  0  0  0  0  0  0  0  0  2 V2000
  153.3923  142.3713  162.1372 C   0  0  0  0  0  0  0  0  0  0  0  0
  152.8040  143.2359  161.0128 C   0  0  0  0  0  0  0  0  0  0  0  0
  151.5438  144.0033  161.4387 C   0  0  0  0  0  0  0  0  0  0  0  0
  152.5901  142.4551  159.7536 C   0  0  0  0  0  0  0  0  0  0  0  0
  151.9652  142.9528  158.6818 N   0  0  0  0  0  0  0  0  0  0  0  0
  151.8965  142.0372  157.6422 N   0  0  0  0  0  0  0  0  0  0  0  0
  152.4594  140.8584  157.9423 C   0  0  0  0  0  0  0  0  0  0  0  0
  152.5039  139.8368  157.0714 N   0  5  0  0  0  0  0  0  0  0  0  0
  152.0354  139.9994  155.8131 C   0  0  0  0  0  0  0  0  0  0  0  0
  152.7048  140.2758  154.8153 O   0  0  0  0  0  0  0  0  0  0  0  0
  150.7088  139.8352  155.7096 N   0  0  0  0  0  0  0  0  0  0  0  0
  149.9069  139.9714  154.4945 C   0  0  1  0  0  0  0  0  0  0  0  0
  149.2371  138.6284  154.1648 C   0  0  0  0  0  0  0  0  0  0  0  0
  148.8763  141.1012  154.6799 C   0  0  1  0  0  0  0  0  0  0  0  0
  147.8431  141.2124  153.5546 C   0  0  0  0  0  0  0  0  0  0  0  0
  146.6195  141.8090  154.2346 C   0  0  0  0  0  0  0  0  0  0  0  0
  146.9522  141.7475  155.7269 C   0  0  0  0  0  0  0  0  0  0  0  0
  148.0587  140.8625  155.8154 O   0  0  0  0  0  0  0  0  0  0  0  0
  153.1485  140.8008  159.5639 S   0  0  0  0  0  0  0  0  0  0  0  0
  154.3325  141.9132  161.8283 H   0  0  0  0  0  0  0  0  0  0  0  0
  152.7084  141.5706  162.4205 H   0  0  0  0  0  0  0  0  0  0  0  0
  153.5923  142.9680  163.0274 H   0  0  0  0  0  0  0  0  0  0  0  0
  153.5573  143.9901  160.7811 H   0  0  0  0  0  0  0  0  0  0  0  0
  151.2003  144.6643  160.6422 H   0  0  0  0  0  0  0  0  0  0  0  0
  151.7364  144.6179  162.3185 H   0  0  0  0  0  0  0  0  0  0  0  0
  150.7279  143.3218  161.6820 H   0  0  0  0  0  0  0  0  0  0  0  0
  150.2095  139.6053  156.5561 H   0  0  0  0  0  0  0  0  0  0  0  0
  150.5529  140.2460  153.6589 H   0  0  0  0  0  0  0  0  0  0  0  0
  148.6471  138.6971  153.2507 H   0  0  0  0  0  0  0  0  0  0  0  0
  148.5721  138.3086  154.9677 H   0  0  0  0  0  0  0  0  0  0  0  0
  149.9807  137.8450  154.0162 H   0  0  0  0  0  0  0  0  0  0  0  0
  149.3828  142.0601  154.8080 H   0  0  0  0  0  0  0  0  0  0  0  0
  148.2006  141.8167  152.7204 H   0  0  0  0  0  0  0  0  0  0  0  0
  147.5968  140.2227  153.1675 H   0  0  0  0  0  0  0  0  0  0  0  0
  146.4366  142.8358  153.9165 H   0  0  0  0  0  0  0  0  0  0  0  0
  145.7305  141.2218  154.0019 H   0  0  0  0  0  0  0  0  0  0  0  0
  147.2501  142.7306  156.0943 H   0  0  0  0  0  0  0  0  0  0  0  0
  146.1147  141.3975  156.3306 H   0  0  0  0  0  0  0  0  0  0  0  0
  1  2  1  0  0  0  0
  1 20  1  0  0  0  0
  1 21  1  0  0  0  0
  1 22  1  0  0  0  0
  2  3  1  0  0  0  0
  2  4  1  0  0  0  0
  2 23  1  0  0  0  0
  3 24  1  0  0  0  0
  3 25  1  0  0  0  0
  3 26  1  0  0  0  0
  4 19  1  0  0  0  0
  4  5  2  0  0  0  0
  5  6  1  0  0  0  0
  6  7  2  0  0  0  0
  7  8  1  0  0  0  0
  7 19  1  0  0  0  0
  8  9  1  0  0  0  0
  9 10  2  0  0  0  0
  9 11  1  0  0  0  0
 11 12  1  0  0  0  0
 11 27  1  0  0  0  0
 12 13  1  0  0  0  0
 12 14  1  0  0  0  0
 12 28  1  0  0  0  0
 13 29  1  0  0  0  0
 13 30  1  0  0  0  0
 13 31  1  0  0  0  0
 14 18  1  0  0  0  0
 14 15  1  0  0  0  0
 14 32  1  0  0  0  0
 15 16  1  0  0  0  0
 15 33  1  0  0  0  0
 15 34  1  0  0  0  0
 16 17  1  0  0  0  0
 16 35  1  0  0  0  0
 16 36  1  0  0  0  0
 17 18  1  0  0  0  0
 17 37  1  0  0  0  0
 17 38  1  0  0  0  0
M  CHG  1   8  -1
M  END
> <s_m_source_file>
AV-unprocessed.smi

> <i_m_source_file_index>
2063

> <i_lp_mmshare_version>
43012

> <i_f3d_flags>
0

> <s_epik_input>
W0NIM11bQ0hdKFtDSDNdKWMxbm5jKHMxKVtOSF1DKD1PKVtOSF1bQ0BIXShbQ0gzXSlbQ0BASF0yW0NIMl1bQ0gyXVtDSDJdTzI=

> <s_epik_cmdline>
J2VwaWtfcHl0aG9uJywgJy1waCcsICc3LjAnLCAnLXRuJywgJzgnLCAnLW1hJywgJzIwMCcsICctbWV0YWxfYmluZGluZycsICctaW1hZScsICc8aW5maWxlLm1hZT4nLCAnLW9tYWUnLCAnPG91dGZpbGUubWFlPic=

> <r_lp_tautomer_probability>
1

> <r_epik_Ionization_Penalty>
4.37022

> <r_epik_Ionization_Penalty_Charging>
4.21437

> <r_epik_Ionization_Penalty_Neutral>
0.15585

> <r_epik_State_Penalty>
4.21389

> <r_epik_Charging_Adjusted_Penalty>
8.42826

> <i_epik_Tot_Q>
-1

> <i_epik_Tot_abs_Q>
1

> <r_epik_Metal_State_Penalty>
0.693772

> <b_epik_Metal_Only>
1

> <s_lp_Force_Field>
OPLS_2005

> <r_lp_Energy>
9.58688

> <b_lp_Chiralities_Consistent>
1

> <s_lp_Variant>
AV-unprocessed.smi:2063-8

> <Gold.Version>
5.8.1

> <Gold.Id.Protein>
6NUR|6NUR_protein|mol2

> <Gold.PLP.Fitness>
40.6168

> <Gold.PLP.PLP>
-38.3514

> <Gold.PLP.part.hbond>
-1.9082

> <Gold.PLP.part.metal>
0.0000

> <Gold.PLP.part.buried>
-2.9461

> <Gold.PLP.part.nonpolar>
-33.2973

> <Gold.PLP.part.repulsive>
0.1802

> <Gold.PLP.ligand.clash>
0.0000

> <Gold.PLP.ligand.torsion>
1.0473

> <Gold.PLP.Chemscore.Hbond>
1.4045

> <Gold.PLP.Chemscore.CHOScore>
0.0000

> <Gold.PLP.Chemscore.Metal>
0.0000

> <Gold.Chemscore.Hbonds>
donor molecule, donor type, donor heavy atom, donor atom, acceptor molecule, acceptor atom, score
      P1  H  7989  7998       L1    10  0.35
      P1  H  7997  8010       L1    10  0.42

> <Gold.PLP.Chemscore.Internal.Correction>
0.1464

> <Gold.Rescore>
     Score         DG    S(hbond)    S(metal)    S(lipo)     H(rot)  DE(clash)    DE(int)     intcor
     14.04     -15.13       0.75        0.00      91.50       1.39       0.13       0.96       ----

> <Gold.Chemscore.Fitness>
14.0356

> <Gold.Chemscore.DG>
-15.1256

> <Gold.Chemscore.ZeroCoef>
-5.4800

> <Gold.Chemscore.Hbond>
0.7476

> <Gold.Chemscore.Metal>
0.0000

> <Gold.Chemscore.Lipo>
91.4994

> <Gold.Chemscore.Internal_Hbond>
0.0000

> <Gold.Chemscore.DEClash>
0.1260

> <Gold.Chemscore.DEInternal>
0.9639

> <Gold.Chemscore.Rot>
1.3893

> <Gold.Chemscore.Internal.Correction>
   9.000000E+99

> <Gold.Chemscore.Hbonds>
donor molecule, donor type, donor heavy atom, donor atom, acceptor molecule, acceptor atom, score
      P1  H  7989  7998       L1    10  0.30
      P1  H  7997  8010       L1    10  0.01

> <Gold.Chemscore.Hbond.Weighted>
-2.4968

> <Gold.Chemscore.Metal.Weighted>
-0.0000

> <Gold.Chemscore.Lipo.Weighted>
-10.7054

> <Gold.Chemscore.Internal_Hbond.Weighted>
0.0000

> <Gold.Chemscore.DEClash.Weighted>
0.1260

> <Gold.Chemscore.DEInternal.Weighted>
0.9639

> <Gold.Chemscore.Rot.Weighted>
3.5567

> <Gold.Chemscore.Internal.Correction.Weighted>
   9.000000E+99

> <Gold.Protein.RotatedTorsions>
[ 6907 6896 6895 6894 ] final  111.95 input  -60.11 | X-H torsion
[ 7974 7965 7964 7962 ] final  166.75 input  175.53 | X-H torsion
[ 8008 7997 7996 7995 ] final   98.31 input   59.86 | X-H torsion
[ 10167 10162 10161 10158 ] final  111.12 input  -65.29 | X-H torsion
[ 10718 10713 10712 10709 ] final -108.10 input   66.30 | X-H torsion
[ 10763 10752 10751 10750 ] final   89.34 input  -60.55 | X-H torsion
[ 11005 11000 10999 10996 ] final   -5.96 input  -57.11 | X-H torsion

> <Gold.Protein.ActiveResidues>
 VAL166  LYS551  ARG553  GLY616  TRP617  ASP618  TYR619  PRO620  LYS621  CYS622 
 ASP623  PHE694  ASN695  SER759  ASP760  ASP761  ALA762  ILE779  LEU786  VAL792 
 PHE793  MET794  SER795  GLU796  ALA797  LYS798  CYS799  TRP800  GLU811  SER814 

> <Gold.Protein.RotatedAtoms>
  152.4942  133.8585  159.7237 H   0  0  0  0  0  0  0  0  0  0  0  0  # atno 6907 bound_to 6896
  150.9103  133.6997  159.2863 H   0  0  0  0  0  0  0  0  0  0  0  0  # atno 6908 bound_to 6896
  151.4408  135.1024  159.9722 H   0  0  0  0  0  0  0  0  0  0  0  0  # atno 6909 bound_to 6896
  144.7450  139.8661  143.6385 H   0  0  0  0  0  0  0  0  0  0  0  0  # atno 7974 bound_to 7965
  156.0991  140.3245  155.7918 H   0  0  0  0  0  0  0  0  0  0  0  0  # atno 8008 bound_to 7997
  155.4867  140.0558  157.2977 H   0  0  0  0  0  0  0  0  0  0  0  0  # atno 8009 bound_to 7997
  154.4685  140.2000  156.0070 H   0  0  0  0  0  0  0  0  0  0  0  0  # atno 8010 bound_to 7997
  139.6636  144.7128  151.1819 H   0  0  0  0  0  0  0  0  0  0  0  0  # atno 10167 bound_to 10162
  156.0469  130.5696  150.7914 H   0  0  0  0  0  0  0  0  0  0  0  0  # atno 10718 bound_to 10713
  153.1861  135.4474  155.0090 H   0  0  0  0  0  0  0  0  0  0  0  0  # atno 10763 bound_to 10752
  154.8061  135.3275  154.7430 H   0  0  0  0  0  0  0  0  0  0  0  0  # atno 10764 bound_to 10752
  153.7889  135.6971  153.4930 H   0  0  0  0  0  0  0  0  0  0  0  0  # atno 10765 bound_to 10752
  140.6968  133.9024  155.8655 H   0  0  0  0  0  0  0  0  0  0  0  0  # atno 11005 bound_to 11000
  146.1314  139.4350  143.0166 LP  0  0  0  0  0  0  0  0  0  0  0  0  # atno 17320 bound_to 7965
  145.7158  141.0091  143.1429 LP  0  0  0  0  0  0  0  0  0  0  0  0  # atno 17321 bound_to 7965
  140.7590  143.5956  150.8752 LP  0  0  0  0  0  0  0  0  0  0  0  0  # atno 17342 bound_to 10162
  139.9615  143.6158  152.3001 LP  0  0  0  0  0  0  0  0  0  0  0  0  # atno 17343 bound_to 10162
  157.5354  131.0938  150.9899 LP  0  0  0  0  0  0  0  0  0  0  0  0  # atno 17370 bound_to 10713
  157.0195  130.5668  149.5330 LP  0  0  0  0  0  0  0  0  0  0  0  0  # atno 17371 bound_to 10713
  141.0197  134.0907  157.4134 LP  0  0  0  0  0  0  0  0  0  0  0  0  # atno 17394 bound_to 11000
  139.8908  135.0114  156.6755 LP  0  0  0  0  0  0  0  0  0  0  0  0  # atno 17395 bound_to 11000

$$$$
