AV-unprocessed.smi:2949|AV-procd|sdf|11287|dock3
  -GOLD-   2272016183D 1   1.00000     0.00000
 Structure written by MMmdl.
 34 35  0  0  0  0  0  0  0  0  1 V2000
  147.2539  133.5142  150.2965 N   0  0  0  0  0  0  0  0  0  0  0  0
  146.0138  133.1778  150.3612 C   0  0  0  0  0  0  0  0  0  0  0  0
  145.3400  131.4824  150.2569 S   0  0  0  0  0  0  0  0  0  0  0  0
  143.7233  132.1215  150.4620 C   0  0  0  0  0  0  0  0  0  0  0  0
  143.7193  133.4477  150.5859 C   0  0  0  0  0  0  0  0  0  0  0  0
  144.9507  134.0682  150.5287 N   0  0  0  0  0  0  0  0  0  0  0  0
  145.1091  135.5091  150.7256 C   0  0  0  0  0  0  0  0  0  0  0  0
  145.0242  135.9948  152.1783 C   0  0  0  0  0  0  0  0  0  0  0  0
  143.9249  136.0896  152.7300 O   0  0  0  0  0  0  0  0  0  0  0  0
  146.2172  136.2912  152.7436 N   0  0  0  0  0  0  0  0  0  0  0  0
  146.5280  136.7408  153.9829 C   0  0  0  0  0  0  0  0  0  0  0  0
  145.7271  136.6255  154.9092 O   0  0  0  0  0  0  0  0  0  0  0  0
  147.7365  137.3117  154.1445 N   0  0  0  0  0  0  0  0  0  0  0  0
  148.1285  138.1624  155.2645 C   0  0  0  0  0  0  0  0  0  0  0  0
  147.2979  139.4622  155.3157 C   0  0  0  0  0  0  0  0  0  0  0  0
  148.3057  140.6086  155.4160 C   0  0  0  0  0  0  0  0  0  0  0  0
  149.5550  140.0761  154.7219 C   0  0  0  0  0  0  0  0  0  0  0  0
  149.5968  138.5997  155.1155 C   0  0  0  0  0  0  0  0  0  0  0  0
  147.8349  132.6980  150.1736 H   0  0  0  0  0  0  0  0  0  0  0  0
  142.8621  131.4704  150.4830 H   0  0  0  0  0  0  0  0  0  0  0  0
  142.8513  134.0752  150.7270 H   0  0  0  0  0  0  0  0  0  0  0  0
  146.0574  135.8391  150.2980 H   0  0  0  0  0  0  0  0  0  0  0  0
  144.3372  136.0254  150.1530 H   0  0  0  0  0  0  0  0  0  0  0  0
  147.0145  136.1571  152.1390 H   0  0  0  0  0  0  0  0  0  0  0  0
  148.4373  137.1394  153.4373 H   0  0  0  0  0  0  0  0  0  0  0  0
  148.0184  137.6041  156.1961 H   0  0  0  0  0  0  0  0  0  0  0  0
  146.7131  139.5835  154.4023 H   0  0  0  0  0  0  0  0  0  0  0  0
  146.5945  139.4665  156.1489 H   0  0  0  0  0  0  0  0  0  0  0  0
  147.9373  141.5317  154.9681 H   0  0  0  0  0  0  0  0  0  0  0  0
  148.5288  140.8123  156.4641 H   0  0  0  0  0  0  0  0  0  0  0  0
  149.4421  140.1662  153.6407 H   0  0  0  0  0  0  0  0  0  0  0  0
  150.4586  140.6136  155.0104 H   0  0  0  0  0  0  0  0  0  0  0  0
  150.0997  138.5014  156.0783 H   0  0  0  0  0  0  0  0  0  0  0  0
  150.1586  137.9989  154.3988 H   0  0  0  0  0  0  0  0  0  0  0  0
  1  2  2  0  0  0  0
  1 19  1  0  0  0  0
  2  6  1  0  0  0  0
  2  3  1  0  0  0  0
  3  4  1  0  0  0  0
  4  5  2  0  0  0  0
  4 20  1  0  0  0  0
  5  6  1  0  0  0  0
  5 21  1  0  0  0  0
  6  7  1  0  0  0  0
  7  8  1  0  0  0  0
  7 22  1  0  0  0  0
  7 23  1  0  0  0  0
  8  9  2  0  0  0  0
  8 10  1  0  0  0  0
 10 11  1  0  0  0  0
 10 24  1  0  0  0  0
 11 12  2  0  0  0  0
 11 13  1  0  0  0  0
 13 14  1  0  0  0  0
 13 25  1  0  0  0  0
 14 18  1  0  0  0  0
 14 15  1  0  0  0  0
 14 26  1  0  0  0  0
 15 16  1  0  0  0  0
 15 27  1  0  0  0  0
 15 28  1  0  0  0  0
 16 17  1  0  0  0  0
 16 29  1  0  0  0  0
 16 30  1  0  0  0  0
 17 18  1  0  0  0  0
 17 31  1  0  0  0  0
 17 32  1  0  0  0  0
 18 33  1  0  0  0  0
 18 34  1  0  0  0  0
M  END
> <s_m_source_file>
AV-unprocessed.smi

> <i_m_source_file_index>
2949

> <i_lp_mmshare_version>
43012

> <i_f3d_flags>
0

> <s_epik_input>
W0hdL049YzFcc1tjSF1bY0hdbjFbQ0gyXUMoPU8pW05IXUMoPU8pW05IXVtDSF0yW0NIMl1bQ0gyXVtDSDJdW0NIMl0y

> <s_epik_cmdline>
J2VwaWtfcHl0aG9uJywgJy1waCcsICc3LjAnLCAnLXRuJywgJzgnLCAnLW1hJywgJzIwMCcsICctbWV0YWxfYmluZGluZycsICctaW1hZScsICc8aW5maWxlLm1hZT4nLCAnLW9tYWUnLCAnPG91dGZpbGUubWFlPic=

> <r_epik_Ionization_Penalty>
2.0346

> <r_epik_Ionization_Penalty_Charging>
2.03458

> <r_epik_Ionization_Penalty_Neutral>
2.61125e-05

> <r_epik_State_Penalty>
2.18096

> <r_epik_Charging_Adjusted_Penalty>
4.21554

> <i_epik_Tot_Q>
0

> <i_epik_Tot_abs_Q>
0

> <r_epik_Metal_State_Penalty>
2.18096

> <b_epik_Metal_Only>
0

> <s_lp_Force_Field>
OPLS_2005

> <r_lp_Energy>
19.3427

> <b_lp_Chiralities_Consistent>
1

> <s_lp_Variant>
AV-unprocessed.smi:2949-3

> <Gold.Version>
5.8.1

> <Gold.Id.Protein>
6NUR|6NUR_protein|mol2

> <Gold.PLP.Fitness>
41.1101

> <Gold.PLP.PLP>
-27.5392

> <Gold.PLP.part.hbond>
-3.0000

> <Gold.PLP.part.metal>
0.0000

> <Gold.PLP.part.buried>
-0.6560

> <Gold.PLP.part.nonpolar>
-23.2660

> <Gold.PLP.part.repulsive>
0.2295

> <Gold.PLP.ligand.clash>
0.0000

> <Gold.PLP.ligand.torsion>
0.6340

> <Gold.PLP.Chemscore.Hbond>
2.9520

> <Gold.PLP.Chemscore.CHOScore>
1.9858

> <Gold.PLP.Chemscore.Metal>
0.0000

> <Gold.Chemscore.Hbonds>
donor molecule, donor type, donor heavy atom, donor atom, acceptor molecule, acceptor atom, score
      L1  H     1    19       P1 10747  0.70
      L1  H    10    24       P1  7948  1.00
      L1  H    13    25       P1  7948  0.99
      L1  C     4    20       P1 10952  1.00
      L1  C     5    21       P1 10186  1.00

> <Gold.PLP.Chemscore.Internal.Correction>
0.0254

> <Gold.Rescore>
     Score         DG    S(hbond)    S(metal)    S(lipo)     H(rot)  DE(clash)    DE(int)     intcor
     15.66     -17.33       2.87        0.00      56.19       1.69       0.01       1.67       ----

> <Gold.Chemscore.Fitness>
15.6553

> <Gold.Chemscore.DG>
-17.3331

> <Gold.Chemscore.ZeroCoef>
-5.4800

> <Gold.Chemscore.Hbond>
2.8738

> <Gold.Chemscore.Metal>
0.0000

> <Gold.Chemscore.Lipo>
56.1867

> <Gold.Chemscore.Internal_Hbond>
0.0000

> <Gold.Chemscore.DEClash>
0.0065

> <Gold.Chemscore.DEInternal>
1.6713

> <Gold.Chemscore.Rot>
1.6871

> <Gold.Chemscore.Internal.Correction>
   9.000000E+99

> <Gold.Chemscore.Hbonds>
donor molecule, donor type, donor heavy atom, donor atom, acceptor molecule, acceptor atom, score
      L1  H     1    19       P1 10747  0.71
      L1  H    10    24       P1  7948  0.95
      L1  H    13    25       P1  7948  0.94

> <Gold.Chemscore.Hbond.Weighted>
-9.5983

> <Gold.Chemscore.Metal.Weighted>
-0.0000

> <Gold.Chemscore.Lipo.Weighted>
-6.5738

> <Gold.Chemscore.Internal_Hbond.Weighted>
0.0000

> <Gold.Chemscore.DEClash.Weighted>
0.0065

> <Gold.Chemscore.DEInternal.Weighted>
1.6713

> <Gold.Chemscore.Rot.Weighted>
4.3191

> <Gold.Chemscore.Internal.Correction.Weighted>
   9.000000E+99

> <Gold.Protein.RotatedTorsions>
[ 6907 6896 6895 6894 ] final  -79.31 input  -60.11 | X-H torsion
[ 7974 7965 7964 7962 ] final   35.71 input  175.53 | X-H torsion
[ 8008 7997 7996 7995 ] final  -91.16 input   59.86 | X-H torsion
[ 10167 10162 10161 10158 ] final  -39.43 input  -65.29 | X-H torsion
[ 10718 10713 10712 10709 ] final  -71.33 input   66.30 | X-H torsion
[ 10763 10752 10751 10750 ] final  138.56 input  -60.55 | X-H torsion
[ 11005 11000 10999 10996 ] final   76.43 input  -57.11 | X-H torsion

> <Gold.Protein.ActiveResidues>
 VAL166  LYS551  ARG553  GLY616  TRP617  ASP618  TYR619  PRO620  LYS621  CYS622 
 ASP623  PHE694  ASN695  SER759  ASP760  ASP761  ALA762  ILE779  LEU786  VAL792 
 PHE793  MET794  SER795  GLU796  ALA797  LYS798  CYS799  TRP800  GLU811  SER814 

> <Gold.Protein.RotatedAtoms>
  150.6952  134.4140  159.5174 H   0  0  0  0  0  0  0  0  0  0  0  0  # atno 6907 bound_to 6896
  152.1894  134.8682  160.0528 H   0  0  0  0  0  0  0  0  0  0  0  0  # atno 6908 bound_to 6896
  151.9643  133.3670  159.4084 H   0  0  0  0  0  0  0  0  0  0  0  0  # atno 6909 bound_to 6896
  146.1263  139.6108  142.9256 H   0  0  0  0  0  0  0  0  0  0  0  0  # atno 7974 bound_to 7965
  154.7073  140.0522  157.0516 H   0  0  0  0  0  0  0  0  0  0  0  0  # atno 8008 bound_to 7997
  155.0603  140.3188  155.4644 H   0  0  0  0  0  0  0  0  0  0  0  0  # atno 8009 bound_to 7997
  156.2778  140.2100  156.5729 H   0  0  0  0  0  0  0  0  0  0  0  0  # atno 8010 bound_to 7997
  140.7064  143.3215  151.2782 H   0  0  0  0  0  0  0  0  0  0  0  0  # atno 10167 bound_to 10162
  156.0368  130.4349  150.2428 H   0  0  0  0  0  0  0  0  0  0  0  0  # atno 10718 bound_to 10713
  153.8917  135.3032  155.3447 H   0  0  0  0  0  0  0  0  0  0  0  0  # atno 10763 bound_to 10752
  154.7713  135.4884  153.9658 H   0  0  0  0  0  0  0  0  0  0  0  0  # atno 10764 bound_to 10752
  153.1294  135.6800  153.9302 H   0  0  0  0  0  0  0  0  0  0  0  0  # atno 10765 bound_to 10752
  139.9298  134.7600  156.1395 H   0  0  0  0  0  0  0  0  0  0  0  0  # atno 11005 bound_to 11000
  145.5357  141.0424  143.2358 LP  0  0  0  0  0  0  0  0  0  0  0  0  # atno 17320 bound_to 7965
  144.7646  139.6876  143.7220 LP  0  0  0  0  0  0  0  0  0  0  0  0  # atno 17321 bound_to 7965
  139.6670  144.0088  152.2729 LP  0  0  0  0  0  0  0  0  0  0  0  0  # atno 17342 bound_to 10162
  139.9674  144.6517  150.8022 LP  0  0  0  0  0  0  0  0  0  0  0  0  # atno 17343 bound_to 10162
  157.0526  131.0067  151.3248 LP  0  0  0  0  0  0  0  0  0  0  0  0  # atno 17370 bound_to 10713
  157.5129  130.7950  149.7724 LP  0  0  0  0  0  0  0  0  0  0  0  0  # atno 17371 bound_to 10713
  141.0880  133.6726  156.2479 LP  0  0  0  0  0  0  0  0  0  0  0  0  # atno 17394 bound_to 11000
  140.6232  134.5340  157.5550 LP  0  0  0  0  0  0  0  0  0  0  0  0  # atno 17395 bound_to 11000

$$$$
