AV-unprocessed.smi:3348|AV-procd|sdf|12926|dock2
  -GOLD-   2272019353D 1   1.00000     0.00000
 Structure written by MMmdl.
 46 47  0  0  0  0  0  0  0  0  1 V2000
  143.5438  136.3600  152.5249 C   0  0  0  0  0  0  0  0  0  0  0  0
  144.9196  136.0692  151.8886 C   0  0  1  0  0  0  0  0  0  0  0  0
  144.7912  135.3506  150.5296 C   0  0  0  0  0  0  0  0  0  0  0  0
  144.8874  133.9054  150.6412 N   0  0  0  0  0  0  0  0  0  0  0  0
  143.8862  132.9686  150.4925 C   0  0  0  0  0  0  0  0  0  0  0  0
  144.4458  131.7396  150.6944 C   0  0  0  0  0  0  0  0  0  0  0  0
  145.8113  132.0314  150.9693 C   0  0  0  0  0  0  0  0  0  0  0  0
  146.0722  133.3284  150.9390 N   0  0  0  0  0  0  0  0  0  0  0  0
  145.7044  137.2936  151.7057 N   0  0  0  0  0  0  0  0  0  0  0  0
  146.0828  137.9950  152.9318 C   0  0  0  0  0  0  0  0  0  0  0  0
  146.9730  139.1995  152.6126 C   0  0  0  0  0  0  0  0  0  0  0  0
  147.8297  139.4301  153.7210 O   0  0  0  0  0  0  0  0  0  0  0  0
  148.6661  140.5756  153.6008 C   0  0  1  0  0  0  0  0  0  0  0  0
  147.8515  141.8663  153.8362 C   0  0  0  0  0  0  0  0  0  0  0  0
  147.3096  141.9426  155.2731 C   0  0  0  0  0  0  0  0  0  0  0  0
  148.4435  141.8166  156.3017 C   0  0  0  0  0  0  0  0  0  0  0  0
  149.2627  140.5357  156.0765 C   0  0  0  0  0  0  0  0  0  0  0  0
  149.8077  140.4574  154.6358 C   0  0  1  0  0  0  0  0  0  0  0  0
  150.6596  139.1979  154.4143 C   0  0  0  0  0  0  0  0  0  0  0  0
  142.9562  135.4495  152.6397 H   0  0  0  0  0  0  0  0  0  0  0  0
  142.9635  137.0513  151.9132 H   0  0  0  0  0  0  0  0  0  0  0  0
  143.6360  136.7898  153.5215 H   0  0  0  0  0  0  0  0  0  0  0  0
  145.4645  135.4054  152.5612 H   0  0  0  0  0  0  0  0  0  0  0  0
  143.8444  135.6093  150.0519 H   0  0  0  0  0  0  0  0  0  0  0  0
  145.5796  135.6838  149.8534 H   0  0  0  0  0  0  0  0  0  0  0  0
  142.8711  133.2522  150.2560 H   0  0  0  0  0  0  0  0  0  0  0  0
  143.9544  130.7789  150.6538 H   0  0  0  0  0  0  0  0  0  0  0  0
  146.6146  131.3440  151.1898 H   0  0  0  0  0  0  0  0  0  0  0  0
  145.2031  137.9326  151.0964 H   0  0  0  0  0  0  0  0  0  0  0  0
  145.2068  138.3368  153.4817 H   0  0  0  0  0  0  0  0  0  0  0  0
  146.6229  137.3124  153.5884 H   0  0  0  0  0  0  0  0  0  0  0  0
  147.5796  138.9789  151.7333 H   0  0  0  0  0  0  0  0  0  0  0  0
  146.3643  140.0728  152.3768 H   0  0  0  0  0  0  0  0  0  0  0  0
  149.1088  140.6030  152.6034 H   0  0  0  0  0  0  0  0  0  0  0  0
  148.4903  142.7304  153.6497 H   0  0  0  0  0  0  0  0  0  0  0  0
  147.0299  141.9462  153.1252 H   0  0  0  0  0  0  0  0  0  0  0  0
  146.7782  142.8831  155.4203 H   0  0  0  0  0  0  0  0  0  0  0  0
  146.5797  141.1478  155.4328 H   0  0  0  0  0  0  0  0  0  0  0  0
  149.0985  142.6858  156.2308 H   0  0  0  0  0  0  0  0  0  0  0  0
  148.0320  141.8217  157.3114 H   0  0  0  0  0  0  0  0  0  0  0  0
  150.0875  140.5021  156.7890 H   0  0  0  0  0  0  0  0  0  0  0  0
  148.6408  139.6643  156.2861 H   0  0  0  0  0  0  0  0  0  0  0  0
  150.4680  141.3140  154.4907 H   0  0  0  0  0  0  0  0  0  0  0  0
  150.0762  138.2893  154.5668 H   0  0  0  0  0  0  0  0  0  0  0  0
  151.5027  139.1694  155.1051 H   0  0  0  0  0  0  0  0  0  0  0  0
  151.0623  139.1692  153.4015 H   0  0  0  0  0  0  0  0  0  0  0  0
  1  2  1  0  0  0  0
  1 20  1  0  0  0  0
  1 21  1  0  0  0  0
  1 22  1  0  0  0  0
  2  3  1  0  0  0  0
  2  9  1  0  0  0  0
  2 23  1  0  0  0  0
  3  4  1  0  0  0  0
  3 24  1  0  0  0  0
  3 25  1  0  0  0  0
  4  8  1  0  0  0  0
  4  5  1  0  0  0  0
  5  6  2  0  0  0  0
  5 26  1  0  0  0  0
  6  7  1  0  0  0  0
  6 27  1  0  0  0  0
  7  8  2  0  0  0  0
  7 28  1  0  0  0  0
  9 10  1  0  0  0  0
  9 29  1  0  0  0  0
 10 11  1  0  0  0  0
 10 30  1  0  0  0  0
 10 31  1  0  0  0  0
 11 12  1  0  0  0  0
 11 32  1  0  0  0  0
 11 33  1  0  0  0  0
 12 13  1  0  0  0  0
 13 18  1  0  0  0  0
 13 14  1  0  0  0  0
 13 34  1  0  0  0  0
 14 15  1  0  0  0  0
 14 35  1  0  0  0  0
 14 36  1  0  0  0  0
 15 16  1  0  0  0  0
 15 37  1  0  0  0  0
 15 38  1  0  0  0  0
 16 17  1  0  0  0  0
 16 39  1  0  0  0  0
 16 40  1  0  0  0  0
 17 18  1  0  0  0  0
 17 41  1  0  0  0  0
 17 42  1  0  0  0  0
 18 19  1  0  0  0  0
 18 43  1  0  0  0  0
 19 44  1  0  0  0  0
 19 45  1  0  0  0  0
 19 46  1  0  0  0  0
M  END
> <s_m_source_file>
AV-unprocessed.smi

> <i_m_source_file_index>
3348

> <i_lp_mmshare_version>
43012

> <i_f3d_flags>
0

> <s_epik_input>
bjFbY0hdW2NIXVtjSF1uMVtDSDJdW0NAQEhdKFtDSDNdKVtOSF1bQ0gyXVtDSDJdT1tDQEBIXTJbQ0gyXVtDSDJdW0NIMl1bQ0gyXVtDQEhdMltDSDNd

> <s_epik_cmdline>
J2VwaWtfcHl0aG9uJywgJy1waCcsICc3LjAnLCAnLXRuJywgJzgnLCAnLW1hJywgJzIwMCcsICctbWV0YWxfYmluZGluZycsICctaW1hZScsICc8aW5maWxlLm1hZT4nLCAnLW9tYWUnLCAnPG91dGZpbGUubWFlPic=

> <r_lp_tautomer_probability>
1

> <r_epik_Ionization_Penalty>
2.46945

> <r_epik_Ionization_Penalty_Charging>
0

> <r_epik_Ionization_Penalty_Neutral>
2.46945

> <r_epik_State_Penalty>
2.6322

> <r_epik_Charging_Adjusted_Penalty>
2.6322

> <i_epik_Tot_Q>
0

> <i_epik_Tot_abs_Q>
0

> <r_epik_Metal_State_Penalty>
2.63217

> <b_epik_Metal_Only>
0

> <s_lp_Force_Field>
OPLS_2005

> <r_lp_Energy>
17.8462

> <b_lp_Chiralities_Consistent>
1

> <s_lp_Variant>
AV-unprocessed.smi:3348-12

> <Gold.Version>
5.8.1

> <Gold.Id.Protein>
6NUR|6NUR_protein|mol2

> <Gold.PLP.Fitness>
45.0288

> <Gold.PLP.PLP>
-37.7734

> <Gold.PLP.part.hbond>
-1.0000

> <Gold.PLP.part.metal>
0.0000

> <Gold.PLP.part.buried>
-2.6863

> <Gold.PLP.part.nonpolar>
-34.2166

> <Gold.PLP.part.repulsive>
0.3617

> <Gold.PLP.ligand.clash>
0.0000

> <Gold.PLP.ligand.torsion>
0.9530

> <Gold.PLP.Chemscore.Hbond>
1.0000

> <Gold.PLP.Chemscore.CHOScore>
2.0000

> <Gold.PLP.Chemscore.Metal>
0.0000

> <Gold.Chemscore.Hbonds>
donor molecule, donor type, donor heavy atom, donor atom, acceptor molecule, acceptor atom, score
      L1  H     9    29       P1 10171  1.00
      L1  C     5    26       P1 10186  1.00
      L1  C     7    28       P1 10747  0.88

> <Gold.PLP.Chemscore.Internal.Correction>
0.1615

> <Gold.Rescore>
     Score         DG    S(hbond)    S(metal)    S(lipo)     H(rot)  DE(clash)    DE(int)     intcor
     14.30     -16.66       0.99        0.00     105.16       1.72       1.59       0.77       ----

> <Gold.Chemscore.Fitness>
14.3005

> <Gold.Chemscore.DG>
-16.6649

> <Gold.Chemscore.ZeroCoef>
-5.4800

> <Gold.Chemscore.Hbond>
0.9862

> <Gold.Chemscore.Metal>
0.0000

> <Gold.Chemscore.Lipo>
105.1589

> <Gold.Chemscore.Internal_Hbond>
0.0000

> <Gold.Chemscore.DEClash>
1.5899

> <Gold.Chemscore.DEInternal>
0.7745

> <Gold.Chemscore.Rot>
1.7237

> <Gold.Chemscore.Internal.Correction>
   9.000000E+99

> <Gold.Chemscore.Hbonds>
donor molecule, donor type, donor heavy atom, donor atom, acceptor molecule, acceptor atom, score
      L1  H     9    29       P1 10171  0.98

> <Gold.Chemscore.Hbond.Weighted>
-3.2939

> <Gold.Chemscore.Metal.Weighted>
-0.0000

> <Gold.Chemscore.Lipo.Weighted>
-12.3036

> <Gold.Chemscore.Internal_Hbond.Weighted>
0.0000

> <Gold.Chemscore.DEClash.Weighted>
1.5899

> <Gold.Chemscore.DEInternal.Weighted>
0.7745

> <Gold.Chemscore.Rot.Weighted>
4.4126

> <Gold.Chemscore.Internal.Correction.Weighted>
   9.000000E+99

> <Gold.Protein.RotatedTorsions>
[ 6907 6896 6895 6894 ] final   60.39 input  -60.11 | X-H torsion
[ 7974 7965 7964 7962 ] final  131.71 input  175.53 | X-H torsion
[ 8008 7997 7996 7995 ] final -118.14 input   59.86 | X-H torsion
[ 10167 10162 10161 10158 ] final  168.70 input  -65.29 | X-H torsion
[ 10718 10713 10712 10709 ] final  136.49 input   66.30 | X-H torsion
[ 10763 10752 10751 10750 ] final  -72.80 input  -60.55 | X-H torsion
[ 11005 11000 10999 10996 ] final  164.42 input  -57.11 | X-H torsion

> <Gold.Protein.ActiveResidues>
 VAL166  LYS551  ARG553  GLY616  TRP617  ASP618  TYR619  PRO620  LYS621  CYS622 
 ASP623  PHE694  ASN695  SER759  ASP760  ASP761  ALA762  ILE779  LEU786  VAL792 
 PHE793  MET794  SER795  GLU796  ALA797  LYS798  CYS799  TRP800  GLU811  SER814 

> <Gold.Protein.RotatedAtoms>
  152.3998  134.6305  160.0073 H   0  0  0  0  0  0  0  0  0  0  0  0  # atno 6907 bound_to 6896
  151.6513  133.3315  159.3160 H   0  0  0  0  0  0  0  0  0  0  0  0  # atno 6908 bound_to 6896
  150.7900  134.6959  159.6567 H   0  0  0  0  0  0  0  0  0  0  0  0  # atno 6909 bound_to 6896
  145.0044  139.4280  143.5276 H   0  0  0  0  0  0  0  0  0  0  0  0  # atno 7974 bound_to 7965
  155.0950  140.0395  157.2680 H   0  0  0  0  0  0  0  0  0  0  0  0  # atno 8008 bound_to 7997
  154.6802  140.2631  155.6891 H   0  0  0  0  0  0  0  0  0  0  0  0  # atno 8009 bound_to 7997
  156.2692  140.2780  156.1344 H   0  0  0  0  0  0  0  0  0  0  0  0  # atno 8010 bound_to 7997
  139.4974  144.3786  151.9647 H   0  0  0  0  0  0  0  0  0  0  0  0  # atno 10167 bound_to 10162
  157.4461  131.1062  151.0088 H   0  0  0  0  0  0  0  0  0  0  0  0  # atno 10718 bound_to 10713
  154.4507  135.5918  153.6189 H   0  0  0  0  0  0  0  0  0  0  0  0  # atno 10763 bound_to 10752
  152.9813  135.6020  154.3608 H   0  0  0  0  0  0  0  0  0  0  0  0  # atno 10764 bound_to 10752
  154.3469  135.2841  155.2371 H   0  0  0  0  0  0  0  0  0  0  0  0  # atno 10765 bound_to 10752
  140.2458  134.8015  157.3454 H   0  0  0  0  0  0  0  0  0  0  0  0  # atno 11005 bound_to 11000
  146.3458  139.9452  142.8736 LP  0  0  0  0  0  0  0  0  0  0  0  0  # atno 17320 bound_to 7965
  145.2108  140.9895  143.4101 LP  0  0  0  0  0  0  0  0  0  0  0  0  # atno 17321 bound_to 7965
  140.3222  144.3414  150.6007 LP  0  0  0  0  0  0  0  0  0  0  0  0  # atno 17342 bound_to 10162
  140.5713  143.2180  151.7594 LP  0  0  0  0  0  0  0  0  0  0  0  0  # atno 17343 bound_to 10162
  157.0934  130.5951  149.5444 LP  0  0  0  0  0  0  0  0  0  0  0  0  # atno 17370 bound_to 10713
  155.9968  130.5038  150.7510 LP  0  0  0  0  0  0  0  0  0  0  0  0  # atno 17371 bound_to 10713
  140.1607  134.4732  155.7896 LP  0  0  0  0  0  0  0  0  0  0  0  0  # atno 17394 bound_to 11000
  141.2206  133.6900  156.7540 LP  0  0  0  0  0  0  0  0  0  0  0  0  # atno 17395 bound_to 11000

$$$$
