AV-unprocessed.smi:2243|AV-procd|sdf|9068|dock4
  -GOLD-   2272012273D 1   1.00000     0.00000
 Structure written by MMmdl.
 34 35  0  0  0  0  0  0  0  0  1 V2000
  147.3843  139.0069  156.2992 C   0  0  0  0  0  0  0  0  0  0  0  0
  148.2612  137.8395  156.7837 C   0  0  2  0  0  0  0  0  0  0  0  0
  148.1241  137.7468  158.2381 N   0  0  0  0  0  0  0  0  0  0  0  0
  148.7724  136.8975  159.0509 C   0  0  0  0  0  0  0  0  0  0  0  0
  149.5880  136.0773  158.6176 O   0  0  0  0  0  0  0  0  0  0  0  0
  148.3819  137.1134  160.3650 N   0  0  0  0  0  0  0  0  0  0  0  0
  147.8699  136.1449  161.0614 C   0  0  0  0  0  0  0  0  0  0  0  0
  147.5900  134.8116  160.7735 N   0  0  0  0  0  0  0  0  0  0  0  0
  147.0474  134.2389  161.8895 C   0  0  0  0  0  0  0  0  0  0  0  0
  146.9869  135.1663  162.8402 C   0  0  0  0  0  0  0  0  0  0  0  0
  147.4824  136.3425  162.3629 O   0  0  0  0  0  0  0  0  0  0  0  0
  149.7548  137.9869  156.3883 C   0  0  0  0  0  0  0  0  0  0  0  0
  150.3629  139.3256  156.8540 C   0  0  0  0  0  0  0  0  0  0  0  0
  151.8184  139.4740  156.3818 C   0  0  0  0  0  0  0  0  0  0  0  0
  151.8868  139.3590  154.9662 O   0  0  0  0  0  0  0  0  0  0  0  0
  151.4565  138.0865  154.4995 C   0  0  0  0  0  0  0  0  0  0  0  0
  149.9807  137.8636  154.8660 C   0  0  0  0  0  0  0  0  0  0  0  0
  147.3305  139.0488  155.2120 H   0  0  0  0  0  0  0  0  0  0  0  0
  147.7656  139.9648  156.6545 H   0  0  0  0  0  0  0  0  0  0  0  0
  146.3609  138.9028  156.6614 H   0  0  0  0  0  0  0  0  0  0  0  0
  147.8779  136.9314  156.3158 H   0  0  0  0  0  0  0  0  0  0  0  0
  147.4753  138.3907  158.6670 H   0  0  0  0  0  0  0  0  0  0  0  0
  147.7424  134.3141  159.9077 H   0  0  0  0  0  0  0  0  0  0  0  0
  146.7542  133.1994  161.8840 H   0  0  0  0  0  0  0  0  0  0  0  0
  146.6344  135.1485  163.8608 H   0  0  0  0  0  0  0  0  0  0  0  0
  150.3116  137.1820  156.8711 H   0  0  0  0  0  0  0  0  0  0  0  0
  149.7708  140.1556  156.4665 H   0  0  0  0  0  0  0  0  0  0  0  0
  150.3393  139.4046  157.9404 H   0  0  0  0  0  0  0  0  0  0  0  0
  152.2075  140.4498  156.6730 H   0  0  0  0  0  0  0  0  0  0  0  0
  152.4582  138.7245  156.8505 H   0  0  0  0  0  0  0  0  0  0  0  0
  151.5826  138.0484  153.4173 H   0  0  0  0  0  0  0  0  0  0  0  0
  152.0849  137.2999  154.9203 H   0  0  0  0  0  0  0  0  0  0  0  0
  149.6735  136.8818  154.5055 H   0  0  0  0  0  0  0  0  0  0  0  0
  149.3631  138.5940  154.3416 H   0  0  0  0  0  0  0  0  0  0  0  0
  1  2  1  0  0  0  0
  1 18  1  0  0  0  0
  1 19  1  0  0  0  0
  1 20  1  0  0  0  0
  2  3  1  0  0  0  0
  2 12  1  0  0  0  0
  2 21  1  0  0  0  0
  3 22  1  0  0  0  0
  3  4  1  0  0  0  0
  4  6  1  0  0  0  0
  4  5  2  0  0  0  0
  6  7  2  0  0  0  0
  7 11  1  0  0  0  0
  7  8  1  0  0  0  0
  8 23  1  0  0  0  0
  8  9  1  0  0  0  0
  9 24  1  0  0  0  0
  9 10  2  0  0  0  0
 10 25  1  0  0  0  0
 10 11  1  0  0  0  0
 12 17  1  0  0  0  0
 12 13  1  0  0  0  0
 12 26  1  0  0  0  0
 13 14  1  0  0  0  0
 13 27  1  0  0  0  0
 13 28  1  0  0  0  0
 14 15  1  0  0  0  0
 14 29  1  0  0  0  0
 14 30  1  0  0  0  0
 15 16  1  0  0  0  0
 16 17  1  0  0  0  0
 16 31  1  0  0  0  0
 16 32  1  0  0  0  0
 17 33  1  0  0  0  0
 17 34  1  0  0  0  0
M  END
> <s_m_source_file>
AV-unprocessed.smi

> <i_m_source_file_index>
2243

> <i_lp_mmshare_version>
43012

> <i_f3d_flags>
0

> <s_epik_input>
W0NIMl0xW0NIMl1PW0NIMl1bQ0gyXVtDSF0xW0NASF0oW0NIM10pW05IXUMoPU8pW05IXWMybltjSF1bY0hdbzI=

> <s_epik_cmdline>
J2VwaWtfcHl0aG9uJywgJy1waCcsICc3LjAnLCAnLXRuJywgJzgnLCAnLW1hJywgJzIwMCcsICctbWV0YWxfYmluZGluZycsICctaW1hZScsICc8aW5maWxlLm1hZT4nLCAnLW9tYWUnLCAnPG91dGZpbGUubWFlPic=

> <r_lp_tautomer_probability>
0.107061

> <r_epik_Ionization_Penalty>
1.44639

> <r_epik_Ionization_Penalty_Charging>
1.44602

> <r_epik_Ionization_Penalty_Neutral>
0.000368208

> <r_epik_State_Penalty>
2.61815

> <r_epik_Charging_Adjusted_Penalty>
4.06418

> <i_epik_Tot_Q>
0

> <i_epik_Tot_abs_Q>
0

> <r_epik_Metal_State_Penalty>
3.54171

> <b_epik_Metal_Only>
0

> <s_lp_Force_Field>
OPLS_2005

> <r_lp_Energy>
34.9147

> <b_lp_Chiralities_Consistent>
1

> <s_lp_Variant>
AV-unprocessed.smi:2243-7

> <Gold.Version>
5.8.1

> <Gold.Id.Protein>
6NUR|6NUR_protein|mol2

> <Gold.PLP.Fitness>
33.8953

> <Gold.PLP.PLP>
-26.5213

> <Gold.PLP.part.hbond>
-4.0000

> <Gold.PLP.part.metal>
0.0000

> <Gold.PLP.part.buried>
-5.4661

> <Gold.PLP.part.nonpolar>
-18.3191

> <Gold.PLP.part.repulsive>
0.2131

> <Gold.PLP.ligand.clash>
0.0000

> <Gold.PLP.ligand.torsion>
0.6270

> <Gold.PLP.Chemscore.Hbond>
2.8710

> <Gold.PLP.Chemscore.CHOScore>
0.0000

> <Gold.PLP.Chemscore.Metal>
0.0000

> <Gold.Chemscore.Hbonds>
donor molecule, donor type, donor heavy atom, donor atom, acceptor molecule, acceptor atom, score
      P1  H  6896  6908       L1     5  0.96
      P1  H  6931  6943       L1     6  0.68
      P1  H  6934  6947       L1     6  0.18
      P1  H  7989  7998       L1    15  0.80

> <Gold.PLP.Chemscore.Internal.Correction>
0.0150

> <Gold.Rescore>
     Score         DG    S(hbond)    S(metal)    S(lipo)     H(rot)  DE(clash)    DE(int)     intcor
     15.21     -16.08       2.73        0.00      41.42       1.32       0.17       0.70       ----

> <Gold.Chemscore.Fitness>
15.2070

> <Gold.Chemscore.DG>
-16.0780

> <Gold.Chemscore.ZeroCoef>
-5.4800

> <Gold.Chemscore.Hbond>
2.7339

> <Gold.Chemscore.Metal>
0.0000

> <Gold.Chemscore.Lipo>
41.4207

> <Gold.Chemscore.Internal_Hbond>
0.0000

> <Gold.Chemscore.DEClash>
0.1739

> <Gold.Chemscore.DEInternal>
0.6971

> <Gold.Chemscore.Rot>
1.3201

> <Gold.Chemscore.Internal.Correction>
   9.000000E+99

> <Gold.Chemscore.Hbonds>
donor molecule, donor type, donor heavy atom, donor atom, acceptor molecule, acceptor atom, score
      P1  H  6896  6908       L1     5  0.91
      P1  H  6931  6943       L1     6  0.15
      P1  H  6934  6947       L1     6  0.10
      P1  H  7989  7998       L1    15  0.61

> <Gold.Chemscore.Hbond.Weighted>
-9.1311

> <Gold.Chemscore.Metal.Weighted>
-0.0000

> <Gold.Chemscore.Lipo.Weighted>
-4.8462

> <Gold.Chemscore.Internal_Hbond.Weighted>
0.0000

> <Gold.Chemscore.DEClash.Weighted>
0.1739

> <Gold.Chemscore.DEInternal.Weighted>
0.6971

> <Gold.Chemscore.Rot.Weighted>
3.3794

> <Gold.Chemscore.Internal.Correction.Weighted>
   9.000000E+99

> <Gold.Protein.RotatedTorsions>
[ 6907 6896 6895 6894 ] final  174.49 input  -60.11 | X-H torsion
[ 7974 7965 7964 7962 ] final  -54.88 input  175.53 | X-H torsion
[ 8008 7997 7996 7995 ] final   69.53 input   59.86 | X-H torsion
[ 10167 10162 10161 10158 ] final   -4.50 input  -65.29 | X-H torsion
[ 10718 10713 10712 10709 ] final  -61.77 input   66.30 | X-H torsion
[ 10763 10752 10751 10750 ] final  158.51 input  -60.55 | X-H torsion
[ 11005 11000 10999 10996 ] final   88.11 input  -57.11 | X-H torsion

> <Gold.Protein.ActiveResidues>
 VAL166  LYS551  ARG553  GLY616  TRP617  ASP618  TYR619  PRO620  LYS621  CYS622 
 ASP623  PHE694  ASN695  SER759  ASP760  ASP761  ALA762  ILE779  LEU786  VAL792 
 PHE793  MET794  SER795  GLU796  ALA797  LYS798  CYS799  TRP800  GLU811  SER814 

> <Gold.Protein.RotatedAtoms>
  151.7515  133.3327  159.3392 H   0  0  0  0  0  0  0  0  0  0  0  0  # atno 6907 bound_to 6896
  150.7533  134.6188  159.6134 H   0  0  0  0  0  0  0  0  0  0  0  0  # atno 6908 bound_to 6896
  152.3465  134.7066  160.0300 H   0  0  0  0  0  0  0  0  0  0  0  0  # atno 6909 bound_to 6896
  145.8806  140.8147  142.9842 H   0  0  0  0  0  0  0  0  0  0  0  0  # atno 7974 bound_to 7965
  155.7250  140.3492  155.5033 H   0  0  0  0  0  0  0  0  0  0  0  0  # atno 8008 bound_to 7997
  155.9235  140.1071  157.1210 H   0  0  0  0  0  0  0  0  0  0  0  0  # atno 8009 bound_to 7997
  154.4073  140.1245  156.4697 H   0  0  0  0  0  0  0  0  0  0  0  0  # atno 8010 bound_to 7997
  140.6930  143.6416  150.8430 H   0  0  0  0  0  0  0  0  0  0  0  0  # atno 10167 bound_to 10162
  156.0899  130.4202  150.1041 H   0  0  0  0  0  0  0  0  0  0  0  0  # atno 10718 bound_to 10713
  154.2172  135.2783  155.2937 H   0  0  0  0  0  0  0  0  0  0  0  0  # atno 10763 bound_to 10752
  154.5731  135.5612  153.7117 H   0  0  0  0  0  0  0  0  0  0  0  0  # atno 10764 bound_to 10752
  153.0050  135.6326  154.2312 H   0  0  0  0  0  0  0  0  0  0  0  0  # atno 10765 bound_to 10752
  139.8904  134.8466  156.2954 H   0  0  0  0  0  0  0  0  0  0  0  0  # atno 11005 bound_to 11000
  144.6727  140.1378  143.7439 LP  0  0  0  0  0  0  0  0  0  0  0  0  # atno 17320 bound_to 7965
  145.9028  139.2440  143.1483 LP  0  0  0  0  0  0  0  0  0  0  0  0  # atno 17321 bound_to 7965
  140.0131  143.5621  152.2831 LP  0  0  0  0  0  0  0  0  0  0  0  0  # atno 17342 bound_to 10162
  139.6352  144.7649  151.2452 LP  0  0  0  0  0  0  0  0  0  0  0  0  # atno 17343 bound_to 10162
  156.9053  130.9634  151.3570 LP  0  0  0  0  0  0  0  0  0  0  0  0  # atno 17370 bound_to 10713
  157.6045  130.8537  149.8854 LP  0  0  0  0  0  0  0  0  0  0  0  0  # atno 17371 bound_to 10713
  140.9949  133.7186  156.0870 LP  0  0  0  0  0  0  0  0  0  0  0  0  # atno 17394 bound_to 11000
  140.7576  134.3975  157.5531 LP  0  0  0  0  0  0  0  0  0  0  0  0  # atno 17395 bound_to 11000

$$$$
