AV-unprocessed.smi:67|AV-procd|sdf|631|dock2
  -GOLD-   2262016523D 1   1.00000     0.00000
 Structure written by MMmdl.
 49 51  0  0  0  0  0  0  0  0  3 V2000
  146.2381  141.1783  153.4185 O   0  0  0  0  0  0  0  0  0  0  0  0
  147.2955  140.2812  153.7124 C   0  0  1  0  0  0  0  0  0  0  0  0
  148.3407  141.0247  154.5771 C   0  0  0  0  0  0  0  0  0  0  0  0
  149.1213  140.1073  155.4521 N   0  3  2  0  0  0  0  0  0  0  0  0
  149.3384  140.6577  156.8151 C   0  0  0  0  0  0  0  0  0  0  0  0
  150.0148  139.6247  157.7340 C   0  0  0  0  0  0  0  0  0  0  0  0
  151.3373  139.1110  157.1429 C   0  0  2  0  0  0  0  0  0  0  0  0
  152.2612  140.1976  157.1422 O   0  0  0  0  0  0  0  0  0  0  0  0
  152.5222  140.8848  158.3103 C   0  0  0  0  0  0  0  0  0  0  0  0
  153.1962  140.3430  159.4337 C   0  0  0  0  0  0  0  0  0  0  0  0
  153.4081  141.1276  160.5832 C   0  0  0  0  0  0  0  0  0  0  0  0
  152.9534  142.4581  160.6273 C   0  0  0  0  0  0  0  0  0  0  0  0
  152.2844  143.0146  159.5169 C   0  0  0  0  0  0  0  0  0  0  0  0
  151.7784  144.4489  159.5515 C   0  0  0  0  0  0  0  0  0  0  0  0
  152.3124  145.1537  158.5534 F   0  0  0  0  0  0  0  0  0  0  0  0
  150.4529  144.4499  159.4169 F   0  0  0  0  0  0  0  0  0  0  0  0
  152.0932  145.0483  160.7005 F   0  0  0  0  0  0  0  0  0  0  0  0
  152.0700  142.2191  158.3710 C   0  0  0  0  0  0  0  0  0  0  0  0
  151.0858  138.5908  155.7131 C   0  0  0  0  0  0  0  0  0  0  0  0
  150.3979  139.6538  154.8402 C   0  0  0  0  0  0  0  0  0  0  0  0
  146.7276  138.9971  154.3263 C   0  0  0  0  0  0  0  0  0  0  0  0
  146.2202  138.2052  153.1208 C   0  0  0  0  0  0  0  0  0  0  0  0
  147.0973  138.5774  151.9951 N   0  3  0  0  0  0  0  0  0  0  0  0
  147.8724  139.7767  152.3769 C   0  0  0  0  0  0  0  0  0  0  0  0
  145.4980  140.6862  153.0948 H   0  0  0  0  0  0  0  0  0  0  0  0
  149.0167  141.6084  153.9502 H   0  0  0  0  0  0  0  0  0  0  0  0
  147.8107  141.7572  155.1884 H   0  0  0  0  0  0  0  0  0  0  0  0
  149.9440  141.5635  156.7521 H   0  0  0  0  0  0  0  0  0  0  0  0
  148.3809  140.9457  157.2513 H   0  0  0  0  0  0  0  0  0  0  0  0
  150.1906  140.0598  158.7184 H   0  0  0  0  0  0  0  0  0  0  0  0
  149.3374  138.7836  157.8888 H   0  0  0  0  0  0  0  0  0  0  0  0
  151.6930  138.3093  157.7905 H   0  0  0  0  0  0  0  0  0  0  0  0
  153.5622  139.3283  159.4439 H   0  0  0  0  0  0  0  0  0  0  0  0
  153.9202  140.7058  161.4356 H   0  0  0  0  0  0  0  0  0  0  0  0
  153.1191  143.0453  161.5185 H   0  0  0  0  0  0  0  0  0  0  0  0
  151.5491  142.6377  157.5222 H   0  0  0  0  0  0  0  0  0  0  0  0
  152.0159  138.2757  155.2413 H   0  0  0  0  0  0  0  0  0  0  0  0
  150.4560  137.7015  155.7594 H   0  0  0  0  0  0  0  0  0  0  0  0
  150.2161  139.2355  153.8517 H   0  0  0  0  0  0  0  0  0  0  0  0
  151.0610  140.5091  154.6998 H   0  0  0  0  0  0  0  0  0  0  0  0
  147.5270  138.4310  154.8066 H   0  0  0  0  0  0  0  0  0  0  0  0
  145.9512  139.1767  155.0714 H   0  0  0  0  0  0  0  0  0  0  0  0
  146.2224  137.1288  153.2939 H   0  0  0  0  0  0  0  0  0  0  0  0
  145.2003  138.5052  152.8769 H   0  0  0  0  0  0  0  0  0  0  0  0
  147.7357  137.8210  151.7933 H   0  0  0  0  0  0  0  0  0  0  0  0
  147.8593  140.5312  151.5891 H   0  0  0  0  0  0  0  0  0  0  0  0
  148.9088  139.4624  152.5072 H   0  0  0  0  0  0  0  0  0  0  0  0
  146.5328  138.7697  151.1795 H   0  0  0  0  0  0  0  0  0  0  0  0
  148.5463  139.2858  155.5762 H   0  0  0  0  0  0  0  0  0  0  0  0
  1  2  1  0  0  0  0
  1 25  1  0  0  0  0
  2 24  1  0  0  0  0
  2  3  1  0  0  0  0
  2 21  1  0  0  0  0
  3  4  1  0  0  0  0
  3 26  1  0  0  0  0
  3 27  1  0  0  0  0
  4 20  1  0  0  0  0
  4  5  1  0  0  0  0
  4 49  1  0  0  0  0
  5  6  1  0  0  0  0
  5 28  1  0  0  0  0
  5 29  1  0  0  0  0
  6  7  1  0  0  0  0
  6 30  1  0  0  0  0
  6 31  1  0  0  0  0
  7  8  1  0  0  0  0
  7 19  1  0  0  0  0
  7 32  1  0  0  0  0
  8  9  1  0  0  0  0
  9 18  1  0  0  0  0
  9 10  2  0  0  0  0
 10 11  1  0  0  0  0
 10 33  1  0  0  0  0
 11 12  2  0  0  0  0
 11 34  1  0  0  0  0
 12 13  1  0  0  0  0
 12 35  1  0  0  0  0
 13 14  1  0  0  0  0
 13 18  2  0  0  0  0
 14 15  1  0  0  0  0
 14 16  1  0  0  0  0
 14 17  1  0  0  0  0
 18 36  1  0  0  0  0
 19 20  1  0  0  0  0
 19 37  1  0  0  0  0
 19 38  1  0  0  0  0
 20 39  1  0  0  0  0
 20 40  1  0  0  0  0
 21 22  1  0  0  0  0
 21 41  1  0  0  0  0
 21 42  1  0  0  0  0
 22 23  1  0  0  0  0
 22 43  1  0  0  0  0
 22 44  1  0  0  0  0
 23 24  1  0  0  0  0
 23 45  1  0  0  0  0
 23 48  1  0  0  0  0
 24 46  1  0  0  0  0
 24 47  1  0  0  0  0
M  CHG  1   4   1
M  CHG  1  23   1
M  END
> <s_m_source_file>
AV-unprocessed.smi

> <i_m_source_file_index>
67

> <i_lp_mmshare_version>
43012

> <i_f3d_flags>
0

> <s_epik_input>
W0NIMl0xW05IXVtDSDJdW0NIMl1bQ0BAXTEoW09IXSlbQ0gyXU4yW0NIMl1bQ0gyXVtDSF0oW0NIMl1bQ0gyXTIpT2MzW2NIXVtjSF1bY0hdYyhDKEYpKEYpRilbY0hdMw==

> <s_epik_cmdline>
J2VwaWtfcHl0aG9uJywgJy1waCcsICc3LjAnLCAnLXRuJywgJzgnLCAnLW1hJywgJzIwMCcsICctbWV0YWxfYmluZGluZycsICctaW1hZScsICc8aW5maWxlLm1hZT4nLCAnLW9tYWUnLCAnPG91dGZpbGUubWFlPic=

> <r_lp_tautomer_probability>
1

> <r_epik_Ionization_Penalty>
0.0989853

> <r_epik_Ionization_Penalty_Charging>
0.0989662

> <r_epik_Ionization_Penalty_Neutral>
1.91014e-05

> <r_epik_State_Penalty>
0.0852826

> <r_epik_Charging_Adjusted_Penalty>
0.184249

> <i_epik_Tot_Q>
2

> <i_epik_Tot_abs_Q>
2

> <r_epik_Metal_State_Penalty>
0.0849414

> <b_epik_Metal_Only>
0

> <s_lp_Force_Field>
OPLS_2005

> <r_lp_Energy>
57.962

> <b_lp_Chiralities_Consistent>
1

> <s_lp_Variant>
AV-unprocessed.smi:67-3

> <Gold.Version>
5.8.1

> <Gold.Id.Protein>
6NUR|6NUR_protein|mol2

> <Gold.PLP.Fitness>
53.8795

> <Gold.PLP.PLP>
-44.8798

> <Gold.PLP.part.hbond>
-3.7957

> <Gold.PLP.part.metal>
0.0000

> <Gold.PLP.part.buried>
-0.3309

> <Gold.PLP.part.nonpolar>
-41.1451

> <Gold.PLP.part.repulsive>
0.1428

> <Gold.PLP.ligand.clash>
0.7131

> <Gold.PLP.ligand.torsion>
1.1051

> <Gold.PLP.Chemscore.Hbond>
3.5344

> <Gold.PLP.Chemscore.CHOScore>
0.0000

> <Gold.PLP.Chemscore.Metal>
0.0000

> <Gold.Chemscore.Hbonds>
donor molecule, donor type, donor heavy atom, donor atom, acceptor molecule, acceptor atom, score
      L1  H     1    25       P1 10175  1.00
      L1  H    23    45       P1  7948  2.00
      P1  H  7997  8009       L1     8  0.49

> <Gold.PLP.Chemscore.Internal.Correction>
1.3198

> <Gold.Rescore>
     Score         DG    S(hbond)    S(metal)    S(lipo)     H(rot)  DE(clash)    DE(int)     intcor
     17.46     -20.62       1.86        0.00     125.13       2.24       2.10       1.06       ----

> <Gold.Chemscore.Fitness>
17.4582

> <Gold.Chemscore.DG>
-20.6184

> <Gold.Chemscore.ZeroCoef>
-5.4800

> <Gold.Chemscore.Hbond>
1.8625

> <Gold.Chemscore.Metal>
0.0000

> <Gold.Chemscore.Lipo>
125.1265

> <Gold.Chemscore.Internal_Hbond>
0.0000

> <Gold.Chemscore.DEClash>
2.0980

> <Gold.Chemscore.DEInternal>
1.0622

> <Gold.Chemscore.Rot>
2.2352

> <Gold.Chemscore.Internal.Correction>
   9.000000E+99

> <Gold.Chemscore.Hbonds>
donor molecule, donor type, donor heavy atom, donor atom, acceptor molecule, acceptor atom, score
      L1  H     1    25       P1 10175  0.72
      L1  H    23    45       P1  7948  0.98
      P1  H  7997  8009       L1     8  0.07

> <Gold.Chemscore.Hbond.Weighted>
-6.2208

> <Gold.Chemscore.Metal.Weighted>
-0.0000

> <Gold.Chemscore.Lipo.Weighted>
-14.6398

> <Gold.Chemscore.Internal_Hbond.Weighted>
0.0000

> <Gold.Chemscore.DEClash.Weighted>
2.0980

> <Gold.Chemscore.DEInternal.Weighted>
1.0622

> <Gold.Chemscore.Rot.Weighted>
5.7221

> <Gold.Chemscore.Internal.Correction.Weighted>
   9.000000E+99

> <Gold.Protein.RotatedTorsions>
[ 6907 6896 6895 6894 ] final  111.89 input  -60.11 | X-H torsion
[ 7974 7965 7964 7962 ] final  175.80 input  175.53 | X-H torsion
[ 8008 7997 7996 7995 ] final -168.50 input   59.86 | X-H torsion
[ 10167 10162 10161 10158 ] final  157.75 input  -65.29 | X-H torsion
[ 10718 10713 10712 10709 ] final  -38.44 input   66.30 | X-H torsion
[ 10763 10752 10751 10750 ] final   76.04 input  -60.55 | X-H torsion
[ 11005 11000 10999 10996 ] final -127.54 input  -57.11 | X-H torsion

> <Gold.Protein.ActiveResidues>
 VAL166  LYS551  ARG553  GLY616  TRP617  ASP618  TYR619  PRO620  LYS621  CYS622 
 ASP623  PHE694  ASN695  SER759  ASP760  ASP761  ALA762  ILE779  LEU786  VAL792 
 PHE793  MET794  SER795  GLU796  ALA797  LYS798  CYS799  TRP800  GLU811  SER814 

> <Gold.Protein.RotatedAtoms>
  152.4946  133.8594  159.7241 H   0  0  0  0  0  0  0  0  0  0  0  0  # atno 6907 bound_to 6896
  150.9109  133.6989  159.2861 H   0  0  0  0  0  0  0  0  0  0  0  0  # atno 6908 bound_to 6896
  151.4399  135.1023  159.9719 H   0  0  0  0  0  0  0  0  0  0  0  0  # atno 6909 bound_to 6896
  144.7195  140.0001  143.6440 H   0  0  0  0  0  0  0  0  0  0  0  0  # atno 7974 bound_to 7965
  155.8923  140.1027  157.1409 H   0  0  0  0  0  0  0  0  0  0  0  0  # atno 8008 bound_to 7997
  154.4016  140.1308  156.4395 H   0  0  0  0  0  0  0  0  0  0  0  0  # atno 8009 bound_to 7997
  155.7519  140.3465  155.5157 H   0  0  0  0  0  0  0  0  0  0  0  0  # atno 8010 bound_to 7997
  139.4824  144.4888  151.8338 H   0  0  0  0  0  0  0  0  0  0  0  0  # atno 10167 bound_to 10162
  156.3037  130.4243  149.8118 H   0  0  0  0  0  0  0  0  0  0  0  0  # atno 10718 bound_to 10713
  153.0697  135.4966  154.8277 H   0  0  0  0  0  0  0  0  0  0  0  0  # atno 10763 bound_to 10752
  154.7004  135.3000  154.9351 H   0  0  0  0  0  0  0  0  0  0  0  0  # atno 10764 bound_to 10752
  154.0077  135.6758  153.4816 H   0  0  0  0  0  0  0  0  0  0  0  0  # atno 10765 bound_to 10752
  140.9591  134.0961  157.3987 H   0  0  0  0  0  0  0  0  0  0  0  0  # atno 11005 bound_to 11000
  146.0342  139.3362  143.0737 LP  0  0  0  0  0  0  0  0  0  0  0  0  # atno 17320 bound_to 7965
  145.8415  140.9578  143.0797 LP  0  0  0  0  0  0  0  0  0  0  0  0  # atno 17321 bound_to 7965
  140.4371  144.2037  150.5890 LP  0  0  0  0  0  0  0  0  0  0  0  0  # atno 17342 bound_to 10162
  140.4721  143.2409  151.9074 LP  0  0  0  0  0  0  0  0  0  0  0  0  # atno 17343 bound_to 10162
  156.5487  130.8332  151.3292 LP  0  0  0  0  0  0  0  0  0  0  0  0  # atno 17370 bound_to 10713
  157.7374  130.9795  150.2192 LP  0  0  0  0  0  0  0  0  0  0  0  0  # atno 17371 bound_to 10713
  139.8872  135.0088  156.6545 LP  0  0  0  0  0  0  0  0  0  0  0  0  # atno 17394 bound_to 11000
  140.7494  133.8910  155.8335 LP  0  0  0  0  0  0  0  0  0  0  0  0  # atno 17395 bound_to 11000

$$$$
