AV-unprocessed.smi:150|AV-procd|sdf|1242|dock8
  -GOLD-   2262018463D 1   1.00000     0.00000
 Structure written by MMmdl.
 55 57  0  0  0  0  0  0  0  0  1 V2000
  151.3825  139.7178  155.3179 C   0  0  0  0  0  0  0  0  0  0  0  0
  150.3306  140.6995  155.8632 C   0  0  0  0  0  0  0  0  0  0  0  0
  149.3120  141.0460  154.7661 C   0  0  0  0  0  0  0  0  0  0  0  0
  150.9643  141.9877  156.4376 C   0  0  0  0  0  0  0  0  0  0  0  0
  151.0746  142.0522  157.9848 C   0  0  2  0  0  0  0  0  0  0  0  0
  151.2052  143.4976  158.5269 C   0  0  0  0  0  0  0  0  0  0  0  0
  149.9839  144.1867  158.3614 O   0  0  0  0  0  0  0  0  0  0  0  0
  152.1211  141.1530  158.5002 N   0  0  0  0  0  0  0  0  0  0  0  0
  153.1869  141.7456  159.3029 C   0  0  0  0  0  0  0  0  0  0  0  0
  151.8998  139.8354  158.7585 C   0  0  0  0  0  0  0  0  0  0  0  0
  152.9225  139.0314  159.1518 N   0  0  0  0  0  0  0  0  0  0  0  0
  152.7140  137.7336  159.3902 C   0  0  0  0  0  0  0  0  0  0  0  0
  151.5791  137.0397  159.2933 N   0  0  0  0  0  0  0  0  0  0  0  0
  150.5473  137.8358  158.8925 C   0  0  0  0  0  0  0  0  0  0  0  0
  150.6189  139.2295  158.6083 C   0  0  0  0  0  0  0  0  0  0  0  0
  149.3622  139.7001  158.2443 N   0  0  0  0  0  0  0  0  0  0  0  0
  148.5954  138.6464  158.3048 C   0  0  0  0  0  0  0  0  0  0  0  0
  149.2271  137.4812  158.6759 N   0  0  0  0  0  0  0  0  0  0  0  0
  148.6159  136.1686  158.8213 C   0  0  0  0  0  0  0  0  0  0  0  0
  147.5843  136.0737  159.9734 C   0  0  0  0  0  0  0  0  0  0  0  0
  147.1574  134.7255  160.0639 O   0  0  0  0  0  0  0  0  0  0  0  0
  148.2418  136.4668  161.3120 C   0  0  0  0  0  0  0  0  0  0  0  0
  147.2192  136.5617  162.4581 C   0  0  0  0  0  0  0  0  0  0  0  0
  146.1789  137.4659  162.1073 O   0  0  0  0  0  0  0  0  0  0  0  0
  145.4333  137.0312  160.9770 C   0  0  0  0  0  0  0  0  0  0  0  0
  146.3426  136.9617  159.7372 C   0  0  0  0  0  0  0  0  0  0  0  0
  152.0053  140.1870  154.5555 H   0  0  0  0  0  0  0  0  0  0  0  0
  150.9070  138.8469  154.8659 H   0  0  0  0  0  0  0  0  0  0  0  0
  152.0391  139.3472  156.1041 H   0  0  0  0  0  0  0  0  0  0  0  0
  149.7784  140.1906  156.6520 H   0  0  0  0  0  0  0  0  0  0  0  0
  149.7895  141.5536  153.9272 H   0  0  0  0  0  0  0  0  0  0  0  0
  148.5276  141.7001  155.1479 H   0  0  0  0  0  0  0  0  0  0  0  0
  148.8283  140.1483  154.3802 H   0  0  0  0  0  0  0  0  0  0  0  0
  151.9540  142.1022  155.9935 H   0  0  0  0  0  0  0  0  0  0  0  0
  150.3880  142.8435  156.0865 H   0  0  0  0  0  0  0  0  0  0  0  0
  150.1431  141.6553  158.3868 H   0  0  0  0  0  0  0  0  0  0  0  0
  151.5175  143.5431  159.5687 H   0  0  0  0  0  0  0  0  0  0  0  0
  151.9519  144.0544  157.9635 H   0  0  0  0  0  0  0  0  0  0  0  0
  149.3902  143.9130  159.0438 H   0  0  0  0  0  0  0  0  0  0  0  0
  154.1527  141.5961  158.8206 H   0  0  0  0  0  0  0  0  0  0  0  0
  153.2263  141.3039  160.2997 H   0  0  0  0  0  0  0  0  0  0  0  0
  153.0418  142.8194  159.4232 H   0  0  0  0  0  0  0  0  0  0  0  0
  153.5814  137.1704  159.7015 H   0  0  0  0  0  0  0  0  0  0  0  0
  147.5412  138.6892  158.0727 H   0  0  0  0  0  0  0  0  0  0  0  0
  148.1509  135.8988  157.8717 H   0  0  0  0  0  0  0  0  0  0  0  0
  149.4173  135.4458  158.9807 H   0  0  0  0  0  0  0  0  0  0  0  0
  146.3693  134.6238  159.5525 H   0  0  0  0  0  0  0  0  0  0  0  0
  149.0320  135.7612  161.5724 H   0  0  0  0  0  0  0  0  0  0  0  0
  148.7255  137.4386  161.2038 H   0  0  0  0  0  0  0  0  0  0  0  0
  146.8013  135.5826  162.6973 H   0  0  0  0  0  0  0  0  0  0  0  0
  147.7073  136.9250  163.3625 H   0  0  0  0  0  0  0  0  0  0  0  0
  144.9719  136.0639  161.1813 H   0  0  0  0  0  0  0  0  0  0  0  0
  144.6204  137.7359  160.8022 H   0  0  0  0  0  0  0  0  0  0  0  0
  146.6670  137.9730  159.4885 H   0  0  0  0  0  0  0  0  0  0  0  0
  145.7654  136.6051  158.8834 H   0  0  0  0  0  0  0  0  0  0  0  0
  1  2  1  0  0  0  0
  1 27  1  0  0  0  0
  1 28  1  0  0  0  0
  1 29  1  0  0  0  0
  2  3  1  0  0  0  0
  2  4  1  0  0  0  0
  2 30  1  0  0  0  0
  3 31  1  0  0  0  0
  3 32  1  0  0  0  0
  3 33  1  0  0  0  0
  4  5  1  0  0  0  0
  4 34  1  0  0  0  0
  4 35  1  0  0  0  0
  5  6  1  0  0  0  0
  5  8  1  0  0  0  0
  5 36  1  0  0  0  0
  6  7  1  0  0  0  0
  6 37  1  0  0  0  0
  6 38  1  0  0  0  0
  7 39  1  0  0  0  0
  8  9  1  0  0  0  0
  8 10  1  0  0  0  0
  9 40  1  0  0  0  0
  9 41  1  0  0  0  0
  9 42  1  0  0  0  0
 10 15  1  0  0  0  0
 10 11  2  0  0  0  0
 11 12  1  0  0  0  0
 12 13  2  0  0  0  0
 12 43  1  0  0  0  0
 13 14  1  0  0  0  0
 14 18  1  0  0  0  0
 14 15  2  0  0  0  0
 15 16  1  0  0  0  0
 16 17  2  0  0  0  0
 17 18  1  0  0  0  0
 17 44  1  0  0  0  0
 18 19  1  0  0  0  0
 19 20  1  0  0  0  0
 19 45  1  0  0  0  0
 19 46  1  0  0  0  0
 20 26  1  0  0  0  0
 20 21  1  0  0  0  0
 20 22  1  0  0  0  0
 21 47  1  0  0  0  0
 22 23  1  0  0  0  0
 22 48  1  0  0  0  0
 22 49  1  0  0  0  0
 23 24  1  0  0  0  0
 23 50  1  0  0  0  0
 23 51  1  0  0  0  0
 24 25  1  0  0  0  0
 25 26  1  0  0  0  0
 25 52  1  0  0  0  0
 25 53  1  0  0  0  0
 26 54  1  0  0  0  0
 26 55  1  0  0  0  0
M  END
> <s_m_source_file>
AV-unprocessed.smi

> <i_m_source_file_index>
150

> <i_lp_mmshare_version>
43012

> <i_f3d_flags>
0

> <s_epik_input>
W0NIM11bQ0hdKFtDSDNdKVtDSDJdW0NASF0oW0NIMl1bT0hdKU4oW0NIM10pYyhuW2NIXW4xKWMoYzEyKW5bY0hdbjJbQ0gyXUMzKFtPSF0pW0NIMl1bQ0gyXU9bQ0gyXVtDSDJdMw==

> <s_epik_cmdline>
J2VwaWtfcHl0aG9uJywgJy1waCcsICc3LjAnLCAnLXRuJywgJzgnLCAnLW1hJywgJzIwMCcsICctbWV0YWxfYmluZGluZycsICctaW1hZScsICc8aW5maWxlLm1hZT4nLCAnLW9tYWUnLCAnPG91dGZpbGUubWFlPic=

> <r_lp_tautomer_probability>
1

> <r_epik_Ionization_Penalty>
0.00548416

> <r_epik_Ionization_Penalty_Charging>
0

> <r_epik_Ionization_Penalty_Neutral>
0.00548416

> <r_epik_State_Penalty>
0.0038135

> <r_epik_Charging_Adjusted_Penalty>
0.0038135

> <i_epik_Tot_Q>
0

> <i_epik_Tot_abs_Q>
0

> <r_epik_Metal_State_Penalty>
-0

> <b_epik_Metal_Only>
0

> <s_lp_Force_Field>
OPLS_2005

> <r_lp_Energy>
31.7552

> <b_lp_Chiralities_Consistent>
1

> <s_lp_Variant>
AV-unprocessed.smi:150-1

> <Gold.Version>
5.8.1

> <Gold.Id.Protein>
6NUR|6NUR_protein|mol2

> <Gold.PLP.Fitness>
45.5444

> <Gold.PLP.PLP>
-42.5754

> <Gold.PLP.part.hbond>
-4.0000

> <Gold.PLP.part.metal>
0.0000

> <Gold.PLP.part.buried>
-3.6532

> <Gold.PLP.part.nonpolar>
-34.0042

> <Gold.PLP.part.repulsive>
0.0000

> <Gold.PLP.ligand.clash>
0.0000

> <Gold.PLP.ligand.torsion>
1.4940

> <Gold.PLP.Chemscore.Hbond>
1.6091

> <Gold.PLP.Chemscore.CHOScore>
0.0000

> <Gold.PLP.Chemscore.Metal>
0.0000

> <Gold.Chemscore.Hbonds>
donor molecule, donor type, donor heavy atom, donor atom, acceptor molecule, acceptor atom, score
      P1  H  6896  6907       L1    13  1.00
      P1  H  6934  6947       L1    24  0.31

> <Gold.PLP.Chemscore.Internal.Correction>
1.1299

> <Gold.Rescore>
     Score         DG    S(hbond)    S(metal)    S(lipo)     H(rot)  DE(clash)    DE(int)     intcor
      6.42     -10.73       0.96        0.00      91.90       3.40       0.10       4.22       ----

> <Gold.Chemscore.Fitness>
6.4230

> <Gold.Chemscore.DG>
-10.7347

> <Gold.Chemscore.ZeroCoef>
-5.4800

> <Gold.Chemscore.Hbond>
0.9595

> <Gold.Chemscore.Metal>
0.0000

> <Gold.Chemscore.Lipo>
91.9041

> <Gold.Chemscore.Internal_Hbond>
0.0000

> <Gold.Chemscore.DEClash>
0.0959

> <Gold.Chemscore.DEInternal>
4.2158

> <Gold.Chemscore.Rot>
3.3995

> <Gold.Chemscore.Internal.Correction>
   9.000000E+99

> <Gold.Chemscore.Hbonds>
donor molecule, donor type, donor heavy atom, donor atom, acceptor molecule, acceptor atom, score
      P1  H  6896  6907       L1    13  0.90
      P1  H  6934  6947       L1    24  0.01

> <Gold.Chemscore.Hbond.Weighted>
-3.2047

> <Gold.Chemscore.Metal.Weighted>
-0.0000

> <Gold.Chemscore.Lipo.Weighted>
-10.7528

> <Gold.Chemscore.Internal_Hbond.Weighted>
0.0000

> <Gold.Chemscore.DEClash.Weighted>
0.0959

> <Gold.Chemscore.DEInternal.Weighted>
4.2158

> <Gold.Chemscore.Rot.Weighted>
8.7028

> <Gold.Chemscore.Internal.Correction.Weighted>
   9.000000E+99

> <Gold.Protein.RotatedTorsions>
[ 6907 6896 6895 6894 ] final  -17.95 input  -60.11 | X-H torsion
[ 7974 7965 7964 7962 ] final  115.85 input  175.53 | X-H torsion
[ 8008 7997 7996 7995 ] final   35.19 input   59.86 | X-H torsion
[ 10167 10162 10161 10158 ] final   18.50 input  -65.29 | X-H torsion
[ 10718 10713 10712 10709 ] final -171.65 input   66.30 | X-H torsion
[ 10763 10752 10751 10750 ] final   18.31 input  -60.55 | X-H torsion
[ 11005 11000 10999 10996 ] final -142.76 input  -57.11 | X-H torsion

> <Gold.Protein.ActiveResidues>
 VAL166  LYS551  ARG553  GLY616  TRP617  ASP618  TYR619  PRO620  LYS621  CYS622 
 ASP623  PHE694  ASN695  SER759  ASP760  ASP761  ALA762  ILE779  LEU786  VAL792 
 PHE793  MET794  SER795  GLU796  ALA797  LYS798  CYS799  TRP800  GLU811  SER814 

> <Gold.Protein.RotatedAtoms>
  151.2855  135.0726  159.9184 H   0  0  0  0  0  0  0  0  0  0  0  0  # atno 6907 bound_to 6896
  152.5326  133.9986  159.7894 H   0  0  0  0  0  0  0  0  0  0  0  0  # atno 6908 bound_to 6896
  151.0247  133.5794  159.2698 H   0  0  0  0  0  0  0  0  0  0  0  0  # atno 6909 bound_to 6896
  145.1869  139.3020  143.4388 H   0  0  0  0  0  0  0  0  0  0  0  0  # atno 7974 bound_to 7965
  155.1670  140.3288  155.4400 H   0  0  0  0  0  0  0  0  0  0  0  0  # atno 8008 bound_to 7997
  156.2523  140.1950  156.6726 H   0  0  0  0  0  0  0  0  0  0  0  0  # atno 8009 bound_to 7997
  154.6364  140.0576  156.9780 H   0  0  0  0  0  0  0  0  0  0  0  0  # atno 8010 bound_to 7997
  140.5648  143.9270  150.6669 H   0  0  0  0  0  0  0  0  0  0  0  0  # atno 10167 bound_to 10162
  156.7440  130.9353  151.3111 H   0  0  0  0  0  0  0  0  0  0  0  0  # atno 10718 bound_to 10713
  153.1261  135.6730  153.9255 H   0  0  0  0  0  0  0  0  0  0  0  0  # atno 10763 bound_to 10752
  153.8756  135.3064  155.3445 H   0  0  0  0  0  0  0  0  0  0  0  0  # atno 10764 bound_to 10752
  154.7666  135.4961  153.9646 H   0  0  0  0  0  0  0  0  0  0  0  0  # atno 10765 bound_to 10752
  140.8193  134.2650  157.4907 H   0  0  0  0  0  0  0  0  0  0  0  0  # atno 11005 bound_to 11000
  146.3443  140.2068  142.8589 LP  0  0  0  0  0  0  0  0  0  0  0  0  # atno 17320 bound_to 7965
  145.0080  140.8689  143.5241 LP  0  0  0  0  0  0  0  0  0  0  0  0  # atno 17321 bound_to 7965
  140.2730  143.3442  152.1220 LP  0  0  0  0  0  0  0  0  0  0  0  0  # atno 17342 bound_to 10162
  139.5088  144.6855  151.5897 LP  0  0  0  0  0  0  0  0  0  0  0  0  # atno 17343 bound_to 10162
  157.6806  130.9136  150.0258 LP  0  0  0  0  0  0  0  0  0  0  0  0  # atno 17370 bound_to 10713
  156.1446  130.3642  149.9530 LP  0  0  0  0  0  0  0  0  0  0  0  0  # atno 17371 bound_to 10713
  139.8709  134.9526  156.4121 LP  0  0  0  0  0  0  0  0  0  0  0  0  # atno 17394 bound_to 11000
  140.9115  133.7708  155.9798 LP  0  0  0  0  0  0  0  0  0  0  0  0  # atno 17395 bound_to 11000

$$$$
