AV-unprocessed.smi:3343|AV-procd|sdf|12894|dock8
  -GOLD-   2272019303D 1   1.00000     0.00000
 Structure written by MMmdl.
 41 42  0  0  0  0  0  0  0  0  1 V2000
  155.2528  140.7578  160.3888 C   0  0  0  0  0  0  0  0  0  0  0  0
  154.1942  141.6888  159.7632 C   0  0  1  0  0  0  0  0  0  0  0  0
  153.2369  140.9374  158.8260 C   0  0  0  0  0  0  0  0  0  0  0  0
  153.5050  139.7988  158.4412 O   0  0  0  0  0  0  0  0  0  0  0  0
  152.1210  141.5923  158.4669 N   0  0  0  0  0  0  0  0  0  0  0  0
  151.0935  141.0815  157.5654 C   0  0  0  0  0  0  0  0  0  0  0  0
  151.6631  140.7933  156.1624 C   0  0  0  0  0  0  0  0  0  0  0  0
  150.6752  140.4630  155.1353 N   0  0  0  0  0  0  0  0  0  0  0  0
  150.2558  139.0590  155.1861 C   0  0  0  0  0  0  0  0  0  0  0  0
  149.2269  138.7387  154.0859 C   0  0  0  0  0  0  0  0  0  0  0  0
  148.0408  139.5848  154.2015 N   0  0  0  0  0  0  0  0  0  0  0  0
  147.0657  139.2818  153.1654 C   0  0  0  0  0  0  0  0  0  0  0  0
  148.4530  140.9861  154.1579 C   0  0  0  0  0  0  0  0  0  0  0  0
  149.4833  141.3026  155.2582 C   0  0  0  0  0  0  0  0  0  0  0  0
  153.4380  142.4260  160.7683 N   0  0  0  0  0  0  0  0  0  0  0  0
  153.4938  142.3602  162.1004 C   0  0  0  0  0  0  0  0  0  0  0  0
  152.6910  143.2158  162.7172 N   0  0  0  0  0  0  0  0  0  0  0  0
  152.1385  143.8329  161.6310 C   0  0  0  0  0  0  0  0  0  0  0  0
  152.5589  143.4060  160.4406 N   0  0  0  0  0  0  0  0  0  0  0  0
  155.8385  140.2570  159.6171 H   0  0  0  0  0  0  0  0  0  0  0  0
  154.8045  139.9849  161.0144 H   0  0  0  0  0  0  0  0  0  0  0  0
  155.9478  141.3232  161.0104 H   0  0  0  0  0  0  0  0  0  0  0  0
  154.7316  142.4268  159.1648 H   0  0  0  0  0  0  0  0  0  0  0  0
  151.9825  142.5241  158.8296 H   0  0  0  0  0  0  0  0  0  0  0  0
  150.5876  140.2118  157.9860 H   0  0  0  0  0  0  0  0  0  0  0  0
  150.3277  141.8527  157.4818 H   0  0  0  0  0  0  0  0  0  0  0  0
  152.2531  141.6502  155.8342 H   0  0  0  0  0  0  0  0  0  0  0  0
  152.3700  139.9677  156.2553 H   0  0  0  0  0  0  0  0  0  0  0  0
  151.1137  138.4005  155.0577 H   0  0  0  0  0  0  0  0  0  0  0  0
  149.8307  138.8298  156.1646 H   0  0  0  0  0  0  0  0  0  0  0  0
  149.6883  138.8715  153.1058 H   0  0  0  0  0  0  0  0  0  0  0  0
  148.9389  137.6891  154.1556 H   0  0  0  0  0  0  0  0  0  0  0  0
  146.1770  139.9035  153.2778 H   0  0  0  0  0  0  0  0  0  0  0  0
  146.7515  138.2393  153.2247 H   0  0  0  0  0  0  0  0  0  0  0  0
  147.4793  139.4566  152.1713 H   0  0  0  0  0  0  0  0  0  0  0  0
  148.8786  141.2210  153.1808 H   0  0  0  0  0  0  0  0  0  0  0  0
  147.5819  141.6304  154.2824 H   0  0  0  0  0  0  0  0  0  0  0  0
  149.0266  141.1640  156.2396 H   0  0  0  0  0  0  0  0  0  0  0  0
  149.7645  142.3542  155.1908 H   0  0  0  0  0  0  0  0  0  0  0  0
  154.1380  141.6740  162.6306 H   0  0  0  0  0  0  0  0  0  0  0  0
  151.4092  144.6244  161.7200 H   0  0  0  0  0  0  0  0  0  0  0  0
  1  2  1  0  0  0  0
  1 20  1  0  0  0  0
  1 21  1  0  0  0  0
  1 22  1  0  0  0  0
  2  3  1  0  0  0  0
  2 15  1  0  0  0  0
  2 23  1  0  0  0  0
  3  4  2  0  0  0  0
  3  5  1  0  0  0  0
  5  6  1  0  0  0  0
  5 24  1  0  0  0  0
  6  7  1  0  0  0  0
  6 25  1  0  0  0  0
  6 26  1  0  0  0  0
  7  8  1  0  0  0  0
  7 27  1  0  0  0  0
  7 28  1  0  0  0  0
  8 14  1  0  0  0  0
  8  9  1  0  0  0  0
  9 10  1  0  0  0  0
  9 29  1  0  0  0  0
  9 30  1  0  0  0  0
 10 11  1  0  0  0  0
 10 31  1  0  0  0  0
 10 32  1  0  0  0  0
 11 12  1  0  0  0  0
 11 13  1  0  0  0  0
 12 33  1  0  0  0  0
 12 34  1  0  0  0  0
 12 35  1  0  0  0  0
 13 14  1  0  0  0  0
 13 36  1  0  0  0  0
 13 37  1  0  0  0  0
 14 38  1  0  0  0  0
 14 39  1  0  0  0  0
 15 19  1  0  0  0  0
 15 16  1  0  0  0  0
 16 17  2  0  0  0  0
 16 40  1  0  0  0  0
 17 18  1  0  0  0  0
 18 19  2  0  0  0  0
 18 41  1  0  0  0  0
M  END
> <s_m_source_file>
AV-unprocessed.smi

> <i_m_source_file_index>
3343

> <i_lp_mmshare_version>
43012

> <i_f3d_flags>
0

> <s_epik_input>
bjFbY0hdbltjSF1uMVtDQEhdKFtDSDNdKUMoPU8pW05IXVtDSDJdW0NIMl1OMltDSDJdW0NIMl1OKFtDSDNdKVtDSDJdW0NIMl0y

> <s_epik_cmdline>
J2VwaWtfcHl0aG9uJywgJy1waCcsICc3LjAnLCAnLXRuJywgJzgnLCAnLW1hJywgJzIwMCcsICctbWV0YWxfYmluZGluZycsICctaW1hZScsICc8aW5maWxlLm1hZT4nLCAnLW9tYWUnLCAnPG91dGZpbGUubWFlPic=

> <r_lp_tautomer_probability>
1

> <r_epik_Ionization_Penalty>
1.97295

> <r_epik_Ionization_Penalty_Charging>
0

> <r_epik_Ionization_Penalty_Neutral>
1.97295

> <r_epik_State_Penalty>
1.8027

> <r_epik_Charging_Adjusted_Penalty>
1.8027

> <i_epik_Tot_Q>
0

> <i_epik_Tot_abs_Q>
0

> <r_epik_Metal_State_Penalty>
1.8027

> <b_epik_Metal_Only>
0

> <s_lp_Force_Field>
OPLS_2005

> <r_lp_Energy>
40.9653

> <b_lp_Chiralities_Consistent>
1

> <s_lp_Variant>
AV-unprocessed.smi:3343-4

> <Gold.Version>
5.8.1

> <Gold.Id.Protein>
6NUR|6NUR_protein|mol2

> <Gold.PLP.Fitness>
43.5523

> <Gold.PLP.PLP>
-39.1359

> <Gold.PLP.part.hbond>
-2.0000

> <Gold.PLP.part.metal>
0.0000

> <Gold.PLP.part.buried>
-6.2700

> <Gold.PLP.part.nonpolar>
-31.3963

> <Gold.PLP.part.repulsive>
0.9415

> <Gold.PLP.ligand.clash>
0.0000

> <Gold.PLP.ligand.torsion>
0.7017

> <Gold.PLP.Chemscore.Hbond>
1.9000

> <Gold.PLP.Chemscore.CHOScore>
0.0000

> <Gold.PLP.Chemscore.Metal>
0.0000

> <Gold.Chemscore.Hbonds>
donor molecule, donor type, donor heavy atom, donor atom, acceptor molecule, acceptor atom, score
      P1  H  7989  7998       L1     8  1.00
      P1  H  7997  8009       L1     4  1.00

> <Gold.PLP.Chemscore.Internal.Correction>
0.1197

> <Gold.Rescore>
     Score         DG    S(hbond)    S(metal)    S(lipo)     H(rot)  DE(clash)    DE(int)     intcor
      6.95      -9.15       0.76        0.00      65.75       2.56       0.17       2.02       ----

> <Gold.Chemscore.Fitness>
6.9539

> <Gold.Chemscore.DG>
-9.1500

> <Gold.Chemscore.ZeroCoef>
-5.4800

> <Gold.Chemscore.Hbond>
0.7558

> <Gold.Chemscore.Metal>
0.0000

> <Gold.Chemscore.Lipo>
65.7536

> <Gold.Chemscore.Internal_Hbond>
0.0000

> <Gold.Chemscore.DEClash>
0.1748

> <Gold.Chemscore.DEInternal>
2.0214

> <Gold.Chemscore.Rot>
2.5577

> <Gold.Chemscore.Internal.Correction>
   9.000000E+99

> <Gold.Chemscore.Hbonds>
donor molecule, donor type, donor heavy atom, donor atom, acceptor molecule, acceptor atom, score
      P1  H  7989  7998       L1     8  0.20
      P1  H  7997  8009       L1     4  0.45

> <Gold.Chemscore.Hbond.Weighted>
-2.5245

> <Gold.Chemscore.Metal.Weighted>
-0.0000

> <Gold.Chemscore.Lipo.Weighted>
-7.6932

> <Gold.Chemscore.Internal_Hbond.Weighted>
0.0000

> <Gold.Chemscore.DEClash.Weighted>
0.1748

> <Gold.Chemscore.DEInternal.Weighted>
2.0214

> <Gold.Chemscore.Rot.Weighted>
6.5477

> <Gold.Chemscore.Internal.Correction.Weighted>
   9.000000E+99

> <Gold.Protein.RotatedTorsions>
[ 6907 6896 6895 6894 ] final -129.64 input  -60.11 | X-H torsion
[ 7974 7965 7964 7962 ] final   70.03 input  175.53 | X-H torsion
[ 8008 7997 7996 7995 ] final  149.00 input   59.86 | X-H torsion
[ 10167 10162 10161 10158 ] final   48.90 input  -65.29 | X-H torsion
[ 10718 10713 10712 10709 ] final  -50.31 input   66.30 | X-H torsion
[ 10763 10752 10751 10750 ] final  117.93 input  -60.55 | X-H torsion
[ 11005 11000 10999 10996 ] final  132.89 input  -57.11 | X-H torsion

> <Gold.Protein.ActiveResidues>
 VAL166  LYS551  ARG553  GLY616  TRP617  ASP618  TYR619  PRO620  LYS621  CYS622 
 ASP623  PHE694  ASN695  SER759  ASP760  ASP761  ALA762  ILE779  LEU786  VAL792 
 PHE793  MET794  SER795  GLU796  ALA797  LYS798  CYS799  TRP800  GLU811  SER814 

> <Gold.Protein.RotatedAtoms>
  150.9310  133.6767  159.2810 H   0  0  0  0  0  0  0  0  0  0  0  0  # atno 6907 bound_to 6896
  151.4189  135.0994  159.9617 H   0  0  0  0  0  0  0  0  0  0  0  0  # atno 6908 bound_to 6896
  152.5025  133.8766  159.7380 H   0  0  0  0  0  0  0  0  0  0  0  0  # atno 6909 bound_to 6896
  145.7832  139.2898  143.1253 H   0  0  0  0  0  0  0  0  0  0  0  0  # atno 7974 bound_to 7965
  156.2771  140.2113  156.5788 H   0  0  0  0  0  0  0  0  0  0  0  0  # atno 8008 bound_to 7997
  154.7075  140.0515  157.0541 H   0  0  0  0  0  0  0  0  0  0  0  0  # atno 8009 bound_to 7997
  155.0650  140.3170  155.4651 H   0  0  0  0  0  0  0  0  0  0  0  0  # atno 8010 bound_to 7997
  140.2884  144.3074  150.6246 H   0  0  0  0  0  0  0  0  0  0  0  0  # atno 10167 bound_to 10162
  156.1812  130.4150  149.9504 H   0  0  0  0  0  0  0  0  0  0  0  0  # atno 10718 bound_to 10713
  153.5599  135.3523  155.2795 H   0  0  0  0  0  0  0  0  0  0  0  0  # atno 10763 bound_to 10752
  154.8696  135.4134  154.2842 H   0  0  0  0  0  0  0  0  0  0  0  0  # atno 10764 bound_to 10752
  153.3586  135.7058  153.6800 H   0  0  0  0  0  0  0  0  0  0  0  0  # atno 10765 bound_to 10752
  139.9818  134.9545  156.9647 H   0  0  0  0  0  0  0  0  0  0  0  0  # atno 11005 bound_to 11000
  146.0053  140.8484  142.9998 LP  0  0  0  0  0  0  0  0  0  0  0  0  # atno 17320 bound_to 7965
  144.6793  140.2410  143.7343 LP  0  0  0  0  0  0  0  0  0  0  0  0  # atno 17321 bound_to 7965
  140.5753  143.2177  151.7527 LP  0  0  0  0  0  0  0  0  0  0  0  0  # atno 17342 bound_to 10162
  139.4944  144.4159  152.0031 LP  0  0  0  0  0  0  0  0  0  0  0  0  # atno 17343 bound_to 10162
  156.7273  130.9030  151.3623 LP  0  0  0  0  0  0  0  0  0  0  0  0  # atno 17370 bound_to 10713
  157.6869  130.9195  150.0411 LP  0  0  0  0  0  0  0  0  0  0  0  0  # atno 17371 bound_to 10713
  140.5082  134.1029  155.7264 LP  0  0  0  0  0  0  0  0  0  0  0  0  # atno 17394 bound_to 11000
  141.1489  133.9005  157.2148 LP  0  0  0  0  0  0  0  0  0  0  0  0  # atno 17395 bound_to 11000

$$$$
