AV-unprocessed.smi:3088|AV-procd|sdf|11768|dock4
  -GOLD-   2272017153D 1   1.00000     0.00000
 Structure written by MMmdl.
 29 30  0  0  0  0  0  0  0  0  2 V2000
  148.3791  138.9131  153.0634 N   0  3  0  0  0  0  0  0  0  0  0  0
  149.2628  139.0481  154.2336 C   0  0  0  0  0  0  0  0  0  0  0  0
  149.4911  140.5222  154.5957 C   0  0  0  0  0  0  0  0  0  0  0  0
  150.4025  140.6819  155.7746 C   0  0  0  0  0  0  0  0  0  0  0  0
  151.1682  139.7058  156.3630 C   0  0  0  0  0  0  0  0  0  0  0  0
  152.0852  140.3213  157.7108 S   0  0  0  0  0  0  0  0  0  0  0  0
  151.3816  141.9093  157.4195 C   0  0  0  0  0  0  0  0  0  0  0  0
  151.6968  143.0131  158.2065 N   0  0  0  0  0  0  0  0  0  0  0  0
  152.2856  142.9942  159.5424 C   0  0  0  0  0  0  0  0  0  0  0  0
  152.1865  144.4056  160.1161 C   0  0  0  0  0  0  0  0  0  0  0  0
  152.2516  145.2653  158.8688 C   0  0  0  0  0  0  0  0  0  0  0  0
  151.4957  144.4146  157.8513 C   0  0  0  0  0  0  0  0  0  0  0  0
  150.5355  141.9324  156.3860 N   0  0  0  0  0  0  0  0  0  0  0  0
  148.3698  137.9502  152.7585 H   0  0  0  0  0  0  0  0  0  0  0  0
  148.7194  139.4989  152.3142 H   0  0  0  0  0  0  0  0  0  0  0  0
  148.8150  138.5165  155.0737 H   0  0  0  0  0  0  0  0  0  0  0  0
  150.2118  138.5587  154.0116 H   0  0  0  0  0  0  0  0  0  0  0  0
  149.9064  141.0489  153.7354 H   0  0  0  0  0  0  0  0  0  0  0  0
  148.5320  140.9984  154.8030 H   0  0  0  0  0  0  0  0  0  0  0  0
  151.2496  138.6645  156.0882 H   0  0  0  0  0  0  0  0  0  0  0  0
  151.7817  142.2724  160.1859 H   0  0  0  0  0  0  0  0  0  0  0  0
  153.3297  142.6911  159.4561 H   0  0  0  0  0  0  0  0  0  0  0  0
  151.2235  144.5409  160.6105 H   0  0  0  0  0  0  0  0  0  0  0  0
  152.9745  144.6298  160.8355 H   0  0  0  0  0  0  0  0  0  0  0  0
  151.8146  146.2547  159.0048 H   0  0  0  0  0  0  0  0  0  0  0  0
  153.2892  145.3898  158.5556 H   0  0  0  0  0  0  0  0  0  0  0  0
  151.8367  144.6169  156.8355 H   0  0  0  0  0  0  0  0  0  0  0  0
  150.4277  144.6306  157.8930 H   0  0  0  0  0  0  0  0  0  0  0  0
  147.4420  139.1957  153.3127 H   0  0  0  0  0  0  0  0  0  0  0  0
  1  2  1  0  0  0  0
  1 14  1  0  0  0  0
  1 15  1  0  0  0  0
  1 29  1  0  0  0  0
  2  3  1  0  0  0  0
  2 16  1  0  0  0  0
  2 17  1  0  0  0  0
  3  4  1  0  0  0  0
  3 18  1  0  0  0  0
  3 19  1  0  0  0  0
  4 13  1  0  0  0  0
  4  5  2  0  0  0  0
  5  6  1  0  0  0  0
  5 20  1  0  0  0  0
  6  7  1  0  0  0  0
  7  8  1  0  0  0  0
  7 13  2  0  0  0  0
  8 12  1  0  0  0  0
  8  9  1  0  0  0  0
  9 10  1  0  0  0  0
  9 21  1  0  0  0  0
  9 22  1  0  0  0  0
 10 11  1  0  0  0  0
 10 23  1  0  0  0  0
 10 24  1  0  0  0  0
 11 12  1  0  0  0  0
 11 25  1  0  0  0  0
 11 26  1  0  0  0  0
 12 27  1  0  0  0  0
 12 28  1  0  0  0  0
M  CHG  1   1   1
M  END
> <s_m_source_file>
AV-unprocessed.smi

> <i_m_source_file_index>
3088

> <i_lp_mmshare_version>
43012

> <i_f3d_flags>
0

> <s_epik_input>
W05IMl1bQ0gyXVtDSDJdYzFbY0hdc2MobjEpTjJbQ0gyXVtDSDJdW0NIMl1bQ0gyXTI=

> <s_epik_cmdline>
J2VwaWtfcHl0aG9uJywgJy1waCcsICc3LjAnLCAnLXRuJywgJzgnLCAnLW1hJywgJzIwMCcsICctbWV0YWxfYmluZGluZycsICctaW1hZScsICc8aW5maWxlLm1hZT4nLCAnLW9tYWUnLCAnPG91dGZpbGUubWFlPic=

> <r_epik_Ionization_Penalty>
0.0059221

> <r_epik_Ionization_Penalty_Charging>
0.00199846

> <r_epik_Ionization_Penalty_Neutral>
0.00392364

> <r_epik_State_Penalty>
0.00774005

> <r_epik_Charging_Adjusted_Penalty>
0.00973852

> <i_epik_Tot_Q>
1

> <i_epik_Tot_abs_Q>
1

> <r_epik_Metal_State_Penalty>
7.11937e-06

> <b_epik_Metal_Only>
0

> <s_lp_Force_Field>
OPLS_2005

> <r_lp_Energy>
15.4389

> <b_lp_Chiralities_Consistent>
1

> <s_lp_Variant>
AV-unprocessed.smi:3088-1

> <Gold.Version>
5.8.1

> <Gold.Id.Protein>
6NUR|6NUR_protein|mol2

> <Gold.PLP.Fitness>
43.0587

> <Gold.PLP.PLP>
-34.6021

> <Gold.PLP.part.hbond>
-1.8681

> <Gold.PLP.part.metal>
0.0000

> <Gold.PLP.part.buried>
-3.4204

> <Gold.PLP.part.nonpolar>
-29.3650

> <Gold.PLP.part.repulsive>
0.1741

> <Gold.PLP.ligand.clash>
0.0000

> <Gold.PLP.ligand.torsion>
0.2728

> <Gold.PLP.Chemscore.Hbond>
3.0000

> <Gold.PLP.Chemscore.CHOScore>
0.0000

> <Gold.PLP.Chemscore.Metal>
0.0000

> <Gold.Chemscore.Hbonds>
donor molecule, donor type, donor heavy atom, donor atom, acceptor molecule, acceptor atom, score
      L1  H     1    14       P1  7948  2.00
      L1  H     1    15       P1  7957  1.00

> <Gold.PLP.Chemscore.Internal.Correction>
0.0022

> <Gold.Rescore>
     Score         DG    S(hbond)    S(metal)    S(lipo)     H(rot)  DE(clash)    DE(int)     intcor
     18.22     -18.38       1.98        0.00      82.66       1.32       0.00       0.16       ----

> <Gold.Chemscore.Fitness>
18.2163

> <Gold.Chemscore.DG>
-18.3833

> <Gold.Chemscore.ZeroCoef>
-5.4800

> <Gold.Chemscore.Hbond>
1.9766

> <Gold.Chemscore.Metal>
0.0000

> <Gold.Chemscore.Lipo>
82.6627

> <Gold.Chemscore.Internal_Hbond>
0.0000

> <Gold.Chemscore.DEClash>
0.0021

> <Gold.Chemscore.DEInternal>
0.1648

> <Gold.Chemscore.Rot>
1.3164

> <Gold.Chemscore.Internal.Correction>
   9.000000E+99

> <Gold.Chemscore.Hbonds>
donor molecule, donor type, donor heavy atom, donor atom, acceptor molecule, acceptor atom, score
      L1  H     1    14       P1  7948  0.95
      L1  H     1    15       P1  7957  0.94

> <Gold.Chemscore.Hbond.Weighted>
-6.6018

> <Gold.Chemscore.Metal.Weighted>
-0.0000

> <Gold.Chemscore.Lipo.Weighted>
-9.6715

> <Gold.Chemscore.Internal_Hbond.Weighted>
0.0000

> <Gold.Chemscore.DEClash.Weighted>
0.0021

> <Gold.Chemscore.DEInternal.Weighted>
0.1648

> <Gold.Chemscore.Rot.Weighted>
3.3700

> <Gold.Chemscore.Internal.Correction.Weighted>
   9.000000E+99

> <Gold.Protein.RotatedTorsions>
[ 6907 6896 6895 6894 ] final  -41.71 input  -60.11 | X-H torsion
[ 7974 7965 7964 7962 ] final -134.88 input  175.53 | X-H torsion
[ 8008 7997 7996 7995 ] final  112.16 input   59.86 | X-H torsion
[ 10167 10162 10161 10158 ] final   66.85 input  -65.29 | X-H torsion
[ 10718 10713 10712 10709 ] final  161.96 input   66.30 | X-H torsion
[ 10763 10752 10751 10750 ] final   71.45 input  -60.55 | X-H torsion
[ 11005 11000 10999 10996 ] final  100.53 input  -57.11 | X-H torsion

> <Gold.Protein.ActiveResidues>
 VAL166  LYS551  ARG553  GLY616  TRP617  ASP618  TYR619  PRO620  LYS621  CYS622 
 ASP623  PHE694  ASN695  SER759  ASP760  ASP761  ALA762  ILE779  LEU786  VAL792 
 PHE793  MET794  SER795  GLU796  ALA797  LYS798  CYS799  TRP800  GLU811  SER814 

> <Gold.Protein.RotatedAtoms>
  150.9635  134.9020  159.7744 H   0  0  0  0  0  0  0  0  0  0  0  0  # atno 6907 bound_to 6896
  152.5165  134.3639  159.9304 H   0  0  0  0  0  0  0  0  0  0  0  0  # atno 6908 bound_to 6896
  151.3650  133.3835  159.2728 H   0  0  0  0  0  0  0  0  0  0  0  0  # atno 6909 bound_to 6896
  144.9063  140.6837  143.5053 H   0  0  0  0  0  0  0  0  0  0  0  0  # atno 7974 bound_to 7965
  156.2173  140.3005  155.9870 H   0  0  0  0  0  0  0  0  0  0  0  0  # atno 8008 bound_to 7997
  155.2571  140.0428  157.3010 H   0  0  0  0  0  0  0  0  0  0  0  0  # atno 8009 bound_to 7997
  154.5788  140.2369  155.8092 H   0  0  0  0  0  0  0  0  0  0  0  0  # atno 8010 bound_to 7997
  140.0960  144.4946  150.7068 H   0  0  0  0  0  0  0  0  0  0  0  0  # atno 10167 bound_to 10162
  157.1292  131.0512  151.2379 H   0  0  0  0  0  0  0  0  0  0  0  0  # atno 10718 bound_to 10713
  153.0400  135.5136  154.7595 H   0  0  0  0  0  0  0  0  0  0  0  0  # atno 10763 bound_to 10752
  154.6541  135.2929  154.9953 H   0  0  0  0  0  0  0  0  0  0  0  0  # atno 10764 bound_to 10752
  154.0827  135.6662  153.4893 H   0  0  0  0  0  0  0  0  0  0  0  0  # atno 10765 bound_to 10752
  139.8771  134.9144  156.4770 H   0  0  0  0  0  0  0  0  0  0  0  0  # atno 11005 bound_to 11000
  145.3530  139.1701  143.4424 LP  0  0  0  0  0  0  0  0  0  0  0  0  # atno 17320 bound_to 7965
  146.3135  140.3584  142.8662 LP  0  0  0  0  0  0  0  0  0  0  0  0  # atno 17321 bound_to 7965
  140.7003  143.2431  151.4882 LP  0  0  0  0  0  0  0  0  0  0  0  0  # atno 17342 bound_to 10162
  139.5698  144.1955  152.1819 LP  0  0  0  0  0  0  0  0  0  0  0  0  # atno 17343 bound_to 10162
  157.4408  130.7543  149.7067 LP  0  0  0  0  0  0  0  0  0  0  0  0  # atno 17370 bound_to 10713
  155.9811  130.4022  150.3487 LP  0  0  0  0  0  0  0  0  0  0  0  0  # atno 17371 bound_to 10713
  140.8754  133.7957  155.9409 LP  0  0  0  0  0  0  0  0  0  0  0  0  # atno 17394 bound_to 11000
  140.8909  134.2496  157.5095 LP  0  0  0  0  0  0  0  0  0  0  0  0  # atno 17395 bound_to 11000

$$$$
