AV-unprocessed.smi:2775|AV-procd|sdf|10692|dock1
  -GOLD-   2272015133D 1   1.00000     0.00000
 Structure written by MMmdl.
 42 45  0  0  0  0  0  0  0  0  1 V2000
  144.1232  132.5473  149.7432 C   0  0  0  0  0  0  0  0  0  0  0  0
  145.1579  132.2039  150.7983 C   0  0  0  0  0  0  0  0  0  0  0  0
  145.2444  130.8967  151.1294 N   0  0  0  0  0  0  0  0  0  0  0  0
  146.1439  130.5372  152.0682 C   0  0  0  0  0  0  0  0  0  0  0  0
  146.9978  131.4518  152.7136 C   0  0  0  0  0  0  0  0  0  0  0  0
  146.9210  132.8185  152.3558 C   0  0  0  0  0  0  0  0  0  0  0  0
  147.7231  133.8271  152.9535 N   0  0  0  0  0  0  0  0  0  0  0  0
  148.6719  133.6968  153.9002 C   0  0  0  0  0  0  0  0  0  0  0  0
  148.9461  132.6494  154.4821 O   0  0  0  0  0  0  0  0  0  0  0  0
  149.3590  134.8281  154.1353 N   0  0  0  0  0  0  0  0  0  0  0  0
  150.4499  135.0237  155.0968 C   0  0  2  0  0  0  0  0  0  0  0  0
  150.0884  134.6418  156.5572 C   0  0  2  0  0  0  0  0  0  0  0  0
  148.8358  133.8896  156.9415 C   0  0  0  0  0  0  0  0  0  0  0  0
  147.8997  135.0049  157.4137 C   0  0  0  0  0  0  0  0  0  0  0  0
  148.4084  136.1877  156.8018 O   0  0  0  0  0  0  0  0  0  0  0  0
  149.8303  136.1167  156.8408 C   0  0  2  0  0  0  0  0  0  0  0  0
  150.5509  136.4933  155.5395 C   0  0  0  0  0  0  0  0  0  0  0  0
  150.0804  137.6764  154.6771 C   0  0  0  0  0  0  0  0  0  0  0  0
  151.2145  138.5052  155.2861 C   0  0  0  0  0  0  0  0  0  0  0  0
  151.9185  137.1880  155.6262 C   0  0  0  0  0  0  0  0  0  0  0  0
  145.9684  133.2044  151.3845 C   0  0  0  0  0  0  0  0  0  0  0  0
  145.8069  134.8646  150.9152 Cl  0  0  0  0  0  0  0  0  0  0  0  0
  144.5968  133.0380  148.8925 H   0  0  0  0  0  0  0  0  0  0  0  0
  143.3707  133.2199  150.1557 H   0  0  0  0  0  0  0  0  0  0  0  0
  143.6137  131.6555  149.3754 H   0  0  0  0  0  0  0  0  0  0  0  0
  146.1804  129.4873  152.3181 H   0  0  0  0  0  0  0  0  0  0  0  0
  147.6798  131.0944  153.4696 H   0  0  0  0  0  0  0  0  0  0  0  0
  147.6665  134.7351  152.5157 H   0  0  0  0  0  0  0  0  0  0  0  0
  149.1521  135.6171  153.5398 H   0  0  0  0  0  0  0  0  0  0  0  0
  151.4117  134.6235  154.7716 H   0  0  0  0  0  0  0  0  0  0  0  0
  150.9776  134.2995  157.0887 H   0  0  0  0  0  0  0  0  0  0  0  0
  148.4021  133.3442  156.1054 H   0  0  0  0  0  0  0  0  0  0  0  0
  149.0175  133.1661  157.7366 H   0  0  0  0  0  0  0  0  0  0  0  0
  146.8596  134.8264  157.1400 H   0  0  0  0  0  0  0  0  0  0  0  0
  147.9535  135.1159  158.4977 H   0  0  0  0  0  0  0  0  0  0  0  0
  150.2731  136.4804  157.7692 H   0  0  0  0  0  0  0  0  0  0  0  0
  150.2180  137.5047  153.6083 H   0  0  0  0  0  0  0  0  0  0  0  0
  149.0772  138.0404  154.9003 H   0  0  0  0  0  0  0  0  0  0  0  0
  151.7482  139.1403  154.5785 H   0  0  0  0  0  0  0  0  0  0  0  0
  150.9021  139.0582  156.1734 H   0  0  0  0  0  0  0  0  0  0  0  0
  152.3880  137.1626  156.6101 H   0  0  0  0  0  0  0  0  0  0  0  0
  152.6076  136.8667  154.8435 H   0  0  0  0  0  0  0  0  0  0  0  0
  1  2  1  0  0  0  0
  1 23  1  0  0  0  0
  1 24  1  0  0  0  0
  1 25  1  0  0  0  0
  2 21  1  0  0  0  0
  2  3  2  0  0  0  0
  3  4  1  0  0  0  0
  4  5  2  0  0  0  0
  4 26  1  0  0  0  0
  5  6  1  0  0  0  0
  5 27  1  0  0  0  0
  6  7  1  0  0  0  0
  6 21  2  0  0  0  0
  7  8  1  0  0  0  0
  7 28  1  0  0  0  0
  8  9  2  0  0  0  0
  8 10  1  0  0  0  0
 10 11  1  0  0  0  0
 10 29  1  0  0  0  0
 11 17  1  0  0  0  0
 11 12  1  0  0  0  0
 11 30  1  0  0  0  0
 12 16  1  0  0  0  0
 12 13  1  0  0  0  0
 12 31  1  0  0  0  0
 13 14  1  0  0  0  0
 13 32  1  0  0  0  0
 13 33  1  0  0  0  0
 14 15  1  0  0  0  0
 14 34  1  0  0  0  0
 14 35  1  0  0  0  0
 15 16  1  0  0  0  0
 16 17  1  0  0  0  0
 16 36  1  0  0  0  0
 17 20  1  0  0  0  0
 17 18  1  0  0  0  0
 18 19  1  0  0  0  0
 18 37  1  0  0  0  0
 18 38  1  0  0  0  0
 19 20  1  0  0  0  0
 19 39  1  0  0  0  0
 19 40  1  0  0  0  0
 20 41  1  0  0  0  0
 20 42  1  0  0  0  0
 21 22  1  0  0  0  0
M  END
> <s_m_source_file>
AV-unprocessed.smi

> <i_m_source_file_index>
2775

> <i_lp_mmshare_version>
43012

> <i_f3d_flags>
0

> <s_epik_input>
W0NIM11jMW5bY0hdW2NIXWMoYzFDbClbTkhdQyg9TylbTkhdW0NAQEhdMltDQEhdKFtDSDJdW0NIMl1PMylbQ0BASF0zQzI0W0NIMl1bQ0gyXVtDSDJdNA==

> <s_epik_cmdline>
J2VwaWtfcHl0aG9uJywgJy1waCcsICc3LjAnLCAnLXRuJywgJzgnLCAnLW1hJywgJzIwMCcsICctbWV0YWxfYmluZGluZycsICctaW1hZScsICc8aW5maWxlLm1hZT4nLCAnLW9tYWUnLCAnPG91dGZpbGUubWFlPic=

> <r_epik_Ionization_Penalty>
0.01026

> <r_epik_Ionization_Penalty_Charging>
0

> <r_epik_Ionization_Penalty_Neutral>
0.01026

> <r_epik_State_Penalty>
0.00780685

> <r_epik_Charging_Adjusted_Penalty>
0.00780685

> <i_epik_Tot_Q>
0

> <i_epik_Tot_abs_Q>
0

> <r_epik_Metal_State_Penalty>
0.00767411

> <b_epik_Metal_Only>
0

> <s_lp_Force_Field>
OPLS_2005

> <r_lp_Energy>
58.5604

> <b_lp_Chiralities_Consistent>
1

> <s_lp_Variant>
AV-unprocessed.smi:2775-5

> <Gold.Version>
5.8.1

> <Gold.Id.Protein>
6NUR|6NUR_protein|mol2

> <Gold.PLP.Fitness>
35.8967

> <Gold.PLP.PLP>
-30.9028

> <Gold.PLP.part.hbond>
-2.0000

> <Gold.PLP.part.metal>
0.0000

> <Gold.PLP.part.buried>
-3.1988

> <Gold.PLP.part.nonpolar>
-25.5384

> <Gold.PLP.part.repulsive>
0.2032

> <Gold.PLP.ligand.clash>
0.0000

> <Gold.PLP.ligand.torsion>
0.1896

> <Gold.PLP.Chemscore.Hbond>
1.7211

> <Gold.PLP.Chemscore.CHOScore>
0.0000

> <Gold.PLP.Chemscore.Metal>
0.0000

> <Gold.Chemscore.Hbonds>
donor molecule, donor type, donor heavy atom, donor atom, acceptor molecule, acceptor atom, score
      L1  H     7    28       P1  7948  0.73
      L1  H    10    29       P1  7948  0.91

> <Gold.PLP.Chemscore.Internal.Correction>
0.2097

> <Gold.Rescore>
     Score         DG    S(hbond)    S(metal)    S(lipo)     H(rot)  DE(clash)    DE(int)     intcor
     13.82     -17.55       1.23        0.00      89.78       1.00       0.38       3.35       ----

> <Gold.Chemscore.Fitness>
13.8171

> <Gold.Chemscore.DG>
-17.5485

> <Gold.Chemscore.ZeroCoef>
-5.4800

> <Gold.Chemscore.Hbond>
1.2348

> <Gold.Chemscore.Metal>
0.0000

> <Gold.Chemscore.Lipo>
89.7810

> <Gold.Chemscore.Internal_Hbond>
0.0000

> <Gold.Chemscore.DEClash>
0.3847

> <Gold.Chemscore.DEInternal>
3.3468

> <Gold.Chemscore.Rot>
1.0000

> <Gold.Chemscore.Internal.Correction>
   9.000000E+99

> <Gold.Chemscore.Hbonds>
donor molecule, donor type, donor heavy atom, donor atom, acceptor molecule, acceptor atom, score
      L1  H     7    28       P1  7948  0.61
      L1  H    10    29       P1  7948  0.58

> <Gold.Chemscore.Hbond.Weighted>
-4.1242

> <Gold.Chemscore.Metal.Weighted>
-0.0000

> <Gold.Chemscore.Lipo.Weighted>
-10.5044

> <Gold.Chemscore.Internal_Hbond.Weighted>
0.0000

> <Gold.Chemscore.DEClash.Weighted>
0.3847

> <Gold.Chemscore.DEInternal.Weighted>
3.3468

> <Gold.Chemscore.Rot.Weighted>
2.5600

> <Gold.Chemscore.Internal.Correction.Weighted>
   9.000000E+99

> <Gold.Protein.RotatedTorsions>
[ 6907 6896 6895 6894 ] final   89.23 input  -60.11 | X-H torsion
[ 7974 7965 7964 7962 ] final  106.16 input  175.53 | X-H torsion
[ 8008 7997 7996 7995 ] final -136.08 input   59.86 | X-H torsion
[ 10167 10162 10161 10158 ] final  137.57 input  -65.29 | X-H torsion
[ 10718 10713 10712 10709 ] final  156.83 input   66.30 | X-H torsion
[ 10763 10752 10751 10750 ] final  155.19 input  -60.55 | X-H torsion
[ 11005 11000 10999 10996 ] final  127.65 input  -57.11 | X-H torsion

> <Gold.Protein.ActiveResidues>
 VAL166  LYS551  ARG553  GLY616  TRP617  ASP618  TYR619  PRO620  LYS621  CYS622 
 ASP623  PHE694  ASN695  SER759  ASP760  ASP761  ALA762  ILE779  LEU786  VAL792 
 PHE793  MET794  SER795  GLU796  ALA797  LYS798  CYS799  TRP800  GLU811  SER814 

> <Gold.Protein.RotatedAtoms>
  152.5434  134.1998  159.8707 H   0  0  0  0  0  0  0  0  0  0  0  0  # atno 6907 bound_to 6896
  151.1988  133.4616  159.2603 H   0  0  0  0  0  0  0  0  0  0  0  0  # atno 6908 bound_to 6896
  151.1010  134.9984  159.8504 H   0  0  0  0  0  0  0  0  0  0  0  0  # atno 6909 bound_to 6896
  145.3103  139.2542  143.3766 H   0  0  0  0  0  0  0  0  0  0  0  0  # atno 7974 bound_to 7965
  155.3893  140.0499  157.3041 H   0  0  0  0  0  0  0  0  0  0  0  0  # atno 8008 bound_to 7997
  154.5044  140.2168  155.9243 H   0  0  0  0  0  0  0  0  0  0  0  0  # atno 8009 bound_to 7997
  156.1507  140.3136  155.8649 H   0  0  0  0  0  0  0  0  0  0  0  0  # atno 8010 bound_to 7997
  139.5140  144.6402  151.5588 H   0  0  0  0  0  0  0  0  0  0  0  0  # atno 10167 bound_to 10162
  157.1997  131.0673  151.2032 H   0  0  0  0  0  0  0  0  0  0  0  0  # atno 10718 bound_to 10713
  154.1643  135.2808  155.3099 H   0  0  0  0  0  0  0  0  0  0  0  0  # atno 10763 bound_to 10752
  154.6123  135.5495  153.7489 H   0  0  0  0  0  0  0  0  0  0  0  0  # atno 10764 bound_to 10752
  153.0183  135.6418  154.1785 H   0  0  0  0  0  0  0  0  0  0  0  0  # atno 10765 bound_to 10752
  139.9518  134.9620  156.8886 H   0  0  0  0  0  0  0  0  0  0  0  0  # atno 11005 bound_to 11000
  146.3120  140.3637  142.8667 LP  0  0  0  0  0  0  0  0  0  0  0  0  # atno 17320 bound_to 7965
  144.9021  140.7655  143.5860 LP  0  0  0  0  0  0  0  0  0  0  0  0  # atno 17321 bound_to 7965
  140.6166  143.9336  150.6493 LP  0  0  0  0  0  0  0  0  0  0  0  0  # atno 17342 bound_to 10162
  140.2596  143.3533  152.1334 LP  0  0  0  0  0  0  0  0  0  0  0  0  # atno 17343 bound_to 10162
  157.3779  130.7215  149.6610 LP  0  0  0  0  0  0  0  0  0  0  0  0  # atno 17370 bound_to 10713
  155.9702  130.4180  150.4309 LP  0  0  0  0  0  0  0  0  0  0  0  0  # atno 17371 bound_to 10713
  140.5700  134.0452  155.7427 LP  0  0  0  0  0  0  0  0  0  0  0  0  # atno 17394 bound_to 11000
  141.1183  133.9504  157.2780 LP  0  0  0  0  0  0  0  0  0  0  0  0  # atno 17395 bound_to 11000

$$$$
