AV-unprocessed.smi:715|AV-procd|sdf|3484|dock5
  -GOLD-   22720 0473D 1   1.00000     0.00000
 Structure written by MMmdl.
 39 40  0  0  0  0  0  0  0  0  1 V2000
  145.7645  137.1196  152.0585 C   0  0  0  0  0  0  0  0  0  0  0  0
  146.3442  138.0236  153.0286 N   0  0  0  0  0  0  0  0  0  0  0  0
  147.4532  138.8311  152.8970 C   0  0  0  0  0  0  0  0  0  0  0  0
  147.6159  139.5030  154.0761 C   0  0  0  0  0  0  0  0  0  0  0  0
  148.6749  140.5107  154.4380 C   0  0  2  0  0  0  0  0  0  0  0  0
  149.9690  139.9598  154.2957 O   0  0  0  0  0  0  0  0  0  0  0  0
  148.5041  140.9749  155.8949 C   0  0  0  0  0  0  0  0  0  0  0  0
  149.4898  141.9914  156.2403 N   0  0  0  0  0  0  0  0  0  0  0  0
  150.4425  141.8405  157.1712 C   0  0  0  0  0  0  0  0  0  0  0  0
  150.5774  140.8138  157.8370 O   0  0  0  0  0  0  0  0  0  0  0  0
  151.3889  143.0282  157.3772 C   0  0  0  0  0  0  0  0  0  0  0  0
  151.1800  143.7543  158.7226 C   0  0  0  0  0  0  0  0  0  0  0  0
  151.6888  145.2003  158.7590 C   0  0  0  0  0  0  0  0  0  0  0  0
  151.8565  145.5280  160.2471 C   0  0  0  0  0  0  0  0  0  0  0  0
  151.9933  144.1806  160.9732 C   0  0  0  0  0  0  0  0  0  0  0  0
  151.9236  143.0996  159.8892 C   0  0  0  0  0  0  0  0  0  0  0  0
  146.5336  139.0300  154.8744 C   0  0  0  0  0  0  0  0  0  0  0  0
  145.7779  138.1440  154.2464 N   0  0  0  0  0  0  0  0  0  0  0  0
  146.2701  137.2264  151.0984 H   0  0  0  0  0  0  0  0  0  0  0  0
  144.7056  137.3456  151.9276 H   0  0  0  0  0  0  0  0  0  0  0  0
  145.8720  136.0911  152.4042 H   0  0  0  0  0  0  0  0  0  0  0  0
  148.0296  138.8625  151.9840 H   0  0  0  0  0  0  0  0  0  0  0  0
  148.6079  141.3742  153.7747 H   0  0  0  0  0  0  0  0  0  0  0  0
  149.8840  139.0344  154.1234 H   0  0  0  0  0  0  0  0  0  0  0  0
  147.5127  141.4153  156.0168 H   0  0  0  0  0  0  0  0  0  0  0  0
  148.5641  140.1330  156.5870 H   0  0  0  0  0  0  0  0  0  0  0  0
  149.4506  142.8609  155.7281 H   0  0  0  0  0  0  0  0  0  0  0  0
  152.4115  142.6544  157.3188 H   0  0  0  0  0  0  0  0  0  0  0  0
  151.2729  143.7358  156.5544 H   0  0  0  0  0  0  0  0  0  0  0  0
  150.1166  143.7592  158.9693 H   0  0  0  0  0  0  0  0  0  0  0  0
  152.6582  145.2647  158.2626 H   0  0  0  0  0  0  0  0  0  0  0  0
  151.0150  145.8955  158.2570 H   0  0  0  0  0  0  0  0  0  0  0  0
  152.7204  146.1721  160.4159 H   0  0  0  0  0  0  0  0  0  0  0  0
  150.9776  146.0579  160.6165 H   0  0  0  0  0  0  0  0  0  0  0  0
  152.9208  144.1145  161.5430 H   0  0  0  0  0  0  0  0  0  0  0  0
  151.1693  144.0578  161.6774 H   0  0  0  0  0  0  0  0  0  0  0  0
  151.4333  142.1907  160.2397 H   0  0  0  0  0  0  0  0  0  0  0  0
  152.9352  142.8307  159.5816 H   0  0  0  0  0  0  0  0  0  0  0  0
  146.2771  139.3044  155.8870 H   0  0  0  0  0  0  0  0  0  0  0  0
  1  2  1  0  0  0  0
  1 19  1  0  0  0  0
  1 20  1  0  0  0  0
  1 21  1  0  0  0  0
  2 18  1  0  0  0  0
  2  3  1  0  0  0  0
  3  4  2  0  0  0  0
  3 22  1  0  0  0  0
  4  5  1  0  0  0  0
  4 17  1  0  0  0  0
  5  6  1  0  0  0  0
  5  7  1  0  0  0  0
  5 23  1  0  0  0  0
  6 24  1  0  0  0  0
  7  8  1  0  0  0  0
  7 25  1  0  0  0  0
  7 26  1  0  0  0  0
  8  9  1  0  0  0  0
  8 27  1  0  0  0  0
  9 10  2  0  0  0  0
  9 11  1  0  0  0  0
 11 12  1  0  0  0  0
 11 28  1  0  0  0  0
 11 29  1  0  0  0  0
 12 16  1  0  0  0  0
 12 13  1  0  0  0  0
 12 30  1  0  0  0  0
 13 14  1  0  0  0  0
 13 31  1  0  0  0  0
 13 32  1  0  0  0  0
 14 15  1  0  0  0  0
 14 33  1  0  0  0  0
 14 34  1  0  0  0  0
 15 16  1  0  0  0  0
 15 35  1  0  0  0  0
 15 36  1  0  0  0  0
 16 37  1  0  0  0  0
 16 38  1  0  0  0  0
 17 18  2  0  0  0  0
 17 39  1  0  0  0  0
M  END
> <s_m_source_file>
AV-unprocessed.smi

> <i_m_source_file_index>
715

> <i_lp_mmshare_version>
43012

> <i_f3d_flags>
0

> <s_epik_input>
W0NIM11uMVtjSF1jKFtjSF1uMSlbQ0BIXShbT0hdKVtDSDJdW05IXUMoPU8pW0NIMl1bQ0hdMltDSDJdW0NIMl1bQ0gyXVtDSDJdMg==

> <s_epik_cmdline>
J2VwaWtfcHl0aG9uJywgJy1waCcsICc3LjAnLCAnLXRuJywgJzgnLCAnLW1hJywgJzIwMCcsICctbWV0YWxfYmluZGluZycsICctaW1hZScsICc8aW5maWxlLm1hZT4nLCAnLW9tYWUnLCAnPG91dGZpbGUubWFlPic=

> <r_lp_tautomer_probability>
1

> <r_epik_Ionization_Penalty>
4.45533e-05

> <r_epik_Ionization_Penalty_Charging>
0

> <r_epik_Ionization_Penalty_Neutral>
4.45533e-05

> <r_epik_State_Penalty>
-0

> <r_epik_Charging_Adjusted_Penalty>
0

> <i_epik_Tot_Q>
0

> <i_epik_Tot_abs_Q>
0

> <r_epik_Metal_State_Penalty>
-0

> <b_epik_Metal_Only>
0

> <s_lp_Force_Field>
OPLS_2005

> <r_lp_Energy>
19.3798

> <b_lp_Chiralities_Consistent>
1

> <s_lp_Variant>
AV-unprocessed.smi:715-1

> <Gold.Version>
5.8.1

> <Gold.Id.Protein>
6NUR|6NUR_protein|mol2

> <Gold.PLP.Fitness>
44.4403

> <Gold.PLP.PLP>
-36.8576

> <Gold.PLP.part.hbond>
-3.0000

> <Gold.PLP.part.metal>
0.0000

> <Gold.PLP.part.buried>
-4.0181

> <Gold.PLP.part.nonpolar>
-30.9888

> <Gold.PLP.part.repulsive>
0.1736

> <Gold.PLP.ligand.clash>
0.0000

> <Gold.PLP.ligand.torsion>
0.3617

> <Gold.PLP.Chemscore.Hbond>
1.7520

> <Gold.PLP.Chemscore.CHOScore>
1.0000

> <Gold.PLP.Chemscore.Metal>
0.0000

> <Gold.Chemscore.Hbonds>
donor molecule, donor type, donor heavy atom, donor atom, acceptor molecule, acceptor atom, score
      L1  H     8    27       P1  8028  0.98
      P1  H  7989  7998       L1     6  0.96
      L1  C     3    22       P1  7948  0.19
      L1  C     3    22       P1  7957  1.00

> <Gold.PLP.Chemscore.Internal.Correction>
0.0500

> <Gold.Rescore>
     Score         DG    S(hbond)    S(metal)    S(lipo)     H(rot)  DE(clash)    DE(int)     intcor
     16.15     -16.86       1.60        0.00     101.61       2.29       0.20       0.51       ----

> <Gold.Chemscore.Fitness>
16.1459

> <Gold.Chemscore.DG>
-16.8589

> <Gold.Chemscore.ZeroCoef>
-5.4800

> <Gold.Chemscore.Hbond>
1.6000

> <Gold.Chemscore.Metal>
0.0000

> <Gold.Chemscore.Lipo>
101.6117

> <Gold.Chemscore.Internal_Hbond>
0.0000

> <Gold.Chemscore.DEClash>
0.2031

> <Gold.Chemscore.DEInternal>
0.5099

> <Gold.Chemscore.Rot>
2.2866

> <Gold.Chemscore.Internal.Correction>
   9.000000E+99

> <Gold.Chemscore.Hbonds>
donor molecule, donor type, donor heavy atom, donor atom, acceptor molecule, acceptor atom, score
      L1  H     8    27       P1  8028  0.93
      P1  H  7989  7998       L1     6  0.81

> <Gold.Chemscore.Hbond.Weighted>
-5.3441

> <Gold.Chemscore.Metal.Weighted>
-0.0000

> <Gold.Chemscore.Lipo.Weighted>
-11.8886

> <Gold.Chemscore.Internal_Hbond.Weighted>
0.0000

> <Gold.Chemscore.DEClash.Weighted>
0.2031

> <Gold.Chemscore.DEInternal.Weighted>
0.5099

> <Gold.Chemscore.Rot.Weighted>
5.8538

> <Gold.Chemscore.Internal.Correction.Weighted>
   9.000000E+99

> <Gold.Protein.RotatedTorsions>
[ 6907 6896 6895 6894 ] final -172.56 input  -60.11 | X-H torsion
[ 7974 7965 7964 7962 ] final  -15.43 input  175.53 | X-H torsion
[ 8008 7997 7996 7995 ] final  -24.09 input   59.86 | X-H torsion
[ 10167 10162 10161 10158 ] final  155.34 input  -65.29 | X-H torsion
[ 10718 10713 10712 10709 ] final  -30.04 input   66.30 | X-H torsion
[ 10763 10752 10751 10750 ] final -171.86 input  -60.55 | X-H torsion
[ 11005 11000 10999 10996 ] final  147.60 input  -57.11 | X-H torsion

> <Gold.Protein.ActiveResidues>
 VAL166  LYS551  ARG553  GLY616  TRP617  ASP618  TYR619  PRO620  LYS621  CYS622 
 ASP623  PHE694  ASN695  SER759  ASP760  ASP761  ALA762  ILE779  LEU786  VAL792 
 PHE793  MET794  SER795  GLU796  ALA797  LYS798  CYS799  TRP800  GLU811  SER814 

> <Gold.Protein.RotatedAtoms>
  151.5420  133.3431  159.2936 H   0  0  0  0  0  0  0  0  0  0  0  0  # atno 6907 bound_to 6896
  150.8530  134.7862  159.7034 H   0  0  0  0  0  0  0  0  0  0  0  0  # atno 6908 bound_to 6896
  152.4571  134.5276  159.9853 H   0  0  0  0  0  0  0  0  0  0  0  0  # atno 6909 bound_to 6896
  146.2032  140.3491  142.8416 H   0  0  0  0  0  0  0  0  0  0  0  0  # atno 7974 bound_to 7965
  154.4548  140.1963  156.0410 H   0  0  0  0  0  0  0  0  0  0  0  0  # atno 8008 bound_to 7997
  156.0724  140.3282  155.7564 H   0  0  0  0  0  0  0  0  0  0  0  0  # atno 8009 bound_to 7997
  155.5242  140.0572  157.2892 H   0  0  0  0  0  0  0  0  0  0  0  0  # atno 8010 bound_to 7997
  139.4821  144.5107  151.8028 H   0  0  0  0  0  0  0  0  0  0  0  0  # atno 10167 bound_to 10162
  156.4049  130.4397  149.7295 H   0  0  0  0  0  0  0  0  0  0  0  0  # atno 10718 bound_to 10713
  154.6257  135.2880  155.0274 H   0  0  0  0  0  0  0  0  0  0  0  0  # atno 10763 bound_to 10752
  154.1453  135.6512  153.4955 H   0  0  0  0  0  0  0  0  0  0  0  0  # atno 10764 bound_to 10752
  153.0256  135.5342  154.7065 H   0  0  0  0  0  0  0  0  0  0  0  0  # atno 10765 bound_to 10752
  140.0890  134.9052  157.1620 H   0  0  0  0  0  0  0  0  0  0  0  0  # atno 11005 bound_to 11000
  144.8731  140.7300  143.6034 LP  0  0  0  0  0  0  0  0  0  0  0  0  # atno 17320 bound_to 7965
  145.3411  139.1732  143.4485 LP  0  0  0  0  0  0  0  0  0  0  0  0  # atno 17321 bound_to 7965
  140.4610  144.1721  150.5906 LP  0  0  0  0  0  0  0  0  0  0  0  0  # atno 17342 bound_to 10162
  140.4484  143.2497  151.9380 LP  0  0  0  0  0  0  0  0  0  0  0  0  # atno 17343 bound_to 10162
  156.4297  130.7809  151.2828 LP  0  0  0  0  0  0  0  0  0  0  0  0  # atno 17370 bound_to 10713
  157.7505  131.0158  150.3518 LP  0  0  0  0  0  0  0  0  0  0  0  0  # atno 17371 bound_to 10713
  140.3380  134.2736  155.7217 LP  0  0  0  0  0  0  0  0  0  0  0  0  # atno 17394 bound_to 11000
  141.2072  133.7813  157.0135 LP  0  0  0  0  0  0  0  0  0  0  0  0  # atno 17395 bound_to 11000

$$$$
