AV-unprocessed.smi:2253|AV-procd|sdf|9118|dock3
  -GOLD-   2272012323D 1   1.00000     0.00000
 Structure written by MMmdl.
 52 54  0  0  0  0  0  0  0  0  3 V2000
  144.2198  137.1880  152.7061 C   0  0  0  0  0  0  0  0  0  0  0  0
  145.2242  138.2451  152.9535 N   0  3  2  0  0  0  0  0  0  0  0  0
  146.3897  138.1431  152.0397 C   0  0  0  0  0  0  0  0  0  0  0  0
  147.3790  139.3018  152.2683 C   0  0  0  0  0  0  0  0  0  0  0  0
  147.8799  139.3547  153.7322 C   0  0  2  0  0  0  0  0  0  0  0  0
  148.7689  138.1919  154.0813 N   0  3  2  0  0  0  0  0  0  0  0  0
  148.5829  137.6080  155.4413 C   0  0  0  0  0  0  0  0  0  0  0  0
  149.1349  138.5323  156.5426 C   0  0  0  0  0  0  0  0  0  0  0  0
  150.6303  138.8116  156.3151 C   0  0  2  0  0  0  0  0  0  0  0  0
  151.1257  139.7487  157.3196 N   0  0  0  0  0  0  0  0  0  0  0  0
  150.6519  140.9891  157.5125 C   0  0  0  0  0  0  0  0  0  0  0  0
  149.7158  141.4575  156.8665 O   0  0  0  0  0  0  0  0  0  0  0  0
  151.3306  141.6210  158.4861 N   0  0  0  0  0  0  0  0  0  0  0  0
  151.1799  142.9429  158.9933 C   0  0  0  0  0  0  0  0  0  0  0  0
  149.9857  143.7037  158.9356 C   0  0  0  0  0  0  0  0  0  0  0  0
  149.9861  145.0045  159.4782 C   0  0  0  0  0  0  0  0  0  0  0  0
  151.0666  145.5712  160.0546 N   0  0  0  0  0  0  0  0  0  0  0  0
  152.2024  144.8444  160.1095 C   0  0  0  0  0  0  0  0  0  0  0  0
  152.3094  143.5361  159.5966 C   0  0  0  0  0  0  0  0  0  0  0  0
  153.4823  142.8629  159.6837 F   0  0  0  0  0  0  0  0  0  0  0  0
  150.8558  139.3513  154.8892 C   0  0  0  0  0  0  0  0  0  0  0  0
  150.2231  138.4199  153.8354 C   0  0  0  0  0  0  0  0  0  0  0  0
  146.6147  139.4771  154.6168 C   0  0  0  0  0  0  0  0  0  0  0  0
  145.6298  138.3167  154.3795 C   0  0  0  0  0  0  0  0  0  0  0  0
  144.6316  136.1994  152.9142 H   0  0  0  0  0  0  0  0  0  0  0  0
  143.8868  137.2083  151.6679 H   0  0  0  0  0  0  0  0  0  0  0  0
  143.3437  137.3337  153.3388 H   0  0  0  0  0  0  0  0  0  0  0  0
  146.8890  137.1837  152.1842 H   0  0  0  0  0  0  0  0  0  0  0  0
  146.0396  138.1637  151.0068 H   0  0  0  0  0  0  0  0  0  0  0  0
  148.1946  139.2489  151.5502 H   0  0  0  0  0  0  0  0  0  0  0  0
  146.8716  140.2396  152.0365 H   0  0  0  0  0  0  0  0  0  0  0  0
  148.4557  140.2704  153.8641 H   0  0  0  0  0  0  0  0  0  0  0  0
  147.5486  137.3332  155.6373 H   0  0  0  0  0  0  0  0  0  0  0  0
  149.1238  136.6612  155.4759 H   0  0  0  0  0  0  0  0  0  0  0  0
  148.5723  139.4665  156.5641 H   0  0  0  0  0  0  0  0  0  0  0  0
  148.9910  138.0652  157.5176 H   0  0  0  0  0  0  0  0  0  0  0  0
  151.1678  137.8669  156.4215 H   0  0  0  0  0  0  0  0  0  0  0  0
  151.8969  139.4403  157.8940 H   0  0  0  0  0  0  0  0  0  0  0  0
  152.0689  141.0872  158.9212 H   0  0  0  0  0  0  0  0  0  0  0  0
  149.0753  143.3325  158.4937 H   0  0  0  0  0  0  0  0  0  0  0  0
  149.0904  145.6071  159.4467 H   0  0  0  0  0  0  0  0  0  0  0  0
  153.0525  145.3202  160.5755 H   0  0  0  0  0  0  0  0  0  0  0  0
  150.4457  140.3574  154.7982 H   0  0  0  0  0  0  0  0  0  0  0  0
  151.9243  139.4443  154.6911 H   0  0  0  0  0  0  0  0  0  0  0  0
  150.7257  137.4523  153.8760 H   0  0  0  0  0  0  0  0  0  0  0  0
  150.4190  138.7927  152.8330 H   0  0  0  0  0  0  0  0  0  0  0  0
  146.8563  139.5766  155.6738 H   0  0  0  0  0  0  0  0  0  0  0  0
  146.1072  140.4112  154.3704 H   0  0  0  0  0  0  0  0  0  0  0  0
  144.7436  138.4598  154.9992 H   0  0  0  0  0  0  0  0  0  0  0  0
  146.0772  137.3691  154.6828 H   0  0  0  0  0  0  0  0  0  0  0  0
  148.4975  137.4581  153.4426 H   0  0  0  0  0  0  0  0  0  0  0  0
  144.7698  139.1223  152.7407 H   0  0  0  0  0  0  0  0  0  0  0  0
  1  2  1  0  0  0  0
  1 25  1  0  0  0  0
  1 26  1  0  0  0  0
  1 27  1  0  0  0  0
  2 24  1  0  0  0  0
  2  3  1  0  0  0  0
  2 52  1  0  0  0  0
  3  4  1  0  0  0  0
  3 28  1  0  0  0  0
  3 29  1  0  0  0  0
  4  5  1  0  0  0  0
  4 30  1  0  0  0  0
  4 31  1  0  0  0  0
  5  6  1  0  0  0  0
  5 23  1  0  0  0  0
  5 32  1  0  0  0  0
  6 22  1  0  0  0  0
  6  7  1  0  0  0  0
  6 51  1  0  0  0  0
  7  8  1  0  0  0  0
  7 33  1  0  0  0  0
  7 34  1  0  0  0  0
  8  9  1  0  0  0  0
  8 35  1  0  0  0  0
  8 36  1  0  0  0  0
  9 10  1  0  0  0  0
  9 21  1  0  0  0  0
  9 37  1  0  0  0  0
 10 11  1  0  0  0  0
 10 38  1  0  0  0  0
 11 12  2  0  0  0  0
 11 13  1  0  0  0  0
 13 14  1  0  0  0  0
 13 39  1  0  0  0  0
 14 19  1  0  0  0  0
 14 15  2  0  0  0  0
 15 16  1  0  0  0  0
 15 40  1  0  0  0  0
 16 17  2  0  0  0  0
 16 41  1  0  0  0  0
 17 18  1  0  0  0  0
 18 19  2  0  0  0  0
 18 42  1  0  0  0  0
 19 20  1  0  0  0  0
 21 22  1  0  0  0  0
 21 43  1  0  0  0  0
 21 44  1  0  0  0  0
 22 45  1  0  0  0  0
 22 46  1  0  0  0  0
 23 24  1  0  0  0  0
 23 47  1  0  0  0  0
 23 48  1  0  0  0  0
 24 49  1  0  0  0  0
 24 50  1  0  0  0  0
M  CHG  1   2   1
M  CHG  1   6   1
M  END
> <s_m_source_file>
AV-unprocessed.smi

> <i_m_source_file_index>
2253

> <i_lp_mmshare_version>
43012

> <i_f3d_flags>
0

> <s_epik_input>
W0NIM11OMVtDSDJdW0NIMl1bQ0hdKFtDSDJdW0NIMl0xKU4yW0NIMl1bQ0gyXVtDSF0oW0NIMl1bQ0gyXTIpW05IXUMoPU8pW05IXWMzW2NIXVtjSF1uW2NIXWMzRg==

> <s_epik_cmdline>
J2VwaWtfcHl0aG9uJywgJy1waCcsICc3LjAnLCAnLXRuJywgJzgnLCAnLW1hJywgJzIwMCcsICctbWV0YWxfYmluZGluZycsICctaW1hZScsICc8aW5maWxlLm1hZT4nLCAnLW9tYWUnLCAnPG91dGZpbGUubWFlPic=

> <r_epik_Ionization_Penalty>
0.183544

> <r_epik_Ionization_Penalty_Charging>
0.180787

> <r_epik_Ionization_Penalty_Neutral>
0.00275649

> <r_epik_State_Penalty>
0.153592

> <r_epik_Charging_Adjusted_Penalty>
0.334379

> <i_epik_Tot_Q>
2

> <i_epik_Tot_abs_Q>
2

> <r_epik_Metal_State_Penalty>
0.153693

> <b_epik_Metal_Only>
0

> <s_lp_Force_Field>
OPLS_2005

> <r_lp_Energy>
53.0851

> <b_lp_Chiralities_Consistent>
1

> <s_lp_Variant>
AV-unprocessed.smi:2253-4

> <Gold.Version>
5.8.1

> <Gold.Id.Protein>
6NUR|6NUR_protein|mol2

> <Gold.PLP.Fitness>
47.0432

> <Gold.PLP.PLP>
-34.8813

> <Gold.PLP.part.hbond>
-2.4243

> <Gold.PLP.part.metal>
0.0000

> <Gold.PLP.part.buried>
1.9309

> <Gold.PLP.part.nonpolar>
-34.2895

> <Gold.PLP.part.repulsive>
0.4355

> <Gold.PLP.ligand.clash>
0.0000

> <Gold.PLP.ligand.torsion>
1.0964

> <Gold.PLP.Chemscore.Hbond>
3.9840

> <Gold.PLP.Chemscore.CHOScore>
0.7844

> <Gold.PLP.Chemscore.Metal>
0.0000

> <Gold.Chemscore.Hbonds>
donor molecule, donor type, donor heavy atom, donor atom, acceptor molecule, acceptor atom, score
      L1  H     2    52       P1 10175  2.00
      L1  H     6    51       P1  7948  1.90
      L1  C    16    41       P1  8029  0.80

> <Gold.PLP.Chemscore.Internal.Correction>
0.0494

> <Gold.Rescore>
     Score         DG    S(hbond)    S(metal)    S(lipo)     H(rot)  DE(clash)    DE(int)     intcor
     16.42     -20.85       1.94        0.00     103.62       1.26       1.67       2.76       ----

> <Gold.Chemscore.Fitness>
16.4221

> <Gold.Chemscore.DG>
-20.8538

> <Gold.Chemscore.ZeroCoef>
-5.4800

> <Gold.Chemscore.Hbond>
1.9357

> <Gold.Chemscore.Metal>
0.0000

> <Gold.Chemscore.Lipo>
103.6199

> <Gold.Chemscore.Internal_Hbond>
0.0000

> <Gold.Chemscore.DEClash>
1.6678

> <Gold.Chemscore.DEInternal>
2.7638

> <Gold.Chemscore.Rot>
1.2559

> <Gold.Chemscore.Internal.Correction>
   9.000000E+99

> <Gold.Chemscore.Hbonds>
donor molecule, donor type, donor heavy atom, donor atom, acceptor molecule, acceptor atom, score
      L1  H     2    52       P1 10175  1.00
      L1  H     6    51       P1  7948  0.85

> <Gold.Chemscore.Hbond.Weighted>
-6.4654

> <Gold.Chemscore.Metal.Weighted>
-0.0000

> <Gold.Chemscore.Lipo.Weighted>
-12.1235

> <Gold.Chemscore.Internal_Hbond.Weighted>
0.0000

> <Gold.Chemscore.DEClash.Weighted>
1.6678

> <Gold.Chemscore.DEInternal.Weighted>
2.7638

> <Gold.Chemscore.Rot.Weighted>
3.2151

> <Gold.Chemscore.Internal.Correction.Weighted>
   9.000000E+99

> <Gold.Protein.RotatedTorsions>
[ 6907 6896 6895 6894 ] final  110.01 input  -60.11 | X-H torsion
[ 7974 7965 7964 7962 ] final   81.12 input  175.53 | X-H torsion
[ 8008 7997 7996 7995 ] final   83.39 input   59.86 | X-H torsion
[ 10167 10162 10161 10158 ] final   18.99 input  -65.29 | X-H torsion
[ 10718 10713 10712 10709 ] final   44.36 input   66.30 | X-H torsion
[ 10763 10752 10751 10750 ] final  -10.85 input  -60.55 | X-H torsion
[ 11005 11000 10999 10996 ] final  -81.00 input  -57.11 | X-H torsion

> <Gold.Protein.ActiveResidues>
 VAL166  LYS551  ARG553  GLY616  TRP617  ASP618  TYR619  PRO620  LYS621  CYS622 
 ASP623  PHE694  ASN695  SER759  ASP760  ASP761  ALA762  ILE779  LEU786  VAL792 
 PHE793  MET794  SER795  GLU796  ALA797  LYS798  CYS799  TRP800  GLU811  SER814 

> <Gold.Protein.RotatedAtoms>
  152.5040  133.8861  159.7370 H   0  0  0  0  0  0  0  0  0  0  0  0  # atno 6907 bound_to 6896
  150.9312  133.6756  159.2817 H   0  0  0  0  0  0  0  0  0  0  0  0  # atno 6908 bound_to 6896
  151.4100  135.0988  159.9635 H   0  0  0  0  0  0  0  0  0  0  0  0  # atno 6909 bound_to 6896
  145.6423  139.2428  143.2024 H   0  0  0  0  0  0  0  0  0  0  0  0  # atno 7974 bound_to 7965
  155.9233  140.3420  155.6190 H   0  0  0  0  0  0  0  0  0  0  0  0  # atno 8008 bound_to 7997
  155.7246  140.0788  157.2334 H   0  0  0  0  0  0  0  0  0  0  0  0  # atno 8009 bound_to 7997
  154.4073  140.1599  156.2428 H   0  0  0  0  0  0  0  0  0  0  0  0  # atno 8010 bound_to 7997
  140.5612  143.9333  150.6644 H   0  0  0  0  0  0  0  0  0  0  0  0  # atno 10167 bound_to 10162
  157.4260  130.7997  149.7558 H   0  0  0  0  0  0  0  0  0  0  0  0  # atno 10718 bound_to 10713
  153.4751  135.7017  153.5970 H   0  0  0  0  0  0  0  0  0  0  0  0  # atno 10763 bound_to 10752
  153.4207  135.3826  155.2110 H   0  0  0  0  0  0  0  0  0  0  0  0  # atno 10764 bound_to 10752
  154.8724  135.3927  154.4194 H   0  0  0  0  0  0  0  0  0  0  0  0  # atno 10765 bound_to 10752
  141.1667  133.7176  156.8357 H   0  0  0  0  0  0  0  0  0  0  0  0  # atno 11005 bound_to 11000
  146.1271  140.7234  142.9430 LP  0  0  0  0  0  0  0  0  0  0  0  0  # atno 17320 bound_to 7965
  144.7153  140.4186  143.7049 LP  0  0  0  0  0  0  0  0  0  0  0  0  # atno 17321 bound_to 7965
  140.2785  143.3406  152.1173 LP  0  0  0  0  0  0  0  0  0  0  0  0  # atno 17342 bound_to 10162
  139.5071  144.6826  151.5970 LP  0  0  0  0  0  0  0  0  0  0  0  0  # atno 17343 bound_to 10162
  155.9896  130.3950  150.3064 LP  0  0  0  0  0  0  0  0  0  0  0  0  # atno 17370 bound_to 10713
  157.1216  131.0248  151.3007 LP  0  0  0  0  0  0  0  0  0  0  0  0  # atno 17371 bound_to 10713
  140.2019  134.8891  157.3178 LP  0  0  0  0  0  0  0  0  0  0  0  0  # atno 17394 bound_to 11000
  140.2178  134.4060  155.7580 LP  0  0  0  0  0  0  0  0  0  0  0  0  # atno 17395 bound_to 11000

$$$$
