AV-unprocessed.smi:1260|AV-procd|sdf|5299|dock7
  -GOLD-   22720 4423D 1   1.00000     0.00000
 Structure written by MMmdl.
 37 39  0  0  0  0  0  0  0  0  2 V2000
  150.6222  140.3674  154.9820 O   0  0  0  0  0  0  0  0  0  0  0  0
  149.9547  141.3684  155.2436 C   0  0  0  0  0  0  0  0  0  0  0  0
  148.7153  141.7184  154.4147 C   0  0  0  0  0  0  0  0  0  0  0  0
  147.7262  140.6560  154.4461 N   0  0  0  0  0  0  0  0  0  0  0  0
  147.2254  139.8944  153.4711 C   0  0  0  0  0  0  0  0  0  0  0  0
  146.3312  139.0338  153.9331 N   0  0  0  0  0  0  0  0  0  0  0  0
  146.3019  139.3089  155.2901 N   0  0  0  0  0  0  0  0  0  0  0  0
  147.1284  140.2698  155.6006 N   0  0  0  0  0  0  0  0  0  0  0  0
  150.2618  142.2115  156.2411 N   0  0  0  0  0  0  0  0  0  0  0  0
  151.3976  142.0516  157.1457 C   0  0  2  0  0  0  0  0  0  0  0  0
  151.2390  140.8886  158.1169 C   0  0  0  0  0  0  0  0  0  0  0  0
  152.2536  141.2138  159.2183 C   0  0  0  0  0  0  0  0  0  0  0  0
  152.4337  142.6868  159.2171 N   0  3  2  0  0  0  0  0  0  0  0  0
  152.1884  143.3271  160.5372 C   0  0  0  0  0  0  0  0  0  0  0  0
  151.9956  144.8431  160.3848 C   0  0  0  0  0  0  0  0  0  0  0  0
  150.7662  145.1697  159.5159 C   0  0  0  0  0  0  0  0  0  0  0  0
  150.4023  144.0222  158.5538 C   0  0  0  0  0  0  0  0  0  0  0  0
  151.6582  143.2521  158.0764 C   0  0  2  0  0  0  0  0  0  0  0  0
  148.2500  142.6315  154.7891 H   0  0  0  0  0  0  0  0  0  0  0  0
  149.0125  141.9065  153.3819 H   0  0  0  0  0  0  0  0  0  0  0  0
  147.5127  139.9706  152.4326 H   0  0  0  0  0  0  0  0  0  0  0  0
  149.6674  143.0151  156.3859 H   0  0  0  0  0  0  0  0  0  0  0  0
  152.2963  141.8667  156.5530 H   0  0  0  0  0  0  0  0  0  0  0  0
  150.2313  140.8792  158.5349 H   0  0  0  0  0  0  0  0  0  0  0  0
  151.4196  139.9189  157.6520 H   0  0  0  0  0  0  0  0  0  0  0  0
  151.9337  140.8206  160.1845 H   0  0  0  0  0  0  0  0  0  0  0  0
  153.2175  140.7590  158.9874 H   0  0  0  0  0  0  0  0  0  0  0  0
  151.2995  142.8998  161.0047 H   0  0  0  0  0  0  0  0  0  0  0  0
  153.0276  143.1101  161.1989 H   0  0  0  0  0  0  0  0  0  0  0  0
  151.8983  145.3165  161.3623 H   0  0  0  0  0  0  0  0  0  0  0  0
  152.8894  145.2699  159.9276 H   0  0  0  0  0  0  0  0  0  0  0  0
  149.9055  145.3854  160.1500 H   0  0  0  0  0  0  0  0  0  0  0  0
  150.9629  146.0824  158.9523 H   0  0  0  0  0  0  0  0  0  0  0  0
  149.7250  143.3308  159.0572 H   0  0  0  0  0  0  0  0  0  0  0  0
  149.8450  144.4316  157.7110 H   0  0  0  0  0  0  0  0  0  0  0  0
  152.2995  143.9653  157.5559 H   0  0  0  0  0  0  0  0  0  0  0  0
  153.4050  142.8516  158.9941 H   0  0  0  0  0  0  0  0  0  0  0  0
  1  2  2  0  0  0  0
  2  3  1  0  0  0  0
  2  9  1  0  0  0  0
  3  4  1  0  0  0  0
  3 19  1  0  0  0  0
  3 20  1  0  0  0  0
  4  8  1  0  0  0  0
  4  5  1  0  0  0  0
  5  6  2  0  0  0  0
  5 21  1  0  0  0  0
  6  7  1  0  0  0  0
  7  8  2  0  0  0  0
  9 10  1  0  0  0  0
  9 22  1  0  0  0  0
 10 18  1  0  0  0  0
 10 11  1  0  0  0  0
 10 23  1  0  0  0  0
 11 12  1  0  0  0  0
 11 24  1  0  0  0  0
 11 25  1  0  0  0  0
 12 13  1  0  0  0  0
 12 26  1  0  0  0  0
 12 27  1  0  0  0  0
 13 18  1  0  0  0  0
 13 14  1  0  0  0  0
 13 37  1  0  0  0  0
 14 15  1  0  0  0  0
 14 28  1  0  0  0  0
 14 29  1  0  0  0  0
 15 16  1  0  0  0  0
 15 30  1  0  0  0  0
 15 31  1  0  0  0  0
 16 17  1  0  0  0  0
 16 32  1  0  0  0  0
 16 33  1  0  0  0  0
 17 18  1  0  0  0  0
 17 34  1  0  0  0  0
 17 35  1  0  0  0  0
 18 36  1  0  0  0  0
M  CHG  1  13   1
M  END
> <s_m_source_file>
AV-unprocessed.smi

> <i_m_source_file_index>
1260

> <i_lp_mmshare_version>
43012

> <i_f3d_flags>
0

> <s_epik_input>
bjFubltjSF1uMVtDSDJdQyg9TylbTkhdW0NASF0oW0NIMl1bQ0gyXTIpW0NAQEhdKE4yMylbQ0gyXVtDSDJdW0NIMl1bQ0gyXTM=

> <s_epik_cmdline>
J2VwaWtfcHl0aG9uJywgJy1waCcsICc3LjAnLCAnLXRuJywgJzgnLCAnLW1hJywgJzIwMCcsICctbWV0YWxfYmluZGluZycsICctaW1hZScsICc8aW5maWxlLm1hZT4nLCAnLW9tYWUnLCAnPG91dGZpbGUubWFlPic=

> <r_lp_tautomer_probability>
1

> <r_epik_Ionization_Penalty>
0.00234324

> <r_epik_Ionization_Penalty_Charging>
0.00233897

> <r_epik_Ionization_Penalty_Neutral>
4.26861e-06

> <r_epik_State_Penalty>
0.00161477

> <r_epik_Charging_Adjusted_Penalty>
0.00395374

> <i_epik_Tot_Q>
1

> <i_epik_Tot_abs_Q>
1

> <r_epik_Metal_State_Penalty>
-0

> <b_epik_Metal_Only>
0

> <s_lp_Force_Field>
OPLS_2005

> <r_lp_Energy>
44.1786

> <b_lp_Chiralities_Consistent>
1

> <s_lp_Variant>
AV-unprocessed.smi:1260-7

> <Gold.Version>
5.8.1

> <Gold.Id.Protein>
6NUR|6NUR_protein|mol2

> <Gold.PLP.Fitness>
42.8536

> <Gold.PLP.PLP>
-34.1011

> <Gold.PLP.part.hbond>
-2.0000

> <Gold.PLP.part.metal>
0.0000

> <Gold.PLP.part.buried>
-5.2330

> <Gold.PLP.part.nonpolar>
-26.6286

> <Gold.PLP.part.repulsive>
0.4425

> <Gold.PLP.ligand.clash>
0.0000

> <Gold.PLP.ligand.torsion>
0.0888

> <Gold.PLP.Chemscore.Hbond>
1.9760

> <Gold.PLP.Chemscore.CHOScore>
1.0000

> <Gold.PLP.Chemscore.Metal>
0.0000

> <Gold.Chemscore.Hbonds>
donor molecule, donor type, donor heavy atom, donor atom, acceptor molecule, acceptor atom, score
      L1  H     9    22       P1  8028  0.98
      P1  H  7989  7998       L1     1  1.00
      L1  C     5    21       P1  7957  1.00

> <Gold.PLP.Chemscore.Internal.Correction>
0.0021

> <Gold.Rescore>
     Score         DG    S(hbond)    S(metal)    S(lipo)     H(rot)  DE(clash)    DE(int)     intcor
     15.36     -15.55       1.60        0.00      83.72       1.98       0.08       0.11       ----

> <Gold.Chemscore.Fitness>
15.3578

> <Gold.Chemscore.DG>
-15.5469

> <Gold.Chemscore.ZeroCoef>
-5.4800

> <Gold.Chemscore.Hbond>
1.5957

> <Gold.Chemscore.Metal>
0.0000

> <Gold.Chemscore.Lipo>
83.7171

> <Gold.Chemscore.Internal_Hbond>
0.0000

> <Gold.Chemscore.DEClash>
0.0825

> <Gold.Chemscore.DEInternal>
0.1066

> <Gold.Chemscore.Rot>
1.9757

> <Gold.Chemscore.Internal.Correction>
   9.000000E+99

> <Gold.Chemscore.Hbonds>
donor molecule, donor type, donor heavy atom, donor atom, acceptor molecule, acceptor atom, score
      L1  H     9    22       P1  8028  0.89
      P1  H  7989  7998       L1     1  0.44

> <Gold.Chemscore.Hbond.Weighted>
-5.3297

> <Gold.Chemscore.Metal.Weighted>
-0.0000

> <Gold.Chemscore.Lipo.Weighted>
-9.7949

> <Gold.Chemscore.Internal_Hbond.Weighted>
0.0000

> <Gold.Chemscore.DEClash.Weighted>
0.0825

> <Gold.Chemscore.DEInternal.Weighted>
0.1066

> <Gold.Chemscore.Rot.Weighted>
5.0578

> <Gold.Chemscore.Internal.Correction.Weighted>
   9.000000E+99

> <Gold.Protein.RotatedTorsions>
[ 6907 6896 6895 6894 ] final -109.65 input  -60.11 | X-H torsion
[ 7974 7965 7964 7962 ] final -106.84 input  175.53 | X-H torsion
[ 8008 7997 7996 7995 ] final -169.11 input   59.86 | X-H torsion
[ 10167 10162 10161 10158 ] final   90.55 input  -65.29 | X-H torsion
[ 10718 10713 10712 10709 ] final -170.44 input   66.30 | X-H torsion
[ 10763 10752 10751 10750 ] final   49.66 input  -60.55 | X-H torsion
[ 11005 11000 10999 10996 ] final  144.64 input  -57.11 | X-H torsion

> <Gold.Protein.ActiveResidues>
 VAL166  LYS551  ARG553  GLY616  TRP617  ASP618  TYR619  PRO620  LYS621  CYS622 
 ASP623  PHE694  ASN695  SER759  ASP760  ASP761  ALA762  ILE779  LEU786  VAL792 
 PHE793  MET794  SER795  GLU796  ALA797  LYS798  CYS799  TRP800  GLU811  SER814 

> <Gold.Protein.RotatedAtoms>
  150.7575  133.9498  159.3481 H   0  0  0  0  0  0  0  0  0  0  0  0  # atno 6907 bound_to 6896
  151.7414  135.0851  160.0326 H   0  0  0  0  0  0  0  0  0  0  0  0  # atno 6908 bound_to 6896
  152.3526  133.6160  159.5991 H   0  0  0  0  0  0  0  0  0  0  0  0  # atno 6909 bound_to 6896
  145.2127  140.9103  143.3305 H   0  0  0  0  0  0  0  0  0  0  0  0  # atno 7974 bound_to 7965
  155.9005  140.1040  157.1353 H   0  0  0  0  0  0  0  0  0  0  0  0  # atno 8008 bound_to 7997
  154.4026  140.1293  156.4494 H   0  0  0  0  0  0  0  0  0  0  0  0  # atno 8009 bound_to 7997
  155.7428  140.3466  155.5115 H   0  0  0  0  0  0  0  0  0  0  0  0  # atno 8010 bound_to 7997
  139.8462  144.6616  150.9223 H   0  0  0  0  0  0  0  0  0  0  0  0  # atno 10167 bound_to 10162
  156.7262  130.9289  151.3101 H   0  0  0  0  0  0  0  0  0  0  0  0  # atno 10718 bound_to 10713
  152.9786  135.5904  154.4126 H   0  0  0  0  0  0  0  0  0  0  0  0  # atno 10763 bound_to 10752
  154.3759  135.2767  155.2241 H   0  0  0  0  0  0  0  0  0  0  0  0  # atno 10764 bound_to 10752
  154.4176  135.6066  153.6045 H   0  0  0  0  0  0  0  0  0  0  0  0  # atno 10765 bound_to 10752
  140.0648  134.9184  157.1246 H   0  0  0  0  0  0  0  0  0  0  0  0  # atno 11005 bound_to 11000
  144.9840  139.3755  143.6248 LP  0  0  0  0  0  0  0  0  0  0  0  0  # atno 17320 bound_to 7965
  146.3394  139.8993  142.8797 LP  0  0  0  0  0  0  0  0  0  0  0  0  # atno 17321 bound_to 7965
  140.7793  143.3868  151.1380 LP  0  0  0  0  0  0  0  0  0  0  0  0  # atno 17342 bound_to 10162
  139.7510  143.8779  152.3076 LP  0  0  0  0  0  0  0  0  0  0  0  0  # atno 17343 bound_to 10162
  157.6878  130.9203  150.0432 LP  0  0  0  0  0  0  0  0  0  0  0  0  # atno 17370 bound_to 10713
  156.1560  130.3643  149.9368 LP  0  0  0  0  0  0  0  0  0  0  0  0  # atno 17371 bound_to 10713
  140.3715  134.2385  155.7177 LP  0  0  0  0  0  0  0  0  0  0  0  0  # atno 17394 bound_to 11000
  141.1988  133.8026  157.0565 LP  0  0  0  0  0  0  0  0  0  0  0  0  # atno 17395 bound_to 11000

$$$$
