AV-unprocessed.smi:1417|AV-procd|sdf|5768|dock9
  -GOLD-   22720 5413D 1   1.00000     0.00000
 Structure written by MMmdl.
 38 39  0  0  0  0  0  0  0  0  2 V2000
  153.1282  142.7369  161.6507 C   0  0  0  0  0  0  0  0  0  0  0  0
  152.7739  142.1096  160.3458 C   0  0  0  0  0  0  0  0  0  0  0  0
  153.1733  140.9559  159.7332 C   0  0  0  0  0  0  0  0  0  0  0  0
  152.4536  140.9724  158.5072 C   0  0  0  0  0  0  0  0  0  0  0  0
  152.5016  140.0308  157.5522 N   0  5  0  0  0  0  0  0  0  0  0  0
  151.5920  140.0305  156.5502 C   0  0  0  0  0  0  0  0  0  0  0  0
  151.7994  139.7172  155.3754 O   0  0  0  0  0  0  0  0  0  0  0  0
  150.3658  140.4156  156.9336 N   0  0  0  0  0  0  0  0  0  0  0  0
  149.1872  140.5071  156.0756 C   0  0  0  0  0  0  0  0  0  0  0  0
  149.4781  141.3570  154.8286 C   0  0  0  0  0  0  0  0  0  0  0  0
  148.2065  141.5647  153.9863 C   0  0  0  0  0  0  0  0  0  0  0  0
  147.1463  142.1954  154.7880 N   0  0  0  0  0  0  0  0  0  0  0  0
  145.9222  142.4595  153.9971 C   0  0  0  0  0  0  0  0  0  0  0  0
  144.7633  143.0671  154.7952 C   0  0  0  0  0  0  0  0  0  0  0  0
  143.5900  142.4316  154.7411 N   0  0  0  0  0  0  0  0  0  0  0  0
  144.9247  144.0980  155.4445 O   0  0  0  0  0  0  0  0  0  0  0  0
  146.8031  141.3455  155.9333 C   0  0  0  0  0  0  0  0  0  0  0  0
  148.0239  141.1434  156.8473 C   0  0  0  0  0  0  0  0  0  0  0  0
  151.6719  142.0334  158.3946 N   0  0  0  0  0  0  0  0  0  0  0  0
  151.8768  142.7714  159.5666 O   0  0  0  0  0  0  0  0  0  0  0  0
  152.8530  142.0842  162.4791 H   0  0  0  0  0  0  0  0  0  0  0  0
  152.6115  143.6878  161.7838 H   0  0  0  0  0  0  0  0  0  0  0  0
  154.2003  142.9245  161.7089 H   0  0  0  0  0  0  0  0  0  0  0  0
  153.8725  140.2194  160.0995 H   0  0  0  0  0  0  0  0  0  0  0  0
  150.2436  140.6658  157.9039 H   0  0  0  0  0  0  0  0  0  0  0  0
  148.8842  139.5051  155.7651 H   0  0  0  0  0  0  0  0  0  0  0  0
  149.8796  142.3274  155.1249 H   0  0  0  0  0  0  0  0  0  0  0  0
  150.2463  140.8789  154.2197 H   0  0  0  0  0  0  0  0  0  0  0  0
  148.4684  142.1852  153.1294 H   0  0  0  0  0  0  0  0  0  0  0  0
  147.8586  140.6097  153.5885 H   0  0  0  0  0  0  0  0  0  0  0  0
  146.1600  143.1180  153.1594 H   0  0  0  0  0  0  0  0  0  0  0  0
  145.5610  141.5262  153.5625 H   0  0  0  0  0  0  0  0  0  0  0  0
  142.7964  142.8008  155.2443 H   0  0  0  0  0  0  0  0  0  0  0  0
  143.4994  141.5900  154.1907 H   0  0  0  0  0  0  0  0  0  0  0  0
  146.0047  141.8108  156.5129 H   0  0  0  0  0  0  0  0  0  0  0  0
  146.4252  140.3804  155.5912 H   0  0  0  0  0  0  0  0  0  0  0  0
  147.7493  140.5136  157.6942 H   0  0  0  0  0  0  0  0  0  0  0  0
  148.3307  142.1048  157.2629 H   0  0  0  0  0  0  0  0  0  0  0  0
  1  2  1  0  0  0  0
  1 21  1  0  0  0  0
  1 22  1  0  0  0  0
  1 23  1  0  0  0  0
  2 20  1  0  0  0  0
  2  3  2  0  0  0  0
  3  4  1  0  0  0  0
  3 24  1  0  0  0  0
  4  5  1  0  0  0  0
  4 19  2  0  0  0  0
  5  6  1  0  0  0  0
  6  7  2  0  0  0  0
  6  8  1  0  0  0  0
  8  9  1  0  0  0  0
  8 25  1  0  0  0  0
  9 18  1  0  0  0  0
  9 10  1  0  0  0  0
  9 26  1  0  0  0  0
 10 11  1  0  0  0  0
 10 27  1  0  0  0  0
 10 28  1  0  0  0  0
 11 12  1  0  0  0  0
 11 29  1  0  0  0  0
 11 30  1  0  0  0  0
 12 13  1  0  0  0  0
 12 17  1  0  0  0  0
 13 14  1  0  0  0  0
 13 31  1  0  0  0  0
 13 32  1  0  0  0  0
 14 15  1  0  0  0  0
 14 16  2  0  0  0  0
 15 33  1  0  0  0  0
 15 34  1  0  0  0  0
 17 18  1  0  0  0  0
 17 35  1  0  0  0  0
 17 36  1  0  0  0  0
 18 37  1  0  0  0  0
 18 38  1  0  0  0  0
 19 20  1  0  0  0  0
M  CHG  1   5  -1
M  END
> <s_m_source_file>
AV-unprocessed.smi

> <i_m_source_file_index>
1417

> <i_lp_mmshare_version>
43012

> <i_f3d_flags>
0

> <s_epik_input>
W0NIM11jMVtjSF1jKG5vMSlbTkhdQyg9TylbTkhdW0NIXTJbQ0gyXVtDSDJdTihbQ0gyXVtDSDJdMilbQ0gyXUMoPU8pW05IMl0=

> <s_epik_cmdline>
J2VwaWtfcHl0aG9uJywgJy1waCcsICc3LjAnLCAnLXRuJywgJzgnLCAnLW1hJywgJzIwMCcsICctbWV0YWxfYmluZGluZycsICctaW1hZScsICc8aW5maWxlLm1hZT4nLCAnLW9tYWUnLCAnPG91dGZpbGUubWFlPic=

> <r_epik_Ionization_Penalty>
6.76533

> <r_epik_Ionization_Penalty_Charging>
6.59228

> <r_epik_Ionization_Penalty_Neutral>
0.17305

> <r_epik_State_Penalty>
6.73737

> <r_epik_Charging_Adjusted_Penalty>
13.3296

> <i_epik_Tot_Q>
-1

> <i_epik_Tot_abs_Q>
1

> <r_epik_Metal_State_Penalty>
2.67929

> <b_epik_Metal_Only>
1

> <s_lp_Force_Field>
OPLS_2005

> <r_lp_Energy>
4.40981

> <b_lp_Chiralities_Consistent>
1

> <s_lp_Variant>
AV-unprocessed.smi:1417-4

> <Gold.Version>
5.8.1

> <Gold.Id.Protein>
6NUR|6NUR_protein|mol2

> <Gold.PLP.Fitness>
41.9382

> <Gold.PLP.PLP>
-33.8197

> <Gold.PLP.part.hbond>
-4.0000

> <Gold.PLP.part.metal>
0.0000

> <Gold.PLP.part.buried>
-5.1553

> <Gold.PLP.part.nonpolar>
-25.4503

> <Gold.PLP.part.repulsive>
0.3264

> <Gold.PLP.ligand.clash>
2.7581

> <Gold.PLP.ligand.torsion>
0.3749

> <Gold.PLP.Chemscore.Hbond>
3.8640

> <Gold.PLP.Chemscore.CHOScore>
0.0000

> <Gold.PLP.Chemscore.Metal>
0.0000

> <Gold.Chemscore.Hbonds>
donor molecule, donor type, donor heavy atom, donor atom, acceptor molecule, acceptor atom, score
      L1  H    15    34       P1 10175  0.70
      P1  H  7989  7998       L1     7  0.57
      P1  H  7997  8009       L1     5  1.79

> <Gold.PLP.Chemscore.Internal.Correction>
0.0345

> <Gold.Rescore>
     Score         DG    S(hbond)    S(metal)    S(lipo)     H(rot)  DE(clash)    DE(int)     intcor
     13.10     -15.24       2.38        0.00      59.29       2.00       0.03       2.11       ----

> <Gold.Chemscore.Fitness>
13.0999

> <Gold.Chemscore.DG>
-15.2418

> <Gold.Chemscore.ZeroCoef>
-5.4800

> <Gold.Chemscore.Hbond>
2.3768

> <Gold.Chemscore.Metal>
0.0000

> <Gold.Chemscore.Lipo>
59.2870

> <Gold.Chemscore.Internal_Hbond>
0.0000

> <Gold.Chemscore.DEClash>
0.0280

> <Gold.Chemscore.DEInternal>
2.1140

> <Gold.Chemscore.Rot>
1.9973

> <Gold.Chemscore.Internal.Correction>
   9.000000E+99

> <Gold.Chemscore.Hbonds>
donor molecule, donor type, donor heavy atom, donor atom, acceptor molecule, acceptor atom, score
      L1  H    15    34       P1 10175  0.07
      P1  H  7989  7998       L1     7  0.54
      P1  H  7997  8009       L1     5  0.36

> <Gold.Chemscore.Hbond.Weighted>
-7.9384

> <Gold.Chemscore.Metal.Weighted>
-0.0000

> <Gold.Chemscore.Lipo.Weighted>
-6.9366

> <Gold.Chemscore.Internal_Hbond.Weighted>
0.0000

> <Gold.Chemscore.DEClash.Weighted>
0.0280

> <Gold.Chemscore.DEInternal.Weighted>
2.1140

> <Gold.Chemscore.Rot.Weighted>
5.1131

> <Gold.Chemscore.Internal.Correction.Weighted>
   9.000000E+99

> <Gold.Protein.RotatedTorsions>
[ 6907 6896 6895 6894 ] final   24.09 input  -60.11 | X-H torsion
[ 7974 7965 7964 7962 ] final -130.85 input  175.53 | X-H torsion
[ 8008 7997 7996 7995 ] final  174.30 input   59.86 | X-H torsion
[ 10167 10162 10161 10158 ] final   55.90 input  -65.29 | X-H torsion
[ 10718 10713 10712 10709 ] final  133.59 input   66.30 | X-H torsion
[ 10763 10752 10751 10750 ] final   31.65 input  -60.55 | X-H torsion
[ 11005 11000 10999 10996 ] final -107.23 input  -57.11 | X-H torsion

> <Gold.Protein.ActiveResidues>
 VAL166  LYS551  ARG553  GLY616  TRP617  ASP618  TYR619  PRO620  LYS621  CYS622 
 ASP623  PHE694  ASN695  SER759  ASP760  ASP761  ALA762  ILE779  LEU786  VAL792 
 PHE793  MET794  SER795  GLU796  ALA797  LYS798  CYS799  TRP800  GLU811  SER814 

> <Gold.Protein.RotatedAtoms>
  151.9522  135.0163  160.0542 H   0  0  0  0  0  0  0  0  0  0  0  0  # atno 6907 bound_to 6896
  152.1943  133.4790  159.5033 H   0  0  0  0  0  0  0  0  0  0  0  0  # atno 6908 bound_to 6896
  150.6941  134.1590  159.4212 H   0  0  0  0  0  0  0  0  0  0  0  0  # atno 6909 bound_to 6896
  144.9436  140.7266  143.4831 H   0  0  0  0  0  0  0  0  0  0  0  0  # atno 7974 bound_to 7965
  156.0988  140.1438  156.9495 H   0  0  0  0  0  0  0  0  0  0  0  0  # atno 8008 bound_to 7997
  154.4689  140.0916  156.7138 H   0  0  0  0  0  0  0  0  0  0  0  0  # atno 8009 bound_to 7997
  155.4795  140.3444  155.4340 H   0  0  0  0  0  0  0  0  0  0  0  0  # atno 8010 bound_to 7997
  140.2145  144.3854  150.6475 H   0  0  0  0  0  0  0  0  0  0  0  0  # atno 10167 bound_to 10162
  157.4758  131.1083  150.9745 H   0  0  0  0  0  0  0  0  0  0  0  0  # atno 10718 bound_to 10713
  153.0304  135.6433  154.1232 H   0  0  0  0  0  0  0  0  0  0  0  0  # atno 10763 bound_to 10752
  154.0955  135.2863  155.3264 H   0  0  0  0  0  0  0  0  0  0  0  0  # atno 10764 bound_to 10752
  154.6435  135.5451  153.7881 H   0  0  0  0  0  0  0  0  0  0  0  0  # atno 10765 bound_to 10752
  141.0964  133.8963  157.1951 H   0  0  0  0  0  0  0  0  0  0  0  0  # atno 11005 bound_to 11000
  145.2953  139.1869  143.4718 LP  0  0  0  0  0  0  0  0  0  0  0  0  # atno 17320 bound_to 7965
  146.3295  140.2936  142.8616 LP  0  0  0  0  0  0  0  0  0  0  0  0  # atno 17321 bound_to 7965
  140.6300  143.2186  151.6516 LP  0  0  0  0  0  0  0  0  0  0  0  0  # atno 17342 bound_to 10162
  139.5167  144.3337  152.0803 LP  0  0  0  0  0  0  0  0  0  0  0  0  # atno 17343 bound_to 10162
  157.0495  130.5781  149.5368 LP  0  0  0  0  0  0  0  0  0  0  0  0  # atno 17370 bound_to 10713
  156.0096  130.5186  150.7944 LP  0  0  0  0  0  0  0  0  0  0  0  0  # atno 17371 bound_to 10713
  139.9802  135.0100  156.9731 LP  0  0  0  0  0  0  0  0  0  0  0  0  # atno 17394 bound_to 11000
  140.5129  134.0984  155.7274 LP  0  0  0  0  0  0  0  0  0  0  0  0  # atno 17395 bound_to 11000

$$$$
