AV-unprocessed.smi:1665|AV-procd|sdf|6669|dock3
  -GOLD-   22720 7383D 1   1.00000     0.00000
 Structure written by MMmdl.
 37 38  0  0  0  0  0  0  0  0  1 V2000
  152.5137  145.2515  158.5974 C   0  0  0  0  0  0  0  0  0  0  0  0
  151.2555  144.5630  159.1496 C   0  0  2  0  0  0  0  0  0  0  0  0
  151.4851  144.0359  160.5789 C   0  0  0  0  0  0  0  0  0  0  0  0
  152.4769  142.9758  160.6271 N   0  0  0  0  0  0  0  0  0  0  0  0
  152.9552  142.2996  161.7293 C   0  0  0  0  0  0  0  0  0  0  0  0
  153.8740  141.3940  161.2823 C   0  0  0  0  0  0  0  0  0  0  0  0
  153.8882  141.5939  159.8735 C   0  0  0  0  0  0  0  0  0  0  0  0
  153.0488  142.5389  159.4841 N   0  0  0  0  0  0  0  0  0  0  0  0
  150.8524  143.4671  158.2710 N   0  0  0  0  0  0  0  0  0  0  0  0
  149.7016  142.7844  158.3584 C   0  0  0  0  0  0  0  0  0  0  0  0
  148.8112  143.0564  159.1638 O   0  0  0  0  0  0  0  0  0  0  0  0
  149.5368  141.6029  157.3975 C   0  0  0  0  0  0  0  0  0  0  0  0
  150.6233  141.5507  156.3011 C   0  0  0  0  0  0  0  0  0  0  0  0
  150.5219  140.3664  155.4446 N   0  0  0  0  0  0  0  0  0  0  0  0
  149.3915  140.2258  154.5370 C   0  0  0  0  0  0  0  0  0  0  0  0
  149.3655  138.7729  154.0604 C   0  0  0  0  0  0  0  0  0  0  0  0
  151.0488  138.1360  154.1834 S   0  0  0  0  0  0  0  0  0  0  0  0
  151.5222  139.4074  155.3607 C   0  0  0  0  0  0  0  0  0  0  0  0
  152.5919  139.3774  155.9663 O   0  0  0  0  0  0  0  0  0  0  0  0
  152.8116  146.0869  159.2311 H   0  0  0  0  0  0  0  0  0  0  0  0
  152.3435  145.6468  157.5954 H   0  0  0  0  0  0  0  0  0  0  0  0
  153.3540  144.5583  158.5434 H   0  0  0  0  0  0  0  0  0  0  0  0
  150.4516  145.3008  159.1878 H   0  0  0  0  0  0  0  0  0  0  0  0
  151.7935  144.8454  161.2429 H   0  0  0  0  0  0  0  0  0  0  0  0
  150.5538  143.6398  160.9854 H   0  0  0  0  0  0  0  0  0  0  0  0
  152.6051  142.5165  162.7277 H   0  0  0  0  0  0  0  0  0  0  0  0
  154.4469  140.6927  161.8707 H   0  0  0  0  0  0  0  0  0  0  0  0
  154.4746  141.0790  159.1268 H   0  0  0  0  0  0  0  0  0  0  0  0
  151.5264  143.1699  157.5799 H   0  0  0  0  0  0  0  0  0  0  0  0
  149.5679  140.6835  157.9828 H   0  0  0  0  0  0  0  0  0  0  0  0
  148.5476  141.6356  156.9385 H   0  0  0  0  0  0  0  0  0  0  0  0
  150.5716  142.4505  155.6863 H   0  0  0  0  0  0  0  0  0  0  0  0
  151.6103  141.5679  156.7653 H   0  0  0  0  0  0  0  0  0  0  0  0
  148.4519  140.5001  155.0176 H   0  0  0  0  0  0  0  0  0  0  0  0
  149.5419  140.8998  153.6926 H   0  0  0  0  0  0  0  0  0  0  0  0
  148.7334  138.1778  154.7203 H   0  0  0  0  0  0  0  0  0  0  0  0
  148.9764  138.6749  153.0469 H   0  0  0  0  0  0  0  0  0  0  0  0
  1  2  1  0  0  0  0
  1 20  1  0  0  0  0
  1 21  1  0  0  0  0
  1 22  1  0  0  0  0
  2  3  1  0  0  0  0
  2  9  1  0  0  0  0
  2 23  1  0  0  0  0
  3  4  1  0  0  0  0
  3 24  1  0  0  0  0
  3 25  1  0  0  0  0
  4  8  1  0  0  0  0
  4  5  1  0  0  0  0
  5  6  2  0  0  0  0
  5 26  1  0  0  0  0
  6  7  1  0  0  0  0
  6 27  1  0  0  0  0
  7  8  2  0  0  0  0
  7 28  1  0  0  0  0
  9 10  1  0  0  0  0
  9 29  1  0  0  0  0
 10 11  2  0  0  0  0
 10 12  1  0  0  0  0
 12 13  1  0  0  0  0
 12 30  1  0  0  0  0
 12 31  1  0  0  0  0
 13 14  1  0  0  0  0
 13 32  1  0  0  0  0
 13 33  1  0  0  0  0
 14 18  1  0  0  0  0
 14 15  1  0  0  0  0
 15 16  1  0  0  0  0
 15 34  1  0  0  0  0
 15 35  1  0  0  0  0
 16 17  1  0  0  0  0
 16 36  1  0  0  0  0
 16 37  1  0  0  0  0
 17 18  1  0  0  0  0
 18 19  2  0  0  0  0
M  END
> <s_m_source_file>
AV-unprocessed.smi

> <i_m_source_file_index>
1665

> <i_lp_mmshare_version>
43012

> <i_f3d_flags>
0

> <s_epik_input>
bjFbY0hdW2NIXVtjSF1uMVtDSDJdW0NAQEhdKFtDSDNdKVtOSF1DKD1PKVtDSDJdW0NIMl1OMltDSDJdW0NIMl1TQzI9Tw==

> <s_epik_cmdline>
J2VwaWtfcHl0aG9uJywgJy1waCcsICc3LjAnLCAnLXRuJywgJzgnLCAnLW1hJywgJzIwMCcsICctbWV0YWxfYmluZGluZycsICctaW1hZScsICc8aW5maWxlLm1hZT4nLCAnLW9tYWUnLCAnPG91dGZpbGUubWFlPic=

> <r_lp_tautomer_probability>
1

> <r_epik_Ionization_Penalty>
0.000300775

> <r_epik_Ionization_Penalty_Charging>
0

> <r_epik_Ionization_Penalty_Neutral>
0.000300775

> <r_epik_State_Penalty>
-0

> <r_epik_Charging_Adjusted_Penalty>
0

> <i_epik_Tot_Q>
0

> <i_epik_Tot_abs_Q>
0

> <r_epik_Metal_State_Penalty>
-0

> <b_epik_Metal_Only>
0

> <s_lp_Force_Field>
OPLS_2005

> <r_lp_Energy>
0.465271

> <b_lp_Chiralities_Consistent>
1

> <s_lp_Variant>
AV-unprocessed.smi:1665-1

> <Gold.Version>
5.8.1

> <Gold.Id.Protein>
6NUR|6NUR_protein|mol2

> <Gold.PLP.Fitness>
51.1491

> <Gold.PLP.PLP>
-48.3078

> <Gold.PLP.part.hbond>
-2.0000

> <Gold.PLP.part.metal>
0.0000

> <Gold.PLP.part.buried>
-6.6743

> <Gold.PLP.part.nonpolar>
-39.3434

> <Gold.PLP.part.repulsive>
0.1656

> <Gold.PLP.ligand.clash>
0.0000

> <Gold.PLP.ligand.torsion>
0.2209

> <Gold.PLP.Chemscore.Hbond>
1.0655

> <Gold.PLP.Chemscore.CHOScore>
0.0000

> <Gold.PLP.Chemscore.Metal>
0.0000

> <Gold.Chemscore.Hbonds>
donor molecule, donor type, donor heavy atom, donor atom, acceptor molecule, acceptor atom, score
      P1  H  6933  6944       L1    11  0.05
      P1  H  7997  8010       L1    19  1.00

> <Gold.PLP.Chemscore.Internal.Correction>
0.0866

> <Gold.Rescore>
     Score         DG    S(hbond)    S(metal)    S(lipo)     H(rot)  DE(clash)    DE(int)     intcor
     14.71     -15.67       1.25        0.00      99.66       2.20       0.00       0.96       ----

> <Gold.Chemscore.Fitness>
14.7067

> <Gold.Chemscore.DG>
-15.6706

> <Gold.Chemscore.ZeroCoef>
-5.4800

> <Gold.Chemscore.Hbond>
1.2484

> <Gold.Chemscore.Metal>
0.0000

> <Gold.Chemscore.Lipo>
99.6560

> <Gold.Chemscore.Internal_Hbond>
0.0000

> <Gold.Chemscore.DEClash>
0.0038

> <Gold.Chemscore.DEInternal>
0.9602

> <Gold.Chemscore.Rot>
2.2026

> <Gold.Chemscore.Internal.Correction>
   9.000000E+99

> <Gold.Chemscore.Hbonds>
donor molecule, donor type, donor heavy atom, donor atom, acceptor molecule, acceptor atom, score
      P1  H  6933  6944       L1    11  0.06
      P1  H  7997  8010       L1    19  0.98

> <Gold.Chemscore.Hbond.Weighted>
-4.1696

> <Gold.Chemscore.Metal.Weighted>
-0.0000

> <Gold.Chemscore.Lipo.Weighted>
-11.6597

> <Gold.Chemscore.Internal_Hbond.Weighted>
0.0000

> <Gold.Chemscore.DEClash.Weighted>
0.0038

> <Gold.Chemscore.DEInternal.Weighted>
0.9602

> <Gold.Chemscore.Rot.Weighted>
5.6387

> <Gold.Chemscore.Internal.Correction.Weighted>
   9.000000E+99

> <Gold.Protein.RotatedTorsions>
[ 6907 6896 6895 6894 ] final -100.30 input  -60.11 | X-H torsion
[ 7974 7965 7964 7962 ] final  -32.69 input  175.53 | X-H torsion
[ 8008 7997 7996 7995 ] final   95.09 input   59.86 | X-H torsion
[ 10167 10162 10161 10158 ] final   78.09 input  -65.29 | X-H torsion
[ 10718 10713 10712 10709 ] final  101.08 input   66.30 | X-H torsion
[ 10763 10752 10751 10750 ] final   44.65 input  -60.55 | X-H torsion
[ 11005 11000 10999 10996 ] final   53.74 input  -57.11 | X-H torsion

> <Gold.Protein.ActiveResidues>
 VAL166  LYS551  ARG553  GLY616  TRP617  ASP618  TYR619  PRO620  LYS621  CYS622 
 ASP623  PHE694  ASN695  SER759  ASP760  ASP761  ALA762  ILE779  LEU786  VAL792 
 PHE793  MET794  SER795  GLU796  ALA797  LYS798  CYS799  TRP800  GLU811  SER814 

> <Gold.Protein.RotatedAtoms>
  150.7111  134.0908  159.3930 H   0  0  0  0  0  0  0  0  0  0  0  0  # atno 6907 bound_to 6896
  151.8894  135.0420  160.0505 H   0  0  0  0  0  0  0  0  0  0  0  0  # atno 6908 bound_to 6896
  152.2504  133.5174  159.5358 H   0  0  0  0  0  0  0  0  0  0  0  0  # atno 6909 bound_to 6896
  146.0970  140.5824  142.8838 H   0  0  0  0  0  0  0  0  0  0  0  0  # atno 7974 bound_to 7965
  156.0651  140.3291  155.7508 H   0  0  0  0  0  0  0  0  0  0  0  0  # atno 8008 bound_to 7997
  155.5394  140.0600  157.2890 H   0  0  0  0  0  0  0  0  0  0  0  0  # atno 8009 bound_to 7997
  154.4501  140.1913  156.0564 H   0  0  0  0  0  0  0  0  0  0  0  0  # atno 8010 bound_to 7997
  139.9746  144.5870  150.7954 H   0  0  0  0  0  0  0  0  0  0  0  0  # atno 10167 bound_to 10162
  157.6838  131.0716  150.5198 H   0  0  0  0  0  0  0  0  0  0  0  0  # atno 10718 bound_to 10713
  152.9837  135.6064  154.3308 H   0  0  0  0  0  0  0  0  0  0  0  0  # atno 10763 bound_to 10752
  154.3012  135.2773  155.2612 H   0  0  0  0  0  0  0  0  0  0  0  0  # atno 10764 bound_to 10752
  154.4864  135.5904  153.6483 H   0  0  0  0  0  0  0  0  0  0  0  0  # atno 10765 bound_to 10752
  140.0743  134.5426  155.9013 H   0  0  0  0  0  0  0  0  0  0  0  0  # atno 11005 bound_to 11000
  144.7403  140.4923  143.6874 LP  0  0  0  0  0  0  0  0  0  0  0  0  # atno 17320 bound_to 7965
  145.5929  139.1497  143.3172 LP  0  0  0  0  0  0  0  0  0  0  0  0  # atno 17321 bound_to 7965
  140.7510  143.2965  151.3191 LP  0  0  0  0  0  0  0  0  0  0  0  0  # atno 17342 bound_to 10162
  139.6455  144.0459  152.2587 LP  0  0  0  0  0  0  0  0  0  0  0  0  # atno 17343 bound_to 10162
  156.5511  130.4232  149.6107 LP  0  0  0  0  0  0  0  0  0  0  0  0  # atno 17370 bound_to 10713
  156.2901  130.7119  151.1966 LP  0  0  0  0  0  0  0  0  0  0  0  0  # atno 17371 bound_to 10713
  141.2023  133.6624  156.6001 LP  0  0  0  0  0  0  0  0  0  0  0  0  # atno 17394 bound_to 11000
  140.3581  134.7711  157.4514 LP  0  0  0  0  0  0  0  0  0  0  0  0  # atno 17395 bound_to 11000

$$$$
