AV-unprocessed.smi:2424|AV-procd|sdf|9568|dock10
  -GOLD-   2272013203D 1   1.00000     0.00000
 Structure written by MMmdl.
 49 50  0  0  0  0  0  0  0  0  2 V2000
  149.8937  138.9002  157.9696 C   0  0  0  0  0  0  0  0  0  0  0  0
  151.0544  138.5409  157.0287 C   0  0  0  0  0  0  0  0  0  0  0  0
  150.7480  138.6692  155.5186 C   0  0  0  0  0  0  0  0  0  0  0  0
  151.8749  137.9690  154.7137 C   0  0  0  0  0  0  0  0  0  0  0  0
  153.2274  138.7006  154.7042 C   0  0  0  0  0  0  0  0  0  0  0  0
  149.2887  138.3170  155.1205 C   0  0  2  0  0  0  0  0  0  0  0  0
  149.1368  137.0244  154.4575 N   0  0  0  0  0  0  0  0  0  0  0  0
  149.3811  135.8331  155.0190 C   0  0  0  0  0  0  0  0  0  0  0  0
  149.7436  135.6972  156.1871 O   0  0  0  0  0  0  0  0  0  0  0  0
  149.1760  134.8400  154.1361 N   0  0  0  0  0  0  0  0  0  0  0  0
  149.3592  133.4625  154.3107 C   0  0  0  0  0  0  0  0  0  0  0  0
  150.4018  132.9911  155.0823 C   0  0  0  0  0  0  0  0  0  0  0  0
  150.7368  131.7137  155.3656 N   0  5  0  0  0  0  0  0  0  0  0  0
  149.9673  130.7167  154.8421 C   0  0  0  0  0  0  0  0  0  0  0  0
  150.2136  129.5298  155.0538 O   0  0  0  0  0  0  0  0  0  0  0  0
  148.8083  131.0784  154.0011 C   0  0  0  0  0  0  0  0  0  0  0  0
  147.9479  129.9655  153.4273 C   0  0  0  0  0  0  0  0  0  0  0  0
  148.5359  132.3856  153.7610 C   0  0  0  0  0  0  0  0  0  0  0  0
  149.2914  139.4814  154.1261 C   0  0  1  0  0  0  0  0  0  0  0  0
  148.0052  140.2508  153.8532 C   0  0  0  0  0  0  0  0  0  0  0  0
  150.3916  140.0968  155.0053 C   0  0  1  0  0  0  0  0  0  0  0  0
  149.8222  140.9474  155.9941 O   0  0  0  0  0  0  0  0  0  0  0  0
  150.7932  141.5408  156.8396 C   0  0  0  0  0  0  0  0  0  0  0  0
  150.2252  138.8748  159.0078 H   0  0  0  0  0  0  0  0  0  0  0  0
  149.0626  138.2013  157.8820 H   0  0  0  0  0  0  0  0  0  0  0  0
  149.5166  139.9030  157.7746 H   0  0  0  0  0  0  0  0  0  0  0  0
  151.8818  139.2013  157.2891 H   0  0  0  0  0  0  0  0  0  0  0  0
  151.4133  137.5416  157.2708 H   0  0  0  0  0  0  0  0  0  0  0  0
  152.0264  136.9486  155.0644 H   0  0  0  0  0  0  0  0  0  0  0  0
  151.5703  137.8535  153.6736 H   0  0  0  0  0  0  0  0  0  0  0  0
  153.9208  138.2087  154.0220 H   0  0  0  0  0  0  0  0  0  0  0  0
  153.6961  138.7014  155.6878 H   0  0  0  0  0  0  0  0  0  0  0  0
  153.1251  139.7351  154.3771 H   0  0  0  0  0  0  0  0  0  0  0  0
  148.5821  138.4956  155.9348 H   0  0  0  0  0  0  0  0  0  0  0  0
  148.8376  137.0402  153.4937 H   0  0  0  0  0  0  0  0  0  0  0  0
  148.8514  135.1112  153.2196 H   0  0  0  0  0  0  0  0  0  0  0  0
  151.0697  133.7547  155.5366 H   0  0  0  0  0  0  0  0  0  0  0  0
  147.1242  130.3638  152.8343 H   0  0  0  0  0  0  0  0  0  0  0  0
  147.5238  129.3596  154.2285 H   0  0  0  0  0  0  0  0  0  0  0  0
  148.5437  129.3176  152.7836 H   0  0  0  0  0  0  0  0  0  0  0  0
  147.6775  132.6116  153.1499 H   0  0  0  0  0  0  0  0  0  0  0  0
  149.7399  139.1662  153.1820 H   0  0  0  0  0  0  0  0  0  0  0  0
  147.5022  140.5348  154.7778 H   0  0  0  0  0  0  0  0  0  0  0  0
  147.3051  139.6492  153.2732 H   0  0  0  0  0  0  0  0  0  0  0  0
  148.2035  141.1627  153.2900 H   0  0  0  0  0  0  0  0  0  0  0  0
  151.1636  140.5847  154.4078 H   0  0  0  0  0  0  0  0  0  0  0  0
  150.2966  142.1405  157.6022 H   0  0  0  0  0  0  0  0  0  0  0  0
  151.4531  142.1984  156.2725 H   0  0  0  0  0  0  0  0  0  0  0  0
  151.4018  140.7906  157.3441 H   0  0  0  0  0  0  0  0  0  0  0  0
  1  2  1  0  0  0  0
  1 24  1  0  0  0  0
  1 25  1  0  0  0  0
  1 26  1  0  0  0  0
  2  3  1  0  0  0  0
  2 27  1  0  0  0  0
  2 28  1  0  0  0  0
  3 21  1  0  0  0  0
  3  4  1  0  0  0  0
  3  6  1  0  0  0  0
  4  5  1  0  0  0  0
  4 29  1  0  0  0  0
  4 30  1  0  0  0  0
  5 31  1  0  0  0  0
  5 32  1  0  0  0  0
  5 33  1  0  0  0  0
  6  7  1  0  0  0  0
  6 19  1  0  0  0  0
  6 34  1  0  0  0  0
  7  8  1  0  0  0  0
  7 35  1  0  0  0  0
  8  9  2  0  0  0  0
  8 10  1  0  0  0  0
 10 11  1  0  0  0  0
 10 36  1  0  0  0  0
 11 18  1  0  0  0  0
 11 12  2  0  0  0  0
 12 13  1  0  0  0  0
 12 37  1  0  0  0  0
 13 14  1  0  0  0  0
 14 15  2  0  0  0  0
 14 16  1  0  0  0  0
 16 17  1  0  0  0  0
 16 18  2  0  0  0  0
 17 38  1  0  0  0  0
 17 39  1  0  0  0  0
 17 40  1  0  0  0  0
 18 41  1  0  0  0  0
 19 20  1  0  0  0  0
 19 21  1  0  0  0  0
 19 42  1  0  0  0  0
 20 43  1  0  0  0  0
 20 44  1  0  0  0  0
 20 45  1  0  0  0  0
 21 22  1  0  0  0  0
 21 46  1  0  0  0  0
 22 23  1  0  0  0  0
 23 47  1  0  0  0  0
 23 48  1  0  0  0  0
 23 49  1  0  0  0  0
M  CHG  1  13  -1
M  END
> <s_m_source_file>
AV-unprocessed.smi

> <i_m_source_file_index>
2424

> <i_lp_mmshare_version>
43012

> <i_f3d_flags>
0

> <s_epik_input>
W0NIM11PW0NAQEhdMVtDQEhdKFtDSDNdKVtDQEBIXShDMShbQ0gyXVtDSDNdKVtDSDJdW0NIM10pW05IXUMoPU8pW05IXWMyW2NIXVtuSF1jKD1PKWMoW0NIM10pW2NIXTI=

> <s_epik_cmdline>
J2VwaWtfcHl0aG9uJywgJy1waCcsICc3LjAnLCAnLXRuJywgJzgnLCAnLW1hJywgJzIwMCcsICctbWV0YWxfYmluZGluZycsICctaW1hZScsICc8aW5maWxlLm1hZT4nLCAnLW9tYWUnLCAnPG91dGZpbGUubWFlPic=

> <r_lp_tautomer_probability>
1

> <r_epik_Ionization_Penalty>
7.6122

> <r_epik_Ionization_Penalty_Charging>
1.53843

> <r_epik_Ionization_Penalty_Neutral>
6.07377

> <r_epik_State_Penalty>
6.07371

> <r_epik_Charging_Adjusted_Penalty>
7.61214

> <i_epik_Tot_Q>
-1

> <i_epik_Tot_abs_Q>
1

> <r_epik_Metal_State_Penalty>
2.02136

> <b_epik_Metal_Only>
1

> <s_lp_Force_Field>
OPLS_2005

> <r_lp_Energy>
41.6495

> <b_lp_Chiralities_Consistent>
1

> <s_lp_Variant>
AV-unprocessed.smi:2424-10

> <Gold.Version>
5.8.1

> <Gold.Id.Protein>
6NUR|6NUR_protein|mol2

> <Gold.PLP.Fitness>
39.5324

> <Gold.PLP.PLP>
-34.8069

> <Gold.PLP.part.hbond>
-2.0000

> <Gold.PLP.part.metal>
0.0000

> <Gold.PLP.part.buried>
0.0137

> <Gold.PLP.part.nonpolar>
-31.4287

> <Gold.PLP.part.repulsive>
0.1441

> <Gold.PLP.ligand.clash>
0.0000

> <Gold.PLP.ligand.torsion>
0.8244

> <Gold.PLP.Chemscore.Hbond>
1.8880

> <Gold.PLP.Chemscore.CHOScore>
0.0000

> <Gold.PLP.Chemscore.Metal>
0.0000

> <Gold.Chemscore.Hbonds>
donor molecule, donor type, donor heavy atom, donor atom, acceptor molecule, acceptor atom, score
      L1  H     7    35       P1  7948  0.91
      L1  H    10    36       P1  7948  0.98

> <Gold.PLP.Chemscore.Internal.Correction>
0.7103

> <Gold.Rescore>
     Score         DG    S(hbond)    S(metal)    S(lipo)     H(rot)  DE(clash)    DE(int)     intcor
     14.15     -16.48       1.76        0.00      77.06       1.52       0.04       2.30       ----

> <Gold.Chemscore.Fitness>
14.1465

> <Gold.Chemscore.DG>
-16.4796

> <Gold.Chemscore.ZeroCoef>
-5.4800

> <Gold.Chemscore.Hbond>
1.7591

> <Gold.Chemscore.Metal>
0.0000

> <Gold.Chemscore.Lipo>
77.0646

> <Gold.Chemscore.Internal_Hbond>
0.0000

> <Gold.Chemscore.DEClash>
0.0352

> <Gold.Chemscore.DEInternal>
2.2978

> <Gold.Chemscore.Rot>
1.5204

> <Gold.Chemscore.Internal.Correction>
   9.000000E+99

> <Gold.Chemscore.Hbonds>
donor molecule, donor type, donor heavy atom, donor atom, acceptor molecule, acceptor atom, score
      L1  H     7    35       P1  7948  0.88
      L1  H    10    36       P1  7948  0.41

> <Gold.Chemscore.Hbond.Weighted>
-5.8752

> <Gold.Chemscore.Metal.Weighted>
-0.0000

> <Gold.Chemscore.Lipo.Weighted>
-9.0166

> <Gold.Chemscore.Internal_Hbond.Weighted>
0.0000

> <Gold.Chemscore.DEClash.Weighted>
0.0352

> <Gold.Chemscore.DEInternal.Weighted>
2.2978

> <Gold.Chemscore.Rot.Weighted>
3.8922

> <Gold.Chemscore.Internal.Correction.Weighted>
   9.000000E+99

> <Gold.Protein.RotatedTorsions>
[ 6907 6896 6895 6894 ] final  -32.67 input  -60.11 | X-H torsion
[ 7974 7965 7964 7962 ] final  166.53 input  175.53 | X-H torsion
[ 8008 7997 7996 7995 ] final -167.99 input   59.86 | X-H torsion
[ 10167 10162 10161 10158 ] final -169.16 input  -65.29 | X-H torsion
[ 10718 10713 10712 10709 ] final  142.42 input   66.30 | X-H torsion
[ 10763 10752 10751 10750 ] final  159.24 input  -60.55 | X-H torsion
[ 11005 11000 10999 10996 ] final  116.53 input  -57.11 | X-H torsion

> <Gold.Protein.ActiveResidues>
 VAL166  LYS551  ARG553  GLY616  TRP617  ASP618  TYR619  PRO620  LYS621  CYS622 
 ASP623  PHE694  ASN695  SER759  ASP760  ASP761  ALA762  ILE779  LEU786  VAL792 
 PHE793  MET794  SER795  GLU796  ALA797  LYS798  CYS799  TRP800  GLU811  SER814 

> <Gold.Protein.RotatedAtoms>
  151.0757  134.9827  159.8330 H   0  0  0  0  0  0  0  0  0  0  0  0  # atno 6907 bound_to 6896
  152.5414  134.2244  159.8810 H   0  0  0  0  0  0  0  0  0  0  0  0  # atno 6908 bound_to 6896
  151.2271  133.4427  159.2636 H   0  0  0  0  0  0  0  0  0  0  0  0  # atno 6909 bound_to 6896
  144.7459  139.8628  143.6382 H   0  0  0  0  0  0  0  0  0  0  0  0  # atno 7974 bound_to 7965
  155.8853  140.1016  157.1456 H   0  0  0  0  0  0  0  0  0  0  0  0  # atno 8008 bound_to 7997
  154.4009  140.1321  156.4312 H   0  0  0  0  0  0  0  0  0  0  0  0  # atno 8009 bound_to 7997
  155.7595  140.3463  155.5193 H   0  0  0  0  0  0  0  0  0  0  0  0  # atno 8010 bound_to 7997
  139.5940  144.1152  152.1668 H   0  0  0  0  0  0  0  0  0  0  0  0  # atno 10167 bound_to 10162
  157.3808  131.0992  151.0741 H   0  0  0  0  0  0  0  0  0  0  0  0  # atno 10718 bound_to 10713
  154.2287  135.2779  155.2898 H   0  0  0  0  0  0  0  0  0  0  0  0  # atno 10763 bound_to 10752
  154.5641  135.5638  153.7038 H   0  0  0  0  0  0  0  0  0  0  0  0  # atno 10764 bound_to 10752
  153.0025  135.6305  154.2429 H   0  0  0  0  0  0  0  0  0  0  0  0  # atno 10765 bound_to 10752
  139.9044  134.9599  156.7213 H   0  0  0  0  0  0  0  0  0  0  0  0  # atno 11005 bound_to 11000
  146.1336  139.4377  143.0153 LP  0  0  0  0  0  0  0  0  0  0  0  0  # atno 17320 bound_to 7965
  145.7125  141.0101  143.1445 LP  0  0  0  0  0  0  0  0  0  0  0  0  # atno 17321 bound_to 7965
  140.0733  144.5761  150.7176 LP  0  0  0  0  0  0  0  0  0  0  0  0  # atno 17342 bound_to 10162
  140.7197  143.2577  151.4320 LP  0  0  0  0  0  0  0  0  0  0  0  0  # atno 17343 bound_to 10162
  157.1810  130.6309  149.5672 LP  0  0  0  0  0  0  0  0  0  0  0  0  # atno 17370 bound_to 10713
  155.9775  130.4753  150.6599 LP  0  0  0  0  0  0  0  0  0  0  0  0  # atno 17371 bound_to 10713
  140.6998  133.9316  155.8017 LP  0  0  0  0  0  0  0  0  0  0  0  0  # atno 17394 bound_to 11000
  141.0380  134.0662  157.3936 LP  0  0  0  0  0  0  0  0  0  0  0  0  # atno 17395 bound_to 11000

$$$$
