AV-unprocessed.smi:194|AV-procd|sdf|1523|dock7
  -GOLD-   2262019363D 1   1.00000     0.00000
 Structure written by MMmdl.
 53 55  0  0  0  0  0  0  0  0  1 V2000
  147.0863  134.0952  158.9824 C   0  0  0  0  0  0  0  0  0  0  0  0
  146.6968  135.5124  159.4653 C   0  0  1  0  0  0  0  0  0  0  0  0
  147.7899  136.0857  160.3988 C   0  0  0  0  0  0  0  0  0  0  0  0
  147.0249  136.8190  161.9274 S   0  0  2  0  0  0  0  0  0  0  0  0
  146.2163  135.2615  162.5242 C   0  0  0  0  0  0  0  0  0  0  0  0
  145.8979  137.7483  161.4731 O   0  0  0  0  0  0  0  0  0  0  0  0
  146.3570  136.4301  158.3655 N   0  0  0  0  0  0  0  0  0  0  0  0
  146.0780  137.8204  158.7133 C   0  0  0  0  0  0  0  0  0  0  0  0
  145.4360  135.9785  157.4850 C   0  0  0  0  0  0  0  0  0  0  0  0
  144.2779  135.4892  157.9916 N   0  0  0  0  0  0  0  0  0  0  0  0
  143.3295  135.0350  157.1669 C   0  0  0  0  0  0  0  0  0  0  0  0
  143.3399  134.9770  155.8332 N   0  0  0  0  0  0  0  0  0  0  0  0
  144.5108  135.4556  155.3224 C   0  0  0  0  0  0  0  0  0  0  0  0
  145.6037  135.9746  156.0716 C   0  0  0  0  0  0  0  0  0  0  0  0
  146.6191  136.3787  155.2142 N   0  0  0  0  0  0  0  0  0  0  0  0
  146.1486  136.1227  154.0244 C   0  0  0  0  0  0  0  0  0  0  0  0
  144.8965  135.5497  153.9955 N   0  0  0  0  0  0  0  0  0  0  0  0
  144.1392  135.1747  152.8099 C   0  0  0  0  0  0  0  0  0  0  0  0
  144.8652  134.2246  151.8093 C   0  0  0  0  0  0  0  0  0  0  0  0
  145.7156  135.0374  150.7875 C   0  0  0  0  0  0  0  0  0  0  0  0
  144.9477  135.8603  149.9328 O   0  0  0  0  0  0  0  0  0  0  0  0
  145.7182  133.1685  152.5579 C   0  0  0  0  0  0  0  0  0  0  0  0
  146.1887  132.0282  151.6394 C   0  0  0  0  0  0  0  0  0  0  0  0
  145.0620  131.3894  151.0538 O   0  0  0  0  0  0  0  0  0  0  0  0
  144.3021  132.2596  150.2255 C   0  0  0  0  0  0  0  0  0  0  0  0
  143.7615  133.4455  151.0487 C   0  0  0  0  0  0  0  0  0  0  0  0
  147.3999  133.4704  159.8191 H   0  0  0  0  0  0  0  0  0  0  0  0
  147.9057  134.1232  158.2638 H   0  0  0  0  0  0  0  0  0  0  0  0
  146.2506  133.5823  158.5063 H   0  0  0  0  0  0  0  0  0  0  0  0
  145.8007  135.4060  160.0771 H   0  0  0  0  0  0  0  0  0  0  0  0
  148.5166  135.3253  160.6837 H   0  0  0  0  0  0  0  0  0  0  0  0
  148.3474  136.8650  159.8782 H   0  0  0  0  0  0  0  0  0  0  0  0
  146.9619  134.4842  162.6919 H   0  0  0  0  0  0  0  0  0  0  0  0
  145.4955  134.9013  161.7901 H   0  0  0  0  0  0  0  0  0  0  0  0
  145.6926  135.4462  163.4620 H   0  0  0  0  0  0  0  0  0  0  0  0
  145.6420  138.3683  157.8760 H   0  0  0  0  0  0  0  0  0  0  0  0
  146.9960  138.3372  158.9914 H   0  0  0  0  0  0  0  0  0  0  0  0
  145.3856  137.8772  159.5538 H   0  0  0  0  0  0  0  0  0  0  0  0
  142.4337  134.6654  157.6439 H   0  0  0  0  0  0  0  0  0  0  0  0
  146.7110  136.3356  153.1270 H   0  0  0  0  0  0  0  0  0  0  0  0
  143.2105  134.7167  153.1536 H   0  0  0  0  0  0  0  0  0  0  0  0
  143.8411  136.0918  152.2999 H   0  0  0  0  0  0  0  0  0  0  0  0
  146.4220  135.6956  151.2898 H   0  0  0  0  0  0  0  0  0  0  0  0
  146.3154  134.3641  150.1744 H   0  0  0  0  0  0  0  0  0  0  0  0
  145.1702  135.6549  149.0376 H   0  0  0  0  0  0  0  0  0  0  0  0
  146.5794  133.6269  153.0442 H   0  0  0  0  0  0  0  0  0  0  0  0
  145.1227  132.7289  153.3586 H   0  0  0  0  0  0  0  0  0  0  0  0
  146.8665  132.3903  150.8656 H   0  0  0  0  0  0  0  0  0  0  0  0
  146.7424  131.2902  152.2198 H   0  0  0  0  0  0  0  0  0  0  0  0
  144.9030  132.5918  149.3792 H   0  0  0  0  0  0  0  0  0  0  0  0
  143.4696  131.6948  149.8054 H   0  0  0  0  0  0  0  0  0  0  0  0
  143.0394  133.0469  151.7628 H   0  0  0  0  0  0  0  0  0  0  0  0
  143.1998  134.1189  150.4004 H   0  0  0  0  0  0  0  0  0  0  0  0
  1  2  1  0  0  0  0
  1 27  1  0  0  0  0
  1 28  1  0  0  0  0
  1 29  1  0  0  0  0
  2  3  1  0  0  0  0
  2  7  1  0  0  0  0
  2 30  1  0  0  0  0
  3  4  1  0  0  0  0
  3 31  1  0  0  0  0
  3 32  1  0  0  0  0
  4  5  1  0  0  0  0
  4  6  2  0  0  0  0
  5 33  1  0  0  0  0
  5 34  1  0  0  0  0
  5 35  1  0  0  0  0
  7  8  1  0  0  0  0
  7  9  1  0  0  0  0
  8 36  1  0  0  0  0
  8 37  1  0  0  0  0
  8 38  1  0  0  0  0
  9 14  1  0  0  0  0
  9 10  2  0  0  0  0
 10 11  1  0  0  0  0
 11 12  2  0  0  0  0
 11 39  1  0  0  0  0
 12 13  1  0  0  0  0
 13 17  1  0  0  0  0
 13 14  2  0  0  0  0
 14 15  1  0  0  0  0
 15 16  2  0  0  0  0
 16 17  1  0  0  0  0
 16 40  1  0  0  0  0
 17 18  1  0  0  0  0
 18 19  1  0  0  0  0
 18 41  1  0  0  0  0
 18 42  1  0  0  0  0
 19 26  1  0  0  0  0
 19 20  1  0  0  0  0
 19 22  1  0  0  0  0
 20 21  1  0  0  0  0
 20 43  1  0  0  0  0
 20 44  1  0  0  0  0
 21 45  1  0  0  0  0
 22 23  1  0  0  0  0
 22 46  1  0  0  0  0
 22 47  1  0  0  0  0
 23 24  1  0  0  0  0
 23 48  1  0  0  0  0
 23 49  1  0  0  0  0
 24 25  1  0  0  0  0
 25 26  1  0  0  0  0
 25 50  1  0  0  0  0
 25 51  1  0  0  0  0
 26 52  1  0  0  0  0
 26 53  1  0  0  0  0
M  END
> <s_m_source_file>
AV-unprocessed.smi

> <i_m_source_file_index>
194

> <i_lp_mmshare_version>
43012

> <i_f3d_flags>
0

> <s_epik_input>
W0NIM11bU0BAXSg9TylbQ0gyXVtDQEBIXShbQ0gzXSlOKFtDSDNdKWMobltjSF1uMSljKGMxMiluW2NIXW4yW0NIMl1DMyhbQ0gyXVtPSF0pW0NIMl1bQ0gyXU9bQ0gyXVtDSDJdMw==

> <s_epik_cmdline>
J2VwaWtfcHl0aG9uJywgJy1waCcsICc3LjAnLCAnLXRuJywgJzgnLCAnLW1hJywgJzIwMCcsICctbWV0YWxfYmluZGluZycsICctaW1hZScsICc8aW5maWxlLm1hZT4nLCAnLW9tYWUnLCAnPG91dGZpbGUubWFlPic=

> <r_lp_tautomer_probability>
1

> <r_epik_Ionization_Penalty>
0.00101625

> <r_epik_Ionization_Penalty_Charging>
0

> <r_epik_Ionization_Penalty_Neutral>
0.00101625

> <r_epik_State_Penalty>
0.000568005

> <r_epik_Charging_Adjusted_Penalty>
0.000568005

> <i_epik_Tot_Q>
0

> <i_epik_Tot_abs_Q>
0

> <r_epik_Metal_State_Penalty>
-0

> <b_epik_Metal_Only>
0

> <s_lp_Force_Field>
OPLS_2005

> <r_lp_Energy>
31.3732

> <b_lp_Chiralities_Consistent>
1

> <s_lp_Variant>
AV-unprocessed.smi:194-4

> <Gold.Version>
5.8.1

> <Gold.Id.Protein>
6NUR|6NUR_protein|mol2

> <Gold.PLP.Fitness>
40.7055

> <Gold.PLP.PLP>
-31.5730

> <Gold.PLP.part.hbond>
-3.1508

> <Gold.PLP.part.metal>
0.0000

> <Gold.PLP.part.buried>
-5.1351

> <Gold.PLP.part.nonpolar>
-23.4217

> <Gold.PLP.part.repulsive>
0.2582

> <Gold.PLP.ligand.clash>
0.0000

> <Gold.PLP.ligand.torsion>
1.6515

> <Gold.PLP.Chemscore.Hbond>
2.0000

> <Gold.PLP.Chemscore.CHOScore>
1.9169

> <Gold.PLP.Chemscore.Metal>
0.0000

> <Gold.Chemscore.Hbonds>
donor molecule, donor type, donor heavy atom, donor atom, acceptor molecule, acceptor atom, score
      L1  H    21    45       P1  7921  1.00
      P1  H  6934  6947       L1     6  0.50
      L1  C    11    39       P1 11000  1.00
      L1  C    16    40       P1  7948  0.90

> <Gold.PLP.Chemscore.Internal.Correction>
0.6849

> <Gold.Rescore>
     Score         DG    S(hbond)    S(metal)    S(lipo)     H(rot)  DE(clash)    DE(int)     intcor
      9.12     -11.03       1.95        0.00      64.05       3.31       0.04       1.87       ----

> <Gold.Chemscore.Fitness>
9.1187

> <Gold.Chemscore.DG>
-11.0302

> <Gold.Chemscore.ZeroCoef>
-5.4800

> <Gold.Chemscore.Hbond>
1.9548

> <Gold.Chemscore.Metal>
0.0000

> <Gold.Chemscore.Lipo>
64.0534

> <Gold.Chemscore.Internal_Hbond>
0.0000

> <Gold.Chemscore.DEClash>
0.0431

> <Gold.Chemscore.DEInternal>
1.8685

> <Gold.Chemscore.Rot>
3.3098

> <Gold.Chemscore.Internal.Correction>
   9.000000E+99

> <Gold.Chemscore.Hbonds>
donor molecule, donor type, donor heavy atom, donor atom, acceptor molecule, acceptor atom, score
      L1  H    21    45       P1  7921  0.99
      P1  H  6934  6947       L1     6  0.03

> <Gold.Chemscore.Hbond.Weighted>
-6.5290

> <Gold.Chemscore.Metal.Weighted>
-0.0000

> <Gold.Chemscore.Lipo.Weighted>
-7.4942

> <Gold.Chemscore.Internal_Hbond.Weighted>
0.0000

> <Gold.Chemscore.DEClash.Weighted>
0.0431

> <Gold.Chemscore.DEInternal.Weighted>
1.8685

> <Gold.Chemscore.Rot.Weighted>
8.4730

> <Gold.Chemscore.Internal.Correction.Weighted>
   9.000000E+99

> <Gold.Protein.RotatedTorsions>
[ 6907 6896 6895 6894 ] final  -84.56 input  -60.11 | X-H torsion
[ 7974 7965 7964 7962 ] final  130.32 input  175.53 | X-H torsion
[ 8008 7997 7996 7995 ] final  -34.82 input   59.86 | X-H torsion
[ 10167 10162 10161 10158 ] final  178.30 input  -65.29 | X-H torsion
[ 10718 10713 10712 10709 ] final   79.56 input   66.30 | X-H torsion
[ 10763 10752 10751 10750 ] final   56.23 input  -60.55 | X-H torsion
[ 11005 11000 10999 10996 ] final   46.45 input  -57.11 | X-H torsion

> <Gold.Protein.ActiveResidues>
 VAL166  LYS551  ARG553  GLY616  TRP617  ASP618  TYR619  PRO620  LYS621  CYS622 
 ASP623  PHE694  ASN695  SER759  ASP760  ASP761  ALA762  ILE779  LEU786  VAL792 
 PHE793  MET794  SER795  GLU796  ALA797  LYS798  CYS799  TRP800  GLU811  SER814 

> <Gold.Protein.RotatedAtoms>
  150.6875  134.3340  159.4839 H   0  0  0  0  0  0  0  0  0  0  0  0  # atno 6907 bound_to 6896
  152.1201  134.9209  160.0572 H   0  0  0  0  0  0  0  0  0  0  0  0  # atno 6908 bound_to 6896
  152.0418  133.3946  159.4377 H   0  0  0  0  0  0  0  0  0  0  0  0  # atno 6909 bound_to 6896
  145.0191  139.4148  143.5206 H   0  0  0  0  0  0  0  0  0  0  0  0  # atno 7974 bound_to 7965
  154.4111  140.1674  156.2111 H   0  0  0  0  0  0  0  0  0  0  0  0  # atno 8008 bound_to 7997
  155.9443  140.3405  155.6330 H   0  0  0  0  0  0  0  0  0  0  0  0  # atno 8009 bound_to 7997
  155.6950  140.0738  157.2424 H   0  0  0  0  0  0  0  0  0  0  0  0  # atno 8010 bound_to 7997
  139.5288  144.2696  152.0639 H   0  0  0  0  0  0  0  0  0  0  0  0  # atno 10167 bound_to 10162
  157.6780  130.9919  150.1950 H   0  0  0  0  0  0  0  0  0  0  0  0  # atno 10718 bound_to 10713
  152.9828  135.5683  154.5195 H   0  0  0  0  0  0  0  0  0  0  0  0  # atno 10763 bound_to 10752
  154.4685  135.2784  155.1662 H   0  0  0  0  0  0  0  0  0  0  0  0  # atno 10764 bound_to 10752
  154.3220  135.6267  153.5565 H   0  0  0  0  0  0  0  0  0  0  0  0  # atno 10765 bound_to 10752
  140.1368  134.4634  155.8479 H   0  0  0  0  0  0  0  0  0  0  0  0  # atno 11005 bound_to 11000
  146.3482  139.9679  142.8709 LP  0  0  0  0  0  0  0  0  0  0  0  0  # atno 17320 bound_to 7965
  145.1919  140.9815  143.4206 LP  0  0  0  0  0  0  0  0  0  0  0  0  # atno 17321 bound_to 7965
  140.2156  144.4518  150.6365 LP  0  0  0  0  0  0  0  0  0  0  0  0  # atno 17342 bound_to 10162
  140.6452  143.2212  151.6202 LP  0  0  0  0  0  0  0  0  0  0  0  0  # atno 17343 bound_to 10162
  156.2653  130.3715  149.8088 LP  0  0  0  0  0  0  0  0  0  0  0  0  # atno 17370 bound_to 10713
  156.5821  130.8470  151.3385 LP  0  0  0  0  0  0  0  0  0  0  0  0  # atno 17371 bound_to 10713
  141.2179  133.6817  156.7172 LP  0  0  0  0  0  0  0  0  0  0  0  0  # atno 17394 bound_to 11000
  140.2772  134.8345  157.3901 LP  0  0  0  0  0  0  0  0  0  0  0  0  # atno 17395 bound_to 11000

$$$$
