AV-unprocessed.smi:1272|AV-procd|sdf|5334|dock2
  -GOLD-   22720 4463D 1   1.00000     0.00000
 Structure written by MMmdl.
 45 47  0  0  0  0  0  0  0  0  1 V2000
  155.0576  140.5543  160.6626 C   0  0  0  0  0  0  0  0  0  0  0  0
  153.7227  139.9526  160.2056 C   0  0  0  0  0  0  0  0  0  0  0  0
  152.8969  140.9498  159.5293 N   0  0  0  0  0  0  0  0  0  0  0  0
  152.4128  140.8756  158.2672 C   0  0  0  0  0  0  0  0  0  0  0  0
  152.5889  139.9475  157.4779 O   0  0  0  0  0  0  0  0  0  0  0  0
  151.7127  142.0075  158.0181 N   0  0  0  0  0  0  0  0  0  0  0  0
  151.0246  142.3477  156.7737 C   0  0  0  0  0  0  0  0  0  0  0  0
  150.4101  141.1037  156.1013 C   0  0  2  0  0  0  0  0  0  0  0  0
  151.4071  140.5016  155.3003 O   0  0  0  0  0  0  0  0  0  0  0  0
  149.2448  141.4887  155.1670 C   0  0  0  0  0  0  0  0  0  0  0  0
  148.6605  140.3888  154.3967 N   0  0  0  0  0  0  0  0  0  0  0  0
  148.1989  139.2868  155.2395 C   0  0  0  0  0  0  0  0  0  0  0  0
  147.5601  138.1588  154.4103 C   0  0  0  0  0  0  0  0  0  0  0  0
  146.4918  138.6827  153.6288 O   0  0  0  0  0  0  0  0  0  0  0  0
  146.9116  139.7279  152.7583 C   0  0  0  0  0  0  0  0  0  0  0  0
  147.5437  140.8610  153.5847 C   0  0  0  0  0  0  0  0  0  0  0  0
  151.7717  142.8410  159.1443 C   0  0  0  0  0  0  0  0  0  0  0  0
  151.2362  144.1194  159.3797 C   0  0  0  0  0  0  0  0  0  0  0  0
  151.4897  144.7046  160.6423 C   0  0  0  0  0  0  0  0  0  0  0  0
  152.2554  144.0190  161.6209 C   0  0  0  0  0  0  0  0  0  0  0  0
  152.7847  142.7339  161.3570 C   0  0  0  0  0  0  0  0  0  0  0  0
  152.5169  142.1753  160.0950 C   0  0  0  0  0  0  0  0  0  0  0  0
  155.6600  139.8095  161.1828 H   0  0  0  0  0  0  0  0  0  0  0  0
  154.9003  141.3904  161.3448 H   0  0  0  0  0  0  0  0  0  0  0  0
  155.6375  140.9176  159.8137 H   0  0  0  0  0  0  0  0  0  0  0  0
  153.9059  139.1077  159.5400 H   0  0  0  0  0  0  0  0  0  0  0  0
  153.1813  139.5503  161.0619 H   0  0  0  0  0  0  0  0  0  0  0  0
  150.2331  143.0575  157.0200 H   0  0  0  0  0  0  0  0  0  0  0  0
  151.6886  142.8805  156.0919 H   0  0  0  0  0  0  0  0  0  0  0  0
  150.0767  140.4004  156.8635 H   0  0  0  0  0  0  0  0  0  0  0  0
  152.1666  140.3454  155.8411 H   0  0  0  0  0  0  0  0  0  0  0  0
  148.4577  141.9641  155.7544 H   0  0  0  0  0  0  0  0  0  0  0  0
  149.6035  142.2574  154.4805 H   0  0  0  0  0  0  0  0  0  0  0  0
  149.0271  138.8665  155.8079 H   0  0  0  0  0  0  0  0  0  0  0  0
  147.4739  139.6550  155.9670 H   0  0  0  0  0  0  0  0  0  0  0  0
  148.3008  137.6921  153.7591 H   0  0  0  0  0  0  0  0  0  0  0  0
  147.1732  137.3787  155.0658 H   0  0  0  0  0  0  0  0  0  0  0  0
  147.6220  139.3397  152.0269 H   0  0  0  0  0  0  0  0  0  0  0  0
  146.0495  140.0981  152.2035 H   0  0  0  0  0  0  0  0  0  0  0  0
  146.7816  141.3059  154.2266 H   0  0  0  0  0  0  0  0  0  0  0  0
  147.8824  141.6494  152.9118 H   0  0  0  0  0  0  0  0  0  0  0  0
  150.6592  144.6395  158.6296 H   0  0  0  0  0  0  0  0  0  0  0  0
  151.0978  145.6865  160.8630 H   0  0  0  0  0  0  0  0  0  0  0  0
  152.4385  144.4848  162.5779 H   0  0  0  0  0  0  0  0  0  0  0  0
  153.3724  142.2099  162.0959 H   0  0  0  0  0  0  0  0  0  0  0  0
  1  2  1  0  0  0  0
  1 23  1  0  0  0  0
  1 24  1  0  0  0  0
  1 25  1  0  0  0  0
  2  3  1  0  0  0  0
  2 26  1  0  0  0  0
  2 27  1  0  0  0  0
  3 22  1  0  0  0  0
  3  4  1  0  0  0  0
  4  5  2  0  0  0  0
  4  6  1  0  0  0  0
  6  7  1  0  0  0  0
  6 17  1  0  0  0  0
  7  8  1  0  0  0  0
  7 28  1  0  0  0  0
  7 29  1  0  0  0  0
  8  9  1  0  0  0  0
  8 10  1  0  0  0  0
  8 30  1  0  0  0  0
  9 31  1  0  0  0  0
 10 11  1  0  0  0  0
 10 32  1  0  0  0  0
 10 33  1  0  0  0  0
 11 16  1  0  0  0  0
 11 12  1  0  0  0  0
 12 13  1  0  0  0  0
 12 34  1  0  0  0  0
 12 35  1  0  0  0  0
 13 14  1  0  0  0  0
 13 36  1  0  0  0  0
 13 37  1  0  0  0  0
 14 15  1  0  0  0  0
 15 16  1  0  0  0  0
 15 38  1  0  0  0  0
 15 39  1  0  0  0  0
 16 40  1  0  0  0  0
 16 41  1  0  0  0  0
 17 22  2  0  0  0  0
 17 18  1  0  0  0  0
 18 19  2  0  0  0  0
 18 42  1  0  0  0  0
 19 20  1  0  0  0  0
 19 43  1  0  0  0  0
 20 21  2  0  0  0  0
 20 44  1  0  0  0  0
 21 22  1  0  0  0  0
 21 45  1  0  0  0  0
M  END
> <s_m_source_file>
AV-unprocessed.smi

> <i_m_source_file_index>
1272

> <i_lp_mmshare_version>
43012

> <i_f3d_flags>
0

> <s_epik_input>
W2NIXTFbY0hdW2NIXVtjSF1jKGMxMiluKFtDSDJdW0NIM10pYyg9TyluMltDSDJdW0NASF0oW09IXSlbQ0gyXU4zW0NIMl1bQ0gyXU9bQ0gyXVtDSDJdMw==

> <s_epik_cmdline>
J2VwaWtfcHl0aG9uJywgJy1waCcsICc3LjAnLCAnLXRuJywgJzgnLCAnLW1hJywgJzIwMCcsICctbWV0YWxfYmluZGluZycsICctaW1hZScsICc8aW5maWxlLm1hZT4nLCAnLW9tYWUnLCAnPG91dGZpbGUubWFlPic=

> <r_epik_Ionization_Penalty>
0.214359

> <r_epik_Ionization_Penalty_Charging>
2.31431e-09

> <r_epik_Ionization_Penalty_Neutral>
0.214359

> <r_epik_State_Penalty>
0.204533

> <r_epik_Charging_Adjusted_Penalty>
0.204533

> <i_epik_Tot_Q>
0

> <i_epik_Tot_abs_Q>
0

> <r_epik_Metal_State_Penalty>
0.204533

> <b_epik_Metal_Only>
0

> <s_lp_Force_Field>
OPLS_2005

> <r_lp_Energy>
61.4886

> <b_lp_Chiralities_Consistent>
1

> <s_lp_Variant>
AV-unprocessed.smi:1272-1

> <Gold.Version>
5.8.1

> <Gold.Id.Protein>
6NUR|6NUR_protein|mol2

> <Gold.PLP.Fitness>
51.4816

> <Gold.PLP.PLP>
-46.9922

> <Gold.PLP.part.hbond>
-2.0000

> <Gold.PLP.part.metal>
0.0000

> <Gold.PLP.part.buried>
-5.2647

> <Gold.PLP.part.nonpolar>
-40.7733

> <Gold.PLP.part.repulsive>
0.3123

> <Gold.PLP.ligand.clash>
0.0000

> <Gold.PLP.ligand.torsion>
0.6470

> <Gold.PLP.Chemscore.Hbond>
1.8960

> <Gold.PLP.Chemscore.CHOScore>
0.0000

> <Gold.PLP.Chemscore.Metal>
0.0000

> <Gold.Chemscore.Hbonds>
donor molecule, donor type, donor heavy atom, donor atom, acceptor molecule, acceptor atom, score
      P1  H  7989  7998       L1     9  0.88
      P1  H  7997  8009       L1     5  1.00

> <Gold.PLP.Chemscore.Internal.Correction>
0.0955

> <Gold.Rescore>
     Score         DG    S(hbond)    S(metal)    S(lipo)     H(rot)  DE(clash)    DE(int)     intcor
     18.48     -20.35       1.75        0.00     123.83       2.14       0.05       1.82       ----

> <Gold.Chemscore.Fitness>
18.4780

> <Gold.Chemscore.DG>
-20.3456

> <Gold.Chemscore.ZeroCoef>
-5.4800

> <Gold.Chemscore.Hbond>
1.7522

> <Gold.Chemscore.Metal>
0.0000

> <Gold.Chemscore.Lipo>
123.8299

> <Gold.Chemscore.Internal_Hbond>
0.0000

> <Gold.Chemscore.DEClash>
0.0468

> <Gold.Chemscore.DEInternal>
1.8208

> <Gold.Chemscore.Rot>
2.1386

> <Gold.Chemscore.Internal.Correction>
   9.000000E+99

> <Gold.Chemscore.Hbonds>
donor molecule, donor type, donor heavy atom, donor atom, acceptor molecule, acceptor atom, score
      P1  H  7989  7998       L1     9  0.83
      P1  H  7997  8009       L1     5  0.72

> <Gold.Chemscore.Hbond.Weighted>
-5.8524

> <Gold.Chemscore.Metal.Weighted>
-0.0000

> <Gold.Chemscore.Lipo.Weighted>
-14.4881

> <Gold.Chemscore.Internal_Hbond.Weighted>
0.0000

> <Gold.Chemscore.DEClash.Weighted>
0.0468

> <Gold.Chemscore.DEInternal.Weighted>
1.8208

> <Gold.Chemscore.Rot.Weighted>
5.4749

> <Gold.Chemscore.Internal.Correction.Weighted>
   9.000000E+99

> <Gold.Protein.RotatedTorsions>
[ 6907 6896 6895 6894 ] final  -18.71 input  -60.11 | X-H torsion
[ 7974 7965 7964 7962 ] final  -57.59 input  175.53 | X-H torsion
[ 8008 7997 7996 7995 ] final -179.22 input   59.86 | X-H torsion
[ 10167 10162 10161 10158 ] final -102.32 input  -65.29 | X-H torsion
[ 10718 10713 10712 10709 ] final  -80.56 input   66.30 | X-H torsion
[ 10763 10752 10751 10750 ] final  -92.98 input  -60.55 | X-H torsion
[ 11005 11000 10999 10996 ] final  158.99 input  -57.11 | X-H torsion

> <Gold.Protein.ActiveResidues>
 VAL166  LYS551  ARG553  GLY616  TRP617  ASP618  TYR619  PRO620  LYS621  CYS622 
 ASP623  PHE694  ASN695  SER759  ASP760  ASP761  ALA762  ILE779  LEU786  VAL792 
 PHE793  MET794  SER795  GLU796  ALA797  LYS798  CYS799  TRP800  GLU811  SER814 

> <Gold.Protein.RotatedAtoms>
  151.2741  135.0693  159.9144 H   0  0  0  0  0  0  0  0  0  0  0  0  # atno 6907 bound_to 6896
  152.5345  134.0100  159.7944 H   0  0  0  0  0  0  0  0  0  0  0  0  # atno 6908 bound_to 6896
  151.0343  133.5712  159.2688 H   0  0  0  0  0  0  0  0  0  0  0  0  # atno 6909 bound_to 6896
  145.8493  140.8363  142.9994 H   0  0  0  0  0  0  0  0  0  0  0  0  # atno 7974 bound_to 7965
  156.0279  140.1275  157.0289 H   0  0  0  0  0  0  0  0  0  0  0  0  # atno 8008 bound_to 7997
  154.4338  140.1055  156.6128 H   0  0  0  0  0  0  0  0  0  0  0  0  # atno 8009 bound_to 7997
  155.5850  140.3468  155.4553 H   0  0  0  0  0  0  0  0  0  0  0  0  # atno 8010 bound_to 7997
  140.2319  143.3600  152.0879 H   0  0  0  0  0  0  0  0  0  0  0  0  # atno 10167 bound_to 10162
  156.0068  130.4578  150.3819 H   0  0  0  0  0  0  0  0  0  0  0  0  # atno 10718 bound_to 10713
  154.6915  135.5211  153.8398 H   0  0  0  0  0  0  0  0  0  0  0  0  # atno 10763 bound_to 10752
  153.0635  135.6577  154.0417 H   0  0  0  0  0  0  0  0  0  0  0  0  # atno 10764 bound_to 10752
  154.0290  135.2987  155.3351 H   0  0  0  0  0  0  0  0  0  0  0  0  # atno 10765 bound_to 10752
  140.1918  134.8401  157.2921 H   0  0  0  0  0  0  0  0  0  0  0  0  # atno 11005 bound_to 11000
  144.6730  140.0929  143.7464 LP  0  0  0  0  0  0  0  0  0  0  0  0  # atno 17320 bound_to 7965
  145.9376  139.2647  143.1288 LP  0  0  0  0  0  0  0  0  0  0  0  0  # atno 17321 bound_to 7965
  139.5107  144.6888  151.5815 LP  0  0  0  0  0  0  0  0  0  0  0  0  # atno 17342 bound_to 10162
  140.6178  143.9315  150.6502 LP  0  0  0  0  0  0  0  0  0  0  0  0  # atno 17343 bound_to 10162
  157.1898  131.0412  151.2706 LP  0  0  0  0  0  0  0  0  0  0  0  0  # atno 17370 bound_to 10713
  157.4071  130.7365  149.6811 LP  0  0  0  0  0  0  0  0  0  0  0  0  # atno 17371 bound_to 10713
  140.2151  134.4091  155.7593 LP  0  0  0  0  0  0  0  0  0  0  0  0  # atno 17394 bound_to 11000
  141.2226  133.7137  156.8400 LP  0  0  0  0  0  0  0  0  0  0  0  0  # atno 17395 bound_to 11000

$$$$
