AV-unprocessed.smi:1019|AV-procd|sdf|4447|dock2
  -GOLD-   22720 2413D 1   1.00000     0.00000
 Structure written by MMmdl.
 45 47  0  0  0  0  0  0  0  0  3 V2000
  145.4521  139.6848  155.1908 C   0  0  0  0  0  0  0  0  0  0  0  0
  145.9603  139.3049  153.8530 N   0  3  1  0  0  0  0  0  0  0  0  0
  147.0083  140.2339  153.3640 C   0  0  0  0  0  0  0  0  0  0  0  0
  148.1932  140.2803  154.3135 C   0  0  0  0  0  0  0  0  0  0  0  0
  148.9734  139.1227  154.5211 C   0  0  0  0  0  0  0  0  0  0  0  0
  150.0621  139.1528  155.4139 C   0  0  0  0  0  0  0  0  0  0  0  0
  150.3782  140.3414  156.0993 C   0  0  0  0  0  0  0  0  0  0  0  0
  149.6062  141.5005  155.8907 C   0  0  0  0  0  0  0  0  0  0  0  0
  148.5165  141.4709  154.9988 C   0  0  0  0  0  0  0  0  0  0  0  0
  146.3489  137.8723  153.7759 C   0  0  0  0  0  0  0  0  0  0  0  0
  145.9120  137.2371  152.4435 C   0  0  2  0  0  0  0  0  0  0  0  0
  146.4099  138.0388  151.3918 O   0  0  0  0  0  0  0  0  0  0  0  0
  144.3770  137.1279  152.3191 C   0  0  0  0  0  0  0  0  0  0  0  0
  143.8831  135.7544  152.4808 N   0  0  0  0  0  0  0  0  0  0  0  0
  143.2197  135.1797  153.5214 C   0  0  0  0  0  0  0  0  0  0  0  0
  142.9840  133.8797  153.1903 N   0  3  0  0  0  0  0  0  0  0  0  0
  143.5087  133.6181  151.9227 C   0  0  0  0  0  0  0  0  0  0  0  0
  143.5195  132.4525  151.1623 C   0  0  0  0  0  0  0  0  0  0  0  0
  144.1450  132.5261  149.9003 C   0  0  0  0  0  0  0  0  0  0  0  0
  144.7286  133.7238  149.4379 C   0  0  0  0  0  0  0  0  0  0  0  0
  144.7115  134.9000  150.2168 C   0  0  0  0  0  0  0  0  0  0  0  0
  144.0904  134.8185  151.4623 C   0  0  0  0  0  0  0  0  0  0  0  0
  146.2445  139.6332  155.9392 H   0  0  0  0  0  0  0  0  0  0  0  0
  144.6434  139.0240  155.5035 H   0  0  0  0  0  0  0  0  0  0  0  0
  145.0594  140.7019  155.1794 H   0  0  0  0  0  0  0  0  0  0  0  0
  147.3785  139.8998  152.3935 H   0  0  0  0  0  0  0  0  0  0  0  0
  146.5894  141.2301  153.2119 H   0  0  0  0  0  0  0  0  0  0  0  0
  148.7361  138.2065  154.0000 H   0  0  0  0  0  0  0  0  0  0  0  0
  150.6556  138.2644  155.5729 H   0  0  0  0  0  0  0  0  0  0  0  0
  151.2141  140.3646  156.7830 H   0  0  0  0  0  0  0  0  0  0  0  0
  149.8505  142.4126  156.4150 H   0  0  0  0  0  0  0  0  0  0  0  0
  147.9283  142.3642  154.8467 H   0  0  0  0  0  0  0  0  0  0  0  0
  147.4275  137.7526  153.8782 H   0  0  0  0  0  0  0  0  0  0  0  0
  145.9149  137.3349  154.6210 H   0  0  0  0  0  0  0  0  0  0  0  0
  146.3651  136.2512  152.3381 H   0  0  0  0  0  0  0  0  0  0  0  0
  145.6998  138.2346  150.7995 H   0  0  0  0  0  0  0  0  0  0  0  0
  143.8742  137.7591  153.0527 H   0  0  0  0  0  0  0  0  0  0  0  0
  144.0504  137.4776  151.3384 H   0  0  0  0  0  0  0  0  0  0  0  0
  142.9308  135.6664  154.4422 H   0  0  0  0  0  0  0  0  0  0  0  0
  143.0741  131.5332  151.5137 H   0  0  0  0  0  0  0  0  0  0  0  0
  144.1780  131.6459  149.2743 H   0  0  0  0  0  0  0  0  0  0  0  0
  145.1992  133.7398  148.4654 H   0  0  0  0  0  0  0  0  0  0  0  0
  145.1613  135.8118  149.8534 H   0  0  0  0  0  0  0  0  0  0  0  0
  145.1872  139.4215  153.2141 H   0  0  0  0  0  0  0  0  0  0  0  0
  142.5023  133.2206  153.7888 H   0  0  0  0  0  0  0  0  0  0  0  0
  1  2  1  0  0  0  0
  1 23  1  0  0  0  0
  1 24  1  0  0  0  0
  1 25  1  0  0  0  0
  2  3  1  0  0  0  0
  2 10  1  0  0  0  0
  2 44  1  0  0  0  0
  3  4  1  0  0  0  0
  3 26  1  0  0  0  0
  3 27  1  0  0  0  0
  4  9  1  0  0  0  0
  4  5  2  0  0  0  0
  5  6  1  0  0  0  0
  5 28  1  0  0  0  0
  6  7  2  0  0  0  0
  6 29  1  0  0  0  0
  7  8  1  0  0  0  0
  7 30  1  0  0  0  0
  8  9  2  0  0  0  0
  8 31  1  0  0  0  0
  9 32  1  0  0  0  0
 10 11  1  0  0  0  0
 10 33  1  0  0  0  0
 10 34  1  0  0  0  0
 11 12  1  0  0  0  0
 11 13  1  0  0  0  0
 11 35  1  0  0  0  0
 12 36  1  0  0  0  0
 13 14  1  0  0  0  0
 13 37  1  0  0  0  0
 13 38  1  0  0  0  0
 14 22  1  0  0  0  0
 14 15  1  0  0  0  0
 15 16  2  0  0  0  0
 15 39  1  0  0  0  0
 16 17  1  0  0  0  0
 16 45  1  0  0  0  0
 17 22  2  0  0  0  0
 17 18  1  0  0  0  0
 18 19  2  0  0  0  0
 18 40  1  0  0  0  0
 19 20  1  0  0  0  0
 19 41  1  0  0  0  0
 20 21  2  0  0  0  0
 20 42  1  0  0  0  0
 21 22  1  0  0  0  0
 21 43  1  0  0  0  0
M  CHG  1   2   1
M  CHG  1  16   1
M  END
> <s_m_source_file>
AV-unprocessed.smi

> <i_m_source_file_index>
1019

> <i_lp_mmshare_version>
43012

> <i_f3d_flags>
0

> <s_epik_input>
W2NIXTFbY0hdW2NIXVtjSF1bY0hdYzFbQ0gyXU4oW0NIM10pW0NIMl1bQ0BIXShbT0hdKVtDSDJdbihbY0hdbjIpYyhjMjMpW2NIXVtjSF1bY0hdW2NIXTM=

> <s_epik_cmdline>
J2VwaWtfcHl0aG9uJywgJy1waCcsICc3LjAnLCAnLXRuJywgJzgnLCAnLW1hJywgJzIwMCcsICctbWV0YWxfYmluZGluZycsICctaW1hZScsICc8aW5maWxlLm1hZT4nLCAnLW9tYWUnLCAnPG91dGZpbGUubWFlPic=

> <r_epik_Ionization_Penalty>
1.5198

> <r_epik_Ionization_Penalty_Charging>
1.5198

> <r_epik_Ionization_Penalty_Neutral>
3.13312e-06

> <r_epik_State_Penalty>
1.624

> <r_epik_Charging_Adjusted_Penalty>
3.1438

> <i_epik_Tot_Q>
2

> <i_epik_Tot_abs_Q>
2

> <r_epik_Metal_State_Penalty>
5.67392

> <b_epik_Metal_Only>
0

> <s_lp_Force_Field>
OPLS_2005

> <r_lp_Energy>
24.5939

> <b_lp_Chiralities_Consistent>
1

> <s_lp_Variant>
AV-unprocessed.smi:1019-5

> <Gold.Version>
5.8.1

> <Gold.Id.Protein>
6NUR|6NUR_protein|mol2

> <Gold.PLP.Fitness>
55.8124

> <Gold.PLP.PLP>
-41.9805

> <Gold.PLP.part.hbond>
-3.4844

> <Gold.PLP.part.metal>
0.0000

> <Gold.PLP.part.buried>
3.4218

> <Gold.PLP.part.nonpolar>
-41.1137

> <Gold.PLP.part.repulsive>
0.0077

> <Gold.PLP.ligand.clash>
0.0000

> <Gold.PLP.ligand.torsion>
1.3725

> <Gold.PLP.Chemscore.Hbond>
5.3738

> <Gold.PLP.Chemscore.CHOScore>
0.0000

> <Gold.PLP.Chemscore.Metal>
0.0000

> <Gold.Chemscore.Hbonds>
donor molecule, donor type, donor heavy atom, donor atom, acceptor molecule, acceptor atom, score
      L1  H     2    44       P1 10175  2.00
      L1  H    12    36       P1 10171  0.83
      L1  H    16    45       P1 10957  1.86
      P1  H  7954  7966       L1    12  0.29

> <Gold.PLP.Chemscore.Internal.Correction>
0.4556

> <Gold.Rescore>
     Score         DG    S(hbond)    S(metal)    S(lipo)     H(rot)  DE(clash)    DE(int)     intcor
     19.77     -22.25       3.09        0.00     108.79       2.46       0.91       1.57       ----

> <Gold.Chemscore.Fitness>
19.7676

> <Gold.Chemscore.DG>
-22.2508

> <Gold.Chemscore.ZeroCoef>
-5.4800

> <Gold.Chemscore.Hbond>
3.0922

> <Gold.Chemscore.Metal>
0.0000

> <Gold.Chemscore.Lipo>
108.7879

> <Gold.Chemscore.Internal_Hbond>
0.0000

> <Gold.Chemscore.DEClash>
0.9096

> <Gold.Chemscore.DEInternal>
1.5736

> <Gold.Chemscore.Rot>
2.4552

> <Gold.Chemscore.Internal.Correction>
   9.000000E+99

> <Gold.Chemscore.Hbonds>
donor molecule, donor type, donor heavy atom, donor atom, acceptor molecule, acceptor atom, score
      L1  H     2    44       P1 10175  0.94
      L1  H    12    36       P1 10171  0.82
      L1  H    16    45       P1 10957  0.89
      P1  H  7954  7966       L1    12  0.07

> <Gold.Chemscore.Hbond.Weighted>
-10.3280

> <Gold.Chemscore.Metal.Weighted>
-0.0000

> <Gold.Chemscore.Lipo.Weighted>
-12.7282

> <Gold.Chemscore.Internal_Hbond.Weighted>
0.0000

> <Gold.Chemscore.DEClash.Weighted>
0.9096

> <Gold.Chemscore.DEInternal.Weighted>
1.5736

> <Gold.Chemscore.Rot.Weighted>
6.2854

> <Gold.Chemscore.Internal.Correction.Weighted>
   9.000000E+99

> <Gold.Protein.RotatedTorsions>
[ 6907 6896 6895 6894 ] final -166.94 input  -60.11 | X-H torsion
[ 7974 7965 7964 7962 ] final   25.09 input  175.53 | X-H torsion
[ 8008 7997 7996 7995 ] final  -95.44 input   59.86 | X-H torsion
[ 10167 10162 10161 10158 ] final   91.84 input  -65.29 | X-H torsion
[ 10718 10713 10712 10709 ] final   50.48 input   66.30 | X-H torsion
[ 10763 10752 10751 10750 ] final   83.08 input  -60.55 | X-H torsion
[ 11005 11000 10999 10996 ] final -116.03 input  -57.11 | X-H torsion

> <Gold.Protein.ActiveResidues>
 VAL166  LYS551  ARG553  GLY616  TRP617  ASP618  TYR619  PRO620  LYS621  CYS622 
 ASP623  PHE694  ASN695  SER759  ASP760  ASP761  ALA762  ILE779  LEU786  VAL792 
 PHE793  MET794  SER795  GLU796  ALA797  LYS798  CYS799  TRP800  GLU811  SER814 

> <Gold.Protein.RotatedAtoms>
  151.4516  133.3616  159.2795 H   0  0  0  0  0  0  0  0  0  0  0  0  # atno 6907 bound_to 6896
  150.9087  134.8504  159.7421 H   0  0  0  0  0  0  0  0  0  0  0  0  # atno 6908 bound_to 6896
  152.4920  134.4444  159.9606 H   0  0  0  0  0  0  0  0  0  0  0  0  # atno 6909 bound_to 6896
  146.1906  139.7515  142.8835 H   0  0  0  0  0  0  0  0  0  0  0  0  # atno 7974 bound_to 7965
  154.7614  140.0480  157.0976 H   0  0  0  0  0  0  0  0  0  0  0  0  # atno 8008 bound_to 7997
  154.9933  140.3116  155.4877 H   0  0  0  0  0  0  0  0  0  0  0  0  # atno 8009 bound_to 7997
  156.2905  140.2214  156.5039 H   0  0  0  0  0  0  0  0  0  0  0  0  # atno 8010 bound_to 7997
  139.8335  144.6676  150.9371 H   0  0  0  0  0  0  0  0  0  0  0  0  # atno 10167 bound_to 10162
  157.4889  130.8363  149.8179 H   0  0  0  0  0  0  0  0  0  0  0  0  # atno 10718 bound_to 10713
  153.1259  135.4704  154.9272 H   0  0  0  0  0  0  0  0  0  0  0  0  # atno 10763 bound_to 10752
  154.7620  135.3134  154.8362 H   0  0  0  0  0  0  0  0  0  0  0  0  # atno 10764 bound_to 10752
  153.8916  135.6884  153.4814 H   0  0  0  0  0  0  0  0  0  0  0  0  # atno 10765 bound_to 10752
  141.0449  133.9778  157.2934 H   0  0  0  0  0  0  0  0  0  0  0  0  # atno 11005 bound_to 11000
  145.3805  141.0357  143.3180 LP  0  0  0  0  0  0  0  0  0  0  0  0  # atno 17320 bound_to 7965
  144.8479  139.5368  143.6870 LP  0  0  0  0  0  0  0  0  0  0  0  0  # atno 17321 bound_to 7965
  140.7804  143.3979  151.1199 LP  0  0  0  0  0  0  0  0  0  0  0  0  # atno 17342 bound_to 10162
  139.7631  143.8606  152.3104 LP  0  0  0  0  0  0  0  0  0  0  0  0  # atno 17343 bound_to 10162
  156.0162  130.3813  150.2103 LP  0  0  0  0  0  0  0  0  0  0  0  0  # atno 17370 bound_to 10713
  157.0291  131.0002  151.3317 LP  0  0  0  0  0  0  0  0  0  0  0  0  # atno 17371 bound_to 10713
  139.9304  135.0200  156.8380 LP  0  0  0  0  0  0  0  0  0  0  0  0  # atno 17394 bound_to 11000
  140.6165  134.0033  155.7599 LP  0  0  0  0  0  0  0  0  0  0  0  0  # atno 17395 bound_to 11000

$$$$
