AV-unprocessed.smi:1645|AV-procd|sdf|6604|dock4
  -GOLD-   22720 7303D 1   1.00000     0.00000
 Structure written by MMmdl.
 55 58  0  0  0  0  0  0  0  0  2 V2000
  145.5522  137.9289  154.1787 O   0  0  0  0  0  0  0  0  0  0  0  0
  146.4291  137.4721  153.4469 C   0  0  0  0  0  0  0  0  0  0  0  0
  147.7454  137.7302  153.5376 N   0  0  0  0  0  0  0  0  0  0  0  0
  148.4485  138.5394  154.4734 C   0  0  0  0  0  0  0  0  0  0  0  0
  147.9828  138.8851  155.7643 C   0  0  0  0  0  0  0  0  0  0  0  0
  148.7894  139.6944  156.5869 C   0  0  0  0  0  0  0  0  0  0  0  0
  150.0414  140.1422  156.1061 C   0  0  0  0  0  0  0  0  0  0  0  0
  150.8606  140.9542  156.9190 N   0  0  0  0  0  0  0  0  0  0  0  0
  151.4719  140.2798  158.0656 C   0  0  0  0  0  0  0  0  0  0  0  0
  152.6509  141.0956  158.6232 C   0  0  0  0  0  0  0  0  0  0  0  0
  152.2241  142.5362  158.9434 C   0  0  0  0  0  0  0  0  0  0  0  0
  151.5921  143.1864  157.7034 C   0  0  0  0  0  0  0  0  0  0  0  0
  150.4320  142.3338  157.1612 C   0  0  0  0  0  0  0  0  0  0  0  0
  150.4876  139.8069  154.8713 N   0  0  0  0  0  0  0  0  0  0  0  0
  149.7109  139.0322  154.0859 C   0  0  0  0  0  0  0  0  0  0  0  0
  146.1691  136.6379  152.4302 N   0  0  0  0  0  0  0  0  0  0  0  0
  144.8391  136.1449  152.0816 C   0  0  2  0  0  0  0  0  0  0  0  0
  144.0420  135.6504  153.2816 C   0  0  0  0  0  0  0  0  0  0  0  0
  142.9513  134.7857  152.6402 C   0  0  0  0  0  0  0  0  0  0  0  0
  143.4930  134.2985  151.3472 N   0  3  2  0  0  0  0  0  0  0  0  0
  143.4592  132.8190  151.1951 C   0  0  0  0  0  0  0  0  0  0  0  0
  144.3793  132.3632  150.0531 C   0  0  0  0  0  0  0  0  0  0  0  0
  145.8489  132.7302  150.3340 C   0  0  0  0  0  0  0  0  0  0  0  0
  145.9842  133.9236  151.2995 C   0  0  0  0  0  0  0  0  0  0  0  0
  144.8234  134.9343  151.1284 C   0  0  2  0  0  0  0  0  0  0  0  0
  148.3286  137.2757  152.8501 H   0  0  0  0  0  0  0  0  0  0  0  0
  147.0339  138.5519  156.1512 H   0  0  0  0  0  0  0  0  0  0  0  0
  148.4475  139.9500  157.5788 H   0  0  0  0  0  0  0  0  0  0  0  0
  150.7119  140.1526  158.8378 H   0  0  0  0  0  0  0  0  0  0  0  0
  151.8220  139.2812  157.8075 H   0  0  0  0  0  0  0  0  0  0  0  0
  153.0469  140.6149  159.5181 H   0  0  0  0  0  0  0  0  0  0  0  0
  153.4613  141.1086  157.8933 H   0  0  0  0  0  0  0  0  0  0  0  0
  151.5060  142.5336  159.7644 H   0  0  0  0  0  0  0  0  0  0  0  0
  153.0830  143.1180  159.2788 H   0  0  0  0  0  0  0  0  0  0  0  0
  151.2375  144.1887  157.9446 H   0  0  0  0  0  0  0  0  0  0  0  0
  152.3501  143.3046  156.9278 H   0  0  0  0  0  0  0  0  0  0  0  0
  150.0625  142.7813  156.2378 H   0  0  0  0  0  0  0  0  0  0  0  0
  149.6052  142.3321  157.8730 H   0  0  0  0  0  0  0  0  0  0  0  0
  150.1147  138.7971  153.1118 H   0  0  0  0  0  0  0  0  0  0  0  0
  146.9429  136.3081  151.8715 H   0  0  0  0  0  0  0  0  0  0  0  0
  144.2738  136.9589  151.6224 H   0  0  0  0  0  0  0  0  0  0  0  0
  144.6707  135.0340  153.9257 H   0  0  0  0  0  0  0  0  0  0  0  0
  143.6355  136.4622  153.8858 H   0  0  0  0  0  0  0  0  0  0  0  0
  142.6369  133.9807  153.3061 H   0  0  0  0  0  0  0  0  0  0  0  0
  142.0704  135.3918  152.4262 H   0  0  0  0  0  0  0  0  0  0  0  0
  143.7762  132.3374  152.1220 H   0  0  0  0  0  0  0  0  0  0  0  0
  142.4317  132.5044  151.0107 H   0  0  0  0  0  0  0  0  0  0  0  0
  144.2877  131.2887  149.8917 H   0  0  0  0  0  0  0  0  0  0  0  0
  144.0551  132.8385  149.1260 H   0  0  0  0  0  0  0  0  0  0  0  0
  146.3761  131.8734  150.7552 H   0  0  0  0  0  0  0  0  0  0  0  0
  146.3443  132.9555  149.3888 H   0  0  0  0  0  0  0  0  0  0  0  0
  145.9950  133.5572  152.3270 H   0  0  0  0  0  0  0  0  0  0  0  0
  146.9510  134.4002  151.1382 H   0  0  0  0  0  0  0  0  0  0  0  0
  144.8563  135.2982  150.1002 H   0  0  0  0  0  0  0  0  0  0  0  0
  142.8904  134.6757  150.6295 H   0  0  0  0  0  0  0  0  0  0  0  0
  1  2  2  0  0  0  0
  2  3  1  0  0  0  0
  2 16  1  0  0  0  0
  3  4  1  0  0  0  0
  3 26  1  0  0  0  0
  4 15  1  0  0  0  0
  4  5  2  0  0  0  0
  5  6  1  0  0  0  0
  5 27  1  0  0  0  0
  6  7  2  0  0  0  0
  6 28  1  0  0  0  0
  7  8  1  0  0  0  0
  7 14  1  0  0  0  0
  8 13  1  0  0  0  0
  8  9  1  0  0  0  0
  9 10  1  0  0  0  0
  9 29  1  0  0  0  0
  9 30  1  0  0  0  0
 10 11  1  0  0  0  0
 10 31  1  0  0  0  0
 10 32  1  0  0  0  0
 11 12  1  0  0  0  0
 11 33  1  0  0  0  0
 11 34  1  0  0  0  0
 12 13  1  0  0  0  0
 12 35  1  0  0  0  0
 12 36  1  0  0  0  0
 13 37  1  0  0  0  0
 13 38  1  0  0  0  0
 14 15  2  0  0  0  0
 15 39  1  0  0  0  0
 16 17  1  0  0  0  0
 16 40  1  0  0  0  0
 17 25  1  0  0  0  0
 17 18  1  0  0  0  0
 17 41  1  0  0  0  0
 18 19  1  0  0  0  0
 18 42  1  0  0  0  0
 18 43  1  0  0  0  0
 19 20  1  0  0  0  0
 19 44  1  0  0  0  0
 19 45  1  0  0  0  0
 20 25  1  0  0  0  0
 20 21  1  0  0  0  0
 20 55  1  0  0  0  0
 21 22  1  0  0  0  0
 21 46  1  0  0  0  0
 21 47  1  0  0  0  0
 22 23  1  0  0  0  0
 22 48  1  0  0  0  0
 22 49  1  0  0  0  0
 23 24  1  0  0  0  0
 23 50  1  0  0  0  0
 23 51  1  0  0  0  0
 24 25  1  0  0  0  0
 24 52  1  0  0  0  0
 24 53  1  0  0  0  0
 25 54  1  0  0  0  0
M  CHG  1  20   1
M  END
> <s_m_source_file>
AV-unprocessed.smi

> <i_m_source_file_index>
1645

> <i_lp_mmshare_version>
43012

> <i_f3d_flags>
0

> <s_epik_input>
W0NIMl0xW0NIMl1bQ0gyXVtDSDJdW0NASF0oTjEyKVtDQEBIXShbQ0gyXVtDSDJdMilbTkhdQyg9TylbTkhdYzNbY0hdW2NIXWMobltjSF0zKU40W0NIMl1bQ0gyXVtDSDJdW0NIMl1bQ0gyXTQ=

> <s_epik_cmdline>
J2VwaWtfcHl0aG9uJywgJy1waCcsICc3LjAnLCAnLXRuJywgJzgnLCAnLW1hJywgJzIwMCcsICctbWV0YWxfYmluZGluZycsICctaW1hZScsICc8aW5maWxlLm1hZT4nLCAnLW9tYWUnLCAnPG91dGZpbGUubWFlPic=

> <r_lp_tautomer_probability>
1

> <r_epik_Ionization_Penalty>
0.0808019

> <r_epik_Ionization_Penalty_Charging>
0.000974069

> <r_epik_Ionization_Penalty_Neutral>
0.0798278

> <r_epik_State_Penalty>
0.0653665

> <r_epik_Charging_Adjusted_Penalty>
0.0663406

> <i_epik_Tot_Q>
1

> <i_epik_Tot_abs_Q>
1

> <r_epik_Metal_State_Penalty>
0.0585673

> <b_epik_Metal_Only>
0

> <s_lp_Force_Field>
OPLS_2005

> <r_lp_Energy>
57.3455

> <b_lp_Chiralities_Consistent>
1

> <s_lp_Variant>
AV-unprocessed.smi:1645-5

> <Gold.Version>
5.8.1

> <Gold.Id.Protein>
6NUR|6NUR_protein|mol2

> <Gold.PLP.Fitness>
54.0910

> <Gold.PLP.PLP>
-39.8004

> <Gold.PLP.part.hbond>
-3.9614

> <Gold.PLP.part.metal>
0.0000

> <Gold.PLP.part.buried>
-5.5763

> <Gold.PLP.part.nonpolar>
-31.4815

> <Gold.PLP.part.repulsive>
0.2763

> <Gold.PLP.ligand.clash>
0.0000

> <Gold.PLP.ligand.torsion>
0.5004

> <Gold.PLP.Chemscore.Hbond>
4.0704

> <Gold.PLP.Chemscore.CHOScore>
0.8812

> <Gold.PLP.Chemscore.Metal>
0.0000

> <Gold.Chemscore.Hbonds>
donor molecule, donor type, donor heavy atom, donor atom, acceptor molecule, acceptor atom, score
      L1  H     3    26       P1  7948  1.00
      L1  H    16    40       P1  7948  0.86
      L1  H    20    55       P1 10186  1.19
      P1  H  7989  7998       L1    14  0.88
      L1  C    15    39       P1  7957  0.89

> <Gold.PLP.Chemscore.Internal.Correction>
0.4369

> <Gold.Rescore>
     Score         DG    S(hbond)    S(metal)    S(lipo)     H(rot)  DE(clash)    DE(int)     intcor
     19.67     -22.42       2.24        0.00     106.60       1.17       0.05       2.70       ----

> <Gold.Chemscore.Fitness>
19.6695

> <Gold.Chemscore.DG>
-22.4170

> <Gold.Chemscore.ZeroCoef>
-5.4800

> <Gold.Chemscore.Hbond>
2.2359

> <Gold.Chemscore.Metal>
0.0000

> <Gold.Chemscore.Lipo>
106.6019

> <Gold.Chemscore.Internal_Hbond>
0.0000

> <Gold.Chemscore.DEClash>
0.0502

> <Gold.Chemscore.DEInternal>
2.6973

> <Gold.Chemscore.Rot>
1.1731

> <Gold.Chemscore.Internal.Correction>
   9.000000E+99

> <Gold.Chemscore.Hbonds>
donor molecule, donor type, donor heavy atom, donor atom, acceptor molecule, acceptor atom, score
      L1  H     3    26       P1  7948  0.96
      L1  H    16    40       P1  7948  0.83
      L1  H    20    55       P1 10186  0.15
      P1  H  7989  7998       L1    14  0.34

> <Gold.Chemscore.Hbond.Weighted>
-7.4678

> <Gold.Chemscore.Metal.Weighted>
-0.0000

> <Gold.Chemscore.Lipo.Weighted>
-12.4724

> <Gold.Chemscore.Internal_Hbond.Weighted>
0.0000

> <Gold.Chemscore.DEClash.Weighted>
0.0502

> <Gold.Chemscore.DEInternal.Weighted>
2.6973

> <Gold.Chemscore.Rot.Weighted>
3.0032

> <Gold.Chemscore.Internal.Correction.Weighted>
   9.000000E+99

> <Gold.Protein.RotatedTorsions>
[ 6907 6896 6895 6894 ] final  -85.13 input  -60.11 | X-H torsion
[ 7974 7965 7964 7962 ] final -151.06 input  175.53 | X-H torsion
[ 8008 7997 7996 7995 ] final  129.98 input   59.86 | X-H torsion
[ 10167 10162 10161 10158 ] final  143.10 input  -65.29 | X-H torsion
[ 10718 10713 10712 10709 ] final  179.99 input   66.30 | X-H torsion
[ 10763 10752 10751 10750 ] final   54.47 input  -60.55 | X-H torsion
[ 11005 11000 10999 10996 ] final  -16.52 input  -57.11 | X-H torsion

> <Gold.Protein.ActiveResidues>
 VAL166  LYS551  ARG553  GLY616  TRP617  ASP618  TYR619  PRO620  LYS621  CYS622 
 ASP623  PHE694  ASN695  SER759  ASP760  ASP761  ALA762  ILE779  LEU786  VAL792 
 PHE793  MET794  SER795  GLU796  ALA797  LYS798  CYS799  TRP800  GLU811  SER814 

> <Gold.Protein.RotatedAtoms>
  150.6872  134.3251  159.4803 H   0  0  0  0  0  0  0  0  0  0  0  0  # atno 6907 bound_to 6896
  152.1122  134.9263  160.0575 H   0  0  0  0  0  0  0  0  0  0  0  0  # atno 6908 bound_to 6896
  152.0501  133.3980  159.4410 H   0  0  0  0  0  0  0  0  0  0  0  0  # atno 6909 bound_to 6896
  144.7871  140.4848  143.5798 H   0  0  0  0  0  0  0  0  0  0  0  0  # atno 7974 bound_to 7965
  156.2946  140.2607  156.2688 H   0  0  0  0  0  0  0  0  0  0  0  0  # atno 8008 bound_to 7997
  154.9716  140.0391  157.2255 H   0  0  0  0  0  0  0  0  0  0  0  0  # atno 8009 bound_to 7997
  154.7854  140.2802  155.6037 H   0  0  0  0  0  0  0  0  0  0  0  0  # atno 8010 bound_to 7997
  139.4978  144.6063  151.6371 H   0  0  0  0  0  0  0  0  0  0  0  0  # atno 10167 bound_to 10162
  156.8676  130.9773  151.3077 H   0  0  0  0  0  0  0  0  0  0  0  0  # atno 10718 bound_to 10713
  152.9805  135.5744  154.4909 H   0  0  0  0  0  0  0  0  0  0  0  0  # atno 10763 bound_to 10752
  154.4443  135.2776  155.1828 H   0  0  0  0  0  0  0  0  0  0  0  0  # atno 10764 bound_to 10752
  154.3482  135.6215  153.5683 H   0  0  0  0  0  0  0  0  0  0  0  0  # atno 10765 bound_to 10752
  140.8076  133.8166  155.9531 H   0  0  0  0  0  0  0  0  0  0  0  0  # atno 11005 bound_to 11000
  145.5892  139.1494  143.3191 LP  0  0  0  0  0  0  0  0  0  0  0  0  # atno 17320 bound_to 7965
  146.2108  140.6019  142.9060 LP  0  0  0  0  0  0  0  0  0  0  0  0  # atno 17321 bound_to 7965
  140.5725  144.0084  150.6224 LP  0  0  0  0  0  0  0  0  0  0  0  0  # atno 17342 bound_to 10162
  140.3206  143.3139  152.0788 LP  0  0  0  0  0  0  0  0  0  0  0  0  # atno 17343 bound_to 10162
  157.6214  130.8658  149.9116 LP  0  0  0  0  0  0  0  0  0  0  0  0  # atno 17370 bound_to 10713
  156.0744  130.3681  150.0709 LP  0  0  0  0  0  0  0  0  0  0  0  0  # atno 17371 bound_to 10713
  140.9231  134.2116  157.4913 LP  0  0  0  0  0  0  0  0  0  0  0  0  # atno 17394 bound_to 11000
  139.8716  134.9801  156.5062 LP  0  0  0  0  0  0  0  0  0  0  0  0  # atno 17395 bound_to 11000

$$$$
