AV-unprocessed.smi:218|AV-procd|sdf|1665|dock5
  -GOLD-   2262020 73D 1   1.00000     0.00000
 Structure written by MMmdl.
 54 57  0  0  0  0  0  0  0  0  1 V2000
  151.2435  143.4488  157.9975 C   0  0  0  0  0  0  0  0  0  0  0  0
  150.9964  141.9394  158.1086 C   0  0  0  0  0  0  0  0  0  0  0  0
  151.6618  141.3579  159.3681 C   0  0  0  0  0  0  0  0  0  0  0  0
  151.5474  141.3406  156.9340 O   0  0  0  0  0  0  0  0  0  0  0  0
  150.9034  140.2790  156.3279 C   0  0  0  0  0  0  0  0  0  0  0  0
  150.5733  139.1590  157.1181 C   0  0  0  0  0  0  0  0  0  0  0  0
  149.9244  138.0650  156.5114 C   0  0  0  0  0  0  0  0  0  0  0  0
  149.5451  136.8470  157.3254 C   0  0  0  0  0  0  0  0  0  0  0  0
  150.5437  135.7907  157.2489 N   0  0  0  0  0  0  0  0  0  0  0  0
  150.2281  134.6002  156.6960 C   0  0  0  0  0  0  0  0  0  0  0  0
  150.9928  133.4997  156.9201 N   0  0  0  0  0  0  0  0  0  0  0  0
  150.6607  132.3326  156.3608 C   0  0  0  0  0  0  0  0  0  0  0  0
  149.6293  132.0554  155.5609 N   0  0  0  0  0  0  0  0  0  0  0  0
  148.8556  133.1561  155.3320 C   0  0  0  0  0  0  0  0  0  0  0  0
  149.0890  134.4563  155.8621 C   0  0  0  0  0  0  0  0  0  0  0  0
  148.1038  135.3296  155.4213 N   0  0  0  0  0  0  0  0  0  0  0  0
  147.3342  134.5845  154.6747 C   0  0  0  0  0  0  0  0  0  0  0  0
  147.7118  133.2648  154.5637 N   0  0  0  0  0  0  0  0  0  0  0  0
  147.0151  132.1944  153.7802 C   0  0  1  0  0  0  0  0  0  0  0  0
  145.8438  132.6968  153.2077 O   0  0  0  0  0  0  0  0  0  0  0  0
  145.6569  132.1929  151.8803 C   0  0  1  0  0  0  0  0  0  0  0  0
  145.7345  133.3805  150.8986 C   0  0  0  0  0  0  0  0  0  0  0  0
  145.5048  132.9267  149.5823 O   0  0  0  0  0  0  0  0  0  0  0  0
  146.7690  131.1402  151.7175 C   0  0  1  0  0  0  0  0  0  0  0  0
  147.2084  130.8989  150.3934 O   0  0  0  0  0  0  0  0  0  0  0  0
  147.8701  131.6255  152.6441 C   0  0  1  0  0  0  0  0  0  0  0  0
  148.7211  132.5880  152.0437 O   0  0  0  0  0  0  0  0  0  0  0  0
  149.6220  138.1348  155.1369 C   0  0  0  0  0  0  0  0  0  0  0  0
  149.9907  139.2955  154.4298 C   0  0  0  0  0  0  0  0  0  0  0  0
  150.6181  140.3443  155.0034 N   0  0  0  0  0  0  0  0  0  0  0  0
  146.7485  131.4374  154.5192 H   0  0  0  0  0  0  0  0  0  0  0  0
  144.6830  131.7088  151.7950 H   0  0  0  0  0  0  0  0  0  0  0  0
  146.3934  130.1939  152.1104 H   0  0  0  0  0  0  0  0  0  0  0  0
  148.4837  130.8051  153.0174 H   0  0  0  0  0  0  0  0  0  0  0  0
  150.8333  143.9784  158.8577 H   0  0  0  0  0  0  0  0  0  0  0  0
  150.7719  143.8561  157.1028 H   0  0  0  0  0  0  0  0  0  0  0  0
  152.3093  143.6731  157.9436 H   0  0  0  0  0  0  0  0  0  0  0  0
  149.9164  141.7926  158.1552 H   0  0  0  0  0  0  0  0  0  0  0  0
  151.2767  141.8367  160.2686 H   0  0  0  0  0  0  0  0  0  0  0  0
  152.7413  141.5082  159.3468 H   0  0  0  0  0  0  0  0  0  0  0  0
  151.4797  140.2879  159.4654 H   0  0  0  0  0  0  0  0  0  0  0  0
  150.8148  139.1420  158.1709 H   0  0  0  0  0  0  0  0  0  0  0  0
  149.4056  137.1426  158.3662 H   0  0  0  0  0  0  0  0  0  0  0  0
  148.5863  136.4699  156.9668 H   0  0  0  0  0  0  0  0  0  0  0  0
  151.4489  136.0020  157.6436 H   0  0  0  0  0  0  0  0  0  0  0  0
  151.3145  131.5023  156.5841 H   0  0  0  0  0  0  0  0  0  0  0  0
  146.4594  134.9802  154.1798 H   0  0  0  0  0  0  0  0  0  0  0  0
  145.0305  134.1712  151.1537 H   0  0  0  0  0  0  0  0  0  0  0  0
  146.7295  133.8248  150.9068 H   0  0  0  0  0  0  0  0  0  0  0  0
  145.8052  133.5931  148.9827 H   0  0  0  0  0  0  0  0  0  0  0  0
  148.1515  130.8342  150.3970 H   0  0  0  0  0  0  0  0  0  0  0  0
  149.2304  132.1569  151.3745 H   0  0  0  0  0  0  0  0  0  0  0  0
  149.1191  137.3212  154.6350 H   0  0  0  0  0  0  0  0  0  0  0  0
  149.7760  139.3843  153.3752 H   0  0  0  0  0  0  0  0  0  0  0  0
  1  2  1  0  0  0  0
  1 35  1  0  0  0  0
  1 36  1  0  0  0  0
  1 37  1  0  0  0  0
  2  3  1  0  0  0  0
  2  4  1  0  0  0  0
  2 38  1  0  0  0  0
  3 39  1  0  0  0  0
  3 40  1  0  0  0  0
  3 41  1  0  0  0  0
  4  5  1  0  0  0  0
  5 30  1  0  0  0  0
  5  6  2  0  0  0  0
  6  7  1  0  0  0  0
  6 42  1  0  0  0  0
  7  8  1  0  0  0  0
  7 28  2  0  0  0  0
  8  9  1  0  0  0  0
  8 43  1  0  0  0  0
  8 44  1  0  0  0  0
  9 10  1  0  0  0  0
  9 45  1  0  0  0  0
 10 15  1  0  0  0  0
 10 11  2  0  0  0  0
 11 12  1  0  0  0  0
 12 13  2  0  0  0  0
 12 46  1  0  0  0  0
 13 14  1  0  0  0  0
 14 18  1  0  0  0  0
 14 15  2  0  0  0  0
 15 16  1  0  0  0  0
 16 17  2  0  0  0  0
 17 18  1  0  0  0  0
 17 47  1  0  0  0  0
 18 19  1  0  0  0  0
 19 31  1  0  0  0  0
 19 26  1  0  0  0  0
 19 20  1  0  0  0  0
 20 21  1  0  0  0  0
 21 32  1  0  0  0  0
 21 22  1  0  0  0  0
 21 24  1  0  0  0  0
 22 23  1  0  0  0  0
 22 48  1  0  0  0  0
 22 49  1  0  0  0  0
 23 50  1  0  0  0  0
 24 33  1  0  0  0  0
 24 25  1  0  0  0  0
 24 26  1  0  0  0  0
 25 51  1  0  0  0  0
 26 34  1  0  0  0  0
 26 27  1  0  0  0  0
 27 52  1  0  0  0  0
 28 29  1  0  0  0  0
 28 53  1  0  0  0  0
 29 30  2  0  0  0  0
 29 54  1  0  0  0  0
M  END
> <s_m_source_file>
AV-unprocessed.smi

> <i_m_source_file_index>
218

> <i_lp_mmshare_version>
43012

> <i_f3d_flags>
0

> <s_epik_input>
W0NIM11bQ0hdKFtDSDNdKU9jMVtjSF1jKFtjSF1bY0hdbjEpW0NIMl1bTkhdYyhuW2NIXW4yKWMoYzIzKW5bY0hdbjNbQ0BASF00T1tDQEhdKFtDSDJdW09IXSlbQ0BASF0oW09IXSlbQ0BIXTRbT0hd

> <s_epik_cmdline>
J2VwaWtfcHl0aG9uJywgJy1waCcsICc3LjAnLCAnLXRuJywgJzgnLCAnLW1hJywgJzIwMCcsICctbWV0YWxfYmluZGluZycsICctaW1hZScsICc8aW5maWxlLm1hZT4nLCAnLW9tYWUnLCAnPG91dGZpbGUubWFlPic=

> <r_lp_tautomer_probability>
1

> <r_epik_Ionization_Penalty>
0.00457014

> <r_epik_Ionization_Penalty_Charging>
0

> <r_epik_Ionization_Penalty_Neutral>
0.00457014

> <r_epik_State_Penalty>
-0

> <r_epik_Charging_Adjusted_Penalty>
0

> <i_epik_Tot_Q>
0

> <i_epik_Tot_abs_Q>
0

> <r_epik_Metal_State_Penalty>
-0

> <b_epik_Metal_Only>
0

> <s_epik_Chemistry_Notes>
This compound contains an acetal/aminal-like group ( X-CH(R)-Y where X, Y are N, S, or O) that may be acid/base labile, releasing an aldehyde.

> <s_lp_Force_Field>
OPLS_2005

> <r_lp_Energy>
50.2222

> <b_lp_Chiralities_Consistent>
1

> <s_lp_Variant>
AV-unprocessed.smi:218-4

> <Gold.Version>
5.8.1

> <Gold.Id.Protein>
6NUR|6NUR_protein|mol2

> <Gold.PLP.Fitness>
46.6638

> <Gold.PLP.PLP>
-30.5732

> <Gold.PLP.part.hbond>
-4.6110

> <Gold.PLP.part.metal>
0.0000

> <Gold.PLP.part.buried>
-6.2369

> <Gold.PLP.part.nonpolar>
-21.1501

> <Gold.PLP.part.repulsive>
0.3475

> <Gold.PLP.ligand.clash>
0.0000

> <Gold.PLP.ligand.torsion>
1.0256

> <Gold.PLP.Chemscore.Hbond>
4.9920

> <Gold.PLP.Chemscore.CHOScore>
1.0000

> <Gold.PLP.Chemscore.Metal>
0.0000

> <Gold.Chemscore.Hbonds>
donor molecule, donor type, donor heavy atom, donor atom, acceptor molecule, acceptor atom, score
      L1  H    23    50       P1  7921  0.75
      L1  H    27    52       P1 10747  0.75
      P1  H  6896  6907       L1    11  0.13
      P1  H  7989  7998       L1    30  0.90
      L1  C    29    54       P1  7957  1.00

> <Gold.PLP.Chemscore.Internal.Correction>
0.1658

> <Gold.Rescore>
     Score         DG    S(hbond)    S(metal)    S(lipo)     H(rot)  DE(clash)    DE(int)     intcor
     12.12     -15.18       4.23        0.00      69.30       4.90       0.24       2.81       ----

> <Gold.Chemscore.Fitness>
12.1221

> <Gold.Chemscore.DG>
-15.1764

> <Gold.Chemscore.ZeroCoef>
-5.4800

> <Gold.Chemscore.Hbond>
4.2335

> <Gold.Chemscore.Metal>
0.0000

> <Gold.Chemscore.Lipo>
69.2995

> <Gold.Chemscore.Internal_Hbond>
0.0000

> <Gold.Chemscore.DEClash>
0.2407

> <Gold.Chemscore.DEInternal>
2.8136

> <Gold.Chemscore.Rot>
4.9029

> <Gold.Chemscore.Internal.Correction>
   9.000000E+99

> <Gold.Chemscore.Hbonds>
donor molecule, donor type, donor heavy atom, donor atom, acceptor molecule, acceptor atom, score
      L1  H    23    50       P1  7921  0.09
      L1  H    27    52       P1 10747  0.49
      P1  H  6896  6907       L1    11  0.01
      P1  H  7989  7998       L1    30  0.18

> <Gold.Chemscore.Hbond.Weighted>
-14.1399

> <Gold.Chemscore.Metal.Weighted>
-0.0000

> <Gold.Chemscore.Lipo.Weighted>
-8.1080

> <Gold.Chemscore.Internal_Hbond.Weighted>
0.0000

> <Gold.Chemscore.DEClash.Weighted>
0.2407

> <Gold.Chemscore.DEInternal.Weighted>
2.8136

> <Gold.Chemscore.Rot.Weighted>
12.5515

> <Gold.Chemscore.Internal.Correction.Weighted>
   9.000000E+99

> <Gold.Protein.RotatedTorsions>
[ 6907 6896 6895 6894 ] final -126.63 input  -60.11 | X-H torsion
[ 7974 7965 7964 7962 ] final  -51.93 input  175.53 | X-H torsion
[ 8008 7997 7996 7995 ] final  143.68 input   59.86 | X-H torsion
[ 10167 10162 10161 10158 ] final   57.25 input  -65.29 | X-H torsion
[ 10718 10713 10712 10709 ] final  -94.12 input   66.30 | X-H torsion
[ 10763 10752 10751 10750 ] final  -63.57 input  -60.55 | X-H torsion
[ 11005 11000 10999 10996 ] final -125.54 input  -57.11 | X-H torsion

> <Gold.Protein.ActiveResidues>
 VAL166  LYS551  ARG553  GLY616  TRP617  ASP618  TYR619  PRO620  LYS621  CYS622 
 ASP623  PHE694  ASN695  SER759  ASP760  ASP761  ALA762  ILE779  LEU786  VAL792 
 PHE793  MET794  SER795  GLU796  ALA797  LYS798  CYS799  TRP800  GLU811  SER814 

> <Gold.Protein.RotatedAtoms>
  150.8989  133.7145  159.2884 H   0  0  0  0  0  0  0  0  0  0  0  0  # atno 6907 bound_to 6896
  151.4670  135.1041  159.9750 H   0  0  0  0  0  0  0  0  0  0  0  0  # atno 6908 bound_to 6896
  152.4865  133.8338  159.7172 H   0  0  0  0  0  0  0  0  0  0  0  0  # atno 6909 bound_to 6896
  145.9135  140.7894  142.9683 H   0  0  0  0  0  0  0  0  0  0  0  0  # atno 7974 bound_to 7965
  156.2925  140.2256  156.4931 H   0  0  0  0  0  0  0  0  0  0  0  0  # atno 8008 bound_to 7997
  154.7754  140.0464  157.1106 H   0  0  0  0  0  0  0  0  0  0  0  0  # atno 8009 bound_to 7997
  154.9823  140.3080  155.4944 H   0  0  0  0  0  0  0  0  0  0  0  0  # atno 8010 bound_to 7997
  140.2000  144.3998  150.6533 H   0  0  0  0  0  0  0  0  0  0  0  0  # atno 10167 bound_to 10162
  156.0022  130.5054  150.5878 H   0  0  0  0  0  0  0  0  0  0  0  0  # atno 10718 bound_to 10713
  154.3170  135.6204  153.5491 H   0  0  0  0  0  0  0  0  0  0  0  0  # atno 10763 bound_to 10752
  152.9823  135.5715  154.5112 H   0  0  0  0  0  0  0  0  0  0  0  0  # atno 10764 bound_to 10752
  154.4773  135.2861  155.1574 H   0  0  0  0  0  0  0  0  0  0  0  0  # atno 10765 bound_to 10752
  140.9754  134.0748  157.3824 H   0  0  0  0  0  0  0  0  0  0  0  0  # atno 11005 bound_to 11000
  144.6745  140.1864  143.7401 LP  0  0  0  0  0  0  0  0  0  0  0  0  # atno 17320 bound_to 7965
  145.8641  139.2238  143.1699 LP  0  0  0  0  0  0  0  0  0  0  0  0  # atno 17321 bound_to 7965
  140.6397  143.2201  151.6317 LP  0  0  0  0  0  0  0  0  0  0  0  0  # atno 17342 bound_to 10162
  139.5221  144.3173  152.0941 LP  0  0  0  0  0  0  0  0  0  0  0  0  # atno 17343 bound_to 10162
  157.3748  131.0771  151.1527 LP  0  0  0  0  0  0  0  0  0  0  0  0  # atno 17370 bound_to 10713
  157.2269  130.6507  149.5833 LP  0  0  0  0  0  0  0  0  0  0  0  0  # atno 17371 bound_to 10713
  139.8928  135.0127  156.6867 LP  0  0  0  0  0  0  0  0  0  0  0  0  # atno 17394 bound_to 11000
  140.7267  133.9094  155.8183 LP  0  0  0  0  0  0  0  0  0  0  0  0  # atno 17395 bound_to 11000

$$$$
