AV-unprocessed.smi:1458|AV-procd|sdf|5921|dock4
  -GOLD-   22720 6 03D 1   1.00000     0.00000
 Structure written by MMmdl.
 46 47  0  0  0  0  0  0  0  0  1 V2000
  144.9848  135.6831  150.5723 C   0  0  0  0  0  0  0  0  0  0  0  0
  145.9931  136.6707  150.6903 O   0  0  0  0  0  0  0  0  0  0  0  0
  145.8015  137.5104  151.8173 C   0  0  0  0  0  0  0  0  0  0  0  0
  146.6283  138.7914  151.6386 C   0  0  0  0  0  0  0  0  0  0  0  0
  147.8599  138.7480  152.4193 N   0  0  0  0  0  0  0  0  0  0  0  0
  148.1966  139.6231  153.3769 C   0  0  0  0  0  0  0  0  0  0  0  0
  147.4925  140.5790  153.7019 O   0  0  0  0  0  0  0  0  0  0  0  0
  149.3754  139.3000  153.9352 N   0  0  0  0  0  0  0  0  0  0  0  0
  150.1031  139.9992  154.9355 C   0  0  0  0  0  0  0  0  0  0  0  0
  151.3681  139.6017  155.4269 C   0  0  0  0  0  0  0  0  0  0  0  0
  151.9741  140.3629  156.4449 C   0  0  0  0  0  0  0  0  0  0  0  0
  151.3018  141.4980  156.9565 C   0  0  0  0  0  0  0  0  0  0  0  0
  151.8865  142.2665  157.9869 N   0  0  0  0  0  0  0  0  0  0  0  0
  152.2511  141.5239  159.1908 C   0  0  0  0  0  0  0  0  0  0  0  0
  153.1355  142.3864  160.1112 C   0  0  2  0  0  0  0  0  0  0  0  0
  153.4356  141.6860  161.4405 C   0  0  0  0  0  0  0  0  0  0  0  0
  152.4654  143.6118  160.3937 O   0  0  0  0  0  0  0  0  0  0  0  0
  152.2186  144.3793  159.2190 C   0  0  2  0  0  0  0  0  0  0  0  0
  151.5841  145.7093  159.6386 C   0  0  0  0  0  0  0  0  0  0  0  0
  151.3052  143.5766  158.2741 C   0  0  0  0  0  0  0  0  0  0  0  0
  150.0892  141.8750  156.4818 N   0  0  0  0  0  0  0  0  0  0  0  0
  149.5109  141.1421  155.5079 C   0  0  0  0  0  0  0  0  0  0  0  0
  145.1757  135.0682  149.6929 H   0  0  0  0  0  0  0  0  0  0  0  0
  143.9991  136.1364  150.4586 H   0  0  0  0  0  0  0  0  0  0  0  0
  144.9712  135.0282  151.4447 H   0  0  0  0  0  0  0  0  0  0  0  0
  144.7448  137.7671  151.9065 H   0  0  0  0  0  0  0  0  0  0  0  0
  146.0887  136.9932  152.7345 H   0  0  0  0  0  0  0  0  0  0  0  0
  146.8863  138.9251  150.5877 H   0  0  0  0  0  0  0  0  0  0  0  0
  146.0368  139.6628  151.9239 H   0  0  0  0  0  0  0  0  0  0  0  0
  148.4939  137.9871  152.2241 H   0  0  0  0  0  0  0  0  0  0  0  0
  149.7866  138.4300  153.6301 H   0  0  0  0  0  0  0  0  0  0  0  0
  151.8778  138.7255  155.0580 H   0  0  0  0  0  0  0  0  0  0  0  0
  152.9458  140.0712  156.8142 H   0  0  0  0  0  0  0  0  0  0  0  0
  151.3376  141.2341  159.7116 H   0  0  0  0  0  0  0  0  0  0  0  0
  152.7828  140.6044  158.9498 H   0  0  0  0  0  0  0  0  0  0  0  0
  154.0820  142.6034  159.6127 H   0  0  0  0  0  0  0  0  0  0  0  0
  153.9617  140.7450  161.2780 H   0  0  0  0  0  0  0  0  0  0  0  0
  152.5180  141.4667  161.9869 H   0  0  0  0  0  0  0  0  0  0  0  0
  154.0618  142.3112  162.0773 H   0  0  0  0  0  0  0  0  0  0  0  0
  153.1678  144.5893  158.7224 H   0  0  0  0  0  0  0  0  0  0  0  0
  151.3878  146.3407  158.7718 H   0  0  0  0  0  0  0  0  0  0  0  0
  152.2426  146.2611  160.3096 H   0  0  0  0  0  0  0  0  0  0  0  0
  150.6386  145.5486  160.1575 H   0  0  0  0  0  0  0  0  0  0  0  0
  151.1645  144.1344  157.3473 H   0  0  0  0  0  0  0  0  0  0  0  0
  150.3218  143.4419  158.7272 H   0  0  0  0  0  0  0  0  0  0  0  0
  148.5413  141.4827  155.1746 H   0  0  0  0  0  0  0  0  0  0  0  0
  1  2  1  0  0  0  0
  1 23  1  0  0  0  0
  1 24  1  0  0  0  0
  1 25  1  0  0  0  0
  2  3  1  0  0  0  0
  3  4  1  0  0  0  0
  3 26  1  0  0  0  0
  3 27  1  0  0  0  0
  4  5  1  0  0  0  0
  4 28  1  0  0  0  0
  4 29  1  0  0  0  0
  5  6  1  0  0  0  0
  5 30  1  0  0  0  0
  6  7  2  0  0  0  0
  6  8  1  0  0  0  0
  8  9  1  0  0  0  0
  8 31  1  0  0  0  0
  9 22  1  0  0  0  0
  9 10  2  0  0  0  0
 10 11  1  0  0  0  0
 10 32  1  0  0  0  0
 11 12  2  0  0  0  0
 11 33  1  0  0  0  0
 12 13  1  0  0  0  0
 12 21  1  0  0  0  0
 13 20  1  0  0  0  0
 13 14  1  0  0  0  0
 14 15  1  0  0  0  0
 14 34  1  0  0  0  0
 14 35  1  0  0  0  0
 15 16  1  0  0  0  0
 15 17  1  0  0  0  0
 15 36  1  0  0  0  0
 16 37  1  0  0  0  0
 16 38  1  0  0  0  0
 16 39  1  0  0  0  0
 17 18  1  0  0  0  0
 18 19  1  0  0  0  0
 18 20  1  0  0  0  0
 18 40  1  0  0  0  0
 19 41  1  0  0  0  0
 19 42  1  0  0  0  0
 19 43  1  0  0  0  0
 20 44  1  0  0  0  0
 20 45  1  0  0  0  0
 21 22  2  0  0  0  0
 22 46  1  0  0  0  0
M  END
> <s_m_source_file>
AV-unprocessed.smi

> <i_m_source_file_index>
1458

> <i_lp_mmshare_version>
43012

> <i_f3d_flags>
0

> <s_epik_input>
W0NIM11PW0NIMl1bQ0gyXVtOSF1DKD1PKVtOSF1jMVtjSF1bY0hdYyhuW2NIXTEpTjJbQ0gyXVtDQEBIXShbQ0gzXSlPW0NAQEhdKFtDSDNdKVtDSDJdMg==

> <s_epik_cmdline>
J2VwaWtfcHl0aG9uJywgJy1waCcsICc3LjAnLCAnLXRuJywgJzgnLCAnLW1hJywgJzIwMCcsICctbWV0YWxfYmluZGluZycsICctaW1hZScsICc8aW5maWxlLm1hZT4nLCAnLW9tYWUnLCAnPG91dGZpbGUubWFlPic=

> <r_lp_tautomer_probability>
1

> <r_epik_Ionization_Penalty>
0.00266072

> <r_epik_Ionization_Penalty_Charging>
0

> <r_epik_Ionization_Penalty_Neutral>
0.00266072

> <r_epik_State_Penalty>
0.00182795

> <r_epik_Charging_Adjusted_Penalty>
0.00182795

> <i_epik_Tot_Q>
0

> <i_epik_Tot_abs_Q>
0

> <r_epik_Metal_State_Penalty>
-0

> <b_epik_Metal_Only>
0

> <s_lp_Force_Field>
OPLS_2005

> <r_lp_Energy>
18.5375

> <b_lp_Chiralities_Consistent>
1

> <s_lp_Variant>
AV-unprocessed.smi:1458-1

> <Gold.Version>
5.8.1

> <Gold.Id.Protein>
6NUR|6NUR_protein|mol2

> <Gold.PLP.Fitness>
48.8316

> <Gold.PLP.PLP>
-46.6113

> <Gold.PLP.part.hbond>
-3.0000

> <Gold.PLP.part.metal>
0.0000

> <Gold.PLP.part.buried>
-3.6038

> <Gold.PLP.part.nonpolar>
-41.1593

> <Gold.PLP.part.repulsive>
0.7542

> <Gold.PLP.ligand.clash>
0.0000

> <Gold.PLP.ligand.torsion>
0.5480

> <Gold.PLP.Chemscore.Hbond>
1.0000

> <Gold.PLP.Chemscore.CHOScore>
0.0000

> <Gold.PLP.Chemscore.Metal>
0.0000

> <Gold.Chemscore.Hbonds>
donor molecule, donor type, donor heavy atom, donor atom, acceptor molecule, acceptor atom, score
      L1  H     5    30       P1  7948  1.00

> <Gold.PLP.Chemscore.Internal.Correction>
0.3163

> <Gold.Rescore>
     Score         DG    S(hbond)    S(metal)    S(lipo)     H(rot)  DE(clash)    DE(int)     intcor
     15.48     -17.71       0.99        0.00     111.62       1.62       0.06       2.17       ----

> <Gold.Chemscore.Fitness>
15.4795

> <Gold.Chemscore.DG>
-17.7087

> <Gold.Chemscore.ZeroCoef>
-5.4800

> <Gold.Chemscore.Hbond>
0.9934

> <Gold.Chemscore.Metal>
0.0000

> <Gold.Chemscore.Lipo>
111.6179

> <Gold.Chemscore.Internal_Hbond>
0.0000

> <Gold.Chemscore.DEClash>
0.0575

> <Gold.Chemscore.DEInternal>
2.1717

> <Gold.Chemscore.Rot>
1.6206

> <Gold.Chemscore.Internal.Correction>
   9.000000E+99

> <Gold.Chemscore.Hbonds>
donor molecule, donor type, donor heavy atom, donor atom, acceptor molecule, acceptor atom, score
      L1  H     5    30       P1  7948  0.99

> <Gold.Chemscore.Hbond.Weighted>
-3.3181

> <Gold.Chemscore.Metal.Weighted>
-0.0000

> <Gold.Chemscore.Lipo.Weighted>
-13.0593

> <Gold.Chemscore.Internal_Hbond.Weighted>
0.0000

> <Gold.Chemscore.DEClash.Weighted>
0.0575

> <Gold.Chemscore.DEInternal.Weighted>
2.1717

> <Gold.Chemscore.Rot.Weighted>
4.1486

> <Gold.Chemscore.Internal.Correction.Weighted>
   9.000000E+99

> <Gold.Protein.RotatedTorsions>
[ 6907 6896 6895 6894 ] final -157.05 input  -60.11 | X-H torsion
[ 7974 7965 7964 7962 ] final   31.69 input  175.53 | X-H torsion
[ 8008 7997 7996 7995 ] final   -3.48 input   59.86 | X-H torsion
[ 10167 10162 10161 10158 ] final   54.00 input  -65.29 | X-H torsion
[ 10718 10713 10712 10709 ] final  -89.03 input   66.30 | X-H torsion
[ 10763 10752 10751 10750 ] final  -99.14 input  -60.55 | X-H torsion
[ 11005 11000 10999 10996 ] final -137.66 input  -57.11 | X-H torsion

> <Gold.Protein.ActiveResidues>
 VAL166  LYS551  ARG553  GLY616  TRP617  ASP618  TYR619  PRO620  LYS621  CYS622 
 ASP623  PHE694  ASN695  SER759  ASP760  ASP761  ALA762  ILE779  LEU786  VAL792 
 PHE793  MET794  SER795  GLU796  ALA797  LYS798  CYS799  TRP800  GLU811  SER814 

> <Gold.Protein.RotatedAtoms>
  151.2969  133.4140  159.2636 H   0  0  0  0  0  0  0  0  0  0  0  0  # atno 6907 bound_to 6896
  151.0229  134.9483  159.8079 H   0  0  0  0  0  0  0  0  0  0  0  0  # atno 6908 bound_to 6896
  152.5328  134.2932  159.9103 H   0  0  0  0  0  0  0  0  0  0  0  0  # atno 6909 bound_to 6896
  146.1534  139.6623  142.9083 H   0  0  0  0  0  0  0  0  0  0  0  0  # atno 7974 bound_to 7965
  154.6245  140.2508  155.7509 H   0  0  0  0  0  0  0  0  0  0  0  0  # atno 8008 bound_to 7997
  156.2445  140.2920  156.0487 H   0  0  0  0  0  0  0  0  0  0  0  0  # atno 8009 bound_to 7997
  155.1844  140.0390  157.2879 H   0  0  0  0  0  0  0  0  0  0  0  0  # atno 8010 bound_to 7997
  140.2347  144.3648  150.6401 H   0  0  0  0  0  0  0  0  0  0  0  0  # atno 10167 bound_to 10162
  155.9984  130.4857  150.5109 H   0  0  0  0  0  0  0  0  0  0  0  0  # atno 10718 bound_to 10713
  154.7473  135.4983  153.9226 H   0  0  0  0  0  0  0  0  0  0  0  0  # atno 10763 bound_to 10752
  153.1105  135.6708  153.9517 H   0  0  0  0  0  0  0  0  0  0  0  0  # atno 10764 bound_to 10752
  153.9277  135.3081  155.3425 H   0  0  0  0  0  0  0  0  0  0  0  0  # atno 10765 bound_to 10752
  140.8690  134.2074  157.4662 H   0  0  0  0  0  0  0  0  0  0  0  0  # atno 11005 bound_to 11000
  145.4768  141.0437  143.2668 LP  0  0  0  0  0  0  0  0  0  0  0  0  # atno 17320 bound_to 7965
  144.7932  139.6286  143.7104 LP  0  0  0  0  0  0  0  0  0  0  0  0  # atno 17321 bound_to 7965
  140.6158  143.2172  151.6794 LP  0  0  0  0  0  0  0  0  0  0  0  0  # atno 17342 bound_to 10162
  139.5098  144.3566  152.0602 LP  0  0  0  0  0  0  0  0  0  0  0  0  # atno 17343 bound_to 10162
  157.3082  131.0658  151.2020 LP  0  0  0  0  0  0  0  0  0  0  0  0  # atno 17370 bound_to 10713
  157.2975  130.6826  149.6146 LP  0  0  0  0  0  0  0  0  0  0  0  0  # atno 17371 bound_to 10713
  139.8711  134.9765  156.4924 LP  0  0  0  0  0  0  0  0  0  0  0  0  # atno 17394 bound_to 11000
  140.8595  133.8070  155.9251 LP  0  0  0  0  0  0  0  0  0  0  0  0  # atno 17395 bound_to 11000

$$$$
