AV-unprocessed.smi:101|AV-procd|sdf|921|dock4
  -GOLD-   2262017423D 1   1.00000     0.00000
 Structure written by MMmdl.
 44 46  0  0  0  0  0  0  0  0  1 V2000
  144.5373  137.1218  157.2446 C   0  0  0  0  0  0  0  0  0  0  0  0
  144.9083  137.1672  155.7713 C   0  0  0  0  0  0  0  0  0  0  0  0
  145.9385  137.9181  155.3038 C   0  0  0  0  0  0  0  0  0  0  0  0
  146.3020  137.9797  153.9631 N   0  0  0  0  0  0  0  0  0  0  0  0
  147.4695  138.8165  153.4679 C   0  0  2  0  0  0  0  0  0  0  0  0
  148.5830  138.5975  154.2823 O   0  0  0  0  0  0  0  0  0  0  0  0
  148.7981  139.7288  155.1182 C   0  0  1  0  0  0  0  0  0  0  0  0
  150.2323  139.7486  155.6611 C   0  0  0  0  0  0  0  0  0  0  0  0
  150.2890  140.6945  156.7155 O   0  0  0  0  0  0  0  0  0  0  0  0
  151.1826  140.5525  157.7110 C   0  0  0  0  0  0  0  0  0  0  0  0
  151.6017  139.4616  158.1028 O   0  0  0  0  0  0  0  0  0  0  0  0
  151.6090  141.8585  158.2921 C   0  0  0  0  0  0  0  0  0  0  0  0
  152.3882  141.8710  159.4725 C   0  0  0  0  0  0  0  0  0  0  0  0
  152.8018  143.0892  160.0460 C   0  0  0  0  0  0  0  0  0  0  0  0
  152.4424  144.3097  159.4452 C   0  0  0  0  0  0  0  0  0  0  0  0
  151.6690  144.3109  158.2697 C   0  0  0  0  0  0  0  0  0  0  0  0
  151.2535  143.0939  157.6952 C   0  0  0  0  0  0  0  0  0  0  0  0
  148.3958  140.9005  154.2202 C   0  0  1  0  0  0  0  0  0  0  0  0
  149.4334  141.2236  153.3122 O   0  0  0  0  0  0  0  0  0  0  0  0
  147.1857  140.3419  153.4804 C   0  0  2  0  0  0  0  0  0  0  0  0
  146.0033  140.7007  154.1756 O   0  0  0  0  0  0  0  0  0  0  0  0
  145.5767  137.2247  153.0186 C   0  0  0  0  0  0  0  0  0  0  0  0
  145.8404  137.2351  151.8167 O   0  0  0  0  0  0  0  0  0  0  0  0
  144.5189  136.4548  153.4976 N   0  0  0  0  0  0  0  0  0  0  0  0
  144.1181  136.3658  154.8326 C   0  0  0  0  0  0  0  0  0  0  0  0
  143.1645  135.6499  155.1339 O   0  0  0  0  0  0  0  0  0  0  0  0
  143.9970  135.9152  152.8227 H   0  0  0  0  0  0  0  0  0  0  0  0
  145.2008  137.7408  157.8495 H   0  0  0  0  0  0  0  0  0  0  0  0
  144.5980  136.1005  157.6223 H   0  0  0  0  0  0  0  0  0  0  0  0
  143.5182  137.4814  157.3914 H   0  0  0  0  0  0  0  0  0  0  0  0
  146.4959  138.4904  156.0289 H   0  0  0  0  0  0  0  0  0  0  0  0
  147.7095  138.4295  152.4755 H   0  0  0  0  0  0  0  0  0  0  0  0
  148.0974  139.6910  155.9540 H   0  0  0  0  0  0  0  0  0  0  0  0
  150.5282  138.7579  156.0096 H   0  0  0  0  0  0  0  0  0  0  0  0
  150.9278  140.0497  154.8768 H   0  0  0  0  0  0  0  0  0  0  0  0
  152.6754  140.9465  159.9527 H   0  0  0  0  0  0  0  0  0  0  0  0
  153.3949  143.0863  160.9487 H   0  0  0  0  0  0  0  0  0  0  0  0
  152.7588  145.2437  159.8858 H   0  0  0  0  0  0  0  0  0  0  0  0
  151.3929  145.2470  157.8071 H   0  0  0  0  0  0  0  0  0  0  0  0
  150.6599  143.1317  156.7932 H   0  0  0  0  0  0  0  0  0  0  0  0
  148.1614  141.7960  154.7978 H   0  0  0  0  0  0  0  0  0  0  0  0
  149.4253  140.5938  152.6076 H   0  0  0  0  0  0  0  0  0  0  0  0
  147.1119  140.7143  152.4577 H   0  0  0  0  0  0  0  0  0  0  0  0
  145.2879  140.7119  153.5579 H   0  0  0  0  0  0  0  0  0  0  0  0
  1  2  1  0  0  0  0
  1 28  1  0  0  0  0
  1 29  1  0  0  0  0
  1 30  1  0  0  0  0
  2 25  1  0  0  0  0
  2  3  2  0  0  0  0
  3  4  1  0  0  0  0
  3 31  1  0  0  0  0
  4  5  1  0  0  0  0
  4 22  1  0  0  0  0
  5 20  1  0  0  0  0
  5  6  1  0  0  0  0
  5 32  1  0  0  0  0
  6  7  1  0  0  0  0
  7  8  1  0  0  0  0
  7 18  1  0  0  0  0
  7 33  1  0  0  0  0
  8  9  1  0  0  0  0
  8 34  1  0  0  0  0
  8 35  1  0  0  0  0
  9 10  1  0  0  0  0
 10 11  2  0  0  0  0
 10 12  1  0  0  0  0
 12 17  1  0  0  0  0
 12 13  2  0  0  0  0
 13 14  1  0  0  0  0
 13 36  1  0  0  0  0
 14 15  2  0  0  0  0
 14 37  1  0  0  0  0
 15 16  1  0  0  0  0
 15 38  1  0  0  0  0
 16 17  2  0  0  0  0
 16 39  1  0  0  0  0
 17 40  1  0  0  0  0
 18 19  1  0  0  0  0
 18 20  1  0  0  0  0
 18 41  1  0  0  0  0
 19 42  1  0  0  0  0
 20 21  1  0  0  0  0
 20 43  1  0  0  0  0
 21 44  1  0  0  0  0
 22 23  2  0  0  0  0
 22 24  1  0  0  0  0
 24 27  1  0  0  0  0
 24 25  1  0  0  0  0
 25 26  2  0  0  0  0
M  END
> <s_m_source_file>
AV-unprocessed.smi

> <i_m_source_file_index>
101

> <i_lp_mmshare_version>
43012

> <i_f3d_flags>
0

> <s_epik_input>
Tz1jMVtuSF1jKD1PKW4oW2NIXWMxW0NIM10pW0NAQEhdMk9bQ0BIXShbQ0BASF0oW09IXSlbQ0BIXTJbT0hdKVtDSDJdT0MoPU8pYzNbY0hdW2NIXVtjSF1bY0hdW2NIXTM=

> <s_epik_cmdline>
J2VwaWtfcHl0aG9uJywgJy1waCcsICc3LjAnLCAnLXRuJywgJzgnLCAnLW1hJywgJzIwMCcsICctbWV0YWxfYmluZGluZycsICctaW1hZScsICc8aW5maWxlLm1hZT4nLCAnLW9tYWUnLCAnPG91dGZpbGUubWFlPic=

> <r_lp_tautomer_probability>
0.999537

> <r_epik_Ionization_Penalty>
0.00263537

> <r_epik_Ionization_Penalty_Charging>
0.00263428

> <r_epik_Ionization_Penalty_Neutral>
1.09111e-06

> <r_epik_State_Penalty>
0.00183335

> <r_epik_Charging_Adjusted_Penalty>
0.00446763

> <i_epik_Tot_Q>
0

> <i_epik_Tot_abs_Q>
0

> <r_epik_Metal_State_Penalty>
1.00528

> <b_epik_Metal_Only>
0

> <s_epik_Chemistry_Notes>
This compound has an ester and may undergo hydrolysis at high or low pH. This compound contains an acetal/aminal-like group ( X-CH(R)-Y where X, Y are N, S, or O) that may be acid/base labile, releasing an aldehyde.

> <s_lp_Force_Field>
OPLS_2005

> <r_lp_Energy>
37.3052

> <b_lp_Chiralities_Consistent>
1

> <s_lp_Variant>
AV-unprocessed.smi:101-9

> <Gold.Version>
5.8.1

> <Gold.Id.Protein>
6NUR|6NUR_protein|mol2

> <Gold.PLP.Fitness>
45.3971

> <Gold.PLP.PLP>
-38.2973

> <Gold.PLP.part.hbond>
-3.4363

> <Gold.PLP.part.metal>
0.0000

> <Gold.PLP.part.buried>
-7.0662

> <Gold.PLP.part.nonpolar>
-29.3911

> <Gold.PLP.part.repulsive>
0.4830

> <Gold.PLP.ligand.clash>
0.0000

> <Gold.PLP.ligand.torsion>
0.9678

> <Gold.PLP.Chemscore.Hbond>
2.9645

> <Gold.PLP.Chemscore.CHOScore>
0.0000

> <Gold.PLP.Chemscore.Metal>
0.0000

> <Gold.Chemscore.Hbonds>
donor molecule, donor type, donor heavy atom, donor atom, acceptor molecule, acceptor atom, score
      L1  H    19    42       P1  7957  1.00
      L1  H    21    44       P1 10175  1.00
      P1  H  7989  7998       L1    19  0.03
      P1  H  8011  8017       L1    19  0.60

> <Gold.PLP.Chemscore.Internal.Correction>
0.1420

> <Gold.Rescore>
     Score         DG    S(hbond)    S(metal)    S(lipo)     H(rot)  DE(clash)    DE(int)     intcor
     14.83     -16.12       2.36        0.00      96.18       3.32       0.06       1.22       ----

> <Gold.Chemscore.Fitness>
14.8346

> <Gold.Chemscore.DG>
-16.1208

> <Gold.Chemscore.ZeroCoef>
-5.4800

> <Gold.Chemscore.Hbond>
2.3593

> <Gold.Chemscore.Metal>
0.0000

> <Gold.Chemscore.Lipo>
96.1778

> <Gold.Chemscore.Internal_Hbond>
0.0000

> <Gold.Chemscore.DEClash>
0.0649

> <Gold.Chemscore.DEInternal>
1.2214

> <Gold.Chemscore.Rot>
3.3172

> <Gold.Chemscore.Internal.Correction>
   9.000000E+99

> <Gold.Chemscore.Hbonds>
donor molecule, donor type, donor heavy atom, donor atom, acceptor molecule, acceptor atom, score
      L1  H    19    42       P1  7957  0.95
      L1  H    21    44       P1 10175  0.92
      P1  H  8011  8017       L1    19  0.04

> <Gold.Chemscore.Hbond.Weighted>
-7.8801

> <Gold.Chemscore.Metal.Weighted>
-0.0000

> <Gold.Chemscore.Lipo.Weighted>
-11.2528

> <Gold.Chemscore.Internal_Hbond.Weighted>
0.0000

> <Gold.Chemscore.DEClash.Weighted>
0.0649

> <Gold.Chemscore.DEInternal.Weighted>
1.2214

> <Gold.Chemscore.Rot.Weighted>
8.4920

> <Gold.Chemscore.Internal.Correction.Weighted>
   9.000000E+99

> <Gold.Protein.RotatedTorsions>
[ 6907 6896 6895 6894 ] final -107.27 input  -60.11 | X-H torsion
[ 7974 7965 7964 7962 ] final -112.82 input  175.53 | X-H torsion
[ 8008 7997 7996 7995 ] final  -58.15 input   59.86 | X-H torsion
[ 10167 10162 10161 10158 ] final  -34.87 input  -65.29 | X-H torsion
[ 10718 10713 10712 10709 ] final  -12.80 input   66.30 | X-H torsion
[ 10763 10752 10751 10750 ] final   91.39 input  -60.55 | X-H torsion
[ 11005 11000 10999 10996 ] final  -42.23 input  -57.11 | X-H torsion

> <Gold.Protein.ActiveResidues>
 VAL166  LYS551  ARG553  GLY616  TRP617  ASP618  TYR619  PRO620  LYS621  CYS622 
 ASP623  PHE694  ASN695  SER759  ASP760  ASP761  ALA762  ILE779  LEU786  VAL792 
 PHE793  MET794  SER795  GLU796  ALA797  LYS798  CYS799  TRP800  GLU811  SER814 

> <Gold.Protein.RotatedAtoms>
  150.7435  133.9852  159.3588 H   0  0  0  0  0  0  0  0  0  0  0  0  # atno 6907 bound_to 6896
  151.7796  135.0763  160.0381 H   0  0  0  0  0  0  0  0  0  0  0  0  # atno 6908 bound_to 6896
  152.3283  133.5893  159.5828 H   0  0  0  0  0  0  0  0  0  0  0  0  # atno 6909 bound_to 6896
  145.1394  140.8769  143.3711 H   0  0  0  0  0  0  0  0  0  0  0  0  # atno 7974 bound_to 7965
  154.4297  140.1090  156.5911 H   0  0  0  0  0  0  0  0  0  0  0  0  # atno 8008 bound_to 7997
  155.6011  140.3493  155.4575 H   0  0  0  0  0  0  0  0  0  0  0  0  # atno 8009 bound_to 7997
  156.0172  140.1232  157.0383 H   0  0  0  0  0  0  0  0  0  0  0  0  # atno 8010 bound_to 7997
  140.7177  143.3517  151.2141 H   0  0  0  0  0  0  0  0  0  0  0  0  # atno 10167 bound_to 10162
  156.6394  130.4924  149.6100 H   0  0  0  0  0  0  0  0  0  0  0  0  # atno 10718 bound_to 10713
  153.2077  135.4399  155.0343 H   0  0  0  0  0  0  0  0  0  0  0  0  # atno 10763 bound_to 10752
  154.8183  135.3325  154.7115 H   0  0  0  0  0  0  0  0  0  0  0  0  # atno 10764 bound_to 10752
  153.7555  135.6995  153.4992 H   0  0  0  0  0  0  0  0  0  0  0  0  # atno 10765 bound_to 10752
  141.0301  133.6824  156.2565 H   0  0  0  0  0  0  0  0  0  0  0  0  # atno 11005 bound_to 11000
  145.0549  139.3152  143.5910 LP  0  0  0  0  0  0  0  0  0  0  0  0  # atno 17320 bound_to 7965
  146.3506  139.9970  142.8680 LP  0  0  0  0  0  0  0  0  0  0  0  0  # atno 17321 bound_to 7965
  139.7050  143.9470  152.2922 LP  0  0  0  0  0  0  0  0  0  0  0  0  # atno 17342 bound_to 10162
  139.9176  144.6819  150.8495 LP  0  0  0  0  0  0  0  0  0  0  0  0  # atno 17343 bound_to 10162
  156.2171  130.6714  151.1330 LP  0  0  0  0  0  0  0  0  0  0  0  0  # atno 17370 bound_to 10713
  157.7175  131.0701  150.6267 LP  0  0  0  0  0  0  0  0  0  0  0  0  # atno 17371 bound_to 10713
  140.6422  134.5154  157.5570 LP  0  0  0  0  0  0  0  0  0  0  0  0  # atno 17394 bound_to 11000
  139.9202  134.8164  156.1236 LP  0  0  0  0  0  0  0  0  0  0  0  0  # atno 17395 bound_to 11000

$$$$
