AV-unprocessed.smi:66|AV-procd|sdf|627|dock1
  -GOLD-   2262016523D 1   1.00000     0.00000
 Structure written by MMmdl.
 27 29  0  0  0  0  0  0  0  0  3 V2000
  152.1805  137.3900  154.8785 O   0  0  0  0  0  0  0  0  0  0  0  0
  151.9987  138.6256  154.9424 C   0  0  0  0  0  0  0  0  0  0  0  0
  152.8830  139.4963  154.7815 O   0  5  0  0  0  0  0  0  0  0  0  0
  150.5653  139.0994  155.2245 C   0  0  2  0  0  0  0  0  0  0  0  0
  149.5916  138.6907  154.1096 C   0  0  0  0  0  0  0  0  0  0  0  0
  148.5075  139.7593  154.2111 C   0  0  2  0  0  0  0  0  0  0  0  0
  147.7643  139.8973  153.0180 O   0  0  0  0  0  0  0  0  0  0  0  0
  149.2902  141.0241  154.5712 C   0  0  0  0  0  0  0  0  0  0  0  0
  150.4568  140.5583  155.3118 N   0  0  0  0  0  0  0  0  0  0  0  0
  150.8962  141.2732  156.4489 C   0  0  0  0  0  0  0  0  0  0  0  0
  150.6453  142.6065  156.5074 N   0  0  0  0  0  0  0  0  0  0  0  0
  151.0677  143.2778  157.5841 C   0  0  0  0  0  0  0  0  0  0  0  0
  151.7277  142.7813  158.6344 N   0  0  0  0  0  0  0  0  0  0  0  0
  151.9810  141.4571  158.5951 C   0  0  0  0  0  0  0  0  0  0  0  0
  152.5886  140.6441  159.4443 N   0  5  0  0  0  0  0  0  0  0  0  0
  152.5535  139.3984  158.9059 C   0  0  0  0  0  0  0  0  0  0  0  0
  151.9366  139.3465  157.7080 N   0  0  0  0  0  0  0  0  0  0  0  0
  151.5872  140.6549  157.5243 C   0  0  0  0  0  0  0  0  0  0  0  0
  150.2185  138.6651  156.1634 H   0  0  0  0  0  0  0  0  0  0  0  0
  150.0722  138.7404  153.1303 H   0  0  0  0  0  0  0  0  0  0  0  0
  149.2008  137.6815  154.2417 H   0  0  0  0  0  0  0  0  0  0  0  0
  147.8302  139.5069  155.0284 H   0  0  0  0  0  0  0  0  0  0  0  0
  148.3536  140.1643  152.3297 H   0  0  0  0  0  0  0  0  0  0  0  0
  149.6399  141.5417  153.6769 H   0  0  0  0  0  0  0  0  0  0  0  0
  148.6669  141.7127  155.1431 H   0  0  0  0  0  0  0  0  0  0  0  0
  150.8577  144.3370  157.6041 H   0  0  0  0  0  0  0  0  0  0  0  0
  152.9959  138.5678  159.4423 H   0  0  0  0  0  0  0  0  0  0  0  0
  1  2  2  0  0  0  0
  2  3  1  0  0  0  0
  2  4  1  0  0  0  0
  4  5  1  0  0  0  0
  4 19  1  0  0  0  0
  4  9  1  0  0  0  0
  5  6  1  0  0  0  0
  5 20  1  0  0  0  0
  5 21  1  0  0  0  0
  6  7  1  0  0  0  0
  6  8  1  0  0  0  0
  6 22  1  0  0  0  0
  7 23  1  0  0  0  0
  8 24  1  0  0  0  0
  8 25  1  0  0  0  0
  8  9  1  0  0  0  0
  9 10  1  0  0  0  0
 10 11  1  0  0  0  0
 10 18  2  0  0  0  0
 11 12  2  0  0  0  0
 12 26  1  0  0  0  0
 12 13  1  0  0  0  0
 13 14  2  0  0  0  0
 14 15  1  0  0  0  0
 14 18  1  0  0  0  0
 15 16  1  0  0  0  0
 16 17  2  0  0  0  0
 16 27  1  0  0  0  0
 17 18  1  0  0  0  0
M  CHG  1   3  -1
M  CHG  1  15  -1
M  END
> <s_m_source_file>
AV-unprocessed.smi

> <i_m_source_file_index>
66

> <i_lp_mmshare_version>
43012

> <i_f3d_flags>
0

> <s_epik_input>
Tz1DKFtPSF0pW0NAQEhdMVtDSDJdW0NAQEhdKFtPSF0pW0NIMl1OMWMobltjSF1uMiljKGMyMylbbkhdW2NIXW4z

> <s_epik_cmdline>
J2VwaWtfcHl0aG9uJywgJy1waCcsICc3LjAnLCAnLXRuJywgJzgnLCAnLW1hJywgJzIwMCcsICctbWV0YWxfYmluZGluZycsICctaW1hZScsICc8aW5maWxlLm1hZT4nLCAnLW9tYWUnLCAnPG91dGZpbGUubWFlPic=

> <r_lp_tautomer_probability>
0.955585

> <r_epik_Ionization_Penalty>
7.65809

> <r_epik_Ionization_Penalty_Charging>
3.4974

> <r_epik_Ionization_Penalty_Neutral>
4.16069

> <r_epik_State_Penalty>
3.51624

> <r_epik_Charging_Adjusted_Penalty>
7.01364

> <i_epik_Tot_Q>
-2

> <i_epik_Tot_abs_Q>
2

> <r_epik_Metal_State_Penalty>
0.522662

> <b_epik_Metal_Only>
1

> <s_lp_Force_Field>
OPLS_2005

> <r_lp_Energy>
45.1142

> <b_lp_Chiralities_Consistent>
1

> <s_lp_Variant>
AV-unprocessed.smi:66-11

> <Gold.Version>
5.8.1

> <Gold.Id.Protein>
6NUR|6NUR_protein|mol2

> <Gold.PLP.Fitness>
45.6375

> <Gold.PLP.PLP>
-31.0982

> <Gold.PLP.part.hbond>
-3.9893

> <Gold.PLP.part.metal>
0.0000

> <Gold.PLP.part.buried>
-4.8907

> <Gold.PLP.part.nonpolar>
-24.9378

> <Gold.PLP.part.repulsive>
1.6354

> <Gold.PLP.ligand.clash>
0.0000

> <Gold.PLP.ligand.torsion>
0.1890

> <Gold.PLP.Chemscore.Hbond>
4.7415

> <Gold.PLP.Chemscore.CHOScore>
0.1428

> <Gold.PLP.Chemscore.Metal>
0.0000

> <Gold.Chemscore.Hbonds>
donor molecule, donor type, donor heavy atom, donor atom, acceptor molecule, acceptor atom, score
      L1  H     7    23       P1  7957  1.00
      P1  H  7989  7998       L1     3  0.21
      P1  H  7997  8009       L1     3  1.95
      P1  H 10752 10763       L1     1  1.54
      L1  C    12    26       P1  8028  0.22

> <Gold.PLP.Chemscore.Internal.Correction>
0.2642

> <Gold.Rescore>
     Score         DG    S(hbond)    S(metal)    S(lipo)     H(rot)  DE(clash)    DE(int)     intcor
     11.05     -13.86       2.75        0.00      32.01       1.78       0.01       2.81       ----

> <Gold.Chemscore.Fitness>
11.0472

> <Gold.Chemscore.DG>
-13.8629

> <Gold.Chemscore.ZeroCoef>
-5.4800

> <Gold.Chemscore.Hbond>
2.7492

> <Gold.Chemscore.Metal>
0.0000

> <Gold.Chemscore.Lipo>
32.0137

> <Gold.Chemscore.Internal_Hbond>
0.0000

> <Gold.Chemscore.DEClash>
0.0060

> <Gold.Chemscore.DEInternal>
2.8097

> <Gold.Chemscore.Rot>
1.7754

> <Gold.Chemscore.Internal.Correction>
   9.000000E+99

> <Gold.Chemscore.Hbonds>
donor molecule, donor type, donor heavy atom, donor atom, acceptor molecule, acceptor atom, score
      L1  H     7    23       P1  7957  0.99
      P1  H  7989  7998       L1     3  0.04
      P1  H  7997  8009       L1     3  0.91
      P1  H 10752 10763       L1     1  0.75

> <Gold.Chemscore.Hbond.Weighted>
-9.1824

> <Gold.Chemscore.Metal.Weighted>
-0.0000

> <Gold.Chemscore.Lipo.Weighted>
-3.7456

> <Gold.Chemscore.Internal_Hbond.Weighted>
0.0000

> <Gold.Chemscore.DEClash.Weighted>
0.0060

> <Gold.Chemscore.DEInternal.Weighted>
2.8097

> <Gold.Chemscore.Rot.Weighted>
4.5451

> <Gold.Chemscore.Internal.Correction.Weighted>
   9.000000E+99

> <Gold.Protein.RotatedTorsions>
[ 6907 6896 6895 6894 ] final  128.27 input  -60.11 | X-H torsion
[ 7974 7965 7964 7962 ] final  128.96 input  175.53 | X-H torsion
[ 8008 7997 7996 7995 ] final -129.91 input   59.86 | X-H torsion
[ 10167 10162 10161 10158 ] final  -93.35 input  -65.29 | X-H torsion
[ 10718 10713 10712 10709 ] final  116.33 input   66.30 | X-H torsion
[ 10763 10752 10751 10750 ] final   49.94 input  -60.55 | X-H torsion
[ 11005 11000 10999 10996 ] final   24.26 input  -57.11 | X-H torsion

> <Gold.Protein.ActiveResidues>
 VAL166  LYS551  ARG553  GLY616  TRP617  ASP618  TYR619  PRO620  LYS621  CYS622 
 ASP623  PHE694  ASN695  SER759  ASP760  ASP761  ALA762  ILE779  LEU786  VAL792 
 PHE793  MET794  SER795  GLU796  ALA797  LYS798  CYS799  TRP800  GLU811  SER814 

> <Gold.Protein.RotatedAtoms>
  152.3735  133.6450  159.6104 H   0  0  0  0  0  0  0  0  0  0  0  0  # atno 6907 bound_to 6896
  150.7686  133.9232  159.3413 H   0  0  0  0  0  0  0  0  0  0  0  0  # atno 6908 bound_to 6896
  151.7050  135.0924  160.0309 H   0  0  0  0  0  0  0  0  0  0  0  0  # atno 6909 bound_to 6896
  145.0338  139.4022  143.5136 H   0  0  0  0  0  0  0  0  0  0  0  0  # atno 7974 bound_to 7965
  155.2870  140.0446  157.3020 H   0  0  0  0  0  0  0  0  0  0  0  0  # atno 8008 bound_to 7997
  154.5563  140.2333  155.8373 H   0  0  0  0  0  0  0  0  0  0  0  0  # atno 8009 bound_to 7997
  156.2010  140.3025  155.9534 H   0  0  0  0  0  0  0  0  0  0  0  0  # atno 8010 bound_to 7997
  140.3256  143.3024  151.9999 H   0  0  0  0  0  0  0  0  0  0  0  0  # atno 10167 bound_to 10162
  157.6167  131.1024  150.7457 H   0  0  0  0  0  0  0  0  0  0  0  0  # atno 10718 bound_to 10713
  152.9785  135.5895  154.4170 H   0  0  0  0  0  0  0  0  0  0  0  0  # atno 10763 bound_to 10752
  154.3799  135.2767  155.2219 H   0  0  0  0  0  0  0  0  0  0  0  0  # atno 10764 bound_to 10752
  154.4137  135.6075  153.6023 H   0  0  0  0  0  0  0  0  0  0  0  0  # atno 10765 bound_to 10752
  140.3606  134.2129  155.7672 H   0  0  0  0  0  0  0  0  0  0  0  0  # atno 11005 bound_to 11000
  146.3502  139.9903  142.8686 LP  0  0  0  0  0  0  0  0  0  0  0  0  # atno 17320 bound_to 7965
  145.1736  140.9733  143.4307 LP  0  0  0  0  0  0  0  0  0  0  0  0  # atno 17321 bound_to 7965
  139.4866  144.6276  151.7133 LP  0  0  0  0  0  0  0  0  0  0  0  0  # atno 17342 bound_to 10162
  140.5444  144.0527  150.6101 LP  0  0  0  0  0  0  0  0  0  0  0  0  # atno 17343 bound_to 10162
  156.7823  130.4863  149.5399 LP  0  0  0  0  0  0  0  0  0  0  0  0  # atno 17370 bound_to 10713
  156.1293  130.6166  151.0309 LP  0  0  0  0  0  0  0  0  0  0  0  0  # atno 17371 bound_to 10713
  141.1985  133.8034  157.0579 LP  0  0  0  0  0  0  0  0  0  0  0  0  # atno 17394 bound_to 11000
  140.0630  134.9744  157.1337 LP  0  0  0  0  0  0  0  0  0  0  0  0  # atno 17395 bound_to 11000

$$$$
