AV-unprocessed.smi:1906|AV-procd|sdf|7729|dock1
  -GOLD-   22720 9473D 1   1.00000     0.00000
 Structure written by MMmdl.
 36 38  0  0  0  0  0  0  0  0  2 V2000
  151.7345  137.8466  154.4190 C   0  0  0  0  0  0  0  0  0  0  0  0
  150.5589  138.7614  154.3362 C   0  0  0  0  0  0  0  0  0  0  0  0
  149.4515  138.5757  153.5635 N   0  3  0  0  0  0  0  0  0  0  0  0
  148.5632  139.6364  153.7479 C   0  0  0  0  0  0  0  0  0  0  0  0
  147.3153  139.8901  153.1866 C   0  0  0  0  0  0  0  0  0  0  0  0
  146.6668  141.0744  153.5947 C   0  0  0  0  0  0  0  0  0  0  0  0
  147.2597  141.9534  154.5247 C   0  0  0  0  0  0  0  0  0  0  0  0
  148.5256  141.6860  155.0863 C   0  0  0  0  0  0  0  0  0  0  0  0
  149.1585  140.5125  154.6782 C   0  0  0  0  0  0  0  0  0  0  0  0
  150.3866  139.9328  155.0128 N   0  0  0  0  0  0  0  0  0  0  0  0
  151.2602  140.6139  155.9797 C   0  0  0  0  0  0  0  0  0  0  0  0
  151.2893  139.9215  157.3570 C   0  0  2  0  0  0  0  0  0  0  0  0
  149.9709  139.6092  157.7629 O   0  0  0  0  0  0  0  0  0  0  0  0
  152.0213  140.7709  158.3833 C   0  0  0  0  0  0  0  0  0  0  0  0
  153.0557  140.2168  159.1692 C   0  0  0  0  0  0  0  0  0  0  0  0
  153.7194  141.0070  160.1278 C   0  0  0  0  0  0  0  0  0  0  0  0
  153.3519  142.3544  160.3072 C   0  0  0  0  0  0  0  0  0  0  0  0
  152.3197  142.9112  159.5279 C   0  0  0  0  0  0  0  0  0  0  0  0
  151.9636  144.2059  159.7010 F   0  0  0  0  0  0  0  0  0  0  0  0
  151.6558  142.1215  158.5691 C   0  0  0  0  0  0  0  0  0  0  0  0
  151.6050  136.9946  153.7512 H   0  0  0  0  0  0  0  0  0  0  0  0
  151.8511  137.4746  155.4370 H   0  0  0  0  0  0  0  0  0  0  0  0
  152.6446  138.3746  154.1341 H   0  0  0  0  0  0  0  0  0  0  0  0
  146.8593  139.2182  152.4741 H   0  0  0  0  0  0  0  0  0  0  0  0
  145.6956  141.3134  153.1862 H   0  0  0  0  0  0  0  0  0  0  0  0
  146.7327  142.8512  154.8140 H   0  0  0  0  0  0  0  0  0  0  0  0
  148.9721  142.3655  155.7973 H   0  0  0  0  0  0  0  0  0  0  0  0
  152.2624  140.6703  155.5528 H   0  0  0  0  0  0  0  0  0  0  0  0
  150.9116  141.6430  156.0768 H   0  0  0  0  0  0  0  0  0  0  0  0
  151.8168  138.9713  157.2651 H   0  0  0  0  0  0  0  0  0  0  0  0
  149.4225  140.3628  157.6048 H   0  0  0  0  0  0  0  0  0  0  0  0
  153.3408  139.1826  159.0417 H   0  0  0  0  0  0  0  0  0  0  0  0
  154.5094  140.5786  160.7270 H   0  0  0  0  0  0  0  0  0  0  0  0
  153.8597  142.9599  161.0434 H   0  0  0  0  0  0  0  0  0  0  0  0
  150.8632  142.5579  157.9790 H   0  0  0  0  0  0  0  0  0  0  0  0
  149.3156  137.7791  152.9545 H   0  0  0  0  0  0  0  0  0  0  0  0
  1  2  1  0  0  0  0
  1 21  1  0  0  0  0
  1 22  1  0  0  0  0
  1 23  1  0  0  0  0
  2 10  1  0  0  0  0
  2  3  2  0  0  0  0
  3  4  1  0  0  0  0
  3 36  1  0  0  0  0
  4  9  2  0  0  0  0
  4  5  1  0  0  0  0
  5  6  2  0  0  0  0
  5 24  1  0  0  0  0
  6  7  1  0  0  0  0
  6 25  1  0  0  0  0
  7  8  2  0  0  0  0
  7 26  1  0  0  0  0
  8  9  1  0  0  0  0
  8 27  1  0  0  0  0
  9 10  1  0  0  0  0
 10 11  1  0  0  0  0
 11 12  1  0  0  0  0
 11 28  1  0  0  0  0
 11 29  1  0  0  0  0
 12 13  1  0  0  0  0
 12 14  1  0  0  0  0
 12 30  1  0  0  0  0
 13 31  1  0  0  0  0
 14 20  1  0  0  0  0
 14 15  2  0  0  0  0
 15 16  1  0  0  0  0
 15 32  1  0  0  0  0
 16 17  2  0  0  0  0
 16 33  1  0  0  0  0
 17 18  1  0  0  0  0
 17 34  1  0  0  0  0
 18 19  1  0  0  0  0
 18 20  2  0  0  0  0
 20 35  1  0  0  0  0
M  CHG  1   3   1
M  END
> <s_m_source_file>
AV-unprocessed.smi

> <i_m_source_file_index>
1906

> <i_lp_mmshare_version>
43012

> <i_f3d_flags>
0

> <s_epik_input>
W2NIXTFbY0hdW2NIXVtjSF1jKGMxMiluKGMobjIpW0NIM10pW0NIMl1bQ0BIXShbT0hdKWMzW2NIXVtjSF1bY0hdYyhGKVtjSF0z

> <s_epik_cmdline>
J2VwaWtfcHl0aG9uJywgJy1waCcsICc3LjAnLCAnLXRuJywgJzgnLCAnLW1hJywgJzIwMCcsICctbWV0YWxfYmluZGluZycsICctaW1hZScsICc8aW5maWxlLm1hZT4nLCAnLW9tYWUnLCAnPG91dGZpbGUubWFlPic=

> <r_epik_Ionization_Penalty>
0.963871

> <r_epik_Ionization_Penalty_Charging>
0.963868

> <r_epik_Ionization_Penalty_Neutral>
3.53208e-06

> <r_epik_State_Penalty>
1.00924

> <r_epik_Charging_Adjusted_Penalty>
1.9731

> <i_epik_Tot_Q>
1

> <i_epik_Tot_abs_Q>
1

> <r_epik_Metal_State_Penalty>
4.98304

> <b_epik_Metal_Only>
0

> <s_lp_Force_Field>
OPLS_2005

> <r_lp_Energy>
13.6568

> <b_lp_Chiralities_Consistent>
1

> <s_lp_Variant>
AV-unprocessed.smi:1906-3

> <Gold.Version>
5.8.1

> <Gold.Id.Protein>
6NUR|6NUR_protein|mol2

> <Gold.PLP.Fitness>
53.3045

> <Gold.PLP.PLP>
-48.1127

> <Gold.PLP.part.hbond>
-2.0000

> <Gold.PLP.part.metal>
0.0000

> <Gold.PLP.part.buried>
0.9495

> <Gold.PLP.part.nonpolar>
-47.6381

> <Gold.PLP.part.repulsive>
0.0729

> <Gold.PLP.ligand.clash>
0.0000

> <Gold.PLP.ligand.torsion>
0.4190

> <Gold.PLP.Chemscore.Hbond>
2.0000

> <Gold.PLP.Chemscore.CHOScore>
0.0000

> <Gold.PLP.Chemscore.Metal>
0.0000

> <Gold.Chemscore.Hbonds>
donor molecule, donor type, donor heavy atom, donor atom, acceptor molecule, acceptor atom, score
      L1  H     3    36       P1  7948  2.00

> <Gold.PLP.Chemscore.Internal.Correction>
0.0298

> <Gold.Rescore>
     Score         DG    S(hbond)    S(metal)    S(lipo)     H(rot)  DE(clash)    DE(int)     intcor
     17.43     -17.89       0.99        0.00     118.28       1.85       0.06       0.41       ----

> <Gold.Chemscore.Fitness>
17.4275

> <Gold.Chemscore.DG>
-17.8918

> <Gold.Chemscore.ZeroCoef>
-5.4800

> <Gold.Chemscore.Hbond>
0.9881

> <Gold.Chemscore.Metal>
0.0000

> <Gold.Chemscore.Lipo>
118.2777

> <Gold.Chemscore.Internal_Hbond>
0.0000

> <Gold.Chemscore.DEClash>
0.0564

> <Gold.Chemscore.DEInternal>
0.4079

> <Gold.Chemscore.Rot>
1.8465

> <Gold.Chemscore.Internal.Correction>
   9.000000E+99

> <Gold.Chemscore.Hbonds>
donor molecule, donor type, donor heavy atom, donor atom, acceptor molecule, acceptor atom, score
      L1  H     3    36       P1  7948  0.96

> <Gold.Chemscore.Hbond.Weighted>
-3.3003

> <Gold.Chemscore.Metal.Weighted>
-0.0000

> <Gold.Chemscore.Lipo.Weighted>
-13.8385

> <Gold.Chemscore.Internal_Hbond.Weighted>
0.0000

> <Gold.Chemscore.DEClash.Weighted>
0.0564

> <Gold.Chemscore.DEInternal.Weighted>
0.4079

> <Gold.Chemscore.Rot.Weighted>
4.7270

> <Gold.Chemscore.Internal.Correction.Weighted>
   9.000000E+99

> <Gold.Protein.RotatedTorsions>
[ 6907 6896 6895 6894 ] final   28.54 input  -60.11 | X-H torsion
[ 7974 7965 7964 7962 ] final  131.73 input  175.53 | X-H torsion
[ 8008 7997 7996 7995 ] final   28.80 input   59.86 | X-H torsion
[ 10167 10162 10161 10158 ] final   39.34 input  -65.29 | X-H torsion
[ 10718 10713 10712 10709 ] final  -25.01 input   66.30 | X-H torsion
[ 10763 10752 10751 10750 ] final   93.94 input  -60.55 | X-H torsion
[ 11005 11000 10999 10996 ] final -160.13 input  -57.11 | X-H torsion

> <Gold.Protein.ActiveResidues>
 VAL166  LYS551  ARG553  GLY616  TRP617  ASP618  TYR619  PRO620  LYS621  CYS622 
 ASP623  PHE694  ASN695  SER759  ASP760  ASP761  ALA762  ILE779  LEU786  VAL792 
 PHE793  MET794  SER795  GLU796  ALA797  LYS798  CYS799  TRP800  GLU811  SER814 

> <Gold.Protein.RotatedAtoms>
  152.0184  134.9836  160.0569 H   0  0  0  0  0  0  0  0  0  0  0  0  # atno 6907 bound_to 6896
  152.1361  133.4431  159.4752 H   0  0  0  0  0  0  0  0  0  0  0  0  # atno 6908 bound_to 6896
  150.6860  134.2280  159.4466 H   0  0  0  0  0  0  0  0  0  0  0  0  # atno 6909 bound_to 6896
  145.0042  139.4282  143.5277 H   0  0  0  0  0  0  0  0  0  0  0  0  # atno 7974 bound_to 7965
  155.0644  140.3193  155.4650 H   0  0  0  0  0  0  0  0  0  0  0  0  # atno 8008 bound_to 7997
  156.2805  140.2123  156.5716 H   0  0  0  0  0  0  0  0  0  0  0  0  # atno 8009 bound_to 7997
  154.7105  140.0498  157.0533 H   0  0  0  0  0  0  0  0  0  0  0  0  # atno 8010 bound_to 7997
  140.3849  144.1931  150.6130 H   0  0  0  0  0  0  0  0  0  0  0  0  # atno 10167 bound_to 10162
  156.4700  130.4522  149.6875 H   0  0  0  0  0  0  0  0  0  0  0  0  # atno 10718 bound_to 10713
  153.2359  135.4307  155.0646 H   0  0  0  0  0  0  0  0  0  0  0  0  # atno 10763 bound_to 10752
  154.8319  135.3391  154.6719 H   0  0  0  0  0  0  0  0  0  0  0  0  # atno 10764 bound_to 10752
  153.7144  135.7021  153.5085 H   0  0  0  0  0  0  0  0  0  0  0  0  # atno 10765 bound_to 10752
  140.6349  134.4612  157.5231 H   0  0  0  0  0  0  0  0  0  0  0  0  # atno 11005 bound_to 11000
  146.3458  139.9448  142.8736 LP  0  0  0  0  0  0  0  0  0  0  0  0  # atno 17320 bound_to 7965
  145.2111  140.9896  143.4100 LP  0  0  0  0  0  0  0  0  0  0  0  0  # atno 17321 bound_to 7965
  140.4900  143.2350  151.8833 LP  0  0  0  0  0  0  0  0  0  0  0  0  # atno 17342 bound_to 10162
  139.4793  144.5176  151.8846 LP  0  0  0  0  0  0  0  0  0  0  0  0  # atno 17343 bound_to 10162
  156.3628  130.7490  151.2464 LP  0  0  0  0  0  0  0  0  0  0  0  0  # atno 17370 bound_to 10713
  157.7492  131.0345  150.4322 LP  0  0  0  0  0  0  0  0  0  0  0  0  # atno 17371 bound_to 10713
  139.9102  134.8362  156.1557 LP  0  0  0  0  0  0  0  0  0  0  0  0  # atno 17394 bound_to 11000
  141.0648  133.6824  156.2024 LP  0  0  0  0  0  0  0  0  0  0  0  0  # atno 17395 bound_to 11000

$$$$
