AV-unprocessed.smi:703|AV-procd|sdf|3430|dock7
  -GOLD-   22720 0413D 1   1.00000     0.00000
 Structure written by MMmdl.
 38 39  0  0  0  0  0  0  0  0  2 V2000
  144.6240  135.9159  152.0981 C   0  0  0  0  0  0  0  0  0  0  0  0
  145.4237  136.0731  153.3984 C   0  0  0  0  0  0  0  0  0  0  0  0
  146.6013  136.9560  153.2284 N   0  3  1  0  0  0  0  0  0  0  0  0
  146.2934  138.3517  152.8634 C   0  0  0  0  0  0  0  0  0  0  0  0
  147.5896  139.1204  153.1298 C   0  0  1  0  0  0  0  0  0  0  0  0
  147.3748  140.6130  153.4137 C   0  0  0  0  0  0  0  0  0  0  0  0
  148.2568  138.3528  154.2863 C   0  0  2  0  0  0  0  0  0  0  0  0
  149.6669  138.0920  153.9808 N   0  0  0  0  0  0  0  0  0  0  0  0
  150.6519  137.3809  155.2039 S   0  0  0  0  0  0  0  0  0  0  0  0
  149.8247  137.2410  156.4121 O   0  0  0  0  0  0  0  0  0  0  0  0
  151.2959  136.1976  154.6137 O   0  0  0  0  0  0  0  0  0  0  0  0
  151.9239  138.6798  155.5044 C   0  0  0  0  0  0  0  0  0  0  0  0
  151.2557  140.0187  155.6379 C   0  0  0  0  0  0  0  0  0  0  0  0
  151.3940  140.9768  156.6802 C   0  0  0  0  0  0  0  0  0  0  0  0
  150.5702  141.9929  156.2901 C   0  0  0  0  0  0  0  0  0  0  0  0
  149.9757  141.6954  155.1071 O   0  0  0  0  0  0  0  0  0  0  0  0
  150.4210  140.4333  154.6981 N   0  0  0  0  0  0  0  0  0  0  0  0
  147.4734  137.0362  154.4173 C   0  0  0  0  0  0  0  0  0  0  0  0
  143.8053  135.2088  152.2334 H   0  0  0  0  0  0  0  0  0  0  0  0
  145.2534  135.5419  151.2899 H   0  0  0  0  0  0  0  0  0  0  0  0
  144.1878  136.8615  151.7756 H   0  0  0  0  0  0  0  0  0  0  0  0
  144.7824  136.4506  154.1961 H   0  0  0  0  0  0  0  0  0  0  0  0
  145.7719  135.0891  153.7150 H   0  0  0  0  0  0  0  0  0  0  0  0
  145.9697  138.4409  151.8261 H   0  0  0  0  0  0  0  0  0  0  0  0
  145.4917  138.7262  153.5024 H   0  0  0  0  0  0  0  0  0  0  0  0
  148.2080  139.0290  152.2347 H   0  0  0  0  0  0  0  0  0  0  0  0
  146.7491  140.7659  154.2938 H   0  0  0  0  0  0  0  0  0  0  0  0
  146.8909  141.1064  152.5705 H   0  0  0  0  0  0  0  0  0  0  0  0
  148.3262  141.1155  153.5908 H   0  0  0  0  0  0  0  0  0  0  0  0
  148.1799  138.9098  155.2218 H   0  0  0  0  0  0  0  0  0  0  0  0
  149.7740  137.6038  153.0918 H   0  0  0  0  0  0  0  0  0  0  0  0
  152.4737  138.4247  156.4100 H   0  0  0  0  0  0  0  0  0  0  0  0
  152.6280  138.6688  154.6718 H   0  0  0  0  0  0  0  0  0  0  0  0
  151.9983  140.9246  157.5736 H   0  0  0  0  0  0  0  0  0  0  0  0
  150.3124  142.9479  156.7237 H   0  0  0  0  0  0  0  0  0  0  0  0
  146.8574  137.0740  155.3176 H   0  0  0  0  0  0  0  0  0  0  0  0
  148.1130  136.1559  154.4957 H   0  0  0  0  0  0  0  0  0  0  0  0
  147.1679  136.5767  152.4833 H   0  0  0  0  0  0  0  0  0  0  0  0
  1  2  1  0  0  0  0
  1 19  1  0  0  0  0
  1 20  1  0  0  0  0
  1 21  1  0  0  0  0
  2  3  1  0  0  0  0
  2 22  1  0  0  0  0
  2 23  1  0  0  0  0
  3 18  1  0  0  0  0
  3  4  1  0  0  0  0
  3 38  1  0  0  0  0
  4  5  1  0  0  0  0
  4 24  1  0  0  0  0
  4 25  1  0  0  0  0
  5  6  1  0  0  0  0
  5  7  1  0  0  0  0
  5 26  1  0  0  0  0
  6 27  1  0  0  0  0
  6 28  1  0  0  0  0
  6 29  1  0  0  0  0
  7  8  1  0  0  0  0
  7 18  1  0  0  0  0
  7 30  1  0  0  0  0
  8  9  1  0  0  0  0
  8 31  1  0  0  0  0
  9 10  2  0  0  0  0
  9 11  2  0  0  0  0
  9 12  1  0  0  0  0
 12 13  1  0  0  0  0
 12 32  1  0  0  0  0
 12 33  1  0  0  0  0
 13 17  2  0  0  0  0
 13 14  1  0  0  0  0
 14 15  2  0  0  0  0
 14 34  1  0  0  0  0
 15 16  1  0  0  0  0
 15 35  1  0  0  0  0
 16 17  1  0  0  0  0
 18 36  1  0  0  0  0
 18 37  1  0  0  0  0
M  CHG  1   3   1
M  END
> <s_m_source_file>
AV-unprocessed.smi

> <i_m_source_file_index>
703

> <i_lp_mmshare_version>
43012

> <i_f3d_flags>
0

> <s_epik_input>
W0NIM11bQ0gyXU4xW0NIMl1bQ0BASF0oW0NIM10pW0NASF0oW0NIMl0xKVtOSF1TKD1PKSg9TylbQ0gyXWMyW2NIXVtjSF1vbjI=

> <s_epik_cmdline>
J2VwaWtfcHl0aG9uJywgJy1waCcsICc3LjAnLCAnLXRuJywgJzgnLCAnLW1hJywgJzIwMCcsICctbWV0YWxfYmluZGluZycsICctaW1hZScsICc8aW5maWxlLm1hZT4nLCAnLW9tYWUnLCAnPG91dGZpbGUubWFlPic=

> <r_epik_Ionization_Penalty>
0.00324529

> <r_epik_Ionization_Penalty_Charging>
0.0019384

> <r_epik_Ionization_Penalty_Neutral>
0.00130689

> <r_epik_State_Penalty>
0.00218682

> <r_epik_Charging_Adjusted_Penalty>
0.00412522

> <i_epik_Tot_Q>
1

> <i_epik_Tot_abs_Q>
1

> <r_epik_Metal_State_Penalty>
0.310831

> <b_epik_Metal_Only>
0

> <s_lp_Force_Field>
OPLS_2005

> <r_lp_Energy>
19.0456

> <b_lp_Chiralities_Consistent>
1

> <s_lp_Variant>
AV-unprocessed.smi:703-5

> <Gold.Version>
5.8.1

> <Gold.Id.Protein>
6NUR|6NUR_protein|mol2

> <Gold.PLP.Fitness>
41.6976

> <Gold.PLP.PLP>
-24.8636

> <Gold.PLP.part.hbond>
-4.9186

> <Gold.PLP.part.metal>
0.0000

> <Gold.PLP.part.buried>
-0.2449

> <Gold.PLP.part.nonpolar>
-20.6981

> <Gold.PLP.part.repulsive>
0.4216

> <Gold.PLP.ligand.clash>
0.0000

> <Gold.PLP.ligand.torsion>
0.3744

> <Gold.PLP.Chemscore.Hbond>
4.8800

> <Gold.PLP.Chemscore.CHOScore>
0.9277

> <Gold.PLP.Chemscore.Metal>
0.0000

> <Gold.Chemscore.Hbonds>
donor molecule, donor type, donor heavy atom, donor atom, acceptor molecule, acceptor atom, score
      L1  H     3    38       P1  7948  1.89
      L1  H     8    31       P1  7948  0.93
      P1  H  7989  7998       L1    17  0.90
      P1  H 10752 10764       L1    11  1.00
      L1  C    15    35       P1  8028  0.93

> <Gold.PLP.Chemscore.Internal.Correction>
0.1596

> <Gold.Rescore>
     Score         DG    S(hbond)    S(metal)    S(lipo)     H(rot)  DE(clash)    DE(int)     intcor
     12.72     -15.65       2.57        0.00      55.99       1.94       0.04       2.89       ----

> <Gold.Chemscore.Fitness>
12.7236

> <Gold.Chemscore.DG>
-15.6494

> <Gold.Chemscore.ZeroCoef>
-5.4800

> <Gold.Chemscore.Hbond>
2.5704

> <Gold.Chemscore.Metal>
0.0000

> <Gold.Chemscore.Lipo>
55.9898

> <Gold.Chemscore.Internal_Hbond>
0.0000

> <Gold.Chemscore.DEClash>
0.0383

> <Gold.Chemscore.DEInternal>
2.8874

> <Gold.Chemscore.Rot>
1.9400

> <Gold.Chemscore.Internal.Correction>
   9.000000E+99

> <Gold.Chemscore.Hbonds>
donor molecule, donor type, donor heavy atom, donor atom, acceptor molecule, acceptor atom, score
      L1  H     3    38       P1  7948  0.91
      L1  H     8    31       P1  7948  0.48
      P1  H  7989  7998       L1    17  0.05
      P1  H 10752 10764       L1    11  0.98

> <Gold.Chemscore.Hbond.Weighted>
-8.5850

> <Gold.Chemscore.Metal.Weighted>
-0.0000

> <Gold.Chemscore.Lipo.Weighted>
-6.5508

> <Gold.Chemscore.Internal_Hbond.Weighted>
0.0000

> <Gold.Chemscore.DEClash.Weighted>
0.0383

> <Gold.Chemscore.DEInternal.Weighted>
2.8874

> <Gold.Chemscore.Rot.Weighted>
4.9665

> <Gold.Chemscore.Internal.Correction.Weighted>
   9.000000E+99

> <Gold.Protein.RotatedTorsions>
[ 6907 6896 6895 6894 ] final  103.12 input  -60.11 | X-H torsion
[ 7974 7965 7964 7962 ] final -100.26 input  175.53 | X-H torsion
[ 8008 7997 7996 7995 ] final -127.80 input   59.86 | X-H torsion
[ 10167 10162 10161 10158 ] final  119.36 input  -65.29 | X-H torsion
[ 10718 10713 10712 10709 ] final  148.11 input   66.30 | X-H torsion
[ 10763 10752 10751 10750 ] final  -83.95 input  -60.55 | X-H torsion
[ 11005 11000 10999 10996 ] final  113.10 input  -57.11 | X-H torsion

> <Gold.Protein.ActiveResidues>
 VAL166  LYS551  ARG553  GLY616  TRP617  ASP618  TYR619  PRO620  LYS621  CYS622 
 ASP623  PHE694  ASN695  SER759  ASP760  ASP761  ALA762  ILE779  LEU786  VAL792 
 PHE793  MET794  SER795  GLU796  ALA797  LYS798  CYS799  TRP800  GLU811  SER814 

> <Gold.Protein.RotatedAtoms>
  152.5305  133.9874  159.7834 H   0  0  0  0  0  0  0  0  0  0  0  0  # atno 6907 bound_to 6896
  151.0116  133.5952  159.2689 H   0  0  0  0  0  0  0  0  0  0  0  0  # atno 6908 bound_to 6896
  151.3024  135.0779  159.9296 H   0  0  0  0  0  0  0  0  0  0  0  0  # atno 6909 bound_to 6896
  145.2969  140.9367  143.2846 H   0  0  0  0  0  0  0  0  0  0  0  0  # atno 7974 bound_to 7965
  155.2521  140.0432  157.2988 H   0  0  0  0  0  0  0  0  0  0  0  0  # atno 8008 bound_to 7997
  154.5763  140.2388  155.8088 H   0  0  0  0  0  0  0  0  0  0  0  0  # atno 8009 bound_to 7997
  156.2160  140.2984  155.9848 H   0  0  0  0  0  0  0  0  0  0  0  0  # atno 8010 bound_to 7997
  139.6051  144.7067  151.2972 H   0  0  0  0  0  0  0  0  0  0  0  0  # atno 10167 bound_to 10162
  157.3127  131.0890  151.1303 H   0  0  0  0  0  0  0  0  0  0  0  0  # atno 10718 bound_to 10713
  154.5938  135.5538  153.7305 H   0  0  0  0  0  0  0  0  0  0  0  0  # atno 10763 bound_to 10752
  153.0127  135.6349  154.1812 H   0  0  0  0  0  0  0  0  0  0  0  0  # atno 10764 bound_to 10752
  154.1752  135.2890  155.3049 H   0  0  0  0  0  0  0  0  0  0  0  0  # atno 10765 bound_to 10752
  139.8944  134.9543  156.6688 H   0  0  0  0  0  0  0  0  0  0  0  0  # atno 11005 bound_to 11000
  144.9126  139.4510  143.6580 LP  0  0  0  0  0  0  0  0  0  0  0  0  # atno 17320 bound_to 7965
  146.3165  139.7942  142.8979 LP  0  0  0  0  0  0  0  0  0  0  0  0  # atno 17321 bound_to 7965
  140.7279  143.6951  150.7890 LP  0  0  0  0  0  0  0  0  0  0  0  0  # atno 17342 bound_to 10162
  140.0535  143.5226  152.2662 LP  0  0  0  0  0  0  0  0  0  0  0  0  # atno 17343 bound_to 10162
  157.2619  130.6663  149.5978 LP  0  0  0  0  0  0  0  0  0  0  0  0  # atno 17370 bound_to 10713
  155.9679  130.4506  150.5703 LP  0  0  0  0  0  0  0  0  0  0  0  0  # atno 17371 bound_to 10713
  140.7390  133.8994  155.8264 LP  0  0  0  0  0  0  0  0  0  0  0  0  # atno 17394 bound_to 11000
  141.0093  134.1042  157.4238 LP  0  0  0  0  0  0  0  0  0  0  0  0  # atno 17395 bound_to 11000

$$$$
