AV-unprocessed.smi:2411|AV-procd|sdf|9530|dock1
  -GOLD-   2272013163D 1   1.00000     0.00000
 Structure written by MMmdl.
 41 43  0  0  0  0  0  0  0  0  1 V2000
  151.3282  138.8463  154.6591 C   0  0  0  0  0  0  0  0  0  0  0  0
  149.9795  138.3859  154.3574 N   0  0  0  0  0  0  0  0  0  0  0  0
  149.5529  137.1668  155.0332 C   0  0  0  0  0  0  0  0  0  0  0  0
  149.0329  139.4286  154.2892 C   0  0  0  0  0  0  0  0  0  0  0  0
  149.3100  140.5826  154.9439 N   0  0  0  0  0  0  0  0  0  0  0  0
  148.4197  141.5721  154.8571 C   0  0  0  0  0  0  0  0  0  0  0  0
  147.2653  141.5490  154.1915 N   0  0  0  0  0  0  0  0  0  0  0  0
  146.9667  140.4095  153.5339 C   0  0  0  0  0  0  0  0  0  0  0  0
  147.8354  139.2907  153.5390 C   0  0  0  0  0  0  0  0  0  0  0  0
  147.5211  138.0608  152.8983 N   0  0  0  0  0  0  0  0  0  0  0  0
  146.3032  137.5668  152.6257 C   0  0  0  0  0  0  0  0  0  0  0  0
  145.2374  138.0960  152.9409 O   0  0  0  0  0  0  0  0  0  0  0  0
  146.3908  136.4253  151.9293 N   0  0  0  0  0  0  0  0  0  0  0  0
  145.2599  135.6572  151.4138 C   0  0  0  0  0  0  0  0  0  0  0  0
  145.3474  134.1333  151.4930 C   0  0  0  0  0  0  0  0  0  0  0  0
  144.1181  133.4308  150.9262 C   0  0  0  0  0  0  0  0  0  0  0  0
  144.1294  131.9336  150.7290 C   0  0  0  0  0  0  0  0  0  0  0  0
  144.0265  132.8481  149.5306 C   0  0  0  0  0  0  0  0  0  0  0  0
  146.6803  133.4414  151.2651 C   0  0  0  0  0  0  0  0  0  0  0  0
  146.1172  133.5251  152.6588 C   0  0  0  0  0  0  0  0  0  0  0  0
  151.6674  139.6034  153.9527 H   0  0  0  0  0  0  0  0  0  0  0  0
  152.0319  138.0146  154.6167 H   0  0  0  0  0  0  0  0  0  0  0  0
  151.3689  139.2737  155.6617 H   0  0  0  0  0  0  0  0  0  0  0  0
  148.5552  136.8695  154.7082 H   0  0  0  0  0  0  0  0  0  0  0  0
  149.5399  137.3054  156.1150 H   0  0  0  0  0  0  0  0  0  0  0  0
  150.2365  136.3492  154.8035 H   0  0  0  0  0  0  0  0  0  0  0  0
  148.6570  142.4843  155.3838 H   0  0  0  0  0  0  0  0  0  0  0  0
  146.0131  140.3973  153.0287 H   0  0  0  0  0  0  0  0  0  0  0  0
  148.3058  137.5664  152.4991 H   0  0  0  0  0  0  0  0  0  0  0  0
  147.3117  136.0708  151.7162 H   0  0  0  0  0  0  0  0  0  0  0  0
  144.3818  135.9695  151.9793 H   0  0  0  0  0  0  0  0  0  0  0  0
  145.0564  135.9388  150.3792 H   0  0  0  0  0  0  0  0  0  0  0  0
  143.1789  133.8391  151.2950 H   0  0  0  0  0  0  0  0  0  0  0  0
  145.0718  131.4101  150.8792 H   0  0  0  0  0  0  0  0  0  0  0  0
  143.2379  131.3829  151.0222 H   0  0  0  0  0  0  0  0  0  0  0  0
  143.0618  132.9054  149.0306 H   0  0  0  0  0  0  0  0  0  0  0  0
  144.8858  132.9053  148.8682 H   0  0  0  0  0  0  0  0  0  0  0  0
  146.6675  132.4659  150.7831 H   0  0  0  0  0  0  0  0  0  0  0  0
  147.5541  134.0485  151.0406 H   0  0  0  0  0  0  0  0  0  0  0  0
  146.6197  134.1941  153.3541 H   0  0  0  0  0  0  0  0  0  0  0  0
  145.7591  132.6039  153.1096 H   0  0  0  0  0  0  0  0  0  0  0  0
  1  2  1  0  0  0  0
  1 21  1  0  0  0  0
  1 22  1  0  0  0  0
  1 23  1  0  0  0  0
  2  3  1  0  0  0  0
  2  4  1  0  0  0  0
  3 24  1  0  0  0  0
  3 25  1  0  0  0  0
  3 26  1  0  0  0  0
  4  9  1  0  0  0  0
  4  5  2  0  0  0  0
  5  6  1  0  0  0  0
  6  7  2  0  0  0  0
  6 27  1  0  0  0  0
  7  8  1  0  0  0  0
  8  9  2  0  0  0  0
  8 28  1  0  0  0  0
  9 10  1  0  0  0  0
 10 11  1  0  0  0  0
 10 29  1  0  0  0  0
 11 12  2  0  0  0  0
 11 13  1  0  0  0  0
 13 14  1  0  0  0  0
 13 30  1  0  0  0  0
 14 15  1  0  0  0  0
 14 31  1  0  0  0  0
 14 32  1  0  0  0  0
 15 20  1  0  0  0  0
 15 16  1  0  0  0  0
 15 19  1  0  0  0  0
 16 18  1  0  0  0  0
 16 17  1  0  0  0  0
 16 33  1  0  0  0  0
 17 18  1  0  0  0  0
 17 34  1  0  0  0  0
 17 35  1  0  0  0  0
 18 36  1  0  0  0  0
 18 37  1  0  0  0  0
 19 20  1  0  0  0  0
 19 38  1  0  0  0  0
 19 39  1  0  0  0  0
 20 40  1  0  0  0  0
 20 41  1  0  0  0  0
M  END
> <s_m_source_file>
AV-unprocessed.smi

> <i_m_source_file_index>
2411

> <i_lp_mmshare_version>
43012

> <i_f3d_flags>
0

> <s_epik_input>
W0NIM11OKFtDSDNdKWMxbltjSF1uW2NIXWMxW05IXUMoPU8pW05IXVtDSDJdQzIoW0NIMl1bQ0gyXTIpW0NIXTNbQ0gyXVtDSDJdMw==

> <s_epik_cmdline>
J2VwaWtfcHl0aG9uJywgJy1waCcsICc3LjAnLCAnLXRuJywgJzgnLCAnLW1hJywgJzIwMCcsICctbWV0YWxfYmluZGluZycsICctaW1hZScsICc8aW5maWxlLm1hZT4nLCAnLW9tYWUnLCAnPG91dGZpbGUubWFlPic=

> <r_lp_tautomer_probability>
1

> <r_epik_Ionization_Penalty>
0.0183431

> <r_epik_Ionization_Penalty_Charging>
0

> <r_epik_Ionization_Penalty_Neutral>
0.0183431

> <r_epik_State_Penalty>
0.013978

> <r_epik_Charging_Adjusted_Penalty>
0.013978

> <i_epik_Tot_Q>
0

> <i_epik_Tot_abs_Q>
0

> <r_epik_Metal_State_Penalty>
0.0135734

> <b_epik_Metal_Only>
0

> <s_lp_Force_Field>
OPLS_2005

> <r_lp_Energy>
29.7017

> <b_lp_Chiralities_Consistent>
1

> <s_lp_Variant>
AV-unprocessed.smi:2411-1

> <Gold.Version>
5.8.1

> <Gold.Id.Protein>
6NUR|6NUR_protein|mol2

> <Gold.PLP.Fitness>
44.4142

> <Gold.PLP.PLP>
-33.4528

> <Gold.PLP.part.hbond>
-1.8771

> <Gold.PLP.part.metal>
0.0000

> <Gold.PLP.part.buried>
-5.2881

> <Gold.PLP.part.nonpolar>
-28.9692

> <Gold.PLP.part.repulsive>
2.1650

> <Gold.PLP.ligand.clash>
0.0000

> <Gold.PLP.ligand.torsion>
1.9567

> <Gold.PLP.Chemscore.Hbond>
1.9920

> <Gold.PLP.Chemscore.CHOScore>
2.0000

> <Gold.PLP.Chemscore.Metal>
0.0000

> <Gold.Chemscore.Hbonds>
donor molecule, donor type, donor heavy atom, donor atom, acceptor molecule, acceptor atom, score
      L1  H    10    29       P1  7948  1.00
      L1  H    13    30       P1  7948  0.99
      L1  C     6    27       P1  8028  1.00
      L1  C     8    28       P1 10175  1.00

> <Gold.PLP.Chemscore.Internal.Correction>
2.8989

> <Gold.Rescore>
     Score         DG    S(hbond)    S(metal)    S(lipo)     H(rot)  DE(clash)    DE(int)     intcor
     12.55     -15.83       1.90        0.00      70.72       1.68       0.22       3.05       ----

> <Gold.Chemscore.Fitness>
12.5539

> <Gold.Chemscore.DG>
-15.8266

> <Gold.Chemscore.ZeroCoef>
-5.4800

> <Gold.Chemscore.Hbond>
1.9049

> <Gold.Chemscore.Metal>
0.0000

> <Gold.Chemscore.Lipo>
70.7182

> <Gold.Chemscore.Internal_Hbond>
0.0000

> <Gold.Chemscore.DEClash>
0.2239

> <Gold.Chemscore.DEInternal>
3.0488

> <Gold.Chemscore.Rot>
1.6757

> <Gold.Chemscore.Internal.Correction>
   9.000000E+99

> <Gold.Chemscore.Hbonds>
donor molecule, donor type, donor heavy atom, donor atom, acceptor molecule, acceptor atom, score
      L1  H    10    29       P1  7948  0.95
      L1  H    13    30       P1  7948  0.94

> <Gold.Chemscore.Hbond.Weighted>
-6.3623

> <Gold.Chemscore.Metal.Weighted>
-0.0000

> <Gold.Chemscore.Lipo.Weighted>
-8.2740

> <Gold.Chemscore.Internal_Hbond.Weighted>
0.0000

> <Gold.Chemscore.DEClash.Weighted>
0.2239

> <Gold.Chemscore.DEInternal.Weighted>
3.0488

> <Gold.Chemscore.Rot.Weighted>
4.2897

> <Gold.Chemscore.Internal.Correction.Weighted>
   9.000000E+99

> <Gold.Protein.RotatedTorsions>
[ 6907 6896 6895 6894 ] final  136.37 input  -60.11 | X-H torsion
[ 7974 7965 7964 7962 ] final  -30.65 input  175.53 | X-H torsion
[ 8008 7997 7996 7995 ] final  -52.22 input   59.86 | X-H torsion
[ 10167 10162 10161 10158 ] final -172.60 input  -65.29 | X-H torsion
[ 10718 10713 10712 10709 ] final   -4.98 input   66.30 | X-H torsion
[ 10763 10752 10751 10750 ] final  120.18 input  -60.55 | X-H torsion
[ 11005 11000 10999 10996 ] final  171.41 input  -57.11 | X-H torsion

> <Gold.Protein.ActiveResidues>
 VAL166  LYS551  ARG553  GLY616  TRP617  ASP618  TYR619  PRO620  LYS621  CYS622 
 ASP623  PHE694  ASN695  SER759  ASP760  ASP761  ALA762  ILE779  LEU786  VAL792 
 PHE793  MET794  SER795  GLU796  ALA797  LYS798  CYS799  TRP800  GLU811  SER814 

> <Gold.Protein.RotatedAtoms>
  152.2901  133.5553  159.5551 H   0  0  0  0  0  0  0  0  0  0  0  0  # atno 6907 bound_to 6896
  150.7232  134.0440  159.3784 H   0  0  0  0  0  0  0  0  0  0  0  0  # atno 6908 bound_to 6896
  151.8347  135.0610  160.0492 H   0  0  0  0  0  0  0  0  0  0  0  0  # atno 6909 bound_to 6896
  146.1127  140.5567  142.8771 H   0  0  0  0  0  0  0  0  0  0  0  0  # atno 7974 bound_to 7965
  154.4101  140.1229  156.4956 H   0  0  0  0  0  0  0  0  0  0  0  0  # atno 8008 bound_to 7997
  155.6946  140.3495  155.4888 H   0  0  0  0  0  0  0  0  0  0  0  0  # atno 8009 bound_to 7997
  155.9439  140.1092  157.1023 H   0  0  0  0  0  0  0  0  0  0  0  0  # atno 8010 bound_to 7997
  139.5735  144.1586  152.1418 H   0  0  0  0  0  0  0  0  0  0  0  0  # atno 10167 bound_to 10162
  156.7533  130.5246  149.5799 H   0  0  0  0  0  0  0  0  0  0  0  0  # atno 10718 bound_to 10713
  153.5945  135.3459  155.2923 H   0  0  0  0  0  0  0  0  0  0  0  0  # atno 10763 bound_to 10752
  154.8647  135.4212  154.2480 H   0  0  0  0  0  0  0  0  0  0  0  0  # atno 10764 bound_to 10752
  153.3295  135.7043  153.7031 H   0  0  0  0  0  0  0  0  0  0  0  0  # atno 10765 bound_to 10752
  140.3187  134.7456  157.4047 H   0  0  0  0  0  0  0  0  0  0  0  0  # atno 11005 bound_to 11000
  144.7525  140.5227  143.6792 LP  0  0  0  0  0  0  0  0  0  0  0  0  # atno 17320 bound_to 7965
  145.5631  139.1480  143.3330 LP  0  0  0  0  0  0  0  0  0  0  0  0  # atno 17321 bound_to 7965
  140.1124  144.5445  150.6916 LP  0  0  0  0  0  0  0  0  0  0  0  0  # atno 17342 bound_to 10162
  140.7019  143.2440  151.4840 LP  0  0  0  0  0  0  0  0  0  0  0  0  # atno 17343 bound_to 10162
  156.1387  130.6229  151.0437 LP  0  0  0  0  0  0  0  0  0  0  0  0  # atno 17370 bound_to 10713
  157.6767  131.0848  150.7475 LP  0  0  0  0  0  0  0  0  0  0  0  0  # atno 17371 bound_to 10713
  140.0961  134.5536  155.8397 LP  0  0  0  0  0  0  0  0  0  0  0  0  # atno 17394 bound_to 11000
  141.2091  133.6681  156.6420 LP  0  0  0  0  0  0  0  0  0  0  0  0  # atno 17395 bound_to 11000

$$$$
