AV-unprocessed.smi:1354|AV-procd|sdf|5535|dock10
  -GOLD-   22720 5123D 1   1.00000     0.00000
 Structure written by MMmdl.
 40 42  0  0  0  0  0  0  0  0  2 V2000
  152.0051  135.3403  156.2939 O   0  0  0  0  0  0  0  0  0  0  0  0
  150.9982  136.2886  156.0151 C   0  0  0  0  0  0  0  0  0  0  0  0
  151.3685  137.0830  154.7551 C   0  0  0  0  0  0  0  0  0  0  0  0
  150.4226  138.2165  154.5231 C   0  0  0  0  0  0  0  0  0  0  0  0
  149.2184  138.1340  153.8898 N   0  3  0  0  0  0  0  0  0  0  0  0
  148.6084  139.3888  153.8684 C   0  0  0  0  0  0  0  0  0  0  0  0
  147.3910  139.8005  153.3348 C   0  0  0  0  0  0  0  0  0  0  0  0
  147.0651  141.1649  153.4806 C   0  0  0  0  0  0  0  0  0  0  0  0
  147.9329  142.0605  154.1381 C   0  0  0  0  0  0  0  0  0  0  0  0
  149.1627  141.6304  154.6779 C   0  0  0  0  0  0  0  0  0  0  0  0
  149.4795  140.2804  154.5271 C   0  0  0  0  0  0  0  0  0  0  0  0
  150.5851  139.5135  154.9148 N   0  0  0  0  0  0  0  0  0  0  0  0
  151.6991  140.1555  155.6293 C   0  0  0  0  0  0  0  0  0  0  0  0
  151.5411  140.0684  157.1544 C   0  0  0  0  0  0  0  0  0  0  0  0
  152.8214  140.1230  157.7693 O   0  0  0  0  0  0  0  0  0  0  0  0
  152.9905  140.9360  158.8702 C   0  0  0  0  0  0  0  0  0  0  0  0
  152.2448  142.1206  159.0996 C   0  0  0  0  0  0  0  0  0  0  0  0
  152.4773  142.9000  160.2492 C   0  0  0  0  0  0  0  0  0  0  0  0
  153.4546  142.5090  161.1823 C   0  0  0  0  0  0  0  0  0  0  0  0
  154.1994  141.3359  160.9647 C   0  0  0  0  0  0  0  0  0  0  0  0
  153.9685  140.5538  159.8160 C   0  0  0  0  0  0  0  0  0  0  0  0
  154.8947  139.1153  159.5768 Cl  0  0  0  0  0  0  0  0  0  0  0  0
  152.2507  135.4194  157.2034 H   0  0  0  0  0  0  0  0  0  0  0  0
  150.0488  135.7696  155.8794 H   0  0  0  0  0  0  0  0  0  0  0  0
  150.8888  136.9512  156.8740 H   0  0  0  0  0  0  0  0  0  0  0  0
  152.3824  137.4758  154.8381 H   0  0  0  0  0  0  0  0  0  0  0  0
  151.3580  136.4293  153.8820 H   0  0  0  0  0  0  0  0  0  0  0  0
  146.7249  139.1163  152.8298 H   0  0  0  0  0  0  0  0  0  0  0  0
  146.1317  141.5321  153.0794 H   0  0  0  0  0  0  0  0  0  0  0  0
  147.6521  143.1001  154.2270 H   0  0  0  0  0  0  0  0  0  0  0  0
  149.8231  142.3280  155.1711 H   0  0  0  0  0  0  0  0  0  0  0  0
  152.6389  139.7081  155.3058 H   0  0  0  0  0  0  0  0  0  0  0  0
  151.7363  141.2000  155.3193 H   0  0  0  0  0  0  0  0  0  0  0  0
  150.9209  140.8957  157.5015 H   0  0  0  0  0  0  0  0  0  0  0  0
  151.0381  139.1359  157.4155 H   0  0  0  0  0  0  0  0  0  0  0  0
  151.4877  142.4555  158.4071 H   0  0  0  0  0  0  0  0  0  0  0  0
  151.9045  143.8004  160.4152 H   0  0  0  0  0  0  0  0  0  0  0  0
  153.6327  143.1078  162.0633 H   0  0  0  0  0  0  0  0  0  0  0  0
  154.9495  141.0360  161.6820 H   0  0  0  0  0  0  0  0  0  0  0  0
  148.8448  137.2793  153.4972 H   0  0  0  0  0  0  0  0  0  0  0  0
  1  2  1  0  0  0  0
  1 23  1  0  0  0  0
  2  3  1  0  0  0  0
  2 24  1  0  0  0  0
  2 25  1  0  0  0  0
  3  4  1  0  0  0  0
  3 26  1  0  0  0  0
  3 27  1  0  0  0  0
  4 12  1  0  0  0  0
  4  5  2  0  0  0  0
  5  6  1  0  0  0  0
  5 40  1  0  0  0  0
  6 11  2  0  0  0  0
  6  7  1  0  0  0  0
  7  8  2  0  0  0  0
  7 28  1  0  0  0  0
  8  9  1  0  0  0  0
  8 29  1  0  0  0  0
  9 10  2  0  0  0  0
  9 30  1  0  0  0  0
 10 11  1  0  0  0  0
 10 31  1  0  0  0  0
 11 12  1  0  0  0  0
 12 13  1  0  0  0  0
 13 14  1  0  0  0  0
 13 32  1  0  0  0  0
 13 33  1  0  0  0  0
 14 15  1  0  0  0  0
 14 34  1  0  0  0  0
 14 35  1  0  0  0  0
 15 16  1  0  0  0  0
 16 21  1  0  0  0  0
 16 17  2  0  0  0  0
 17 18  1  0  0  0  0
 17 36  1  0  0  0  0
 18 19  2  0  0  0  0
 18 37  1  0  0  0  0
 19 20  1  0  0  0  0
 19 38  1  0  0  0  0
 20 21  2  0  0  0  0
 20 39  1  0  0  0  0
 21 22  1  0  0  0  0
M  CHG  1   5   1
M  END
> <s_m_source_file>
AV-unprocessed.smi

> <i_m_source_file_index>
1354

> <i_lp_mmshare_version>
43012

> <i_f3d_flags>
0

> <s_epik_input>
W2NIXTFbY0hdW2NIXVtjSF1jKGMxMiluKGMobjIpW0NIMl1bQ0gyXVtPSF0pW0NIMl1bQ0gyXU9jM1tjSF1bY0hdW2NIXVtjSF1jM0Ns

> <s_epik_cmdline>
J2VwaWtfcHl0aG9uJywgJy1waCcsICc3LjAnLCAnLXRuJywgJzgnLCAnLW1hJywgJzIwMCcsICctbWV0YWxfYmluZGluZycsICctaW1hZScsICc8aW5maWxlLm1hZT4nLCAnLW9tYWUnLCAnPG91dGZpbGUubWFlPic=

> <r_lp_tautomer_probability>
1

> <r_epik_Ionization_Penalty>
0.752951

> <r_epik_Ionization_Penalty_Charging>
0.752951

> <r_epik_Ionization_Penalty_Neutral>
5.89567e-08

> <r_epik_State_Penalty>
0.780107

> <r_epik_Charging_Adjusted_Penalty>
1.53306

> <i_epik_Tot_Q>
1

> <i_epik_Tot_abs_Q>
1

> <r_epik_Metal_State_Penalty>
4.68821

> <b_epik_Metal_Only>
0

> <s_lp_Force_Field>
OPLS_2005

> <r_lp_Energy>
19.8379

> <b_lp_Chiralities_Consistent>
1

> <s_lp_Variant>
AV-unprocessed.smi:1354-2

> <Gold.Version>
5.8.1

> <Gold.Id.Protein>
6NUR|6NUR_protein|mol2

> <Gold.PLP.Fitness>
56.2610

> <Gold.PLP.PLP>
-48.2939

> <Gold.PLP.part.hbond>
-3.0854

> <Gold.PLP.part.metal>
0.0000

> <Gold.PLP.part.buried>
2.5605

> <Gold.PLP.part.nonpolar>
-45.9346

> <Gold.PLP.part.repulsive>
0.0323

> <Gold.PLP.ligand.clash>
0.0000

> <Gold.PLP.ligand.torsion>
1.5732

> <Gold.PLP.Chemscore.Hbond>
3.6793

> <Gold.PLP.Chemscore.CHOScore>
0.0000

> <Gold.PLP.Chemscore.Metal>
0.0000

> <Gold.Chemscore.Hbonds>
donor molecule, donor type, donor heavy atom, donor atom, acceptor molecule, acceptor atom, score
      L1  H     5    40       P1  7948  1.54
      P1  H  7997  8008       L1    15  1.00
      P1  H 10752 10765       L1     1  1.00

> <Gold.PLP.Chemscore.Internal.Correction>
0.0756

> <Gold.Rescore>
     Score         DG    S(hbond)    S(metal)    S(lipo)     H(rot)  DE(clash)    DE(int)     intcor
     20.99     -22.82       2.45        0.00     130.66       2.39       0.37       1.47       ----

> <Gold.Chemscore.Fitness>
20.9888

> <Gold.Chemscore.DG>
-22.8228

> <Gold.Chemscore.ZeroCoef>
-5.4800

> <Gold.Chemscore.Hbond>
2.4512

> <Gold.Chemscore.Metal>
0.0000

> <Gold.Chemscore.Lipo>
130.6552

> <Gold.Chemscore.Internal_Hbond>
0.0000

> <Gold.Chemscore.DEClash>
0.3668

> <Gold.Chemscore.DEInternal>
1.4672

> <Gold.Chemscore.Rot>
2.3948

> <Gold.Chemscore.Internal.Correction>
   9.000000E+99

> <Gold.Chemscore.Hbonds>
donor molecule, donor type, donor heavy atom, donor atom, acceptor molecule, acceptor atom, score
      L1  H     5    40       P1  7948  0.75
      P1  H  7997  8008       L1    15  0.62
      P1  H 10752 10765       L1     1  0.59

> <Gold.Chemscore.Hbond.Weighted>
-8.1870

> <Gold.Chemscore.Metal.Weighted>
-0.0000

> <Gold.Chemscore.Lipo.Weighted>
-15.2867

> <Gold.Chemscore.Internal_Hbond.Weighted>
0.0000

> <Gold.Chemscore.DEClash.Weighted>
0.3668

> <Gold.Chemscore.DEInternal.Weighted>
1.4672

> <Gold.Chemscore.Rot.Weighted>
6.1308

> <Gold.Chemscore.Internal.Correction.Weighted>
   9.000000E+99

> <Gold.Protein.RotatedTorsions>
[ 6907 6896 6895 6894 ] final   18.45 input  -60.11 | X-H torsion
[ 7974 7965 7964 7962 ] final  -89.63 input  175.53 | X-H torsion
[ 8008 7997 7996 7995 ] final  -71.79 input   59.86 | X-H torsion
[ 10167 10162 10161 10158 ] final   59.66 input  -65.29 | X-H torsion
[ 10718 10713 10712 10709 ] final   36.91 input   66.30 | X-H torsion
[ 10763 10752 10751 10750 ] final -150.26 input  -60.55 | X-H torsion
[ 11005 11000 10999 10996 ] final  144.83 input  -57.11 | X-H torsion

> <Gold.Protein.ActiveResidues>
 VAL166  LYS551  ARG553  GLY616  TRP617  ASP618  TYR619  PRO620  LYS621  CYS622 
 ASP623  PHE694  ASN695  SER759  ASP760  ASP761  ALA762  ILE779  LEU786  VAL792 
 PHE793  MET794  SER795  GLU796  ALA797  LYS798  CYS799  TRP800  GLU811  SER814 

> <Gold.Protein.RotatedAtoms>
  151.8655  135.0508  160.0473 H   0  0  0  0  0  0  0  0  0  0  0  0  # atno 6907 bound_to 6896
  152.2629  133.5309  159.5401 H   0  0  0  0  0  0  0  0  0  0  0  0  # atno 6908 bound_to 6896
  150.7123  134.0720  159.3910 H   0  0  0  0  0  0  0  0  0  0  0  0  # atno 6909 bound_to 6896
  145.4373  140.9558  143.2095 H   0  0  0  0  0  0  0  0  0  0  0  0  # atno 7974 bound_to 7965
  154.5115  140.0809  156.7999 H   0  0  0  0  0  0  0  0  0  0  0  0  # atno 8008 bound_to 7997
  155.3774  140.3426  155.4227 H   0  0  0  0  0  0  0  0  0  0  0  0  # atno 8009 bound_to 7997
  156.1579  140.1579  156.8649 H   0  0  0  0  0  0  0  0  0  0  0  0  # atno 8010 bound_to 7997
  140.1740  144.4248  150.6647 H   0  0  0  0  0  0  0  0  0  0  0  0  # atno 10167 bound_to 10162
  157.3406  130.7546  149.6909 H   0  0  0  0  0  0  0  0  0  0  0  0  # atno 10718 bound_to 10713
  154.8129  135.3289  154.7255 H   0  0  0  0  0  0  0  0  0  0  0  0  # atno 10763 bound_to 10752
  153.7901  135.6912  153.4877 H   0  0  0  0  0  0  0  0  0  0  0  0  # atno 10764 bound_to 10752
  153.1922  135.4546  155.0110 H   0  0  0  0  0  0  0  0  0  0  0  0  # atno 10765 bound_to 10752
  140.0664  134.9176  157.1271 H   0  0  0  0  0  0  0  0  0  0  0  0  # atno 11005 bound_to 11000
  144.8144  139.5903  143.7015 LP  0  0  0  0  0  0  0  0  0  0  0  0  # atno 17320 bound_to 7965
  146.2575  139.6335  142.9385 LP  0  0  0  0  0  0  0  0  0  0  0  0  # atno 17321 bound_to 7965
  140.6563  143.2239  151.5960 LP  0  0  0  0  0  0  0  0  0  0  0  0  # atno 17342 bound_to 10162
  139.5325  144.2875  152.1180 LP  0  0  0  0  0  0  0  0  0  0  0  0  # atno 17343 bound_to 10162
  155.9707  130.4169  150.4252 LP  0  0  0  0  0  0  0  0  0  0  0  0  # atno 17370 bound_to 10713
  157.2299  131.0501  151.2498 LP  0  0  0  0  0  0  0  0  0  0  0  0  # atno 17371 bound_to 10713
  140.3693  134.2408  155.7179 LP  0  0  0  0  0  0  0  0  0  0  0  0  # atno 17394 bound_to 11000
  141.1994  133.8012  157.0537 LP  0  0  0  0  0  0  0  0  0  0  0  0  # atno 17395 bound_to 11000

$$$$
