AV-unprocessed.smi:1093|AV-procd|sdf|4745|dock4
  -GOLD-   22720 3283D 1   1.00000     0.00000
 Structure written by MMmdl.
 47 48  0  0  0  0  0  0  0  0  2 V2000
  143.3229  139.0132  155.8287 C   0  0  0  0  0  0  0  0  0  0  0  0
  144.1885  138.1635  154.8867 C   0  0  0  0  0  0  0  0  0  0  0  0
  145.1311  138.9822  154.0829 N   0  3  2  0  0  0  0  0  0  0  0  0
  145.9596  138.1483  153.1734 C   0  0  0  0  0  0  0  0  0  0  0  0
  146.8300  139.0213  152.2542 C   0  0  0  0  0  0  0  0  0  0  0  0
  147.7111  139.9741  153.0718 C   0  0  0  0  0  0  0  0  0  0  0  0
  146.8383  140.8091  154.0210 C   0  0  2  0  0  0  0  0  0  0  0  0
  147.6817  141.6776  154.8369 N   0  0  0  0  0  0  0  0  0  0  0  0
  148.5548  141.2544  155.7621 C   0  0  0  0  0  0  0  0  0  0  0  0
  148.7574  140.0654  156.0076 O   0  0  0  0  0  0  0  0  0  0  0  0
  149.1815  142.2870  156.3505 N   0  0  0  0  0  0  0  0  0  0  0  0
  150.1251  142.2527  157.4120 C   0  0  0  0  0  0  0  0  0  0  0  0
  150.9890  141.1642  157.6709 C   0  0  0  0  0  0  0  0  0  0  0  0
  151.8643  141.2333  158.7717 C   0  0  0  0  0  0  0  0  0  0  0  0
  151.8558  142.3863  159.5959 C   0  0  0  0  0  0  0  0  0  0  0  0
  152.7152  142.5022  160.7124 N   0  0  0  0  0  0  0  0  0  0  0  0
  152.4029  143.4393  161.7842 C   0  0  0  0  0  0  0  0  0  0  0  0
  153.8827  141.6338  160.8232 C   0  0  0  0  0  0  0  0  0  0  0  0
  151.0166  143.4215  159.3471 N   0  0  0  0  0  0  0  0  0  0  0  0
  150.1769  143.3498  158.2935 C   0  0  0  0  0  0  0  0  0  0  0  0
  145.9725  139.8898  154.9084 C   0  0  0  0  0  0  0  0  0  0  0  0
  142.5771  138.3922  156.3254 H   0  0  0  0  0  0  0  0  0  0  0  0
  142.7911  139.7914  155.2807 H   0  0  0  0  0  0  0  0  0  0  0  0
  143.9124  139.4927  156.6095 H   0  0  0  0  0  0  0  0  0  0  0  0
  144.7347  137.4026  155.4459 H   0  0  0  0  0  0  0  0  0  0  0  0
  143.5164  137.6290  154.2142 H   0  0  0  0  0  0  0  0  0  0  0  0
  146.5883  137.4792  153.7633 H   0  0  0  0  0  0  0  0  0  0  0  0
  145.3150  137.5182  152.5596 H   0  0  0  0  0  0  0  0  0  0  0  0
  147.4531  138.3893  151.6206 H   0  0  0  0  0  0  0  0  0  0  0  0
  146.1912  139.5974  151.5831 H   0  0  0  0  0  0  0  0  0  0  0  0
  148.4420  139.3986  153.6421 H   0  0  0  0  0  0  0  0  0  0  0  0
  148.2766  140.6251  152.4036 H   0  0  0  0  0  0  0  0  0  0  0  0
  146.1800  141.4329  153.4127 H   0  0  0  0  0  0  0  0  0  0  0  0
  147.5835  142.6727  154.6968 H   0  0  0  0  0  0  0  0  0  0  0  0
  148.9901  143.2029  155.9712 H   0  0  0  0  0  0  0  0  0  0  0  0
  150.9867  140.2748  157.0601 H   0  0  0  0  0  0  0  0  0  0  0  0
  152.5202  140.3977  158.9631 H   0  0  0  0  0  0  0  0  0  0  0  0
  151.4455  143.1917  162.2435 H   0  0  0  0  0  0  0  0  0  0  0  0
  152.3538  144.4584  161.3996 H   0  0  0  0  0  0  0  0  0  0  0  0
  153.1624  143.4168  162.5659 H   0  0  0  0  0  0  0  0  0  0  0  0
  153.5785  140.5868  160.8426 H   0  0  0  0  0  0  0  0  0  0  0  0
  154.4432  141.8350  161.7361 H   0  0  0  0  0  0  0  0  0  0  0  0
  154.5562  141.7840  159.9787 H   0  0  0  0  0  0  0  0  0  0  0  0
  149.5280  144.2013  158.1491 H   0  0  0  0  0  0  0  0  0  0  0  0
  145.3382  140.5039  155.5468 H   0  0  0  0  0  0  0  0  0  0  0  0
  146.6050  139.2962  155.5710 H   0  0  0  0  0  0  0  0  0  0  0  0
  144.5635  139.5687  153.4875 H   0  0  0  0  0  0  0  0  0  0  0  0
  1  2  1  0  0  0  0
  1 22  1  0  0  0  0
  1 23  1  0  0  0  0
  1 24  1  0  0  0  0
  2  3  1  0  0  0  0
  2 25  1  0  0  0  0
  2 26  1  0  0  0  0
  3 21  1  0  0  0  0
  3  4  1  0  0  0  0
  3 47  1  0  0  0  0
  4  5  1  0  0  0  0
  4 27  1  0  0  0  0
  4 28  1  0  0  0  0
  5  6  1  0  0  0  0
  5 29  1  0  0  0  0
  5 30  1  0  0  0  0
  6  7  1  0  0  0  0
  6 31  1  0  0  0  0
  6 32  1  0  0  0  0
  7  8  1  0  0  0  0
  7 21  1  0  0  0  0
  7 33  1  0  0  0  0
  8  9  1  0  0  0  0
  8 34  1  0  0  0  0
  9 10  2  0  0  0  0
  9 11  1  0  0  0  0
 11 12  1  0  0  0  0
 11 35  1  0  0  0  0
 12 20  1  0  0  0  0
 12 13  2  0  0  0  0
 13 14  1  0  0  0  0
 13 36  1  0  0  0  0
 14 15  2  0  0  0  0
 14 37  1  0  0  0  0
 15 16  1  0  0  0  0
 15 19  1  0  0  0  0
 16 17  1  0  0  0  0
 16 18  1  0  0  0  0
 17 38  1  0  0  0  0
 17 39  1  0  0  0  0
 17 40  1  0  0  0  0
 18 41  1  0  0  0  0
 18 42  1  0  0  0  0
 18 43  1  0  0  0  0
 19 20  2  0  0  0  0
 20 44  1  0  0  0  0
 21 45  1  0  0  0  0
 21 46  1  0  0  0  0
M  CHG  1   3   1
M  END
> <s_m_source_file>
AV-unprocessed.smi

> <i_m_source_file_index>
1093

> <i_lp_mmshare_version>
43012

> <i_f3d_flags>
0

> <s_epik_input>
W0NIM11bQ0gyXU4xW0NIMl1bQ0gyXVtDSDJdW0NASF0oW0NIMl0xKVtOSF1DKD1PKVtOSF1jMltjSF1bY0hdYyhOKFtDSDNdKVtDSDNdKW5bY0hdMg==

> <s_epik_cmdline>
J2VwaWtfcHl0aG9uJywgJy1waCcsICc3LjAnLCAnLXRuJywgJzgnLCAnLW1hJywgJzIwMCcsICctbWV0YWxfYmluZGluZycsICctaW1hZScsICc8aW5maWxlLm1hZT4nLCAnLW9tYWUnLCAnPG91dGZpbGUubWFlPic=

> <r_lp_tautomer_probability>
1

> <r_epik_Ionization_Penalty>
0.489418

> <r_epik_Ionization_Penalty_Charging>
0.00268196

> <r_epik_Ionization_Penalty_Neutral>
0.486736

> <r_epik_State_Penalty>
0.491157

> <r_epik_Charging_Adjusted_Penalty>
0.493839

> <i_epik_Tot_Q>
1

> <i_epik_Tot_abs_Q>
1

> <r_epik_Metal_State_Penalty>
0.266953

> <b_epik_Metal_Only>
0

> <s_lp_Force_Field>
OPLS_2005

> <r_lp_Energy>
20.183

> <b_lp_Chiralities_Consistent>
1

> <s_lp_Variant>
AV-unprocessed.smi:1093-8

> <Gold.Version>
5.8.1

> <Gold.Id.Protein>
6NUR|6NUR_protein|mol2

> <Gold.PLP.Fitness>
45.5548

> <Gold.PLP.PLP>
-34.1303

> <Gold.PLP.part.hbond>
-2.0000

> <Gold.PLP.part.metal>
0.0000

> <Gold.PLP.part.buried>
-0.7293

> <Gold.PLP.part.nonpolar>
-31.1512

> <Gold.PLP.part.repulsive>
0.2224

> <Gold.PLP.ligand.clash>
0.0000

> <Gold.PLP.ligand.torsion>
0.3768

> <Gold.PLP.Chemscore.Hbond>
3.0000

> <Gold.PLP.Chemscore.CHOScore>
1.0500

> <Gold.PLP.Chemscore.Metal>
0.0000

> <Gold.Chemscore.Hbonds>
donor molecule, donor type, donor heavy atom, donor atom, acceptor molecule, acceptor atom, score
      L1  H     3    47       P1 10175  2.00
      L1  H    11    35       P1  8028  1.00
      L1  C    20    44       P1  8028  0.35
      L1  C    20    44       P1  8029  0.68

> <Gold.PLP.Chemscore.Internal.Correction>
0.0280

> <Gold.Rescore>
     Score         DG    S(hbond)    S(metal)    S(lipo)     H(rot)  DE(clash)    DE(int)     intcor
     17.27     -21.08       2.78        0.00      79.98       1.18       1.27       2.54       ----

> <Gold.Chemscore.Fitness>
17.2699

> <Gold.Chemscore.DG>
-21.0839

> <Gold.Chemscore.ZeroCoef>
-5.4800

> <Gold.Chemscore.Hbond>
2.7779

> <Gold.Chemscore.Metal>
0.0000

> <Gold.Chemscore.Lipo>
79.9760

> <Gold.Chemscore.Internal_Hbond>
0.0000

> <Gold.Chemscore.DEClash>
1.2705

> <Gold.Chemscore.DEInternal>
2.5434

> <Gold.Chemscore.Rot>
1.1842

> <Gold.Chemscore.Internal.Correction>
   9.000000E+99

> <Gold.Chemscore.Hbonds>
donor molecule, donor type, donor heavy atom, donor atom, acceptor molecule, acceptor atom, score
      L1  H     3    47       P1 10175  0.99
      L1  H    11    35       P1  8028  0.95

> <Gold.Chemscore.Hbond.Weighted>
-9.2783

> <Gold.Chemscore.Metal.Weighted>
-0.0000

> <Gold.Chemscore.Lipo.Weighted>
-9.3572

> <Gold.Chemscore.Internal_Hbond.Weighted>
0.0000

> <Gold.Chemscore.DEClash.Weighted>
1.2705

> <Gold.Chemscore.DEInternal.Weighted>
2.5434

> <Gold.Chemscore.Rot.Weighted>
3.0317

> <Gold.Chemscore.Internal.Correction.Weighted>
   9.000000E+99

> <Gold.Protein.RotatedTorsions>
[ 6907 6896 6895 6894 ] final   21.28 input  -60.11 | X-H torsion
[ 7974 7965 7964 7962 ] final   78.21 input  175.53 | X-H torsion
[ 8008 7997 7996 7995 ] final -147.14 input   59.86 | X-H torsion
[ 10167 10162 10161 10158 ] final  120.51 input  -65.29 | X-H torsion
[ 10718 10713 10712 10709 ] final  166.52 input   66.30 | X-H torsion
[ 10763 10752 10751 10750 ] final -143.02 input  -60.55 | X-H torsion
[ 11005 11000 10999 10996 ] final -176.36 input  -57.11 | X-H torsion

> <Gold.Protein.ActiveResidues>
 VAL166  LYS551  ARG553  GLY616  TRP617  ASP618  TYR619  PRO620  LYS621  CYS622 
 ASP623  PHE694  ASN695  SER759  ASP760  ASP761  ALA762  ILE779  LEU786  VAL792 
 PHE793  MET794  SER795  GLU796  ALA797  LYS798  CYS799  TRP800  GLU811  SER814 

> <Gold.Protein.RotatedAtoms>
  151.9093  135.0345  160.0512 H   0  0  0  0  0  0  0  0  0  0  0  0  # atno 6907 bound_to 6896
  152.2292  133.5040  159.5215 H   0  0  0  0  0  0  0  0  0  0  0  0  # atno 6908 bound_to 6896
  150.7021  134.1155  159.4058 H   0  0  0  0  0  0  0  0  0  0  0  0  # atno 6909 bound_to 6896
  145.6801  139.2521  143.1819 H   0  0  0  0  0  0  0  0  0  0  0  0  # atno 7974 bound_to 7965
  155.5707  140.0634  157.2807 H   0  0  0  0  0  0  0  0  0  0  0  0  # atno 8008 bound_to 7997
  154.4362  140.1869  156.0922 H   0  0  0  0  0  0  0  0  0  0  0  0  # atno 8009 bound_to 7997
  156.0378  140.3299  155.7214 H   0  0  0  0  0  0  0  0  0  0  0  0  # atno 8010 bound_to 7997
  139.5977  144.7047  151.3136 H   0  0  0  0  0  0  0  0  0  0  0  0  # atno 10167 bound_to 10162
  157.0647  131.0349  151.2634 H   0  0  0  0  0  0  0  0  0  0  0  0  # atno 10718 bound_to 10713
  154.8486  135.3479  154.6121 H   0  0  0  0  0  0  0  0  0  0  0  0  # atno 10763 bound_to 10752
  153.6730  135.6984  153.5146 H   0  0  0  0  0  0  0  0  0  0  0  0  # atno 10764 bound_to 10752
  153.2727  135.4288  155.0960 H   0  0  0  0  0  0  0  0  0  0  0  0  # atno 10765 bound_to 10752
  140.4529  134.6326  157.4809 H   0  0  0  0  0  0  0  0  0  0  0  0  # atno 11005 bound_to 11000
  146.0972  140.7587  142.9567 LP  0  0  0  0  0  0  0  0  0  0  0  0  # atno 17320 bound_to 7965
  144.7029  140.3729  143.7141 LP  0  0  0  0  0  0  0  0  0  0  0  0  # atno 17321 bound_to 7965
  140.7225  143.7095  150.7780 LP  0  0  0  0  0  0  0  0  0  0  0  0  # atno 17342 bound_to 10162
  140.0665  143.5103  152.2601 LP  0  0  0  0  0  0  0  0  0  0  0  0  # atno 17343 bound_to 10162
  157.4926  130.7831  149.7523 LP  0  0  0  0  0  0  0  0  0  0  0  0  # atno 17370 bound_to 10713
  155.9968  130.3904  150.2765 LP  0  0  0  0  0  0  0  0  0  0  0  0  # atno 17371 bound_to 10713
  139.9995  134.6859  155.9554 LP  0  0  0  0  0  0  0  0  0  0  0  0  # atno 17394 bound_to 11000
  141.1656  133.6537  156.4468 LP  0  0  0  0  0  0  0  0  0  0  0  0  # atno 17395 bound_to 11000

$$$$
