AV-unprocessed.smi:2886|AV-procd|sdf|11092|dock2
  -GOLD-   2272015563D 1   1.00000     0.00000
 Structure written by MMmdl.
 28 30  0  0  0  0  0  0  0  0  3 V2000
  153.4625  138.3058  156.6642 O   0  0  0  0  0  0  0  0  0  0  0  0
  152.5409  138.3586  155.8522 C   0  0  0  0  0  0  0  0  0  0  0  0
  152.2897  137.3734  154.9394 N   0  5  0  0  0  0  0  0  0  0  0  0
  151.2955  137.4558  154.0834 N   0  3  0  0  0  0  0  0  0  0  0  0
  150.4562  138.4851  154.0264 C   0  0  0  0  0  0  0  0  0  0  0  0
  150.6111  139.5832  154.9182 C   0  0  0  0  0  0  0  0  0  0  0  0
  149.7618  140.6826  154.9017 N   0  0  0  0  0  0  0  0  0  0  0  0
  148.6134  140.9502  154.0451 C   0  0  1  0  0  0  0  0  0  0  0  0
  147.6924  139.7424  153.8686 C   0  0  0  0  0  0  0  0  0  0  0  0
  146.3336  140.3266  154.2809 C   0  0  1  0  0  0  0  0  0  0  0  0
  146.2331  140.4965  155.8022 C   0  0  0  0  0  0  0  0  0  0  0  0
  147.1610  141.6856  156.0436 C   0  0  0  0  0  0  0  0  0  0  0  0
  147.6507  142.0032  154.6199 C   0  0  2  0  0  0  0  0  0  0  0  0
  146.4848  141.6794  153.8807 O   0  0  0  0  0  0  0  0  0  0  0  0
  151.6331  139.5202  155.8199 C   0  0  0  0  0  0  0  0  0  0  0  0
  151.8984  140.8058  156.9516 Cl  0  0  0  0  0  0  0  0  0  0  0  0
  151.1233  136.6972  153.4050 H   0  0  0  0  0  0  0  0  0  0  0  0
  149.6701  138.4350  153.2842 H   0  0  0  0  0  0  0  0  0  0  0  0
  150.0285  141.4585  155.4916 H   0  0  0  0  0  0  0  0  0  0  0  0
  148.9390  141.2969  153.0650 H   0  0  0  0  0  0  0  0  0  0  0  0
  147.6827  139.4243  152.8256 H   0  0  0  0  0  0  0  0  0  0  0  0
  147.9721  138.8846  154.4819 H   0  0  0  0  0  0  0  0  0  0  0  0
  145.4785  139.8171  153.8360 H   0  0  0  0  0  0  0  0  0  0  0  0
  145.2128  140.7411  156.1000 H   0  0  0  0  0  0  0  0  0  0  0  0
  146.5415  139.6008  156.3426 H   0  0  0  0  0  0  0  0  0  0  0  0
  146.5985  142.5265  156.4506 H   0  0  0  0  0  0  0  0  0  0  0  0
  147.9718  141.4595  156.7364 H   0  0  0  0  0  0  0  0  0  0  0  0
  147.9925  143.0305  154.4897 H   0  0  0  0  0  0  0  0  0  0  0  0
  1  2  2  0  0  0  0
  2  3  1  0  0  0  0
  2 15  1  0  0  0  0
  3  4  1  0  0  0  0
  4  5  2  0  0  0  0
  4 17  1  0  0  0  0
  5  6  1  0  0  0  0
  5 18  1  0  0  0  0
  6 15  2  0  0  0  0
  6  7  1  0  0  0  0
  7  8  1  0  0  0  0
  7 19  1  0  0  0  0
  8 13  1  0  0  0  0
  8  9  1  0  0  0  0
  8 20  1  0  0  0  0
  9 10  1  0  0  0  0
  9 21  1  0  0  0  0
  9 22  1  0  0  0  0
 10 14  1  0  0  0  0
 10 11  1  0  0  0  0
 10 23  1  0  0  0  0
 11 12  1  0  0  0  0
 11 24  1  0  0  0  0
 11 25  1  0  0  0  0
 12 13  1  0  0  0  0
 12 26  1  0  0  0  0
 12 27  1  0  0  0  0
 13 14  1  0  0  0  0
 13 28  1  0  0  0  0
 15 16  1  0  0  0  0
M  CHG  1   3  -1
M  CHG  1   4   1
M  END
> <s_m_source_file>
AV-unprocessed.smi

> <i_m_source_file_index>
2886

> <i_lp_mmshare_version>
43012

> <i_f3d_flags>
0

> <s_epik_input>
Tz1jMVtuSF1uW2NIXWMoYzFDbClbTkhdW0NASF0oW0NIMl1bQ0BASF0yMylbQ0BASF0oTzMpW0NIMl1bQ0gyXTI=

> <s_epik_cmdline>
J2VwaWtfcHl0aG9uJywgJy1waCcsICc3LjAnLCAnLXRuJywgJzgnLCAnLW1hJywgJzIwMCcsICctbWV0YWxfYmluZGluZycsICctaW1hZScsICc8aW5maWxlLm1hZT4nLCAnLW9tYWUnLCAnPG91dGZpbGUubWFlPic=

> <r_lp_tautomer_probability>
0.0138196

> <r_epik_Ionization_Penalty>
2.43027

> <r_epik_Ionization_Penalty_Charging>
2.43027

> <r_epik_Ionization_Penalty_Neutral>
1.33267e-06

> <r_epik_State_Penalty>
2.7044

> <r_epik_Charging_Adjusted_Penalty>
5.13467

> <i_epik_Tot_Q>
0

> <i_epik_Tot_abs_Q>
2

> <r_epik_Metal_State_Penalty>
2.98589

> <b_epik_Metal_Only>
0

> <s_lp_Force_Field>
OPLS_2005

> <r_lp_Energy>
57.8077

> <b_lp_Chiralities_Consistent>
1

> <s_lp_Variant>
AV-unprocessed.smi:2886-6

> <Gold.Version>
5.8.1

> <Gold.Id.Protein>
6NUR|6NUR_protein|mol2

> <Gold.PLP.Fitness>
36.5521

> <Gold.PLP.PLP>
-24.5886

> <Gold.PLP.part.hbond>
-3.0000

> <Gold.PLP.part.metal>
0.0000

> <Gold.PLP.part.buried>
-2.7497

> <Gold.PLP.part.nonpolar>
-19.4366

> <Gold.PLP.part.repulsive>
0.5450

> <Gold.PLP.ligand.clash>
0.0000

> <Gold.PLP.ligand.torsion>
0.2389

> <Gold.PLP.Chemscore.Hbond>
4.1440

> <Gold.PLP.Chemscore.CHOScore>
0.0000

> <Gold.PLP.Chemscore.Metal>
0.0000

> <Gold.Chemscore.Hbonds>
donor molecule, donor type, donor heavy atom, donor atom, acceptor molecule, acceptor atom, score
      L1  H     4    17       P1  7949  1.95
      P1  H  7997  8008       L1     1  0.69
      P1  H 10752 10765       L1     3  1.44

> <Gold.PLP.Chemscore.Internal.Correction>
0.0093

> <Gold.Rescore>
     Score         DG    S(hbond)    S(metal)    S(lipo)     H(rot)  DE(clash)    DE(int)     intcor
     13.41     -14.65       1.47        0.00      58.30       1.00       0.23       1.00       ----

> <Gold.Chemscore.Fitness>
13.4115

> <Gold.Chemscore.DG>
-14.6465

> <Gold.Chemscore.ZeroCoef>
-5.4800

> <Gold.Chemscore.Hbond>
1.4686

> <Gold.Chemscore.Metal>
0.0000

> <Gold.Chemscore.Lipo>
58.3029

> <Gold.Chemscore.Internal_Hbond>
0.0000

> <Gold.Chemscore.DEClash>
0.2350

> <Gold.Chemscore.DEInternal>
1.0000

> <Gold.Chemscore.Rot>
1.0000

> <Gold.Chemscore.Internal.Correction>
   9.000000E+99

> <Gold.Chemscore.Hbonds>
donor molecule, donor type, donor heavy atom, donor atom, acceptor molecule, acceptor atom, score
      L1  H     4    17       P1  7949  0.39
      P1  H  7997  8008       L1     1  0.61
      P1  H 10752 10765       L1     3  0.25

> <Gold.Chemscore.Hbond.Weighted>
-4.9051

> <Gold.Chemscore.Metal.Weighted>
-0.0000

> <Gold.Chemscore.Lipo.Weighted>
-6.8214

> <Gold.Chemscore.Internal_Hbond.Weighted>
0.0000

> <Gold.Chemscore.DEClash.Weighted>
0.2350

> <Gold.Chemscore.DEInternal.Weighted>
1.0000

> <Gold.Chemscore.Rot.Weighted>
2.5600

> <Gold.Chemscore.Internal.Correction.Weighted>
   9.000000E+99

> <Gold.Protein.RotatedTorsions>
[ 6907 6896 6895 6894 ] final -115.32 input  -60.11 | X-H torsion
[ 7974 7965 7964 7962 ] final   94.62 input  175.53 | X-H torsion
[ 8008 7997 7996 7995 ] final  -80.92 input   59.86 | X-H torsion
[ 10167 10162 10161 10158 ] final  127.09 input  -65.29 | X-H torsion
[ 10718 10713 10712 10709 ] final   69.75 input   66.30 | X-H torsion
[ 10763 10752 10751 10750 ] final  179.13 input  -60.55 | X-H torsion
[ 11005 11000 10999 10996 ] final    0.15 input  -57.11 | X-H torsion

> <Gold.Protein.ActiveResidues>
 VAL166  LYS551  ARG553  GLY616  TRP617  ASP618  TYR619  PRO620  LYS621  CYS622 
 ASP623  PHE694  ASN695  SER759  ASP760  ASP761  ALA762  ILE779  LEU786  VAL792 
 PHE793  MET794  SER795  GLU796  ALA797  LYS798  CYS799  TRP800  GLU811  SER814 

> <Gold.Protein.RotatedAtoms>
  150.7969  133.8675  159.3248 H   0  0  0  0  0  0  0  0  0  0  0  0  # atno 6907 bound_to 6896
  151.6497  135.1001  160.0167 H   0  0  0  0  0  0  0  0  0  0  0  0  # atno 6908 bound_to 6896
  152.4052  133.6839  159.6385 H   0  0  0  0  0  0  0  0  0  0  0  0  # atno 6909 bound_to 6896
  145.4631  139.2286  143.2976 H   0  0  0  0  0  0  0  0  0  0  0  0  # atno 7974 bound_to 7965
  154.5932  140.0655  156.9267 H   0  0  0  0  0  0  0  0  0  0  0  0  # atno 8008 bound_to 7997
  155.2260  140.3334  155.4291 H   0  0  0  0  0  0  0  0  0  0  0  0  # atno 8009 bound_to 7997
  156.2269  140.1823  156.7324 H   0  0  0  0  0  0  0  0  0  0  0  0  # atno 8010 bound_to 7997
  139.5597  144.6873  151.4080 H   0  0  0  0  0  0  0  0  0  0  0  0  # atno 10167 bound_to 10162
  157.6363  130.9442  150.0556 H   0  0  0  0  0  0  0  0  0  0  0  0  # atno 10718 bound_to 10713
  154.5166  135.2791  155.1298 H   0  0  0  0  0  0  0  0  0  0  0  0  # atno 10763 bound_to 10752
  154.2872  135.6274  153.5374 H   0  0  0  0  0  0  0  0  0  0  0  0  # atno 10764 bound_to 10752
  152.9928  135.5665  154.5645 H   0  0  0  0  0  0  0  0  0  0  0  0  # atno 10765 bound_to 10752
  140.6298  133.9585  155.8268 H   0  0  0  0  0  0  0  0  0  0  0  0  # atno 11005 bound_to 11000
  146.2440  140.5402  142.8922 LP  0  0  0  0  0  0  0  0  0  0  0  0  # atno 17320 bound_to 7965
  144.7991  140.6178  143.6490 LP  0  0  0  0  0  0  0  0  0  0  0  0  # atno 17321 bound_to 7965
  140.6875  143.7940  150.7206 LP  0  0  0  0  0  0  0  0  0  0  0  0  # atno 17342 bound_to 10162
  140.1412  143.4439  152.2192 LP  0  0  0  0  0  0  0  0  0  0  0  0  # atno 17343 bound_to 10162
  156.1604  130.3644  149.9307 LP  0  0  0  0  0  0  0  0  0  0  0  0  # atno 17370 bound_to 10713
  156.7306  130.9042  151.3625 LP  0  0  0  0  0  0  0  0  0  0  0  0  # atno 17371 bound_to 10713
  141.0683  134.0243  157.3562 LP  0  0  0  0  0  0  0  0  0  0  0  0  # atno 17394 bound_to 11000
  139.9120  135.0191  156.7732 LP  0  0  0  0  0  0  0  0  0  0  0  0  # atno 17395 bound_to 11000

$$$$
