AV-unprocessed.smi:2124|AV-procd|sdf|8673|dock4
  -GOLD-   2272011423D 1   1.00000     0.00000
 Structure written by MMmdl.
 46 48  0  0  0  0  0  0  0  0  2 V2000
  143.6324  145.8581  158.0501 C   0  0  0  0  0  0  0  0  0  0  0  0
  144.5085  144.6988  157.6263 C   0  0  0  0  0  0  0  0  0  0  0  0
  144.6757  144.4650  156.3805 N   0  0  0  0  0  0  0  0  0  0  0  0
  145.4885  143.3905  155.9817 C   0  0  0  0  0  0  0  0  0  0  0  0
  145.6349  143.1910  154.4832 C   0  0  0  0  0  0  0  0  0  0  0  0
  146.1002  142.5890  156.9003 C   0  0  0  0  0  0  0  0  0  0  0  0
  146.9923  141.4094  156.5153 C   0  0  0  0  0  0  0  0  0  0  0  0
  148.2466  141.2187  157.3709 C   0  0  0  0  0  0  0  0  0  0  0  0
  148.4044  140.1856  158.0216 O   0  0  0  0  0  0  0  0  0  0  0  0
  149.1304  142.2291  157.3569 N   0  0  0  0  0  0  0  0  0  0  0  0
  150.4035  142.2727  158.0745 C   0  0  1  0  0  0  0  0  0  0  0  0
  151.3923  141.3293  157.3727 C   0  0  0  0  0  0  0  0  0  0  0  0
  150.9185  143.7313  158.1391 C   0  0  1  0  0  0  0  0  0  0  0  0
  150.2988  144.5951  159.2624 C   0  0  0  0  0  0  0  0  0  0  0  0
  151.5304  145.2328  159.9309 C   0  0  1  0  0  0  0  0  0  0  0  0
  152.2537  144.1638  160.7701 C   0  0  0  0  0  0  0  0  0  0  0  0
  152.9046  143.2751  159.6949 C   0  0  0  0  0  0  0  0  0  0  0  0
  152.4363  143.9299  158.3788 C   0  0  2  0  0  0  0  0  0  0  0  0
  152.4829  145.4078  158.7539 C   0  0  0  0  0  0  0  0  0  0  0  0
  145.8784  142.8894  158.3262 C   0  0  0  0  0  0  0  0  0  0  0  0
  146.3966  142.1911  159.1969 O   0  0  0  0  0  0  0  0  0  0  0  0
  145.0847  143.9554  158.6319 N   0  5  0  0  0  0  0  0  0  0  0  0
  143.0514  146.2389  157.2091 H   0  0  0  0  0  0  0  0  0  0  0  0
  144.2467  146.6705  158.4394 H   0  0  0  0  0  0  0  0  0  0  0  0
  142.9360  145.5462  158.8291 H   0  0  0  0  0  0  0  0  0  0  0  0
  146.6737  143.3218  154.1802 H   0  0  0  0  0  0  0  0  0  0  0  0
  145.0322  143.9111  153.9289 H   0  0  0  0  0  0  0  0  0  0  0  0
  145.3102  142.1915  154.1939 H   0  0  0  0  0  0  0  0  0  0  0  0
  146.3918  140.5003  156.5633 H   0  0  0  0  0  0  0  0  0  0  0  0
  147.3004  141.4793  155.4719 H   0  0  0  0  0  0  0  0  0  0  0  0
  148.9049  143.0356  156.7928 H   0  0  0  0  0  0  0  0  0  0  0  0
  150.2574  141.8994  159.0882 H   0  0  0  0  0  0  0  0  0  0  0  0
  152.3391  141.2755  157.9098 H   0  0  0  0  0  0  0  0  0  0  0  0
  151.6032  141.6592  156.3551 H   0  0  0  0  0  0  0  0  0  0  0  0
  150.9938  140.3155  157.3188 H   0  0  0  0  0  0  0  0  0  0  0  0
  150.6794  144.2047  157.1847 H   0  0  0  0  0  0  0  0  0  0  0  0
  149.6410  145.3563  158.8407 H   0  0  0  0  0  0  0  0  0  0  0  0
  149.7142  144.0147  159.9770 H   0  0  0  0  0  0  0  0  0  0  0  0
  151.3053  146.1448  160.4844 H   0  0  0  0  0  0  0  0  0  0  0  0
  153.0152  144.6160  161.4066 H   0  0  0  0  0  0  0  0  0  0  0  0
  151.5692  143.6069  161.4112 H   0  0  0  0  0  0  0  0  0  0  0  0
  153.9912  143.3246  159.7751 H   0  0  0  0  0  0  0  0  0  0  0  0
  152.6244  142.2266  159.7847 H   0  0  0  0  0  0  0  0  0  0  0  0
  153.0521  143.6667  157.5185 H   0  0  0  0  0  0  0  0  0  0  0  0
  152.0939  146.0675  157.9761 H   0  0  0  0  0  0  0  0  0  0  0  0
  153.4763  145.7505  159.0488 H   0  0  0  0  0  0  0  0  0  0  0  0
  1  2  1  0  0  0  0
  1 23  1  0  0  0  0
  1 24  1  0  0  0  0
  1 25  1  0  0  0  0
  2 22  1  0  0  0  0
  2  3  2  0  0  0  0
  3  4  1  0  0  0  0
  4  5  1  0  0  0  0
  4  6  2  0  0  0  0
  5 26  1  0  0  0  0
  5 27  1  0  0  0  0
  5 28  1  0  0  0  0
  6  7  1  0  0  0  0
  6 20  1  0  0  0  0
  7  8  1  0  0  0  0
  7 29  1  0  0  0  0
  7 30  1  0  0  0  0
  8  9  2  0  0  0  0
  8 10  1  0  0  0  0
 10 11  1  0  0  0  0
 10 31  1  0  0  0  0
 11 12  1  0  0  0  0
 11 13  1  0  0  0  0
 11 32  1  0  0  0  0
 12 33  1  0  0  0  0
 12 34  1  0  0  0  0
 12 35  1  0  0  0  0
 13 18  1  0  0  0  0
 13 14  1  0  0  0  0
 13 36  1  0  0  0  0
 14 15  1  0  0  0  0
 14 37  1  0  0  0  0
 14 38  1  0  0  0  0
 15 19  1  0  0  0  0
 15 16  1  0  0  0  0
 15 39  1  0  0  0  0
 16 17  1  0  0  0  0
 16 40  1  0  0  0  0
 16 41  1  0  0  0  0
 17 18  1  0  0  0  0
 17 42  1  0  0  0  0
 17 43  1  0  0  0  0
 18 19  1  0  0  0  0
 18 44  1  0  0  0  0
 19 45  1  0  0  0  0
 19 46  1  0  0  0  0
 20 21  2  0  0  0  0
 20 22  1  0  0  0  0
M  CHG  1  22  -1
M  END
> <s_m_source_file>
AV-unprocessed.smi

> <i_m_source_file_index>
2124

> <i_lp_mmshare_version>
43012

> <i_f3d_flags>
0

> <s_epik_input>
W0NIM11jMW5jKFtDSDNdKWMoYyg9TylbbkhdMSlbQ0gyXUMoPU8pW05IXVtDQEhdKFtDSDNdKVtDQEhdKFtDSDJdW0NASF0yMylbQ0BIXShbQ0gyXTMpW0NIMl1bQ0gyXTI=

> <s_epik_cmdline>
J2VwaWtfcHl0aG9uJywgJy1waCcsICc3LjAnLCAnLXRuJywgJzgnLCAnLW1hJywgJzIwMCcsICctbWV0YWxfYmluZGluZycsICctaW1hZScsICc8aW5maWxlLm1hZT4nLCAnLW9tYWUnLCAnPG91dGZpbGUubWFlPic=

> <r_lp_tautomer_probability>
0.839158

> <r_epik_Ionization_Penalty>
6.63797

> <r_epik_Ionization_Penalty_Charging>
7.48558e-08

> <r_epik_Ionization_Penalty_Neutral>
6.63797

> <r_epik_State_Penalty>
4.49496

> <r_epik_Charging_Adjusted_Penalty>
4.49496

> <i_epik_Tot_Q>
-1

> <i_epik_Tot_abs_Q>
1

> <r_epik_Metal_State_Penalty>
0.841241

> <b_epik_Metal_Only>
1

> <s_lp_Force_Field>
OPLS_2005

> <r_lp_Energy>
55.5119

> <b_lp_Chiralities_Consistent>
1

> <s_lp_Variant>
AV-unprocessed.smi:2124-24

> <Gold.Version>
5.8.1

> <Gold.Id.Protein>
6NUR|6NUR_protein|mol2

> <Gold.PLP.Fitness>
45.5425

> <Gold.PLP.PLP>
-41.6232

> <Gold.PLP.part.hbond>
-2.6620

> <Gold.PLP.part.metal>
0.0000

> <Gold.PLP.part.buried>
-7.5740

> <Gold.PLP.part.nonpolar>
-32.0137

> <Gold.PLP.part.repulsive>
0.2585

> <Gold.PLP.ligand.clash>
0.0000

> <Gold.PLP.ligand.torsion>
0.9265

> <Gold.PLP.Chemscore.Hbond>
1.9175

> <Gold.PLP.Chemscore.CHOScore>
0.0000

> <Gold.PLP.Chemscore.Metal>
0.0000

> <Gold.Chemscore.Hbonds>
donor molecule, donor type, donor heavy atom, donor atom, acceptor molecule, acceptor atom, score
      L1  H    10    31       P1  8028  1.00
      P1  H  6934  6946       L1    21  0.87

> <Gold.PLP.Chemscore.Internal.Correction>
0.0199

> <Gold.Rescore>
     Score         DG    S(hbond)    S(metal)    S(lipo)     H(rot)  DE(clash)    DE(int)     intcor
     18.04     -20.09       1.71        0.00     111.28       1.61       0.11       1.95       ----

> <Gold.Chemscore.Fitness>
18.0350

> <Gold.Chemscore.DG>
-20.0929

> <Gold.Chemscore.ZeroCoef>
-5.4800

> <Gold.Chemscore.Hbond>
1.7074

> <Gold.Chemscore.Metal>
0.0000

> <Gold.Chemscore.Lipo>
111.2758

> <Gold.Chemscore.Internal_Hbond>
0.0000

> <Gold.Chemscore.DEClash>
0.1113

> <Gold.Chemscore.DEInternal>
1.9465

> <Gold.Chemscore.Rot>
1.6051

> <Gold.Chemscore.Internal.Correction>
   9.000000E+99

> <Gold.Chemscore.Hbonds>
donor molecule, donor type, donor heavy atom, donor atom, acceptor molecule, acceptor atom, score
      L1  H    10    31       P1  8028  0.85
      P1  H  6934  6946       L1    21  0.81

> <Gold.Chemscore.Hbond.Weighted>
-5.7026

> <Gold.Chemscore.Metal.Weighted>
-0.0000

> <Gold.Chemscore.Lipo.Weighted>
-13.0193

> <Gold.Chemscore.Internal_Hbond.Weighted>
0.0000

> <Gold.Chemscore.DEClash.Weighted>
0.1113

> <Gold.Chemscore.DEInternal.Weighted>
1.9465

> <Gold.Chemscore.Rot.Weighted>
4.1090

> <Gold.Chemscore.Internal.Correction.Weighted>
   9.000000E+99

> <Gold.Protein.RotatedTorsions>
[ 6907 6896 6895 6894 ] final  -52.43 input  -60.11 | X-H torsion
[ 7974 7965 7964 7962 ] final   42.64 input  175.53 | X-H torsion
[ 8008 7997 7996 7995 ] final  175.20 input   59.86 | X-H torsion
[ 10167 10162 10161 10158 ] final  -25.05 input  -65.29 | X-H torsion
[ 10718 10713 10712 10709 ] final -171.85 input   66.30 | X-H torsion
[ 10763 10752 10751 10750 ] final -106.40 input  -60.55 | X-H torsion
[ 11005 11000 10999 10996 ] final   69.51 input  -57.11 | X-H torsion

> <Gold.Protein.ActiveResidues>
 VAL166  LYS551  ARG553  GLY616  TRP617  ASP618  TYR619  PRO620  LYS621  CYS622 
 ASP623  PHE694  ASN695  SER759  ASP760  ASP761  ALA762  ILE779  LEU786  VAL792 
 PHE793  MET794  SER795  GLU796  ALA797  LYS798  CYS799  TRP800  GLU811  SER814 

> <Gold.Protein.RotatedAtoms>
  150.8518  134.7845  159.7014 H   0  0  0  0  0  0  0  0  0  0  0  0  # atno 6907 bound_to 6896
  152.4581  134.5243  159.9802 H   0  0  0  0  0  0  0  0  0  0  0  0  # atno 6908 bound_to 6896
  151.5363  133.3402  159.2963 H   0  0  0  0  0  0  0  0  0  0  0  0  # atno 6909 bound_to 6896
  146.0723  139.5277  142.9590 H   0  0  0  0  0  0  0  0  0  0  0  0  # atno 7974 bound_to 7965
  156.0895  140.1415  156.9610 H   0  0  0  0  0  0  0  0  0  0  0  0  # atno 8008 bound_to 7997
  154.4633  140.0935  156.7000 H   0  0  0  0  0  0  0  0  0  0  0  0  # atno 8009 bound_to 7997
  155.4943  140.3449  155.4362 H   0  0  0  0  0  0  0  0  0  0  0  0  # atno 8010 bound_to 7997
  140.7287  143.4299  151.0818 H   0  0  0  0  0  0  0  0  0  0  0  0  # atno 10167 bound_to 10162
  156.7469  130.9363  151.3113 H   0  0  0  0  0  0  0  0  0  0  0  0  # atno 10718 bound_to 10713
  154.8010  135.4713  154.0275 H   0  0  0  0  0  0  0  0  0  0  0  0  # atno 10763 bound_to 10752
  153.1781  135.6836  153.8523 H   0  0  0  0  0  0  0  0  0  0  0  0  # atno 10764 bound_to 10752
  153.8082  135.3220  155.3375 H   0  0  0  0  0  0  0  0  0  0  0  0  # atno 10765 bound_to 10752
  139.9649  134.6997  156.0566 H   0  0  0  0  0  0  0  0  0  0  0  0  # atno 11005 bound_to 11000
  145.6369  141.0292  143.1833 LP  0  0  0  0  0  0  0  0  0  0  0  0  # atno 17320 bound_to 7965
  144.7239  139.7938  143.7372 LP  0  0  0  0  0  0  0  0  0  0  0  0  # atno 17321 bound_to 7965
  139.7955  143.8158  152.3157 LP  0  0  0  0  0  0  0  0  0  0  0  0  # atno 17342 bound_to 10162
  139.8157  144.7317  150.9639 LP  0  0  0  0  0  0  0  0  0  0  0  0  # atno 17343 bound_to 10162
  157.6794  130.9125  150.0230 LP  0  0  0  0  0  0  0  0  0  0  0  0  # atno 17370 bound_to 10713
  156.1427  130.3642  149.9557 LP  0  0  0  0  0  0  0  0  0  0  0  0  # atno 17371 bound_to 10713
  141.1329  133.6582  156.3512 LP  0  0  0  0  0  0  0  0  0  0  0  0  # atno 17394 bound_to 11000
  140.5418  134.6113  157.5382 LP  0  0  0  0  0  0  0  0  0  0  0  0  # atno 17395 bound_to 11000

$$$$
