AV-unprocessed.smi:1517|AV-procd|sdf|6121|dock10
  -GOLD-   22720 6253D 1   1.00000     0.00000
 Structure written by MMmdl.
 42 44  0  0  0  0  0  0  0  0  2 V2000
  151.7219  136.9097  153.9161 O   0  0  0  0  0  0  0  0  0  0  0  0
  151.5239  137.5646  155.1508 C   0  0  0  0  0  0  0  0  0  0  0  0
  152.4903  138.7496  155.2755 C   0  0  0  0  0  0  0  0  0  0  0  0
  151.9043  139.8412  156.0365 N   0  0  0  0  0  0  0  0  0  0  0  0
  150.6875  140.3870  155.6152 C   0  0  0  0  0  0  0  0  0  0  0  0
  150.0677  140.1394  154.4302 N   0  3  0  0  0  0  0  0  0  0  0  0
  148.8775  140.8721  154.3948 C   0  0  0  0  0  0  0  0  0  0  0  0
  147.8941  140.9611  153.4143 C   0  0  0  0  0  0  0  0  0  0  0  0
  146.7967  141.8026  153.6920 C   0  0  0  0  0  0  0  0  0  0  0  0
  146.7042  142.5150  154.9056 C   0  0  0  0  0  0  0  0  0  0  0  0
  147.7052  142.4189  155.8945 C   0  0  0  0  0  0  0  0  0  0  0  0
  148.7888  141.5876  155.6133 C   0  0  0  0  0  0  0  0  0  0  0  0
  149.9386  141.2575  156.3407 N   0  0  0  0  0  0  0  0  0  0  0  0
  150.1498  141.8401  157.6740 C   0  0  0  0  0  0  0  0  0  0  0  0
  151.4269  142.6988  157.7543 C   0  0  1  0  0  0  0  0  0  0  0  0
  151.1656  143.9915  157.2399 O   0  0  0  0  0  0  0  0  0  0  0  0
  151.9780  142.7301  159.1735 C   0  0  0  0  0  0  0  0  0  0  0  0
  151.8525  143.8915  159.9691 C   0  0  0  0  0  0  0  0  0  0  0  0
  152.3572  143.9119  161.2835 C   0  0  0  0  0  0  0  0  0  0  0  0
  152.9860  142.7701  161.8145 C   0  0  0  0  0  0  0  0  0  0  0  0
  153.4709  142.7892  163.0786 F   0  0  0  0  0  0  0  0  0  0  0  0
  153.1065  141.6065  161.0313 C   0  0  0  0  0  0  0  0  0  0  0  0
  152.6026  141.5840  159.7160 C   0  0  0  0  0  0  0  0  0  0  0  0
  152.7174  140.4526  158.9789 F   0  0  0  0  0  0  0  0  0  0  0  0
  151.3072  137.4183  153.2357 H   0  0  0  0  0  0  0  0  0  0  0  0
  150.4839  137.8753  155.2583 H   0  0  0  0  0  0  0  0  0  0  0  0
  151.7266  136.8418  155.9415 H   0  0  0  0  0  0  0  0  0  0  0  0
  153.3857  138.4219  155.8052 H   0  0  0  0  0  0  0  0  0  0  0  0
  152.8105  139.0942  154.2912 H   0  0  0  0  0  0  0  0  0  0  0  0
  152.2428  140.0268  156.9701 H   0  0  0  0  0  0  0  0  0  0  0  0
  147.9602  140.4158  152.4840 H   0  0  0  0  0  0  0  0  0  0  0  0
  146.0089  141.9031  152.9594 H   0  0  0  0  0  0  0  0  0  0  0  0
  145.8471  143.1485  155.0821 H   0  0  0  0  0  0  0  0  0  0  0  0
  147.6237  142.9675  156.8216 H   0  0  0  0  0  0  0  0  0  0  0  0
  149.2718  142.4391  157.9197 H   0  0  0  0  0  0  0  0  0  0  0  0
  150.1792  141.0282  158.4017 H   0  0  0  0  0  0  0  0  0  0  0  0
  152.1865  142.2657  157.1029 H   0  0  0  0  0  0  0  0  0  0  0  0
  150.4653  143.9271  156.6081 H   0  0  0  0  0  0  0  0  0  0  0  0
  151.3655  144.7725  159.5772 H   0  0  0  0  0  0  0  0  0  0  0  0
  152.2598  144.8037  161.8851 H   0  0  0  0  0  0  0  0  0  0  0  0
  153.5844  140.7286  161.4407 H   0  0  0  0  0  0  0  0  0  0  0  0
  150.4258  139.5224  153.7130 H   0  0  0  0  0  0  0  0  0  0  0  0
  1  2  1  0  0  0  0
  1 25  1  0  0  0  0
  2  3  1  0  0  0  0
  2 26  1  0  0  0  0
  2 27  1  0  0  0  0
  3  4  1  0  0  0  0
  3 28  1  0  0  0  0
  3 29  1  0  0  0  0
  4  5  1  0  0  0  0
  4 30  1  0  0  0  0
  5 13  1  0  0  0  0
  5  6  2  0  0  0  0
  6  7  1  0  0  0  0
  6 42  1  0  0  0  0
  7 12  2  0  0  0  0
  7  8  1  0  0  0  0
  8  9  2  0  0  0  0
  8 31  1  0  0  0  0
  9 10  1  0  0  0  0
  9 32  1  0  0  0  0
 10 11  2  0  0  0  0
 10 33  1  0  0  0  0
 11 12  1  0  0  0  0
 11 34  1  0  0  0  0
 12 13  1  0  0  0  0
 13 14  1  0  0  0  0
 14 15  1  0  0  0  0
 14 35  1  0  0  0  0
 14 36  1  0  0  0  0
 15 16  1  0  0  0  0
 15 17  1  0  0  0  0
 15 37  1  0  0  0  0
 16 38  1  0  0  0  0
 17 23  1  0  0  0  0
 17 18  2  0  0  0  0
 18 19  1  0  0  0  0
 18 39  1  0  0  0  0
 19 20  2  0  0  0  0
 19 40  1  0  0  0  0
 20 21  1  0  0  0  0
 20 22  1  0  0  0  0
 22 23  2  0  0  0  0
 22 41  1  0  0  0  0
 23 24  1  0  0  0  0
M  CHG  1   6   1
M  END
> <s_m_source_file>
AV-unprocessed.smi

> <i_m_source_file_index>
1517

> <i_lp_mmshare_version>
43012

> <i_f3d_flags>
0

> <s_epik_input>
W09IXVtDSDJdW0NIMl1bTkhdYyhuMSluKGMoYzEyKVtjSF1bY0hdW2NIXVtjSF0yKVtDSDJdW0NASF0oW09IXSljM1tjSF1bY0hdYyhGKVtjSF1jM0Y=

> <s_epik_cmdline>
J2VwaWtfcHl0aG9uJywgJy1waCcsICc3LjAnLCAnLXRuJywgJzgnLCAnLW1hJywgJzIwMCcsICctbWV0YWxfYmluZGluZycsICctaW1hZScsICc8aW5maWxlLm1hZT4nLCAnLW9tYWUnLCAnPG91dGZpbGUubWFlPic=

> <r_epik_Ionization_Penalty>
0.0688096

> <r_epik_Ionization_Penalty_Charging>
0.0688055

> <r_epik_Ionization_Penalty_Neutral>
4.12262e-06

> <r_epik_State_Penalty>
0.0602293

> <r_epik_Charging_Adjusted_Penalty>
0.129035

> <i_epik_Tot_Q>
1

> <i_epik_Tot_abs_Q>
1

> <r_epik_Metal_State_Penalty>
2.77411

> <b_epik_Metal_Only>
0

> <s_lp_Force_Field>
OPLS_2005

> <r_lp_Energy>
23.6459

> <b_lp_Chiralities_Consistent>
1

> <s_lp_Variant>
AV-unprocessed.smi:1517-2

> <Gold.Version>
5.8.1

> <Gold.Id.Protein>
6NUR|6NUR_protein|mol2

> <Gold.PLP.Fitness>
60.8164

> <Gold.PLP.PLP>
-56.5032

> <Gold.PLP.part.hbond>
-3.0450

> <Gold.PLP.part.metal>
0.0000

> <Gold.PLP.part.buried>
-4.7602

> <Gold.PLP.part.nonpolar>
-50.0844

> <Gold.PLP.part.repulsive>
1.9606

> <Gold.PLP.ligand.clash>
0.0000

> <Gold.PLP.ligand.torsion>
0.8465

> <Gold.PLP.Chemscore.Hbond>
1.9817

> <Gold.PLP.Chemscore.CHOScore>
0.0000

> <Gold.PLP.Chemscore.Metal>
0.0000

> <Gold.Chemscore.Hbonds>
donor molecule, donor type, donor heavy atom, donor atom, acceptor molecule, acceptor atom, score
      L1  H     1    25       P1  7949  0.03
      L1  H    16    38       P1  8028  0.99
      P1  H 10752 10763       L1     1  1.00

> <Gold.PLP.Chemscore.Internal.Correction>
0.0610

> <Gold.Rescore>
     Score         DG    S(hbond)    S(metal)    S(lipo)     H(rot)  DE(clash)    DE(int)     intcor
     15.38     -17.80       1.86        0.00     124.02       3.29       0.11       2.31       ----

> <Gold.Chemscore.Fitness>
15.3788

> <Gold.Chemscore.DG>
-17.7975

> <Gold.Chemscore.ZeroCoef>
-5.4800

> <Gold.Chemscore.Hbond>
1.8632

> <Gold.Chemscore.Metal>
0.0000

> <Gold.Chemscore.Lipo>
124.0193

> <Gold.Chemscore.Internal_Hbond>
0.0000

> <Gold.Chemscore.DEClash>
0.1094

> <Gold.Chemscore.DEInternal>
2.3093

> <Gold.Chemscore.Rot>
3.2874

> <Gold.Chemscore.Internal.Correction>
   9.000000E+99

> <Gold.Chemscore.Hbonds>
donor molecule, donor type, donor heavy atom, donor atom, acceptor molecule, acceptor atom, score
      L1  H     1    25       P1  7949  0.03
      L1  H    16    38       P1  8028  0.92
      P1  H 10752 10763       L1     1  0.65

> <Gold.Chemscore.Hbond.Weighted>
-6.2230

> <Gold.Chemscore.Metal.Weighted>
-0.0000

> <Gold.Chemscore.Lipo.Weighted>
-14.5103

> <Gold.Chemscore.Internal_Hbond.Weighted>
0.0000

> <Gold.Chemscore.DEClash.Weighted>
0.1094

> <Gold.Chemscore.DEInternal.Weighted>
2.3093

> <Gold.Chemscore.Rot.Weighted>
8.4158

> <Gold.Chemscore.Internal.Correction.Weighted>
   9.000000E+99

> <Gold.Protein.RotatedTorsions>
[ 6907 6896 6895 6894 ] final   97.73 input  -60.11 | X-H torsion
[ 7974 7965 7964 7962 ] final  -75.55 input  175.53 | X-H torsion
[ 8008 7997 7996 7995 ] final   89.20 input   59.86 | X-H torsion
[ 10167 10162 10161 10158 ] final -163.84 input  -65.29 | X-H torsion
[ 10718 10713 10712 10709 ] final   19.36 input   66.30 | X-H torsion
[ 10763 10752 10751 10750 ] final   33.26 input  -60.55 | X-H torsion
[ 11005 11000 10999 10996 ] final   15.53 input  -57.11 | X-H torsion

> <Gold.Protein.ActiveResidues>
 VAL166  LYS551  ARG553  GLY616  TRP617  ASP618  TYR619  PRO620  LYS621  CYS622 
 ASP623  PHE694  ASN695  SER759  ASP760  ASP761  ALA762  ILE779  LEU786  VAL792 
 PHE793  MET794  SER795  GLU796  ALA797  LYS798  CYS799  TRP800  GLU811  SER814 

> <Gold.Protein.RotatedAtoms>
  152.5419  134.0688  159.8184 H   0  0  0  0  0  0  0  0  0  0  0  0  # atno 6907 bound_to 6896
  151.0805  133.5386  159.2628 H   0  0  0  0  0  0  0  0  0  0  0  0  # atno 6908 bound_to 6896
  151.2215  135.0529  159.9005 H   0  0  0  0  0  0  0  0  0  0  0  0  # atno 6909 bound_to 6896
  145.6245  140.9354  143.1120 H   0  0  0  0  0  0  0  0  0  0  0  0  # atno 7974 bound_to 7965
  155.9970  140.3363  155.6808 H   0  0  0  0  0  0  0  0  0  0  0  0  # atno 8008 bound_to 7997
  155.6342  140.0688  157.2657 H   0  0  0  0  0  0  0  0  0  0  0  0  # atno 8009 bound_to 7997
  154.4237  140.1754  156.1492 H   0  0  0  0  0  0  0  0  0  0  0  0  # atno 8010 bound_to 7997
  139.6292  144.0472  152.2001 H   0  0  0  0  0  0  0  0  0  0  0  0  # atno 10167 bound_to 10162
  157.1094  130.6502  149.5893 H   0  0  0  0  0  0  0  0  0  0  0  0  # atno 10718 bound_to 10713
  153.0221  135.6392  154.1483 H   0  0  0  0  0  0  0  0  0  0  0  0  # atno 10763 bound_to 10752
  154.1217  135.2846  155.3208 H   0  0  0  0  0  0  0  0  0  0  0  0  # atno 10764 bound_to 10752
  154.6259  135.5509  153.7688 H   0  0  0  0  0  0  0  0  0  0  0  0  # atno 10765 bound_to 10752
  140.4573  134.1163  155.7711 H   0  0  0  0  0  0  0  0  0  0  0  0  # atno 11005 bound_to 11000
  144.7218  139.8006  143.7379 LP  0  0  0  0  0  0  0  0  0  0  0  0  # atno 17320 bound_to 7965
  146.1405  139.4461  143.0112 LP  0  0  0  0  0  0  0  0  0  0  0  0  # atno 17321 bound_to 7965
  140.0133  144.6207  150.7628 LP  0  0  0  0  0  0  0  0  0  0  0  0  # atno 17342 bound_to 10162
  140.7429  143.2839  151.3520 LP  0  0  0  0  0  0  0  0  0  0  0  0  # atno 17343 bound_to 10162
  155.9854  130.4884  150.7030 LP  0  0  0  0  0  0  0  0  0  0  0  0  # atno 17370 bound_to 10713
  157.4573  131.0879  151.0783 LP  0  0  0  0  0  0  0  0  0  0  0  0  # atno 17371 bound_to 10713
  141.1637  133.8744  157.1775 LP  0  0  0  0  0  0  0  0  0  0  0  0  # atno 17394 bound_to 11000
  139.9968  135.0043  157.0100 LP  0  0  0  0  0  0  0  0  0  0  0  0  # atno 17395 bound_to 11000

$$$$
