AV-unprocessed.smi:55|AV-procd|sdf|566|dock2
  -GOLD-   2262016473D 1   1.00000     0.00000
 Structure written by MMmdl.
 31 32  0  0  0  0  0  0  0  0  1 V2000
  150.9863  145.0388  158.9389 C   0  0  0  0  0  0  0  0  0  0  0  0
  151.4585  143.6230  158.6530 C   0  0  0  0  0  0  0  0  0  0  0  0
  151.0784  142.9401  157.5433 C   0  0  0  0  0  0  0  0  0  0  0  0
  151.4945  141.6493  157.2513 N   0  0  0  0  0  0  0  0  0  0  0  0
  151.0325  140.9698  155.9840 C   0  0  1  0  0  0  0  0  0  0  0  0
  150.4531  139.5789  156.2765 C   0  0  0  0  0  0  0  0  0  0  0  0
  149.0281  139.6779  155.7513 C   0  0  1  0  0  0  0  0  0  0  0  0
  148.1171  139.8699  156.8179 O   0  0  0  0  0  0  0  0  0  0  0  0
  149.0766  140.8856  154.8023 C   0  0  1  0  0  0  0  0  0  0  0  0
  147.7365  141.6074  154.5750 C   0  0  0  0  0  0  0  0  0  0  0  0
  147.9632  142.8943  154.0411 O   0  0  0  0  0  0  0  0  0  0  0  0
  150.0244  141.7467  155.4184 O   0  0  0  0  0  0  0  0  0  0  0  0
  152.3671  140.9860  158.1393 C   0  0  0  0  0  0  0  0  0  0  0  0
  152.7758  139.8404  157.9545 O   0  0  0  0  0  0  0  0  0  0  0  0
  152.7578  141.6866  159.2794 N   0  0  0  0  0  0  0  0  0  0  0  0
  152.3613  142.9838  159.6143 C   0  0  0  0  0  0  0  0  0  0  0  0
  152.7739  143.4955  160.6540 O   0  0  0  0  0  0  0  0  0  0  0  0
  151.8687  140.9352  155.2844 H   0  0  0  0  0  0  0  0  0  0  0  0
  148.7353  138.7711  155.2213 H   0  0  0  0  0  0  0  0  0  0  0  0
  149.4892  140.5499  153.8486 H   0  0  0  0  0  0  0  0  0  0  0  0
  153.3796  141.2150  159.9200 H   0  0  0  0  0  0  0  0  0  0  0  0
  150.3033  145.3998  158.1694 H   0  0  0  0  0  0  0  0  0  0  0  0
  151.8353  145.7220  158.9800 H   0  0  0  0  0  0  0  0  0  0  0  0
  150.4646  145.0824  159.8956 H   0  0  0  0  0  0  0  0  0  0  0  0
  150.4155  143.4295  156.8448 H   0  0  0  0  0  0  0  0  0  0  0  0
  151.0276  138.8423  155.7138 H   0  0  0  0  0  0  0  0  0  0  0  0
  150.5111  139.3231  157.3360 H   0  0  0  0  0  0  0  0  0  0  0  0
  148.1237  139.0977  157.3626 H   0  0  0  0  0  0  0  0  0  0  0  0
  147.1322  141.0585  153.8522 H   0  0  0  0  0  0  0  0  0  0  0  0
  147.1600  141.6764  155.4982 H   0  0  0  0  0  0  0  0  0  0  0  0
  148.1015  143.4968  154.7558 H   0  0  0  0  0  0  0  0  0  0  0  0
  1  2  1  0  0  0  0
  1 22  1  0  0  0  0
  1 23  1  0  0  0  0
  1 24  1  0  0  0  0
  2 16  1  0  0  0  0
  2  3  2  0  0  0  0
  3  4  1  0  0  0  0
  3 25  1  0  0  0  0
  4  5  1  0  0  0  0
  4 13  1  0  0  0  0
  5 18  1  0  0  0  0
  5 12  1  0  0  0  0
  5  6  1  0  0  0  0
  6  7  1  0  0  0  0
  6 26  1  0  0  0  0
  6 27  1  0  0  0  0
  7 19  1  0  0  0  0
  7  8  1  0  0  0  0
  7  9  1  0  0  0  0
  8 28  1  0  0  0  0
  9 20  1  0  0  0  0
  9 10  1  0  0  0  0
  9 12  1  0  0  0  0
 10 11  1  0  0  0  0
 10 29  1  0  0  0  0
 10 30  1  0  0  0  0
 11 31  1  0  0  0  0
 13 14  2  0  0  0  0
 13 15  1  0  0  0  0
 15 21  1  0  0  0  0
 15 16  1  0  0  0  0
 16 17  2  0  0  0  0
M  END
> <s_m_source_file>
AV-unprocessed.smi

> <i_m_source_file_index>
55

> <i_lp_mmshare_version>
43012

> <i_f3d_flags>
0

> <s_epik_input>
Tz1jMVtuSF1jKD1PKW4oW2NIXWMxW0NIM10pW0NAQEhdMltDSDJdW0NAQEhdKFtPSF0pW0NAQEhdKE8yKVtDSDJdW09IXQ==

> <s_epik_cmdline>
J2VwaWtfcHl0aG9uJywgJy1waCcsICc3LjAnLCAnLXRuJywgJzgnLCAnLW1hJywgJzIwMCcsICctbWV0YWxfYmluZGluZycsICctaW1hZScsICc8aW5maWxlLm1hZT4nLCAnLW9tYWUnLCAnPG91dGZpbGUubWFlPic=

> <r_lp_tautomer_probability>
0.999537

> <r_epik_Ionization_Penalty>
0.00121888

> <r_epik_Ionization_Penalty_Charging>
0.00121876

> <r_epik_Ionization_Penalty_Neutral>
1.19946e-07

> <r_epik_State_Penalty>
0.000805124

> <r_epik_Charging_Adjusted_Penalty>
0.00202389

> <i_epik_Tot_Q>
0

> <i_epik_Tot_abs_Q>
0

> <r_epik_Metal_State_Penalty>
0.662472

> <b_epik_Metal_Only>
0

> <s_epik_Chemistry_Notes>
This compound contains an acetal/aminal-like group ( X-CH(R)-Y where X, Y are N, S, or O) that may be acid/base labile, releasing an aldehyde.

> <s_lp_Force_Field>
OPLS_2005

> <r_lp_Energy>
28.3693

> <b_lp_Chiralities_Consistent>
1

> <s_lp_Variant>
AV-unprocessed.smi:55-6

> <Gold.Version>
5.8.1

> <Gold.Id.Protein>
6NUR|6NUR_protein|mol2

> <Gold.PLP.Fitness>
38.5259

> <Gold.PLP.PLP>
-30.1113

> <Gold.PLP.part.hbond>
-4.1719

> <Gold.PLP.part.metal>
0.0000

> <Gold.PLP.part.buried>
-4.1743

> <Gold.PLP.part.nonpolar>
-21.9138

> <Gold.PLP.part.repulsive>
0.2489

> <Gold.PLP.ligand.clash>
0.0000

> <Gold.PLP.ligand.torsion>
0.2954

> <Gold.PLP.Chemscore.Hbond>
2.0000

> <Gold.PLP.Chemscore.CHOScore>
1.0000

> <Gold.PLP.Chemscore.Metal>
0.0000

> <Gold.Chemscore.Hbonds>
donor molecule, donor type, donor heavy atom, donor atom, acceptor molecule, acceptor atom, score
      L1  H    11    31       P1  8028  1.00
      P1  H  7997  8010       L1    14  0.91
      L1  C     3    25       P1  8028  1.00

> <Gold.PLP.Chemscore.Internal.Correction>
0.0053

> <Gold.Rescore>
     Score         DG    S(hbond)    S(metal)    S(lipo)     H(rot)  DE(clash)    DE(int)     intcor
      8.86     -10.60       1.86        0.00      50.44       2.73       0.47       1.27       ----

> <Gold.Chemscore.Fitness>
8.8621

> <Gold.Chemscore.DG>
-10.6043

> <Gold.Chemscore.ZeroCoef>
-5.4800

> <Gold.Chemscore.Hbond>
1.8562

> <Gold.Chemscore.Metal>
0.0000

> <Gold.Chemscore.Lipo>
50.4403

> <Gold.Chemscore.Internal_Hbond>
0.0000

> <Gold.Chemscore.DEClash>
0.4744

> <Gold.Chemscore.DEInternal>
1.2677

> <Gold.Chemscore.Rot>
2.7253

> <Gold.Chemscore.Internal.Correction>
   9.000000E+99

> <Gold.Chemscore.Hbonds>
donor molecule, donor type, donor heavy atom, donor atom, acceptor molecule, acceptor atom, score
      L1  H    11    31       P1  8028  0.84
      P1  H  7997  8010       L1    14  0.37

> <Gold.Chemscore.Hbond.Weighted>
-6.1997

> <Gold.Chemscore.Metal.Weighted>
-0.0000

> <Gold.Chemscore.Lipo.Weighted>
-5.9015

> <Gold.Chemscore.Internal_Hbond.Weighted>
0.0000

> <Gold.Chemscore.DEClash.Weighted>
0.4744

> <Gold.Chemscore.DEInternal.Weighted>
1.2677

> <Gold.Chemscore.Rot.Weighted>
6.9769

> <Gold.Chemscore.Internal.Correction.Weighted>
   9.000000E+99

> <Gold.Protein.RotatedTorsions>
[ 6907 6896 6895 6894 ] final   21.01 input  -60.11 | X-H torsion
[ 7974 7965 7964 7962 ] final  150.82 input  175.53 | X-H torsion
[ 8008 7997 7996 7995 ] final   58.68 input   59.86 | X-H torsion
[ 10167 10162 10161 10158 ] final  -18.90 input  -65.29 | X-H torsion
[ 10718 10713 10712 10709 ] final    2.97 input   66.30 | X-H torsion
[ 10763 10752 10751 10750 ] final  -55.65 input  -60.55 | X-H torsion
[ 11005 11000 10999 10996 ] final  -91.13 input  -57.11 | X-H torsion

> <Gold.Protein.ActiveResidues>
 VAL166  LYS551  ARG553  GLY616  TRP617  ASP618  TYR619  PRO620  LYS621  CYS622 
 ASP623  PHE694  ASN695  SER759  ASP760  ASP761  ALA762  ILE779  LEU786  VAL792 
 PHE793  MET794  SER795  GLU796  ALA797  LYS798  CYS799  TRP800  GLU811  SER814 

> <Gold.Protein.RotatedAtoms>
  151.9052  135.0362  160.0509 H   0  0  0  0  0  0  0  0  0  0  0  0  # atno 6907 bound_to 6896
  152.2325  133.5065  159.5232 H   0  0  0  0  0  0  0  0  0  0  0  0  # atno 6908 bound_to 6896
  150.7029  134.1114  159.4044 H   0  0  0  0  0  0  0  0  0  0  0  0  # atno 6909 bound_to 6896
  144.8337  139.6457  143.6047 H   0  0  0  0  0  0  0  0  0  0  0  0  # atno 7974 bound_to 7965
  155.5539  140.3487  155.4475 H   0  0  0  0  0  0  0  0  0  0  0  0  # atno 8008 bound_to 7997
  156.0563  140.1329  157.0019 H   0  0  0  0  0  0  0  0  0  0  0  0  # atno 8009 bound_to 7997
  154.4458  140.0994  156.6435 H   0  0  0  0  0  0  0  0  0  0  0  0  # atno 8010 bound_to 7997
  140.7263  143.4871  151.0040 H   0  0  0  0  0  0  0  0  0  0  0  0  # atno 10167 bound_to 10162
  156.8709  130.5620  149.5657 H   0  0  0  0  0  0  0  0  0  0  0  0  # atno 10718 bound_to 10713
  154.1941  135.6422  153.5068 H   0  0  0  0  0  0  0  0  0  0  0  0  # atno 10763 bound_to 10752
  153.0028  135.5435  154.6384 H   0  0  0  0  0  0  0  0  0  0  0  0  # atno 10764 bound_to 10752
  154.5780  135.2922  155.0734 H   0  0  0  0  0  0  0  0  0  0  0  0  # atno 10765 bound_to 10752
  141.1551  133.7736  156.9835 H   0  0  0  0  0  0  0  0  0  0  0  0  # atno 11005 bound_to 11000
  146.2637  139.6470  142.9344 LP  0  0  0  0  0  0  0  0  0  0  0  0  # atno 17320 bound_to 7965
  145.4841  141.0438  143.2629 LP  0  0  0  0  0  0  0  0  0  0  0  0  # atno 17321 bound_to 7965
  139.8573  143.7360  152.3175 LP  0  0  0  0  0  0  0  0  0  0  0  0  # atno 17342 bound_to 10162
  139.7563  144.7520  151.0431 LP  0  0  0  0  0  0  0  0  0  0  0  0  # atno 17343 bound_to 10162
  156.0727  130.5756  150.9414 LP  0  0  0  0  0  0  0  0  0  0  0  0  # atno 17370 bound_to 10713
  157.6196  131.0930  150.8647 LP  0  0  0  0  0  0  0  0  0  0  0  0  # atno 17371 bound_to 10713
  140.1050  134.9512  157.1980 LP  0  0  0  0  0  0  0  0  0  0  0  0  # atno 17394 bound_to 11000
  140.3268  134.2854  155.7235 LP  0  0  0  0  0  0  0  0  0  0  0  0  # atno 17395 bound_to 11000

$$$$
