AV-unprocessed.smi:1839|AV-procd|sdf|7485|dock8
  -GOLD-   22720 9183D 1   1.00000     0.00000
 Structure written by MMmdl.
 46 47  0  0  0  0  0  0  0  0  1 V2000
  143.4753  132.2567  150.3141 C   0  0  0  0  0  0  0  0  0  0  0  0
  144.7677  132.3404  150.9947 N   0  0  0  0  0  0  0  0  0  0  0  0
  145.9026  131.8796  150.1857 C   0  0  0  0  0  0  0  0  0  0  0  0
  144.8950  133.0620  152.1364 C   0  0  0  0  0  0  0  0  0  0  0  0
  144.0806  133.9309  152.4543 O   0  0  0  0  0  0  0  0  0  0  0  0
  145.9906  132.7997  152.8883 N   0  0  0  0  0  0  0  0  0  0  0  0
  146.5043  131.4382  153.0962 C   0  0  0  0  0  0  0  0  0  0  0  0
  148.0413  131.4521  153.0326 C   0  0  0  0  0  0  0  0  0  0  0  0
  148.6216  132.4497  154.0494 C   0  0  0  0  0  0  0  0  0  0  0  0
  147.9700  133.8434  153.9064 C   0  0  2  0  0  0  0  0  0  0  0  0
  148.4683  134.8034  154.9947 C   0  0  0  0  0  0  0  0  0  0  0  0
  148.2912  134.5398  156.1845 O   0  0  0  0  0  0  0  0  0  0  0  0
  149.0867  135.9173  154.5731 N   0  0  0  0  0  0  0  0  0  0  0  0
  149.6238  136.9574  155.4427 C   0  0  0  0  0  0  0  0  0  0  0  0
  150.3429  138.0548  154.6399 C   0  0  0  0  0  0  0  0  0  0  0  0
  149.4715  139.2797  154.4373 C   0  0  0  0  0  0  0  0  0  0  0  0
  148.1679  139.1561  153.9107 C   0  0  0  0  0  0  0  0  0  0  0  0
  147.3949  140.3224  153.7517 C   0  0  0  0  0  0  0  0  0  0  0  0
  147.9518  141.5612  154.1240 C   0  0  0  0  0  0  0  0  0  0  0  0
  149.2619  141.5779  154.6428 C   0  0  0  0  0  0  0  0  0  0  0  0
  150.0115  140.4654  154.8002 N   0  0  0  0  0  0  0  0  0  0  0  0
  146.4302  133.7193  153.9441 C   0  0  0  0  0  0  0  0  0  0  0  0
  142.6543  132.1489  151.0247 H   0  0  0  0  0  0  0  0  0  0  0  0
  143.4358  131.3945  149.6472 H   0  0  0  0  0  0  0  0  0  0  0  0
  143.2985  133.1544  149.7203 H   0  0  0  0  0  0  0  0  0  0  0  0
  146.7995  132.4780  150.3529 H   0  0  0  0  0  0  0  0  0  0  0  0
  145.6796  131.9460  149.1200 H   0  0  0  0  0  0  0  0  0  0  0  0
  146.1352  130.8384  150.4088 H   0  0  0  0  0  0  0  0  0  0  0  0
  146.1765  131.0815  154.0740 H   0  0  0  0  0  0  0  0  0  0  0  0
  146.1061  130.7242  152.3747 H   0  0  0  0  0  0  0  0  0  0  0  0
  148.4333  130.4530  153.2253 H   0  0  0  0  0  0  0  0  0  0  0  0
  148.3665  131.7230  152.0278 H   0  0  0  0  0  0  0  0  0  0  0  0
  148.4556  132.0616  155.0557 H   0  0  0  0  0  0  0  0  0  0  0  0
  149.7023  132.5207  153.9210 H   0  0  0  0  0  0  0  0  0  0  0  0
  148.2521  134.2494  152.9328 H   0  0  0  0  0  0  0  0  0  0  0  0
  149.1901  136.0559  153.5783 H   0  0  0  0  0  0  0  0  0  0  0  0
  148.8238  137.3883  156.0470 H   0  0  0  0  0  0  0  0  0  0  0  0
  150.3197  136.4879  156.1385 H   0  0  0  0  0  0  0  0  0  0  0  0
  151.2598  138.3524  155.1511 H   0  0  0  0  0  0  0  0  0  0  0  0
  150.6478  137.6726  153.6647 H   0  0  0  0  0  0  0  0  0  0  0  0
  147.7682  138.1904  153.6375 H   0  0  0  0  0  0  0  0  0  0  0  0
  146.3929  140.2679  153.3522 H   0  0  0  0  0  0  0  0  0  0  0  0
  147.3885  142.4762  154.0153 H   0  0  0  0  0  0  0  0  0  0  0  0
  149.7197  142.5100  154.9395 H   0  0  0  0  0  0  0  0  0  0  0  0
  145.9881  134.7097  153.8168 H   0  0  0  0  0  0  0  0  0  0  0  0
  146.0885  133.3480  154.9121 H   0  0  0  0  0  0  0  0  0  0  0  0
  1  2  1  0  0  0  0
  1 23  1  0  0  0  0
  1 24  1  0  0  0  0
  1 25  1  0  0  0  0
  2  3  1  0  0  0  0
  2  4  1  0  0  0  0
  3 26  1  0  0  0  0
  3 27  1  0  0  0  0
  3 28  1  0  0  0  0
  4  5  2  0  0  0  0
  4  6  1  0  0  0  0
  6 22  1  0  0  0  0
  6  7  1  0  0  0  0
  7  8  1  0  0  0  0
  7 29  1  0  0  0  0
  7 30  1  0  0  0  0
  8  9  1  0  0  0  0
  8 31  1  0  0  0  0
  8 32  1  0  0  0  0
  9 10  1  0  0  0  0
  9 33  1  0  0  0  0
  9 34  1  0  0  0  0
 10 11  1  0  0  0  0
 10 22  1  0  0  0  0
 10 35  1  0  0  0  0
 11 12  2  0  0  0  0
 11 13  1  0  0  0  0
 13 14  1  0  0  0  0
 13 36  1  0  0  0  0
 14 15  1  0  0  0  0
 14 37  1  0  0  0  0
 14 38  1  0  0  0  0
 15 16  1  0  0  0  0
 15 39  1  0  0  0  0
 15 40  1  0  0  0  0
 16 21  1  0  0  0  0
 16 17  2  0  0  0  0
 17 18  1  0  0  0  0
 17 41  1  0  0  0  0
 18 19  2  0  0  0  0
 18 42  1  0  0  0  0
 19 20  1  0  0  0  0
 19 43  1  0  0  0  0
 20 21  2  0  0  0  0
 20 44  1  0  0  0  0
 22 45  1  0  0  0  0
 22 46  1  0  0  0  0
M  END
> <s_m_source_file>
AV-unprocessed.smi

> <i_m_source_file_index>
1839

> <i_lp_mmshare_version>
43012

> <i_f3d_flags>
0

> <s_epik_input>
W0NIM11OKFtDSDNdKUMoPU8pTjFbQ0gyXVtDSDJdW0NIMl1bQ0BIXShbQ0gyXTEpQyg9TylbTkhdW0NIMl1bQ0gyXWMyW2NIXVtjSF1bY0hdW2NIXW4y

> <s_epik_cmdline>
J2VwaWtfcHl0aG9uJywgJy1waCcsICc3LjAnLCAnLXRuJywgJzgnLCAnLW1hJywgJzIwMCcsICctbWV0YWxfYmluZGluZycsICctaW1hZScsICc8aW5maWxlLm1hZT4nLCAnLW9tYWUnLCAnPG91dGZpbGUubWFlPic=

> <r_epik_Ionization_Penalty>
0.0268631

> <r_epik_Ionization_Penalty_Charging>
0

> <r_epik_Ionization_Penalty_Neutral>
0.0268631

> <r_epik_State_Penalty>
0.0219025

> <r_epik_Charging_Adjusted_Penalty>
0.0219025

> <i_epik_Tot_Q>
0

> <i_epik_Tot_abs_Q>
0

> <r_epik_Metal_State_Penalty>
0.0209511

> <b_epik_Metal_Only>
0

> <s_lp_Force_Field>
OPLS_2005

> <r_lp_Energy>
47.8256

> <b_lp_Chiralities_Consistent>
1

> <s_lp_Variant>
AV-unprocessed.smi:1839-2

> <Gold.Version>
5.8.1

> <Gold.Id.Protein>
6NUR|6NUR_protein|mol2

> <Gold.PLP.Fitness>
43.8865

> <Gold.PLP.PLP>
-35.9580

> <Gold.PLP.part.hbond>
-2.0000

> <Gold.PLP.part.metal>
0.0000

> <Gold.PLP.part.buried>
-0.1138

> <Gold.PLP.part.nonpolar>
-33.2387

> <Gold.PLP.part.repulsive>
0.2387

> <Gold.PLP.ligand.clash>
0.0000

> <Gold.PLP.ligand.torsion>
1.0060

> <Gold.PLP.Chemscore.Hbond>
1.8736

> <Gold.PLP.Chemscore.CHOScore>
1.0000

> <Gold.PLP.Chemscore.Metal>
0.0000

> <Gold.Chemscore.Hbonds>
donor molecule, donor type, donor heavy atom, donor atom, acceptor molecule, acceptor atom, score
      L1  H    13    36       P1  7948  1.00
      P1  H  7989  7998       L1    21  0.74
      L1  C    20    44       P1  8028  1.00

> <Gold.PLP.Chemscore.Internal.Correction>
1.3197

> <Gold.Rescore>
     Score         DG    S(hbond)    S(metal)    S(lipo)     H(rot)  DE(clash)    DE(int)     intcor
     13.81     -15.80       1.14        0.00      88.96       1.52       0.04       1.95       ----

> <Gold.Chemscore.Fitness>
13.8130

> <Gold.Chemscore.DG>
-15.8035

> <Gold.Chemscore.ZeroCoef>
-5.4800

> <Gold.Chemscore.Hbond>
1.1360

> <Gold.Chemscore.Metal>
0.0000

> <Gold.Chemscore.Lipo>
88.9635

> <Gold.Chemscore.Internal_Hbond>
0.0000

> <Gold.Chemscore.DEClash>
0.0369

> <Gold.Chemscore.DEInternal>
1.9536

> <Gold.Chemscore.Rot>
1.5155

> <Gold.Chemscore.Internal.Correction>
   9.000000E+99

> <Gold.Chemscore.Hbonds>
donor molecule, donor type, donor heavy atom, donor atom, acceptor molecule, acceptor atom, score
      L1  H    13    36       P1  7948  0.85
      P1  H  7989  7998       L1    21  0.14

> <Gold.Chemscore.Hbond.Weighted>
-3.7943

> <Gold.Chemscore.Metal.Weighted>
-0.0000

> <Gold.Chemscore.Lipo.Weighted>
-10.4087

> <Gold.Chemscore.Internal_Hbond.Weighted>
0.0000

> <Gold.Chemscore.DEClash.Weighted>
0.0369

> <Gold.Chemscore.DEInternal.Weighted>
1.9536

> <Gold.Chemscore.Rot.Weighted>
3.8796

> <Gold.Chemscore.Internal.Correction.Weighted>
   9.000000E+99

> <Gold.Protein.RotatedTorsions>
[ 6907 6896 6895 6894 ] final -168.56 input  -60.11 | X-H torsion
[ 7974 7965 7964 7962 ] final   -1.91 input  175.53 | X-H torsion
[ 8008 7997 7996 7995 ] final   91.15 input   59.86 | X-H torsion
[ 10167 10162 10161 10158 ] final  138.56 input  -65.29 | X-H torsion
[ 10718 10713 10712 10709 ] final  108.98 input   66.30 | X-H torsion
[ 10763 10752 10751 10750 ] final   -0.17 input  -60.55 | X-H torsion
[ 11005 11000 10999 10996 ] final  169.42 input  -57.11 | X-H torsion

> <Gold.Protein.ActiveResidues>
 VAL166  LYS551  ARG553  GLY616  TRP617  ASP618  TYR619  PRO620  LYS621  CYS622 
 ASP623  PHE694  ASN695  SER759  ASP760  ASP761  ALA762  ILE779  LEU786  VAL792 
 PHE793  MET794  SER795  GLU796  ALA797  LYS798  CYS799  TRP800  GLU811  SER814 

> <Gold.Protein.RotatedAtoms>
  151.4775  133.3554  159.2832 H   0  0  0  0  0  0  0  0  0  0  0  0  # atno 6907 bound_to 6896
  150.8919  134.8326  159.7310 H   0  0  0  0  0  0  0  0  0  0  0  0  # atno 6908 bound_to 6896
  152.4828  134.4686  159.9680 H   0  0  0  0  0  0  0  0  0  0  0  0  # atno 6909 bound_to 6896
  146.2411  140.1491  142.8334 H   0  0  0  0  0  0  0  0  0  0  0  0  # atno 7974 bound_to 7965
  156.0204  140.3341  155.7032 H   0  0  0  0  0  0  0  0  0  0  0  0  # atno 8008 bound_to 7997
  155.6031  140.0657  157.2745 H   0  0  0  0  0  0  0  0  0  0  0  0  # atno 8009 bound_to 7997
  154.4314  140.1807  156.1182 H   0  0  0  0  0  0  0  0  0  0  0  0  # atno 8010 bound_to 7997
  139.5107  144.6346  151.5729 H   0  0  0  0  0  0  0  0  0  0  0  0  # atno 10167 bound_to 10162
  157.6562  131.0904  150.6386 H   0  0  0  0  0  0  0  0  0  0  0  0  # atno 10718 bound_to 10713
  153.3284  135.6973  153.6969 H   0  0  0  0  0  0  0  0  0  0  0  0  # atno 10763 bound_to 10752
  153.5781  135.3503  155.2865 H   0  0  0  0  0  0  0  0  0  0  0  0  # atno 10764 bound_to 10752
  154.8613  135.4288  154.2467 H   0  0  0  0  0  0  0  0  0  0  0  0  # atno 10765 bound_to 10752
  140.2975  134.7622  157.3889 H   0  0  0  0  0  0  0  0  0  0  0  0  # atno 11005 bound_to 11000
  145.0183  140.8772  143.5182 LP  0  0  0  0  0  0  0  0  0  0  0  0  # atno 17320 bound_to 7965
  145.1535  139.2500  143.5428 LP  0  0  0  0  0  0  0  0  0  0  0  0  # atno 17321 bound_to 7965
  140.6091  143.9469  150.6440 LP  0  0  0  0  0  0  0  0  0  0  0  0  # atno 17342 bound_to 10162
  140.2706  143.3458  152.1241 LP  0  0  0  0  0  0  0  0  0  0  0  0  # atno 17343 bound_to 10162
  156.6692  130.4534  149.5662 LP  0  0  0  0  0  0  0  0  0  0  0  0  # atno 17370 bound_to 10713
  156.2010  130.6619  151.1167 LP  0  0  0  0  0  0  0  0  0  0  0  0  # atno 17371 bound_to 10713
  140.1139  134.5309  155.8242 LP  0  0  0  0  0  0  0  0  0  0  0  0  # atno 17394 bound_to 11000
  141.2134  133.6733  156.6740 LP  0  0  0  0  0  0  0  0  0  0  0  0  # atno 17395 bound_to 11000

$$$$
