AV-unprocessed.smi:72|AV-procd|sdf|752|dock2
  -GOLD-   2262017 83D 1   1.00000     0.00000
 Structure written by MMmdl.
 29 30  0  0  0  0  0  0  0  0  1 V2000
  154.0462  138.2015  159.7716 N   0  0  0  0  0  0  0  0  0  0  0  0
  152.8997  138.2669  159.0085 C   0  0  0  0  0  0  0  0  0  0  0  0
  152.9239  139.1523  157.9230 N   0  0  0  0  0  0  0  0  0  0  0  0
  151.8547  139.2060  157.1940 C   0  0  0  0  0  0  0  0  0  0  0  0
  150.7011  138.3648  157.4758 N   0  0  0  0  0  0  0  0  0  0  0  0
  149.4194  138.4220  156.6569 C   0  0  1  0  0  0  0  0  0  0  0  0
  148.8878  139.7133  156.6725 O   0  0  0  0  0  0  0  0  0  0  0  0
  149.3531  140.4349  155.5386 C   0  0  2  0  0  0  0  0  0  0  0  0
  148.4403  141.6414  155.2741 C   0  0  0  0  0  0  0  0  0  0  0  0
  148.8598  142.3159  154.1070 O   0  0  0  0  0  0  0  0  0  0  0  0
  149.3012  139.3706  154.4414 C   0  0  1  0  0  0  0  0  0  0  0  0
  150.2415  139.6646  153.4280 O   0  0  0  0  0  0  0  0  0  0  0  0
  149.6799  138.0827  155.1716 C   0  0  2  0  0  0  0  0  0  0  0  0
  148.8635  137.0168  154.7312 O   0  0  0  0  0  0  0  0  0  0  0  0
  150.7304  137.5297  158.6283 C   0  0  0  0  0  0  0  0  0  0  0  0
  149.7411  136.8642  158.9348 O   0  0  0  0  0  0  0  0  0  0  0  0
  151.9125  137.5029  159.3771 N   0  0  0  0  0  0  0  0  0  0  0  0
  148.7391  137.7363  157.1655 H   0  0  0  0  0  0  0  0  0  0  0  0
  150.3859  140.7533  155.6940 H   0  0  0  0  0  0  0  0  0  0  0  0
  148.2948  139.3070  154.0239 H   0  0  0  0  0  0  0  0  0  0  0  0
  150.7313  137.8328  155.0196 H   0  0  0  0  0  0  0  0  0  0  0  0
  154.1428  137.6021  160.5783 H   0  0  0  0  0  0  0  0  0  0  0  0
  154.8716  138.7513  159.5832 H   0  0  0  0  0  0  0  0  0  0  0  0
  151.7616  139.8788  156.3415 H   0  0  0  0  0  0  0  0  0  0  0  0
  147.4158  141.3067  155.1080 H   0  0  0  0  0  0  0  0  0  0  0  0
  148.4254  142.3236  156.1244 H   0  0  0  0  0  0  0  0  0  0  0  0
  149.1194  143.1932  154.3434 H   0  0  0  0  0  0  0  0  0  0  0  0
  149.8321  139.5169  152.5889 H   0  0  0  0  0  0  0  0  0  0  0  0
  149.0509  136.8523  153.8196 H   0  0  0  0  0  0  0  0  0  0  0  0
  1  2  1  0  0  0  0
  1 22  1  0  0  0  0
  1 23  1  0  0  0  0
  2 17  2  0  0  0  0
  2  3  1  0  0  0  0
  3  4  2  0  0  0  0
  4  5  1  0  0  0  0
  4 24  1  0  0  0  0
  5  6  1  0  0  0  0
  5 15  1  0  0  0  0
  6 18  1  0  0  0  0
  6 13  1  0  0  0  0
  6  7  1  0  0  0  0
  7  8  1  0  0  0  0
  8 19  1  0  0  0  0
  8  9  1  0  0  0  0
  8 11  1  0  0  0  0
  9 10  1  0  0  0  0
  9 25  1  0  0  0  0
  9 26  1  0  0  0  0
 10 27  1  0  0  0  0
 11 20  1  0  0  0  0
 11 12  1  0  0  0  0
 11 13  1  0  0  0  0
 12 28  1  0  0  0  0
 13 21  1  0  0  0  0
 13 14  1  0  0  0  0
 14 29  1  0  0  0  0
 15 16  2  0  0  0  0
 15 17  1  0  0  0  0
M  END
> <s_m_source_file>
AV-unprocessed.smi

> <i_m_source_file_index>
72

> <i_lp_mmshare_version>
43012

> <i_f3d_flags>
0

> <s_epik_input>
W05IMl1jMW5bY0hdbihjKD1PKW4xKVtDQEBIXTJPW0NASF0oW0NIMl1bT0hdKVtDQEBIXShbT0hdKVtDQEhdMltPSF0=

> <s_epik_cmdline>
J2VwaWtfcHl0aG9uJywgJy1waCcsICc3LjAnLCAnLXRuJywgJzgnLCAnLW1hJywgJzIwMCcsICctbWV0YWxfYmluZGluZycsICctaW1hZScsICc8aW5maWxlLm1hZT4nLCAnLW9tYWUnLCAnPG91dGZpbGUubWFlPic=

> <r_lp_tautomer_probability>
4.77166e-05

> <r_epik_Ionization_Penalty>
1.3546

> <r_epik_Ionization_Penalty_Charging>
1.46833e-10

> <r_epik_Ionization_Penalty_Neutral>
1.3546

> <r_epik_State_Penalty>
3.51908

> <r_epik_Charging_Adjusted_Penalty>
3.51908

> <i_epik_Tot_Q>
0

> <i_epik_Tot_abs_Q>
0

> <r_epik_Metal_State_Penalty>
3.44088

> <b_epik_Metal_Only>
1

> <s_epik_Chemistry_Notes>
This compound contains an acetal/aminal-like group ( X-CH(R)-Y where X, Y are N, S, or O) that may be acid/base labile, releasing an aldehyde.

> <s_lp_Force_Field>
OPLS_2005

> <r_lp_Energy>
23.1081

> <b_lp_Chiralities_Consistent>
1

> <s_lp_Variant>
AV-unprocessed.smi:72-90

> <Gold.Version>
5.8.1

> <Gold.Id.Protein>
6NUR|6NUR_protein|mol2

> <Gold.PLP.Fitness>
35.0054

> <Gold.PLP.PLP>
-17.3779

> <Gold.PLP.part.hbond>
-6.9190

> <Gold.PLP.part.metal>
0.0000

> <Gold.PLP.part.buried>
-1.6062

> <Gold.PLP.part.nonpolar>
-8.5282

> <Gold.PLP.part.repulsive>
0.0485

> <Gold.PLP.ligand.clash>
0.0000

> <Gold.PLP.ligand.torsion>
0.0249

> <Gold.PLP.Chemscore.Hbond>
5.8784

> <Gold.PLP.Chemscore.CHOScore>
0.0000

> <Gold.PLP.Chemscore.Metal>
0.0000

> <Gold.Chemscore.Hbonds>
donor molecule, donor type, donor heavy atom, donor atom, acceptor molecule, acceptor atom, score
      L1  H    10    27       P1  8028  0.93
      L1  H    12    28       P1  7957  0.92
      L1  H    14    29       P1  7948  0.98
      P1  H  6896  6909       L1    16  0.08
      P1  H  7989  7998       L1    12  0.74
      P1  H  7997  8008       L1     3  0.70
      P1  H  8011  8017       L1    10  0.14

> <Gold.PLP.Chemscore.Internal.Correction>
0.0422

> <Gold.Rescore>
     Score         DG    S(hbond)    S(metal)    S(lipo)     H(rot)  DE(clash)    DE(int)     intcor
     15.07     -15.15       5.38        0.00      18.03       4.06       0.02       0.06       ----

> <Gold.Chemscore.Fitness>
15.0744

> <Gold.Chemscore.DG>
-15.1541

> <Gold.Chemscore.ZeroCoef>
-5.4800

> <Gold.Chemscore.Hbond>
5.3767

> <Gold.Chemscore.Metal>
0.0000

> <Gold.Chemscore.Lipo>
18.0311

> <Gold.Chemscore.Internal_Hbond>
0.0000

> <Gold.Chemscore.DEClash>
0.0174

> <Gold.Chemscore.DEInternal>
0.0622

> <Gold.Chemscore.Rot>
4.0600

> <Gold.Chemscore.Internal.Correction>
   9.000000E+99

> <Gold.Chemscore.Hbonds>
donor molecule, donor type, donor heavy atom, donor atom, acceptor molecule, acceptor atom, score
      L1  H    10    27       P1  8028  0.87
      L1  H    12    28       P1  7957  0.84
      L1  H    14    29       P1  7948  0.91
      P1  H  6896  6909       L1    16  0.02
      P1  H  7989  7998       L1    12  0.68
      P1  H  7997  8008       L1     3  0.66
      P1  H  8011  8017       L1    10  0.01

> <Gold.Chemscore.Hbond.Weighted>
-17.9580

> <Gold.Chemscore.Metal.Weighted>
-0.0000

> <Gold.Chemscore.Lipo.Weighted>
-2.1096

> <Gold.Chemscore.Internal_Hbond.Weighted>
0.0000

> <Gold.Chemscore.DEClash.Weighted>
0.0174

> <Gold.Chemscore.DEInternal.Weighted>
0.0622

> <Gold.Chemscore.Rot.Weighted>
10.3936

> <Gold.Chemscore.Internal.Correction.Weighted>
   9.000000E+99

> <Gold.Protein.RotatedTorsions>
[ 6907 6896 6895 6894 ] final   76.27 input  -60.11 | X-H torsion
[ 7974 7965 7964 7962 ] final -136.61 input  175.53 | X-H torsion
[ 8008 7997 7996 7995 ] final  -97.34 input   59.86 | X-H torsion
[ 10167 10162 10161 10158 ] final   79.59 input  -65.29 | X-H torsion
[ 10718 10713 10712 10709 ] final  -22.37 input   66.30 | X-H torsion
[ 10763 10752 10751 10750 ] final  154.77 input  -60.55 | X-H torsion
[ 11005 11000 10999 10996 ] final  155.11 input  -57.11 | X-H torsion

> <Gold.Protein.ActiveResidues>
 VAL166  LYS551  ARG553  GLY616  TRP617  ASP618  TYR619  PRO620  LYS621  CYS622 
 ASP623  PHE694  ASN695  SER759  ASP760  ASP761  ALA762  ILE779  LEU786  VAL792 
 PHE793  MET794  SER795  GLU796  ALA797  LYS798  CYS799  TRP800  GLU811  SER814 

> <Gold.Protein.RotatedAtoms>
  152.5065  134.3995  159.9411 H   0  0  0  0  0  0  0  0  0  0  0  0  # atno 6907 bound_to 6896
  151.3958  133.3767  159.2734 H   0  0  0  0  0  0  0  0  0  0  0  0  # atno 6908 bound_to 6896
  150.9398  134.8829  159.7664 H   0  0  0  0  0  0  0  0  0  0  0  0  # atno 6909 bound_to 6896
  144.8913  140.6645  143.5144 H   0  0  0  0  0  0  0  0  0  0  0  0  # atno 7974 bound_to 7965
  154.7864  140.0464  157.1167 H   0  0  0  0  0  0  0  0  0  0  0  0  # atno 8008 bound_to 7997
  154.9643  140.3081  155.4997 H   0  0  0  0  0  0  0  0  0  0  0  0  # atno 8009 bound_to 7997
  156.2944  140.2265  156.4731 H   0  0  0  0  0  0  0  0  0  0  0  0  # atno 8010 bound_to 7997
  139.9587  144.5976  150.8092 H   0  0  0  0  0  0  0  0  0  0  0  0  # atno 10167 bound_to 10162
  156.5054  130.4597  149.6677 H   0  0  0  0  0  0  0  0  0  0  0  0  # atno 10718 bound_to 10713
  154.1577  135.2811  155.3118 H   0  0  0  0  0  0  0  0  0  0  0  0  # atno 10763 bound_to 10752
  154.6170  135.5480  153.7538 H   0  0  0  0  0  0  0  0  0  0  0  0  # atno 10764 bound_to 10752
  153.0202  135.6429  154.1719 H   0  0  0  0  0  0  0  0  0  0  0  0  # atno 10765 bound_to 10752
  140.1551  134.8648  157.2504 H   0  0  0  0  0  0  0  0  0  0  0  0  # atno 11005 bound_to 11000
  145.3779  139.1643  143.4296 LP  0  0  0  0  0  0  0  0  0  0  0  0  # atno 17320 bound_to 7965
  146.3055  140.3857  142.8689 LP  0  0  0  0  0  0  0  0  0  0  0  0  # atno 17321 bound_to 7965
  140.7560  143.3057  151.2968 LP  0  0  0  0  0  0  0  0  0  0  0  0  # atno 17342 bound_to 10162
  139.6571  144.0257  152.2667 LP  0  0  0  0  0  0  0  0  0  0  0  0  # atno 17343 bound_to 10162
  156.3292  130.7322  151.2248 LP  0  0  0  0  0  0  0  0  0  0  0  0  # atno 17370 bound_to 10713
  157.7457  131.0434  150.4744 LP  0  0  0  0  0  0  0  0  0  0  0  0  # atno 17371 bound_to 10713
  140.2557  134.3630  155.7425 LP  0  0  0  0  0  0  0  0  0  0  0  0  # atno 17394 bound_to 11000
  141.2203  133.7341  156.9003 LP  0  0  0  0  0  0  0  0  0  0  0  0  # atno 17395 bound_to 11000

$$$$
