AV-unprocessed.smi:193|AV-procd|sdf|1518|dock7
  -GOLD-   2262019353D 1   1.00000     0.00000
 Structure written by MMmdl.
 61 65  0  0  0  0  0  0  0  0  1 V2000
  150.6612  140.5908  157.1857 C   0  0  0  0  0  0  0  0  0  0  0  0
  151.7728  141.0485  158.1430 C   0  0  2  0  0  0  0  0  0  0  0  0
  152.2246  139.8555  159.0131 C   0  0  0  0  0  0  0  0  0  0  0  0
  153.5405  140.0243  159.6339 N   0  0  0  0  0  0  0  0  0  0  0  0
  154.3876  138.9605  159.6056 C   0  0  0  0  0  0  0  0  0  0  0  0
  155.0531  138.6730  158.4550 N   0  0  0  0  0  0  0  0  0  0  0  0
  155.8797  137.6256  158.3924 C   0  0  0  0  0  0  0  0  0  0  0  0
  156.1878  136.7482  159.3485 N   0  0  0  0  0  0  0  0  0  0  0  0
  155.5354  137.0341  160.5107 C   0  0  0  0  0  0  0  0  0  0  0  0
  154.6251  138.1088  160.7247 C   0  0  0  0  0  0  0  0  0  0  0  0
  154.1685  138.0804  162.0381 N   0  0  0  0  0  0  0  0  0  0  0  0
  154.7635  137.0454  162.5638 C   0  0  0  0  0  0  0  0  0  0  0  0
  155.6130  136.3657  161.7209 N   0  0  0  0  0  0  0  0  0  0  0  0
  156.4032  135.1871  162.0468 C   0  0  0  0  0  0  0  0  0  0  0  0
  155.5640  133.8954  162.2479 C   0  0  0  0  0  0  0  0  0  0  0  0
  154.6161  133.8328  161.1982 O   0  0  0  0  0  0  0  0  0  0  0  0
  156.4349  132.6268  162.1529 C   0  0  0  0  0  0  0  0  0  0  0  0
  157.2861  132.4258  163.4196 C   0  0  0  0  0  0  0  0  0  0  0  0
  156.4488  132.3897  164.5705 O   0  0  0  0  0  0  0  0  0  0  0  0
  155.7249  133.5984  164.7719 C   0  0  0  0  0  0  0  0  0  0  0  0
  154.7848  133.8505  163.5798 C   0  0  0  0  0  0  0  0  0  0  0  0
  154.0856  141.3533  159.9106 C   0  0  0  0  0  0  0  0  0  0  0  0
  153.0708  142.2871  160.5857 C   0  0  0  0  0  0  0  0  0  0  0  0
  152.3215  143.0414  159.5852 N   0  0  0  0  0  0  0  0  0  0  0  0
  151.6962  144.1803  160.2411 C   0  0  1  0  0  0  0  0  0  0  0  0
  151.8290  145.5303  159.5731 C   0  0  0  0  0  0  0  0  0  0  0  0
  150.5000  144.8119  159.5608 C   0  0  2  0  0  0  0  0  0  0  0  0
  149.3361  145.3324  160.3760 C   0  0  0  0  0  0  0  0  0  0  0  0
  151.2578  142.2281  158.9977 C   0  0  0  0  0  0  0  0  0  0  0  0
  149.7845  140.2435  157.7335 H   0  0  0  0  0  0  0  0  0  0  0  0
  151.0006  139.7742  156.5477 H   0  0  0  0  0  0  0  0  0  0  0  0
  150.3447  141.4029  156.5305 H   0  0  0  0  0  0  0  0  0  0  0  0
  152.6025  141.3822  157.5175 H   0  0  0  0  0  0  0  0  0  0  0  0
  151.4868  139.6500  159.7893 H   0  0  0  0  0  0  0  0  0  0  0  0
  152.2510  138.9711  158.3753 H   0  0  0  0  0  0  0  0  0  0  0  0
  156.3625  137.4674  157.4392 H   0  0  0  0  0  0  0  0  0  0  0  0
  154.6035  136.7516  163.5912 H   0  0  0  0  0  0  0  0  0  0  0  0
  157.1284  135.0392  161.2452 H   0  0  0  0  0  0  0  0  0  0  0  0
  156.9894  135.4117  162.9375 H   0  0  0  0  0  0  0  0  0  0  0  0
  154.7503  133.0275  160.7226 H   0  0  0  0  0  0  0  0  0  0  0  0
  155.7949  131.7513  162.0307 H   0  0  0  0  0  0  0  0  0  0  0  0
  157.0737  132.6625  161.2695 H   0  0  0  0  0  0  0  0  0  0  0  0
  157.8287  131.4824  163.3555 H   0  0  0  0  0  0  0  0  0  0  0  0
  158.0358  133.2107  163.5250 H   0  0  0  0  0  0  0  0  0  0  0  0
  155.1446  133.5096  165.6905 H   0  0  0  0  0  0  0  0  0  0  0  0
  156.4174  134.4275  164.9172 H   0  0  0  0  0  0  0  0  0  0  0  0
  154.2073  134.7615  163.7358 H   0  0  0  0  0  0  0  0  0  0  0  0
  154.0565  133.0388  163.5472 H   0  0  0  0  0  0  0  0  0  0  0  0
  154.9259  141.2447  160.5978 H   0  0  0  0  0  0  0  0  0  0  0  0
  154.4904  141.7965  158.9997 H   0  0  0  0  0  0  0  0  0  0  0  0
  152.4162  141.7582  161.2807 H   0  0  0  0  0  0  0  0  0  0  0  0
  153.6421  142.9996  161.1825 H   0  0  0  0  0  0  0  0  0  0  0  0
  151.6804  144.2047  161.3298 H   0  0  0  0  0  0  0  0  0  0  0  0
  151.9314  146.3993  160.2199 H   0  0  0  0  0  0  0  0  0  0  0  0
  152.3787  145.5830  158.6350 H   0  0  0  0  0  0  0  0  0  0  0  0
  150.2036  144.3811  158.6061 H   0  0  0  0  0  0  0  0  0  0  0  0
  149.6819  145.7552  161.3200 H   0  0  0  0  0  0  0  0  0  0  0  0
  148.6400  144.5220  160.5928 H   0  0  0  0  0  0  0  0  0  0  0  0
  148.8073  146.1074  159.8210 H   0  0  0  0  0  0  0  0  0  0  0  0
  150.6697  142.8841  158.3540 H   0  0  0  0  0  0  0  0  0  0  0  0
  150.5761  141.8713  159.7716 H   0  0  0  0  0  0  0  0  0  0  0  0
  1  2  1  0  0  0  0
  1 30  1  0  0  0  0
  1 31  1  0  0  0  0
  1 32  1  0  0  0  0
  2 29  1  0  0  0  0
  2  3  1  0  0  0  0
  2 33  1  0  0  0  0
  3  4  1  0  0  0  0
  3 34  1  0  0  0  0
  3 35  1  0  0  0  0
  4  5  1  0  0  0  0
  4 22  1  0  0  0  0
  5 10  1  0  0  0  0
  5  6  2  0  0  0  0
  6  7  1  0  0  0  0
  7  8  2  0  0  0  0
  7 36  1  0  0  0  0
  8  9  1  0  0  0  0
  9 13  1  0  0  0  0
  9 10  2  0  0  0  0
 10 11  1  0  0  0  0
 11 12  2  0  0  0  0
 12 13  1  0  0  0  0
 12 37  1  0  0  0  0
 13 14  1  0  0  0  0
 14 15  1  0  0  0  0
 14 38  1  0  0  0  0
 14 39  1  0  0  0  0
 15 21  1  0  0  0  0
 15 16  1  0  0  0  0
 15 17  1  0  0  0  0
 16 40  1  0  0  0  0
 17 18  1  0  0  0  0
 17 41  1  0  0  0  0
 17 42  1  0  0  0  0
 18 19  1  0  0  0  0
 18 43  1  0  0  0  0
 18 44  1  0  0  0  0
 19 20  1  0  0  0  0
 20 21  1  0  0  0  0
 20 45  1  0  0  0  0
 20 46  1  0  0  0  0
 21 47  1  0  0  0  0
 21 48  1  0  0  0  0
 22 23  1  0  0  0  0
 22 49  1  0  0  0  0
 22 50  1  0  0  0  0
 23 24  1  0  0  0  0
 23 51  1  0  0  0  0
 23 52  1  0  0  0  0
 24 25  1  0  0  0  0
 24 29  1  0  0  0  0
 25 27  1  0  0  0  0
 25 26  1  0  0  0  0
 25 53  1  0  0  0  0
 26 27  1  0  0  0  0
 26 54  1  0  0  0  0
 26 55  1  0  0  0  0
 27 28  1  0  0  0  0
 27 56  1  0  0  0  0
 28 57  1  0  0  0  0
 28 58  1  0  0  0  0
 28 59  1  0  0  0  0
 29 60  1  0  0  0  0
 29 61  1  0  0  0  0
M  END
> <s_m_source_file>
AV-unprocessed.smi

> <i_m_source_file_index>
193

> <i_lp_mmshare_version>
43012

> <i_f3d_flags>
0

> <s_epik_input>
W0NIM11bQ0BASF0xW0NIMl1bQ0BIXTFOKFtDSDJdMilbQ0gyXVtDSDJdTihbQ0gyXVtDQEhdMltDSDNdKWMobltjSF1uMyljKGMzNCluW2NIXW40W0NIMl1DNShbT0hdKVtDSDJdW0NIMl1PW0NIMl1bQ0gyXTU=

> <s_epik_cmdline>
J2VwaWtfcHl0aG9uJywgJy1waCcsICc3LjAnLCAnLXRuJywgJzgnLCAnLW1hJywgJzIwMCcsICctbWV0YWxfYmluZGluZycsICctaW1hZScsICc8aW5maWxlLm1hZT4nLCAnLW9tYWUnLCAnPG91dGZpbGUubWFlPic=

> <r_lp_tautomer_probability>
1

> <r_epik_Ionization_Penalty>
1.45227

> <r_epik_Ionization_Penalty_Charging>
0

> <r_epik_Ionization_Penalty_Neutral>
1.45227

> <r_epik_State_Penalty>
2.02377

> <r_epik_Charging_Adjusted_Penalty>
2.02377

> <i_epik_Tot_Q>
0

> <i_epik_Tot_abs_Q>
0

> <r_epik_Metal_State_Penalty>
2.01937

> <b_epik_Metal_Only>
0

> <s_lp_Force_Field>
OPLS_2005

> <r_lp_Energy>
49.0818

> <b_lp_Chiralities_Consistent>
1

> <s_lp_Variant>
AV-unprocessed.smi:193-23

> <Gold.Version>
5.8.1

> <Gold.Id.Protein>
6NUR|6NUR_protein|mol2

> <Gold.PLP.Fitness>
44.7360

> <Gold.PLP.PLP>
-42.7627

> <Gold.PLP.part.hbond>
-2.0000

> <Gold.PLP.part.metal>
0.0000

> <Gold.PLP.part.buried>
-6.8940

> <Gold.PLP.part.nonpolar>
-34.8180

> <Gold.PLP.part.repulsive>
0.0111

> <Gold.PLP.ligand.clash>
0.0000

> <Gold.PLP.ligand.torsion>
2.6299

> <Gold.PLP.Chemscore.Hbond>
1.9913

> <Gold.PLP.Chemscore.CHOScore>
0.0000

> <Gold.PLP.Chemscore.Metal>
0.0000

> <Gold.Chemscore.Hbonds>
donor molecule, donor type, donor heavy atom, donor atom, acceptor molecule, acceptor atom, score
      P1  H  7997  8008       L1     6  1.00

> <Gold.PLP.Chemscore.Internal.Correction>
1.2593

> <Gold.Rescore>
     Score         DG    S(hbond)    S(metal)    S(lipo)     H(rot)  DE(clash)    DE(int)     intcor
     16.50     -19.09       1.75        0.00     108.11       1.91       0.01       2.58       ----

> <Gold.Chemscore.Fitness>
16.4993

> <Gold.Chemscore.DG>
-19.0907

> <Gold.Chemscore.ZeroCoef>
-5.4800

> <Gold.Chemscore.Hbond>
1.7494

> <Gold.Chemscore.Metal>
0.0000

> <Gold.Chemscore.Lipo>
108.1114

> <Gold.Chemscore.Internal_Hbond>
0.0000

> <Gold.Chemscore.DEClash>
0.0111

> <Gold.Chemscore.DEInternal>
2.5802

> <Gold.Chemscore.Rot>
1.9068

> <Gold.Chemscore.Internal.Correction>
   9.000000E+99

> <Gold.Chemscore.Hbonds>
donor molecule, donor type, donor heavy atom, donor atom, acceptor molecule, acceptor atom, score
      P1  H  7997  8008       L1     6  0.87

> <Gold.Chemscore.Hbond.Weighted>
-5.8430

> <Gold.Chemscore.Metal.Weighted>
-0.0000

> <Gold.Chemscore.Lipo.Weighted>
-12.6490

> <Gold.Chemscore.Internal_Hbond.Weighted>
0.0000

> <Gold.Chemscore.DEClash.Weighted>
0.0111

> <Gold.Chemscore.DEInternal.Weighted>
2.5802

> <Gold.Chemscore.Rot.Weighted>
4.8814

> <Gold.Chemscore.Internal.Correction.Weighted>
   9.000000E+99

> <Gold.Protein.RotatedTorsions>
[ 6907 6896 6895 6894 ] final  -25.09 input  -60.11 | X-H torsion
[ 7974 7965 7964 7962 ] final  -85.39 input  175.53 | X-H torsion
[ 8008 7997 7996 7995 ] final -135.10 input   59.86 | X-H torsion
[ 10167 10162 10161 10158 ] final  -61.95 input  -65.29 | X-H torsion
[ 10718 10713 10712 10709 ] final -127.74 input   66.30 | X-H torsion
[ 10763 10752 10751 10750 ] final -125.46 input  -60.55 | X-H torsion
[ 11005 11000 10999 10996 ] final  -12.09 input  -57.11 | X-H torsion

> <Gold.Protein.ActiveResidues>
 VAL166  LYS551  ARG553  GLY616  TRP617  ASP618  TYR619  PRO620  LYS621  CYS622 
 ASP623  PHE694  ASN695  SER759  ASP760  ASP761  ALA762  ILE779  LEU786  VAL792 
 PHE793  MET794  SER795  GLU796  ALA797  LYS798  CYS799  TRP800  GLU811  SER814 

> <Gold.Protein.RotatedAtoms>
  151.1802  135.0357  159.8788 H   0  0  0  0  0  0  0  0  0  0  0  0  # atno 6907 bound_to 6896
  152.5445  134.1072  159.8353 H   0  0  0  0  0  0  0  0  0  0  0  0  # atno 6908 bound_to 6896
  151.1188  133.5072  159.2635 H   0  0  0  0  0  0  0  0  0  0  0  0  # atno 6909 bound_to 6896
  145.4940  140.9551  143.1796 H   0  0  0  0  0  0  0  0  0  0  0  0  # atno 7974 bound_to 7965
  155.3731  140.0489  157.3045 H   0  0  0  0  0  0  0  0  0  0  0  0  # atno 8008 bound_to 7997
  154.5120  140.2195  155.9101 H   0  0  0  0  0  0  0  0  0  0  0  0  # atno 8009 bound_to 7997
  156.1593  140.3119  155.8786 H   0  0  0  0  0  0  0  0  0  0  0  0  # atno 8010 bound_to 7997
  140.5971  143.2353  151.6011 H   0  0  0  0  0  0  0  0  0  0  0  0  # atno 10167 bound_to 10162
  156.1885  130.6779  151.0394 H   0  0  0  0  0  0  0  0  0  0  0  0  # atno 10718 bound_to 10713
  154.8736  135.4029  154.3272 H   0  0  0  0  0  0  0  0  0  0  0  0  # atno 10763 bound_to 10752
  153.4091  135.7020  153.6377 H   0  0  0  0  0  0  0  0  0  0  0  0  # atno 10764 bound_to 10752
  153.5087  135.3712  155.2546 H   0  0  0  0  0  0  0  0  0  0  0  0  # atno 10765 bound_to 10752
  140.7621  133.8507  155.9133 H   0  0  0  0  0  0  0  0  0  0  0  0  # atno 11005 bound_to 11000
  144.7818  139.6510  143.7151 LP  0  0  0  0  0  0  0  0  0  0  0  0  # atno 17320 bound_to 7965
  146.2267  139.5736  142.9582 LP  0  0  0  0  0  0  0  0  0  0  0  0  # atno 17321 bound_to 7965
  139.5266  144.3041  152.1048 LP  0  0  0  0  0  0  0  0  0  0  0  0  # atno 17342 bound_to 10162
  140.2216  144.4461  150.6339 LP  0  0  0  0  0  0  0  0  0  0  0  0  # atno 17343 bound_to 10162
  157.6914  131.0808  150.7096 LP  0  0  0  0  0  0  0  0  0  0  0  0  # atno 17370 bound_to 10713
  156.7153  130.4664  149.5536 LP  0  0  0  0  0  0  0  0  0  0  0  0  # atno 17371 bound_to 10713
  140.9653  134.1601  157.4620 LP  0  0  0  0  0  0  0  0  0  0  0  0  # atno 17394 bound_to 11000
  139.8769  134.9959  156.5770 LP  0  0  0  0  0  0  0  0  0  0  0  0  # atno 17395 bound_to 11000

$$$$
