AV-unprocessed.smi:2057|AV-procd|sdf|8340|dock4
  -GOLD-   2272011 03D 1   1.00000     0.00000
 Structure written by MMmdl.
 44 46  0  0  0  0  0  0  0  0  1 V2000
  155.1269  139.8080  161.8208 C   0  0  0  0  0  0  0  0  0  0  0  0
  154.1921  139.5890  160.7743 O   0  0  0  0  0  0  0  0  0  0  0  0
  153.4856  140.6727  160.2989 C   0  0  0  0  0  0  0  0  0  0  0  0
  153.6606  142.0002  160.7552 C   0  0  0  0  0  0  0  0  0  0  0  0
  152.9025  143.0498  160.2043 C   0  0  0  0  0  0  0  0  0  0  0  0
  151.9472  142.7999  159.1880 C   0  0  0  0  0  0  0  0  0  0  0  0
  151.1887  143.7916  158.5984 O   0  0  0  0  0  0  0  0  0  0  0  0
  151.4178  145.1388  158.9831 C   0  0  0  0  0  0  0  0  0  0  0  0
  151.7581  141.4698  158.7406 C   0  0  0  0  0  0  0  0  0  0  0  0
  150.7420  141.1718  157.6416 C   0  0  2  0  0  0  0  0  0  0  0  0
  149.7964  140.1862  158.0137 O   0  0  0  0  0  0  0  0  0  0  0  0
  151.4493  140.7547  156.3366 C   0  0  0  0  0  0  0  0  0  0  0  0
  150.5412  140.1590  155.3663 N   0  0  0  0  0  0  0  0  0  0  0  0
  150.7288  139.0344  154.6309 C   0  0  0  0  0  0  0  0  0  0  0  0
  151.9873  138.2217  154.7541 C   0  0  0  0  0  0  0  0  0  0  0  0
  152.0853  137.1673  153.8181 O   0  0  0  0  0  0  0  0  0  0  0  0
  149.7248  138.7068  153.8140 N   0  0  0  0  0  0  0  0  0  0  0  0
  148.8049  139.7115  154.0400 C   0  0  0  0  0  0  0  0  0  0  0  0
  147.5277  139.9315  153.4761 C   0  0  0  0  0  0  0  0  0  0  0  0
  146.7563  141.0452  153.8682 C   0  0  0  0  0  0  0  0  0  0  0  0
  147.2497  141.9528  154.8278 C   0  0  0  0  0  0  0  0  0  0  0  0
  148.5189  141.7510  155.4031 C   0  0  0  0  0  0  0  0  0  0  0  0
  149.2849  140.6380  155.0079 C   0  0  0  0  0  0  0  0  0  0  0  0
  152.5336  140.4249  159.2922 C   0  0  0  0  0  0  0  0  0  0  0  0
  155.6044  138.8634  162.0805 H   0  0  0  0  0  0  0  0  0  0  0  0
  154.6375  140.1878  162.7187 H   0  0  0  0  0  0  0  0  0  0  0  0
  155.9121  140.5011  161.5158 H   0  0  0  0  0  0  0  0  0  0  0  0
  154.3764  142.2427  161.5260 H   0  0  0  0  0  0  0  0  0  0  0  0
  153.0784  144.0458  160.5809 H   0  0  0  0  0  0  0  0  0  0  0  0
  150.7532  145.7905  158.4164 H   0  0  0  0  0  0  0  0  0  0  0  0
  152.4422  145.4465  158.7683 H   0  0  0  0  0  0  0  0  0  0  0  0
  151.2072  145.2936  160.0420 H   0  0  0  0  0  0  0  0  0  0  0  0
  150.1589  142.0747  157.4613 H   0  0  0  0  0  0  0  0  0  0  0  0
  150.2162  139.3403  157.9784 H   0  0  0  0  0  0  0  0  0  0  0  0
  151.9318  141.6169  155.8755 H   0  0  0  0  0  0  0  0  0  0  0  0
  152.2487  140.0440  156.5502 H   0  0  0  0  0  0  0  0  0  0  0  0
  152.8528  138.8708  154.6251 H   0  0  0  0  0  0  0  0  0  0  0  0
  152.0409  137.8005  155.7581 H   0  0  0  0  0  0  0  0  0  0  0  0
  151.3913  137.2623  153.1841 H   0  0  0  0  0  0  0  0  0  0  0  0
  147.1411  139.2417  152.7407 H   0  0  0  0  0  0  0  0  0  0  0  0
  145.7819  141.2043  153.4302 H   0  0  0  0  0  0  0  0  0  0  0  0
  146.6540  142.8045  155.1214 H   0  0  0  0  0  0  0  0  0  0  0  0
  148.9013  142.4452  156.1368 H   0  0  0  0  0  0  0  0  0  0  0  0
  152.4070  139.4121  158.9387 H   0  0  0  0  0  0  0  0  0  0  0  0
  1  2  1  0  0  0  0
  1 25  1  0  0  0  0
  1 26  1  0  0  0  0
  1 27  1  0  0  0  0
  2  3  1  0  0  0  0
  3 24  1  0  0  0  0
  3  4  2  0  0  0  0
  4  5  1  0  0  0  0
  4 28  1  0  0  0  0
  5  6  2  0  0  0  0
  5 29  1  0  0  0  0
  6  7  1  0  0  0  0
  6  9  1  0  0  0  0
  7  8  1  0  0  0  0
  8 30  1  0  0  0  0
  8 31  1  0  0  0  0
  8 32  1  0  0  0  0
  9 10  1  0  0  0  0
  9 24  2  0  0  0  0
 10 11  1  0  0  0  0
 10 12  1  0  0  0  0
 10 33  1  0  0  0  0
 11 34  1  0  0  0  0
 12 13  1  0  0  0  0
 12 35  1  0  0  0  0
 12 36  1  0  0  0  0
 13 23  1  0  0  0  0
 13 14  1  0  0  0  0
 14 15  1  0  0  0  0
 14 17  2  0  0  0  0
 15 16  1  0  0  0  0
 15 37  1  0  0  0  0
 15 38  1  0  0  0  0
 16 39  1  0  0  0  0
 17 18  1  0  0  0  0
 18 23  2  0  0  0  0
 18 19  1  0  0  0  0
 19 20  2  0  0  0  0
 19 40  1  0  0  0  0
 20 21  1  0  0  0  0
 20 41  1  0  0  0  0
 21 22  2  0  0  0  0
 21 42  1  0  0  0  0
 22 23  1  0  0  0  0
 22 43  1  0  0  0  0
 24 44  1  0  0  0  0
M  END
> <s_m_source_file>
AV-unprocessed.smi

> <i_m_source_file_index>
2057

> <i_lp_mmshare_version>
43012

> <i_f3d_flags>
0

> <s_epik_input>
W0NIM11PYzFbY0hdW2NIXWMoT1tDSDNdKWMoW2NIXTEpW0NASF0oW09IXSlbQ0gyXW4oYyhuMilbQ0gyXVtPSF0pYyhjMjMpW2NIXVtjSF1bY0hdW2NIXTM=

> <s_epik_cmdline>
J2VwaWtfcHl0aG9uJywgJy1waCcsICc3LjAnLCAnLXRuJywgJzgnLCAnLW1hJywgJzIwMCcsICctbWV0YWxfYmluZGluZycsICctaW1hZScsICc8aW5maWxlLm1hZT4nLCAnLW9tYWUnLCAnPG91dGZpbGUubWFlPic=

> <r_lp_tautomer_probability>
1

> <r_epik_Ionization_Penalty>
0.0634722

> <r_epik_Ionization_Penalty_Charging>
0

> <r_epik_Ionization_Penalty_Neutral>
0.0634722

> <r_epik_State_Penalty>
0.0551572

> <r_epik_Charging_Adjusted_Penalty>
0.0551572

> <i_epik_Tot_Q>
0

> <i_epik_Tot_abs_Q>
0

> <r_epik_Metal_State_Penalty>
5.78034e-05

> <b_epik_Metal_Only>
0

> <s_lp_Force_Field>
OPLS_2005

> <r_lp_Energy>
18.6198

> <b_lp_Chiralities_Consistent>
1

> <s_lp_Variant>
AV-unprocessed.smi:2057-1

> <Gold.Version>
5.8.1

> <Gold.Id.Protein>
6NUR|6NUR_protein|mol2

> <Gold.PLP.Fitness>
54.6925

> <Gold.PLP.PLP>
-51.4490

> <Gold.PLP.part.hbond>
-2.0000

> <Gold.PLP.part.metal>
0.0000

> <Gold.PLP.part.buried>
-2.8980

> <Gold.PLP.part.nonpolar>
-47.5271

> <Gold.PLP.part.repulsive>
1.4525

> <Gold.PLP.ligand.clash>
0.0000

> <Gold.PLP.ligand.torsion>
0.4710

> <Gold.PLP.Chemscore.Hbond>
1.3822

> <Gold.PLP.Chemscore.CHOScore>
0.0000

> <Gold.PLP.Chemscore.Metal>
0.0000

> <Gold.Chemscore.Hbonds>
donor molecule, donor type, donor heavy atom, donor atom, acceptor molecule, acceptor atom, score
      L1  H    16    39       P1  7949  0.35
      P1  H 10752 10765       L1    16  0.99

> <Gold.PLP.Chemscore.Internal.Correction>
0.0390

> <Gold.Rescore>
     Score         DG    S(hbond)    S(metal)    S(lipo)     H(rot)  DE(clash)    DE(int)     intcor
     16.67     -17.33       1.27        0.00     134.35       3.17       0.10       0.56       ----

> <Gold.Chemscore.Fitness>
16.6698

> <Gold.Chemscore.DG>
-17.3329

> <Gold.Chemscore.ZeroCoef>
-5.4800

> <Gold.Chemscore.Hbond>
1.2696

> <Gold.Chemscore.Metal>
0.0000

> <Gold.Chemscore.Lipo>
134.3465

> <Gold.Chemscore.Internal_Hbond>
0.0000

> <Gold.Chemscore.DEClash>
0.1010

> <Gold.Chemscore.DEInternal>
0.5622

> <Gold.Chemscore.Rot>
3.1665

> <Gold.Chemscore.Internal.Correction>
   9.000000E+99

> <Gold.Chemscore.Hbonds>
donor molecule, donor type, donor heavy atom, donor atom, acceptor molecule, acceptor atom, score
      L1  H    16    39       P1  7949  0.27
      P1  H 10752 10765       L1    16  0.94

> <Gold.Chemscore.Hbond.Weighted>
-4.2406

> <Gold.Chemscore.Metal.Weighted>
-0.0000

> <Gold.Chemscore.Lipo.Weighted>
-15.7185

> <Gold.Chemscore.Internal_Hbond.Weighted>
0.0000

> <Gold.Chemscore.DEClash.Weighted>
0.1010

> <Gold.Chemscore.DEInternal.Weighted>
0.5622

> <Gold.Chemscore.Rot.Weighted>
8.1062

> <Gold.Chemscore.Internal.Correction.Weighted>
   9.000000E+99

> <Gold.Protein.RotatedTorsions>
[ 6907 6896 6895 6894 ] final  -95.10 input  -60.11 | X-H torsion
[ 7974 7965 7964 7962 ] final  -18.88 input  175.53 | X-H torsion
[ 8008 7997 7996 7995 ] final  130.77 input   59.86 | X-H torsion
[ 10167 10162 10161 10158 ] final -147.39 input  -65.29 | X-H torsion
[ 10718 10713 10712 10709 ] final -114.95 input   66.30 | X-H torsion
[ 10763 10752 10751 10750 ] final  136.07 input  -60.55 | X-H torsion
[ 11005 11000 10999 10996 ] final  -66.22 input  -57.11 | X-H torsion

> <Gold.Protein.ActiveResidues>
 VAL166  LYS551  ARG553  GLY616  TRP617  ASP618  TYR619  PRO620  LYS621  CYS622 
 ASP623  PHE694  ASN695  SER759  ASP760  ASP761  ALA762  ILE779  LEU786  VAL792 
 PHE793  MET794  SER795  GLU796  ALA797  LYS798  CYS799  TRP800  GLU811  SER814 

> <Gold.Protein.RotatedAtoms>
  150.6956  134.1709  159.4211 H   0  0  0  0  0  0  0  0  0  0  0  0  # atno 6907 bound_to 6896
  151.9687  135.0085  160.0561 H   0  0  0  0  0  0  0  0  0  0  0  0  # atno 6908 bound_to 6896
  152.1861  133.4706  159.5020 H   0  0  0  0  0  0  0  0  0  0  0  0  # atno 6909 bound_to 6896
  146.1870  140.3984  142.8472 H   0  0  0  0  0  0  0  0  0  0  0  0  # atno 7974 bound_to 7965
  156.2960  140.2588  156.2816 H   0  0  0  0  0  0  0  0  0  0  0  0  # atno 8008 bound_to 7997
  154.9596  140.0393  157.2202 H   0  0  0  0  0  0  0  0  0  0  0  0  # atno 8009 bound_to 7997
  154.7959  140.2820  155.5961 H   0  0  0  0  0  0  0  0  0  0  0  0  # atno 8010 bound_to 7997
  139.7626  143.8354  152.2610 H   0  0  0  0  0  0  0  0  0  0  0  0  # atno 10167 bound_to 10162
  156.0863  130.6054  150.8842 H   0  0  0  0  0  0  0  0  0  0  0  0  # atno 10718 bound_to 10713
  153.8505  135.3080  155.3432 H   0  0  0  0  0  0  0  0  0  0  0  0  # atno 10763 bound_to 10752
  154.7893  135.4792  154.0019 H   0  0  0  0  0  0  0  0  0  0  0  0  # atno 10764 bound_to 10752
  153.1521  135.6845  153.8960 H   0  0  0  0  0  0  0  0  0  0  0  0  # atno 10765 bound_to 10752
  141.1476  133.6695  156.6106 H   0  0  0  0  0  0  0  0  0  0  0  0  # atno 11005 bound_to 11000
  144.8415  140.6864  143.6226 LP  0  0  0  0  0  0  0  0  0  0  0  0  # atno 17320 bound_to 7965
  145.3909  139.1617  143.4229 LP  0  0  0  0  0  0  0  0  0  0  0  0  # atno 17321 bound_to 7965
  139.8365  144.7230  150.9385 LP  0  0  0  0  0  0  0  0  0  0  0  0  # atno 17342 bound_to 10162
  140.7808  143.4022  151.1130 LP  0  0  0  0  0  0  0  0  0  0  0  0  # atno 17343 bound_to 10162
  157.5999  131.0941  150.8978 LP  0  0  0  0  0  0  0  0  0  0  0  0  # atno 17370 bound_to 10713
  156.9137  130.5290  149.5280 LP  0  0  0  0  0  0  0  0  0  0  0  0  # atno 17371 bound_to 10713
  140.3617  134.7681  157.4538 LP  0  0  0  0  0  0  0  0  0  0  0  0  # atno 17394 bound_to 11000
  140.0779  134.5771  155.8571 LP  0  0  0  0  0  0  0  0  0  0  0  0  # atno 17395 bound_to 11000

$$$$
