AV-unprocessed.smi:322|AV-procd|sdf|2337|dock2
  -GOLD-   2262022243D 1   1.00000     0.00000
 Structure written by MMmdl.
 44 46  0  0  0  0  0  0  0  0  2 V2000
  149.2792  142.1386  154.2358 O   0  0  0  0  0  0  0  0  0  0  0  0
  149.1311  141.3129  155.3694 C   0  0  0  0  0  0  0  0  0  0  0  0
  150.0831  141.6735  156.4615 C   0  0  0  0  0  0  0  0  0  0  0  0
  150.3126  142.9306  156.9359 N   0  3  0  0  0  0  0  0  0  0  0  0
  151.2602  142.8841  157.9592 C   0  0  0  0  0  0  0  0  0  0  0  0
  151.8117  143.8964  158.7386 C   0  0  0  0  0  0  0  0  0  0  0  0
  152.7615  143.5045  159.7048 C   0  0  0  0  0  0  0  0  0  0  0  0
  153.1292  142.1528  159.8678 C   0  0  0  0  0  0  0  0  0  0  0  0
  152.5630  141.1353  159.0718 C   0  0  0  0  0  0  0  0  0  0  0  0
  151.6257  141.5319  158.1186 C   0  0  0  0  0  0  0  0  0  0  0  0
  150.8771  140.8224  157.1738 N   0  0  0  0  0  0  0  0  0  0  0  0
  151.0315  139.3615  157.0897 C   0  0  0  0  0  0  0  0  0  0  0  0
  149.8735  138.5953  157.7593 C   0  0  2  0  0  0  0  0  0  0  0  0
  148.9098  139.5270  158.2099 O   0  0  0  0  0  0  0  0  0  0  0  0
  150.3534  137.7662  158.9597 C   0  0  0  0  0  0  0  0  0  0  0  0
  149.2406  137.4849  159.7967 O   0  0  0  0  0  0  0  0  0  0  0  0
  148.7951  136.1378  159.7264 C   0  0  0  0  0  0  0  0  0  0  0  0
  147.5180  135.8881  160.5106 C   0  0  0  0  0  0  0  0  0  0  0  0
  146.3240  136.5462  160.1470 C   0  0  0  0  0  0  0  0  0  0  0  0
  145.1377  136.3109  160.8686 C   0  0  0  0  0  0  0  0  0  0  0  0
  145.1389  135.4113  161.9525 C   0  0  0  0  0  0  0  0  0  0  0  0
  143.6858  135.1224  162.8367 Cl  0  0  0  0  0  0  0  0  0  0  0  0
  146.3271  134.7461  162.3130 C   0  0  0  0  0  0  0  0  0  0  0  0
  147.5139  134.9821  161.5920 C   0  0  0  0  0  0  0  0  0  0  0  0
  148.9738  143.0062  154.4535 H   0  0  0  0  0  0  0  0  0  0  0  0
  148.1073  141.3867  155.7364 H   0  0  0  0  0  0  0  0  0  0  0  0
  149.2920  140.2751  155.0763 H   0  0  0  0  0  0  0  0  0  0  0  0
  151.5318  144.9324  158.6157 H   0  0  0  0  0  0  0  0  0  0  0  0
  153.2172  144.2557  160.3338 H   0  0  0  0  0  0  0  0  0  0  0  0
  153.8607  141.8907  160.6183 H   0  0  0  0  0  0  0  0  0  0  0  0
  152.8514  140.1028  159.2031 H   0  0  0  0  0  0  0  0  0  0  0  0
  151.1230  139.0884  156.0376 H   0  0  0  0  0  0  0  0  0  0  0  0
  151.9815  139.0978  157.5562 H   0  0  0  0  0  0  0  0  0  0  0  0
  149.4073  137.9355  157.0270 H   0  0  0  0  0  0  0  0  0  0  0  0
  148.1725  139.0492  158.5569 H   0  0  0  0  0  0  0  0  0  0  0  0
  150.7629  136.8169  158.6109 H   0  0  0  0  0  0  0  0  0  0  0  0
  151.1514  138.2829  159.4956 H   0  0  0  0  0  0  0  0  0  0  0  0
  148.5952  135.9052  158.6804 H   0  0  0  0  0  0  0  0  0  0  0  0
  149.5880  135.4603  160.0474 H   0  0  0  0  0  0  0  0  0  0  0  0
  146.3167  137.2362  159.3160 H   0  0  0  0  0  0  0  0  0  0  0  0
  144.2273  136.8204  160.5884 H   0  0  0  0  0  0  0  0  0  0  0  0
  146.3299  134.0540  163.1421 H   0  0  0  0  0  0  0  0  0  0  0  0
  148.4205  134.4670  161.8740 H   0  0  0  0  0  0  0  0  0  0  0  0
  149.8485  143.7583  156.5848 H   0  0  0  0  0  0  0  0  0  0  0  0
  1  2  1  0  0  0  0
  1 25  1  0  0  0  0
  2  3  1  0  0  0  0
  2 26  1  0  0  0  0
  2 27  1  0  0  0  0
  3 11  1  0  0  0  0
  3  4  2  0  0  0  0
  4  5  1  0  0  0  0
  4 44  1  0  0  0  0
  5 10  2  0  0  0  0
  5  6  1  0  0  0  0
  6  7  2  0  0  0  0
  6 28  1  0  0  0  0
  7  8  1  0  0  0  0
  7 29  1  0  0  0  0
  8  9  2  0  0  0  0
  8 30  1  0  0  0  0
  9 10  1  0  0  0  0
  9 31  1  0  0  0  0
 10 11  1  0  0  0  0
 11 12  1  0  0  0  0
 12 13  1  0  0  0  0
 12 32  1  0  0  0  0
 12 33  1  0  0  0  0
 13 14  1  0  0  0  0
 13 15  1  0  0  0  0
 13 34  1  0  0  0  0
 14 35  1  0  0  0  0
 15 16  1  0  0  0  0
 15 36  1  0  0  0  0
 15 37  1  0  0  0  0
 16 17  1  0  0  0  0
 17 18  1  0  0  0  0
 17 38  1  0  0  0  0
 17 39  1  0  0  0  0
 18 24  1  0  0  0  0
 18 19  2  0  0  0  0
 19 20  1  0  0  0  0
 19 40  1  0  0  0  0
 20 21  2  0  0  0  0
 20 41  1  0  0  0  0
 21 22  1  0  0  0  0
 21 23  1  0  0  0  0
 23 24  2  0  0  0  0
 23 42  1  0  0  0  0
 24 43  1  0  0  0  0
M  CHG  1   4   1
M  END
> <s_m_source_file>
AV-unprocessed.smi

> <i_m_source_file_index>
322

> <i_lp_mmshare_version>
43012

> <i_f3d_flags>
0

> <s_epik_input>
W2NIXTFbY0hdW2NIXVtjSF1jKGMxMiluKGMobjIpW0NIMl1bT0hdKVtDSDJdW0NASF0oW09IXSlbQ0gyXU9bQ0gyXWMzW2NIXVtjSF1jKENsKVtjSF1bY0hdMw==

> <s_epik_cmdline>
J2VwaWtfcHl0aG9uJywgJy1waCcsICc3LjAnLCAnLXRuJywgJzgnLCAnLW1hJywgJzIwMCcsICctbWV0YWxfYmluZGluZycsICctaW1hZScsICc8aW5maWxlLm1hZT4nLCAnLW9tYWUnLCAnPG91dGZpbGUubWFlPic=

> <r_epik_Ionization_Penalty>
1.34314

> <r_epik_Ionization_Penalty_Charging>
1.34228

> <r_epik_Ionization_Penalty_Neutral>
0.000856898

> <r_epik_State_Penalty>
1.41963

> <r_epik_Charging_Adjusted_Penalty>
2.76191

> <i_epik_Tot_Q>
1

> <i_epik_Tot_abs_Q>
1

> <r_epik_Metal_State_Penalty>
5.45585

> <b_epik_Metal_Only>
0

> <s_lp_Force_Field>
OPLS_2005

> <r_lp_Energy>
17.7001

> <b_lp_Chiralities_Consistent>
1

> <s_lp_Variant>
AV-unprocessed.smi:322-3

> <Gold.Version>
5.8.1

> <Gold.Id.Protein>
6NUR|6NUR_protein|mol2

> <Gold.PLP.Fitness>
56.2045

> <Gold.PLP.PLP>
-48.6558

> <Gold.PLP.part.hbond>
-5.4760

> <Gold.PLP.part.metal>
0.0000

> <Gold.PLP.part.buried>
-5.5564

> <Gold.PLP.part.nonpolar>
-38.1914

> <Gold.PLP.part.repulsive>
0.0191

> <Gold.PLP.ligand.clash>
0.0000

> <Gold.PLP.ligand.torsion>
1.6482

> <Gold.PLP.Chemscore.Hbond>
3.4688

> <Gold.PLP.Chemscore.CHOScore>
0.0000

> <Gold.PLP.Chemscore.Metal>
0.0000

> <Gold.Chemscore.Hbonds>
donor molecule, donor type, donor heavy atom, donor atom, acceptor molecule, acceptor atom, score
      L1  H     1    25       P1  8028  0.89
      L1  H     4    44       P1  8028  2.00
      P1  H  6931  6943       L1    16  0.14
      P1  H  8011  8017       L1     1  0.29

> <Gold.PLP.Chemscore.Internal.Correction>
0.4388

> <Gold.Rescore>
     Score         DG    S(hbond)    S(metal)    S(lipo)     H(rot)  DE(clash)    DE(int)     intcor
     16.98     -19.70       2.21        0.00     129.15       3.24       0.03       2.69       ----

> <Gold.Chemscore.Fitness>
16.9832

> <Gold.Chemscore.DG>
-19.6975

> <Gold.Chemscore.ZeroCoef>
-5.4800

> <Gold.Chemscore.Hbond>
2.2148

> <Gold.Chemscore.Metal>
0.0000

> <Gold.Chemscore.Lipo>
129.1467

> <Gold.Chemscore.Internal_Hbond>
0.0000

> <Gold.Chemscore.DEClash>
0.0286

> <Gold.Chemscore.DEInternal>
2.6857

> <Gold.Chemscore.Rot>
3.2383

> <Gold.Chemscore.Internal.Correction>
   9.000000E+99

> <Gold.Chemscore.Hbonds>
donor molecule, donor type, donor heavy atom, donor atom, acceptor molecule, acceptor atom, score
      L1  H     1    25       P1  8028  0.85
      L1  H     4    44       P1  8028  0.99
      P1  H  6931  6943       L1    16  0.11
      P1  H  8011  8017       L1     1  0.06

> <Gold.Chemscore.Hbond.Weighted>
-7.3974

> <Gold.Chemscore.Metal.Weighted>
-0.0000

> <Gold.Chemscore.Lipo.Weighted>
-15.1102

> <Gold.Chemscore.Internal_Hbond.Weighted>
0.0000

> <Gold.Chemscore.DEClash.Weighted>
0.0286

> <Gold.Chemscore.DEInternal.Weighted>
2.6857

> <Gold.Chemscore.Rot.Weighted>
8.2901

> <Gold.Chemscore.Internal.Correction.Weighted>
   9.000000E+99

> <Gold.Protein.RotatedTorsions>
[ 6907 6896 6895 6894 ] final  -35.67 input  -60.11 | X-H torsion
[ 7974 7965 7964 7962 ] final  -36.28 input  175.53 | X-H torsion
[ 8008 7997 7996 7995 ] final    6.91 input   59.86 | X-H torsion
[ 10167 10162 10161 10158 ] final  154.29 input  -65.29 | X-H torsion
[ 10718 10713 10712 10709 ] final  -51.98 input   66.30 | X-H torsion
[ 10763 10752 10751 10750 ] final  -32.29 input  -60.55 | X-H torsion
[ 11005 11000 10999 10996 ] final  -59.55 input  -57.11 | X-H torsion

> <Gold.Protein.ActiveResidues>
 VAL166  LYS551  ARG553  GLY616  TRP617  ASP618  TYR619  PRO620  LYS621  CYS622 
 ASP623  PHE694  ASN695  SER759  ASP760  ASP761  ALA762  ILE779  LEU786  VAL792 
 PHE793  MET794  SER795  GLU796  ALA797  LYS798  CYS799  TRP800  GLU811  SER814 

> <Gold.Protein.RotatedAtoms>
  151.0368  134.9579  159.8140 H   0  0  0  0  0  0  0  0  0  0  0  0  # atno 6907 bound_to 6896
  152.5356  134.2709  159.8981 H   0  0  0  0  0  0  0  0  0  0  0  0  # atno 6908 bound_to 6896
  151.2720  133.4208  159.2656 H   0  0  0  0  0  0  0  0  0  0  0  0  # atno 6909 bound_to 6896
  146.0675  140.6259  142.8968 H   0  0  0  0  0  0  0  0  0  0  0  0  # atno 7974 bound_to 7965
  154.7471  140.2760  155.6324 H   0  0  0  0  0  0  0  0  0  0  0  0  # atno 8008 bound_to 7997
  156.2887  140.2686  156.2140 H   0  0  0  0  0  0  0  0  0  0  0  0  # atno 8009 bound_to 7997
  155.0185  140.0371  157.2417 H   0  0  0  0  0  0  0  0  0  0  0  0  # atno 8010 bound_to 7997
  139.4824  144.5199  151.7892 H   0  0  0  0  0  0  0  0  0  0  0  0  # atno 10167 bound_to 10162
  156.1661  130.4149  149.9718 H   0  0  0  0  0  0  0  0  0  0  0  0  # atno 10718 bound_to 10713
  153.8113  135.6882  153.4840 H   0  0  0  0  0  0  0  0  0  0  0  0  # atno 10763 bound_to 10752
  153.1627  135.4573  154.9792 H   0  0  0  0  0  0  0  0  0  0  0  0  # atno 10764 bound_to 10752
  154.7966  135.3321  154.7593 H   0  0  0  0  0  0  0  0  0  0  0  0  # atno 10765 bound_to 10752
  141.1252  133.6617  156.5089 H   0  0  0  0  0  0  0  0  0  0  0  0  # atno 11005 bound_to 11000
  144.7211  140.4376  143.7007 LP  0  0  0  0  0  0  0  0  0  0  0  0  # atno 17320 bound_to 7965
  145.6451  139.1556  143.2894 LP  0  0  0  0  0  0  0  0  0  0  0  0  # atno 17321 bound_to 7965
  140.4712  144.1584  150.5918 LP  0  0  0  0  0  0  0  0  0  0  0  0  # atno 17342 bound_to 10162
  140.4380  143.2539  151.9510 LP  0  0  0  0  0  0  0  0  0  0  0  0  # atno 17343 bound_to 10162
  156.7532  130.9123  151.3638 LP  0  0  0  0  0  0  0  0  0  0  0  0  # atno 17370 bound_to 10713
  157.6769  130.9103  150.0172 LP  0  0  0  0  0  0  0  0  0  0  0  0  # atno 17371 bound_to 10713
  140.4385  134.7037  157.4979 LP  0  0  0  0  0  0  0  0  0  0  0  0  # atno 17394 bound_to 11000
  140.0245  134.6498  155.9192 LP  0  0  0  0  0  0  0  0  0  0  0  0  # atno 17395 bound_to 11000

$$$$
