AV-unprocessed.smi:399|AV-procd|sdf|2491|dock2
  -GOLD-   2262022433D 1   1.00000     0.00000
 Structure written by MMmdl.
 47 48  0  0  0  0  0  0  0  0  4 V2000
  149.4458  133.4890  153.3590 C   0  0  0  0  0  0  0  0  0  0  0  0
  148.4109  132.3722  153.6470 C   0  0  0  0  0  0  0  0  0  0  0  0
  149.2285  131.0847  153.9178 C   0  0  0  0  0  0  0  0  0  0  0  0
  147.5750  132.7378  154.9071 C   0  0  0  0  0  0  0  0  0  0  0  0
  148.4052  132.9841  156.0823 N   0  0  0  0  0  0  0  0  0  0  0  0
  147.9272  133.2750  157.3003 C   0  0  0  0  0  0  0  0  0  0  0  0
  146.7229  133.3446  157.5492 O   0  0  0  0  0  0  0  0  0  0  0  0
  148.9773  133.5077  158.3966 C   0  0  0  0  0  0  0  0  0  0  0  0
  148.4233  134.1112  159.6208 N   0  0  0  0  0  0  0  0  0  0  0  0
  147.5753  133.3045  160.4055 C   0  0  0  0  0  0  0  0  0  0  0  0
  147.0073  133.7556  161.5410 C   0  0  0  0  0  0  0  0  0  0  0  0
  146.1383  132.9140  162.3340 N   0  3  0  0  0  0  0  0  0  0  0  0
  145.6241  133.3848  163.3433 O   0  0  0  0  0  0  0  0  0  0  0  0
  145.9421  131.7563  161.9767 O   0  5  0  0  0  0  0  0  0  0  0  0
  147.2956  135.1184  161.9438 C   0  0  0  0  0  0  0  0  0  0  0  0
  148.1047  135.8955  161.1973 C   0  0  0  0  0  0  0  0  0  0  0  0
  148.7210  135.4027  159.9613 C   0  0  0  0  0  0  0  0  0  0  0  0
  149.4590  136.1080  159.2731 O   0  0  0  0  0  0  0  0  0  0  0  0
  147.5282  132.1673  152.4415 N   0  3  0  0  0  0  0  0  0  0  0  0
  146.5079  131.0868  152.5608 C   0  0  0  0  0  0  0  0  0  0  0  0
  145.8018  130.8554  151.2146 C   0  0  0  0  0  0  0  0  0  0  0  0
  145.2008  132.0655  150.7769 O   0  0  0  0  0  0  0  0  0  0  0  0
  146.1681  133.0839  150.5663 C   0  0  0  0  0  0  0  0  0  0  0  0
  146.8900  133.3959  151.8879 C   0  0  0  0  0  0  0  0  0  0  0  0
  150.2261  133.5247  154.1202 H   0  0  0  0  0  0  0  0  0  0  0  0
  148.9927  134.4802  153.3463 H   0  0  0  0  0  0  0  0  0  0  0  0
  149.9434  133.3328  152.4010 H   0  0  0  0  0  0  0  0  0  0  0  0
  150.0153  131.2521  154.6543 H   0  0  0  0  0  0  0  0  0  0  0  0
  149.7130  130.7234  153.0099 H   0  0  0  0  0  0  0  0  0  0  0  0
  148.6130  130.2778  154.3147 H   0  0  0  0  0  0  0  0  0  0  0  0
  146.9789  133.6335  154.7321 H   0  0  0  0  0  0  0  0  0  0  0  0
  146.8762  131.9356  155.1460 H   0  0  0  0  0  0  0  0  0  0  0  0
  149.4066  132.9416  155.9582 H   0  0  0  0  0  0  0  0  0  0  0  0
  149.4510  132.5512  158.6221 H   0  0  0  0  0  0  0  0  0  0  0  0
  149.7776  134.1348  157.9989 H   0  0  0  0  0  0  0  0  0  0  0  0
  147.4186  132.3081  160.0178 H   0  0  0  0  0  0  0  0  0  0  0  0
  146.8653  135.5258  162.8468 H   0  0  0  0  0  0  0  0  0  0  0  0
  148.3050  136.9079  161.5159 H   0  0  0  0  0  0  0  0  0  0  0  0
  146.9564  130.1439  152.8671 H   0  0  0  0  0  0  0  0  0  0  0  0
  145.7636  131.3496  153.3125 H   0  0  0  0  0  0  0  0  0  0  0  0
  146.5021  130.4869  150.4633 H   0  0  0  0  0  0  0  0  0  0  0  0
  145.0258  130.0977  151.3243 H   0  0  0  0  0  0  0  0  0  0  0  0
  146.8782  132.7768  149.7966 H   0  0  0  0  0  0  0  0  0  0  0  0
  145.6641  133.9764  150.1952 H   0  0  0  0  0  0  0  0  0  0  0  0
  146.1744  133.8048  152.6013 H   0  0  0  0  0  0  0  0  0  0  0  0
  147.6244  134.1731  151.6860 H   0  0  0  0  0  0  0  0  0  0  0  0
  148.1587  131.8531  151.7176 H   0  0  0  0  0  0  0  0  0  0  0  0
  1  2  1  0  0  0  0
  1 25  1  0  0  0  0
  1 26  1  0  0  0  0
  1 27  1  0  0  0  0
  2  3  1  0  0  0  0
  2  4  1  0  0  0  0
  2 19  1  0  0  0  0
  3 28  1  0  0  0  0
  3 29  1  0  0  0  0
  3 30  1  0  0  0  0
  4  5  1  0  0  0  0
  4 31  1  0  0  0  0
  4 32  1  0  0  0  0
  5  6  1  0  0  0  0
  5 33  1  0  0  0  0
  6  7  2  0  0  0  0
  6  8  1  0  0  0  0
  8  9  1  0  0  0  0
  8 34  1  0  0  0  0
  8 35  1  0  0  0  0
  9 17  1  0  0  0  0
  9 10  1  0  0  0  0
 10 11  2  0  0  0  0
 10 36  1  0  0  0  0
 11 12  1  0  0  0  0
 11 15  1  0  0  0  0
 12 13  2  0  0  0  0
 12 14  1  0  0  0  0
 15 16  2  0  0  0  0
 15 37  1  0  0  0  0
 16 17  1  0  0  0  0
 16 38  1  0  0  0  0
 17 18  2  0  0  0  0
 19 24  1  0  0  0  0
 19 20  1  0  0  0  0
 19 47  1  0  0  0  0
 20 21  1  0  0  0  0
 20 39  1  0  0  0  0
 20 40  1  0  0  0  0
 21 22  1  0  0  0  0
 21 41  1  0  0  0  0
 21 42  1  0  0  0  0
 22 23  1  0  0  0  0
 23 24  1  0  0  0  0
 23 43  1  0  0  0  0
 23 44  1  0  0  0  0
 24 45  1  0  0  0  0
 24 46  1  0  0  0  0
M  CHG  1  12   1
M  CHG  1  14  -1
M  CHG  1  19   1
M  END
> <s_m_source_file>
AV-unprocessed.smi

> <i_m_source_file_index>
399

> <i_lp_mmshare_version>
43012

> <i_f3d_flags>
0

> <s_epik_input>
W0NIMl0xW0NIMl1PW0NIMl1bQ0gyXU4xQyhbQ0gzXSkoW0NIM10pW0NIMl1bTkhdQyg9TylbQ0gyXW4yW2NIXWMoW04rXSg9TylbTy1dKVtjSF1bY0hdYzI9Tw==

> <s_epik_cmdline>
J2VwaWtfcHl0aG9uJywgJy1waCcsICc3LjAnLCAnLXRuJywgJzgnLCAnLW1hJywgJzIwMCcsICctbWV0YWxfYmluZGluZycsICctaW1hZScsICc8aW5maWxlLm1hZT4nLCAnLW9tYWUnLCAnPG91dGZpbGUubWFlPic=

> <r_lp_tautomer_probability>
1

> <r_epik_Ionization_Penalty>
0.656654

> <r_epik_Ionization_Penalty_Charging>
0.656653

> <r_epik_Ionization_Penalty_Neutral>
9.12373e-08

> <r_epik_State_Penalty>
0.675641

> <r_epik_Charging_Adjusted_Penalty>
1.33229

> <i_epik_Tot_Q>
1

> <i_epik_Tot_abs_Q>
3

> <r_epik_Metal_State_Penalty>
0.675694

> <b_epik_Metal_Only>
0

> <s_lp_Force_Field>
OPLS_2005

> <r_lp_Energy>
37.786

> <b_lp_Chiralities_Consistent>
1

> <s_lp_Variant>
AV-unprocessed.smi:399-2

> <Gold.Version>
5.8.1

> <Gold.Id.Protein>
6NUR|6NUR_protein|mol2

> <Gold.PLP.Fitness>
41.8889

> <Gold.PLP.PLP>
-36.3909

> <Gold.PLP.part.hbond>
-3.0000

> <Gold.PLP.part.metal>
0.0000

> <Gold.PLP.part.buried>
-6.0941

> <Gold.PLP.part.nonpolar>
-28.8651

> <Gold.PLP.part.repulsive>
0.2938

> <Gold.PLP.ligand.clash>
0.0000

> <Gold.PLP.ligand.torsion>
0.3375

> <Gold.PLP.Chemscore.Hbond>
2.0000

> <Gold.PLP.Chemscore.CHOScore>
0.0000

> <Gold.PLP.Chemscore.Metal>
0.0000

> <Gold.Chemscore.Hbonds>
donor molecule, donor type, donor heavy atom, donor atom, acceptor molecule, acceptor atom, score
      L1  H    19    47       P1 10747  1.00
      P1  H  6896  6909       L1    18  0.30

> <Gold.PLP.Chemscore.Internal.Correction>
0.1730

> <Gold.Rescore>
     Score         DG    S(hbond)    S(metal)    S(lipo)     H(rot)  DE(clash)    DE(int)     intcor
     13.98     -15.67       1.84        0.00      82.29       2.18       0.07       1.62       ----

> <Gold.Chemscore.Fitness>
13.9812

> <Gold.Chemscore.DG>
-15.6686

> <Gold.Chemscore.ZeroCoef>
-5.4800

> <Gold.Chemscore.Hbond>
1.8394

> <Gold.Chemscore.Metal>
0.0000

> <Gold.Chemscore.Lipo>
82.2871

> <Gold.Chemscore.Internal_Hbond>
0.0000

> <Gold.Chemscore.DEClash>
0.0708

> <Gold.Chemscore.DEInternal>
1.6165

> <Gold.Chemscore.Rot>
2.1806

> <Gold.Chemscore.Internal.Correction>
   9.000000E+99

> <Gold.Chemscore.Hbonds>
donor molecule, donor type, donor heavy atom, donor atom, acceptor molecule, acceptor atom, score
      L1  H    19    47       P1 10747  0.99

> <Gold.Chemscore.Hbond.Weighted>
-6.1435

> <Gold.Chemscore.Metal.Weighted>
-0.0000

> <Gold.Chemscore.Lipo.Weighted>
-9.6276

> <Gold.Chemscore.Internal_Hbond.Weighted>
0.0000

> <Gold.Chemscore.DEClash.Weighted>
0.0708

> <Gold.Chemscore.DEInternal.Weighted>
1.6165

> <Gold.Chemscore.Rot.Weighted>
5.5825

> <Gold.Chemscore.Internal.Correction.Weighted>
   9.000000E+99

> <Gold.Protein.RotatedTorsions>
[ 6907 6896 6895 6894 ] final   72.22 input  -60.11 | X-H torsion
[ 7974 7965 7964 7962 ] final -100.43 input  175.53 | X-H torsion
[ 8008 7997 7996 7995 ] final   74.05 input   59.86 | X-H torsion
[ 10167 10162 10161 10158 ] final  160.73 input  -65.29 | X-H torsion
[ 10718 10713 10712 10709 ] final -130.88 input   66.30 | X-H torsion
[ 10763 10752 10751 10750 ] final  -90.12 input  -60.55 | X-H torsion
[ 11005 11000 10999 10996 ] final  -42.30 input  -57.11 | X-H torsion

> <Gold.Protein.ActiveResidues>
 VAL166  LYS551  ARG553  GLY616  TRP617  ASP618  TYR619  PRO620  LYS621  CYS622 
 ASP623  PHE694  ASN695  SER759  ASP760  ASP761  ALA762  ILE779  LEU786  VAL792 
 PHE793  MET794  SER795  GLU796  ALA797  LYS798  CYS799  TRP800  GLU811  SER814 

> <Gold.Protein.RotatedAtoms>
  152.4855  134.4604  159.9602 H   0  0  0  0  0  0  0  0  0  0  0  0  # atno 6907 bound_to 6896
  151.4601  133.3589  159.2815 H   0  0  0  0  0  0  0  0  0  0  0  0  # atno 6908 bound_to 6896
  150.8962  134.8396  159.7389 H   0  0  0  0  0  0  0  0  0  0  0  0  # atno 6909 bound_to 6896
  145.2947  140.9362  143.2858 H   0  0  0  0  0  0  0  0  0  0  0  0  # atno 7974 bound_to 7965
  155.7926  140.3479  155.5358 H   0  0  0  0  0  0  0  0  0  0  0  0  # atno 8008 bound_to 7997
  155.8618  140.0972  157.1629 H   0  0  0  0  0  0  0  0  0  0  0  0  # atno 8009 bound_to 7997
  154.4012  140.1357  156.3957 H   0  0  0  0  0  0  0  0  0  0  0  0  # atno 8010 bound_to 7997
  139.4842  144.4605  151.8711 H   0  0  0  0  0  0  0  0  0  0  0  0  # atno 10167 bound_to 10162
  156.2188  130.6965  151.0733 H   0  0  0  0  0  0  0  0  0  0  0  0  # atno 10718 bound_to 10713
  154.6624  135.5316  153.8035 H   0  0  0  0  0  0  0  0  0  0  0  0  # atno 10763 bound_to 10752
  153.0450  135.6509  154.0851 H   0  0  0  0  0  0  0  0  0  0  0  0  # atno 10764 bound_to 10752
  154.0758  135.2951  155.3279 H   0  0  0  0  0  0  0  0  0  0  0  0  # atno 10765 bound_to 10752
  141.0306  133.6822  156.2576 H   0  0  0  0  0  0  0  0  0  0  0  0  # atno 11005 bound_to 11000
  144.9143  139.4489  143.6572 LP  0  0  0  0  0  0  0  0  0  0  0  0  # atno 17320 bound_to 7965
  146.3173  139.7969  142.8973 LP  0  0  0  0  0  0  0  0  0  0  0  0  # atno 17321 bound_to 7965
  140.4067  144.2422  150.5890 LP  0  0  0  0  0  0  0  0  0  0  0  0  # atno 17342 bound_to 10162
  140.5005  143.2319  151.8685 LP  0  0  0  0  0  0  0  0  0  0  0  0  # atno 17343 bound_to 10162
  157.7077  131.0749  150.6610 LP  0  0  0  0  0  0  0  0  0  0  0  0  # atno 17370 bound_to 10713
  156.6672  130.4529  149.5668 LP  0  0  0  0  0  0  0  0  0  0  0  0  # atno 17371 bound_to 10713
  140.6413  134.5163  157.5570 LP  0  0  0  0  0  0  0  0  0  0  0  0  # atno 17394 bound_to 11000
  139.9205  134.8158  156.1226 LP  0  0  0  0  0  0  0  0  0  0  0  0  # atno 17395 bound_to 11000

$$$$
