AV-unprocessed.smi:2168|AV-procd|sdf|8820|dock1
  -GOLD-   2272012 13D 1   1.00000     0.00000
 Structure written by MMmdl.
 45 46  0  0  0  0  0  0  0  0  2 V2000
  151.9568  143.0125  158.9300 C   0  0  0  0  0  0  0  0  0  0  0  0
  151.4087  141.5790  159.0024 C   0  0  0  0  0  0  0  0  0  0  0  0
  152.4750  140.5678  159.1505 N   0  0  0  0  0  0  0  0  0  0  0  0
  153.4560  140.7731  160.2362 C   0  0  0  0  0  0  0  0  0  0  0  0
  152.8034  141.1138  161.5857 C   0  0  0  0  0  0  0  0  0  0  0  0
  152.4189  139.0689  158.2530 S   0  0  0  0  0  0  0  0  0  0  0  0
  153.3731  138.1761  158.9289 O   0  0  0  0  0  0  0  0  0  0  0  0
  151.0053  138.6530  158.2223 O   0  0  0  0  0  0  0  0  0  0  0  0
  153.0063  139.6141  156.8344 N   0  5  0  0  0  0  0  0  0  0  0  0
  152.3172  139.3863  155.5732 C   0  0  0  0  0  0  0  0  0  0  0  0
  150.9796  140.1104  155.5371 C   0  0  0  0  0  0  0  0  0  0  0  0
  150.9079  141.5145  155.6643 C   0  0  0  0  0  0  0  0  0  0  0  0
  149.6460  142.1403  155.6389 C   0  0  0  0  0  0  0  0  0  0  0  0
  148.4832  141.3485  155.4851 C   0  0  0  0  0  0  0  0  0  0  0  0
  147.2065  141.9526  155.4665 N   0  0  0  0  0  0  0  0  0  0  0  0
  146.1083  141.2616  156.1405 C   0  0  0  0  0  0  0  0  0  0  0  0
  144.8960  142.1963  156.2870 C   0  0  0  0  0  0  0  0  0  0  0  0
  144.5266  142.7077  155.0109 O   0  0  0  0  0  0  0  0  0  0  0  0
  145.5740  143.4728  154.4244 C   0  0  0  0  0  0  0  0  0  0  0  0
  146.8119  142.5846  154.2101 C   0  0  0  0  0  0  0  0  0  0  0  0
  148.5558  139.9998  155.3647 N   0  0  0  0  0  0  0  0  0  0  0  0
  149.7668  139.4021  155.3899 C   0  0  0  0  0  0  0  0  0  0  0  0
  151.1519  143.7218  158.7389 H   0  0  0  0  0  0  0  0  0  0  0  0
  152.6928  143.1266  158.1348 H   0  0  0  0  0  0  0  0  0  0  0  0
  152.4296  143.3052  159.8672 H   0  0  0  0  0  0  0  0  0  0  0  0
  150.7217  141.4936  159.8444 H   0  0  0  0  0  0  0  0  0  0  0  0
  150.8161  141.3606  158.1137 H   0  0  0  0  0  0  0  0  0  0  0  0
  154.0684  139.8792  160.3494 H   0  0  0  0  0  0  0  0  0  0  0  0
  154.1372  141.5727  159.9448 H   0  0  0  0  0  0  0  0  0  0  0  0
  153.5578  141.1709  162.3702 H   0  0  0  0  0  0  0  0  0  0  0  0
  152.0792  140.3568  161.8821 H   0  0  0  0  0  0  0  0  0  0  0  0
  152.2919  142.0755  161.5591 H   0  0  0  0  0  0  0  0  0  0  0  0
  152.9090  139.7288  154.7237 H   0  0  0  0  0  0  0  0  0  0  0  0
  152.1375  138.3256  155.3950 H   0  0  0  0  0  0  0  0  0  0  0  0
  151.7961  142.1189  155.7901 H   0  0  0  0  0  0  0  0  0  0  0  0
  149.5887  143.2116  155.7588 H   0  0  0  0  0  0  0  0  0  0  0  0
  145.8314  140.3772  155.5652 H   0  0  0  0  0  0  0  0  0  0  0  0
  146.4222  140.9235  157.1288 H   0  0  0  0  0  0  0  0  0  0  0  0
  144.0517  141.6517  156.7096 H   0  0  0  0  0  0  0  0  0  0  0  0
  145.1187  143.0178  156.9700 H   0  0  0  0  0  0  0  0  0  0  0  0
  145.2300  143.8733  153.4708 H   0  0  0  0  0  0  0  0  0  0  0  0
  145.8145  144.3270  155.0598 H   0  0  0  0  0  0  0  0  0  0  0  0
  147.6122  143.1917  153.7901 H   0  0  0  0  0  0  0  0  0  0  0  0
  146.5896  141.8052  153.4801 H   0  0  0  0  0  0  0  0  0  0  0  0
  149.7461  138.3255  155.2912 H   0  0  0  0  0  0  0  0  0  0  0  0
  1  2  1  0  0  0  0
  1 23  1  0  0  0  0
  1 24  1  0  0  0  0
  1 25  1  0  0  0  0
  2  3  1  0  0  0  0
  2 26  1  0  0  0  0
  2 27  1  0  0  0  0
  3  4  1  0  0  0  0
  3  6  1  0  0  0  0
  4  5  1  0  0  0  0
  4 28  1  0  0  0  0
  4 29  1  0  0  0  0
  5 30  1  0  0  0  0
  5 31  1  0  0  0  0
  5 32  1  0  0  0  0
  6  7  2  0  0  0  0
  6  8  2  0  0  0  0
  6  9  1  0  0  0  0
  9 10  1  0  0  0  0
 10 11  1  0  0  0  0
 10 33  1  0  0  0  0
 10 34  1  0  0  0  0
 11 22  1  0  0  0  0
 11 12  2  0  0  0  0
 12 13  1  0  0  0  0
 12 35  1  0  0  0  0
 13 14  2  0  0  0  0
 13 36  1  0  0  0  0
 14 15  1  0  0  0  0
 14 21  1  0  0  0  0
 15 20  1  0  0  0  0
 15 16  1  0  0  0  0
 16 17  1  0  0  0  0
 16 37  1  0  0  0  0
 16 38  1  0  0  0  0
 17 18  1  0  0  0  0
 17 39  1  0  0  0  0
 17 40  1  0  0  0  0
 18 19  1  0  0  0  0
 19 20  1  0  0  0  0
 19 41  1  0  0  0  0
 19 42  1  0  0  0  0
 20 43  1  0  0  0  0
 20 44  1  0  0  0  0
 21 22  2  0  0  0  0
 22 45  1  0  0  0  0
M  CHG  1   9  -1
M  END
> <s_m_source_file>
AV-unprocessed.smi

> <i_m_source_file_index>
2168

> <i_lp_mmshare_version>
43012

> <i_f3d_flags>
0

> <s_epik_input>
W0NIM11bQ0gyXU4oW0NIMl1bQ0gzXSlTKD1PKSg9TylbTkhdW0NIMl1jMVtjSF1bY0hdYyhuW2NIXTEpTjJbQ0gyXVtDSDJdT1tDSDJdW0NIMl0y

> <s_epik_cmdline>
J2VwaWtfcHl0aG9uJywgJy1waCcsICc3LjAnLCAnLXRuJywgJzgnLCAnLW1hJywgJzIwMCcsICctbWV0YWxfYmluZGluZycsICctaW1hZScsICc8aW5maWxlLm1hZT4nLCAnLW9tYWUnLCAnPG91dGZpbGUubWFlPic=

> <r_lp_tautomer_probability>
1

> <r_epik_Ionization_Penalty>
2.49252

> <r_epik_Ionization_Penalty_Charging>
2.41478

> <r_epik_Ionization_Penalty_Neutral>
0.0777351

> <r_epik_State_Penalty>
2.68884

> <r_epik_Charging_Adjusted_Penalty>
5.10362

> <i_epik_Tot_Q>
-1

> <i_epik_Tot_abs_Q>
1

> <r_epik_Metal_State_Penalty>
0.584574

> <b_epik_Metal_Only>
0

> <s_lp_Force_Field>
OPLS_2005

> <r_lp_Energy>
16.7

> <b_lp_Chiralities_Consistent>
1

> <s_lp_Variant>
AV-unprocessed.smi:2168-3

> <Gold.Version>
5.8.1

> <Gold.Id.Protein>
6NUR|6NUR_protein|mol2

> <Gold.PLP.Fitness>
41.9346

> <Gold.PLP.PLP>
-37.0609

> <Gold.PLP.part.hbond>
-1.0636

> <Gold.PLP.part.metal>
0.0000

> <Gold.PLP.part.buried>
-3.2607

> <Gold.PLP.part.nonpolar>
-32.4680

> <Gold.PLP.part.repulsive>
0.4346

> <Gold.PLP.ligand.clash>
0.0000

> <Gold.PLP.ligand.torsion>
2.4251

> <Gold.PLP.Chemscore.Hbond>
2.0000

> <Gold.PLP.Chemscore.CHOScore>
0.0000

> <Gold.PLP.Chemscore.Metal>
0.0000

> <Gold.Chemscore.Hbonds>
donor molecule, donor type, donor heavy atom, donor atom, acceptor molecule, acceptor atom, score
      P1  H  7997  8009       L1     9  1.66

> <Gold.PLP.Chemscore.Internal.Correction>
3.7240

> <Gold.Rescore>
     Score         DG    S(hbond)    S(metal)    S(lipo)     H(rot)  DE(clash)    DE(int)     intcor
     11.62     -14.09       0.91        0.00      83.87       1.66       0.07       2.39       ----

> <Gold.Chemscore.Fitness>
11.6235

> <Gold.Chemscore.DG>
-14.0872

> <Gold.Chemscore.ZeroCoef>
-5.4800

> <Gold.Chemscore.Hbond>
0.9146

> <Gold.Chemscore.Metal>
0.0000

> <Gold.Chemscore.Lipo>
83.8693

> <Gold.Chemscore.Internal_Hbond>
0.0000

> <Gold.Chemscore.DEClash>
0.0741

> <Gold.Chemscore.DEInternal>
2.3896

> <Gold.Chemscore.Rot>
1.6642

> <Gold.Chemscore.Internal.Correction>
   9.000000E+99

> <Gold.Chemscore.Hbonds>
donor molecule, donor type, donor heavy atom, donor atom, acceptor molecule, acceptor atom, score
      P1  H  7997  8009       L1     9  0.45

> <Gold.Chemscore.Hbond.Weighted>
-3.0549

> <Gold.Chemscore.Metal.Weighted>
-0.0000

> <Gold.Chemscore.Lipo.Weighted>
-9.8127

> <Gold.Chemscore.Internal_Hbond.Weighted>
0.0000

> <Gold.Chemscore.DEClash.Weighted>
0.0741

> <Gold.Chemscore.DEInternal.Weighted>
2.3896

> <Gold.Chemscore.Rot.Weighted>
4.2604

> <Gold.Chemscore.Internal.Correction.Weighted>
   9.000000E+99

> <Gold.Protein.RotatedTorsions>
[ 6907 6896 6895 6894 ] final -112.02 input  -60.11 | X-H torsion
[ 7974 7965 7964 7962 ] final -142.79 input  175.53 | X-H torsion
[ 8008 7997 7996 7995 ] final -170.52 input   59.86 | X-H torsion
[ 10167 10162 10161 10158 ] final -137.04 input  -65.29 | X-H torsion
[ 10718 10713 10712 10709 ] final   21.59 input   66.30 | X-H torsion
[ 10763 10752 10751 10750 ] final  -42.24 input  -60.55 | X-H torsion
[ 11005 11000 10999 10996 ] final  -72.70 input  -57.11 | X-H torsion

> <Gold.Protein.ActiveResidues>
 VAL166  LYS551  ARG553  GLY616  TRP617  ASP618  TYR619  PRO620  LYS621  CYS622 
 ASP623  PHE694  ASN695  SER759  ASP760  ASP761  ALA762  ILE779  LEU786  VAL792 
 PHE793  MET794  SER795  GLU796  ALA797  LYS798  CYS799  TRP800  GLU811  SER814 

> <Gold.Protein.RotatedAtoms>
  150.7729  133.9151  159.3380 H   0  0  0  0  0  0  0  0  0  0  0  0  # atno 6907 bound_to 6896
  151.7033  135.0924  160.0264 H   0  0  0  0  0  0  0  0  0  0  0  0  # atno 6908 bound_to 6896
  152.3754  133.6436  159.6155 H   0  0  0  0  0  0  0  0  0  0  0  0  # atno 6909 bound_to 6896
  144.8417  140.5915  143.5448 H   0  0  0  0  0  0  0  0  0  0  0  0  # atno 7974 bound_to 7965
  155.9195  140.1071  157.1218 H   0  0  0  0  0  0  0  0  0  0  0  0  # atno 8008 bound_to 7997
  154.4052  140.1259  156.4725 H   0  0  0  0  0  0  0  0  0  0  0  0  # atno 8009 bound_to 7997
  155.7214  140.3469  155.5020 H   0  0  0  0  0  0  0  0  0  0  0  0  # atno 8010 bound_to 7997
  139.8617  143.7068  152.2649 H   0  0  0  0  0  0  0  0  0  0  0  0  # atno 10167 bound_to 10162
  157.1406  130.6631  149.5980 H   0  0  0  0  0  0  0  0  0  0  0  0  # atno 10718 bound_to 10713
  153.9758  135.6723  153.4748 H   0  0  0  0  0  0  0  0  0  0  0  0  # atno 10763 bound_to 10752
  153.0771  135.4943  154.8424 H   0  0  0  0  0  0  0  0  0  0  0  0  # atno 10764 bound_to 10752
  154.7193  135.3113  154.9035 H   0  0  0  0  0  0  0  0  0  0  0  0  # atno 10765 bound_to 10752
  141.1612  133.6855  156.7099 H   0  0  0  0  0  0  0  0  0  0  0  0  # atno 11005 bound_to 11000
  145.4680  139.1506  143.3830 LP  0  0  0  0  0  0  0  0  0  0  0  0  # atno 17320 bound_to 7965
  146.2708  140.4812  142.8815 LP  0  0  0  0  0  0  0  0  0  0  0  0  # atno 17321 bound_to 7965
  139.7367  144.7569  151.0716 LP  0  0  0  0  0  0  0  0  0  0  0  0  # atno 17342 bound_to 10162
  140.7774  143.5022  150.9757 LP  0  0  0  0  0  0  0  0  0  0  0  0  # atno 17343 bound_to 10162
  155.9789  130.4779  150.6685 LP  0  0  0  0  0  0  0  0  0  0  0  0  # atno 17370 bound_to 10713
  157.4311  131.0849  151.1038 LP  0  0  0  0  0  0  0  0  0  0  0  0  # atno 17371 bound_to 10713
  140.2895  134.8252  157.4004 LP  0  0  0  0  0  0  0  0  0  0  0  0  # atno 17394 bound_to 11000
  140.1360  134.5033  155.8068 LP  0  0  0  0  0  0  0  0  0  0  0  0  # atno 17395 bound_to 11000

$$$$
