AV-unprocessed.smi:1372|AV-procd|sdf|5585|dock3
  -GOLD-   22720 5183D 1   1.00000     0.00000
 Structure written by MMmdl.
 42 44  0  0  0  0  0  0  0  0  2 V2000
  150.1668  135.4851  155.2272 C   0  0  0  0  0  0  0  0  0  0  0  0
  151.3299  136.5204  156.2095 S   0  0  0  0  0  0  0  0  0  0  0  0
  150.5649  137.1610  157.2907 O   0  0  0  0  0  0  0  0  0  0  0  0
  152.5107  135.7058  156.5328 O   0  0  0  0  0  0  0  0  0  0  0  0
  151.8349  137.8163  154.9953 C   0  0  0  0  0  0  0  0  0  0  0  0
  150.6736  138.6897  154.6407 C   0  0  0  0  0  0  0  0  0  0  0  0
  149.6121  138.3263  153.8655 N   0  3  0  0  0  0  0  0  0  0  0  0
  148.7192  139.3924  153.7538 C   0  0  0  0  0  0  0  0  0  0  0  0
  147.5102  139.5019  153.0736 C   0  0  0  0  0  0  0  0  0  0  0  0
  146.8414  140.7401  153.1676 C   0  0  0  0  0  0  0  0  0  0  0  0
  147.3765  141.8088  153.9159 C   0  0  0  0  0  0  0  0  0  0  0  0
  148.6035  141.6859  154.6009 C   0  0  0  0  0  0  0  0  0  0  0  0
  149.2586  140.4588  154.5009 C   0  0  0  0  0  0  0  0  0  0  0  0
  150.4633  139.9819  155.0288 N   0  0  0  0  0  0  0  0  0  0  0  0
  151.2737  140.8754  155.8714 C   0  0  0  0  0  0  0  0  0  0  0  0
  150.4517  141.5630  156.9787 C   0  0  1  0  0  0  0  0  0  0  0  0
  149.6697  140.6015  157.6613 O   0  0  0  0  0  0  0  0  0  0  0  0
  151.3503  142.3507  157.9182 C   0  0  0  0  0  0  0  0  0  0  0  0
  151.2782  143.7605  157.9710 C   0  0  0  0  0  0  0  0  0  0  0  0
  152.1077  144.4808  158.8525 C   0  0  0  0  0  0  0  0  0  0  0  0
  153.0102  143.7963  159.6888 C   0  0  0  0  0  0  0  0  0  0  0  0
  153.0825  142.3908  159.6440 C   0  0  0  0  0  0  0  0  0  0  0  0
  152.2546  141.6700  158.7615 C   0  0  0  0  0  0  0  0  0  0  0  0
  149.8100  134.6607  155.8442 H   0  0  0  0  0  0  0  0  0  0  0  0
  150.6810  135.0826  154.3547 H   0  0  0  0  0  0  0  0  0  0  0  0
  149.3160  136.0855  154.9060 H   0  0  0  0  0  0  0  0  0  0  0  0
  152.6244  138.4194  155.4436 H   0  0  0  0  0  0  0  0  0  0  0  0
  152.2485  137.3328  154.1108 H   0  0  0  0  0  0  0  0  0  0  0  0
  147.0984  138.6841  152.5004 H   0  0  0  0  0  0  0  0  0  0  0  0
  145.8988  140.8723  152.6564 H   0  0  0  0  0  0  0  0  0  0  0  0
  146.8350  142.7424  153.9654 H   0  0  0  0  0  0  0  0  0  0  0  0
  149.0045  142.5106  155.1715 H   0  0  0  0  0  0  0  0  0  0  0  0
  152.0811  140.2870  156.3068 H   0  0  0  0  0  0  0  0  0  0  0  0
  151.7536  141.6140  155.2282 H   0  0  0  0  0  0  0  0  0  0  0  0
  149.7501  142.2595  156.5179 H   0  0  0  0  0  0  0  0  0  0  0  0
  150.1080  139.7657  157.6052 H   0  0  0  0  0  0  0  0  0  0  0  0
  150.5848  144.2946  157.3378 H   0  0  0  0  0  0  0  0  0  0  0  0
  152.0502  145.5587  158.8882 H   0  0  0  0  0  0  0  0  0  0  0  0
  153.6451  144.3488  160.3657 H   0  0  0  0  0  0  0  0  0  0  0  0
  153.7725  141.8653  160.2877 H   0  0  0  0  0  0  0  0  0  0  0  0
  152.3161  140.5918  158.7371 H   0  0  0  0  0  0  0  0  0  0  0  0
  149.5123  137.4146  153.4375 H   0  0  0  0  0  0  0  0  0  0  0  0
  1  2  1  0  0  0  0
  1 24  1  0  0  0  0
  1 25  1  0  0  0  0
  1 26  1  0  0  0  0
  2  3  2  0  0  0  0
  2  4  2  0  0  0  0
  2  5  1  0  0  0  0
  5  6  1  0  0  0  0
  5 27  1  0  0  0  0
  5 28  1  0  0  0  0
  6 14  1  0  0  0  0
  6  7  2  0  0  0  0
  7  8  1  0  0  0  0
  7 42  1  0  0  0  0
  8 13  2  0  0  0  0
  8  9  1  0  0  0  0
  9 10  2  0  0  0  0
  9 29  1  0  0  0  0
 10 11  1  0  0  0  0
 10 30  1  0  0  0  0
 11 12  2  0  0  0  0
 11 31  1  0  0  0  0
 12 13  1  0  0  0  0
 12 32  1  0  0  0  0
 13 14  1  0  0  0  0
 14 15  1  0  0  0  0
 15 16  1  0  0  0  0
 15 33  1  0  0  0  0
 15 34  1  0  0  0  0
 16 17  1  0  0  0  0
 16 18  1  0  0  0  0
 16 35  1  0  0  0  0
 17 36  1  0  0  0  0
 18 23  1  0  0  0  0
 18 19  2  0  0  0  0
 19 20  1  0  0  0  0
 19 37  1  0  0  0  0
 20 21  2  0  0  0  0
 20 38  1  0  0  0  0
 21 22  1  0  0  0  0
 21 39  1  0  0  0  0
 22 23  2  0  0  0  0
 22 40  1  0  0  0  0
 23 41  1  0  0  0  0
M  CHG  1   7   1
M  END
> <s_m_source_file>
AV-unprocessed.smi

> <i_m_source_file_index>
1372

> <i_lp_mmshare_version>
43012

> <i_f3d_flags>
0

> <s_epik_input>
W2NIXTFbY0hdW2NIXVtjSF1jKGMxMiluKGMobjIpW0NIMl1TKD1PKSg9TylbQ0gzXSlbQ0gyXVtDQEhdKFtPSF0pYzNbY0hdW2NIXVtjSF1bY0hdW2NIXTM=

> <s_epik_cmdline>
J2VwaWtfcHl0aG9uJywgJy1waCcsICc3LjAnLCAnLXRuJywgJzgnLCAnLW1hJywgJzIwMCcsICctbWV0YWxfYmluZGluZycsICctaW1hZScsICc8aW5maWxlLm1hZT4nLCAnLW9tYWUnLCAnPG91dGZpbGUubWFlPic=

> <r_epik_Ionization_Penalty>
2.1801

> <r_epik_Ionization_Penalty_Charging>
2.1801

> <r_epik_Ionization_Penalty_Neutral>
1.34362e-06

> <r_epik_State_Penalty>
2.32206

> <r_epik_Charging_Adjusted_Penalty>
4.50216

> <i_epik_Tot_Q>
1

> <i_epik_Tot_abs_Q>
1

> <r_epik_Metal_State_Penalty>
6.40294

> <b_epik_Metal_Only>
0

> <s_lp_Force_Field>
OPLS_2005

> <r_lp_Energy>
11.7857

> <b_lp_Chiralities_Consistent>
1

> <s_lp_Variant>
AV-unprocessed.smi:1372-4

> <Gold.Version>
5.8.1

> <Gold.Id.Protein>
6NUR|6NUR_protein|mol2

> <Gold.PLP.Fitness>
57.9320

> <Gold.PLP.PLP>
-49.6286

> <Gold.PLP.part.hbond>
-2.4968

> <Gold.PLP.part.metal>
0.0000

> <Gold.PLP.part.buried>
1.4143

> <Gold.PLP.part.nonpolar>
-48.1730

> <Gold.PLP.part.repulsive>
0.0495

> <Gold.PLP.ligand.clash>
0.0000

> <Gold.PLP.ligand.torsion>
0.4464

> <Gold.PLP.Chemscore.Hbond>
3.0000

> <Gold.PLP.Chemscore.CHOScore>
0.0000

> <Gold.PLP.Chemscore.Metal>
0.0000

> <Gold.Chemscore.Hbonds>
donor molecule, donor type, donor heavy atom, donor atom, acceptor molecule, acceptor atom, score
      L1  H     7    42       P1  7948  2.00
      P1  H 10752 10763       L1     4  1.00

> <Gold.PLP.Chemscore.Internal.Correction>
0.1962

> <Gold.Rescore>
     Score         DG    S(hbond)    S(metal)    S(lipo)     H(rot)  DE(clash)    DE(int)     intcor
     20.05     -20.76       1.80        0.00     131.56       2.40       0.29       0.42       ----

> <Gold.Chemscore.Fitness>
20.0544

> <Gold.Chemscore.DG>
-20.7607

> <Gold.Chemscore.ZeroCoef>
-5.4800

> <Gold.Chemscore.Hbond>
1.8022

> <Gold.Chemscore.Metal>
0.0000

> <Gold.Chemscore.Lipo>
131.5626

> <Gold.Chemscore.Internal_Hbond>
0.0000

> <Gold.Chemscore.DEClash>
0.2861

> <Gold.Chemscore.DEInternal>
0.4202

> <Gold.Chemscore.Rot>
2.3951

> <Gold.Chemscore.Internal.Correction>
   9.000000E+99

> <Gold.Chemscore.Hbonds>
donor molecule, donor type, donor heavy atom, donor atom, acceptor molecule, acceptor atom, score
      L1  H     7    42       P1  7948  0.82
      P1  H 10752 10763       L1     4  0.72

> <Gold.Chemscore.Hbond.Weighted>
-6.0193

> <Gold.Chemscore.Metal.Weighted>
-0.0000

> <Gold.Chemscore.Lipo.Weighted>
-15.3928

> <Gold.Chemscore.Internal_Hbond.Weighted>
0.0000

> <Gold.Chemscore.DEClash.Weighted>
0.2861

> <Gold.Chemscore.DEInternal.Weighted>
0.4202

> <Gold.Chemscore.Rot.Weighted>
6.1314

> <Gold.Chemscore.Internal.Correction.Weighted>
   9.000000E+99

> <Gold.Protein.RotatedTorsions>
[ 6907 6896 6895 6894 ] final  122.62 input  -60.11 | X-H torsion
[ 7974 7965 7964 7962 ] final  -71.04 input  175.53 | X-H torsion
[ 8008 7997 7996 7995 ] final   72.23 input   59.86 | X-H torsion
[ 10167 10162 10161 10158 ] final -104.61 input  -65.29 | X-H torsion
[ 10718 10713 10712 10709 ] final   55.21 input   66.30 | X-H torsion
[ 10763 10752 10751 10750 ] final  103.79 input  -60.55 | X-H torsion
[ 11005 11000 10999 10996 ] final  100.53 input  -57.11 | X-H torsion

> <Gold.Protein.ActiveResidues>
 VAL166  LYS551  ARG553  GLY616  TRP617  ASP618  TYR619  PRO620  LYS621  CYS622 
 ASP623  PHE694  ASN695  SER759  ASP760  ASP761  ALA762  ILE779  LEU786  VAL792 
 PHE793  MET794  SER795  GLU796  ALA797  LYS798  CYS799  TRP800  GLU811  SER814 

> <Gold.Protein.RotatedAtoms>
  152.4228  133.7145  159.6497 H   0  0  0  0  0  0  0  0  0  0  0  0  # atno 6907 bound_to 6896
  150.8104  133.8421  159.3191 H   0  0  0  0  0  0  0  0  0  0  0  0  # atno 6908 bound_to 6896
  151.6132  135.1040  160.0137 H   0  0  0  0  0  0  0  0  0  0  0  0  # atno 6909 bound_to 6896
  145.6832  140.9180  143.0821 H   0  0  0  0  0  0  0  0  0  0  0  0  # atno 7974 bound_to 7965
  155.7657  140.3485  155.5221 H   0  0  0  0  0  0  0  0  0  0  0  0  # atno 8008 bound_to 7997
  155.8870  140.1011  157.1466 H   0  0  0  0  0  0  0  0  0  0  0  0  # atno 8009 bound_to 7997
  154.4030  140.1311  156.4256 H   0  0  0  0  0  0  0  0  0  0  0  0  # atno 8010 bound_to 7997
  140.2075  143.3772  152.1078 H   0  0  0  0  0  0  0  0  0  0  0  0  # atno 10167 bound_to 10162
  157.5325  130.8640  149.8707 H   0  0  0  0  0  0  0  0  0  0  0  0  # atno 10718 bound_to 10713
  153.3573  135.3965  155.1692 H   0  0  0  0  0  0  0  0  0  0  0  0  # atno 10763 bound_to 10752
  154.8673  135.3671  154.5144 H   0  0  0  0  0  0  0  0  0  0  0  0  # atno 10764 bound_to 10752
  153.5601  135.7081  153.5611 H   0  0  0  0  0  0  0  0  0  0  0  0  # atno 10765 bound_to 10752
  139.8771  134.9144  156.4771 H   0  0  0  0  0  0  0  0  0  0  0  0  # atno 11005 bound_to 11000
  144.7019  139.8724  143.7441 LP  0  0  0  0  0  0  0  0  0  0  0  0  # atno 17320 bound_to 7965
  146.0946  139.3937  143.0385 LP  0  0  0  0  0  0  0  0  0  0  0  0  # atno 17321 bound_to 7965
  139.5193  144.7017  151.5473 LP  0  0  0  0  0  0  0  0  0  0  0  0  # atno 17342 bound_to 10162
  140.6347  143.9007  150.6637 LP  0  0  0  0  0  0  0  0  0  0  0  0  # atno 17343 bound_to 10162
  156.0433  130.3733  150.1380 LP  0  0  0  0  0  0  0  0  0  0  0  0  # atno 17370 bound_to 10713
  156.9564  130.9791  151.3488 LP  0  0  0  0  0  0  0  0  0  0  0  0  # atno 17371 bound_to 10713
  140.8754  133.7957  155.9409 LP  0  0  0  0  0  0  0  0  0  0  0  0  # atno 17394 bound_to 11000
  140.8909  134.2496  157.5095 LP  0  0  0  0  0  0  0  0  0  0  0  0  # atno 17395 bound_to 11000

$$$$
