AV-unprocessed.smi:153|AV-procd|sdf|1253|dock6
  -GOLD-   2262018483D 1   1.00000     0.00000
 Structure written by MMmdl.
 60 63  0  0  0  0  0  0  0  0  2 V2000
  153.5461  141.5845  159.2209 C   0  0  0  0  0  0  0  0  0  0  0  0
  152.3320  142.3408  159.7839 C   0  0  1  0  0  0  0  0  0  0  0  0
  152.8846  143.4813  160.4451 O   0  0  0  0  0  0  0  0  0  0  0  0
  152.1933  144.6624  160.0717 C   0  0  0  0  0  0  0  0  0  0  0  0
  151.7105  144.3656  158.6599 C   0  0  0  0  0  0  0  0  0  0  0  0
  151.3177  142.8979  158.7462 C   0  0  2  0  0  0  0  0  0  0  0  0
  150.0256  142.8445  159.3269 O   0  0  0  0  0  0  0  0  0  0  0  0
  151.2425  142.2221  157.3482 C   0  0  0  0  0  0  0  0  0  0  0  0
  151.0661  140.7721  157.3498 N   0  0  0  0  0  0  0  0  0  0  0  0
  151.1391  139.9108  158.4226 C   0  0  0  0  0  0  0  0  0  0  0  0
  150.9095  138.6569  158.1477 N   0  0  0  0  0  0  0  0  0  0  0  0
  150.6345  138.6427  156.7855 C   0  0  0  0  0  0  0  0  0  0  0  0
  150.2857  137.6280  155.8424 C   0  0  0  0  0  0  0  0  0  0  0  0
  150.1584  136.3042  156.1330 N   0  0  0  0  0  0  0  0  0  0  0  0
  149.4299  135.8943  157.3270 C   0  0  0  0  0  0  0  0  0  0  0  0
  150.4238  135.3019  155.0984 C   0  0  0  0  0  0  0  0  0  0  0  0
  149.8784  133.9066  155.4651 C   0  0  2  0  0  0  0  0  0  0  0  0
  150.9565  133.1658  156.0009 O   0  0  0  0  0  0  0  0  0  0  0  0
  149.3148  133.1355  154.2503 C   0  0  0  0  0  0  0  0  0  0  0  0
  148.1637  133.8241  153.6144 N   0  3  0  0  0  0  0  0  0  0  0  0
  147.5663  133.0587  152.4914 C   0  0  0  0  0  0  0  0  0  0  0  0
  146.4029  133.8450  151.8639 C   0  0  0  0  0  0  0  0  0  0  0  0
  145.4328  134.1399  152.8608 O   0  0  0  0  0  0  0  0  0  0  0  0
  145.9684  134.9481  153.9010 C   0  0  0  0  0  0  0  0  0  0  0  0
  147.1183  134.1994  154.5959 C   0  0  0  0  0  0  0  0  0  0  0  0
  150.0434  138.0290  154.5667 N   0  0  0  0  0  0  0  0  0  0  0  0
  150.1441  139.3156  154.2246 C   0  0  0  0  0  0  0  0  0  0  0  0
  150.4642  140.3575  154.9912 N   0  0  0  0  0  0  0  0  0  0  0  0
  150.7046  139.9723  156.2770 C   0  0  0  0  0  0  0  0  0  0  0  0
  153.2688  140.6081  158.8307 H   0  0  0  0  0  0  0  0  0  0  0  0
  154.2840  141.4076  160.0039 H   0  0  0  0  0  0  0  0  0  0  0  0
  154.0375  142.1476  158.4272 H   0  0  0  0  0  0  0  0  0  0  0  0
  151.8331  141.7072  160.5191 H   0  0  0  0  0  0  0  0  0  0  0  0
  151.3516  144.8184  160.7479 H   0  0  0  0  0  0  0  0  0  0  0  0
  152.8400  145.5384  160.1221 H   0  0  0  0  0  0  0  0  0  0  0  0
  150.8994  145.0204  158.3386 H   0  0  0  0  0  0  0  0  0  0  0  0
  152.5399  144.4950  157.9631 H   0  0  0  0  0  0  0  0  0  0  0  0
  149.5397  143.6051  159.0474 H   0  0  0  0  0  0  0  0  0  0  0  0
  150.4240  142.6539  156.7708 H   0  0  0  0  0  0  0  0  0  0  0  0
  152.1483  142.4539  156.7878 H   0  0  0  0  0  0  0  0  0  0  0  0
  151.3635  140.2311  159.4287 H   0  0  0  0  0  0  0  0  0  0  0  0
  149.7034  136.5125  158.1827 H   0  0  0  0  0  0  0  0  0  0  0  0
  149.6611  134.8596  157.5814 H   0  0  0  0  0  0  0  0  0  0  0  0
  148.3538  135.9682  157.1683 H   0  0  0  0  0  0  0  0  0  0  0  0
  150.0514  135.6096  154.1211 H   0  0  0  0  0  0  0  0  0  0  0  0
  151.5070  135.2422  154.9839 H   0  0  0  0  0  0  0  0  0  0  0  0
  149.1293  134.0149  156.2485 H   0  0  0  0  0  0  0  0  0  0  0  0
  150.6210  132.5420  156.6259 H   0  0  0  0  0  0  0  0  0  0  0  0
  150.0779  132.9863  153.4874 H   0  0  0  0  0  0  0  0  0  0  0  0
  149.0213  132.1363  154.5769 H   0  0  0  0  0  0  0  0  0  0  0  0
  148.3141  132.8512  151.7270 H   0  0  0  0  0  0  0  0  0  0  0  0
  147.2073  132.0941  152.8541 H   0  0  0  0  0  0  0  0  0  0  0  0
  146.7600  134.7664  151.4010 H   0  0  0  0  0  0  0  0  0  0  0  0
  145.9324  133.2553  151.0772 H   0  0  0  0  0  0  0  0  0  0  0  0
  146.3108  135.9024  153.4975 H   0  0  0  0  0  0  0  0  0  0  0  0
  145.1780  135.1710  154.6180 H   0  0  0  0  0  0  0  0  0  0  0  0
  146.7375  133.3021  155.0864 H   0  0  0  0  0  0  0  0  0  0  0  0
  147.5496  134.8320  155.3727 H   0  0  0  0  0  0  0  0  0  0  0  0
  149.9404  139.5420  153.1883 H   0  0  0  0  0  0  0  0  0  0  0  0
  148.5165  134.6903  153.2335 H   0  0  0  0  0  0  0  0  0  0  0  0
  1  2  1  0  0  0  0
  1 30  1  0  0  0  0
  1 31  1  0  0  0  0
  1 32  1  0  0  0  0
  2  6  1  0  0  0  0
  2  3  1  0  0  0  0
  2 33  1  0  0  0  0
  3  4  1  0  0  0  0
  4  5  1  0  0  0  0
  4 34  1  0  0  0  0
  4 35  1  0  0  0  0
  5  6  1  0  0  0  0
  5 36  1  0  0  0  0
  5 37  1  0  0  0  0
  6  7  1  0  0  0  0
  6  8  1  0  0  0  0
  7 38  1  0  0  0  0
  8  9  1  0  0  0  0
  8 39  1  0  0  0  0
  8 40  1  0  0  0  0
  9 29  1  0  0  0  0
  9 10  1  0  0  0  0
 10 11  2  0  0  0  0
 10 41  1  0  0  0  0
 11 12  1  0  0  0  0
 12 29  2  0  0  0  0
 12 13  1  0  0  0  0
 13 14  1  0  0  0  0
 13 26  2  0  0  0  0
 14 15  1  0  0  0  0
 14 16  1  0  0  0  0
 15 42  1  0  0  0  0
 15 43  1  0  0  0  0
 15 44  1  0  0  0  0
 16 17  1  0  0  0  0
 16 45  1  0  0  0  0
 16 46  1  0  0  0  0
 17 18  1  0  0  0  0
 17 19  1  0  0  0  0
 17 47  1  0  0  0  0
 18 48  1  0  0  0  0
 19 20  1  0  0  0  0
 19 49  1  0  0  0  0
 19 50  1  0  0  0  0
 20 25  1  0  0  0  0
 20 21  1  0  0  0  0
 20 60  1  0  0  0  0
 21 22  1  0  0  0  0
 21 51  1  0  0  0  0
 21 52  1  0  0  0  0
 22 23  1  0  0  0  0
 22 53  1  0  0  0  0
 22 54  1  0  0  0  0
 23 24  1  0  0  0  0
 24 25  1  0  0  0  0
 24 55  1  0  0  0  0
 24 56  1  0  0  0  0
 25 57  1  0  0  0  0
 25 58  1  0  0  0  0
 26 27  1  0  0  0  0
 27 28  2  0  0  0  0
 27 59  1  0  0  0  0
 28 29  1  0  0  0  0
M  CHG  1  20   1
M  END
> <s_m_source_file>
AV-unprocessed.smi

> <i_m_source_file_index>
153

> <i_lp_mmshare_version>
43012

> <i_f3d_flags>
0

> <s_epik_input>
W0NIMl0xW0NIMl1PW0NAQEhdKFtDSDNdKVtDQEBdMShbT0hdKVtDSDJdbihbY0hdbjIpYyhjMjMpbltjSF1uYzNOKFtDSDNdKVtDSDJdW0NASF0oW09IXSlbQ0gyXU40W0NIMl1bQ0gyXU9bQ0gyXVtDSDJdNA==

> <s_epik_cmdline>
J2VwaWtfcHl0aG9uJywgJy1waCcsICc3LjAnLCAnLXRuJywgJzgnLCAnLW1hJywgJzIwMCcsICctbWV0YWxfYmluZGluZycsICctaW1hZScsICc8aW5maWxlLm1hZT4nLCAnLW9tYWUnLCAnPG91dGZpbGUubWFlPic=

> <r_lp_tautomer_probability>
1

> <r_epik_Ionization_Penalty>
0.403509

> <r_epik_Ionization_Penalty_Charging>
0.40072

> <r_epik_Ionization_Penalty_Neutral>
0.00278876

> <r_epik_State_Penalty>
0.400058

> <r_epik_Charging_Adjusted_Penalty>
0.800778

> <i_epik_Tot_Q>
1

> <i_epik_Tot_abs_Q>
1

> <r_epik_Metal_State_Penalty>
0.400321

> <b_epik_Metal_Only>
0

> <s_lp_Force_Field>
OPLS_2005

> <r_lp_Energy>
47.2205

> <b_lp_Chiralities_Consistent>
1

> <s_lp_Variant>
AV-unprocessed.smi:153-4

> <Gold.Version>
5.8.1

> <Gold.Id.Protein>
6NUR|6NUR_protein|mol2

> <Gold.PLP.Fitness>
53.2500

> <Gold.PLP.PLP>
-45.8147

> <Gold.PLP.part.hbond>
-3.0000

> <Gold.PLP.part.metal>
0.0000

> <Gold.PLP.part.buried>
-6.5061

> <Gold.PLP.part.nonpolar>
-36.6763

> <Gold.PLP.part.repulsive>
0.3846

> <Gold.PLP.ligand.clash>
0.0000

> <Gold.PLP.ligand.torsion>
1.3890

> <Gold.PLP.Chemscore.Hbond>
2.2500

> <Gold.PLP.Chemscore.CHOScore>
1.0000

> <Gold.PLP.Chemscore.Metal>
0.0000

> <Gold.Chemscore.Hbonds>
donor molecule, donor type, donor heavy atom, donor atom, acceptor molecule, acceptor atom, score
      L1  H    20    60       P1  7948  1.79
      P1  H  7989  7998       L1    28  0.25
      L1  C    27    59       P1  7957  1.00

> <Gold.PLP.Chemscore.Internal.Correction>
0.4634

> <Gold.Rescore>
     Score         DG    S(hbond)    S(metal)    S(lipo)     H(rot)  DE(clash)    DE(int)     intcor
      9.33     -10.87       0.89        0.00      99.85       3.62       0.17       1.37       ----

> <Gold.Chemscore.Fitness>
9.3302

> <Gold.Chemscore.DG>
-10.8742

> <Gold.Chemscore.ZeroCoef>
-5.4800

> <Gold.Chemscore.Hbond>
0.8906

> <Gold.Chemscore.Metal>
0.0000

> <Gold.Chemscore.Lipo>
99.8471

> <Gold.Chemscore.Internal_Hbond>
0.0000

> <Gold.Chemscore.DEClash>
0.1713

> <Gold.Chemscore.DEInternal>
1.3727

> <Gold.Chemscore.Rot>
3.6182

> <Gold.Chemscore.Internal.Correction>
   9.000000E+99

> <Gold.Chemscore.Hbonds>
donor molecule, donor type, donor heavy atom, donor atom, acceptor molecule, acceptor atom, score
      L1  H    20    60       P1  7948  0.43

> <Gold.Chemscore.Hbond.Weighted>
-2.9746

> <Gold.Chemscore.Metal.Weighted>
-0.0000

> <Gold.Chemscore.Lipo.Weighted>
-11.6821

> <Gold.Chemscore.Internal_Hbond.Weighted>
0.0000

> <Gold.Chemscore.DEClash.Weighted>
0.1713

> <Gold.Chemscore.DEInternal.Weighted>
1.3727

> <Gold.Chemscore.Rot.Weighted>
9.2625

> <Gold.Chemscore.Internal.Correction.Weighted>
   9.000000E+99

> <Gold.Protein.RotatedTorsions>
[ 6907 6896 6895 6894 ] final   28.03 input  -60.11 | X-H torsion
[ 7974 7965 7964 7962 ] final -161.63 input  175.53 | X-H torsion
[ 8008 7997 7996 7995 ] final  -12.94 input   59.86 | X-H torsion
[ 10167 10162 10161 10158 ] final -175.11 input  -65.29 | X-H torsion
[ 10718 10713 10712 10709 ] final  161.33 input   66.30 | X-H torsion
[ 10763 10752 10751 10750 ] final  117.28 input  -60.55 | X-H torsion
[ 11005 11000 10999 10996 ] final   27.06 input  -57.11 | X-H torsion

> <Gold.Protein.ActiveResidues>
 VAL166  LYS551  ARG553  GLY616  TRP617  ASP618  TYR619  PRO620  LYS621  CYS622 
 ASP623  PHE694  ASN695  SER759  ASP760  ASP761  ALA762  ILE779  LEU786  VAL792 
 PHE793  MET794  SER795  GLU796  ALA797  LYS798  CYS799  TRP800  GLU811  SER814 

> <Gold.Protein.RotatedAtoms>
  152.0109  134.9876  160.0567 H   0  0  0  0  0  0  0  0  0  0  0  0  # atno 6907 bound_to 6896
  152.1429  133.4470  159.4784 H   0  0  0  0  0  0  0  0  0  0  0  0  # atno 6908 bound_to 6896
  150.6867  134.2201  159.4436 H   0  0  0  0  0  0  0  0  0  0  0  0  # atno 6909 bound_to 6896
  144.7384  140.3369  143.6142 H   0  0  0  0  0  0  0  0  0  0  0  0  # atno 7974 bound_to 7965
  154.5335  140.2263  155.8764 H   0  0  0  0  0  0  0  0  0  0  0  0  # atno 8008 bound_to 7997
  156.1787  140.3105  155.9072 H   0  0  0  0  0  0  0  0  0  0  0  0  # atno 8009 bound_to 7997
  155.3403  140.0450  157.3035 H   0  0  0  0  0  0  0  0  0  0  0  0  # atno 8010 bound_to 7997
  139.5598  144.1898  152.1220 H   0  0  0  0  0  0  0  0  0  0  0  0  # atno 10167 bound_to 10162
  157.1380  131.0533  151.2340 H   0  0  0  0  0  0  0  0  0  0  0  0  # atno 10718 bound_to 10713
  153.5500  135.3541  155.2755 H   0  0  0  0  0  0  0  0  0  0  0  0  # atno 10763 bound_to 10752
  154.8708  135.4111  154.2948 H   0  0  0  0  0  0  0  0  0  0  0  0  # atno 10764 bound_to 10752
  153.3672  135.7062  153.6734 H   0  0  0  0  0  0  0  0  0  0  0  0  # atno 10765 bound_to 10752
  140.3303  134.2445  155.7703 H   0  0  0  0  0  0  0  0  0  0  0  0  # atno 11005 bound_to 11000
  145.7414  139.1765  143.2373 LP  0  0  0  0  0  0  0  0  0  0  0  0  # atno 17320 bound_to 7965
  146.1131  140.7404  142.9494 LP  0  0  0  0  0  0  0  0  0  0  0  0  # atno 17321 bound_to 7965
  140.1409  144.5203  150.6745 LP  0  0  0  0  0  0  0  0  0  0  0  0  # atno 17342 bound_to 10162
  140.6876  143.2358  151.5217 LP  0  0  0  0  0  0  0  0  0  0  0  0  # atno 17343 bound_to 10162
  157.4333  130.7503  149.7008 LP  0  0  0  0  0  0  0  0  0  0  0  0  # atno 17370 bound_to 10713
  155.9794  130.4040  150.3588 LP  0  0  0  0  0  0  0  0  0  0  0  0  # atno 17371 bound_to 10713
  141.2065  133.7831  157.0173 LP  0  0  0  0  0  0  0  0  0  0  0  0  # atno 17394 bound_to 11000
  140.0866  134.9617  157.1710 LP  0  0  0  0  0  0  0  0  0  0  0  0  # atno 17395 bound_to 11000

$$$$
