AV-unprocessed.smi:2686|AV-procd|sdf|10384|dock3
  -GOLD-   2272014413D 1   1.00000     0.00000
 Structure written by MMmdl.
 32 32  0  0  0  0  0  0  0  0  1 V2000
  147.0824  139.1368  152.4174 C   0  0  0  0  0  0  0  0  0  0  0  0
  146.5569  140.3213  153.0790 N   0  0  0  0  0  0  0  0  0  0  0  0
  147.3157  141.3096  153.5725 C   0  0  0  0  0  0  0  0  0  0  0  0
  148.5450  141.3183  153.4930 O   0  0  0  0  0  0  0  0  0  0  0  0
  146.5649  142.4715  154.2358 C   0  0  0  0  0  0  0  0  0  0  0  0
  147.0182  142.7360  155.5993 N   0  0  0  0  0  0  0  0  0  0  0  0
  146.5141  142.1656  156.7048 C   0  0  0  0  0  0  0  0  0  0  0  0
  145.5832  141.3586  156.6790 O   0  0  0  0  0  0  0  0  0  0  0  0
  147.1755  142.5756  158.0286 C   0  0  0  0  0  0  0  0  0  0  0  0
  148.5948  142.1940  158.1210 N   0  0  0  0  0  0  0  0  0  0  0  0
  149.4885  143.1760  158.5912 C   0  0  0  0  0  0  0  0  0  0  0  0
  150.8102  142.9582  158.7313 C   0  0  0  0  0  0  0  0  0  0  0  0
  151.7586  144.0580  159.1826 C   0  0  0  0  0  0  0  0  0  0  0  0
  152.4712  144.5278  158.1584 F   0  0  0  0  0  0  0  0  0  0  0  0
  151.0921  145.0748  159.7307 F   0  0  0  0  0  0  0  0  0  0  0  0
  152.6060  143.5796  160.0927 F   0  0  0  0  0  0  0  0  0  0  0  0
  151.2928  141.6487  158.3384 C   0  0  0  0  0  0  0  0  0  0  0  0
  150.4535  140.7028  157.8731 C   0  0  0  0  0  0  0  0  0  0  0  0
  149.0157  140.9501  157.7424 C   0  0  0  0  0  0  0  0  0  0  0  0
  148.2397  140.0937  157.3175 O   0  0  0  0  0  0  0  0  0  0  0  0
  146.2619  138.5284  152.0371 H   0  0  0  0  0  0  0  0  0  0  0  0
  147.6614  138.5310  153.1154 H   0  0  0  0  0  0  0  0  0  0  0  0
  147.7239  139.4082  151.5777 H   0  0  0  0  0  0  0  0  0  0  0  0
  145.5543  140.3888  153.1793 H   0  0  0  0  0  0  0  0  0  0  0  0
  146.7249  143.3709  153.6410 H   0  0  0  0  0  0  0  0  0  0  0  0
  145.4902  142.2795  154.2307 H   0  0  0  0  0  0  0  0  0  0  0  0
  147.7858  143.3833  155.7061 H   0  0  0  0  0  0  0  0  0  0  0  0
  147.0720  143.6553  158.1469 H   0  0  0  0  0  0  0  0  0  0  0  0
  146.6058  142.1447  158.8537 H   0  0  0  0  0  0  0  0  0  0  0  0
  149.0289  144.1264  158.8214 H   0  0  0  0  0  0  0  0  0  0  0  0
  152.3452  141.4210  158.4209 H   0  0  0  0  0  0  0  0  0  0  0  0
  150.8487  139.7382  157.5904 H   0  0  0  0  0  0  0  0  0  0  0  0
  1  2  1  0  0  0  0
  1 21  1  0  0  0  0
  1 22  1  0  0  0  0
  1 23  1  0  0  0  0
  2  3  1  0  0  0  0
  2 24  1  0  0  0  0
  3  4  2  0  0  0  0
  3  5  1  0  0  0  0
  5  6  1  0  0  0  0
  5 25  1  0  0  0  0
  5 26  1  0  0  0  0
  6  7  1  0  0  0  0
  6 27  1  0  0  0  0
  7  8  2  0  0  0  0
  7  9  1  0  0  0  0
  9 10  1  0  0  0  0
  9 28  1  0  0  0  0
  9 29  1  0  0  0  0
 10 19  1  0  0  0  0
 10 11  1  0  0  0  0
 11 12  2  0  0  0  0
 11 30  1  0  0  0  0
 12 13  1  0  0  0  0
 12 17  1  0  0  0  0
 13 14  1  0  0  0  0
 13 15  1  0  0  0  0
 13 16  1  0  0  0  0
 17 18  2  0  0  0  0
 17 31  1  0  0  0  0
 18 19  1  0  0  0  0
 18 32  1  0  0  0  0
 19 20  2  0  0  0  0
M  END
> <s_m_source_file>
AV-unprocessed.smi

> <i_m_source_file_index>
2686

> <i_lp_mmshare_version>
43012

> <i_f3d_flags>
0

> <s_epik_input>
W0NIM11bTkhdQyg9TylbQ0gyXVtOSF1DKD1PKVtDSDJdbjFbY0hdYyhDKEYpKEYpRilbY0hdW2NIXWMxPU8=

> <s_epik_cmdline>
J2VwaWtfcHl0aG9uJywgJy1waCcsICc3LjAnLCAnLXRuJywgJzgnLCAnLW1hJywgJzIwMCcsICctbWV0YWxfYmluZGluZycsICctaW1hZScsICc8aW5maWxlLm1hZT4nLCAnLW9tYWUnLCAnPG91dGZpbGUubWFlPic=

> <r_lp_tautomer_probability>
1

> <r_epik_Ionization_Penalty>
8.267e-08

> <r_epik_Ionization_Penalty_Charging>
1.5129e-08

> <r_epik_Ionization_Penalty_Neutral>
6.7541e-08

> <r_epik_State_Penalty>
-0

> <r_epik_Charging_Adjusted_Penalty>
1.5129e-08

> <i_epik_Tot_Q>
0

> <i_epik_Tot_abs_Q>
0

> <r_epik_Metal_State_Penalty>
-0

> <b_epik_Metal_Only>
0

> <s_lp_Force_Field>
OPLS_2005

> <r_lp_Energy>
10.5627

> <b_lp_Chiralities_Consistent>
1

> <s_lp_Variant>
AV-unprocessed.smi:2686-1

> <Gold.Version>
5.8.1

> <Gold.Id.Protein>
6NUR|6NUR_protein|mol2

> <Gold.PLP.Fitness>
47.6078

> <Gold.PLP.PLP>
-38.7744

> <Gold.PLP.part.hbond>
-3.0000

> <Gold.PLP.part.metal>
0.0000

> <Gold.PLP.part.buried>
-3.1431

> <Gold.PLP.part.nonpolar>
-32.9315

> <Gold.PLP.part.repulsive>
1.8043

> <Gold.PLP.ligand.clash>
0.5750

> <Gold.PLP.ligand.torsion>
0.8818

> <Gold.PLP.Chemscore.Hbond>
2.7089

> <Gold.PLP.Chemscore.CHOScore>
1.0000

> <Gold.PLP.Chemscore.Metal>
0.0000

> <Gold.Chemscore.Hbonds>
donor molecule, donor type, donor heavy atom, donor atom, acceptor molecule, acceptor atom, score
      L1  H     2    24       P1 10175  1.00
      L1  H     6    27       P1  8028  0.95
      P1  H  8011  8017       L1     4  0.83
      L1  C    11    30       P1  8029  0.72

> <Gold.PLP.Chemscore.Internal.Correction>
0.0455

> <Gold.Rescore>
     Score         DG    S(hbond)    S(metal)    S(lipo)     H(rot)  DE(clash)    DE(int)     intcor
      7.22     -11.17       1.64        0.00      52.43       2.32       0.79       3.16       ----

> <Gold.Chemscore.Fitness>
7.2247

> <Gold.Chemscore.DG>
-11.1729

> <Gold.Chemscore.ZeroCoef>
-5.4800

> <Gold.Chemscore.Hbond>
1.6447

> <Gold.Chemscore.Metal>
0.0000

> <Gold.Chemscore.Lipo>
52.4347

> <Gold.Chemscore.Internal_Hbond>
0.0000

> <Gold.Chemscore.DEClash>
0.7867

> <Gold.Chemscore.DEInternal>
3.1615

> <Gold.Chemscore.Rot>
2.3184

> <Gold.Chemscore.Internal.Correction>
   9.000000E+99

> <Gold.Chemscore.Hbonds>
donor molecule, donor type, donor heavy atom, donor atom, acceptor molecule, acceptor atom, score
      L1  H     2    24       P1 10175  0.89
      L1  H     6    27       P1  8028  0.22
      P1  H  8011  8017       L1     4  0.76

> <Gold.Chemscore.Hbond.Weighted>
-5.4932

> <Gold.Chemscore.Metal.Weighted>
-0.0000

> <Gold.Chemscore.Lipo.Weighted>
-6.1349

> <Gold.Chemscore.Internal_Hbond.Weighted>
0.0000

> <Gold.Chemscore.DEClash.Weighted>
0.7867

> <Gold.Chemscore.DEInternal.Weighted>
3.1615

> <Gold.Chemscore.Rot.Weighted>
5.9352

> <Gold.Chemscore.Internal.Correction.Weighted>
   9.000000E+99

> <Gold.Protein.RotatedTorsions>
[ 6907 6896 6895 6894 ] final  -24.40 input  -60.11 | X-H torsion
[ 7974 7965 7964 7962 ] final  129.52 input  175.53 | X-H torsion
[ 8008 7997 7996 7995 ] final  154.10 input   59.86 | X-H torsion
[ 10167 10162 10161 10158 ] final  120.48 input  -65.29 | X-H torsion
[ 10718 10713 10712 10709 ] final -136.83 input   66.30 | X-H torsion
[ 10763 10752 10751 10750 ] final   -6.49 input  -60.55 | X-H torsion
[ 11005 11000 10999 10996 ] final  -86.06 input  -57.11 | X-H torsion

> <Gold.Protein.ActiveResidues>
 VAL166  LYS551  ARG553  GLY616  TRP617  ASP618  TYR619  PRO620  LYS621  CYS622 
 ASP623  PHE694  ASN695  SER759  ASP760  ASP761  ALA762  ILE779  LEU786  VAL792 
 PHE793  MET794  SER795  GLU796  ALA797  LYS798  CYS799  TRP800  GLU811  SER814 

> <Gold.Protein.RotatedAtoms>
  151.1901  135.0399  159.8828 H   0  0  0  0  0  0  0  0  0  0  0  0  # atno 6907 bound_to 6896
  152.5440  134.0965  159.8309 H   0  0  0  0  0  0  0  0  0  0  0  0  # atno 6908 bound_to 6896
  151.1093  133.5138  159.2638 H   0  0  0  0  0  0  0  0  0  0  0  0  # atno 6909 bound_to 6896
  145.0278  139.4073  143.5165 H   0  0  0  0  0  0  0  0  0  0  0  0  # atno 7974 bound_to 7965
  156.2548  140.1976  156.6594 H   0  0  0  0  0  0  0  0  0  0  0  0  # atno 8008 bound_to 7997
  154.6476  140.0576  156.9944 H   0  0  0  0  0  0  0  0  0  0  0  0  # atno 8009 bound_to 7997
  155.1467  140.3247  155.4443 H   0  0  0  0  0  0  0  0  0  0  0  0  # atno 8010 bound_to 7997
  139.5979  144.7047  151.3132 H   0  0  0  0  0  0  0  0  0  0  0  0  # atno 10167 bound_to 10162
  156.2814  130.7322  151.1321 H   0  0  0  0  0  0  0  0  0  0  0  0  # atno 10718 bound_to 10713
  153.4131  135.7008  153.6346 H   0  0  0  0  0  0  0  0  0  0  0  0  # atno 10763 bound_to 10752
  153.4831  135.3689  155.2453 H   0  0  0  0  0  0  0  0  0  0  0  0  # atno 10764 bound_to 10752
  154.8718  135.4071  154.3486 H   0  0  0  0  0  0  0  0  0  0  0  0  # atno 10765 bound_to 10752
  141.1634  133.7434  156.9106 H   0  0  0  0  0  0  0  0  0  0  0  0  # atno 11005 bound_to 11000
  146.3494  139.9811  142.8695 LP  0  0  0  0  0  0  0  0  0  0  0  0  # atno 17320 bound_to 7965
  145.1810  140.9767  143.4266 LP  0  0  0  0  0  0  0  0  0  0  0  0  # atno 17321 bound_to 7965
  140.7226  143.7092  150.7783 LP  0  0  0  0  0  0  0  0  0  0  0  0  # atno 17342 bound_to 10162
  140.0662  143.5106  152.2603 LP  0  0  0  0  0  0  0  0  0  0  0  0  # atno 17343 bound_to 10162
  157.7315  131.0607  150.5673 LP  0  0  0  0  0  0  0  0  0  0  0  0  # atno 17370 bound_to 10713
  156.5779  130.4297  149.5990 LP  0  0  0  0  0  0  0  0  0  0  0  0  # atno 17371 bound_to 10713
  140.1519  134.9224  157.2604 LP  0  0  0  0  0  0  0  0  0  0  0  0  # atno 17394 bound_to 11000
  140.2712  134.3457  155.7373 LP  0  0  0  0  0  0  0  0  0  0  0  0  # atno 17395 bound_to 11000

$$$$
