AV-unprocessed.smi:679|AV-procd|sdf|3319|dock4
  -GOLD-   22720 0283D 1   1.00000     0.00000
 Structure written by MMmdl.
 41 43  0  0  0  0  0  0  0  0  1 V2000
  154.0266  141.5829  162.1108 C   0  0  0  0  0  0  0  0  0  0  0  0
  153.4601  141.3172  160.7144 C   0  0  0  0  0  0  0  0  0  0  0  0
  152.7056  142.4452  160.3054 O   0  0  0  0  0  0  0  0  0  0  0  0
  151.7294  142.1321  159.3243 C   0  0  2  0  0  0  0  0  0  0  0  0
  152.2814  141.4572  158.0647 C   0  0  0  0  0  0  0  0  0  0  0  0
  151.3355  142.3503  157.2537 C   0  0  1  0  0  0  0  0  0  0  0  0
  150.0492  141.6905  157.0305 N   0  0  0  0  0  0  0  0  0  0  0  0
  149.8295  140.7301  156.1193 C   0  0  0  0  0  0  0  0  0  0  0  0
  150.7004  140.3065  155.3605 O   0  0  0  0  0  0  0  0  0  0  0  0
  148.4063  140.1745  156.0334 C   0  0  0  0  0  0  0  0  0  0  0  0
  147.5461  141.0239  155.2299 N   0  0  0  0  0  0  0  0  0  0  0  0
  147.5232  141.2555  153.9158 C   0  0  0  0  0  0  0  0  0  0  0  0
  146.5735  142.1176  153.5876 N   0  0  0  0  0  0  0  0  0  0  0  0
  145.9871  142.4183  154.8056 N   0  0  0  0  0  0  0  0  0  0  0  0
  146.5599  141.7723  155.7838 N   0  0  0  0  0  0  0  0  0  0  0  0
  151.3210  143.3410  158.4477 C   0  0  0  0  0  0  0  0  0  0  0  0
  152.3080  144.5091  158.3730 C   0  0  0  0  0  0  0  0  0  0  0  0
  151.8840  145.5323  159.4321 C   0  0  0  0  0  0  0  0  0  0  0  0
  150.4255  145.2057  159.7677 C   0  0  0  0  0  0  0  0  0  0  0  0
  150.0315  144.0687  158.8230 C   0  0  0  0  0  0  0  0  0  0  0  0
  154.6105  140.7322  162.4628 H   0  0  0  0  0  0  0  0  0  0  0  0
  153.2274  141.7615  162.8306 H   0  0  0  0  0  0  0  0  0  0  0  0
  154.6776  142.4572  162.1089 H   0  0  0  0  0  0  0  0  0  0  0  0
  154.2750  141.1298  160.0136 H   0  0  0  0  0  0  0  0  0  0  0  0
  152.8269  140.4291  160.7314 H   0  0  0  0  0  0  0  0  0  0  0  0
  150.8625  141.6099  159.7355 H   0  0  0  0  0  0  0  0  0  0  0  0
  153.3333  141.6861  157.8862 H   0  0  0  0  0  0  0  0  0  0  0  0
  152.0880  140.3858  157.9977 H   0  0  0  0  0  0  0  0  0  0  0  0
  151.8008  142.7473  156.3497 H   0  0  0  0  0  0  0  0  0  0  0  0
  149.2768  141.9862  157.6095 H   0  0  0  0  0  0  0  0  0  0  0  0
  148.4291  139.1767  155.5938 H   0  0  0  0  0  0  0  0  0  0  0  0
  147.9776  140.0775  157.0321 H   0  0  0  0  0  0  0  0  0  0  0  0
  148.1992  140.7999  153.2073 H   0  0  0  0  0  0  0  0  0  0  0  0
  153.3448  144.1997  158.5106 H   0  0  0  0  0  0  0  0  0  0  0  0
  152.2537  144.9735  157.3874 H   0  0  0  0  0  0  0  0  0  0  0  0
  152.5024  145.4368  160.3253 H   0  0  0  0  0  0  0  0  0  0  0  0
  151.9968  146.5516  159.0614 H   0  0  0  0  0  0  0  0  0  0  0  0
  150.3537  144.8705  160.8032 H   0  0  0  0  0  0  0  0  0  0  0  0
  149.7709  146.0704  159.6556 H   0  0  0  0  0  0  0  0  0  0  0  0
  149.5677  144.4892  157.9297 H   0  0  0  0  0  0  0  0  0  0  0  0
  149.2943  143.4089  159.2818 H   0  0  0  0  0  0  0  0  0  0  0  0
  1  2  1  0  0  0  0
  1 21  1  0  0  0  0
  1 22  1  0  0  0  0
  1 23  1  0  0  0  0
  2  3  1  0  0  0  0
  2 24  1  0  0  0  0
  2 25  1  0  0  0  0
  3  4  1  0  0  0  0
  4 16  1  0  0  0  0
  4  5  1  0  0  0  0
  4 26  1  0  0  0  0
  5  6  1  0  0  0  0
  5 27  1  0  0  0  0
  5 28  1  0  0  0  0
  6  7  1  0  0  0  0
  6 16  1  0  0  0  0
  6 29  1  0  0  0  0
  7  8  1  0  0  0  0
  7 30  1  0  0  0  0
  8  9  2  0  0  0  0
  8 10  1  0  0  0  0
 10 11  1  0  0  0  0
 10 31  1  0  0  0  0
 10 32  1  0  0  0  0
 11 15  1  0  0  0  0
 11 12  1  0  0  0  0
 12 13  2  0  0  0  0
 12 33  1  0  0  0  0
 13 14  1  0  0  0  0
 14 15  2  0  0  0  0
 16 20  1  0  0  0  0
 16 17  1  0  0  0  0
 17 18  1  0  0  0  0
 17 34  1  0  0  0  0
 17 35  1  0  0  0  0
 18 19  1  0  0  0  0
 18 36  1  0  0  0  0
 18 37  1  0  0  0  0
 19 20  1  0  0  0  0
 19 38  1  0  0  0  0
 19 39  1  0  0  0  0
 20 40  1  0  0  0  0
 20 41  1  0  0  0  0
M  END
> <s_m_source_file>
AV-unprocessed.smi

> <i_m_source_file_index>
679

> <i_lp_mmshare_version>
43012

> <i_f3d_flags>
0

> <s_epik_input>
W0NIMl0xW0NIMl1bQ0gyXVtDSDJdQzEyW0NASF0oT1tDSDJdW0NIM10pW0NIMl1bQ0BIXTJbTkhdQyg9TylbQ0gyXW4zW2NIXW5ubjM=

> <s_epik_cmdline>
J2VwaWtfcHl0aG9uJywgJy1waCcsICc3LjAnLCAnLXRuJywgJzgnLCAnLW1hJywgJzIwMCcsICctbWV0YWxfYmluZGluZycsICctaW1hZScsICc8aW5maWxlLm1hZT4nLCAnLW9tYWUnLCAnPG91dGZpbGUubWFlPic=

> <r_lp_tautomer_probability>
1

> <r_epik_Ionization_Penalty>
7.96741e-07

> <r_epik_Ionization_Penalty_Charging>
0

> <r_epik_Ionization_Penalty_Neutral>
7.96741e-07

> <r_epik_State_Penalty>
-0

> <r_epik_Charging_Adjusted_Penalty>
0

> <i_epik_Tot_Q>
0

> <i_epik_Tot_abs_Q>
0

> <r_epik_Metal_State_Penalty>
-0

> <b_epik_Metal_Only>
0

> <s_lp_Force_Field>
OPLS_2005

> <r_lp_Energy>
39.8699

> <b_lp_Chiralities_Consistent>
1

> <s_lp_Variant>
AV-unprocessed.smi:679-1

> <Gold.Version>
5.8.1

> <Gold.Id.Protein>
6NUR|6NUR_protein|mol2

> <Gold.PLP.Fitness>
40.7296

> <Gold.PLP.PLP>
-36.6373

> <Gold.PLP.part.hbond>
-1.0000

> <Gold.PLP.part.metal>
0.0000

> <Gold.PLP.part.buried>
-5.6501

> <Gold.PLP.part.nonpolar>
-29.3908

> <Gold.PLP.part.repulsive>
0.6143

> <Gold.PLP.ligand.clash>
0.0000

> <Gold.PLP.ligand.torsion>
0.8227

> <Gold.PLP.Chemscore.Hbond>
1.0000

> <Gold.PLP.Chemscore.CHOScore>
0.7954

> <Gold.PLP.Chemscore.Metal>
0.0000

> <Gold.Chemscore.Hbonds>
donor molecule, donor type, donor heavy atom, donor atom, acceptor molecule, acceptor atom, score
      P1  H  7989  7998       L1     9  0.68
      L1  C    12    33       P1  7957  0.85

> <Gold.PLP.Chemscore.Internal.Correction>
0.3514

> <Gold.Rescore>
     Score         DG    S(hbond)    S(metal)    S(lipo)     H(rot)  DE(clash)    DE(int)     intcor
     13.04     -13.36       0.99        0.00      91.70       2.41       0.05       0.27       ----

> <Gold.Chemscore.Fitness>
13.0382

> <Gold.Chemscore.DG>
-13.3593

> <Gold.Chemscore.ZeroCoef>
-5.4800

> <Gold.Chemscore.Hbond>
0.9930

> <Gold.Chemscore.Metal>
0.0000

> <Gold.Chemscore.Lipo>
91.7043

> <Gold.Chemscore.Internal_Hbond>
0.0000

> <Gold.Chemscore.DEClash>
0.0515

> <Gold.Chemscore.DEInternal>
0.2696

> <Gold.Chemscore.Rot>
2.4089

> <Gold.Chemscore.Internal.Correction>
   9.000000E+99

> <Gold.Chemscore.Hbonds>
donor molecule, donor type, donor heavy atom, donor atom, acceptor molecule, acceptor atom, score
      P1  H  7989  7998       L1     9  0.67

> <Gold.Chemscore.Hbond.Weighted>
-3.3167

> <Gold.Chemscore.Metal.Weighted>
-0.0000

> <Gold.Chemscore.Lipo.Weighted>
-10.7294

> <Gold.Chemscore.Internal_Hbond.Weighted>
0.0000

> <Gold.Chemscore.DEClash.Weighted>
0.0515

> <Gold.Chemscore.DEInternal.Weighted>
0.2696

> <Gold.Chemscore.Rot.Weighted>
6.1668

> <Gold.Chemscore.Internal.Correction.Weighted>
   9.000000E+99

> <Gold.Protein.RotatedTorsions>
[ 6907 6896 6895 6894 ] final   51.18 input  -60.11 | X-H torsion
[ 7974 7965 7964 7962 ] final  126.02 input  175.53 | X-H torsion
[ 8008 7997 7996 7995 ] final  144.10 input   59.86 | X-H torsion
[ 10167 10162 10161 10158 ] final   68.29 input  -65.29 | X-H torsion
[ 10718 10713 10712 10709 ] final   74.65 input   66.30 | X-H torsion
[ 10763 10752 10751 10750 ] final  -62.47 input  -60.55 | X-H torsion
[ 11005 11000 10999 10996 ] final -105.36 input  -57.11 | X-H torsion

> <Gold.Protein.ActiveResidues>
 VAL166  LYS551  ARG553  GLY616  TRP617  ASP618  TYR619  PRO620  LYS621  CYS622 
 ASP623  PHE694  ASN695  SER759  ASP760  ASP761  ALA762  ILE779  LEU786  VAL792 
 PHE793  MET794  SER795  GLU796  ALA797  LYS798  CYS799  TRP800  GLU811  SER814 

> <Gold.Protein.RotatedAtoms>
  152.3099  134.7510  160.0338 H   0  0  0  0  0  0  0  0  0  0  0  0  # atno 6907 bound_to 6896
  151.7995  133.3363  159.3531 H   0  0  0  0  0  0  0  0  0  0  0  0  # atno 6908 bound_to 6896
  150.7315  134.5697  159.5928 H   0  0  0  0  0  0  0  0  0  0  0  0  # atno 6909 bound_to 6896
  145.0664  139.3764  143.4980 H   0  0  0  0  0  0  0  0  0  0  0  0  # atno 7974 bound_to 7965
  156.2915  140.2244  156.4999 H   0  0  0  0  0  0  0  0  0  0  0  0  # atno 8008 bound_to 7997
  154.7698  140.0467  157.1064 H   0  0  0  0  0  0  0  0  0  0  0  0  # atno 8009 bound_to 7997
  154.9887  140.3087  155.4918 H   0  0  0  0  0  0  0  0  0  0  0  0  # atno 8010 bound_to 7997
  140.0802  144.5077  150.7167 H   0  0  0  0  0  0  0  0  0  0  0  0  # atno 10167 bound_to 10162
  157.6601  130.9688  150.1241 H   0  0  0  0  0  0  0  0  0  0  0  0  # atno 10718 bound_to 10713
  154.3004  135.6236  153.5422 H   0  0  0  0  0  0  0  0  0  0  0  0  # atno 10763 bound_to 10752
  152.9841  135.5677  154.5290 H   0  0  0  0  0  0  0  0  0  0  0  0  # atno 10764 bound_to 10752
  154.4919  135.2868  155.1466 H   0  0  0  0  0  0  0  0  0  0  0  0  # atno 10765 bound_to 10752
  141.1057  133.8801  157.1725 H   0  0  0  0  0  0  0  0  0  0  0  0  # atno 11005 bound_to 11000
  146.3527  140.0388  142.8644 LP  0  0  0  0  0  0  0  0  0  0  0  0  # atno 17320 bound_to 7965
  145.1345  140.9537  143.4524 LP  0  0  0  0  0  0  0  0  0  0  0  0  # atno 17321 bound_to 7965
  140.7081  143.2484  151.4664 LP  0  0  0  0  0  0  0  0  0  0  0  0  # atno 17342 bound_to 10162
  139.5784  144.1766  152.1935 LP  0  0  0  0  0  0  0  0  0  0  0  0  # atno 17343 bound_to 10162
  156.2105  130.3666  149.8676 LP  0  0  0  0  0  0  0  0  0  0  0  0  # atno 17370 bound_to 10713
  156.6556  130.8761  151.3539 LP  0  0  0  0  0  0  0  0  0  0  0  0  # atno 17371 bound_to 10713
  139.9926  135.0059  157.0010 LP  0  0  0  0  0  0  0  0  0  0  0  0  # atno 17394 bound_to 11000
  140.4908  134.1195  155.7232 LP  0  0  0  0  0  0  0  0  0  0  0  0  # atno 17395 bound_to 11000

$$$$
