AV-unprocessed.smi:44|AV-procd|sdf|396|dock3
  -GOLD-   2262016253D 1   1.00000     0.00000
 Structure written by MMmdl.
 29 31  0  0  0  0  0  0  0  0  1 V2000
  152.4884  137.9173  154.4975 O   0  0  0  0  0  0  0  0  0  0  0  0
  152.4974  138.4574  155.6016 C   0  0  0  0  0  0  0  0  0  0  0  0
  153.1211  137.9390  156.6877 N   0  0  0  0  0  0  0  0  0  0  0  0
  153.1338  138.5560  157.9642 C   0  0  0  0  0  0  0  0  0  0  0  0
  152.5521  139.6913  158.2553 N   0  0  0  0  0  0  0  0  0  0  0  0
  151.9109  140.2426  157.1642 C   0  0  0  0  0  0  0  0  0  0  0  0
  151.8266  139.7467  155.8908 C   0  0  0  0  0  0  0  0  0  0  0  0
  151.0888  140.5878  155.0676 N   0  0  0  0  0  0  0  0  0  0  0  0
  150.7555  141.5740  155.8978 C   0  0  0  0  0  0  0  0  0  0  0  0
  151.2069  141.4428  157.1616 N   0  0  0  0  0  0  0  0  0  0  0  0
  150.9936  142.3765  158.3095 C   0  0  2  0  0  0  0  0  0  0  0  0
  151.8010  143.6631  158.1026 C   0  0  0  0  0  0  0  0  0  0  0  0
  152.3669  143.8942  159.4865 C   0  0  0  0  0  0  0  0  0  0  0  0
  152.6134  142.4608  159.9533 C   0  0  1  0  0  0  0  0  0  0  0  0
  152.7348  142.2969  161.4748 C   0  0  0  0  0  0  0  0  0  0  0  0
  151.6407  142.9115  162.1217 O   0  0  0  0  0  0  0  0  0  0  0  0
  151.4662  141.7658  159.4756 O   0  0  0  0  0  0  0  0  0  0  0  0
  153.6026  137.0592  156.5729 H   0  0  0  0  0  0  0  0  0  0  0  0
  149.9164  142.5318  158.3739 H   0  0  0  0  0  0  0  0  0  0  0  0
  153.4952  142.0533  159.4559 H   0  0  0  0  0  0  0  0  0  0  0  0
  153.6898  137.9826  158.7074 H   0  0  0  0  0  0  0  0  0  0  0  0
  150.1630  142.4172  155.5755 H   0  0  0  0  0  0  0  0  0  0  0  0
  152.6069  143.4964  157.3857 H   0  0  0  0  0  0  0  0  0  0  0  0
  151.1661  144.4740  157.7447 H   0  0  0  0  0  0  0  0  0  0  0  0
  153.2719  144.5022  159.4806 H   0  0  0  0  0  0  0  0  0  0  0  0
  151.6255  144.3846  160.1190 H   0  0  0  0  0  0  0  0  0  0  0  0
  152.7805  141.2436  161.7530 H   0  0  0  0  0  0  0  0  0  0  0  0
  153.6533  142.7649  161.8298 H   0  0  0  0  0  0  0  0  0  0  0  0
  151.8786  143.0770  163.0211 H   0  0  0  0  0  0  0  0  0  0  0  0
  1  2  2  0  0  0  0
  2  7  1  0  0  0  0
  2  3  1  0  0  0  0
  3 18  1  0  0  0  0
  3  4  1  0  0  0  0
  4  5  2  0  0  0  0
  4 21  1  0  0  0  0
  5  6  1  0  0  0  0
  6 10  1  0  0  0  0
  6  7  2  0  0  0  0
  7  8  1  0  0  0  0
  8  9  2  0  0  0  0
  9 10  1  0  0  0  0
  9 22  1  0  0  0  0
 10 11  1  0  0  0  0
 11 19  1  0  0  0  0
 11 17  1  0  0  0  0
 11 12  1  0  0  0  0
 12 13  1  0  0  0  0
 12 23  1  0  0  0  0
 12 24  1  0  0  0  0
 13 14  1  0  0  0  0
 13 25  1  0  0  0  0
 13 26  1  0  0  0  0
 14 20  1  0  0  0  0
 14 15  1  0  0  0  0
 14 17  1  0  0  0  0
 15 16  1  0  0  0  0
 15 27  1  0  0  0  0
 15 28  1  0  0  0  0
 16 29  1  0  0  0  0
M  END
> <s_m_source_file>
AV-unprocessed.smi

> <i_m_source_file_index>
44

> <i_lp_mmshare_version>
43012

> <i_f3d_flags>
0

> <s_epik_input>
bjFbY0hdW25IXWMoPU8pYyhjMTIpbltjSF1uMltDQEhdM1tDSDJdW0NIMl1bQ0BIXShPMylbQ0gyXVtPSF0=

> <s_epik_cmdline>
J2VwaWtfcHl0aG9uJywgJy1waCcsICc3LjAnLCAnLXRuJywgJzgnLCAnLW1hJywgJzIwMCcsICctbWV0YWxfYmluZGluZycsICctaW1hZScsICc8aW5maWxlLm1hZT4nLCAnLW9tYWUnLCAnPG91dGZpbGUubWFlPic=

> <r_lp_tautomer_probability>
0.85571

> <r_epik_Ionization_Penalty>
0.00801444

> <r_epik_Ionization_Penalty_Charging>
0.00794574

> <r_epik_Ionization_Penalty_Neutral>
6.87072e-05

> <r_epik_State_Penalty>
0.0826172

> <r_epik_Charging_Adjusted_Penalty>
0.090563

> <i_epik_Tot_Q>
0

> <i_epik_Tot_abs_Q>
0

> <r_epik_Metal_State_Penalty>
0.440697

> <b_epik_Metal_Only>
0

> <s_epik_Chemistry_Notes>
This compound contains an acetal/aminal-like group ( X-CH(R)-Y where X, Y are N, S, or O) that may be acid/base labile, releasing an aldehyde.

> <s_lp_Force_Field>
OPLS_2005

> <r_lp_Energy>
42.0168

> <b_lp_Chiralities_Consistent>
1

> <s_lp_Variant>
AV-unprocessed.smi:44-2

> <Gold.Version>
5.8.1

> <Gold.Id.Protein>
6NUR|6NUR_protein|mol2

> <Gold.PLP.Fitness>
45.4933

> <Gold.PLP.PLP>
-37.3056

> <Gold.PLP.part.hbond>
-4.3139

> <Gold.PLP.part.metal>
0.0000

> <Gold.PLP.part.buried>
-5.9226

> <Gold.PLP.part.nonpolar>
-27.8141

> <Gold.PLP.part.repulsive>
0.2988

> <Gold.PLP.ligand.clash>
0.0000

> <Gold.PLP.ligand.torsion>
0.1987

> <Gold.PLP.Chemscore.Hbond>
2.0732

> <Gold.PLP.Chemscore.CHOScore>
0.7848

> <Gold.PLP.Chemscore.Metal>
0.0000

> <Gold.Chemscore.Hbonds>
donor molecule, donor type, donor heavy atom, donor atom, acceptor molecule, acceptor atom, score
      P1  H  6933  6945       L1    16  0.85
      P1  H  7989  7998       L1     8  0.94
      P1  H 10752 10763       L1     1  0.18
      L1  C     9    22       P1  8028  0.75

> <Gold.PLP.Chemscore.Internal.Correction>
0.0113

> <Gold.Rescore>
     Score         DG    S(hbond)    S(metal)    S(lipo)     H(rot)  DE(clash)    DE(int)     intcor
     11.32     -13.66       2.38        0.00      51.85       2.27       0.71       1.63       ----

> <Gold.Chemscore.Fitness>
11.3249

> <Gold.Chemscore.DG>
-13.6624

> <Gold.Chemscore.ZeroCoef>
-5.4800

> <Gold.Chemscore.Hbond>
2.3750

> <Gold.Chemscore.Metal>
0.0000

> <Gold.Chemscore.Lipo>
51.8493

> <Gold.Chemscore.Internal_Hbond>
0.0000

> <Gold.Chemscore.DEClash>
0.7069

> <Gold.Chemscore.DEInternal>
1.6306

> <Gold.Chemscore.Rot>
2.2720

> <Gold.Chemscore.Internal.Correction>
   9.000000E+99

> <Gold.Chemscore.Hbonds>
donor molecule, donor type, donor heavy atom, donor atom, acceptor molecule, acceptor atom, score
      P1  H  6933  6945       L1    16  0.32
      P1  H  7989  7998       L1     8  0.87
      P1  H 10752 10763       L1     1  0.18

> <Gold.Chemscore.Hbond.Weighted>
-7.9325

> <Gold.Chemscore.Metal.Weighted>
-0.0000

> <Gold.Chemscore.Lipo.Weighted>
-6.0664

> <Gold.Chemscore.Internal_Hbond.Weighted>
0.0000

> <Gold.Chemscore.DEClash.Weighted>
0.7069

> <Gold.Chemscore.DEInternal.Weighted>
1.6306

> <Gold.Chemscore.Rot.Weighted>
5.8164

> <Gold.Chemscore.Internal.Correction.Weighted>
   9.000000E+99

> <Gold.Protein.RotatedTorsions>
[ 6907 6896 6895 6894 ] final  119.07 input  -60.11 | X-H torsion
[ 7974 7965 7964 7962 ] final  169.90 input  175.53 | X-H torsion
[ 8008 7997 7996 7995 ] final  105.52 input   59.86 | X-H torsion
[ 10167 10162 10161 10158 ] final   39.05 input  -65.29 | X-H torsion
[ 10718 10713 10712 10709 ] final  -87.03 input   66.30 | X-H torsion
[ 10763 10752 10751 10750 ] final   45.26 input  -60.55 | X-H torsion
[ 11005 11000 10999 10996 ] final  104.58 input  -57.11 | X-H torsion

> <Gold.Protein.ActiveResidues>
 VAL166  LYS551  ARG553  GLY616  TRP617  ASP618  TYR619  PRO620  LYS621  CYS622 
 ASP623  PHE694  ASN695  SER759  ASP760  ASP761  ALA762  ILE779  LEU786  VAL792 
 PHE793  MET794  SER795  GLU796  ALA797  LYS798  CYS799  TRP800  GLU811  SER814 

> <Gold.Protein.RotatedAtoms>
  152.4498  133.7606  159.6744 H   0  0  0  0  0  0  0  0  0  0  0  0  # atno 6907 bound_to 6896
  150.8407  133.7931  159.3068 H   0  0  0  0  0  0  0  0  0  0  0  0  # atno 6908 bound_to 6896
  151.5557  135.1069  160.0012 H   0  0  0  0  0  0  0  0  0  0  0  0  # atno 6909 bound_to 6896
  144.7340  139.9122  143.6415 H   0  0  0  0  0  0  0  0  0  0  0  0  # atno 7974 bound_to 7965
  156.1666  140.3129  155.8899 H   0  0  0  0  0  0  0  0  0  0  0  0  # atno 8008 bound_to 7997
  155.3674  140.0480  157.3063 H   0  0  0  0  0  0  0  0  0  0  0  0  # atno 8009 bound_to 7997
  154.5198  140.2194  155.9007 H   0  0  0  0  0  0  0  0  0  0  0  0  # atno 8010 bound_to 7997
  140.3877  144.1895  150.6130 H   0  0  0  0  0  0  0  0  0  0  0  0  # atno 10167 bound_to 10162
  155.9987  130.4786  150.4805 H   0  0  0  0  0  0  0  0  0  0  0  0  # atno 10718 bound_to 10713
  152.9827  135.6045  154.3407 H   0  0  0  0  0  0  0  0  0  0  0  0  # atno 10763 bound_to 10752
  154.3104  135.2771  155.2570 H   0  0  0  0  0  0  0  0  0  0  0  0  # atno 10764 bound_to 10752
  154.4782  135.5924  153.6426 H   0  0  0  0  0  0  0  0  0  0  0  0  # atno 10765 bound_to 10752
  139.8793  134.9305  156.5384 H   0  0  0  0  0  0  0  0  0  0  0  0  # atno 11005 bound_to 11000
  146.0992  139.3987  143.0357 LP  0  0  0  0  0  0  0  0  0  0  0  0  # atno 17320 bound_to 7965
  145.7602  140.9938  143.1204 LP  0  0  0  0  0  0  0  0  0  0  0  0  # atno 17321 bound_to 7965
  140.4872  143.2359  151.8870 LP  0  0  0  0  0  0  0  0  0  0  0  0  # atno 17342 bound_to 10162
  139.4791  144.5205  151.8808 LP  0  0  0  0  0  0  0  0  0  0  0  0  # atno 17343 bound_to 10162
  157.2811  131.0607  151.2197 LP  0  0  0  0  0  0  0  0  0  0  0  0  # atno 17370 bound_to 10713
  157.3243  130.6953  149.6287 LP  0  0  0  0  0  0  0  0  0  0  0  0  # atno 17371 bound_to 10713
  140.8329  133.8265  155.9001 LP  0  0  0  0  0  0  0  0  0  0  0  0  # atno 17394 bound_to 11000
  140.9311  134.2020  157.4863 LP  0  0  0  0  0  0  0  0  0  0  0  0  # atno 17395 bound_to 11000

$$$$
