AV-unprocessed.smi:2438|AV-procd|sdf|9600|dock6
  -GOLD-   2272013233D 1   1.00000     0.00000
 Structure written by MMmdl.
 44 45  0  0  0  0  0  0  0  0  2 V2000
  146.4712  133.0752  152.3275 C   0  0  0  0  0  0  0  0  0  0  0  0
  145.0534  133.3845  152.4525 N   0  0  0  0  0  0  0  0  0  0  0  0
  144.1482  132.6002  151.6215 C   0  0  0  0  0  0  0  0  0  0  0  0
  144.7851  134.7649  152.5456 C   0  0  0  0  0  0  0  0  0  0  0  0
  145.0480  135.5368  151.4659 N   0  0  0  0  0  0  0  0  0  0  0  0
  144.8230  136.8531  151.5188 C   0  0  0  0  0  0  0  0  0  0  0  0
  144.3371  137.4638  152.6069 N   0  3  0  0  0  0  0  0  0  0  0  0
  144.0540  136.7367  153.7138 C   0  0  0  0  0  0  0  0  0  0  0  0
  144.2725  135.3379  153.7350 C   0  0  0  0  0  0  0  0  0  0  0  0
  143.9636  134.5013  154.8473 N   0  0  0  0  0  0  0  0  0  0  0  0
  144.0088  134.7835  156.1602 C   0  0  0  0  0  0  0  0  0  0  0  0
  144.3500  135.8621  156.6437 O   0  0  0  0  0  0  0  0  0  0  0  0
  143.6393  133.7224  156.8916 N   0  0  0  0  0  0  0  0  0  0  0  0
  143.5620  133.6707  158.3495 C   0  0  1  0  0  0  0  0  0  0  0  0
  142.9320  132.3370  158.7896 C   0  0  0  0  0  0  0  0  0  0  0  0
  142.9094  132.2106  160.3200 C   0  0  0  0  0  0  0  0  0  0  0  0
  144.3161  132.3813  160.9145 C   0  0  0  0  0  0  0  0  0  0  0  0
  144.9551  133.7213  160.4919 C   0  0  1  0  0  0  0  0  0  0  0  0
  146.3605  133.9087  161.0996 C   0  0  0  0  0  0  0  0  0  0  0  0
  146.3124  133.8607  162.4313 F   0  0  0  0  0  0  0  0  0  0  0  0
  147.1785  132.9509  160.6633 F   0  0  0  0  0  0  0  0  0  0  0  0
  146.8649  135.0857  160.7293 F   0  0  0  0  0  0  0  0  0  0  0  0
  144.9695  133.8398  158.9523 C   0  0  0  0  0  0  0  0  0  0  0  0
  147.0662  133.5818  153.0875 H   0  0  0  0  0  0  0  0  0  0  0  0
  146.8416  133.3777  151.3474 H   0  0  0  0  0  0  0  0  0  0  0  0
  146.6359  132.0029  152.4364 H   0  0  0  0  0  0  0  0  0  0  0  0
  143.1083  132.8562  151.8290 H   0  0  0  0  0  0  0  0  0  0  0  0
  144.2768  131.5367  151.8243 H   0  0  0  0  0  0  0  0  0  0  0  0
  144.3438  132.7698  150.5618 H   0  0  0  0  0  0  0  0  0  0  0  0
  145.0285  137.4763  150.6609 H   0  0  0  0  0  0  0  0  0  0  0  0
  143.6482  137.3164  154.5279 H   0  0  0  0  0  0  0  0  0  0  0  0
  143.7102  133.5529  154.6094 H   0  0  0  0  0  0  0  0  0  0  0  0
  143.3818  132.8789  156.4001 H   0  0  0  0  0  0  0  0  0  0  0  0
  142.9359  134.4820  158.7254 H   0  0  0  0  0  0  0  0  0  0  0  0
  141.9169  132.2548  158.3990 H   0  0  0  0  0  0  0  0  0  0  0  0
  143.4946  131.5032  158.3668 H   0  0  0  0  0  0  0  0  0  0  0  0
  142.2407  132.9634  160.7394 H   0  0  0  0  0  0  0  0  0  0  0  0
  142.5007  131.2409  160.6059 H   0  0  0  0  0  0  0  0  0  0  0  0
  144.2574  132.3195  162.0015 H   0  0  0  0  0  0  0  0  0  0  0  0
  144.9482  131.5524  160.5934 H   0  0  0  0  0  0  0  0  0  0  0  0
  144.3253  134.5242  160.8787 H   0  0  0  0  0  0  0  0  0  0  0  0
  145.6408  133.0877  158.5349 H   0  0  0  0  0  0  0  0  0  0  0  0
  145.3746  134.8092  158.6598 H   0  0  0  0  0  0  0  0  0  0  0  0
  144.1717  138.4707  152.6095 H   0  0  0  0  0  0  0  0  0  0  0  0
  1  2  1  0  0  0  0
  1 24  1  0  0  0  0
  1 25  1  0  0  0  0
  1 26  1  0  0  0  0
  2  3  1  0  0  0  0
  2  4  1  0  0  0  0
  3 27  1  0  0  0  0
  3 28  1  0  0  0  0
  3 29  1  0  0  0  0
  4  9  1  0  0  0  0
  4  5  2  0  0  0  0
  5  6  1  0  0  0  0
  6  7  2  0  0  0  0
  6 30  1  0  0  0  0
  7  8  1  0  0  0  0
  7 44  1  0  0  0  0
  8  9  2  0  0  0  0
  8 31  1  0  0  0  0
  9 10  1  0  0  0  0
 10 11  1  0  0  0  0
 10 32  1  0  0  0  0
 11 12  2  0  0  0  0
 11 13  1  0  0  0  0
 13 14  1  0  0  0  0
 13 33  1  0  0  0  0
 14 23  1  0  0  0  0
 14 15  1  0  0  0  0
 14 34  1  0  0  0  0
 15 16  1  0  0  0  0
 15 35  1  0  0  0  0
 15 36  1  0  0  0  0
 16 17  1  0  0  0  0
 16 37  1  0  0  0  0
 16 38  1  0  0  0  0
 17 18  1  0  0  0  0
 17 39  1  0  0  0  0
 17 40  1  0  0  0  0
 18 19  1  0  0  0  0
 18 23  1  0  0  0  0
 18 41  1  0  0  0  0
 19 20  1  0  0  0  0
 19 21  1  0  0  0  0
 19 22  1  0  0  0  0
 23 42  1  0  0  0  0
 23 43  1  0  0  0  0
M  CHG  1   7   1
M  END
> <s_m_source_file>
AV-unprocessed.smi

> <i_m_source_file_index>
2438

> <i_lp_mmshare_version>
43012

> <i_f3d_flags>
0

> <s_epik_input>
W0NIM11OKFtDSDNdKWMxbltjSF1uW2NIXWMxW05IXUMoPU8pW05IXVtDQEBIXTJbQ0gyXVtDSDJdW0NIMl1bQ0BASF0oQyhGKShGKUYpW0NIMl0y

> <s_epik_cmdline>
J2VwaWtfcHl0aG9uJywgJy1waCcsICc3LjAnLCAnLXRuJywgJzgnLCAnLW1hJywgJzIwMCcsICctbWV0YWxfYmluZGluZycsICctaW1hZScsICc8aW5maWxlLm1hZT4nLCAnLW9tYWUnLCAnPG91dGZpbGUubWFlPic=

> <r_lp_tautomer_probability>
0.999336

> <r_epik_Ionization_Penalty>
2.11643

> <r_epik_Ionization_Penalty_Charging>
2.11639

> <r_epik_Ionization_Penalty_Neutral>
4.47523e-05

> <r_epik_State_Penalty>
2.25369

> <r_epik_Charging_Adjusted_Penalty>
4.37008

> <i_epik_Tot_Q>
1

> <i_epik_Tot_abs_Q>
1

> <r_epik_Metal_State_Penalty>
2.27019

> <b_epik_Metal_Only>
0

> <s_lp_Force_Field>
OPLS_2005

> <r_lp_Energy>
18.5988

> <b_lp_Chiralities_Consistent>
1

> <s_lp_Variant>
AV-unprocessed.smi:2438-6

> <Gold.Version>
5.8.1

> <Gold.Id.Protein>
6NUR|6NUR_protein|mol2

> <Gold.PLP.Fitness>
36.1928

> <Gold.PLP.PLP>
-23.2744

> <Gold.PLP.part.hbond>
-4.5759

> <Gold.PLP.part.metal>
0.0000

> <Gold.PLP.part.buried>
-1.6450

> <Gold.PLP.part.nonpolar>
-17.6161

> <Gold.PLP.part.repulsive>
0.2983

> <Gold.PLP.ligand.clash>
0.0000

> <Gold.PLP.ligand.torsion>
0.4297

> <Gold.PLP.Chemscore.Hbond>
3.9425

> <Gold.PLP.Chemscore.CHOScore>
0.5286

> <Gold.PLP.Chemscore.Metal>
0.0000

> <Gold.Chemscore.Hbonds>
donor molecule, donor type, donor heavy atom, donor atom, acceptor molecule, acceptor atom, score
      L1  H     7    44       P1 10175  1.95
      L1  H    10    32       P1 10957  0.88
      L1  H    13    33       P1 10957  0.96
      L1  C     6    30       P1 10171  0.43

> <Gold.PLP.Chemscore.Internal.Correction>
0.3643

> <Gold.Rescore>
     Score         DG    S(hbond)    S(metal)    S(lipo)     H(rot)  DE(clash)    DE(int)     intcor
     14.51     -16.52       2.90        0.00      40.27       1.31       1.44       0.57       ----

> <Gold.Chemscore.Fitness>
14.5135

> <Gold.Chemscore.DG>
-16.5216

> <Gold.Chemscore.ZeroCoef>
-5.4800

> <Gold.Chemscore.Hbond>
2.8975

> <Gold.Chemscore.Metal>
0.0000

> <Gold.Chemscore.Lipo>
40.2733

> <Gold.Chemscore.Internal_Hbond>
0.0000

> <Gold.Chemscore.DEClash>
1.4357

> <Gold.Chemscore.DEInternal>
0.5724

> <Gold.Chemscore.Rot>
1.3078

> <Gold.Chemscore.Internal.Correction>
   9.000000E+99

> <Gold.Chemscore.Hbonds>
donor molecule, donor type, donor heavy atom, donor atom, acceptor molecule, acceptor atom, score
      L1  H     7    44       P1 10175  0.91
      L1  H    10    32       P1 10957  0.84
      L1  H    13    33       P1 10957  0.89

> <Gold.Chemscore.Hbond.Weighted>
-9.6777

> <Gold.Chemscore.Metal.Weighted>
-0.0000

> <Gold.Chemscore.Lipo.Weighted>
-4.7120

> <Gold.Chemscore.Internal_Hbond.Weighted>
0.0000

> <Gold.Chemscore.DEClash.Weighted>
1.4357

> <Gold.Chemscore.DEInternal.Weighted>
0.5724

> <Gold.Chemscore.Rot.Weighted>
3.3481

> <Gold.Chemscore.Internal.Correction.Weighted>
   9.000000E+99

> <Gold.Protein.RotatedTorsions>
[ 6907 6896 6895 6894 ] final   41.19 input  -60.11 | X-H torsion
[ 7974 7965 7964 7962 ] final -167.10 input  175.53 | X-H torsion
[ 8008 7997 7996 7995 ] final -150.87 input   59.86 | X-H torsion
[ 10167 10162 10161 10158 ] final  156.94 input  -65.29 | X-H torsion
[ 10718 10713 10712 10709 ] final   59.20 input   66.30 | X-H torsion
[ 10763 10752 10751 10750 ] final   59.25 input  -60.55 | X-H torsion
[ 11005 11000 10999 10996 ] final  -37.73 input  -57.11 | X-H torsion

> <Gold.Protein.ActiveResidues>
 VAL166  LYS551  ARG553  GLY616  TRP617  ASP618  TYR619  PRO620  LYS621  CYS622 
 ASP623  PHE694  ASN695  SER759  ASP760  ASP761  ALA762  ILE779  LEU786  VAL792 
 PHE793  MET794  SER795  GLU796  ALA797  LYS798  CYS799  TRP800  GLU811  SER814 

> <Gold.Protein.RotatedAtoms>
  152.1921  134.8663  160.0516 H   0  0  0  0  0  0  0  0  0  0  0  0  # atno 6907 bound_to 6896
  151.9547  133.3672  159.4021 H   0  0  0  0  0  0  0  0  0  0  0  0  # atno 6908 bound_to 6896
  150.6937  134.4227  159.5256 H   0  0  0  0  0  0  0  0  0  0  0  0  # atno 6909 bound_to 6896
  144.7230  140.2569  143.6270 H   0  0  0  0  0  0  0  0  0  0  0  0  # atno 7974 bound_to 7965
  155.6304  140.0691  157.2650 H   0  0  0  0  0  0  0  0  0  0  0  0  # atno 8008 bound_to 7997
  154.4207  140.1768  156.1515 H   0  0  0  0  0  0  0  0  0  0  0  0  # atno 8009 bound_to 7997
  155.9937  140.3342  155.6781 H   0  0  0  0  0  0  0  0  0  0  0  0  # atno 8010 bound_to 7997
  139.4822  144.4963  151.8235 H   0  0  0  0  0  0  0  0  0  0  0  0  # atno 10167 bound_to 10162
  157.5657  130.8869  149.9183 H   0  0  0  0  0  0  0  0  0  0  0  0  # atno 10718 bound_to 10713
  152.9890  135.5578  154.5682 H   0  0  0  0  0  0  0  0  0  0  0  0  # atno 10763 bound_to 10752
  154.5088  135.2801  155.1362 H   0  0  0  0  0  0  0  0  0  0  0  0  # atno 10764 bound_to 10752
  154.2762  135.6353  153.5382 H   0  0  0  0  0  0  0  0  0  0  0  0  # atno 10765 bound_to 10752
  140.9974  133.6973  156.1960 H   0  0  0  0  0  0  0  0  0  0  0  0  # atno 11005 bound_to 11000
  145.8174  139.2029  143.1958 LP  0  0  0  0  0  0  0  0  0  0  0  0  # atno 17320 bound_to 7965
  146.0544  140.8036  142.9766 LP  0  0  0  0  0  0  0  0  0  0  0  0  # atno 17321 bound_to 7965
  140.4451  144.1932  150.5893 LP  0  0  0  0  0  0  0  0  0  0  0  0  # atno 17342 bound_to 10162
  140.4642  143.2437  151.9178 LP  0  0  0  0  0  0  0  0  0  0  0  0  # atno 17343 bound_to 10162
  156.0705  130.3686  150.0785 LP  0  0  0  0  0  0  0  0  0  0  0  0  # atno 17370 bound_to 10713
  156.8944  130.9599  151.3584 LP  0  0  0  0  0  0  0  0  0  0  0  0  # atno 17371 bound_to 10713
  140.6943  134.4632  157.5588 LP  0  0  0  0  0  0  0  0  0  0  0  0  # atno 17394 bound_to 11000
  139.9021  134.8531  156.1851 LP  0  0  0  0  0  0  0  0  0  0  0  0  # atno 17395 bound_to 11000

$$$$
