AV-unprocessed.smi:3331|AV-procd|sdf|12822|dock9
  -GOLD-   2272019193D 1   1.00000     0.00000
 Structure written by MMmdl.
 47 48  0  0  0  0  0  0  0  0  2 V2000
  151.3728  137.8396  154.7899 C   0  0  0  0  0  0  0  0  0  0  0  0
  150.2423  138.8555  155.0045 C   0  0  1  0  0  0  0  0  0  0  0  0
  150.7981  140.2784  155.2435 C   0  0  0  0  0  0  0  0  0  0  0  0
  149.6902  141.3534  155.3254 C   0  0  2  0  0  0  0  0  0  0  0  0
  148.9633  141.3375  156.6824 C   0  0  0  0  0  0  0  0  0  0  0  0
  148.7273  141.2050  154.1269 C   0  0  0  0  0  0  0  0  0  0  0  0
  148.1885  139.8378  154.0928 N   0  0  0  0  0  0  0  0  0  0  0  0
  146.9127  139.4681  154.3714 C   0  0  0  0  0  0  0  0  0  0  0  0
  146.0504  140.2894  154.6897 O   0  0  0  0  0  0  0  0  0  0  0  0
  146.5005  137.9819  154.2955 C   0  0  1  0  0  0  0  0  0  0  0  0
  145.0497  137.8115  154.7737 C   0  0  0  0  0  0  0  0  0  0  0  0
  146.6346  137.4451  152.9207 N   0  3  0  0  0  0  0  0  0  0  0  0
  145.8490  136.2220  152.6486 C   0  0  0  0  0  0  0  0  0  0  0  0
  145.4971  136.1140  151.1586 C   0  0  0  0  0  0  0  0  0  0  0  0
  145.3532  134.7332  150.7397 N   0  0  0  0  0  0  0  0  0  0  0  0
  144.3023  134.1455  150.0671 C   0  0  0  0  0  0  0  0  0  0  0  0
  144.6156  132.8272  149.8977 C   0  0  0  0  0  0  0  0  0  0  0  0
  145.8932  132.7013  150.5115 C   0  0  0  0  0  0  0  0  0  0  0  0
  146.3314  133.8438  151.0160 N   0  0  0  0  0  0  0  0  0  0  0  0
  149.2501  138.8590  153.8223 C   0  0  0  0  0  0  0  0  0  0  0  0
  151.9585  138.0785  153.9017 H   0  0  0  0  0  0  0  0  0  0  0  0
  150.9762  136.8315  154.6658 H   0  0  0  0  0  0  0  0  0  0  0  0
  152.0520  137.8229  155.6427 H   0  0  0  0  0  0  0  0  0  0  0  0
  149.6978  138.5488  155.8986 H   0  0  0  0  0  0  0  0  0  0  0  0
  151.4145  140.2998  156.1431 H   0  0  0  0  0  0  0  0  0  0  0  0
  151.4650  140.5350  154.4191 H   0  0  0  0  0  0  0  0  0  0  0  0
  150.1728  142.3282  155.2427 H   0  0  0  0  0  0  0  0  0  0  0  0
  148.4552  140.3906  156.8644 H   0  0  0  0  0  0  0  0  0  0  0  0
  148.2161  142.1295  156.7348 H   0  0  0  0  0  0  0  0  0  0  0  0
  149.6643  141.4964  157.5023 H   0  0  0  0  0  0  0  0  0  0  0  0
  147.9684  141.9843  154.1438 H   0  0  0  0  0  0  0  0  0  0  0  0
  149.2761  141.3823  153.2004 H   0  0  0  0  0  0  0  0  0  0  0  0
  147.1490  137.3692  154.9194 H   0  0  0  0  0  0  0  0  0  0  0  0
  144.9181  138.1710  155.7948 H   0  0  0  0  0  0  0  0  0  0  0  0
  144.7540  136.7619  154.7589 H   0  0  0  0  0  0  0  0  0  0  0  0
  144.3524  138.3599  154.1388 H   0  0  0  0  0  0  0  0  0  0  0  0
  146.3240  138.1569  152.2752 H   0  0  0  0  0  0  0  0  0  0  0  0
  146.4159  135.3423  152.9556 H   0  0  0  0  0  0  0  0  0  0  0  0
  144.9380  136.2414  153.2485 H   0  0  0  0  0  0  0  0  0  0  0  0
  144.5663  136.6411  150.9437 H   0  0  0  0  0  0  0  0  0  0  0  0
  146.2743  136.5801  150.5514 H   0  0  0  0  0  0  0  0  0  0  0  0
  143.4291  134.7063  149.7676 H   0  0  0  0  0  0  0  0  0  0  0  0
  144.0218  132.0678  149.4110 H   0  0  0  0  0  0  0  0  0  0  0  0
  146.5100  131.8196  150.6048 H   0  0  0  0  0  0  0  0  0  0  0  0
  149.7636  139.1272  152.8975 H   0  0  0  0  0  0  0  0  0  0  0  0
  148.8641  137.8516  153.6594 H   0  0  0  0  0  0  0  0  0  0  0  0
  147.6117  137.2556  152.7470 H   0  0  0  0  0  0  0  0  0  0  0  0
  1  2  1  0  0  0  0
  1 21  1  0  0  0  0
  1 22  1  0  0  0  0
  1 23  1  0  0  0  0
  2 20  1  0  0  0  0
  2  3  1  0  0  0  0
  2 24  1  0  0  0  0
  3  4  1  0  0  0  0
  3 25  1  0  0  0  0
  3 26  1  0  0  0  0
  4  5  1  0  0  0  0
  4  6  1  0  0  0  0
  4 27  1  0  0  0  0
  5 28  1  0  0  0  0
  5 29  1  0  0  0  0
  5 30  1  0  0  0  0
  6  7  1  0  0  0  0
  6 31  1  0  0  0  0
  6 32  1  0  0  0  0
  7  8  1  0  0  0  0
  7 20  1  0  0  0  0
  8  9  2  0  0  0  0
  8 10  1  0  0  0  0
 10 11  1  0  0  0  0
 10 12  1  0  0  0  0
 10 33  1  0  0  0  0
 11 34  1  0  0  0  0
 11 35  1  0  0  0  0
 11 36  1  0  0  0  0
 12 13  1  0  0  0  0
 12 37  1  0  0  0  0
 12 47  1  0  0  0  0
 13 14  1  0  0  0  0
 13 38  1  0  0  0  0
 13 39  1  0  0  0  0
 14 15  1  0  0  0  0
 14 40  1  0  0  0  0
 14 41  1  0  0  0  0
 15 19  1  0  0  0  0
 15 16  1  0  0  0  0
 16 17  2  0  0  0  0
 16 42  1  0  0  0  0
 17 18  1  0  0  0  0
 17 43  1  0  0  0  0
 18 19  2  0  0  0  0
 18 44  1  0  0  0  0
 20 45  1  0  0  0  0
 20 46  1  0  0  0  0
M  CHG  1  12   1
M  END
> <s_m_source_file>
AV-unprocessed.smi

> <i_m_source_file_index>
3331

> <i_lp_mmshare_version>
43012

> <i_f3d_flags>
0

> <s_epik_input>
W0NIM11bQ0BASF0xW0NIMl1bQ0BASF0oW0NIM10pW0NIMl1OKFtDSDJdMSlDKD1PKVtDQEhdKFtDSDNdKVtOSF1bQ0gyXVtDSDJdbjJbY0hdW2NIXVtjSF1uMg==

> <s_epik_cmdline>
J2VwaWtfcHl0aG9uJywgJy1waCcsICc3LjAnLCAnLXRuJywgJzgnLCAnLW1hJywgJzIwMCcsICctbWV0YWxfYmluZGluZycsICctaW1hZScsICc8aW5maWxlLm1hZT4nLCAnLW9tYWUnLCAnPG91dGZpbGUubWFlPic=

> <r_lp_tautomer_probability>
1

> <r_epik_Ionization_Penalty>
0.189706

> <r_epik_Ionization_Penalty_Charging>
0.189703

> <r_epik_Ionization_Penalty_Neutral>
2.45875e-06

> <r_epik_State_Penalty>
0.179341

> <r_epik_Charging_Adjusted_Penalty>
0.369044

> <i_epik_Tot_Q>
1

> <i_epik_Tot_abs_Q>
1

> <r_epik_Metal_State_Penalty>
0.179578

> <b_epik_Metal_Only>
0

> <s_lp_Force_Field>
OPLS_2005

> <r_lp_Energy>
28.0969

> <b_lp_Chiralities_Consistent>
1

> <s_lp_Variant>
AV-unprocessed.smi:3331-6

> <Gold.Version>
5.8.1

> <Gold.Id.Protein>
6NUR|6NUR_protein|mol2

> <Gold.PLP.Fitness>
43.6530

> <Gold.PLP.PLP>
-33.1541

> <Gold.PLP.part.hbond>
-1.0000

> <Gold.PLP.part.metal>
0.0000

> <Gold.PLP.part.buried>
1.2490

> <Gold.PLP.part.nonpolar>
-32.3232

> <Gold.PLP.part.repulsive>
0.3288

> <Gold.PLP.ligand.clash>
0.0000

> <Gold.PLP.ligand.torsion>
0.6497

> <Gold.PLP.Chemscore.Hbond>
1.9200

> <Gold.PLP.Chemscore.CHOScore>
2.0000

> <Gold.PLP.Chemscore.Metal>
0.0000

> <Gold.Chemscore.Hbonds>
donor molecule, donor type, donor heavy atom, donor atom, acceptor molecule, acceptor atom, score
      L1  H    12    47       P1  7948  1.98
      L1  C    16    42       P1 10186  1.00
      L1  C    18    44       P1 10747  0.67

> <Gold.PLP.Chemscore.Internal.Correction>
0.0382

> <Gold.Rescore>
     Score         DG    S(hbond)    S(metal)    S(lipo)     H(rot)  DE(clash)    DE(int)     intcor
     13.13     -14.06       0.99        0.00      82.94       1.73       0.16       0.77       ----

> <Gold.Chemscore.Fitness>
13.1288

> <Gold.Chemscore.DG>
-14.0567

> <Gold.Chemscore.ZeroCoef>
-5.4800

> <Gold.Chemscore.Hbond>
0.9850

> <Gold.Chemscore.Metal>
0.0000

> <Gold.Chemscore.Lipo>
82.9378

> <Gold.Chemscore.Internal_Hbond>
0.0000

> <Gold.Chemscore.DEClash>
0.1609

> <Gold.Chemscore.DEInternal>
0.7670

> <Gold.Chemscore.Rot>
1.7254

> <Gold.Chemscore.Internal.Correction>
   9.000000E+99

> <Gold.Chemscore.Hbonds>
donor molecule, donor type, donor heavy atom, donor atom, acceptor molecule, acceptor atom, score
      L1  H    12    47       P1  7948  0.93

> <Gold.Chemscore.Hbond.Weighted>
-3.2901

> <Gold.Chemscore.Metal.Weighted>
-0.0000

> <Gold.Chemscore.Lipo.Weighted>
-9.7037

> <Gold.Chemscore.Internal_Hbond.Weighted>
0.0000

> <Gold.Chemscore.DEClash.Weighted>
0.1609

> <Gold.Chemscore.DEInternal.Weighted>
0.7670

> <Gold.Chemscore.Rot.Weighted>
4.4170

> <Gold.Chemscore.Internal.Correction.Weighted>
   9.000000E+99

> <Gold.Protein.RotatedTorsions>
[ 6907 6896 6895 6894 ] final  -28.04 input  -60.11 | X-H torsion
[ 7974 7965 7964 7962 ] final -167.57 input  175.53 | X-H torsion
[ 8008 7997 7996 7995 ] final  103.26 input   59.86 | X-H torsion
[ 10167 10162 10161 10158 ] final  -18.83 input  -65.29 | X-H torsion
[ 10718 10713 10712 10709 ] final   18.15 input   66.30 | X-H torsion
[ 10763 10752 10751 10750 ] final  -96.69 input  -60.55 | X-H torsion
[ 11005 11000 10999 10996 ] final -136.48 input  -57.11 | X-H torsion

> <Gold.Protein.ActiveResidues>
 VAL166  LYS551  ARG553  GLY616  TRP617  ASP618  TYR619  PRO620  LYS621  CYS622 
 ASP623  PHE694  ASN695  SER759  ASP760  ASP761  ALA762  ILE779  LEU786  VAL792 
 PHE793  MET794  SER795  GLU796  ALA797  LYS798  CYS799  TRP800  GLU811  SER814 

> <Gold.Protein.RotatedAtoms>
  151.1386  135.0167  159.8614 H   0  0  0  0  0  0  0  0  0  0  0  0  # atno 6907 bound_to 6896
  152.5452  134.1526  159.8535 H   0  0  0  0  0  0  0  0  0  0  0  0  # atno 6908 bound_to 6896
  151.1599  133.4806  159.2627 H   0  0  0  0  0  0  0  0  0  0  0  0  # atno 6909 bound_to 6896
  144.7220  140.2499  143.6280 H   0  0  0  0  0  0  0  0  0  0  0  0  # atno 7974 bound_to 7965
  156.1468  140.3167  155.8583 H   0  0  0  0  0  0  0  0  0  0  0  0  # atno 8008 bound_to 7997
  155.4049  140.0502  157.3052 H   0  0  0  0  0  0  0  0  0  0  0  0  # atno 8009 bound_to 7997
  154.5023  140.2134  155.9333 H   0  0  0  0  0  0  0  0  0  0  0  0  # atno 8010 bound_to 7997
  140.7262  143.4878  151.0032 H   0  0  0  0  0  0  0  0  0  0  0  0  # atno 10167 bound_to 10162
  157.0923  130.6433  149.5851 H   0  0  0  0  0  0  0  0  0  0  0  0  # atno 10718 bound_to 10713
  154.7262  135.5074  153.8890 H   0  0  0  0  0  0  0  0  0  0  0  0  # atno 10763 bound_to 10752
  153.0907  135.6658  153.9868 H   0  0  0  0  0  0  0  0  0  0  0  0  # atno 10764 bound_to 10752
  153.9680  135.3041  155.3408 H   0  0  0  0  0  0  0  0  0  0  0  0  # atno 10765 bound_to 10752
  140.8801  134.1943  157.4597 H   0  0  0  0  0  0  0  0  0  0  0  0  # atno 11005 bound_to 11000
  145.8238  139.2055  143.1922 LP  0  0  0  0  0  0  0  0  0  0  0  0  # atno 17320 bound_to 7965
  146.0491  140.8088  142.9791 LP  0  0  0  0  0  0  0  0  0  0  0  0  # atno 17321 bound_to 7965
  139.8580  143.7351  152.3175 LP  0  0  0  0  0  0  0  0  0  0  0  0  # atno 17342 bound_to 10162
  139.7557  144.7521  151.0440 LP  0  0  0  0  0  0  0  0  0  0  0  0  # atno 17343 bound_to 10162
  155.9895  130.4942  150.7216 LP  0  0  0  0  0  0  0  0  0  0  0  0  # atno 17370 bound_to 10713
  157.4711  131.0893  151.0641 LP  0  0  0  0  0  0  0  0  0  0  0  0  # atno 17371 bound_to 10713
  139.8719  134.9813  156.5111 LP  0  0  0  0  0  0  0  0  0  0  0  0  # atno 17394 bound_to 11000
  140.8472  133.8160  155.9132 LP  0  0  0  0  0  0  0  0  0  0  0  0  # atno 17395 bound_to 11000

$$$$
