AV-unprocessed.smi:570|AV-procd|sdf|2961|dock1
  -GOLD-   2262023463D 1   1.00000     0.00000
 Structure written by MMmdl.
 40 41  0  0  0  0  0  0  0  0  1 V2000
  151.0951  140.5530  155.6738 C   0  0  0  0  0  0  0  0  0  0  0  0
  151.9161  140.0201  154.6495 O   0  0  0  0  0  0  0  0  0  0  0  0
  152.5141  138.7891  155.0182 C   0  0  0  0  0  0  0  0  0  0  0  0
  151.7442  137.6452  154.3491 C   0  0  0  0  0  0  0  0  0  0  0  0
  150.3095  137.5081  154.8834 C   0  0  0  0  0  0  0  0  0  0  0  0
  149.7251  136.2253  154.5129 N   0  0  0  0  0  0  0  0  0  0  0  0
  149.8433  135.0904  155.2204 C   0  0  0  0  0  0  0  0  0  0  0  0
  150.4779  135.0060  156.2725 O   0  0  0  0  0  0  0  0  0  0  0  0
  149.2211  133.8722  154.6013 C   0  0  0  0  0  0  0  0  0  0  0  0
  148.2380  134.0955  153.6991 N   0  0  0  0  0  0  0  0  0  0  0  0
  147.6487  133.0438  153.1175 C   0  0  0  0  0  0  0  0  0  0  0  0
  146.6265  133.3020  152.1950 N   0  0  0  0  0  0  0  0  0  0  0  0
  145.9396  134.5951  152.1418 C   0  0  0  0  0  0  0  0  0  0  0  0
  145.4695  134.9088  150.7111 C   0  0  0  0  0  0  0  0  0  0  0  0
  144.6640  133.8435  150.2229 O   0  0  0  0  0  0  0  0  0  0  0  0
  145.3942  132.6249  150.1595 C   0  0  0  0  0  0  0  0  0  0  0  0
  145.8581  132.2221  151.5695 C   0  0  0  0  0  0  0  0  0  0  0  0
  147.9639  131.7649  153.3558 N   0  0  0  0  0  0  0  0  0  0  0  0
  148.9516  131.5153  154.2400 C   0  0  0  0  0  0  0  0  0  0  0  0
  149.6354  132.5497  154.9075 C   0  0  0  0  0  0  0  0  0  0  0  0
  150.9215  132.1655  156.0004 Cl  0  0  0  0  0  0  0  0  0  0  0  0
  150.6611  141.4963  155.3423 H   0  0  0  0  0  0  0  0  0  0  0  0
  151.6712  140.7475  156.5795 H   0  0  0  0  0  0  0  0  0  0  0  0
  150.2771  139.8740  155.9176 H   0  0  0  0  0  0  0  0  0  0  0  0
  153.5589  138.7717  154.7032 H   0  0  0  0  0  0  0  0  0  0  0  0
  152.4930  138.6731  156.1030 H   0  0  0  0  0  0  0  0  0  0  0  0
  151.7178  137.8108  153.2712 H   0  0  0  0  0  0  0  0  0  0  0  0
  152.2877  136.7121  154.5047 H   0  0  0  0  0  0  0  0  0  0  0  0
  150.2897  137.6318  155.9678 H   0  0  0  0  0  0  0  0  0  0  0  0
  149.6817  138.2978  154.4698 H   0  0  0  0  0  0  0  0  0  0  0  0
  149.2017  136.1917  153.6499 H   0  0  0  0  0  0  0  0  0  0  0  0
  145.0852  134.5644  152.8188 H   0  0  0  0  0  0  0  0  0  0  0  0
  146.5783  135.4123  152.4755 H   0  0  0  0  0  0  0  0  0  0  0  0
  144.8834  135.8278  150.7031 H   0  0  0  0  0  0  0  0  0  0  0  0
  146.3215  135.0698  150.0484 H   0  0  0  0  0  0  0  0  0  0  0  0
  144.7529  131.8493  149.7405 H   0  0  0  0  0  0  0  0  0  0  0  0
  146.2459  132.7316  149.4856 H   0  0  0  0  0  0  0  0  0  0  0  0
  146.4337  131.3006  151.4873 H   0  0  0  0  0  0  0  0  0  0  0  0
  144.9951  132.0000  152.1980 H   0  0  0  0  0  0  0  0  0  0  0  0
  149.2034  130.4788  154.4101 H   0  0  0  0  0  0  0  0  0  0  0  0
  1  2  1  0  0  0  0
  1 22  1  0  0  0  0
  1 23  1  0  0  0  0
  1 24  1  0  0  0  0
  2  3  1  0  0  0  0
  3  4  1  0  0  0  0
  3 25  1  0  0  0  0
  3 26  1  0  0  0  0
  4  5  1  0  0  0  0
  4 27  1  0  0  0  0
  4 28  1  0  0  0  0
  5  6  1  0  0  0  0
  5 29  1  0  0  0  0
  5 30  1  0  0  0  0
  6  7  1  0  0  0  0
  6 31  1  0  0  0  0
  7  8  2  0  0  0  0
  7  9  1  0  0  0  0
  9 20  1  0  0  0  0
  9 10  2  0  0  0  0
 10 11  1  0  0  0  0
 11 12  1  0  0  0  0
 11 18  2  0  0  0  0
 12 17  1  0  0  0  0
 12 13  1  0  0  0  0
 13 14  1  0  0  0  0
 13 32  1  0  0  0  0
 13 33  1  0  0  0  0
 14 15  1  0  0  0  0
 14 34  1  0  0  0  0
 14 35  1  0  0  0  0
 15 16  1  0  0  0  0
 16 17  1  0  0  0  0
 16 36  1  0  0  0  0
 16 37  1  0  0  0  0
 17 38  1  0  0  0  0
 17 39  1  0  0  0  0
 18 19  1  0  0  0  0
 19 20  2  0  0  0  0
 19 40  1  0  0  0  0
 20 21  1  0  0  0  0
M  END
> <s_m_source_file>
AV-unprocessed.smi

> <i_m_source_file_index>
570

> <i_lp_mmshare_version>
43012

> <i_f3d_flags>
0

> <s_epik_input>
W0NIM11PW0NIMl1bQ0gyXVtDSDJdW05IXUMoPU8pYzFuYyhuW2NIXWMxQ2wpTjJbQ0gyXVtDSDJdT1tDSDJdW0NIMl0y

> <s_epik_cmdline>
J2VwaWtfcHl0aG9uJywgJy1waCcsICc3LjAnLCAnLXRuJywgJzgnLCAnLW1hJywgJzIwMCcsICctbWV0YWxfYmluZGluZycsICctaW1hZScsICc8aW5maWxlLm1hZT4nLCAnLW9tYWUnLCAnPG91dGZpbGUubWFlPic=

> <r_lp_tautomer_probability>
1

> <r_epik_Ionization_Penalty>
2.32145e-05

> <r_epik_Ionization_Penalty_Charging>
0

> <r_epik_Ionization_Penalty_Neutral>
2.32145e-05

> <r_epik_State_Penalty>
-0

> <r_epik_Charging_Adjusted_Penalty>
0

> <i_epik_Tot_Q>
0

> <i_epik_Tot_abs_Q>
0

> <r_epik_Metal_State_Penalty>
0.0219249

> <b_epik_Metal_Only>
0

> <s_lp_Force_Field>
OPLS_2005

> <r_lp_Energy>
13.2289

> <b_lp_Chiralities_Consistent>
1

> <s_lp_Variant>
AV-unprocessed.smi:570-1

> <Gold.Version>
5.8.1

> <Gold.Id.Protein>
6NUR|6NUR_protein|mol2

> <Gold.PLP.Fitness>
43.4372

> <Gold.PLP.PLP>
-38.7920

> <Gold.PLP.part.hbond>
-1.7788

> <Gold.PLP.part.metal>
0.0000

> <Gold.PLP.part.buried>
-7.0655

> <Gold.PLP.part.nonpolar>
-32.5954

> <Gold.PLP.part.repulsive>
2.3689

> <Gold.PLP.ligand.clash>
0.0000

> <Gold.PLP.ligand.torsion>
0.8252

> <Gold.PLP.Chemscore.Hbond>
2.0000

> <Gold.PLP.Chemscore.CHOScore>
0.0000

> <Gold.PLP.Chemscore.Metal>
0.0000

> <Gold.Chemscore.Hbonds>
donor molecule, donor type, donor heavy atom, donor atom, acceptor molecule, acceptor atom, score
      L1  H     6    31       P1  7948  1.00
      P1  H  7989  7998       L1     2  0.70

> <Gold.PLP.Chemscore.Internal.Correction>
0.2956

> <Gold.Rescore>
     Score         DG    S(hbond)    S(metal)    S(lipo)     H(rot)  DE(clash)    DE(int)     intcor
     13.73     -16.14       1.84        0.00      74.20       1.63       0.28       2.14       ----

> <Gold.Chemscore.Fitness>
13.7317

> <Gold.Chemscore.DG>
-16.1449

> <Gold.Chemscore.ZeroCoef>
-5.4800

> <Gold.Chemscore.Hbond>
1.8439

> <Gold.Chemscore.Metal>
0.0000

> <Gold.Chemscore.Lipo>
74.1984

> <Gold.Chemscore.Internal_Hbond>
0.0000

> <Gold.Chemscore.DEClash>
0.2782

> <Gold.Chemscore.DEInternal>
2.1350

> <Gold.Chemscore.Rot>
1.6308

> <Gold.Chemscore.Internal.Correction>
   9.000000E+99

> <Gold.Chemscore.Hbonds>
donor molecule, donor type, donor heavy atom, donor atom, acceptor molecule, acceptor atom, score
      L1  H     6    31       P1  7948  0.89
      P1  H  7989  7998       L1     2  0.34

> <Gold.Chemscore.Hbond.Weighted>
-6.1587

> <Gold.Chemscore.Metal.Weighted>
-0.0000

> <Gold.Chemscore.Lipo.Weighted>
-8.6812

> <Gold.Chemscore.Internal_Hbond.Weighted>
0.0000

> <Gold.Chemscore.DEClash.Weighted>
0.2782

> <Gold.Chemscore.DEInternal.Weighted>
2.1350

> <Gold.Chemscore.Rot.Weighted>
4.1749

> <Gold.Chemscore.Internal.Correction.Weighted>
   9.000000E+99

> <Gold.Protein.RotatedTorsions>
[ 6907 6896 6895 6894 ] final -108.98 input  -60.11 | X-H torsion
[ 7974 7965 7964 7962 ] final  -33.57 input  175.53 | X-H torsion
[ 8008 7997 7996 7995 ] final   64.51 input   59.86 | X-H torsion
[ 10167 10162 10161 10158 ] final   45.32 input  -65.29 | X-H torsion
[ 10718 10713 10712 10709 ] final  122.24 input   66.30 | X-H torsion
[ 10763 10752 10751 10750 ] final  106.21 input  -60.55 | X-H torsion
[ 11005 11000 10999 10996 ] final  -58.24 input  -57.11 | X-H torsion

> <Gold.Protein.ActiveResidues>
 VAL166  LYS551  ARG553  GLY616  TRP617  ASP618  TYR619  PRO620  LYS621  CYS622 
 ASP623  PHE694  ASN695  SER759  ASP760  ASP761  ALA762  ILE779  LEU786  VAL792 
 PHE793  MET794  SER795  GLU796  ALA797  LYS798  CYS799  TRP800  GLU811  SER814 

> <Gold.Protein.RotatedAtoms>
  150.7534  133.9597  159.3511 H   0  0  0  0  0  0  0  0  0  0  0  0  # atno 6907 bound_to 6896
  151.7521  135.0828  160.0342 H   0  0  0  0  0  0  0  0  0  0  0  0  # atno 6908 bound_to 6896
  152.3459  133.6084  159.5945 H   0  0  0  0  0  0  0  0  0  0  0  0  # atno 6909 bound_to 6896
  146.0900  140.5933  142.8869 H   0  0  0  0  0  0  0  0  0  0  0  0  # atno 7974 bound_to 7965
  155.6471  140.3497  155.4735 H   0  0  0  0  0  0  0  0  0  0  0  0  # atno 8008 bound_to 7997
  155.9878  140.1187  157.0690 H   0  0  0  0  0  0  0  0  0  0  0  0  # atno 8009 bound_to 7997
  154.4210  140.1125  156.5510 H   0  0  0  0  0  0  0  0  0  0  0  0  # atno 8010 bound_to 7997
  140.3254  144.2654  150.6176 H   0  0  0  0  0  0  0  0  0  0  0  0  # atno 10167 bound_to 10162
  157.5758  131.1079  150.8282 H   0  0  0  0  0  0  0  0  0  0  0  0  # atno 10718 bound_to 10713
  153.3899  135.3884  155.1916 H   0  0  0  0  0  0  0  0  0  0  0  0  # atno 10763 bound_to 10752
  154.8718  135.3746  154.4751 H   0  0  0  0  0  0  0  0  0  0  0  0  # atno 10764 bound_to 10752
  153.5236  135.7086  153.5780 H   0  0  0  0  0  0  0  0  0  0  0  0  # atno 10765 bound_to 10752
  141.1199  133.6612  156.4891 H   0  0  0  0  0  0  0  0  0  0  0  0  # atno 11005 bound_to 11000
  144.7353  140.4790  143.6908 LP  0  0  0  0  0  0  0  0  0  0  0  0  # atno 17320 bound_to 7965
  145.6058  139.1508  143.3103 LP  0  0  0  0  0  0  0  0  0  0  0  0  # atno 17321 bound_to 7965
  140.5446  143.2217  151.8029 LP  0  0  0  0  0  0  0  0  0  0  0  0  # atno 17342 bound_to 10162
  139.4866  144.4556  151.9602 LP  0  0  0  0  0  0  0  0  0  0  0  0  # atno 17343 bound_to 10162
  156.8742  130.5156  149.5295 LP  0  0  0  0  0  0  0  0  0  0  0  0  # atno 17370 bound_to 10713
  156.0802  130.5814  150.9549 LP  0  0  0  0  0  0  0  0  0  0  0  0  # atno 17371 bound_to 10713
  140.4538  134.6904  157.5052 LP  0  0  0  0  0  0  0  0  0  0  0  0  # atno 17394 bound_to 11000
  140.0148  134.6635  155.9326 LP  0  0  0  0  0  0  0  0  0  0  0  0  # atno 17395 bound_to 11000

$$$$
