AV-unprocessed.smi:1827|AV-procd|sdf|7419|dock1
  -GOLD-   22720 9103D 1   1.00000     0.00000
 Structure written by MMmdl.
 43 44  0  0  0  0  0  0  0  0  1 V2000
  140.4791  137.6475  154.1835 C   0  0  0  0  0  0  0  0  0  0  0  0
  141.4551  136.5144  154.0260 C   0  0  0  0  0  0  0  0  0  0  0  0
  141.0130  135.2700  154.1550 N   0  0  0  0  0  0  0  0  0  0  0  0
  142.0888  134.4953  153.8978 N   0  0  0  0  0  0  0  0  0  0  0  0
  143.2255  135.2136  153.6027 C   0  0  0  0  0  0  0  0  0  0  0  0
  144.5247  134.5587  153.2706 C   0  0  0  0  0  0  0  0  0  0  0  0
  142.8492  136.5212  153.7078 C   0  0  0  0  0  0  0  0  0  0  0  0
  143.7047  137.6229  153.4576 N   0  0  0  0  0  0  0  0  0  0  0  0
  144.9977  137.7311  153.7981 C   0  0  0  0  0  0  0  0  0  0  0  0
  145.6559  136.8514  154.3530 O   0  0  0  0  0  0  0  0  0  0  0  0
  145.4999  138.9206  153.4383 N   0  0  0  0  0  0  0  0  0  0  0  0
  146.8742  139.3568  153.6660 C   0  0  0  0  0  0  0  0  0  0  0  0
  147.3053  139.0854  155.1169 C   0  0  0  0  0  0  0  0  0  0  0  0
  148.7008  139.6682  155.3979 C   0  0  0  0  0  0  0  0  0  0  0  0
  148.7194  141.1123  155.1433 N   0  0  0  0  0  0  0  0  0  0  0  0
  150.0341  141.6610  155.5473 C   0  0  0  0  0  0  0  0  0  0  0  0
  150.2140  141.8302  157.0608 C   0  0  0  0  0  0  0  0  0  0  0  0
  150.1551  143.0722  157.5475 N   0  0  0  0  0  0  0  0  0  0  0  0
  150.3985  140.8509  157.7803 O   0  0  0  0  0  0  0  0  0  0  0  0
  148.4027  141.3837  153.7334 C   0  0  0  0  0  0  0  0  0  0  0  0
  146.9980  140.8607  153.3840 C   0  0  0  0  0  0  0  0  0  0  0  0
  142.0299  133.4871  153.9201 H   0  0  0  0  0  0  0  0  0  0  0  0
  140.7338  138.4824  153.5309 H   0  0  0  0  0  0  0  0  0  0  0  0
  140.4667  138.0134  155.2103 H   0  0  0  0  0  0  0  0  0  0  0  0
  139.4642  137.3381  153.9316 H   0  0  0  0  0  0  0  0  0  0  0  0
  145.2529  135.2867  152.9132 H   0  0  0  0  0  0  0  0  0  0  0  0
  144.3920  133.8073  152.4920 H   0  0  0  0  0  0  0  0  0  0  0  0
  144.9441  134.0669  154.1483 H   0  0  0  0  0  0  0  0  0  0  0  0
  143.3189  138.3643  152.8918 H   0  0  0  0  0  0  0  0  0  0  0  0
  144.8853  139.5778  152.9808 H   0  0  0  0  0  0  0  0  0  0  0  0
  147.5396  138.8206  152.9866 H   0  0  0  0  0  0  0  0  0  0  0  0
  146.5838  139.5226  155.8091 H   0  0  0  0  0  0  0  0  0  0  0  0
  147.3112  138.0129  155.3143 H   0  0  0  0  0  0  0  0  0  0  0  0
  148.9583  139.4730  156.4398 H   0  0  0  0  0  0  0  0  0  0  0  0
  149.4511  139.1634  154.7864 H   0  0  0  0  0  0  0  0  0  0  0  0
  150.8248  140.9897  155.2088 H   0  0  0  0  0  0  0  0  0  0  0  0
  150.2041  142.6157  155.0454 H   0  0  0  0  0  0  0  0  0  0  0  0
  150.2684  143.2325  158.5377 H   0  0  0  0  0  0  0  0  0  0  0  0
  149.9976  143.8478  156.9203 H   0  0  0  0  0  0  0  0  0  0  0  0
  148.4232  142.4539  153.5284 H   0  0  0  0  0  0  0  0  0  0  0  0
  149.1504  140.9236  153.0851 H   0  0  0  0  0  0  0  0  0  0  0  0
  146.7818  141.0619  152.3342 H   0  0  0  0  0  0  0  0  0  0  0  0
  146.2551  141.4117  153.9632 H   0  0  0  0  0  0  0  0  0  0  0  0
  1  2  1  0  0  0  0
  1 23  1  0  0  0  0
  1 24  1  0  0  0  0
  1 25  1  0  0  0  0
  2  7  1  0  0  0  0
  2  3  2  0  0  0  0
  3  4  1  0  0  0  0
  4 22  1  0  0  0  0
  4  5  1  0  0  0  0
  5  6  1  0  0  0  0
  5  7  2  0  0  0  0
  6 26  1  0  0  0  0
  6 27  1  0  0  0  0
  6 28  1  0  0  0  0
  7  8  1  0  0  0  0
  8  9  1  0  0  0  0
  8 29  1  0  0  0  0
  9 10  2  0  0  0  0
  9 11  1  0  0  0  0
 11 12  1  0  0  0  0
 11 30  1  0  0  0  0
 12 21  1  0  0  0  0
 12 13  1  0  0  0  0
 12 31  1  0  0  0  0
 13 14  1  0  0  0  0
 13 32  1  0  0  0  0
 13 33  1  0  0  0  0
 14 15  1  0  0  0  0
 14 34  1  0  0  0  0
 14 35  1  0  0  0  0
 15 16  1  0  0  0  0
 15 20  1  0  0  0  0
 16 17  1  0  0  0  0
 16 36  1  0  0  0  0
 16 37  1  0  0  0  0
 17 18  1  0  0  0  0
 17 19  2  0  0  0  0
 18 38  1  0  0  0  0
 18 39  1  0  0  0  0
 20 21  1  0  0  0  0
 20 40  1  0  0  0  0
 20 41  1  0  0  0  0
 21 42  1  0  0  0  0
 21 43  1  0  0  0  0
M  END
> <s_m_source_file>
AV-unprocessed.smi

> <i_m_source_file_index>
1827

> <i_lp_mmshare_version>
43012

> <i_f3d_flags>
0

> <s_epik_input>
W0NIM11jMW5bbkhdYyhbQ0gzXSljMVtOSF1DKD1PKVtOSF1bQ0hdMltDSDJdW0NIMl1OKFtDSDJdW0NIMl0yKVtDSDJdQyg9TylbTkgyXQ==

> <s_epik_cmdline>
J2VwaWtfcHl0aG9uJywgJy1waCcsICc3LjAnLCAnLXRuJywgJzgnLCAnLW1hJywgJzIwMCcsICctbWV0YWxfYmluZGluZycsICctaW1hZScsICc8aW5maWxlLm1hZT4nLCAnLW9tYWUnLCAnPG91dGZpbGUubWFlPic=

> <r_lp_tautomer_probability>
0.5

> <r_epik_Ionization_Penalty>
0.165173

> <r_epik_Ionization_Penalty_Charging>
0

> <r_epik_Ionization_Penalty_Neutral>
0.165173

> <r_epik_State_Penalty>
0.154069

> <r_epik_Charging_Adjusted_Penalty>
0.154069

> <i_epik_Tot_Q>
0

> <i_epik_Tot_abs_Q>
0

> <r_epik_Metal_State_Penalty>
0.171338

> <b_epik_Metal_Only>
0

> <s_lp_Force_Field>
OPLS_2005

> <r_lp_Energy>
14.0389

> <b_lp_Chiralities_Consistent>
1

> <s_lp_Variant>
AV-unprocessed.smi:1827-1

> <Gold.Version>
5.8.1

> <Gold.Id.Protein>
6NUR|6NUR_protein|mol2

> <Gold.PLP.Fitness>
39.8308

> <Gold.PLP.PLP>
-27.3266

> <Gold.PLP.part.hbond>
-5.0000

> <Gold.PLP.part.metal>
0.0000

> <Gold.PLP.part.buried>
-5.0757

> <Gold.PLP.part.nonpolar>
-17.0520

> <Gold.PLP.part.repulsive>
0.4071

> <Gold.PLP.ligand.clash>
0.0000

> <Gold.PLP.ligand.torsion>
0.7404

> <Gold.PLP.Chemscore.Hbond>
4.5474

> <Gold.PLP.Chemscore.CHOScore>
0.0000

> <Gold.PLP.Chemscore.Metal>
0.0000

> <Gold.Chemscore.Hbonds>
donor molecule, donor type, donor heavy atom, donor atom, acceptor molecule, acceptor atom, score
      L1  H     4    22       P1 10957  0.96
      L1  H     8    29       P1 10175  0.60
      L1  H    11    30       P1 10175  1.00
      L1  H    18    39       P1  8028  1.00
      P1  H 11000 11005       L1     3  0.95

> <Gold.PLP.Chemscore.Internal.Correction>
0.3427

> <Gold.Rescore>
     Score         DG    S(hbond)    S(metal)    S(lipo)     H(rot)  DE(clash)    DE(int)     intcor
     16.46     -20.22       4.04        0.00      53.47       1.96       0.34       3.41       ----

> <Gold.Chemscore.Fitness>
16.4640

> <Gold.Chemscore.DG>
-20.2205

> <Gold.Chemscore.ZeroCoef>
-5.4800

> <Gold.Chemscore.Hbond>
4.0438

> <Gold.Chemscore.Metal>
0.0000

> <Gold.Chemscore.Lipo>
53.4689

> <Gold.Chemscore.Internal_Hbond>
0.0000

> <Gold.Chemscore.DEClash>
0.3427

> <Gold.Chemscore.DEInternal>
3.4138

> <Gold.Chemscore.Rot>
1.9616

> <Gold.Chemscore.Internal.Correction>
   9.000000E+99

> <Gold.Chemscore.Hbonds>
donor molecule, donor type, donor heavy atom, donor atom, acceptor molecule, acceptor atom, score
      L1  H     4    22       P1 10957  0.88
      L1  H     8    29       P1 10175  0.59
      L1  H    11    30       P1 10175  0.98
      L1  H    18    39       P1  8028  0.93
      P1  H 11000 11005       L1     3  0.20

> <Gold.Chemscore.Hbond.Weighted>
-13.5063

> <Gold.Chemscore.Metal.Weighted>
-0.0000

> <Gold.Chemscore.Lipo.Weighted>
-6.2559

> <Gold.Chemscore.Internal_Hbond.Weighted>
0.0000

> <Gold.Chemscore.DEClash.Weighted>
0.3427

> <Gold.Chemscore.DEInternal.Weighted>
3.4138

> <Gold.Chemscore.Rot.Weighted>
5.0216

> <Gold.Chemscore.Internal.Correction.Weighted>
   9.000000E+99

> <Gold.Protein.RotatedTorsions>
[ 6907 6896 6895 6894 ] final  -90.13 input  -60.11 | X-H torsion
[ 7974 7965 7964 7962 ] final   66.31 input  175.53 | X-H torsion
[ 8008 7997 7996 7995 ] final   76.90 input   59.86 | X-H torsion
[ 10167 10162 10161 10158 ] final   24.78 input  -65.29 | X-H torsion
[ 10718 10713 10712 10709 ] final   -8.34 input   66.30 | X-H torsion
[ 10763 10752 10751 10750 ] final   99.70 input  -60.55 | X-H torsion
[ 11005 11000 10999 10996 ] final   29.69 input  -57.11 | X-H torsion

> <Gold.Protein.ActiveResidues>
 VAL166  LYS551  ARG553  GLY616  TRP617  ASP618  TYR619  PRO620  LYS621  CYS622 
 ASP623  PHE694  ASN695  SER759  ASP760  ASP761  ALA762  ILE779  LEU786  VAL792 
 PHE793  MET794  SER795  GLU796  ALA797  LYS798  CYS799  TRP800  GLU811  SER814 

> <Gold.Protein.RotatedAtoms>
  150.6879  134.2480  159.4498 H   0  0  0  0  0  0  0  0  0  0  0  0  # atno 6907 bound_to 6896
  152.0419  134.9703  160.0583 H   0  0  0  0  0  0  0  0  0  0  0  0  # atno 6908 bound_to 6896
  152.1202  133.4314  159.4709 H   0  0  0  0  0  0  0  0  0  0  0  0  # atno 6909 bound_to 6896
  145.8281  139.3123  143.1004 H   0  0  0  0  0  0  0  0  0  0  0  0  # atno 7974 bound_to 7965
  155.8339  140.3465  155.5589 H   0  0  0  0  0  0  0  0  0  0  0  0  # atno 8008 bound_to 7997
  155.8212  140.0913  157.1867 H   0  0  0  0  0  0  0  0  0  0  0  0  # atno 8009 bound_to 7997
  154.4004  140.1429  156.3490 H   0  0  0  0  0  0  0  0  0  0  0  0  # atno 8010 bound_to 7997
  140.5160  144.0081  150.6394 H   0  0  0  0  0  0  0  0  0  0  0  0  # atno 10167 bound_to 10162
  156.7041  130.5102  149.5909 H   0  0  0  0  0  0  0  0  0  0  0  0  # atno 10718 bound_to 10713
  153.3047  135.4104  155.1283 H   0  0  0  0  0  0  0  0  0  0  0  0  # atno 10763 bound_to 10752
  154.8559  135.3550  154.5805 H   0  0  0  0  0  0  0  0  0  0  0  0  # atno 10764 bound_to 10752
  153.6231  135.7063  153.5361 H   0  0  0  0  0  0  0  0  0  0  0  0  # atno 10765 bound_to 10752
  140.3023  134.2742  155.7751 H   0  0  0  0  0  0  0  0  0  0  0  0  # atno 11005 bound_to 11000
  145.9601  140.8842  143.0215 LP  0  0  0  0  0  0  0  0  0  0  0  0  # atno 17320 bound_to 7965
  144.6742  140.1801  143.7406 LP  0  0  0  0  0  0  0  0  0  0  0  0  # atno 17321 bound_to 7965
  140.3417  143.3015  152.0581 LP  0  0  0  0  0  0  0  0  0  0  0  0  # atno 17342 bound_to 10162
  139.4909  144.6437  151.6822 LP  0  0  0  0  0  0  0  0  0  0  0  0  # atno 17343 bound_to 10162
  156.1708  130.6435  151.0834 LP  0  0  0  0  0  0  0  0  0  0  0  0  # atno 17370 bound_to 10713
  157.6962  131.0793  150.6962 LP  0  0  0  0  0  0  0  0  0  0  0  0  # atno 17371 bound_to 10713
  141.2125  133.7654  156.9785 LP  0  0  0  0  0  0  0  0  0  0  0  0  # atno 17394 bound_to 11000
  140.1098  134.9484  157.2048 LP  0  0  0  0  0  0  0  0  0  0  0  0  # atno 17395 bound_to 11000

$$$$
