AV-unprocessed.smi:3245|AV-procd|sdf|12404|dock9
  -GOLD-   2272018283D 1   1.00000     0.00000
 Structure written by MMmdl.
 35 36  0  0  0  0  0  0  0  0  1 V2000
  150.8976  140.3493  155.2214 C   0  0  0  0  0  0  0  0  0  0  0  0
  150.7122  141.7451  155.8403 C   0  0  2  0  0  0  0  0  0  0  0  0
  150.5833  141.7067  157.3814 C   0  0  0  0  0  0  0  0  0  0  0  0
  151.3161  142.7752  158.0352 N   0  0  0  0  0  0  0  0  0  0  0  0
  151.1399  144.1376  157.9115 C   0  0  0  0  0  0  0  0  0  0  0  0
  152.0648  144.7409  158.7148 C   0  0  0  0  0  0  0  0  0  0  0  0
  152.7728  143.6505  159.2931 C   0  0  0  0  0  0  0  0  0  0  0  0
  152.3232  142.4752  158.8835 N   0  0  0  0  0  0  0  0  0  0  0  0
  149.5101  142.3266  155.2574 N   0  0  0  0  0  0  0  0  0  0  0  0
  148.3694  141.4252  155.3448 C   0  0  0  0  0  0  0  0  0  0  0  0
  147.3042  141.8169  154.3053 C   0  0  0  0  0  0  0  0  0  0  0  0
  146.0381  142.2044  154.9386 N   0  0  0  0  0  0  0  0  0  0  0  0
  145.2030  143.1346  154.4561 C   0  0  0  0  0  0  0  0  0  0  0  0
  145.3468  143.8208  153.4448 O   0  0  0  0  0  0  0  0  0  0  0  0
  144.0002  143.2196  155.3702 C   0  0  0  0  0  0  0  0  0  0  0  0
  144.3719  142.2142  156.3419 N   0  0  0  0  0  0  0  0  0  0  0  0
  145.5523  141.6464  156.0628 C   0  0  0  0  0  0  0  0  0  0  0  0
  146.0874  140.7617  156.7295 O   0  0  0  0  0  0  0  0  0  0  0  0
  151.8217  139.8817  155.5618 H   0  0  0  0  0  0  0  0  0  0  0  0
  150.9497  140.4048  154.1334 H   0  0  0  0  0  0  0  0  0  0  0  0
  150.0730  139.6849  155.4825 H   0  0  0  0  0  0  0  0  0  0  0  0
  151.5748  142.3505  155.5575 H   0  0  0  0  0  0  0  0  0  0  0  0
  149.5413  141.7787  157.6932 H   0  0  0  0  0  0  0  0  0  0  0  0
  150.9540  140.7552  157.7657 H   0  0  0  0  0  0  0  0  0  0  0  0
  150.3780  144.5586  157.2719 H   0  0  0  0  0  0  0  0  0  0  0  0
  152.2136  145.7998  158.8652 H   0  0  0  0  0  0  0  0  0  0  0  0
  153.5947  143.6776  159.9934 H   0  0  0  0  0  0  0  0  0  0  0  0
  149.2823  143.1865  155.7359 H   0  0  0  0  0  0  0  0  0  0  0  0
  148.6706  140.3883  155.1990 H   0  0  0  0  0  0  0  0  0  0  0  0
  147.9459  141.4951  156.3475 H   0  0  0  0  0  0  0  0  0  0  0  0
  147.6727  142.6581  153.7163 H   0  0  0  0  0  0  0  0  0  0  0  0
  147.1533  141.0067  153.5896 H   0  0  0  0  0  0  0  0  0  0  0  0
  143.9079  144.2058  155.8259 H   0  0  0  0  0  0  0  0  0  0  0  0
  143.0795  142.9554  154.8494 H   0  0  0  0  0  0  0  0  0  0  0  0
  143.7937  141.9733  157.1338 H   0  0  0  0  0  0  0  0  0  0  0  0
  1  2  1  0  0  0  0
  1 19  1  0  0  0  0
  1 20  1  0  0  0  0
  1 21  1  0  0  0  0
  2  3  1  0  0  0  0
  2  9  1  0  0  0  0
  2 22  1  0  0  0  0
  3  4  1  0  0  0  0
  3 23  1  0  0  0  0
  3 24  1  0  0  0  0
  4  8  1  0  0  0  0
  4  5  1  0  0  0  0
  5  6  2  0  0  0  0
  5 25  1  0  0  0  0
  6  7  1  0  0  0  0
  6 26  1  0  0  0  0
  7  8  2  0  0  0  0
  7 27  1  0  0  0  0
  9 10  1  0  0  0  0
  9 28  1  0  0  0  0
 10 11  1  0  0  0  0
 10 29  1  0  0  0  0
 10 30  1  0  0  0  0
 11 12  1  0  0  0  0
 11 31  1  0  0  0  0
 11 32  1  0  0  0  0
 12 17  1  0  0  0  0
 12 13  1  0  0  0  0
 13 14  2  0  0  0  0
 13 15  1  0  0  0  0
 15 16  1  0  0  0  0
 15 33  1  0  0  0  0
 15 34  1  0  0  0  0
 16 17  1  0  0  0  0
 16 35  1  0  0  0  0
 17 18  2  0  0  0  0
M  END
> <s_m_source_file>
AV-unprocessed.smi

> <i_m_source_file_index>
3245

> <i_lp_mmshare_version>
43012

> <i_f3d_flags>
0

> <s_epik_input>
bjFbY0hdW2NIXVtjSF1uMVtDSDJdW0NAQEhdKFtDSDNdKVtOSF1bQ0gyXVtDSDJdTjJDKD1PKVtDSDJdW05IXUMyPU8=

> <s_epik_cmdline>
J2VwaWtfcHl0aG9uJywgJy1waCcsICc3LjAnLCAnLXRuJywgJzgnLCAnLW1hJywgJzIwMCcsICctbWV0YWxfYmluZGluZycsICctaW1hZScsICc8aW5maWxlLm1hZT4nLCAnLW9tYWUnLCAnPG91dGZpbGUubWFlPic=

> <r_lp_tautomer_probability>
1

> <r_epik_Ionization_Penalty>
2.14948

> <r_epik_Ionization_Penalty_Charging>
0

> <r_epik_Ionization_Penalty_Neutral>
2.14948

> <r_epik_State_Penalty>
2.28912

> <r_epik_Charging_Adjusted_Penalty>
2.28912

> <i_epik_Tot_Q>
0

> <i_epik_Tot_abs_Q>
0

> <r_epik_Metal_State_Penalty>
2.36471

> <b_epik_Metal_Only>
0

> <s_lp_Force_Field>
OPLS_2005

> <r_lp_Energy>
24.3933

> <b_lp_Chiralities_Consistent>
1

> <s_lp_Variant>
AV-unprocessed.smi:3245-3

> <Gold.Version>
5.8.1

> <Gold.Id.Protein>
6NUR|6NUR_protein|mol2

> <Gold.PLP.Fitness>
42.7147

> <Gold.PLP.PLP>
-39.5959

> <Gold.PLP.part.hbond>
-2.0000

> <Gold.PLP.part.metal>
0.0000

> <Gold.PLP.part.buried>
-3.5318

> <Gold.PLP.part.nonpolar>
-34.6257

> <Gold.PLP.part.repulsive>
0.2405

> <Gold.PLP.ligand.clash>
0.0000

> <Gold.PLP.ligand.torsion>
1.4761

> <Gold.PLP.Chemscore.Hbond>
1.0000

> <Gold.PLP.Chemscore.CHOScore>
1.0000

> <Gold.PLP.Chemscore.Metal>
0.0000

> <Gold.Chemscore.Hbonds>
donor molecule, donor type, donor heavy atom, donor atom, acceptor molecule, acceptor atom, score
      L1  H     9    28       P1  8028  0.98
      L1  C     5    25       P1  8028  1.00

> <Gold.PLP.Chemscore.Internal.Correction>
0.0709

> <Gold.Rescore>
     Score         DG    S(hbond)    S(metal)    S(lipo)     H(rot)  DE(clash)    DE(int)     intcor
      7.87     -10.89       0.99        0.00      76.38       2.66       0.03       3.00       ----

> <Gold.Chemscore.Fitness>
7.8660

> <Gold.Chemscore.DG>
-10.8947

> <Gold.Chemscore.ZeroCoef>
-5.4800

> <Gold.Chemscore.Hbond>
0.9850

> <Gold.Chemscore.Metal>
0.0000

> <Gold.Chemscore.Lipo>
76.3805

> <Gold.Chemscore.Internal_Hbond>
0.0000

> <Gold.Chemscore.DEClash>
0.0261

> <Gold.Chemscore.DEInternal>
3.0026

> <Gold.Chemscore.Rot>
2.6609

> <Gold.Chemscore.Internal.Correction>
   9.000000E+99

> <Gold.Chemscore.Hbonds>
donor molecule, donor type, donor heavy atom, donor atom, acceptor molecule, acceptor atom, score
      L1  H     9    28       P1  8028  0.91

> <Gold.Chemscore.Hbond.Weighted>
-3.2901

> <Gold.Chemscore.Metal.Weighted>
-0.0000

> <Gold.Chemscore.Lipo.Weighted>
-8.9365

> <Gold.Chemscore.Internal_Hbond.Weighted>
0.0000

> <Gold.Chemscore.DEClash.Weighted>
0.0261

> <Gold.Chemscore.DEInternal.Weighted>
3.0026

> <Gold.Chemscore.Rot.Weighted>
6.8118

> <Gold.Chemscore.Internal.Correction.Weighted>
   9.000000E+99

> <Gold.Protein.RotatedTorsions>
[ 6907 6896 6895 6894 ] final  122.80 input  -60.11 | X-H torsion
[ 7974 7965 7964 7962 ] final   67.09 input  175.53 | X-H torsion
[ 8008 7997 7996 7995 ] final   24.79 input   59.86 | X-H torsion
[ 10167 10162 10161 10158 ] final   38.16 input  -65.29 | X-H torsion
[ 10718 10713 10712 10709 ] final  -28.97 input   66.30 | X-H torsion
[ 10763 10752 10751 10750 ] final  -70.79 input  -60.55 | X-H torsion
[ 11005 11000 10999 10996 ] final  -51.92 input  -57.11 | X-H torsion

> <Gold.Protein.ActiveResidues>
 VAL166  LYS551  ARG553  GLY616  TRP617  ASP618  TYR619  PRO620  LYS621  CYS622 
 ASP623  PHE694  ASN695  SER759  ASP760  ASP761  ALA762  ILE779  LEU786  VAL792 
 PHE793  MET794  SER795  GLU796  ALA797  LYS798  CYS799  TRP800  GLU811  SER814 

> <Gold.Protein.RotatedAtoms>
  152.4214  133.7122  159.6484 H   0  0  0  0  0  0  0  0  0  0  0  0  # atno 6907 bound_to 6896
  150.8089  133.8447  159.3197 H   0  0  0  0  0  0  0  0  0  0  0  0  # atno 6908 bound_to 6896
  151.6162  135.1038  160.0143 H   0  0  0  0  0  0  0  0  0  0  0  0  # atno 6909 bound_to 6896
  145.8188  139.3073  143.1056 H   0  0  0  0  0  0  0  0  0  0  0  0  # atno 7974 bound_to 7965
  155.0017  140.3126  155.4864 H   0  0  0  0  0  0  0  0  0  0  0  0  # atno 8008 bound_to 7997
  156.2924  140.2230  156.5068 H   0  0  0  0  0  0  0  0  0  0  0  0  # atno 8009 bound_to 7997
  154.7612  140.0459  157.0963 H   0  0  0  0  0  0  0  0  0  0  0  0  # atno 8010 bound_to 7997
  140.3964  144.1783  150.6132 H   0  0  0  0  0  0  0  0  0  0  0  0  # atno 10167 bound_to 10162
  156.4185  130.4422  149.7201 H   0  0  0  0  0  0  0  0  0  0  0  0  # atno 10718 bound_to 10713
  154.4226  135.5983  153.6019 H   0  0  0  0  0  0  0  0  0  0  0  0  # atno 10763 bound_to 10752
  152.9794  135.5956  154.3936 H   0  0  0  0  0  0  0  0  0  0  0  0  # atno 10764 bound_to 10752
  154.3764  135.2841  155.2215 H   0  0  0  0  0  0  0  0  0  0  0  0  # atno 10765 bound_to 10752
  141.0897  133.6635  156.3948 H   0  0  0  0  0  0  0  0  0  0  0  0  # atno 11005 bound_to 11000
  145.9698  140.8770  143.0168 LP  0  0  0  0  0  0  0  0  0  0  0  0  # atno 17320 bound_to 7965
  144.6750  140.1929  143.7395 LP  0  0  0  0  0  0  0  0  0  0  0  0  # atno 17321 bound_to 7965
  140.4786  143.2387  151.8987 LP  0  0  0  0  0  0  0  0  0  0  0  0  # atno 17342 bound_to 10162
  139.4786  144.5293  151.8689 LP  0  0  0  0  0  0  0  0  0  0  0  0  # atno 17343 bound_to 10162
  156.4151  130.7741  151.2756 LP  0  0  0  0  0  0  0  0  0  0  0  0  # atno 17370 bound_to 10713
  157.7508  131.0200  150.3689 LP  0  0  0  0  0  0  0  0  0  0  0  0  # atno 17371 bound_to 10713
  140.5281  134.6239  157.5341 LP  0  0  0  0  0  0  0  0  0  0  0  0  # atno 17394 bound_to 11000
  139.9721  134.7276  156.0022 LP  0  0  0  0  0  0  0  0  0  0  0  0  # atno 17395 bound_to 11000

$$$$
