AV-unprocessed.smi:1812|AV-procd|sdf|7339|dock2
  -GOLD-   22720 9 03D 1   1.00000     0.00000
 Structure written by MMmdl.
 33 35  0  0  0  0  0  0  0  0  2 V2000
  151.1808  140.2280  154.8139 O   0  0  0  0  0  0  0  0  0  0  0  0
  150.2846  140.2628  155.6600 C   0  0  0  0  0  0  0  0  0  0  0  0
  149.0340  140.5871  155.3036 N   0  0  0  0  0  0  0  0  0  0  0  0
  148.5806  140.9407  153.9628 C   0  0  0  0  0  0  0  0  0  0  0  0
  147.3685  140.0861  153.5682 C   0  0  1  0  0  0  0  0  0  0  0  0
  147.2054  139.8978  152.0610 C   0  0  0  0  0  0  0  0  0  0  0  0
  146.4407  138.5875  151.9442 C   0  0  0  0  0  0  0  0  0  0  0  0
  146.5418  137.9685  153.3416 C   0  0  0  0  0  0  0  0  0  0  0  0
  147.5134  138.7495  154.0219 O   0  0  0  0  0  0  0  0  0  0  0  0
  150.4203  140.0014  156.9801 N   0  5  0  0  0  0  0  0  0  0  0  0
  151.0771  140.8639  157.7731 C   0  0  0  0  0  0  0  0  0  0  0  0
  151.7802  140.4662  158.8430 N   0  0  0  0  0  0  0  0  0  0  0  0
  152.3709  141.5183  159.5278 N   0  0  0  0  0  0  0  0  0  0  0  0
  152.0986  142.6996  158.9686 C   0  0  0  0  0  0  0  0  0  0  0  0
  152.6161  143.9847  159.5223 C   0  0  0  0  0  0  0  0  0  0  0  0
  151.7347  144.9088  160.3343 C   0  0  0  0  0  0  0  0  0  0  0  0
  152.1708  145.3099  158.9481 C   0  0  0  0  0  0  0  0  0  0  0  0
  151.0796  142.6117  157.5407 S   0  0  0  0  0  0  0  0  0  0  0  0
  148.3354  140.5961  156.0323 H   0  0  0  0  0  0  0  0  0  0  0  0
  148.3038  141.9947  153.9088 H   0  0  0  0  0  0  0  0  0  0  0  0
  149.4015  140.7909  153.2605 H   0  0  0  0  0  0  0  0  0  0  0  0
  146.4530  140.5084  153.9877 H   0  0  0  0  0  0  0  0  0  0  0  0
  146.6901  140.7343  151.5881 H   0  0  0  0  0  0  0  0  0  0  0  0
  148.1819  139.7927  151.5863 H   0  0  0  0  0  0  0  0  0  0  0  0
  145.3983  138.7535  151.6705 H   0  0  0  0  0  0  0  0  0  0  0  0
  146.8887  137.9443  151.1863 H   0  0  0  0  0  0  0  0  0  0  0  0
  145.5882  138.0479  153.8658 H   0  0  0  0  0  0  0  0  0  0  0  0
  146.8295  136.9173  153.3158 H   0  0  0  0  0  0  0  0  0  0  0  0
  153.6570  143.8815  159.8231 H   0  0  0  0  0  0  0  0  0  0  0  0
  150.6886  144.6394  160.4668 H   0  0  0  0  0  0  0  0  0  0  0  0
  152.1922  145.4263  161.1749 H   0  0  0  0  0  0  0  0  0  0  0  0
  152.9189  146.0955  158.8627 H   0  0  0  0  0  0  0  0  0  0  0  0
  151.4194  145.2926  158.1611 H   0  0  0  0  0  0  0  0  0  0  0  0
  1  2  2  0  0  0  0
  2  3  1  0  0  0  0
  2 10  1  0  0  0  0
  3  4  1  0  0  0  0
  3 19  1  0  0  0  0
  4  5  1  0  0  0  0
  4 20  1  0  0  0  0
  4 21  1  0  0  0  0
  5  9  1  0  0  0  0
  5  6  1  0  0  0  0
  5 22  1  0  0  0  0
  6  7  1  0  0  0  0
  6 23  1  0  0  0  0
  6 24  1  0  0  0  0
  7  8  1  0  0  0  0
  7 25  1  0  0  0  0
  7 26  1  0  0  0  0
  8  9  1  0  0  0  0
  8 27  1  0  0  0  0
  8 28  1  0  0  0  0
 10 11  1  0  0  0  0
 11 18  1  0  0  0  0
 11 12  2  0  0  0  0
 12 13  1  0  0  0  0
 13 14  2  0  0  0  0
 14 15  1  0  0  0  0
 14 18  1  0  0  0  0
 15 17  1  0  0  0  0
 15 16  1  0  0  0  0
 15 29  1  0  0  0  0
 16 17  1  0  0  0  0
 16 30  1  0  0  0  0
 16 31  1  0  0  0  0
 17 32  1  0  0  0  0
 17 33  1  0  0  0  0
M  CHG  1  10  -1
M  END
> <s_m_source_file>
AV-unprocessed.smi

> <i_m_source_file_index>
1812

> <i_lp_mmshare_version>
43012

> <i_f3d_flags>
0

> <s_epik_input>
TzFbQ0gyXVtDSDJdW0NIMl1bQ0BIXTFbQ0gyXVtOSF1DKD1PKVtOSF1jMm5uYyhzMilbQ0hdM1tDSDJdW0NIMl0z

> <s_epik_cmdline>
J2VwaWtfcHl0aG9uJywgJy1waCcsICc3LjAnLCAnLXRuJywgJzgnLCAnLW1hJywgJzIwMCcsICctbWV0YWxfYmluZGluZycsICctaW1hZScsICc8aW5maWxlLm1hZT4nLCAnLW9tYWUnLCAnPG91dGZpbGUubWFlPic=

> <r_lp_tautomer_probability>
1

> <r_epik_Ionization_Penalty>
4.72991

> <r_epik_Ionization_Penalty_Charging>
4.58249

> <r_epik_Ionization_Penalty_Neutral>
0.147417

> <r_epik_State_Penalty>
4.58223

> <r_epik_Charging_Adjusted_Penalty>
9.16473

> <i_epik_Tot_Q>
-1

> <i_epik_Tot_abs_Q>
1

> <r_epik_Metal_State_Penalty>
0.861876

> <b_epik_Metal_Only>
1

> <s_lp_Force_Field>
OPLS_2005

> <r_lp_Energy>
14.1682

> <b_lp_Chiralities_Consistent>
1

> <s_lp_Variant>
AV-unprocessed.smi:1812-4

> <Gold.Version>
5.8.1

> <Gold.Id.Protein>
6NUR|6NUR_protein|mol2

> <Gold.PLP.Fitness>
35.2889

> <Gold.PLP.PLP>
-34.9522

> <Gold.PLP.part.hbond>
-0.9209

> <Gold.PLP.part.metal>
0.0000

> <Gold.PLP.part.buried>
0.2942

> <Gold.PLP.part.nonpolar>
-34.6726

> <Gold.PLP.part.repulsive>
0.3172

> <Gold.PLP.ligand.clash>
0.0000

> <Gold.PLP.ligand.torsion>
1.4400

> <Gold.PLP.Chemscore.Hbond>
1.0000

> <Gold.PLP.Chemscore.CHOScore>
0.0000

> <Gold.PLP.Chemscore.Metal>
0.0000

> <Gold.Chemscore.Hbonds>
donor molecule, donor type, donor heavy atom, donor atom, acceptor molecule, acceptor atom, score
      P1  H  7989  7998       L1     1  0.99

> <Gold.PLP.Chemscore.Internal.Correction>
0.2166

> <Gold.Rescore>
     Score         DG    S(hbond)    S(metal)    S(lipo)     H(rot)  DE(clash)    DE(int)     intcor
     14.18     -15.83       1.00        0.00      91.51       1.45       0.20       1.45       ----

> <Gold.Chemscore.Fitness>
14.1800

> <Gold.Chemscore.DG>
-15.8272

> <Gold.Chemscore.ZeroCoef>
-5.4800

> <Gold.Chemscore.Hbond>
0.9999

> <Gold.Chemscore.Metal>
0.0000

> <Gold.Chemscore.Lipo>
91.5132

> <Gold.Chemscore.Internal_Hbond>
0.0000

> <Gold.Chemscore.DEClash>
0.2022

> <Gold.Chemscore.DEInternal>
1.4450

> <Gold.Chemscore.Rot>
1.4451

> <Gold.Chemscore.Internal.Correction>
   9.000000E+99

> <Gold.Chemscore.Hbonds>
donor molecule, donor type, donor heavy atom, donor atom, acceptor molecule, acceptor atom, score
      P1  H  7989  7998       L1     1  0.93

> <Gold.Chemscore.Hbond.Weighted>
-3.3397

> <Gold.Chemscore.Metal.Weighted>
-0.0000

> <Gold.Chemscore.Lipo.Weighted>
-10.7070

> <Gold.Chemscore.Internal_Hbond.Weighted>
0.0000

> <Gold.Chemscore.DEClash.Weighted>
0.2022

> <Gold.Chemscore.DEInternal.Weighted>
1.4450

> <Gold.Chemscore.Rot.Weighted>
3.6995

> <Gold.Chemscore.Internal.Correction.Weighted>
   9.000000E+99

> <Gold.Protein.RotatedTorsions>
[ 6907 6896 6895 6894 ] final -124.37 input  -60.11 | X-H torsion
[ 7974 7965 7964 7962 ] final -167.74 input  175.53 | X-H torsion
[ 8008 7997 7996 7995 ] final  106.40 input   59.86 | X-H torsion
[ 10167 10162 10161 10158 ] final  165.12 input  -65.29 | X-H torsion
[ 10718 10713 10712 10709 ] final  -60.39 input   66.30 | X-H torsion
[ 10763 10752 10751 10750 ] final  -31.39 input  -60.55 | X-H torsion
[ 11005 11000 10999 10996 ] final   83.87 input  -57.11 | X-H torsion

> <Gold.Protein.ActiveResidues>
 VAL166  LYS551  ARG553  GLY616  TRP617  ASP618  TYR619  PRO620  LYS621  CYS622 
 ASP623  PHE694  ASN695  SER759  ASP760  ASP761  ALA762  ILE779  LEU786  VAL792 
 PHE793  MET794  SER795  GLU796  ALA797  LYS798  CYS799  TRP800  GLU811  SER814 

> <Gold.Protein.RotatedAtoms>
  150.8761  133.7437  159.2946 H   0  0  0  0  0  0  0  0  0  0  0  0  # atno 6907 bound_to 6896
  151.5033  135.1061  159.9844 H   0  0  0  0  0  0  0  0  0  0  0  0  # atno 6908 bound_to 6896
  152.4728  133.8024  159.7015 H   0  0  0  0  0  0  0  0  0  0  0  0  # atno 6909 bound_to 6896
  144.7217  140.2473  143.6283 H   0  0  0  0  0  0  0  0  0  0  0  0  # atno 7974 bound_to 7965
  156.1740  140.3113  155.9025 H   0  0  0  0  0  0  0  0  0  0  0  0  # atno 8008 bound_to 7997
  155.3527  140.0472  157.3063 H   0  0  0  0  0  0  0  0  0  0  0  0  # atno 8009 bound_to 7997
  154.5270  140.2218  155.8882 H   0  0  0  0  0  0  0  0  0  0  0  0  # atno 8010 bound_to 7997
  139.4900  144.4165  151.9238 H   0  0  0  0  0  0  0  0  0  0  0  0  # atno 10167 bound_to 10162
  156.0994  130.4188  150.0847 H   0  0  0  0  0  0  0  0  0  0  0  0  # atno 10718 bound_to 10713
  153.7966  135.6893  153.4862 H   0  0  0  0  0  0  0  0  0  0  0  0  # atno 10763 bound_to 10752
  153.1715  135.4541  154.9907 H   0  0  0  0  0  0  0  0  0  0  0  0  # atno 10764 bound_to 10752
  154.8023  135.3343  154.7458 H   0  0  0  0  0  0  0  0  0  0  0  0  # atno 10765 bound_to 10752
  139.9017  134.8176  156.2368 H   0  0  0  0  0  0  0  0  0  0  0  0  # atno 11005 bound_to 11000
  145.8261  139.2065  143.1909 LP  0  0  0  0  0  0  0  0  0  0  0  0  # atno 17320 bound_to 7965
  146.0471  140.8107  142.9800 LP  0  0  0  0  0  0  0  0  0  0  0  0  # atno 17321 bound_to 7965
  140.3608  144.2975  150.5934 LP  0  0  0  0  0  0  0  0  0  0  0  0  # atno 17342 bound_to 10162
  140.5405  143.2224  151.8093 LP  0  0  0  0  0  0  0  0  0  0  0  0  # atno 17343 bound_to 10162
  156.8838  130.9565  151.3596 LP  0  0  0  0  0  0  0  0  0  0  0  0  # atno 17370 bound_to 10713
  157.6161  130.8620  149.9031 LP  0  0  0  0  0  0  0  0  0  0  0  0  # atno 17371 bound_to 10713
  141.0310  133.6988  156.1431 LP  0  0  0  0  0  0  0  0  0  0  0  0  # atno 17394 bound_to 11000
  140.7096  134.4476  157.5582 LP  0  0  0  0  0  0  0  0  0  0  0  0  # atno 17395 bound_to 11000

$$$$
