AV-unprocessed.smi:2409|AV-procd|sdf|9525|dock6
  -GOLD-   2272013153D 1   1.00000     0.00000
 Structure written by MMmdl.
 35 36  0  0  0  0  0  0  0  0  1 V2000
  152.5833  138.7691  157.0326 C   0  0  0  0  0  0  0  0  0  0  0  0
  152.5093  139.9217  156.2112 O   0  0  0  0  0  0  0  0  0  0  0  0
  151.3591  140.0097  155.5096 C   0  0  0  0  0  0  0  0  0  0  0  0
  150.3558  140.9387  155.5112 C   0  0  0  0  0  0  0  0  0  0  0  0
  150.2103  142.1234  156.2763 N   0  0  0  0  0  0  0  0  0  0  0  0
  150.7702  142.4071  157.4668 C   0  0  0  0  0  0  0  0  0  0  0  0
  151.5518  141.6667  158.0594 O   0  0  0  0  0  0  0  0  0  0  0  0
  150.4546  143.6210  157.9520 N   0  0  0  0  0  0  0  0  0  0  0  0
  150.8863  144.2117  159.1830 C   0  0  1  0  0  0  0  0  0  0  0  0
  152.2252  143.7556  159.7191 C   0  0  0  0  0  0  0  0  0  0  0  0
  152.0801  145.1435  159.1537 C   0  0  2  0  0  0  0  0  0  0  0  0
  152.1469  146.3454  160.0703 C   0  0  0  0  0  0  0  0  0  0  0  0
  149.3904  140.4409  154.5932 C   0  0  0  0  0  0  0  0  0  0  0  0
  148.0615  141.0218  154.2026 C   0  0  0  0  0  0  0  0  0  0  0  0
  149.8001  139.3079  154.0342 N   0  0  0  0  0  0  0  0  0  0  0  0
  151.0090  139.0453  154.5878 N   0  0  0  0  0  0  0  0  0  0  0  0
  151.7295  137.8516  154.1956 C   0  0  0  0  0  0  0  0  0  0  0  0
  153.5359  138.7586  157.5619 H   0  0  0  0  0  0  0  0  0  0  0  0
  152.5200  137.8588  156.4348 H   0  0  0  0  0  0  0  0  0  0  0  0
  151.7861  138.7532  157.7766 H   0  0  0  0  0  0  0  0  0  0  0  0
  149.6817  142.8653  155.8414 H   0  0  0  0  0  0  0  0  0  0  0  0
  149.9071  144.2173  157.3484 H   0  0  0  0  0  0  0  0  0  0  0  0
  150.1314  144.3996  159.9453 H   0  0  0  0  0  0  0  0  0  0  0  0
  152.3221  143.6546  160.7984 H   0  0  0  0  0  0  0  0  0  0  0  0
  152.7916  143.0336  159.1337 H   0  0  0  0  0  0  0  0  0  0  0  0
  152.5363  145.3118  158.1795 H   0  0  0  0  0  0  0  0  0  0  0  0
  151.6860  146.1252  161.0338 H   0  0  0  0  0  0  0  0  0  0  0  0
  151.6225  147.1881  159.6195 H   0  0  0  0  0  0  0  0  0  0  0  0
  153.1854  146.6307  160.2385 H   0  0  0  0  0  0  0  0  0  0  0  0
  147.8618  141.9545  154.7306 H   0  0  0  0  0  0  0  0  0  0  0  0
  147.2498  140.3316  154.4330 H   0  0  0  0  0  0  0  0  0  0  0  0
  148.0262  141.2338  153.1340 H   0  0  0  0  0  0  0  0  0  0  0  0
  152.7873  137.9543  154.4391 H   0  0  0  0  0  0  0  0  0  0  0  0
  151.6309  137.6915  153.1214 H   0  0  0  0  0  0  0  0  0  0  0  0
  151.3244  136.9893  154.7254 H   0  0  0  0  0  0  0  0  0  0  0  0
  1  2  1  0  0  0  0
  1 18  1  0  0  0  0
  1 19  1  0  0  0  0
  1 20  1  0  0  0  0
  2  3  1  0  0  0  0
  3 16  1  0  0  0  0
  3  4  2  0  0  0  0
  4  5  1  0  0  0  0
  4 13  1  0  0  0  0
  5  6  1  0  0  0  0
  5 21  1  0  0  0  0
  6  7  2  0  0  0  0
  6  8  1  0  0  0  0
  8  9  1  0  0  0  0
  8 22  1  0  0  0  0
  9 11  1  0  0  0  0
  9 10  1  0  0  0  0
  9 23  1  0  0  0  0
 10 11  1  0  0  0  0
 10 24  1  0  0  0  0
 10 25  1  0  0  0  0
 11 12  1  0  0  0  0
 11 26  1  0  0  0  0
 12 27  1  0  0  0  0
 12 28  1  0  0  0  0
 12 29  1  0  0  0  0
 13 14  1  0  0  0  0
 13 15  2  0  0  0  0
 14 30  1  0  0  0  0
 14 31  1  0  0  0  0
 14 32  1  0  0  0  0
 15 16  1  0  0  0  0
 16 17  1  0  0  0  0
 17 33  1  0  0  0  0
 17 34  1  0  0  0  0
 17 35  1  0  0  0  0
M  END
> <s_m_source_file>
AV-unprocessed.smi

> <i_m_source_file_index>
2409

> <i_lp_mmshare_version>
43012

> <i_f3d_flags>
0

> <s_epik_input>
W0NIM11uMW5jKFtDSDNdKWMoYzFPW0NIM10pW05IXUMoPU8pW05IXVtDQEBIXTJbQ0gyXVtDQEhdMltDSDNd

> <s_epik_cmdline>
J2VwaWtfcHl0aG9uJywgJy1waCcsICc3LjAnLCAnLXRuJywgJzgnLCAnLW1hJywgJzIwMCcsICctbWV0YWxfYmluZGluZycsICctaW1hZScsICc8aW5maWxlLm1hZT4nLCAnLW9tYWUnLCAnPG91dGZpbGUubWFlPic=

> <r_lp_tautomer_probability>
1

> <r_epik_Ionization_Penalty>
0.000417804

> <r_epik_Ionization_Penalty_Charging>
0

> <r_epik_Ionization_Penalty_Neutral>
0.000417804

> <r_epik_State_Penalty>
-0

> <r_epik_Charging_Adjusted_Penalty>
0

> <i_epik_Tot_Q>
0

> <i_epik_Tot_abs_Q>
0

> <r_epik_Metal_State_Penalty>
-0

> <b_epik_Metal_Only>
0

> <s_lp_Force_Field>
OPLS_2005

> <r_lp_Energy>
34.5155

> <b_lp_Chiralities_Consistent>
1

> <s_lp_Variant>
AV-unprocessed.smi:2409-4

> <Gold.Version>
5.8.1

> <Gold.Id.Protein>
6NUR|6NUR_protein|mol2

> <Gold.PLP.Fitness>
44.4404

> <Gold.PLP.PLP>
-36.4516

> <Gold.PLP.part.hbond>
-3.1618

> <Gold.PLP.part.metal>
0.0000

> <Gold.PLP.part.buried>
-2.5600

> <Gold.PLP.part.nonpolar>
-32.8759

> <Gold.PLP.part.repulsive>
1.7344

> <Gold.PLP.ligand.clash>
0.0000

> <Gold.PLP.ligand.torsion>
0.4973

> <Gold.PLP.Chemscore.Hbond>
2.9825

> <Gold.PLP.Chemscore.CHOScore>
0.0000

> <Gold.PLP.Chemscore.Metal>
0.0000

> <Gold.Chemscore.Hbonds>
donor molecule, donor type, donor heavy atom, donor atom, acceptor molecule, acceptor atom, score
      L1  H     5    21       P1  8028  1.00
      L1  H     8    22       P1  8028  1.00
      P1  H  7997  8010       L1     2  0.75

> <Gold.PLP.Chemscore.Internal.Correction>
0.0359

> <Gold.Rescore>
     Score         DG    S(hbond)    S(metal)    S(lipo)     H(rot)  DE(clash)    DE(int)     intcor
     14.27     -19.06       2.15        0.00      81.62       1.23       0.57       4.22       ----

> <Gold.Chemscore.Fitness>
14.2685

> <Gold.Chemscore.DG>
-19.0620

> <Gold.Chemscore.ZeroCoef>
-5.4800

> <Gold.Chemscore.Hbond>
2.1495

> <Gold.Chemscore.Metal>
0.0000

> <Gold.Chemscore.Lipo>
81.6180

> <Gold.Chemscore.Internal_Hbond>
0.0000

> <Gold.Chemscore.DEClash>
0.5687

> <Gold.Chemscore.DEInternal>
4.2248

> <Gold.Chemscore.Rot>
1.2292

> <Gold.Chemscore.Internal.Correction>
   9.000000E+99

> <Gold.Chemscore.Hbonds>
donor molecule, donor type, donor heavy atom, donor atom, acceptor molecule, acceptor atom, score
      L1  H     5    21       P1  8028  0.92
      L1  H     8    22       P1  8028  0.47
      P1  H  7997  8010       L1     2  0.09

> <Gold.Chemscore.Hbond.Weighted>
-7.1793

> <Gold.Chemscore.Metal.Weighted>
-0.0000

> <Gold.Chemscore.Lipo.Weighted>
-9.5493

> <Gold.Chemscore.Internal_Hbond.Weighted>
0.0000

> <Gold.Chemscore.DEClash.Weighted>
0.5687

> <Gold.Chemscore.DEInternal.Weighted>
4.2248

> <Gold.Chemscore.Rot.Weighted>
3.1467

> <Gold.Chemscore.Internal.Correction.Weighted>
   9.000000E+99

> <Gold.Protein.RotatedTorsions>
[ 6907 6896 6895 6894 ] final  153.31 input  -60.11 | X-H torsion
[ 7974 7965 7964 7962 ] final  -57.67 input  175.53 | X-H torsion
[ 8008 7997 7996 7995 ] final   90.45 input   59.86 | X-H torsion
[ 10167 10162 10161 10158 ] final  135.47 input  -65.29 | X-H torsion
[ 10718 10713 10712 10709 ] final  -11.72 input   66.30 | X-H torsion
[ 10763 10752 10751 10750 ] final -139.51 input  -60.55 | X-H torsion
[ 11005 11000 10999 10996 ] final  -79.44 input  -57.11 | X-H torsion

> <Gold.Protein.ActiveResidues>
 VAL166  LYS551  ARG553  GLY616  TRP617  ASP618  TYR619  PRO620  LYS621  CYS622 
 ASP623  PHE694  ASN695  SER759  ASP760  ASP761  ALA762  ILE779  LEU786  VAL792 
 PHE793  MET794  SER795  GLU796  ALA797  LYS798  CYS799  TRP800  GLU811  SER814 

> <Gold.Protein.RotatedAtoms>
  152.0745  133.4122  159.4473 H   0  0  0  0  0  0  0  0  0  0  0  0  # atno 6907 bound_to 6896
  150.6863  134.3053  159.4733 H   0  0  0  0  0  0  0  0  0  0  0  0  # atno 6908 bound_to 6896
  152.0889  134.9420  160.0623 H   0  0  0  0  0  0  0  0  0  0  0  0  # atno 6909 bound_to 6896
  145.8484  140.8369  142.9998 H   0  0  0  0  0  0  0  0  0  0  0  0  # atno 7974 bound_to 7965
  156.0121  140.3349  155.6951 H   0  0  0  0  0  0  0  0  0  0  0  0  # atno 8008 bound_to 7997
  155.6143  140.0668  157.2715 H   0  0  0  0  0  0  0  0  0  0  0  0  # atno 8009 bound_to 7997
  154.4285  140.1788  156.1293 H   0  0  0  0  0  0  0  0  0  0  0  0  # atno 8010 bound_to 7997
  139.5216  144.6515  151.5288 H   0  0  0  0  0  0  0  0  0  0  0  0  # atno 10167 bound_to 10162
  156.6550  130.4965  149.6049 H   0  0  0  0  0  0  0  0  0  0  0  0  # atno 10718 bound_to 10713
  154.8607  135.3580  154.5558 H   0  0  0  0  0  0  0  0  0  0  0  0  # atno 10763 bound_to 10752
  153.6174  135.7007  153.5328 H   0  0  0  0  0  0  0  0  0  0  0  0  # atno 10764 bound_to 10752
  153.3157  135.4165  155.1334 H   0  0  0  0  0  0  0  0  0  0  0  0  # atno 10765 bound_to 10752
  141.1667  133.7106  156.8123 H   0  0  0  0  0  0  0  0  0  0  0  0  # atno 11005 bound_to 11000
  144.6730  140.0916  143.7465 LP  0  0  0  0  0  0  0  0  0  0  0  0  # atno 17320 bound_to 7965
  145.9386  139.2654  143.1282 LP  0  0  0  0  0  0  0  0  0  0  0  0  # atno 17321 bound_to 7965
  140.6322  143.9054  150.6615 LP  0  0  0  0  0  0  0  0  0  0  0  0  # atno 17342 bound_to 10162
  140.2362  143.3698  152.1525 LP  0  0  0  0  0  0  0  0  0  0  0  0  # atno 17343 bound_to 10162
  156.2055  130.6646  151.1213 LP  0  0  0  0  0  0  0  0  0  0  0  0  # atno 17370 bound_to 10713
  157.7128  131.0725  150.6437 LP  0  0  0  0  0  0  0  0  0  0  0  0  # atno 17371 bound_to 10713
  140.2179  134.8779  157.3345 LP  0  0  0  0  0  0  0  0  0  0  0  0  # atno 17394 bound_to 11000
  140.2019  134.4245  155.7658 LP  0  0  0  0  0  0  0  0  0  0  0  0  # atno 17395 bound_to 11000

$$$$
