AV-unprocessed.smi:868|AV-procd|sdf|4002|dock3
  -GOLD-   22720 1483D 1   1.00000     0.00000
 Structure written by MMmdl.
 47 49  0  0  0  0  0  0  0  0  1 V2000
  154.3620  140.6906  160.0453 C   0  0  0  0  0  0  0  0  0  0  0  0
  154.0463  141.7331  161.1304 C   0  0  0  0  0  0  0  0  0  0  0  0
  154.3338  141.1554  162.5245 C   0  0  0  0  0  0  0  0  0  0  0  0
  152.5944  142.2762  161.0618 C   0  0  0  0  0  0  0  0  0  0  0  0
  152.0914  142.7952  159.6962 C   0  0  0  0  0  0  0  0  0  0  0  0
  151.5594  141.6214  158.8362 C   0  0  0  0  0  0  0  0  0  0  0  0
  151.7697  140.4512  159.1570 O   0  0  0  0  0  0  0  0  0  0  0  0
  150.8819  141.9566  157.7262 N   0  0  0  0  0  0  0  0  0  0  0  0
  150.3597  141.0139  156.7452 C   0  0  0  0  0  0  0  0  0  0  0  0
  151.3827  140.7467  155.6297 C   0  0  0  0  0  0  0  0  0  0  0  0
  151.4504  139.3008  155.2494 C   0  0  0  0  0  0  0  0  0  0  0  0
  152.3001  138.4306  155.8084 N   0  0  0  0  0  0  0  0  0  0  0  0
  152.0122  137.2088  155.2346 N   0  0  0  0  0  0  0  0  0  0  0  0
  151.0112  137.4619  154.3928 C   0  0  0  0  0  0  0  0  0  0  0  0
  150.6229  138.7461  154.3392 N   0  0  0  0  0  0  0  0  0  0  0  0
  149.5394  139.3419  153.5751 C   0  0  0  0  0  0  0  0  0  0  0  0
  148.5809  140.1942  154.3771 C   0  0  0  0  0  0  0  0  0  0  0  0
  148.1671  138.8126  153.9225 C   0  0  0  0  0  0  0  0  0  0  0  0
  151.1526  144.0311  159.7019 C   0  0  0  0  0  0  0  0  0  0  0  0
  151.9539  144.6544  158.5601 C   0  0  0  0  0  0  0  0  0  0  0  0
  153.0754  143.6656  158.8773 C   0  0  0  0  0  0  0  0  0  0  0  0
  153.6582  139.8583  160.0766 H   0  0  0  0  0  0  0  0  0  0  0  0
  155.3646  140.2819  160.1750 H   0  0  0  0  0  0  0  0  0  0  0  0
  154.3266  141.1266  159.0477 H   0  0  0  0  0  0  0  0  0  0  0  0
  154.7385  142.5644  160.9950 H   0  0  0  0  0  0  0  0  0  0  0  0
  153.6900  140.3021  162.7408 H   0  0  0  0  0  0  0  0  0  0  0  0
  154.1704  141.9021  163.3020 H   0  0  0  0  0  0  0  0  0  0  0  0
  155.3683  140.8207  162.6065 H   0  0  0  0  0  0  0  0  0  0  0  0
  151.9246  141.4865  161.4048 H   0  0  0  0  0  0  0  0  0  0  0  0
  152.4849  143.0668  161.8056 H   0  0  0  0  0  0  0  0  0  0  0  0
  150.7452  142.9385  157.5343 H   0  0  0  0  0  0  0  0  0  0  0  0
  150.0695  140.0816  157.2329 H   0  0  0  0  0  0  0  0  0  0  0  0
  149.4502  141.4395  156.3208 H   0  0  0  0  0  0  0  0  0  0  0  0
  151.1471  141.3458  154.7504 H   0  0  0  0  0  0  0  0  0  0  0  0
  152.3762  141.0620  155.9515 H   0  0  0  0  0  0  0  0  0  0  0  0
  150.5457  136.6863  153.8026 H   0  0  0  0  0  0  0  0  0  0  0  0
  149.8050  139.5954  152.5507 H   0  0  0  0  0  0  0  0  0  0  0  0
  148.7616  140.3305  155.4417 H   0  0  0  0  0  0  0  0  0  0  0  0
  148.1241  141.0429  153.8725 H   0  0  0  0  0  0  0  0  0  0  0  0
  147.4370  138.7476  153.1184 H   0  0  0  0  0  0  0  0  0  0  0  0
  148.0919  138.0371  154.6827 H   0  0  0  0  0  0  0  0  0  0  0  0
  150.1048  143.8575  159.4552 H   0  0  0  0  0  0  0  0  0  0  0  0
  151.2317  144.6100  160.6233 H   0  0  0  0  0  0  0  0  0  0  0  0
  151.5014  144.4805  157.5827 H   0  0  0  0  0  0  0  0  0  0  0  0
  152.2155  145.7025  158.7071 H   0  0  0  0  0  0  0  0  0  0  0  0
  153.8575  144.1077  159.4966 H   0  0  0  0  0  0  0  0  0  0  0  0
  153.5069  143.1984  157.9908 H   0  0  0  0  0  0  0  0  0  0  0  0
  1  2  1  0  0  0  0
  1 22  1  0  0  0  0
  1 23  1  0  0  0  0
  1 24  1  0  0  0  0
  2  3  1  0  0  0  0
  2  4  1  0  0  0  0
  2 25  1  0  0  0  0
  3 26  1  0  0  0  0
  3 27  1  0  0  0  0
  3 28  1  0  0  0  0
  4  5  1  0  0  0  0
  4 29  1  0  0  0  0
  4 30  1  0  0  0  0
  5 21  1  0  0  0  0
  5  6  1  0  0  0  0
  5 19  1  0  0  0  0
  6  7  2  0  0  0  0
  6  8  1  0  0  0  0
  8  9  1  0  0  0  0
  8 31  1  0  0  0  0
  9 10  1  0  0  0  0
  9 32  1  0  0  0  0
  9 33  1  0  0  0  0
 10 11  1  0  0  0  0
 10 34  1  0  0  0  0
 10 35  1  0  0  0  0
 11 15  1  0  0  0  0
 11 12  2  0  0  0  0
 12 13  1  0  0  0  0
 13 14  2  0  0  0  0
 14 15  1  0  0  0  0
 14 36  1  0  0  0  0
 15 16  1  0  0  0  0
 16 18  1  0  0  0  0
 16 17  1  0  0  0  0
 16 37  1  0  0  0  0
 17 18  1  0  0  0  0
 17 38  1  0  0  0  0
 17 39  1  0  0  0  0
 18 40  1  0  0  0  0
 18 41  1  0  0  0  0
 19 20  1  0  0  0  0
 19 42  1  0  0  0  0
 19 43  1  0  0  0  0
 20 21  1  0  0  0  0
 20 44  1  0  0  0  0
 20 45  1  0  0  0  0
 21 46  1  0  0  0  0
 21 47  1  0  0  0  0
M  END
> <s_m_source_file>
AV-unprocessed.smi

> <i_m_source_file_index>
868

> <i_lp_mmshare_version>
43012

> <i_f3d_flags>
0

> <s_epik_input>
W0NIM11bQ0hdKFtDSDNdKVtDSDJdQzEoW0NIMl1bQ0gyXVtDSDJdMSlDKD1PKVtOSF1bQ0gyXVtDSDJdYzJubltjSF1uMltDSF0zW0NIMl1bQ0gyXTM=

> <s_epik_cmdline>
J2VwaWtfcHl0aG9uJywgJy1waCcsICc3LjAnLCAnLXRuJywgJzgnLCAnLW1hJywgJzIwMCcsICctbWV0YWxfYmluZGluZycsICctaW1hZScsICc8aW5maWxlLm1hZT4nLCAnLW9tYWUnLCAnPG91dGZpbGUubWFlPic=

> <r_lp_tautomer_probability>
1

> <r_epik_Ionization_Penalty>
0.000232087

> <r_epik_Ionization_Penalty_Charging>
0

> <r_epik_Ionization_Penalty_Neutral>
0.000232087

> <r_epik_State_Penalty>
-0

> <r_epik_Charging_Adjusted_Penalty>
0

> <i_epik_Tot_Q>
0

> <i_epik_Tot_abs_Q>
0

> <r_epik_Metal_State_Penalty>
-0

> <b_epik_Metal_Only>
0

> <s_lp_Force_Field>
OPLS_2005

> <r_lp_Energy>
30.4352

> <b_lp_Chiralities_Consistent>
1

> <s_lp_Variant>
AV-unprocessed.smi:868-1

> <Gold.Version>
5.8.1

> <Gold.Id.Protein>
6NUR|6NUR_protein|mol2

> <Gold.PLP.Fitness>
48.2898

> <Gold.PLP.PLP>
-45.2948

> <Gold.PLP.part.hbond>
-1.0000

> <Gold.PLP.part.metal>
0.0000

> <Gold.PLP.part.buried>
1.1535

> <Gold.PLP.part.nonpolar>
-45.5976

> <Gold.PLP.part.repulsive>
0.1064

> <Gold.PLP.ligand.clash>
0.0000

> <Gold.PLP.ligand.torsion>
1.9414

> <Gold.PLP.Chemscore.Hbond>
0.9600

> <Gold.PLP.Chemscore.CHOScore>
1.0046

> <Gold.PLP.Chemscore.Metal>
0.0000

> <Gold.Chemscore.Hbonds>
donor molecule, donor type, donor heavy atom, donor atom, acceptor molecule, acceptor atom, score
      P1  H 10752 10765       L1    13  0.91
      L1  C    14    36       P1  7948  0.51
      L1  C    14    36       P1  7949  0.50

> <Gold.PLP.Chemscore.Internal.Correction>
0.9840

> <Gold.Rescore>
     Score         DG    S(hbond)    S(metal)    S(lipo)     H(rot)  DE(clash)    DE(int)     intcor
     10.97     -16.88       0.90        0.00     119.04       2.17       1.71       4.20       ----

> <Gold.Chemscore.Fitness>
10.9666

> <Gold.Chemscore.DG>
-16.8764

> <Gold.Chemscore.ZeroCoef>
-5.4800

> <Gold.Chemscore.Hbond>
0.9027

> <Gold.Chemscore.Metal>
0.0000

> <Gold.Chemscore.Lipo>
119.0371

> <Gold.Chemscore.Internal_Hbond>
0.0000

> <Gold.Chemscore.DEClash>
1.7080

> <Gold.Chemscore.DEInternal>
4.2019

> <Gold.Chemscore.Rot>
2.1664

> <Gold.Chemscore.Internal.Correction>
   9.000000E+99

> <Gold.Chemscore.Hbonds>
donor molecule, donor type, donor heavy atom, donor atom, acceptor molecule, acceptor atom, score
      P1  H 10752 10765       L1    13  0.69

> <Gold.Chemscore.Hbond.Weighted>
-3.0151

> <Gold.Chemscore.Metal.Weighted>
-0.0000

> <Gold.Chemscore.Lipo.Weighted>
-13.9273

> <Gold.Chemscore.Internal_Hbond.Weighted>
0.0000

> <Gold.Chemscore.DEClash.Weighted>
1.7080

> <Gold.Chemscore.DEInternal.Weighted>
4.2019

> <Gold.Chemscore.Rot.Weighted>
5.5461

> <Gold.Chemscore.Internal.Correction.Weighted>
   9.000000E+99

> <Gold.Protein.RotatedTorsions>
[ 6907 6896 6895 6894 ] final   19.36 input  -60.11 | X-H torsion
[ 7974 7965 7964 7962 ] final  170.43 input  175.53 | X-H torsion
[ 8008 7997 7996 7995 ] final -132.41 input   59.86 | X-H torsion
[ 10167 10162 10161 10158 ] final  107.02 input  -65.29 | X-H torsion
[ 10718 10713 10712 10709 ] final  111.51 input   66.30 | X-H torsion
[ 10763 10752 10751 10750 ] final -172.84 input  -60.55 | X-H torsion
[ 11005 11000 10999 10996 ] final -133.25 input  -57.11 | X-H torsion

> <Gold.Protein.ActiveResidues>
 VAL166  LYS551  ARG553  GLY616  TRP617  ASP618  TYR619  PRO620  LYS621  CYS622 
 ASP623  PHE694  ASN695  SER759  ASP760  ASP761  ALA762  ILE779  LEU786  VAL792 
 PHE793  MET794  SER795  GLU796  ALA797  LYS798  CYS799  TRP800  GLU811  SER814 

> <Gold.Protein.RotatedAtoms>
  151.8796  135.0458  160.0487 H   0  0  0  0  0  0  0  0  0  0  0  0  # atno 6907 bound_to 6896
  152.2523  133.5221  159.5341 H   0  0  0  0  0  0  0  0  0  0  0  0  # atno 6908 bound_to 6896
  150.7088  134.0860  159.3957 H   0  0  0  0  0  0  0  0  0  0  0  0  # atno 6909 bound_to 6896
  144.7324  139.9200  143.6419 H   0  0  0  0  0  0  0  0  0  0  0  0  # atno 7974 bound_to 7965
  155.3284  140.0465  157.3042 H   0  0  0  0  0  0  0  0  0  0  0  0  # atno 8008 bound_to 7997
  154.5342  140.2267  155.8718 H   0  0  0  0  0  0  0  0  0  0  0  0  # atno 8009 bound_to 7997
  156.1818  140.3072  155.9169 H   0  0  0  0  0  0  0  0  0  0  0  0  # atno 8010 bound_to 7997
  139.6962  144.7101  151.1264 H   0  0  0  0  0  0  0  0  0  0  0  0  # atno 10167 bound_to 10162
  157.6441  131.0952  150.6760 H   0  0  0  0  0  0  0  0  0  0  0  0  # atno 10718 bound_to 10713
  154.6147  135.2868  155.0393 H   0  0  0  0  0  0  0  0  0  0  0  0  # atno 10763 bound_to 10752
  154.1610  135.6488  153.4989 H   0  0  0  0  0  0  0  0  0  0  0  0  # atno 10764 bound_to 10752
  153.0210  135.5378  154.6914 H   0  0  0  0  0  0  0  0  0  0  0  0  # atno 10765 bound_to 10752
  140.9097  134.1584  157.4398 H   0  0  0  0  0  0  0  0  0  0  0  0  # atno 11005 bound_to 11000
  146.0936  139.3927  143.0390 LP  0  0  0  0  0  0  0  0  0  0  0  0  # atno 17320 bound_to 7965
  145.7676  140.9910  143.1166 LP  0  0  0  0  0  0  0  0  0  0  0  0  # atno 17321 bound_to 7965
  140.7697  143.5489  150.9227 LP  0  0  0  0  0  0  0  0  0  0  0  0  # atno 17342 bound_to 10162
  139.9169  143.6653  152.3104 LP  0  0  0  0  0  0  0  0  0  0  0  0  # atno 17343 bound_to 10162
  156.7079  130.4643  149.5555 LP  0  0  0  0  0  0  0  0  0  0  0  0  # atno 17370 bound_to 10713
  156.1750  130.6462  151.0883 LP  0  0  0  0  0  0  0  0  0  0  0  0  # atno 17371 bound_to 10713
  139.8755  134.9931  156.5627 LP  0  0  0  0  0  0  0  0  0  0  0  0  # atno 17394 bound_to 11000
  140.8126  133.8417  155.8823 LP  0  0  0  0  0  0  0  0  0  0  0  0  # atno 17395 bound_to 11000

$$$$
