AV-unprocessed.smi:2556|AV-procd|sdf|10023|dock10
  -GOLD-   2272014 63D 1   1.00000     0.00000
 Structure written by MMmdl.
 35 37  0  0  0  0  0  0  0  0  1 V2000
  154.0196  134.2332  162.2352 C   0  0  0  0  0  0  0  0  0  0  0  0
  154.4600  135.5962  162.5393 N   0  0  0  0  0  0  0  0  0  0  0  0
  155.3086  135.8698  163.5839 C   0  0  0  0  0  0  0  0  0  0  0  0
  155.7555  134.9938  164.3239 O   0  0  0  0  0  0  0  0  0  0  0  0
  155.6588  137.1763  163.7937 N   0  0  0  0  0  0  0  0  0  0  0  0
  155.2631  138.2612  163.0839 C   0  0  0  0  0  0  0  0  0  0  0  0
  155.6238  139.4084  163.3379 O   0  0  0  0  0  0  0  0  0  0  0  0
  154.3593  137.9223  161.9790 C   0  0  0  0  0  0  0  0  0  0  0  0
  153.9731  136.6469  161.7133 C   0  0  0  0  0  0  0  0  0  0  0  0
  153.1221  136.5973  160.6150 N   0  0  0  0  0  0  0  0  0  0  0  0
  153.0405  137.8831  160.2678 C   0  0  0  0  0  0  0  0  0  0  0  0
  153.7489  138.7407  161.0311 N   0  0  0  0  0  0  0  0  0  0  0  0
  153.8238  140.1834  160.8596 C   0  0  0  0  0  0  0  0  0  0  0  0
  152.7831  140.7188  159.8555 C   0  0  2  0  0  0  0  0  0  0  0  0
  153.1471  140.3656  158.5351 O   0  0  0  0  0  0  0  0  0  0  0  0
  152.5884  142.2184  160.0122 C   0  0  0  0  0  0  0  0  0  0  0  0
  152.6986  143.0669  158.8896 C   0  0  0  0  0  0  0  0  0  0  0  0
  152.5097  144.4559  159.0287 C   0  0  0  0  0  0  0  0  0  0  0  0
  152.2072  145.0036  160.2901 C   0  0  0  0  0  0  0  0  0  0  0  0
  152.0923  144.1617  161.4127 C   0  0  0  0  0  0  0  0  0  0  0  0
  152.2822  142.7729  161.2745 C   0  0  0  0  0  0  0  0  0  0  0  0
  156.2842  137.3519  164.5664 H   0  0  0  0  0  0  0  0  0  0  0  0
  154.4748  133.4679  162.8647 H   0  0  0  0  0  0  0  0  0  0  0  0
  154.2595  133.9858  161.2007 H   0  0  0  0  0  0  0  0  0  0  0  0
  152.9386  134.1573  162.3557 H   0  0  0  0  0  0  0  0  0  0  0  0
  152.4450  138.2132  159.4291 H   0  0  0  0  0  0  0  0  0  0  0  0
  153.6608  140.6435  161.8351 H   0  0  0  0  0  0  0  0  0  0  0  0
  154.8351  140.4616  160.5644 H   0  0  0  0  0  0  0  0  0  0  0  0
  151.8285  140.2288  160.0517 H   0  0  0  0  0  0  0  0  0  0  0  0
  152.3659  140.1139  158.0667 H   0  0  0  0  0  0  0  0  0  0  0  0
  152.9276  142.6569  157.9166 H   0  0  0  0  0  0  0  0  0  0  0  0
  152.5956  145.1014  158.1670 H   0  0  0  0  0  0  0  0  0  0  0  0
  152.0614  146.0685  160.3960 H   0  0  0  0  0  0  0  0  0  0  0  0
  151.8570  144.5807  162.3800 H   0  0  0  0  0  0  0  0  0  0  0  0
  152.1887  142.1334  162.1403 H   0  0  0  0  0  0  0  0  0  0  0  0
  1  2  1  0  0  0  0
  1 23  1  0  0  0  0
  1 24  1  0  0  0  0
  1 25  1  0  0  0  0
  2  9  1  0  0  0  0
  2  3  1  0  0  0  0
  3  4  2  0  0  0  0
  3  5  1  0  0  0  0
  5 22  1  0  0  0  0
  5  6  1  0  0  0  0
  6  7  2  0  0  0  0
  6  8  1  0  0  0  0
  8 12  1  0  0  0  0
  8  9  2  0  0  0  0
  9 10  1  0  0  0  0
 10 11  2  0  0  0  0
 11 12  1  0  0  0  0
 11 26  1  0  0  0  0
 12 13  1  0  0  0  0
 13 14  1  0  0  0  0
 13 27  1  0  0  0  0
 13 28  1  0  0  0  0
 14 15  1  0  0  0  0
 14 16  1  0  0  0  0
 14 29  1  0  0  0  0
 15 30  1  0  0  0  0
 16 21  1  0  0  0  0
 16 17  2  0  0  0  0
 17 18  1  0  0  0  0
 17 31  1  0  0  0  0
 18 19  2  0  0  0  0
 18 32  1  0  0  0  0
 19 20  1  0  0  0  0
 19 33  1  0  0  0  0
 20 21  2  0  0  0  0
 20 34  1  0  0  0  0
 21 35  1  0  0  0  0
M  END
> <s_m_source_file>
AV-unprocessed.smi

> <i_m_source_file_index>
2556

> <i_lp_mmshare_version>
43012

> <i_f3d_flags>
0

> <s_epik_input>
Tz1jMVtuSF1jKD1PKW4oW0NIM10pYyhjMTIpbltjSF1uMltDSDJdW0NASF0oW09IXSljM1tjSF1bY0hdW2NIXVtjSF1bY0hdMw==

> <s_epik_cmdline>
J2VwaWtfcHl0aG9uJywgJy1waCcsICc3LjAnLCAnLXRuJywgJzgnLCAnLW1hJywgJzIwMCcsICctbWV0YWxfYmluZGluZycsICctaW1hZScsICc8aW5maWxlLm1hZT4nLCAnLW9tYWUnLCAnPG91dGZpbGUubWFlPic=

> <r_lp_tautomer_probability>
1

> <r_epik_Ionization_Penalty>
0.000177505

> <r_epik_Ionization_Penalty_Charging>
0.000176585

> <r_epik_Ionization_Penalty_Neutral>
9.19728e-07

> <r_epik_State_Penalty>
-0

> <r_epik_Charging_Adjusted_Penalty>
0.000176585

> <i_epik_Tot_Q>
0

> <i_epik_Tot_abs_Q>
0

> <r_epik_Metal_State_Penalty>
0.122509

> <b_epik_Metal_Only>
0

> <s_lp_Force_Field>
OPLS_2005

> <r_lp_Energy>
28.9299

> <b_lp_Chiralities_Consistent>
1

> <s_lp_Variant>
AV-unprocessed.smi:2556-1

> <Gold.Version>
5.8.1

> <Gold.Id.Protein>
6NUR|6NUR_protein|mol2

> <Gold.PLP.Fitness>
45.3078

> <Gold.PLP.PLP>
-40.6870

> <Gold.PLP.part.hbond>
-1.7426

> <Gold.PLP.part.metal>
0.0000

> <Gold.PLP.part.buried>
-3.7779

> <Gold.PLP.part.nonpolar>
-34.6070

> <Gold.PLP.part.repulsive>
0.0400

> <Gold.PLP.ligand.clash>
0.0000

> <Gold.PLP.ligand.torsion>
0.2884

> <Gold.PLP.Chemscore.Hbond>
1.7245

> <Gold.PLP.Chemscore.CHOScore>
0.0000

> <Gold.PLP.Chemscore.Metal>
0.0000

> <Gold.Chemscore.Hbonds>
donor molecule, donor type, donor heavy atom, donor atom, acceptor molecule, acceptor atom, score
      P1  H  6896  6908       L1    10  1.00
      P1  H  7997  8010       L1    15  0.71

> <Gold.PLP.Chemscore.Internal.Correction>
0.0241

> <Gold.Rescore>
     Score         DG    S(hbond)    S(metal)    S(lipo)     H(rot)  DE(clash)    DE(int)     intcor
     15.80     -17.01       1.90        0.00      94.90       2.31       0.02       1.19       ----

> <Gold.Chemscore.Fitness>
15.8010

> <Gold.Chemscore.DG>
-17.0108

> <Gold.Chemscore.ZeroCoef>
-5.4800

> <Gold.Chemscore.Hbond>
1.8997

> <Gold.Chemscore.Metal>
0.0000

> <Gold.Chemscore.Lipo>
94.8990

> <Gold.Chemscore.Internal_Hbond>
0.0000

> <Gold.Chemscore.DEClash>
0.0208

> <Gold.Chemscore.DEInternal>
1.1890

> <Gold.Chemscore.Rot>
2.3115

> <Gold.Chemscore.Internal.Correction>
   9.000000E+99

> <Gold.Chemscore.Hbonds>
donor molecule, donor type, donor heavy atom, donor atom, acceptor molecule, acceptor atom, score
      P1  H  6896  6908       L1    10  0.98
      P1  H  7997  8010       L1    15  0.24

> <Gold.Chemscore.Hbond.Weighted>
-6.3450

> <Gold.Chemscore.Metal.Weighted>
-0.0000

> <Gold.Chemscore.Lipo.Weighted>
-11.1032

> <Gold.Chemscore.Internal_Hbond.Weighted>
0.0000

> <Gold.Chemscore.DEClash.Weighted>
0.0208

> <Gold.Chemscore.DEInternal.Weighted>
1.1890

> <Gold.Chemscore.Rot.Weighted>
5.9174

> <Gold.Chemscore.Internal.Correction.Weighted>
   9.000000E+99

> <Gold.Protein.RotatedTorsions>
[ 6907 6896 6895 6894 ] final  -84.31 input  -60.11 | X-H torsion
[ 7974 7965 7964 7962 ] final  172.95 input  175.53 | X-H torsion
[ 8008 7997 7996 7995 ] final   29.97 input   59.86 | X-H torsion
[ 10167 10162 10161 10158 ] final  -88.19 input  -65.29 | X-H torsion
[ 10718 10713 10712 10709 ] final  114.86 input   66.30 | X-H torsion
[ 10763 10752 10751 10750 ] final -101.71 input  -60.55 | X-H torsion
[ 11005 11000 10999 10996 ] final   41.66 input  -57.11 | X-H torsion

> <Gold.Protein.ActiveResidues>
 VAL166  LYS551  ARG553  GLY616  TRP617  ASP618  TYR619  PRO620  LYS621  CYS622 
 ASP623  PHE694  ASN695  SER759  ASP760  ASP761  ALA762  ILE779  LEU786  VAL792 
 PHE793  MET794  SER795  GLU796  ALA797  LYS798  CYS799  TRP800  GLU811  SER814 

> <Gold.Protein.RotatedAtoms>
  150.6877  134.3378  159.4854 H   0  0  0  0  0  0  0  0  0  0  0  0  # atno 6907 bound_to 6896
  152.1235  134.9185  160.0571 H   0  0  0  0  0  0  0  0  0  0  0  0  # atno 6908 bound_to 6896
  152.0382  133.3931  159.4362 H   0  0  0  0  0  0  0  0  0  0  0  0  # atno 6909 bound_to 6896
  144.7255  139.9575  143.6434 H   0  0  0  0  0  0  0  0  0  0  0  0  # atno 7974 bound_to 7965
  155.0829  140.3212  155.4596 H   0  0  0  0  0  0  0  0  0  0  0  0  # atno 8008 bound_to 7997
  156.2762  140.2091  156.5903 H   0  0  0  0  0  0  0  0  0  0  0  0  # atno 8009 bound_to 7997
  154.6964  140.0511  157.0402 H   0  0  0  0  0  0  0  0  0  0  0  0  # atno 8010 bound_to 7997
  140.3771  143.2766  151.9430 H   0  0  0  0  0  0  0  0  0  0  0  0  # atno 10167 bound_to 10162
  157.6257  131.1004  150.7246 H   0  0  0  0  0  0  0  0  0  0  0  0  # atno 10718 bound_to 10713
  154.7679  135.4887  153.9590 H   0  0  0  0  0  0  0  0  0  0  0  0  # atno 10763 bound_to 10752
  153.1330  135.6757  153.9155 H   0  0  0  0  0  0  0  0  0  0  0  0  # atno 10764 bound_to 10752
  153.8852  135.3127  155.3425 H   0  0  0  0  0  0  0  0  0  0  0  0  # atno 10765 bound_to 10752
  140.1813  134.4100  155.8199 H   0  0  0  0  0  0  0  0  0  0  0  0  # atno 11005 bound_to 11000
  146.0663  139.3654  143.0550 LP  0  0  0  0  0  0  0  0  0  0  0  0  # atno 17320 bound_to 7965
  145.8027  140.9763  143.0990 LP  0  0  0  0  0  0  0  0  0  0  0  0  # atno 17321 bound_to 7965
  139.4798  144.5853  151.7863 LP  0  0  0  0  0  0  0  0  0  0  0  0  # atno 17342 bound_to 10162
  140.4975  144.1218  150.5963 LP  0  0  0  0  0  0  0  0  0  0  0  0  # atno 17343 bound_to 10162
  156.7595  130.4794  149.5440 LP  0  0  0  0  0  0  0  0  0  0  0  0  # atno 17370 bound_to 10713
  156.1427  130.6256  151.0489 LP  0  0  0  0  0  0  0  0  0  0  0  0  # atno 17371 bound_to 10713
  141.2223  133.7002  156.7935 LP  0  0  0  0  0  0  0  0  0  0  0  0  # atno 17394 bound_to 11000
  140.2264  134.8718  157.3431 LP  0  0  0  0  0  0  0  0  0  0  0  0  # atno 17395 bound_to 11000

$$$$
