AV-unprocessed.smi:3100|AV-procd|sdf|11806|dock3
  -GOLD-   2272017183D 1   1.00000     0.00000
 Structure written by MMmdl.
 28 29  0  0  0  0  0  0  0  0  1 V2000
  149.9967  144.5617  160.4945 C   0  0  0  0  0  0  0  0  0  0  0  0
  151.4737  144.2327  160.2552 C   0  0  2  0  0  0  0  0  0  0  0  0
  152.0417  144.8167  158.9665 C   0  0  0  0  0  0  0  0  0  0  0  0
  153.2639  143.9480  158.7470 C   0  0  0  0  0  0  0  0  0  0  0  0
  152.8601  142.5945  159.3598 C   0  0  2  0  0  0  0  0  0  0  0  0
  152.5857  141.4982  158.3236 C   0  0  0  0  0  0  0  0  0  0  0  0
  153.2873  140.4862  158.3026 O   0  0  0  0  0  0  0  0  0  0  0  0
  151.5686  141.7397  157.4760 N   0  0  0  0  0  0  0  0  0  0  0  0
  151.0965  140.9208  156.4166 C   0  0  0  0  0  0  0  0  0  0  0  0
  149.9841  141.4231  155.7005 C   0  0  0  0  0  0  0  0  0  0  0  0
  149.4233  140.7600  154.6648 N   0  0  0  0  0  0  0  0  0  0  0  0
  149.9805  139.5754  154.3336 C   0  0  0  0  0  0  0  0  0  0  0  0
  151.0889  139.0598  155.0349 C   0  0  0  0  0  0  0  0  0  0  0  0
  151.6436  139.7273  156.0701 N   0  0  0  0  0  0  0  0  0  0  0  0
  151.6510  142.8353  160.0781 O   0  0  0  0  0  0  0  0  0  0  0  0
  149.8480  145.6363  160.6024 H   0  0  0  0  0  0  0  0  0  0  0  0
  149.6339  144.0815  161.4034 H   0  0  0  0  0  0  0  0  0  0  0  0
  149.3762  144.2183  159.6661 H   0  0  0  0  0  0  0  0  0  0  0  0
  152.0755  144.5555  161.1066 H   0  0  0  0  0  0  0  0  0  0  0  0
  151.3379  144.6835  158.1433 H   0  0  0  0  0  0  0  0  0  0  0  0
  152.2801  145.8777  159.0464 H   0  0  0  0  0  0  0  0  0  0  0  0
  153.5474  143.8955  157.6947 H   0  0  0  0  0  0  0  0  0  0  0  0
  154.1147  144.3579  159.2927 H   0  0  0  0  0  0  0  0  0  0  0  0
  153.6302  142.2664  160.0602 H   0  0  0  0  0  0  0  0  0  0  0  0
  151.0761  142.6114  157.6057 H   0  0  0  0  0  0  0  0  0  0  0  0
  149.5349  142.3707  155.9607 H   0  0  0  0  0  0  0  0  0  0  0  0
  149.5414  139.0370  153.5070 H   0  0  0  0  0  0  0  0  0  0  0  0
  151.5308  138.1119  154.7658 H   0  0  0  0  0  0  0  0  0  0  0  0
  1  2  1  0  0  0  0
  1 16  1  0  0  0  0
  1 17  1  0  0  0  0
  1 18  1  0  0  0  0
  2 15  1  0  0  0  0
  2  3  1  0  0  0  0
  2 19  1  0  0  0  0
  3  4  1  0  0  0  0
  3 20  1  0  0  0  0
  3 21  1  0  0  0  0
  4  5  1  0  0  0  0
  4 22  1  0  0  0  0
  4 23  1  0  0  0  0
  5  6  1  0  0  0  0
  5 15  1  0  0  0  0
  5 24  1  0  0  0  0
  6  7  2  0  0  0  0
  6  8  1  0  0  0  0
  8  9  1  0  0  0  0
  8 25  1  0  0  0  0
  9 14  1  0  0  0  0
  9 10  2  0  0  0  0
 10 11  1  0  0  0  0
 10 26  1  0  0  0  0
 11 12  2  0  0  0  0
 12 13  1  0  0  0  0
 12 27  1  0  0  0  0
 13 14  2  0  0  0  0
 13 28  1  0  0  0  0
M  END
> <s_m_source_file>
AV-unprocessed.smi

> <i_m_source_file_index>
3100

> <i_lp_mmshare_version>
43012

> <i_f3d_flags>
0

> <s_epik_input>
W0NIM11bQ0BASF0xW0NIMl1bQ0gyXVtDQEhdKE8xKUMoPU8pW05IXWMyW2NIXW5bY0hdW2NIXW4y

> <s_epik_cmdline>
J2VwaWtfcHl0aG9uJywgJy1waCcsICc3LjAnLCAnLXRuJywgJzgnLCAnLW1hJywgJzIwMCcsICctbWV0YWxfYmluZGluZycsICctaW1hZScsICc8aW5maWxlLm1hZT4nLCAnLW9tYWUnLCAnPG91dGZpbGUubWFlPic=

> <r_lp_tautomer_probability>
1

> <r_epik_Ionization_Penalty>
2.81186e-06

> <r_epik_Ionization_Penalty_Charging>
0

> <r_epik_Ionization_Penalty_Neutral>
2.81186e-06

> <r_epik_State_Penalty>
-0

> <r_epik_Charging_Adjusted_Penalty>
0

> <i_epik_Tot_Q>
0

> <i_epik_Tot_abs_Q>
0

> <r_epik_Metal_State_Penalty>
-0

> <b_epik_Metal_Only>
0

> <s_lp_Force_Field>
OPLS_2005

> <r_lp_Energy>
25.9651

> <b_lp_Chiralities_Consistent>
1

> <s_lp_Variant>
AV-unprocessed.smi:3100-3

> <Gold.Version>
5.8.1

> <Gold.Id.Protein>
6NUR|6NUR_protein|mol2

> <Gold.PLP.Fitness>
40.2456

> <Gold.PLP.PLP>
-32.2058

> <Gold.PLP.part.hbond>
-2.5559

> <Gold.PLP.part.metal>
0.0000

> <Gold.PLP.part.buried>
-2.3612

> <Gold.PLP.part.nonpolar>
-25.2487

> <Gold.PLP.part.repulsive>
0.2203

> <Gold.PLP.ligand.clash>
0.0000

> <Gold.PLP.ligand.torsion>
0.0309

> <Gold.PLP.Chemscore.Hbond>
0.8003

> <Gold.PLP.Chemscore.CHOScore>
1.8978

> <Gold.PLP.Chemscore.Metal>
0.0000

> <Gold.Chemscore.Hbonds>
donor molecule, donor type, donor heavy atom, donor atom, acceptor molecule, acceptor atom, score
      P1  H  7997  8009       L1     7  0.78
      L1  C    10    26       P1  8028  1.00
      L1  C    12    27       P1  7957  0.77

> <Gold.PLP.Chemscore.Internal.Correction>
0.0073

> <Gold.Rescore>
     Score         DG    S(hbond)    S(metal)    S(lipo)     H(rot)  DE(clash)    DE(int)     intcor
     14.03     -15.45       0.87        0.00      82.16       1.00       0.08       1.34       ----

> <Gold.Chemscore.Fitness>
14.0310

> <Gold.Chemscore.DG>
-15.4513

> <Gold.Chemscore.ZeroCoef>
-5.4800

> <Gold.Chemscore.Hbond>
0.8738

> <Gold.Chemscore.Metal>
0.0000

> <Gold.Chemscore.Lipo>
82.1623

> <Gold.Chemscore.Internal_Hbond>
0.0000

> <Gold.Chemscore.DEClash>
0.0818

> <Gold.Chemscore.DEInternal>
1.3385

> <Gold.Chemscore.Rot>
1.0000

> <Gold.Chemscore.Internal.Correction>
   9.000000E+99

> <Gold.Chemscore.Hbonds>
donor molecule, donor type, donor heavy atom, donor atom, acceptor molecule, acceptor atom, score
      P1  H  7997  8009       L1     7  0.78

> <Gold.Chemscore.Hbond.Weighted>
-2.9183

> <Gold.Chemscore.Metal.Weighted>
-0.0000

> <Gold.Chemscore.Lipo.Weighted>
-9.6130

> <Gold.Chemscore.Internal_Hbond.Weighted>
0.0000

> <Gold.Chemscore.DEClash.Weighted>
0.0818

> <Gold.Chemscore.DEInternal.Weighted>
1.3385

> <Gold.Chemscore.Rot.Weighted>
2.5600

> <Gold.Chemscore.Internal.Correction.Weighted>
   9.000000E+99

> <Gold.Protein.RotatedTorsions>
[ 6907 6896 6895 6894 ] final  164.96 input  -60.11 | X-H torsion
[ 7974 7965 7964 7962 ] final -128.74 input  175.53 | X-H torsion
[ 8008 7997 7996 7995 ] final  152.84 input   59.86 | X-H torsion
[ 10167 10162 10161 10158 ] final   20.77 input  -65.29 | X-H torsion
[ 10718 10713 10712 10709 ] final   28.61 input   66.30 | X-H torsion
[ 10763 10752 10751 10750 ] final -155.70 input  -60.55 | X-H torsion
[ 11005 11000 10999 10996 ] final   23.70 input  -57.11 | X-H torsion

> <Gold.Protein.ActiveResidues>
 VAL166  LYS551  ARG553  GLY616  TRP617  ASP618  TYR619  PRO620  LYS621  CYS622 
 ASP623  PHE694  ASN695  SER759  ASP760  ASP761  ALA762  ILE779  LEU786  VAL792 
 PHE793  MET794  SER795  GLU796  ALA797  LYS798  CYS799  TRP800  GLU811  SER814 

> <Gold.Protein.RotatedAtoms>
  151.9018  133.3540  159.3833 H   0  0  0  0  0  0  0  0  0  0  0  0  # atno 6907 bound_to 6896
  150.7078  134.4821  159.5484 H   0  0  0  0  0  0  0  0  0  0  0  0  # atno 6908 bound_to 6896
  152.2410  134.8228  160.0511 H   0  0  0  0  0  0  0  0  0  0  0  0  # atno 6909 bound_to 6896
  144.9641  140.7478  143.4711 H   0  0  0  0  0  0  0  0  0  0  0  0  # atno 7974 bound_to 7965
  156.2610  140.2010  156.6396 H   0  0  0  0  0  0  0  0  0  0  0  0  # atno 8008 bound_to 7997
  154.6620  140.0560  157.0097 H   0  0  0  0  0  0  0  0  0  0  0  0  # atno 8009 bound_to 7997
  155.1262  140.3229  155.4488 H   0  0  0  0  0  0  0  0  0  0  0  0  # atno 8010 bound_to 7997
  140.5478  143.9563  150.6559 H   0  0  0  0  0  0  0  0  0  0  0  0  # atno 10167 bound_to 10162
  157.2358  130.7045  149.6335 H   0  0  0  0  0  0  0  0  0  0  0  0  # atno 10718 bound_to 10713
  154.7767  135.3162  154.8076 H   0  0  0  0  0  0  0  0  0  0  0  0  # atno 10763 bound_to 10752
  153.8798  135.6836  153.4772 H   0  0  0  0  0  0  0  0  0  0  0  0  # atno 10764 bound_to 10752
  153.1393  135.4746  154.9407 H   0  0  0  0  0  0  0  0  0  0  0  0  # atno 10765 bound_to 10752
  140.3668  134.2066  155.7669 H   0  0  0  0  0  0  0  0  0  0  0  0  # atno 11005 bound_to 11000
  145.2656  139.1975  143.4869 LP  0  0  0  0  0  0  0  0  0  0  0  0  # atno 17320 bound_to 7965
  146.3362  140.2593  142.8601 LP  0  0  0  0  0  0  0  0  0  0  0  0  # atno 17321 bound_to 7965
  140.2981  143.3279  152.0998 LP  0  0  0  0  0  0  0  0  0  0  0  0  # atno 17342 bound_to 10162
  139.5014  144.6714  151.6234 LP  0  0  0  0  0  0  0  0  0  0  0  0  # atno 17343 bound_to 10162
  155.9673  130.4474  150.5579 LP  0  0  0  0  0  0  0  0  0  0  0  0  # atno 17370 bound_to 10713
  157.3431  131.0720  151.1772 LP  0  0  0  0  0  0  0  0  0  0  0  0  # atno 17371 bound_to 10713
  141.1967  133.8076  157.0660 LP  0  0  0  0  0  0  0  0  0  0  0  0  # atno 17394 bound_to 11000
  140.0583  134.9768  157.1260 LP  0  0  0  0  0  0  0  0  0  0  0  0  # atno 17395 bound_to 11000

$$$$
