AV-unprocessed.smi:639|AV-procd|sdf|3145|dock8
  -GOLD-   22720 0 73D 1   1.00000     0.00000
 Structure written by MMmdl.
 24 25  0  0  0  0  0  0  0  0  1 V2000
  152.3741  144.9549  158.6703 C   0  0  0  0  0  0  0  0  0  0  0  0
  152.0343  143.5819  158.3642 N   0  0  0  0  0  0  0  0  0  0  0  0
  151.2619  143.0984  157.3313 C   0  0  0  0  0  0  0  0  0  0  0  0
  151.2178  141.7354  157.4452 C   0  0  0  0  0  0  0  0  0  0  0  0
  150.5045  140.7355  156.5561 C   0  0  2  0  0  0  0  0  0  0  0  0
  149.7780  141.4134  155.3797 C   0  0  0  0  0  0  0  0  0  0  0  0
  149.5951  139.8745  157.2979 N   0  0  0  0  0  0  0  0  0  0  0  0
  149.9834  138.5919  157.3067 C   0  0  0  0  0  0  0  0  0  0  0  0
  149.4088  137.6668  157.8754 O   0  0  0  0  0  0  0  0  0  0  0  0
  151.1018  138.4968  156.5811 N   0  0  0  0  0  0  0  0  0  0  0  0
  151.4853  139.6705  156.0815 C   0  0  0  0  0  0  0  0  0  0  0  0
  152.4598  139.8802  155.3605 O   0  0  0  0  0  0  0  0  0  0  0  0
  152.0105  141.4862  158.6051 C   0  0  0  0  0  0  0  0  0  0  0  0
  152.4940  142.5894  159.1516 N   0  0  0  0  0  0  0  0  0  0  0  0
  152.2513  145.5757  157.7824 H   0  0  0  0  0  0  0  0  0  0  0  0
  153.4104  145.0195  159.0043 H   0  0  0  0  0  0  0  0  0  0  0  0
  151.7193  145.3273  159.4586 H   0  0  0  0  0  0  0  0  0  0  0  0
  150.8117  143.7568  156.6031 H   0  0  0  0  0  0  0  0  0  0  0  0
  150.4675  141.9899  154.7620 H   0  0  0  0  0  0  0  0  0  0  0  0
  149.0080  142.0970  155.7386 H   0  0  0  0  0  0  0  0  0  0  0  0
  149.2917  140.6824  154.7320 H   0  0  0  0  0  0  0  0  0  0  0  0
  148.7728  140.2236  157.7686 H   0  0  0  0  0  0  0  0  0  0  0  0
  151.5943  137.6303  156.4201 H   0  0  0  0  0  0  0  0  0  0  0  0
  152.2486  140.5381  159.0644 H   0  0  0  0  0  0  0  0  0  0  0  0
  1  2  1  0  0  0  0
  1 15  1  0  0  0  0
  1 16  1  0  0  0  0
  1 17  1  0  0  0  0
  2 14  1  0  0  0  0
  2  3  1  0  0  0  0
  3  4  2  0  0  0  0
  3 18  1  0  0  0  0
  4  5  1  0  0  0  0
  4 13  1  0  0  0  0
  5 11  1  0  0  0  0
  5  6  1  0  0  0  0
  5  7  1  0  0  0  0
  6 19  1  0  0  0  0
  6 20  1  0  0  0  0
  6 21  1  0  0  0  0
  7  8  1  0  0  0  0
  7 22  1  0  0  0  0
  8  9  2  0  0  0  0
  8 10  1  0  0  0  0
 10 11  1  0  0  0  0
 10 23  1  0  0  0  0
 11 12  2  0  0  0  0
 13 14  2  0  0  0  0
 13 24  1  0  0  0  0
M  END
> <s_m_source_file>
AV-unprocessed.smi

> <i_m_source_file_index>
639

> <i_lp_mmshare_version>
43012

> <i_f3d_flags>
0

> <s_epik_input>
W0NIM11uMVtjSF1jKFtjSF1uMSlbQ0BAXTIoW0NIM10pW05IXUMoPU8pW05IXUMyPU8=

> <s_epik_cmdline>
J2VwaWtfcHl0aG9uJywgJy1waCcsICc3LjAnLCAnLXRuJywgJzgnLCAnLW1hJywgJzIwMCcsICctbWV0YWxfYmluZGluZycsICctaW1hZScsICc8aW5maWxlLm1hZT4nLCAnLW9tYWUnLCAnPG91dGZpbGUubWFlPic=

> <r_lp_tautomer_probability>
1

> <r_epik_Ionization_Penalty>
0.0282779

> <r_epik_Ionization_Penalty_Charging>
0

> <r_epik_Ionization_Penalty_Neutral>
0.0282779

> <r_epik_State_Penalty>
0.022996

> <r_epik_Charging_Adjusted_Penalty>
0.022996

> <i_epik_Tot_Q>
0

> <i_epik_Tot_abs_Q>
0

> <r_epik_Metal_State_Penalty>
0.428533

> <b_epik_Metal_Only>
0

> <s_lp_Force_Field>
OPLS_2005

> <r_lp_Energy>
13.4697

> <b_lp_Chiralities_Consistent>
1

> <s_lp_Variant>
AV-unprocessed.smi:639-2

> <Gold.Version>
5.8.1

> <Gold.Id.Protein>
6NUR|6NUR_protein|mol2

> <Gold.PLP.Fitness>
33.1640

> <Gold.PLP.PLP>
-25.5860

> <Gold.PLP.part.hbond>
-1.9990

> <Gold.PLP.part.metal>
0.0000

> <Gold.PLP.part.buried>
-2.8813

> <Gold.PLP.part.nonpolar>
-20.8099

> <Gold.PLP.part.repulsive>
0.1069

> <Gold.PLP.ligand.clash>
0.0000

> <Gold.PLP.ligand.torsion>
0.0667

> <Gold.PLP.Chemscore.Hbond>
1.5282

> <Gold.PLP.Chemscore.CHOScore>
1.0000

> <Gold.PLP.Chemscore.Metal>
0.0000

> <Gold.Chemscore.Hbonds>
donor molecule, donor type, donor heavy atom, donor atom, acceptor molecule, acceptor atom, score
      P1  H  7989  7998       L1    12  0.31
      P1  H  7997  8009       L1    12  0.93
      L1  C     3    18       P1  8028  1.00

> <Gold.PLP.Chemscore.Internal.Correction>
0.1268

> <Gold.Rescore>
     Score         DG    S(hbond)    S(metal)    S(lipo)     H(rot)  DE(clash)    DE(int)     intcor
     12.96     -13.05       1.29        0.00      49.70       1.00       0.02       0.06       ----

> <Gold.Chemscore.Fitness>
12.9639

> <Gold.Chemscore.DG>
-13.0476

> <Gold.Chemscore.ZeroCoef>
-5.4800

> <Gold.Chemscore.Hbond>
1.2914

> <Gold.Chemscore.Metal>
0.0000

> <Gold.Chemscore.Lipo>
49.6964

> <Gold.Chemscore.Internal_Hbond>
0.0000

> <Gold.Chemscore.DEClash>
0.0202

> <Gold.Chemscore.DEInternal>
0.0634

> <Gold.Chemscore.Rot>
1.0000

> <Gold.Chemscore.Internal.Correction>
   9.000000E+99

> <Gold.Chemscore.Hbonds>
donor molecule, donor type, donor heavy atom, donor atom, acceptor molecule, acceptor atom, score
      P1  H  7989  7998       L1    12  0.18
      P1  H  7997  8009       L1    12  0.88

> <Gold.Chemscore.Hbond.Weighted>
-4.3131

> <Gold.Chemscore.Metal.Weighted>
-0.0000

> <Gold.Chemscore.Lipo.Weighted>
-5.8145

> <Gold.Chemscore.Internal_Hbond.Weighted>
0.0000

> <Gold.Chemscore.DEClash.Weighted>
0.0202

> <Gold.Chemscore.DEInternal.Weighted>
0.0634

> <Gold.Chemscore.Rot.Weighted>
2.5600

> <Gold.Chemscore.Internal.Correction.Weighted>
   9.000000E+99

> <Gold.Protein.RotatedTorsions>
[ 6907 6896 6895 6894 ] final  162.85 input  -60.11 | X-H torsion
[ 7974 7965 7964 7962 ] final  -42.14 input  175.53 | X-H torsion
[ 8008 7997 7996 7995 ] final -141.41 input   59.86 | X-H torsion
[ 10167 10162 10161 10158 ] final -168.77 input  -65.29 | X-H torsion
[ 10718 10713 10712 10709 ] final   31.14 input   66.30 | X-H torsion
[ 10763 10752 10751 10750 ] final   39.36 input  -60.55 | X-H torsion
[ 11005 11000 10999 10996 ] final  -95.32 input  -57.11 | X-H torsion

> <Gold.Protein.ActiveResidues>
 VAL166  LYS551  ARG553  GLY616  TRP617  ASP618  TYR619  PRO620  LYS621  CYS622 
 ASP623  PHE694  ASN695  SER759  ASP760  ASP761  ALA762  ILE779  LEU786  VAL792 
 PHE793  MET794  SER795  GLU796  ALA797  LYS798  CYS799  TRP800  GLU811  SER814 

> <Gold.Protein.RotatedAtoms>
  151.9342  133.3619  159.3941 H   0  0  0  0  0  0  0  0  0  0  0  0  # atno 6907 bound_to 6896
  150.7011  134.4506  159.5344 H   0  0  0  0  0  0  0  0  0  0  0  0  # atno 6908 bound_to 6896
  152.2152  134.8464  160.0543 H   0  0  0  0  0  0  0  0  0  0  0  0  # atno 6909 bound_to 6896
  146.0144  140.6926  142.9209 H   0  0  0  0  0  0  0  0  0  0  0  0  # atno 7974 bound_to 7965
  155.4774  140.0557  157.2971 H   0  0  0  0  0  0  0  0  0  0  0  0  # atno 8008 bound_to 7997
  154.4674  140.2025  156.0036 H   0  0  0  0  0  0  0  0  0  0  0  0  # atno 8009 bound_to 7997
  156.0997  140.3221  155.7930 H   0  0  0  0  0  0  0  0  0  0  0  0  # atno 8010 bound_to 7997
  139.5964  144.1103  152.1694 H   0  0  0  0  0  0  0  0  0  0  0  0  # atno 10167 bound_to 10162
  157.2686  130.7197  149.6492 H   0  0  0  0  0  0  0  0  0  0  0  0  # atno 10718 bound_to 10713
  152.9970  135.6223  154.2452 H   0  0  0  0  0  0  0  0  0  0  0  0  # atno 10763 bound_to 10752
  154.2192  135.2796  155.2932 H   0  0  0  0  0  0  0  0  0  0  0  0  # atno 10764 bound_to 10752
  154.5543  135.5724  153.7008 H   0  0  0  0  0  0  0  0  0  0  0  0  # atno 10765 bound_to 10752
  141.1445  133.8018  157.0419 H   0  0  0  0  0  0  0  0  0  0  0  0  # atno 11005 bound_to 11000
  144.6965  140.3455  143.7191 LP  0  0  0  0  0  0  0  0  0  0  0  0  # atno 17320 bound_to 7965
  145.7292  139.1731  143.2440 LP  0  0  0  0  0  0  0  0  0  0  0  0  # atno 17321 bound_to 7965
  140.0689  144.5795  150.7206 LP  0  0  0  0  0  0  0  0  0  0  0  0  # atno 17342 bound_to 10162
  140.7215  143.2594  151.4262 LP  0  0  0  0  0  0  0  0  0  0  0  0  # atno 17343 bound_to 10162
  155.9663  130.4375  150.5177 LP  0  0  0  0  0  0  0  0  0  0  0  0  # atno 17370 bound_to 10713
  157.3096  131.0661  151.2010 LP  0  0  0  0  0  0  0  0  0  0  0  0  # atno 17371 bound_to 10713
  140.0687  134.9714  157.1430 LP  0  0  0  0  0  0  0  0  0  0  0  0  # atno 17394 bound_to 11000
  140.3742  134.2357  155.7175 LP  0  0  0  0  0  0  0  0  0  0  0  0  # atno 17395 bound_to 11000

$$$$
