AV-unprocessed.smi:2451|AV-procd|sdf|9672|dock4
  -GOLD-   2272013313D 1   1.00000     0.00000
 Structure written by MMmdl.
 38 39  0  0  0  0  0  0  0  0  1 V2000
  151.8358  144.9140  160.2695 C   0  0  0  0  0  0  0  0  0  0  0  0
  152.8027  144.0596  159.4236 C   0  0  1  0  0  0  0  0  0  0  0  0
  153.3431  142.8583  160.2251 C   0  0  0  0  0  0  0  0  0  0  0  0
  152.2740  141.7753  160.4370 C   0  0  0  0  0  0  0  0  0  0  0  0
  151.6978  141.3017  159.0960 C   0  0  0  0  0  0  0  0  0  0  0  0
  151.1551  142.4734  158.2555 C   0  0  2  0  0  0  0  0  0  0  0  0
  150.7289  141.9552  156.9520 N   0  0  0  0  0  0  0  0  0  0  0  0
  149.2179  141.1319  156.8399 S   0  0  0  0  0  0  0  0  0  0  0  0
  149.3229  139.9031  157.6413 O   0  0  0  0  0  0  0  0  0  0  0  0
  148.1561  142.1087  157.1287 O   0  0  0  0  0  0  0  0  0  0  0  0
  149.1376  140.6879  155.0540 C   0  0  0  0  0  0  0  0  0  0  0  0
  150.1816  139.6536  154.7448 C   0  0  0  0  0  0  0  0  0  0  0  0
  149.9959  138.3244  154.2733 C   0  0  0  0  0  0  0  0  0  0  0  0
  151.2690  137.8439  154.1654 C   0  0  0  0  0  0  0  0  0  0  0  0
  152.1673  138.7924  154.5328 O   0  0  0  0  0  0  0  0  0  0  0  0
  151.4633  139.9451  154.8998 N   0  0  0  0  0  0  0  0  0  0  0  0
  152.2149  143.5883  158.0656 C   0  0  1  0  0  0  0  0  0  0  0  0
  151.6896  144.7668  157.2216 C   0  0  0  0  0  0  0  0  0  0  0  0
  150.9055  144.3900  160.4869 H   0  0  0  0  0  0  0  0  0  0  0  0
  151.5799  145.8466  159.7673 H   0  0  0  0  0  0  0  0  0  0  0  0
  152.2895  145.1842  161.2233 H   0  0  0  0  0  0  0  0  0  0  0  0
  153.6580  144.6995  159.2023 H   0  0  0  0  0  0  0  0  0  0  0  0
  154.1894  142.4227  159.6923 H   0  0  0  0  0  0  0  0  0  0  0  0
  153.7333  143.1910  161.1877 H   0  0  0  0  0  0  0  0  0  0  0  0
  152.7071  140.9293  160.9714 H   0  0  0  0  0  0  0  0  0  0  0  0
  151.4725  142.1569  161.0700 H   0  0  0  0  0  0  0  0  0  0  0  0
  152.4786  140.7809  158.5394 H   0  0  0  0  0  0  0  0  0  0  0  0
  150.9079  140.5707  159.2735 H   0  0  0  0  0  0  0  0  0  0  0  0
  150.2885  142.8944  158.7666 H   0  0  0  0  0  0  0  0  0  0  0  0
  151.4752  141.4259  156.5018 H   0  0  0  0  0  0  0  0  0  0  0  0
  148.1391  140.3068  154.8407 H   0  0  0  0  0  0  0  0  0  0  0  0
  149.2819  141.5940  154.4650 H   0  0  0  0  0  0  0  0  0  0  0  0
  149.0746  137.8054  154.0542 H   0  0  0  0  0  0  0  0  0  0  0  0
  151.6804  136.8943  153.8562 H   0  0  0  0  0  0  0  0  0  0  0  0
  153.0436  143.1516  157.5054 H   0  0  0  0  0  0  0  0  0  0  0  0
  150.7801  145.1922  157.6463 H   0  0  0  0  0  0  0  0  0  0  0  0
  151.4550  144.4542  156.2039 H   0  0  0  0  0  0  0  0  0  0  0  0
  152.4320  145.5619  157.1510 H   0  0  0  0  0  0  0  0  0  0  0  0
  1  2  1  0  0  0  0
  1 19  1  0  0  0  0
  1 20  1  0  0  0  0
  1 21  1  0  0  0  0
  2 17  1  0  0  0  0
  2  3  1  0  0  0  0
  2 22  1  0  0  0  0
  3  4  1  0  0  0  0
  3 23  1  0  0  0  0
  3 24  1  0  0  0  0
  4  5  1  0  0  0  0
  4 25  1  0  0  0  0
  4 26  1  0  0  0  0
  5  6  1  0  0  0  0
  5 27  1  0  0  0  0
  5 28  1  0  0  0  0
  6  7  1  0  0  0  0
  6 17  1  0  0  0  0
  6 29  1  0  0  0  0
  7  8  1  0  0  0  0
  7 30  1  0  0  0  0
  8  9  2  0  0  0  0
  8 10  2  0  0  0  0
  8 11  1  0  0  0  0
 11 12  1  0  0  0  0
 11 31  1  0  0  0  0
 11 32  1  0  0  0  0
 12 16  2  0  0  0  0
 12 13  1  0  0  0  0
 13 14  2  0  0  0  0
 13 33  1  0  0  0  0
 14 15  1  0  0  0  0
 14 34  1  0  0  0  0
 15 16  1  0  0  0  0
 17 18  1  0  0  0  0
 17 35  1  0  0  0  0
 18 36  1  0  0  0  0
 18 37  1  0  0  0  0
 18 38  1  0  0  0  0
M  END
> <s_m_source_file>
AV-unprocessed.smi

> <i_m_source_file_index>
2451

> <i_lp_mmshare_version>
43012

> <i_f3d_flags>
0

> <s_epik_input>
W0NIM11bQ0BASF0xW0NIMl1bQ0gyXVtDSDJdW0NASF0oW0NASF0xW0NIM10pW05IXVMoPU8pKD1PKVtDSDJdYzJbY0hdW2NIXW9uMg==

> <s_epik_cmdline>
J2VwaWtfcHl0aG9uJywgJy1waCcsICc3LjAnLCAnLXRuJywgJzgnLCAnLW1hJywgJzIwMCcsICctbWV0YWxfYmluZGluZycsICctaW1hZScsICc8aW5maWxlLm1hZT4nLCAnLW9tYWUnLCAnPG91dGZpbGUubWFlPic=

> <r_lp_tautomer_probability>
1

> <r_epik_Ionization_Penalty>
8.73668e-05

> <r_epik_Ionization_Penalty_Charging>
0

> <r_epik_Ionization_Penalty_Neutral>
8.73668e-05

> <r_epik_State_Penalty>
-0

> <r_epik_Charging_Adjusted_Penalty>
0

> <i_epik_Tot_Q>
0

> <i_epik_Tot_abs_Q>
0

> <r_epik_Metal_State_Penalty>
0.0716439

> <b_epik_Metal_Only>
0

> <s_lp_Force_Field>
OPLS_2005

> <r_lp_Energy>
8.38809

> <b_lp_Chiralities_Consistent>
1

> <s_lp_Variant>
AV-unprocessed.smi:2451-4

> <Gold.Version>
5.8.1

> <Gold.Id.Protein>
6NUR|6NUR_protein|mol2

> <Gold.PLP.Fitness>
40.1473

> <Gold.PLP.PLP>
-35.3577

> <Gold.PLP.part.hbond>
-1.7040

> <Gold.PLP.part.metal>
0.0000

> <Gold.PLP.part.buried>
-4.0269

> <Gold.PLP.part.nonpolar>
-31.3135

> <Gold.PLP.part.repulsive>
1.0316

> <Gold.PLP.ligand.clash>
0.0000

> <Gold.PLP.ligand.torsion>
0.3349

> <Gold.PLP.Chemscore.Hbond>
0.9000

> <Gold.PLP.Chemscore.CHOScore>
0.8741

> <Gold.PLP.Chemscore.Metal>
0.0000

> <Gold.Chemscore.Hbonds>
donor molecule, donor type, donor heavy atom, donor atom, acceptor molecule, acceptor atom, score
      P1  H  7989  7998       L1    16  0.90
      L1  C    14    34       P1  7949  0.70

> <Gold.PLP.Chemscore.Internal.Correction>
0.1368

> <Gold.Rescore>
     Score         DG    S(hbond)    S(metal)    S(lipo)     H(rot)  DE(clash)    DE(int)     intcor
     12.23     -15.33       0.04        0.00     119.46       1.66       1.59       1.50       ----

> <Gold.Chemscore.Fitness>
12.2341

> <Gold.Chemscore.DG>
-15.3282

> <Gold.Chemscore.ZeroCoef>
-5.4800

> <Gold.Chemscore.Hbond>
0.0355

> <Gold.Chemscore.Metal>
0.0000

> <Gold.Chemscore.Lipo>
119.4555

> <Gold.Chemscore.Internal_Hbond>
0.0000

> <Gold.Chemscore.DEClash>
1.5891

> <Gold.Chemscore.DEInternal>
1.5050

> <Gold.Chemscore.Rot>
1.6588

> <Gold.Chemscore.Internal.Correction>
   9.000000E+99

> <Gold.Chemscore.Hbonds>
donor molecule, donor type, donor heavy atom, donor atom, acceptor molecule, acceptor atom, score
      P1  H  7989  7998       L1    16  0.05

> <Gold.Chemscore.Hbond.Weighted>
-0.1185

> <Gold.Chemscore.Metal.Weighted>
-0.0000

> <Gold.Chemscore.Lipo.Weighted>
-13.9763

> <Gold.Chemscore.Internal_Hbond.Weighted>
0.0000

> <Gold.Chemscore.DEClash.Weighted>
1.5891

> <Gold.Chemscore.DEInternal.Weighted>
1.5050

> <Gold.Chemscore.Rot.Weighted>
4.2466

> <Gold.Chemscore.Internal.Correction.Weighted>
   9.000000E+99

> <Gold.Protein.RotatedTorsions>
[ 6907 6896 6895 6894 ] final  108.76 input  -60.11 | X-H torsion
[ 7974 7965 7964 7962 ] final  -29.49 input  175.53 | X-H torsion
[ 8008 7997 7996 7995 ] final  159.22 input   59.86 | X-H torsion
[ 10167 10162 10161 10158 ] final  -53.22 input  -65.29 | X-H torsion
[ 10718 10713 10712 10709 ] final  102.59 input   66.30 | X-H torsion
[ 10763 10752 10751 10750 ] final   60.19 input  -60.55 | X-H torsion
[ 11005 11000 10999 10996 ] final  -63.09 input  -57.11 | X-H torsion

> <Gold.Protein.ActiveResidues>
 VAL166  LYS551  ARG553  GLY616  TRP617  ASP618  TYR619  PRO620  LYS621  CYS622 
 ASP623  PHE694  ASN695  SER759  ASP760  ASP761  ALA762  ILE779  LEU786  VAL792 
 PHE793  MET794  SER795  GLU796  ALA797  LYS798  CYS799  TRP800  GLU811  SER814 

> <Gold.Protein.RotatedAtoms>
  152.5098  133.9042  159.7455 H   0  0  0  0  0  0  0  0  0  0  0  0  # atno 6907 bound_to 6896
  150.9451  133.6604  159.2790 H   0  0  0  0  0  0  0  0  0  0  0  0  # atno 6908 bound_to 6896
  151.3902  135.0959  159.9576 H   0  0  0  0  0  0  0  0  0  0  0  0  # atno 6909 bound_to 6896
  146.1212  140.5419  142.8734 H   0  0  0  0  0  0  0  0  0  0  0  0  # atno 7974 bound_to 7965
  156.2253  140.1837  156.7378 H   0  0  0  0  0  0  0  0  0  0  0  0  # atno 8008 bound_to 7997
  154.5931  140.0647  156.9294 H   0  0  0  0  0  0  0  0  0  0  0  0  # atno 8009 bound_to 7997
  155.2302  140.3314  155.4307 H   0  0  0  0  0  0  0  0  0  0  0  0  # atno 8010 bound_to 7997
  140.6496  143.2557  151.4761 H   0  0  0  0  0  0  0  0  0  0  0  0  # atno 10167 bound_to 10162
  157.6798  131.0757  150.5427 H   0  0  0  0  0  0  0  0  0  0  0  0  # atno 10718 bound_to 10713
  152.9914  135.5545  154.5834 H   0  0  0  0  0  0  0  0  0  0  0  0  # atno 10763 bound_to 10752
  154.5211  135.2808  155.1264 H   0  0  0  0  0  0  0  0  0  0  0  0  # atno 10764 bound_to 10752
  154.2617  135.6380  153.5330 H   0  0  0  0  0  0  0  0  0  0  0  0  # atno 10765 bound_to 10752
  141.1381  133.6647  156.5627 H   0  0  0  0  0  0  0  0  0  0  0  0  # atno 11005 bound_to 11000
  144.7599  140.5397  143.6743 LP  0  0  0  0  0  0  0  0  0  0  0  0  # atno 17320 bound_to 7965
  145.5461  139.1476  143.3420 LP  0  0  0  0  0  0  0  0  0  0  0  0  # atno 17321 bound_to 7965
  139.5710  144.1929  152.1836 LP  0  0  0  0  0  0  0  0  0  0  0  0  # atno 17342 bound_to 10162
  140.1225  144.5360  150.6853 LP  0  0  0  0  0  0  0  0  0  0  0  0  # atno 17343 bound_to 10162
  156.5733  130.4285  149.6009 LP  0  0  0  0  0  0  0  0  0  0  0  0  # atno 17370 bound_to 10713
  156.2722  130.7023  151.1824 LP  0  0  0  0  0  0  0  0  0  0  0  0  # atno 17371 bound_to 10713
  140.3975  134.7385  157.4760 LP  0  0  0  0  0  0  0  0  0  0  0  0  # atno 17394 bound_to 11000
  140.0520  134.6117  155.8850 LP  0  0  0  0  0  0  0  0  0  0  0  0  # atno 17395 bound_to 11000

$$$$
