AV-unprocessed.smi:1944|AV-procd|sdf|7856|dock4
  -GOLD-   2272010 03D 1   1.00000     0.00000
 Structure written by MMmdl.
 46 47  0  0  0  0  0  0  0  0  2 V2000
  152.7989  139.0250  154.6837 C   0  0  0  0  0  0  0  0  0  0  0  0
  151.4669  139.3875  154.3363 O   0  0  0  0  0  0  0  0  0  0  0  0
  150.7156  140.0970  155.2540 C   0  0  0  0  0  0  0  0  0  0  0  0
  151.3342  140.5735  156.3635 N   0  0  0  0  0  0  0  0  0  0  0  0
  150.6015  141.2608  157.2633 C   0  0  0  0  0  0  0  0  0  0  0  0
  149.2240  141.5021  157.1111 C   0  0  0  0  0  0  0  0  0  0  0  0
  148.5801  141.0098  155.9606 C   0  0  0  0  0  0  0  0  0  0  0  0
  149.3390  140.2993  154.9989 C   0  0  0  0  0  0  0  0  0  0  0  0
  148.7890  139.7430  153.8108 N   0  0  0  0  0  0  0  0  0  0  0  0
  147.5966  139.1495  153.6347 C   0  0  0  0  0  0  0  0  0  0  0  0
  146.7418  138.9898  154.5056 O   0  0  0  0  0  0  0  0  0  0  0  0
  147.4341  138.7541  152.3640 N   0  0  0  0  0  0  0  0  0  0  0  0
  146.2397  138.1004  151.8413 C   0  0  0  0  0  0  0  0  0  0  0  0
  145.7904  136.9331  152.7447 C   0  0  0  0  0  0  0  0  0  0  0  0
  144.8532  135.9996  152.0561 N   0  3  1  0  0  0  0  0  0  0  0  0
  145.5380  135.2612  150.9555 C   0  0  0  0  0  0  0  0  0  0  0  0
  144.5651  134.3927  150.1472 C   0  0  0  0  0  0  0  0  0  0  0  0
  143.8550  133.3971  151.0629 C   0  0  0  0  0  0  0  0  0  0  0  0
  143.1493  134.1618  152.1849 C   0  0  0  0  0  0  0  0  0  0  0  0
  144.1181  135.0696  152.9769 C   0  0  2  0  0  0  0  0  0  0  0  0
  143.3071  135.8048  154.0660 C   0  0  0  0  0  0  0  0  0  0  0  0
  153.2485  138.4714  153.8598 H   0  0  0  0  0  0  0  0  0  0  0  0
  152.8210  138.3819  155.5648 H   0  0  0  0  0  0  0  0  0  0  0  0
  153.4168  139.9052  154.8669 H   0  0  0  0  0  0  0  0  0  0  0  0
  151.1279  141.6236  158.1337 H   0  0  0  0  0  0  0  0  0  0  0  0
  148.6725  142.0484  157.8620 H   0  0  0  0  0  0  0  0  0  0  0  0
  147.5198  141.1742  155.8491 H   0  0  0  0  0  0  0  0  0  0  0  0
  149.3477  139.8735  152.9797 H   0  0  0  0  0  0  0  0  0  0  0  0
  148.1837  138.9302  151.7106 H   0  0  0  0  0  0  0  0  0  0  0  0
  145.4356  138.8302  151.7314 H   0  0  0  0  0  0  0  0  0  0  0  0
  146.4843  137.7545  150.8383 H   0  0  0  0  0  0  0  0  0  0  0  0
  146.6533  136.3800  153.1190 H   0  0  0  0  0  0  0  0  0  0  0  0
  145.3207  137.3778  153.6171 H   0  0  0  0  0  0  0  0  0  0  0  0
  146.0194  135.9539  150.2676 H   0  0  0  0  0  0  0  0  0  0  0  0
  146.3294  134.6376  151.3747 H   0  0  0  0  0  0  0  0  0  0  0  0
  143.8320  135.0254  149.6451 H   0  0  0  0  0  0  0  0  0  0  0  0
  145.1039  133.8591  149.3636 H   0  0  0  0  0  0  0  0  0  0  0  0
  143.1342  132.8078  150.4953 H   0  0  0  0  0  0  0  0  0  0  0  0
  144.5753  132.6945  151.4840 H   0  0  0  0  0  0  0  0  0  0  0  0
  142.3459  134.7647  151.7587 H   0  0  0  0  0  0  0  0  0  0  0  0
  142.6714  133.4479  152.8571 H   0  0  0  0  0  0  0  0  0  0  0  0
  144.8547  134.4337  153.4708 H   0  0  0  0  0  0  0  0  0  0  0  0
  142.6410  135.1158  154.5865 H   0  0  0  0  0  0  0  0  0  0  0  0
  142.6892  136.5950  153.6383 H   0  0  0  0  0  0  0  0  0  0  0  0
  143.9388  136.2428  154.8375 H   0  0  0  0  0  0  0  0  0  0  0  0
  144.1447  136.5765  151.6253 H   0  0  0  0  0  0  0  0  0  0  0  0
  1  2  1  0  0  0  0
  1 22  1  0  0  0  0
  1 23  1  0  0  0  0
  1 24  1  0  0  0  0
  2  3  1  0  0  0  0
  3  8  1  0  0  0  0
  3  4  2  0  0  0  0
  4  5  1  0  0  0  0
  5  6  2  0  0  0  0
  5 25  1  0  0  0  0
  6  7  1  0  0  0  0
  6 26  1  0  0  0  0
  7  8  2  0  0  0  0
  7 27  1  0  0  0  0
  8  9  1  0  0  0  0
  9 10  1  0  0  0  0
  9 28  1  0  0  0  0
 10 11  2  0  0  0  0
 10 12  1  0  0  0  0
 12 13  1  0  0  0  0
 12 29  1  0  0  0  0
 13 14  1  0  0  0  0
 13 30  1  0  0  0  0
 13 31  1  0  0  0  0
 14 15  1  0  0  0  0
 14 32  1  0  0  0  0
 14 33  1  0  0  0  0
 15 20  1  0  0  0  0
 15 16  1  0  0  0  0
 15 46  1  0  0  0  0
 16 17  1  0  0  0  0
 16 34  1  0  0  0  0
 16 35  1  0  0  0  0
 17 18  1  0  0  0  0
 17 36  1  0  0  0  0
 17 37  1  0  0  0  0
 18 19  1  0  0  0  0
 18 38  1  0  0  0  0
 18 39  1  0  0  0  0
 19 20  1  0  0  0  0
 19 40  1  0  0  0  0
 19 41  1  0  0  0  0
 20 21  1  0  0  0  0
 20 42  1  0  0  0  0
 21 43  1  0  0  0  0
 21 44  1  0  0  0  0
 21 45  1  0  0  0  0
M  CHG  1  15   1
M  END
> <s_m_source_file>
AV-unprocessed.smi

> <i_m_source_file_index>
1944

> <i_lp_mmshare_version>
43012

> <i_f3d_flags>
0

> <s_epik_input>
W0NIM11PYzFuW2NIXVtjSF1bY0hdYzFbTkhdQyg9TylbTkhdW0NIMl1bQ0gyXU4yW0NIMl1bQ0gyXVtDSDJdW0NIMl1bQ0BIXTJbQ0gzXQ==

> <s_epik_cmdline>
J2VwaWtfcHl0aG9uJywgJy1waCcsICc3LjAnLCAnLXRuJywgJzgnLCAnLW1hJywgJzIwMCcsICctbWV0YWxfYmluZGluZycsICctaW1hZScsICc8aW5maWxlLm1hZT4nLCAnLW9tYWUnLCAnPG91dGZpbGUubWFlPic=

> <r_lp_tautomer_probability>
1

> <r_epik_Ionization_Penalty>
0.00219525

> <r_epik_Ionization_Penalty_Charging>
0.00211816

> <r_epik_Ionization_Penalty_Neutral>
7.7088e-05

> <r_epik_State_Penalty>
0.00145254

> <r_epik_Charging_Adjusted_Penalty>
0.0035707

> <i_epik_Tot_Q>
1

> <i_epik_Tot_abs_Q>
1

> <r_epik_Metal_State_Penalty>
-0

> <b_epik_Metal_Only>
0

> <s_lp_Force_Field>
OPLS_2005

> <r_lp_Energy>
21.9876

> <b_lp_Chiralities_Consistent>
1

> <s_lp_Variant>
AV-unprocessed.smi:1944-4

> <Gold.Version>
5.8.1

> <Gold.Id.Protein>
6NUR|6NUR_protein|mol2

> <Gold.PLP.Fitness>
41.2390

> <Gold.PLP.PLP>
-35.6426

> <Gold.PLP.part.hbond>
-4.0000

> <Gold.PLP.part.metal>
0.0000

> <Gold.PLP.part.buried>
-3.7734

> <Gold.PLP.part.nonpolar>
-28.8595

> <Gold.PLP.part.repulsive>
0.4133

> <Gold.PLP.ligand.clash>
0.0000

> <Gold.PLP.ligand.torsion>
0.5707

> <Gold.PLP.Chemscore.Hbond>
2.2280

> <Gold.PLP.Chemscore.CHOScore>
0.0000

> <Gold.PLP.Chemscore.Metal>
0.0000

> <Gold.Chemscore.Hbonds>
donor molecule, donor type, donor heavy atom, donor atom, acceptor molecule, acceptor atom, score
      L1  H     9    28       P1  7957  1.00
      L1  H    12    29       P1  7957  0.99
      P1  H  7989  7998       L1     2  0.35

> <Gold.PLP.Chemscore.Internal.Correction>
0.0539

> <Gold.Rescore>
     Score         DG    S(hbond)    S(metal)    S(lipo)     H(rot)  DE(clash)    DE(int)     intcor
     14.05     -16.05       1.93        0.00      72.57       1.71       0.18       1.82       ----

> <Gold.Chemscore.Fitness>
14.0548

> <Gold.Chemscore.DG>
-16.0498

> <Gold.Chemscore.ZeroCoef>
-5.4800

> <Gold.Chemscore.Hbond>
1.9338

> <Gold.Chemscore.Metal>
0.0000

> <Gold.Chemscore.Lipo>
72.5656

> <Gold.Chemscore.Internal_Hbond>
0.0000

> <Gold.Chemscore.DEClash>
0.1772

> <Gold.Chemscore.DEInternal>
1.8178

> <Gold.Chemscore.Rot>
1.7107

> <Gold.Chemscore.Internal.Correction>
   9.000000E+99

> <Gold.Chemscore.Hbonds>
donor molecule, donor type, donor heavy atom, donor atom, acceptor molecule, acceptor atom, score
      L1  H     9    28       P1  7957  0.98
      L1  H    12    29       P1  7957  0.81

> <Gold.Chemscore.Hbond.Weighted>
-6.4590

> <Gold.Chemscore.Metal.Weighted>
-0.0000

> <Gold.Chemscore.Lipo.Weighted>
-8.4902

> <Gold.Chemscore.Internal_Hbond.Weighted>
0.0000

> <Gold.Chemscore.DEClash.Weighted>
0.1772

> <Gold.Chemscore.DEInternal.Weighted>
1.8178

> <Gold.Chemscore.Rot.Weighted>
4.3794

> <Gold.Chemscore.Internal.Correction.Weighted>
   9.000000E+99

> <Gold.Protein.RotatedTorsions>
[ 6907 6896 6895 6894 ] final  131.68 input  -60.11 | X-H torsion
[ 7974 7965 7964 7962 ] final  134.65 input  175.53 | X-H torsion
[ 8008 7997 7996 7995 ] final -107.48 input   59.86 | X-H torsion
[ 10167 10162 10161 10158 ] final  -34.78 input  -65.29 | X-H torsion
[ 10718 10713 10712 10709 ] final -126.99 input   66.30 | X-H torsion
[ 10763 10752 10751 10750 ] final  -12.82 input  -60.55 | X-H torsion
[ 11005 11000 10999 10996 ] final -115.59 input  -57.11 | X-H torsion

> <Gold.Protein.ActiveResidues>
 VAL166  LYS551  ARG553  GLY616  TRP617  ASP618  TYR619  PRO620  LYS621  CYS622 
 ASP623  PHE694  ASN695  SER759  ASP760  ASP761  ALA762  ILE779  LEU786  VAL792 
 PHE793  MET794  SER795  GLU796  ALA797  LYS798  CYS799  TRP800  GLU811  SER814 

> <Gold.Protein.RotatedAtoms>
  152.3402  133.6058  159.5870 H   0  0  0  0  0  0  0  0  0  0  0  0  # atno 6907 bound_to 6896
  150.7474  133.9734  159.3562 H   0  0  0  0  0  0  0  0  0  0  0  0  # atno 6908 bound_to 6896
  151.7599  135.0813  160.0395 H   0  0  0  0  0  0  0  0  0  0  0  0  # atno 6909 bound_to 6896
  144.9742  139.4573  143.5418 H   0  0  0  0  0  0  0  0  0  0  0  0  # atno 7974 bound_to 7965
  154.9300  140.0405  157.2043 H   0  0  0  0  0  0  0  0  0  0  0  0  # atno 8008 bound_to 7997
  154.8170  140.2877  155.5791 H   0  0  0  0  0  0  0  0  0  0  0  0  # atno 8009 bound_to 7997
  156.2976  140.2526  156.3070 H   0  0  0  0  0  0  0  0  0  0  0  0  # atno 8010 bound_to 7997
  140.7179  143.3523  151.2129 H   0  0  0  0  0  0  0  0  0  0  0  0  # atno 10167 bound_to 10162
  156.1816  130.6736  151.0312 H   0  0  0  0  0  0  0  0  0  0  0  0  # atno 10718 bound_to 10713
  153.5041  135.7017  153.5816 H   0  0  0  0  0  0  0  0  0  0  0  0  # atno 10763 bound_to 10752
  153.3935  135.3890  155.1939 H   0  0  0  0  0  0  0  0  0  0  0  0  # atno 10764 bound_to 10752
  154.8708  135.3864  154.4514 H   0  0  0  0  0  0  0  0  0  0  0  0  # atno 10765 bound_to 10752
  141.0477  133.9736  157.2889 H   0  0  0  0  0  0  0  0  0  0  0  0  # atno 11005 bound_to 11000
  146.3390  139.8973  142.8800 LP  0  0  0  0  0  0  0  0  0  0  0  0  # atno 17320 bound_to 7965
  145.2515  141.0045  143.3878 LP  0  0  0  0  0  0  0  0  0  0  0  0  # atno 17321 bound_to 7965
  139.7057  143.9459  152.2925 LP  0  0  0  0  0  0  0  0  0  0  0  0  # atno 17342 bound_to 10162
  139.9167  144.6824  150.8504 LP  0  0  0  0  0  0  0  0  0  0  0  0  # atno 17343 bound_to 10162
  157.6872  131.0821  150.7210 LP  0  0  0  0  0  0  0  0  0  0  0  0  # atno 17370 bound_to 10713
  156.7267  130.4697  149.5509 LP  0  0  0  0  0  0  0  0  0  0  0  0  # atno 17371 bound_to 10713
  139.9325  135.0199  156.8448 LP  0  0  0  0  0  0  0  0  0  0  0  0  # atno 17394 bound_to 11000
  140.6114  134.0079  155.7578 LP  0  0  0  0  0  0  0  0  0  0  0  0  # atno 17395 bound_to 11000

$$$$
