AV-unprocessed.smi:3292|AV-procd|sdf|12625|dock4
  -GOLD-   2272018563D 1   1.00000     0.00000
 Structure written by MMmdl.
 38 39  0  0  0  0  0  0  0  0  1 V2000
  143.9736  135.5348  153.0931 C   0  0  0  0  0  0  0  0  0  0  0  0
  144.7258  136.3997  152.0726 C   0  0  2  0  0  0  0  0  0  0  0  0
  144.8104  135.7011  150.6989 C   0  0  0  0  0  0  0  0  0  0  0  0
  145.1000  134.2827  150.8061 N   0  0  0  0  0  0  0  0  0  0  0  0
  146.3011  133.6983  151.1861 C   0  0  0  0  0  0  0  0  0  0  0  0
  146.1051  132.3363  151.1483 C   0  0  0  0  0  0  0  0  0  0  0  0
  144.8019  132.0613  150.7405 N   0  0  0  0  0  0  0  0  0  0  0  0
  144.2689  133.2618  150.5546 C   0  0  0  0  0  0  0  0  0  0  0  0
  146.0612  136.6937  152.5922 N   0  0  0  0  0  0  0  0  0  0  0  0
  146.3371  137.5241  153.6085 C   0  0  0  0  0  0  0  0  0  0  0  0
  145.4853  138.1429  154.2465 O   0  0  0  0  0  0  0  0  0  0  0  0
  147.6554  137.6122  153.8337 N   0  0  0  0  0  0  0  0  0  0  0  0
  148.2829  138.4650  154.8385 C   0  0  0  0  0  0  0  0  0  0  0  0
  149.6879  138.9209  154.4023 C   0  0  2  0  0  0  0  0  0  0  0  0
  150.7971  137.9835  154.8324 C   0  0  0  0  0  0  0  0  0  0  0  0
  152.0304  138.8695  154.6881 C   0  0  0  0  0  0  0  0  0  0  0  0
  151.5912  140.1939  154.9743 O   0  0  0  0  0  0  0  0  0  0  0  0
  150.1679  140.2396  155.0136 C   0  0  0  0  0  0  0  0  0  0  0  0
  142.9598  135.3210  152.7536 H   0  0  0  0  0  0  0  0  0  0  0  0
  143.8968  136.0405  154.0563 H   0  0  0  0  0  0  0  0  0  0  0  0
  144.4775  134.5814  153.2558 H   0  0  0  0  0  0  0  0  0  0  0  0
  144.1600  137.3264  151.9599 H   0  0  0  0  0  0  0  0  0  0  0  0
  143.8803  135.8319  150.1437 H   0  0  0  0  0  0  0  0  0  0  0  0
  145.5986  136.1544  150.0966 H   0  0  0  0  0  0  0  0  0  0  0  0
  147.1689  134.2838  151.4520 H   0  0  0  0  0  0  0  0  0  0  0  0
  146.7965  131.5395  151.3794 H   0  0  0  0  0  0  0  0  0  0  0  0
  143.2464  133.4016  150.2352 H   0  0  0  0  0  0  0  0  0  0  0  0
  146.8351  136.2365  152.1327 H   0  0  0  0  0  0  0  0  0  0  0  0
  148.2739  137.0631  153.2551 H   0  0  0  0  0  0  0  0  0  0  0  0
  147.6531  139.3261  155.0688 H   0  0  0  0  0  0  0  0  0  0  0  0
  148.3583  137.8897  155.7614 H   0  0  0  0  0  0  0  0  0  0  0  0
  149.7166  139.0106  153.3149 H   0  0  0  0  0  0  0  0  0  0  0  0
  150.6673  137.6918  155.8759 H   0  0  0  0  0  0  0  0  0  0  0  0
  150.8528  137.0773  154.2285 H   0  0  0  0  0  0  0  0  0  0  0  0
  152.8421  138.5657  155.3493 H   0  0  0  0  0  0  0  0  0  0  0  0
  152.4004  138.8412  153.6623 H   0  0  0  0  0  0  0  0  0  0  0  0
  149.7862  141.1082  154.4772 H   0  0  0  0  0  0  0  0  0  0  0  0
  149.8563  140.3219  156.0558 H   0  0  0  0  0  0  0  0  0  0  0  0
  1  2  1  0  0  0  0
  1 19  1  0  0  0  0
  1 20  1  0  0  0  0
  1 21  1  0  0  0  0
  2  3  1  0  0  0  0
  2  9  1  0  0  0  0
  2 22  1  0  0  0  0
  3  4  1  0  0  0  0
  3 23  1  0  0  0  0
  3 24  1  0  0  0  0
  4  8  1  0  0  0  0
  4  5  1  0  0  0  0
  5  6  2  0  0  0  0
  5 25  1  0  0  0  0
  6  7  1  0  0  0  0
  6 26  1  0  0  0  0
  7  8  2  0  0  0  0
  8 27  1  0  0  0  0
  9 10  1  0  0  0  0
  9 28  1  0  0  0  0
 10 11  2  0  0  0  0
 10 12  1  0  0  0  0
 12 13  1  0  0  0  0
 12 29  1  0  0  0  0
 13 14  1  0  0  0  0
 13 30  1  0  0  0  0
 13 31  1  0  0  0  0
 14 18  1  0  0  0  0
 14 15  1  0  0  0  0
 14 32  1  0  0  0  0
 15 16  1  0  0  0  0
 15 33  1  0  0  0  0
 15 34  1  0  0  0  0
 16 17  1  0  0  0  0
 16 35  1  0  0  0  0
 16 36  1  0  0  0  0
 17 18  1  0  0  0  0
 18 37  1  0  0  0  0
 18 38  1  0  0  0  0
M  END
> <s_m_source_file>
AV-unprocessed.smi

> <i_m_source_file_index>
3292

> <i_lp_mmshare_version>
43012

> <i_f3d_flags>
0

> <s_epik_input>
W2NIXTFuW2NIXVtjSF1uMVtDSDJdW0NAQEhdKFtDSDNdKVtOSF1DKD1PKVtOSF1bQ0gyXVtDQEBIXTJbQ0gyXVtDSDJdT1tDSDJdMg==

> <s_epik_cmdline>
J2VwaWtfcHl0aG9uJywgJy1waCcsICc3LjAnLCAnLXRuJywgJzgnLCAnLW1hJywgJzIwMCcsICctbWV0YWxfYmluZGluZycsICctaW1hZScsICc8aW5maWxlLm1hZT4nLCAnLW9tYWUnLCAnPG91dGZpbGUubWFlPic=

> <r_lp_tautomer_probability>
1

> <r_epik_Ionization_Penalty>
0.621291

> <r_epik_Ionization_Penalty_Charging>
0.621234

> <r_epik_Ionization_Penalty_Neutral>
5.72199e-05

> <r_epik_State_Penalty>
0.637278

> <r_epik_Charging_Adjusted_Penalty>
1.25851

> <i_epik_Tot_Q>
0

> <i_epik_Tot_abs_Q>
0

> <r_epik_Metal_State_Penalty>
0.306757

> <b_epik_Metal_Only>
0

> <s_lp_Force_Field>
OPLS_2005

> <r_lp_Energy>
18.0177

> <b_lp_Chiralities_Consistent>
1

> <s_lp_Variant>
AV-unprocessed.smi:3292-5

> <Gold.Version>
5.8.1

> <Gold.Id.Protein>
6NUR|6NUR_protein|mol2

> <Gold.PLP.Fitness>
45.6603

> <Gold.PLP.PLP>
-31.5550

> <Gold.PLP.part.hbond>
-3.0000

> <Gold.PLP.part.metal>
0.0000

> <Gold.PLP.part.buried>
-2.9521

> <Gold.PLP.part.nonpolar>
-25.1214

> <Gold.PLP.part.repulsive>
0.3075

> <Gold.PLP.ligand.clash>
0.0000

> <Gold.PLP.ligand.torsion>
0.9538

> <Gold.PLP.Chemscore.Hbond>
2.4936

> <Gold.PLP.Chemscore.CHOScore>
2.8270

> <Gold.PLP.Chemscore.Metal>
0.0000

> <Gold.Chemscore.Hbonds>
donor molecule, donor type, donor heavy atom, donor atom, acceptor molecule, acceptor atom, score
      L1  H     9    28       P1  7948  0.72
      L1  H    12    29       P1  7948  1.00
      P1  H  7989  7998       L1    17  0.65
      L1  C     5    25       P1  7948  0.79
      L1  C     6    26       P1 10747  0.98
      L1  C     8    27       P1 10186  0.94

> <Gold.PLP.Chemscore.Internal.Correction>
0.0510

> <Gold.Rescore>
     Score         DG    S(hbond)    S(metal)    S(lipo)     H(rot)  DE(clash)    DE(int)     intcor
     12.89     -13.70       1.93        0.00      62.33       2.16       0.10       0.72       ----

> <Gold.Chemscore.Fitness>
12.8863

> <Gold.Chemscore.DG>
-13.7049

> <Gold.Chemscore.ZeroCoef>
-5.4800

> <Gold.Chemscore.Hbond>
1.9329

> <Gold.Chemscore.Metal>
0.0000

> <Gold.Chemscore.Lipo>
62.3293

> <Gold.Chemscore.Internal_Hbond>
0.0000

> <Gold.Chemscore.DEClash>
0.0971

> <Gold.Chemscore.DEInternal>
0.7215

> <Gold.Chemscore.Rot>
2.1577

> <Gold.Chemscore.Internal.Correction>
   9.000000E+99

> <Gold.Chemscore.Hbonds>
donor molecule, donor type, donor heavy atom, donor atom, acceptor molecule, acceptor atom, score
      L1  H     9    28       P1  7948  0.70
      L1  H    12    29       P1  7948  1.00
      P1  H  7989  7998       L1    17  0.02

> <Gold.Chemscore.Hbond.Weighted>
-6.4560

> <Gold.Chemscore.Metal.Weighted>
-0.0000

> <Gold.Chemscore.Lipo.Weighted>
-7.2925

> <Gold.Chemscore.Internal_Hbond.Weighted>
0.0000

> <Gold.Chemscore.DEClash.Weighted>
0.0971

> <Gold.Chemscore.DEInternal.Weighted>
0.7215

> <Gold.Chemscore.Rot.Weighted>
5.5237

> <Gold.Chemscore.Internal.Correction.Weighted>
   9.000000E+99

> <Gold.Protein.RotatedTorsions>
[ 6907 6896 6895 6894 ] final  116.74 input  -60.11 | X-H torsion
[ 7974 7965 7964 7962 ] final -146.61 input  175.53 | X-H torsion
[ 8008 7997 7996 7995 ] final  117.99 input   59.86 | X-H torsion
[ 10167 10162 10161 10158 ] final -118.67 input  -65.29 | X-H torsion
[ 10718 10713 10712 10709 ] final -148.43 input   66.30 | X-H torsion
[ 10763 10752 10751 10750 ] final -175.67 input  -60.55 | X-H torsion
[ 11005 11000 10999 10996 ] final  123.42 input  -57.11 | X-H torsion

> <Gold.Protein.ActiveResidues>
 VAL166  LYS551  ARG553  GLY616  TRP617  ASP618  TYR619  PRO620  LYS621  CYS622 
 ASP623  PHE694  ASN695  SER759  ASP760  ASP761  ALA762  ILE779  LEU786  VAL792 
 PHE793  MET794  SER795  GLU796  ALA797  LYS798  CYS799  TRP800  GLU811  SER814 

> <Gold.Protein.RotatedAtoms>
  152.4658  133.7920  159.6906 H   0  0  0  0  0  0  0  0  0  0  0  0  # atno 6907 bound_to 6896
  150.8622  133.7617  159.2995 H   0  0  0  0  0  0  0  0  0  0  0  0  # atno 6908 bound_to 6896
  151.5179  135.1069  159.9923 H   0  0  0  0  0  0  0  0  0  0  0  0  # atno 6909 bound_to 6896
  144.8148  140.5433  143.5618 H   0  0  0  0  0  0  0  0  0  0  0  0  # atno 7974 bound_to 7965
  156.2523  140.2884  156.0765 H   0  0  0  0  0  0  0  0  0  0  0  0  # atno 8008 bound_to 7997
  155.1613  140.0399  157.2860 H   0  0  0  0  0  0  0  0  0  0  0  0  # atno 8009 bound_to 7997
  154.6390  140.2518  155.7350 H   0  0  0  0  0  0  0  0  0  0  0  0  # atno 8010 bound_to 7997
  140.0550  143.5023  152.2062 H   0  0  0  0  0  0  0  0  0  0  0  0  # atno 10167 bound_to 10162
  156.4201  130.8024  151.2247 H   0  0  0  0  0  0  0  0  0  0  0  0  # atno 10718 bound_to 10713
  154.5815  135.2836  155.0727 H   0  0  0  0  0  0  0  0  0  0  0  0  # atno 10763 bound_to 10752
  154.2062  135.6416  153.5105 H   0  0  0  0  0  0  0  0  0  0  0  0  # atno 10764 bound_to 10752
  153.0090  135.5480  154.6471 H   0  0  0  0  0  0  0  0  0  0  0  0  # atno 10765 bound_to 10752
  139.9312  134.9641  156.8257 H   0  0  0  0  0  0  0  0  0  0  0  0  # atno 11005 bound_to 11000
  145.5240  139.1476  143.3536 LP  0  0  0  0  0  0  0  0  0  0  0  0  # atno 17320 bound_to 7965
  146.2450  140.5381  142.8918 LP  0  0  0  0  0  0  0  0  0  0  0  0  # atno 17321 bound_to 7965
  139.5929  144.7556  151.3356 LP  0  0  0  0  0  0  0  0  0  0  0  0  # atno 17342 bound_to 10162
  140.7199  143.7165  150.7729 LP  0  0  0  0  0  0  0  0  0  0  0  0  # atno 17343 bound_to 10162
  157.7508  131.0231  150.3818 LP  0  0  0  0  0  0  0  0  0  0  0  0  # atno 17370 bound_to 10713
  156.4134  130.3938  149.6875 LP  0  0  0  0  0  0  0  0  0  0  0  0  # atno 17371 bound_to 10713
  140.6198  134.0005  155.7613 LP  0  0  0  0  0  0  0  0  0  0  0  0  # atno 17394 bound_to 11000
  141.0901  133.9930  157.3250 LP  0  0  0  0  0  0  0  0  0  0  0  0  # atno 17395 bound_to 11000

$$$$
