AV-unprocessed.smi:1236|AV-procd|sdf|5182|dock8
  -GOLD-   22720 4263D 1   1.00000     0.00000
 Structure written by MMmdl.
 40 41  0  0  0  0  0  0  0  0  2 V2000
  146.9984  141.5668  153.7183 C   0  0  0  0  0  0  0  0  0  0  0  0
  148.0399  140.8379  154.5782 C   0  0  1  0  0  0  0  0  0  0  0  0
  148.7721  139.7452  153.7643 C   0  0  0  0  0  0  0  0  0  0  0  0
  147.9238  138.5585  153.4859 N   0  3  0  0  0  0  0  0  0  0  0  0
  147.2694  138.0010  154.6941 C   0  0  0  0  0  0  0  0  0  0  0  0
  146.4898  136.7267  154.3313 C   0  0  0  0  0  0  0  0  0  0  0  0
  145.5313  137.0290  153.3244 O   0  0  0  0  0  0  0  0  0  0  0  0
  146.1430  137.4986  152.1289 C   0  0  0  0  0  0  0  0  0  0  0  0
  146.9247  138.7921  152.4176 C   0  0  0  0  0  0  0  0  0  0  0  0
  148.9782  141.8208  155.1227 N   0  0  0  0  0  0  0  0  0  0  0  0
  149.5230  141.7949  156.3489 C   0  0  0  0  0  0  0  0  0  0  0  0
  149.3055  140.9008  157.1669 O   0  0  0  0  0  0  0  0  0  0  0  0
  150.3308  142.8511  156.5475 N   0  0  0  0  0  0  0  0  0  0  0  0
  151.1260  143.1427  157.6878 C   0  0  0  0  0  0  0  0  0  0  0  0
  151.3714  144.5162  157.9124 C   0  0  0  0  0  0  0  0  0  0  0  0
  152.1524  144.9090  159.0169 C   0  0  0  0  0  0  0  0  0  0  0  0
  152.6696  143.9166  159.8684 C   0  0  0  0  0  0  0  0  0  0  0  0
  152.3795  142.5719  159.5728 C   0  0  0  0  0  0  0  0  0  0  0  0
  151.6321  142.1932  158.5143 N   0  0  0  0  0  0  0  0  0  0  0  0
  146.2573  140.8700  153.3254 H   0  0  0  0  0  0  0  0  0  0  0  0
  147.4630  142.0700  152.8697 H   0  0  0  0  0  0  0  0  0  0  0  0
  146.4644  142.3189  154.3002 H   0  0  0  0  0  0  0  0  0  0  0  0
  147.4963  140.3704  155.4003 H   0  0  0  0  0  0  0  0  0  0  0  0
  149.1506  140.1507  152.8247 H   0  0  0  0  0  0  0  0  0  0  0  0
  149.6493  139.4318  154.3326 H   0  0  0  0  0  0  0  0  0  0  0  0
  148.0118  137.7666  155.4562 H   0  0  0  0  0  0  0  0  0  0  0  0
  146.5941  138.7429  155.1235 H   0  0  0  0  0  0  0  0  0  0  0  0
  147.1651  135.9413  153.9871 H   0  0  0  0  0  0  0  0  0  0  0  0
  145.9715  136.3395  155.2087 H   0  0  0  0  0  0  0  0  0  0  0  0
  146.8000  136.7306  151.7173 H   0  0  0  0  0  0  0  0  0  0  0  0
  145.3674  137.6862  151.3861 H   0  0  0  0  0  0  0  0  0  0  0  0
  146.2413  139.5864  152.7214 H   0  0  0  0  0  0  0  0  0  0  0  0
  147.4244  139.1264  151.5074 H   0  0  0  0  0  0  0  0  0  0  0  0
  149.2157  142.5952  154.5199 H   0  0  0  0  0  0  0  0  0  0  0  0
  150.3965  143.5171  155.7919 H   0  0  0  0  0  0  0  0  0  0  0  0
  150.9665  145.2663  157.2486 H   0  0  0  0  0  0  0  0  0  0  0  0
  152.3502  145.9537  159.2062 H   0  0  0  0  0  0  0  0  0  0  0  0
  153.2727  144.1789  160.7253 H   0  0  0  0  0  0  0  0  0  0  0  0
  152.7580  141.7789  160.2007 H   0  0  0  0  0  0  0  0  0  0  0  0
  148.5459  137.8429  153.1371 H   0  0  0  0  0  0  0  0  0  0  0  0
  1  2  1  0  0  0  0
  1 20  1  0  0  0  0
  1 21  1  0  0  0  0
  1 22  1  0  0  0  0
  2  3  1  0  0  0  0
  2 10  1  0  0  0  0
  2 23  1  0  0  0  0
  3  4  1  0  0  0  0
  3 24  1  0  0  0  0
  3 25  1  0  0  0  0
  4  9  1  0  0  0  0
  4  5  1  0  0  0  0
  4 40  1  0  0  0  0
  5  6  1  0  0  0  0
  5 26  1  0  0  0  0
  5 27  1  0  0  0  0
  6  7  1  0  0  0  0
  6 28  1  0  0  0  0
  6 29  1  0  0  0  0
  7  8  1  0  0  0  0
  8  9  1  0  0  0  0
  8 30  1  0  0  0  0
  8 31  1  0  0  0  0
  9 32  1  0  0  0  0
  9 33  1  0  0  0  0
 10 11  1  0  0  0  0
 10 34  1  0  0  0  0
 11 12  2  0  0  0  0
 11 13  1  0  0  0  0
 13 14  1  0  0  0  0
 13 35  1  0  0  0  0
 14 19  1  0  0  0  0
 14 15  2  0  0  0  0
 15 16  1  0  0  0  0
 15 36  1  0  0  0  0
 16 17  2  0  0  0  0
 16 37  1  0  0  0  0
 17 18  1  0  0  0  0
 17 38  1  0  0  0  0
 18 19  2  0  0  0  0
 18 39  1  0  0  0  0
M  CHG  1   4   1
M  END
> <s_m_source_file>
AV-unprocessed.smi

> <i_m_source_file_index>
1236

> <i_lp_mmshare_version>
43012

> <i_f3d_flags>
0

> <s_epik_input>
W0NIMl0xW0NIMl1PW0NIMl1bQ0gyXU4xW0NIMl1bQ0BASF0oW0NIM10pW05IXUMoPU8pW05IXWMyW2NIXVtjSF1bY0hdW2NIXW4y

> <s_epik_cmdline>
J2VwaWtfcHl0aG9uJywgJy1waCcsICc3LjAnLCAnLXRuJywgJzgnLCAnLW1hJywgJzIwMCcsICctbWV0YWxfYmluZGluZycsICctaW1hZScsICc8aW5maWxlLm1hZT4nLCAnLW9tYWUnLCAnPG91dGZpbGUubWFlPic=

> <r_epik_Ionization_Penalty>
0.602564

> <r_epik_Ionization_Penalty_Charging>
0.602531

> <r_epik_Ionization_Penalty_Neutral>
3.36306e-05

> <r_epik_State_Penalty>
0.617039

> <r_epik_Charging_Adjusted_Penalty>
1.21957

> <i_epik_Tot_Q>
1

> <i_epik_Tot_abs_Q>
1

> <r_epik_Metal_State_Penalty>
0.617041

> <b_epik_Metal_Only>
0

> <s_lp_Force_Field>
OPLS_2005

> <r_lp_Energy>
24.274

> <b_lp_Chiralities_Consistent>
1

> <s_lp_Variant>
AV-unprocessed.smi:1236-4

> <Gold.Version>
5.8.1

> <Gold.Id.Protein>
6NUR|6NUR_protein|mol2

> <Gold.PLP.Fitness>
42.7931

> <Gold.PLP.PLP>
-36.7858

> <Gold.PLP.part.hbond>
-4.0000

> <Gold.PLP.part.metal>
0.0000

> <Gold.PLP.part.buried>
1.1399

> <Gold.PLP.part.nonpolar>
-35.0349

> <Gold.PLP.part.repulsive>
0.5152

> <Gold.PLP.ligand.clash>
0.0000

> <Gold.PLP.ligand.torsion>
0.6728

> <Gold.PLP.Chemscore.Hbond>
2.4416

> <Gold.PLP.Chemscore.CHOScore>
0.0000

> <Gold.PLP.Chemscore.Metal>
0.0000

> <Gold.Chemscore.Hbonds>
donor molecule, donor type, donor heavy atom, donor atom, acceptor molecule, acceptor atom, score
      L1  H     4    40       P1  7948  1.76
      L1  H    10    34       P1  8028  0.01
      L1  H    13    35       P1  8028  0.30

> <Gold.PLP.Chemscore.Internal.Correction>
0.0281

> <Gold.Rescore>
     Score         DG    S(hbond)    S(metal)    S(lipo)     H(rot)  DE(clash)    DE(int)     intcor
     12.73     -16.03       1.10        0.00      92.78       1.56       1.81       1.49       ----

> <Gold.Chemscore.Fitness>
12.7293

> <Gold.Chemscore.DG>
-16.0349

> <Gold.Chemscore.ZeroCoef>
-5.4800

> <Gold.Chemscore.Hbond>
1.1044

> <Gold.Chemscore.Metal>
0.0000

> <Gold.Chemscore.Lipo>
92.7839

> <Gold.Chemscore.Internal_Hbond>
0.0000

> <Gold.Chemscore.DEClash>
1.8123

> <Gold.Chemscore.DEInternal>
1.4933

> <Gold.Chemscore.Rot>
1.5584

> <Gold.Chemscore.Internal.Correction>
   9.000000E+99

> <Gold.Chemscore.Hbonds>
donor molecule, donor type, donor heavy atom, donor atom, acceptor molecule, acceptor atom, score
      L1  H     4    40       P1  7948  0.82
      L1  H    10    34       P1  8028  0.02
      L1  H    13    35       P1  8028  0.30

> <Gold.Chemscore.Hbond.Weighted>
-3.6888

> <Gold.Chemscore.Metal.Weighted>
-0.0000

> <Gold.Chemscore.Lipo.Weighted>
-10.8557

> <Gold.Chemscore.Internal_Hbond.Weighted>
0.0000

> <Gold.Chemscore.DEClash.Weighted>
1.8123

> <Gold.Chemscore.DEInternal.Weighted>
1.4933

> <Gold.Chemscore.Rot.Weighted>
3.9896

> <Gold.Chemscore.Internal.Correction.Weighted>
   9.000000E+99

> <Gold.Protein.RotatedTorsions>
[ 6907 6896 6895 6894 ] final -100.53 input  -60.11 | X-H torsion
[ 7974 7965 7964 7962 ] final  114.01 input  175.53 | X-H torsion
[ 8008 7997 7996 7995 ] final   10.46 input   59.86 | X-H torsion
[ 10167 10162 10161 10158 ] final  -19.49 input  -65.29 | X-H torsion
[ 10718 10713 10712 10709 ] final  -13.28 input   66.30 | X-H torsion
[ 10763 10752 10751 10750 ] final  111.60 input  -60.55 | X-H torsion
[ 11005 11000 10999 10996 ] final -102.43 input  -57.11 | X-H torsion

> <Gold.Protein.ActiveResidues>
 VAL166  LYS551  ARG553  GLY616  TRP617  ASP618  TYR619  PRO620  LYS621  CYS622 
 ASP623  PHE694  ASN695  SER759  ASP760  ASP761  ALA762  ILE779  LEU786  VAL792 
 PHE793  MET794  SER795  GLU796  ALA797  LYS798  CYS799  TRP800  GLU811  SER814 

> <Gold.Protein.RotatedAtoms>
  150.7119  134.0873  159.3918 H   0  0  0  0  0  0  0  0  0  0  0  0  # atno 6907 bound_to 6896
  151.8858  135.0434  160.0502 H   0  0  0  0  0  0  0  0  0  0  0  0  # atno 6908 bound_to 6896
  152.2531  133.5197  159.5374 H   0  0  0  0  0  0  0  0  0  0  0  0  # atno 6909 bound_to 6896
  145.2097  139.2912  143.4275 H   0  0  0  0  0  0  0  0  0  0  0  0  # atno 7974 bound_to 7965
  154.7937  140.2840  155.5973 H   0  0  0  0  0  0  0  0  0  0  0  0  # atno 8008 bound_to 7997
  156.2968  140.2600  156.2719 H   0  0  0  0  0  0  0  0  0  0  0  0  # atno 8009 bound_to 7997
  154.9640  140.0377  157.2193 H   0  0  0  0  0  0  0  0  0  0  0  0  # atno 8010 bound_to 7997
  140.7269  143.4814  151.0113 H   0  0  0  0  0  0  0  0  0  0  0  0  # atno 10167 bound_to 10162
  156.6325  130.4905  149.6124 H   0  0  0  0  0  0  0  0  0  0  0  0  # atno 10718 bound_to 10713
  153.4657  135.3712  155.2363 H   0  0  0  0  0  0  0  0  0  0  0  0  # atno 10763 bound_to 10752
  154.8757  135.3919  154.3871 H   0  0  0  0  0  0  0  0  0  0  0  0  # atno 10764 bound_to 10752
  153.4452  135.7085  153.6208 H   0  0  0  0  0  0  0  0  0  0  0  0  # atno 10765 bound_to 10752
  141.1189  133.8558  157.1359 H   0  0  0  0  0  0  0  0  0  0  0  0  # atno 11005 bound_to 11000
  146.3400  140.2369  142.8594 LP  0  0  0  0  0  0  0  0  0  0  0  0  # atno 17320 bound_to 7965
  144.9867  140.8510  143.5364 LP  0  0  0  0  0  0  0  0  0  0  0  0  # atno 17321 bound_to 7965
  139.8512  143.7435  152.3178 LP  0  0  0  0  0  0  0  0  0  0  0  0  # atno 17342 bound_to 10162
  139.7618  144.7504  151.0352 LP  0  0  0  0  0  0  0  0  0  0  0  0  # atno 17343 bound_to 10162
  156.2224  130.6745  151.1381 LP  0  0  0  0  0  0  0  0  0  0  0  0  # atno 17370 bound_to 10713
  157.7196  131.0690  150.6191 LP  0  0  0  0  0  0  0  0  0  0  0  0  # atno 17371 bound_to 10713
  140.0131  134.9979  157.0437 LP  0  0  0  0  0  0  0  0  0  0  0  0  # atno 17394 bound_to 11000
  140.4565  134.1528  155.7187 LP  0  0  0  0  0  0  0  0  0  0  0  0  # atno 17395 bound_to 11000

$$$$
