AV-unprocessed.smi:2855|AV-procd|sdf|10984|dock3
  -GOLD-   2272015433D 1   1.00000     0.00000
 Structure written by MMmdl.
 47 48  0  0  0  0  0  0  0  0  1 V2000
  152.0511  144.5894  160.9155 C   0  0  0  0  0  0  0  0  0  0  0  0
  151.6599  143.3818  160.0520 C   0  0  1  0  0  0  0  0  0  0  0  0
  150.4605  143.7006  159.1464 C   0  0  0  0  0  0  0  0  0  0  0  0
  150.0682  142.4966  158.2760 C   0  0  0  0  0  0  0  0  0  0  0  0
  151.2427  141.9810  157.4053 C   0  0  2  0  0  0  0  0  0  0  0  0
  150.8214  140.7749  156.5079 C   0  0  0  0  0  0  0  0  0  0  0  0
  152.0242  140.0424  155.8823 C   0  0  0  0  0  0  0  0  0  0  0  0
  149.8510  141.1856  155.3839 C   0  0  0  0  0  0  0  0  0  0  0  0
  152.4780  141.6908  158.3057 C   0  0  2  0  0  0  0  0  0  0  0  0
  152.2535  140.4872  159.1021 N   0  0  0  0  0  0  0  0  0  0  0  0
  153.1016  139.4578  159.2559 C   0  0  0  0  0  0  0  0  0  0  0  0
  154.2364  139.4469  158.7807 O   0  0  0  0  0  0  0  0  0  0  0  0
  152.5986  138.2375  160.0458 C   0  0  0  0  0  0  0  0  0  0  0  0
  153.6381  137.5743  160.8521 N   0  0  0  0  0  0  0  0  0  0  0  0
  154.0465  138.1230  162.0596 C   0  0  0  0  0  0  0  0  0  0  0  0
  154.9655  137.5442  162.8683 C   0  0  0  0  0  0  0  0  0  0  0  0
  155.5867  136.2781  162.4939 C   0  0  0  0  0  0  0  0  0  0  0  0
  156.4250  135.6749  163.1598 O   0  0  0  0  0  0  0  0  0  0  0  0
  155.1518  135.7594  161.2714 N   0  0  0  0  0  0  0  0  0  0  0  0
  154.2053  136.3501  160.4335 C   0  0  0  0  0  0  0  0  0  0  0  0
  153.8825  135.7996  159.3818 O   0  0  0  0  0  0  0  0  0  0  0  0
  152.8435  142.8971  159.1971 C   0  0  0  0  0  0  0  0  0  0  0  0
  155.5533  134.8833  160.9706 H   0  0  0  0  0  0  0  0  0  0  0  0
  152.3571  145.4352  160.2991 H   0  0  0  0  0  0  0  0  0  0  0  0
  152.8805  144.3439  161.5793 H   0  0  0  0  0  0  0  0  0  0  0  0
  151.2168  144.9143  161.5378 H   0  0  0  0  0  0  0  0  0  0  0  0
  151.3707  142.5762  160.7286 H   0  0  0  0  0  0  0  0  0  0  0  0
  149.6067  144.0028  159.7539 H   0  0  0  0  0  0  0  0  0  0  0  0
  150.6967  144.5505  158.5045 H   0  0  0  0  0  0  0  0  0  0  0  0
  149.6978  141.6923  158.9129 H   0  0  0  0  0  0  0  0  0  0  0  0
  149.2299  142.8011  157.6517 H   0  0  0  0  0  0  0  0  0  0  0  0
  151.5272  142.7951  156.7367 H   0  0  0  0  0  0  0  0  0  0  0  0
  150.2947  140.0496  157.1293 H   0  0  0  0  0  0  0  0  0  0  0  0
  152.6522  140.7261  155.3107 H   0  0  0  0  0  0  0  0  0  0  0  0
  151.6952  139.2519  155.2073 H   0  0  0  0  0  0  0  0  0  0  0  0
  152.6463  139.5618  156.6368 H   0  0  0  0  0  0  0  0  0  0  0  0
  150.2702  141.9826  154.7690 H   0  0  0  0  0  0  0  0  0  0  0  0
  148.8930  141.5271  155.7736 H   0  0  0  0  0  0  0  0  0  0  0  0
  149.6326  140.3432  154.7268 H   0  0  0  0  0  0  0  0  0  0  0  0
  153.3381  141.5091  157.6602 H   0  0  0  0  0  0  0  0  0  0  0  0
  151.3446  140.4031  159.5335 H   0  0  0  0  0  0  0  0  0  0  0  0
  151.7658  138.5449  160.6813 H   0  0  0  0  0  0  0  0  0  0  0  0
  152.1690  137.5314  159.3338 H   0  0  0  0  0  0  0  0  0  0  0  0
  153.6075  139.0569  162.3809 H   0  0  0  0  0  0  0  0  0  0  0  0
  155.2404  138.0190  163.7988 H   0  0  0  0  0  0  0  0  0  0  0  0
  153.1834  143.7146  158.5596 H   0  0  0  0  0  0  0  0  0  0  0  0
  153.6900  142.6488  159.8385 H   0  0  0  0  0  0  0  0  0  0  0  0
  1  2  1  0  0  0  0
  1 24  1  0  0  0  0
  1 25  1  0  0  0  0
  1 26  1  0  0  0  0
  2 22  1  0  0  0  0
  2  3  1  0  0  0  0
  2 27  1  0  0  0  0
  3  4  1  0  0  0  0
  3 28  1  0  0  0  0
  3 29  1  0  0  0  0
  4  5  1  0  0  0  0
  4 30  1  0  0  0  0
  4 31  1  0  0  0  0
  5  6  1  0  0  0  0
  5  9  1  0  0  0  0
  5 32  1  0  0  0  0
  6  7  1  0  0  0  0
  6  8  1  0  0  0  0
  6 33  1  0  0  0  0
  7 34  1  0  0  0  0
  7 35  1  0  0  0  0
  7 36  1  0  0  0  0
  8 37  1  0  0  0  0
  8 38  1  0  0  0  0
  8 39  1  0  0  0  0
  9 10  1  0  0  0  0
  9 22  1  0  0  0  0
  9 40  1  0  0  0  0
 10 11  1  0  0  0  0
 10 41  1  0  0  0  0
 11 12  2  0  0  0  0
 11 13  1  0  0  0  0
 13 14  1  0  0  0  0
 13 42  1  0  0  0  0
 13 43  1  0  0  0  0
 14 20  1  0  0  0  0
 14 15  1  0  0  0  0
 15 16  2  0  0  0  0
 15 44  1  0  0  0  0
 16 17  1  0  0  0  0
 16 45  1  0  0  0  0
 17 18  2  0  0  0  0
 17 19  1  0  0  0  0
 19 23  1  0  0  0  0
 19 20  1  0  0  0  0
 20 21  2  0  0  0  0
 22 46  1  0  0  0  0
 22 47  1  0  0  0  0
M  END
> <s_m_source_file>
AV-unprocessed.smi

> <i_m_source_file_index>
2855

> <i_lp_mmshare_version>
43012

> <i_f3d_flags>
0

> <s_epik_input>
W0NIM11bQ0BASF0xW0NIMl1bQ0gyXVtDQEBIXShbQ0hdKFtDSDNdKVtDSDNdKVtDQEhdKFtDSDJdMSlbTkhdQyg9TylbQ0gyXW4yW2NIXVtjSF1jKD1PKVtuSF1jMj1P

> <s_epik_cmdline>
J2VwaWtfcHl0aG9uJywgJy1waCcsICc3LjAnLCAnLXRuJywgJzgnLCAnLW1hJywgJzIwMCcsICctbWV0YWxfYmluZGluZycsICctaW1hZScsICc8aW5maWxlLm1hZT4nLCAnLW9tYWUnLCAnPG91dGZpbGUubWFlPic=

> <r_lp_tautomer_probability>
0.999537

> <r_epik_Ionization_Penalty>
0.00306256

> <r_epik_Ionization_Penalty_Charging>
0.00306254

> <r_epik_Ionization_Penalty_Neutral>
2.0223e-08

> <r_epik_State_Penalty>
0.0021533

> <r_epik_Charging_Adjusted_Penalty>
0.00521583

> <i_epik_Tot_Q>
0

> <i_epik_Tot_abs_Q>
0

> <r_epik_Metal_State_Penalty>
0.362116

> <b_epik_Metal_Only>
0

> <s_lp_Force_Field>
OPLS_2005

> <r_lp_Energy>
12.2647

> <b_lp_Chiralities_Consistent>
1

> <s_lp_Variant>
AV-unprocessed.smi:2855-8

> <Gold.Version>
5.8.1

> <Gold.Id.Protein>
6NUR|6NUR_protein|mol2

> <Gold.PLP.Fitness>
39.7204

> <Gold.PLP.PLP>
-35.5513

> <Gold.PLP.part.hbond>
-2.0000

> <Gold.PLP.part.metal>
0.0000

> <Gold.PLP.part.buried>
-5.3414

> <Gold.PLP.part.nonpolar>
-28.8931

> <Gold.PLP.part.repulsive>
0.1825

> <Gold.PLP.ligand.clash>
0.0000

> <Gold.PLP.ligand.torsion>
0.9400

> <Gold.PLP.Chemscore.Hbond>
2.0000

> <Gold.PLP.Chemscore.CHOScore>
0.0000

> <Gold.PLP.Chemscore.Metal>
0.0000

> <Gold.Chemscore.Hbonds>
donor molecule, donor type, donor heavy atom, donor atom, acceptor molecule, acceptor atom, score
      P1  H  6896  6907       L1    21  1.00
      P1  H  7997  8010       L1    12  1.00

> <Gold.PLP.Chemscore.Internal.Correction>
0.0491

> <Gold.Rescore>
     Score         DG    S(hbond)    S(metal)    S(lipo)     H(rot)  DE(clash)    DE(int)     intcor
     18.63     -19.61       1.98        0.00     104.64       1.85       0.18       0.80       ----

> <Gold.Chemscore.Fitness>
18.6324

> <Gold.Chemscore.DG>
-19.6055

> <Gold.Chemscore.ZeroCoef>
-5.4800

> <Gold.Chemscore.Hbond>
1.9845

> <Gold.Chemscore.Metal>
0.0000

> <Gold.Chemscore.Lipo>
104.6430

> <Gold.Chemscore.Internal_Hbond>
0.0000

> <Gold.Chemscore.DEClash>
0.1774

> <Gold.Chemscore.DEInternal>
0.7957

> <Gold.Chemscore.Rot>
1.8539

> <Gold.Chemscore.Internal.Correction>
   9.000000E+99

> <Gold.Chemscore.Hbonds>
donor molecule, donor type, donor heavy atom, donor atom, acceptor molecule, acceptor atom, score
      P1  H  6896  6907       L1    21  0.25
      P1  H  7997  8010       L1    12  1.00

> <Gold.Chemscore.Hbond.Weighted>
-6.6283

> <Gold.Chemscore.Metal.Weighted>
-0.0000

> <Gold.Chemscore.Lipo.Weighted>
-12.2432

> <Gold.Chemscore.Internal_Hbond.Weighted>
0.0000

> <Gold.Chemscore.DEClash.Weighted>
0.1774

> <Gold.Chemscore.DEInternal.Weighted>
0.7957

> <Gold.Chemscore.Rot.Weighted>
4.7460

> <Gold.Chemscore.Internal.Correction.Weighted>
   9.000000E+99

> <Gold.Protein.RotatedTorsions>
[ 6907 6896 6895 6894 ] final   57.30 input  -60.11 | X-H torsion
[ 7974 7965 7964 7962 ] final  -43.94 input  175.53 | X-H torsion
[ 8008 7997 7996 7995 ] final    7.69 input   59.86 | X-H torsion
[ 10167 10162 10161 10158 ] final  -68.43 input  -65.29 | X-H torsion
[ 10718 10713 10712 10709 ] final -102.79 input   66.30 | X-H torsion
[ 10763 10752 10751 10750 ] final -152.53 input  -60.55 | X-H torsion
[ 11005 11000 10999 10996 ] final   -6.43 input  -57.11 | X-H torsion

> <Gold.Protein.ActiveResidues>
 VAL166  LYS551  ARG553  GLY616  TRP617  ASP618  TYR619  PRO620  LYS621  CYS622 
 ASP623  PHE694  ASN695  SER759  ASP760  ASP761  ALA762  ILE779  LEU786  VAL792 
 PHE793  MET794  SER795  GLU796  ALA797  LYS798  CYS799  TRP800  GLU811  SER814 

> <Gold.Protein.RotatedAtoms>
  152.3718  134.6722  160.0173 H   0  0  0  0  0  0  0  0  0  0  0  0  # atno 6907 bound_to 6896
  151.7013  133.3306  159.3275 H   0  0  0  0  0  0  0  0  0  0  0  0  # atno 6908 bound_to 6896
  150.7679  134.6548  159.6352 H   0  0  0  0  0  0  0  0  0  0  0  0  # atno 6909 bound_to 6896
  145.9969  140.7118  142.9289 H   0  0  0  0  0  0  0  0  0  0  0  0  # atno 7974 bound_to 7965
  154.7571  140.2778  155.6244 H   0  0  0  0  0  0  0  0  0  0  0  0  # atno 8008 bound_to 7997
  156.2908  140.2667  156.2267 H   0  0  0  0  0  0  0  0  0  0  0  0  # atno 8009 bound_to 7997
  155.0063  140.0372  157.2371 H   0  0  0  0  0  0  0  0  0  0  0  0  # atno 8010 bound_to 7997
  140.5508  143.2312  151.6915 H   0  0  0  0  0  0  0  0  0  0  0  0  # atno 10167 bound_to 10162
  156.0241  130.5437  150.7160 H   0  0  0  0  0  0  0  0  0  0  0  0  # atno 10718 bound_to 10713
  154.7988  135.3234  154.7602 H   0  0  0  0  0  0  0  0  0  0  0  0  # atno 10763 bound_to 10752
  153.8274  135.6882  153.4823 H   0  0  0  0  0  0  0  0  0  0  0  0  # atno 10764 bound_to 10752
  153.1693  135.4629  154.9823 H   0  0  0  0  0  0  0  0  0  0  0  0  # atno 10765 bound_to 10752
  140.7019  133.8982  155.8689 H   0  0  0  0  0  0  0  0  0  0  0  0  # atno 11005 bound_to 11000
  144.6906  140.3166  143.7239 LP  0  0  0  0  0  0  0  0  0  0  0  0  # atno 17320 bound_to 7965
  145.7546  139.1805  143.2302 LP  0  0  0  0  0  0  0  0  0  0  0  0  # atno 17321 bound_to 7965
  139.5026  144.3821  152.0365 LP  0  0  0  0  0  0  0  0  0  0  0  0  # atno 17342 bound_to 10162
  140.2938  144.3724  150.6080 LP  0  0  0  0  0  0  0  0  0  0  0  0  # atno 17343 bound_to 10162
  157.4787  131.0900  151.0561 LP  0  0  0  0  0  0  0  0  0  0  0  0  # atno 17370 bound_to 10713
  157.1001  130.5978  149.5458 LP  0  0  0  0  0  0  0  0  0  0  0  0  # atno 17371 bound_to 10713
  141.0156  134.0960  157.4175 LP  0  0  0  0  0  0  0  0  0  0  0  0  # atno 17394 bound_to 11000
  139.8894  135.0105  156.6679 LP  0  0  0  0  0  0  0  0  0  0  0  0  # atno 17395 bound_to 11000

$$$$
