AV-unprocessed.smi:213|AV-procd|sdf|1643|dock1
  -GOLD-   2262020 13D 1   1.00000     0.00000
 Structure written by MMmdl.
 58 61  0  0  0  0  0  0  0  0  1 V2000
  153.8267  135.1519  163.1249 C   0  0  0  0  0  0  0  0  0  0  0  0
  154.6805  134.5624  161.9875 C   0  0  2  0  0  0  0  0  0  0  0  0
  155.5602  133.3844  162.4646 C   0  0  0  0  0  0  0  0  0  0  0  0
  154.9109  132.0724  162.4723 N   0  0  0  0  0  0  0  0  0  0  0  0
  154.6145  131.6300  161.1138 C   0  0  0  0  0  0  0  0  0  0  0  0
  153.9356  130.2498  161.0921 C   0  0  0  0  0  0  0  0  0  0  0  0
  152.7476  130.2928  161.8755 O   0  0  0  0  0  0  0  0  0  0  0  0
  152.9944  130.6766  163.2240 C   0  0  0  0  0  0  0  0  0  0  0  0
  153.6765  132.0555  163.2558 C   0  0  0  0  0  0  0  0  0  0  0  0
  155.4965  135.6011  161.3517 N   0  0  0  0  0  0  0  0  0  0  0  0
  156.9565  135.5341  161.3845 C   0  0  0  0  0  0  0  0  0  0  0  0
  154.9202  136.6756  160.7467 C   0  0  0  0  0  0  0  0  0  0  0  0
  154.0645  136.4411  159.7158 N   0  0  0  0  0  0  0  0  0  0  0  0
  153.4628  137.4527  159.0844 C   0  0  0  0  0  0  0  0  0  0  0  0
  153.5740  138.7614  159.3127 N   0  0  0  0  0  0  0  0  0  0  0  0
  154.4400  139.0105  160.3351 C   0  0  0  0  0  0  0  0  0  0  0  0
  155.1508  138.0403  161.1003 C   0  0  0  0  0  0  0  0  0  0  0  0
  155.9488  138.6881  162.0388 N   0  0  0  0  0  0  0  0  0  0  0  0
  155.7136  139.9569  161.8493 C   0  0  0  0  0  0  0  0  0  0  0  0
  154.8241  140.2398  160.8395 N   0  0  0  0  0  0  0  0  0  0  0  0
  154.3929  141.5550  160.4021 C   0  0  0  0  0  0  0  0  0  0  0  0
  152.9078  141.8405  160.7122 C   0  0  1  0  0  0  0  0  0  0  0  0
  152.8332  142.2542  162.0618 O   0  0  0  0  0  0  0  0  0  0  0  0
  152.2654  142.9225  159.8159 C   0  0  2  0  0  0  0  0  0  0  0  0
  153.2640  143.7511  159.0063 C   0  0  0  0  0  0  0  0  0  0  0  0
  152.4933  145.0222  158.6930 C   0  0  0  0  0  0  0  0  0  0  0  0
  151.3863  145.0500  159.7499 C   0  0  0  0  0  0  0  0  0  0  0  0
  151.6445  143.9358  160.5931 O   0  0  0  0  0  0  0  0  0  0  0  0
  153.1430  134.4055  163.5296 H   0  0  0  0  0  0  0  0  0  0  0  0
  153.2226  135.9878  162.7718 H   0  0  0  0  0  0  0  0  0  0  0  0
  154.4429  135.5130  163.9484 H   0  0  0  0  0  0  0  0  0  0  0  0
  154.0086  134.1606  161.2342 H   0  0  0  0  0  0  0  0  0  0  0  0
  156.4578  133.3348  161.8461 H   0  0  0  0  0  0  0  0  0  0  0  0
  155.9091  133.6063  163.4739 H   0  0  0  0  0  0  0  0  0  0  0  0
  153.9668  132.3569  160.6209 H   0  0  0  0  0  0  0  0  0  0  0  0
  155.5342  131.5861  160.5295 H   0  0  0  0  0  0  0  0  0  0  0  0
  153.6795  129.9684  160.0706 H   0  0  0  0  0  0  0  0  0  0  0  0
  154.6079  129.4819  161.4781 H   0  0  0  0  0  0  0  0  0  0  0  0
  152.0483  130.7090  163.7644 H   0  0  0  0  0  0  0  0  0  0  0  0
  153.6177  129.9270  163.7142 H   0  0  0  0  0  0  0  0  0  0  0  0
  153.8798  132.3125  164.2943 H   0  0  0  0  0  0  0  0  0  0  0  0
  152.9859  132.8093  162.8750 H   0  0  0  0  0  0  0  0  0  0  0  0
  157.3844  136.5091  161.6203 H   0  0  0  0  0  0  0  0  0  0  0  0
  157.3440  135.2111  160.4180 H   0  0  0  0  0  0  0  0  0  0  0  0
  157.3075  134.8304  162.1385 H   0  0  0  0  0  0  0  0  0  0  0  0
  152.7980  137.1731  158.2806 H   0  0  0  0  0  0  0  0  0  0  0  0
  156.1962  140.7251  162.4359 H   0  0  0  0  0  0  0  0  0  0  0  0
  155.0293  142.2970  160.8861 H   0  0  0  0  0  0  0  0  0  0  0  0
  154.5775  141.6379  159.3300 H   0  0  0  0  0  0  0  0  0  0  0  0
  152.3349  140.9167  160.6234 H   0  0  0  0  0  0  0  0  0  0  0  0
  153.3191  141.6407  162.5913 H   0  0  0  0  0  0  0  0  0  0  0  0
  151.5247  142.4773  159.1485 H   0  0  0  0  0  0  0  0  0  0  0  0
  154.1338  143.9926  159.6192 H   0  0  0  0  0  0  0  0  0  0  0  0
  153.6149  143.2382  158.1104 H   0  0  0  0  0  0  0  0  0  0  0  0
  153.1362  145.9012  158.7453 H   0  0  0  0  0  0  0  0  0  0  0  0
  152.0597  144.9800  157.6933 H   0  0  0  0  0  0  0  0  0  0  0  0
  151.3824  145.9750  160.3268 H   0  0  0  0  0  0  0  0  0  0  0  0
  150.4064  144.9335  159.2853 H   0  0  0  0  0  0  0  0  0  0  0  0
  1  2  1  0  0  0  0
  1 29  1  0  0  0  0
  1 30  1  0  0  0  0
  1 31  1  0  0  0  0
  2  3  1  0  0  0  0
  2 10  1  0  0  0  0
  2 32  1  0  0  0  0
  3  4  1  0  0  0  0
  3 33  1  0  0  0  0
  3 34  1  0  0  0  0
  4  9  1  0  0  0  0
  4  5  1  0  0  0  0
  5  6  1  0  0  0  0
  5 35  1  0  0  0  0
  5 36  1  0  0  0  0
  6  7  1  0  0  0  0
  6 37  1  0  0  0  0
  6 38  1  0  0  0  0
  7  8  1  0  0  0  0
  8  9  1  0  0  0  0
  8 39  1  0  0  0  0
  8 40  1  0  0  0  0
  9 41  1  0  0  0  0
  9 42  1  0  0  0  0
 10 11  1  0  0  0  0
 10 12  1  0  0  0  0
 11 43  1  0  0  0  0
 11 44  1  0  0  0  0
 11 45  1  0  0  0  0
 12 17  1  0  0  0  0
 12 13  2  0  0  0  0
 13 14  1  0  0  0  0
 14 15  2  0  0  0  0
 14 46  1  0  0  0  0
 15 16  1  0  0  0  0
 16 20  1  0  0  0  0
 16 17  2  0  0  0  0
 17 18  1  0  0  0  0
 18 19  2  0  0  0  0
 19 20  1  0  0  0  0
 19 47  1  0  0  0  0
 20 21  1  0  0  0  0
 21 22  1  0  0  0  0
 21 48  1  0  0  0  0
 21 49  1  0  0  0  0
 22 23  1  0  0  0  0
 22 24  1  0  0  0  0
 22 50  1  0  0  0  0
 23 51  1  0  0  0  0
 24 28  1  0  0  0  0
 24 25  1  0  0  0  0
 24 52  1  0  0  0  0
 25 26  1  0  0  0  0
 25 53  1  0  0  0  0
 25 54  1  0  0  0  0
 26 27  1  0  0  0  0
 26 55  1  0  0  0  0
 26 56  1  0  0  0  0
 27 28  1  0  0  0  0
 27 57  1  0  0  0  0
 27 58  1  0  0  0  0
M  END
> <s_m_source_file>
AV-unprocessed.smi

> <i_m_source_file_index>
213

> <i_lp_mmshare_version>
43012

> <i_f3d_flags>
0

> <s_epik_input>
W0NIMl0xW0NIMl1PW0NIMl1bQ0gyXU4xW0NIMl1bQ0BASF0oW0NIM10pTihbQ0gzXSljKG5bY0hdbjIpYyhjMjMpbltjSF1uM1tDSDJdW0NASF0oW09IXSlbQ0BASF00W0NIMl1bQ0gyXVtDSDJdTzQ=

> <s_epik_cmdline>
J2VwaWtfcHl0aG9uJywgJy1waCcsICc3LjAnLCAnLXRuJywgJzgnLCAnLW1hJywgJzIwMCcsICctbWV0YWxfYmluZGluZycsICctaW1hZScsICc8aW5maWxlLm1hZT4nLCAnLW9tYWUnLCAnPG91dGZpbGUubWFlPic=

> <r_lp_tautomer_probability>
1

> <r_epik_Ionization_Penalty>
0.423322

> <r_epik_Ionization_Penalty_Charging>
0

> <r_epik_Ionization_Penalty_Neutral>
0.423322

> <r_epik_State_Penalty>
0.569486

> <r_epik_Charging_Adjusted_Penalty>
0.569486

> <i_epik_Tot_Q>
0

> <i_epik_Tot_abs_Q>
0

> <r_epik_Metal_State_Penalty>
0.568671

> <b_epik_Metal_Only>
0

> <s_lp_Force_Field>
OPLS_2005

> <r_lp_Energy>
51.7694

> <b_lp_Chiralities_Consistent>
1

> <s_lp_Variant>
AV-unprocessed.smi:213-11

> <Gold.Version>
5.8.1

> <Gold.Id.Protein>
6NUR|6NUR_protein|mol2

> <Gold.PLP.Fitness>
49.1610

> <Gold.PLP.PLP>
-51.5875

> <Gold.PLP.part.hbond>
-1.0000

> <Gold.PLP.part.metal>
0.0000

> <Gold.PLP.part.buried>
-6.1275

> <Gold.PLP.part.nonpolar>
-45.5045

> <Gold.PLP.part.repulsive>
0.1749

> <Gold.PLP.ligand.clash>
0.0000

> <Gold.PLP.ligand.torsion>
3.1544

> <Gold.PLP.Chemscore.Hbond>
0.9913

> <Gold.PLP.Chemscore.CHOScore>
0.0000

> <Gold.PLP.Chemscore.Metal>
0.0000

> <Gold.Chemscore.Hbonds>
donor molecule, donor type, donor heavy atom, donor atom, acceptor molecule, acceptor atom, score
      P1  H  6896  6909       L1    13  0.10

> <Gold.PLP.Chemscore.Internal.Correction>
0.9086

> <Gold.Rescore>
     Score         DG    S(hbond)    S(metal)    S(lipo)     H(rot)  DE(clash)    DE(int)     intcor
     11.82     -14.68       0.66        0.00     119.66       2.74       0.00       2.86       ----

> <Gold.Chemscore.Fitness>
11.8245

> <Gold.Chemscore.DG>
-14.6825

> <Gold.Chemscore.ZeroCoef>
-5.4800

> <Gold.Chemscore.Hbond>
0.6620

> <Gold.Chemscore.Metal>
0.0000

> <Gold.Chemscore.Lipo>
119.6601

> <Gold.Chemscore.Internal_Hbond>
0.0000

> <Gold.Chemscore.DEClash>
0.0000

> <Gold.Chemscore.DEInternal>
2.8580

> <Gold.Chemscore.Rot>
2.7378

> <Gold.Chemscore.Internal.Correction>
   9.000000E+99

> <Gold.Chemscore.Hbonds>
donor molecule, donor type, donor heavy atom, donor atom, acceptor molecule, acceptor atom, score
      P1  H  6896  6909       L1    13  0.07

> <Gold.Chemscore.Hbond.Weighted>
-2.2109

> <Gold.Chemscore.Metal.Weighted>
-0.0000

> <Gold.Chemscore.Lipo.Weighted>
-14.0002

> <Gold.Chemscore.Internal_Hbond.Weighted>
0.0000

> <Gold.Chemscore.DEClash.Weighted>
0.0000

> <Gold.Chemscore.DEInternal.Weighted>
2.8580

> <Gold.Chemscore.Rot.Weighted>
7.0087

> <Gold.Chemscore.Internal.Correction.Weighted>
   9.000000E+99

> <Gold.Protein.RotatedTorsions>
[ 6907 6896 6895 6894 ] final  172.88 input  -60.11 | X-H torsion
[ 7974 7965 7964 7962 ] final  140.73 input  175.53 | X-H torsion
[ 8008 7997 7996 7995 ] final   95.69 input   59.86 | X-H torsion
[ 10167 10162 10161 10158 ] final  -69.31 input  -65.29 | X-H torsion
[ 10718 10713 10712 10709 ] final -160.90 input   66.30 | X-H torsion
[ 10763 10752 10751 10750 ] final  148.90 input  -60.55 | X-H torsion
[ 11005 11000 10999 10996 ] final  -30.56 input  -57.11 | X-H torsion

> <Gold.Protein.ActiveResidues>
 VAL166  LYS551  ARG553  GLY616  TRP617  ASP618  TYR619  PRO620  LYS621  CYS622 
 ASP623  PHE694  ASN695  SER759  ASP760  ASP761  ALA762  ILE779  LEU786  VAL792 
 PHE793  MET794  SER795  GLU796  ALA797  LYS798  CYS799  TRP800  GLU811  SER814 

> <Gold.Protein.RotatedAtoms>
  151.7773  133.3346  159.3461 H   0  0  0  0  0  0  0  0  0  0  0  0  # atno 6907 bound_to 6896
  150.7439  134.5964  159.6023 H   0  0  0  0  0  0  0  0  0  0  0  0  # atno 6908 bound_to 6896
  152.3300  134.7272  160.0343 H   0  0  0  0  0  0  0  0  0  0  0  0  # atno 6909 bound_to 6896
  144.9160  139.5229  143.5686 H   0  0  0  0  0  0  0  0  0  0  0  0  # atno 7974 bound_to 7965
  156.0716  140.3283  155.7583 H   0  0  0  0  0  0  0  0  0  0  0  0  # atno 8008 bound_to 7997
  155.5296  140.0592  157.2909 H   0  0  0  0  0  0  0  0  0  0  0  0  # atno 8009 bound_to 7997
  154.4533  140.1930  156.0470 H   0  0  0  0  0  0  0  0  0  0  0  0  # atno 8010 bound_to 7997
  140.5440  143.2314  151.7036 H   0  0  0  0  0  0  0  0  0  0  0  0  # atno 10167 bound_to 10162
  156.5886  130.8760  151.2884 H   0  0  0  0  0  0  0  0  0  0  0  0  # atno 10718 bound_to 10713
  154.0624  135.2873  155.3322 H   0  0  0  0  0  0  0  0  0  0  0  0  # atno 10763 bound_to 10752
  154.6800  135.5267  153.8253 H   0  0  0  0  0  0  0  0  0  0  0  0  # atno 10764 bound_to 10752
  153.0517  135.6579  154.0811 H   0  0  0  0  0  0  0  0  0  0  0  0  # atno 10765 bound_to 10752
  140.9393  133.7289  156.1052 H   0  0  0  0  0  0  0  0  0  0  0  0  # atno 11005 bound_to 11000
  146.3182  139.8004  142.8966 LP  0  0  0  0  0  0  0  0  0  0  0  0  # atno 17320 bound_to 7965
  145.3374  141.0280  143.3412 LP  0  0  0  0  0  0  0  0  0  0  0  0  # atno 17321 bound_to 7965
  139.5000  144.3924  152.0266 LP  0  0  0  0  0  0  0  0  0  0  0  0  # atno 17342 bound_to 10162
  140.3035  144.3619  150.6053 LP  0  0  0  0  0  0  0  0  0  0  0  0  # atno 17343 bound_to 10162
  157.7309  130.9692  150.1855 LP  0  0  0  0  0  0  0  0  0  0  0  0  # atno 17370 bound_to 10713
  156.2569  130.3706  149.8172 LP  0  0  0  0  0  0  0  0  0  0  0  0  # atno 17371 bound_to 10713
  140.7756  134.3783  157.5498 LP  0  0  0  0  0  0  0  0  0  0  0  0  # atno 17394 bound_to 11000
  139.8816  134.9049  156.2888 LP  0  0  0  0  0  0  0  0  0  0  0  0  # atno 17395 bound_to 11000

$$$$
