AV-unprocessed.smi:86|AV-procd|sdf|813|dock4
  -GOLD-   2262017213D 1   1.00000     0.00000
 Structure written by MMmdl.
 51 55  0  0  0  0  0  0  0  0  1 V2000
  145.5502  137.9345  160.8953 O   0  0  0  0  0  0  0  0  0  0  0  0
  145.5109  136.5573  160.5811 C   0  0  0  0  0  0  0  0  0  0  0  0
  146.8752  135.8882  160.8226 C   0  0  0  0  0  0  0  0  0  0  0  0
  146.9074  134.4837  160.1863 C   0  0  0  0  0  0  0  0  0  0  0  0
  146.8914  134.4978  158.7311 N   0  0  0  0  0  0  0  0  0  0  0  0
  147.9791  134.4050  157.8942 C   0  0  0  0  0  0  0  0  0  0  0  0
  147.7037  134.4432  156.6200 N   0  0  0  0  0  0  0  0  0  0  0  0
  146.3209  134.5838  156.5661 C   0  0  0  0  0  0  0  0  0  0  0  0
  145.3628  134.6896  155.5130 C   0  0  0  0  0  0  0  0  0  0  0  0
  145.6622  134.6754  154.1879 N   0  0  0  0  0  0  0  0  0  0  0  0
  146.2174  133.5163  153.5069 C   0  0  0  0  0  0  0  0  0  0  0  0
  146.3093  133.9483  152.0420 C   0  0  1  0  0  0  0  0  0  0  0  0
  146.4010  132.8141  151.0022 C   0  0  0  0  0  0  0  0  0  0  0  0
  145.0625  132.0950  150.7783 C   0  0  0  0  0  0  0  0  0  0  0  0
  143.9513  133.1029  150.4474 C   0  0  1  0  0  0  0  0  0  0  0  0
  142.7346  132.4119  150.2573 O   0  0  0  0  0  0  0  0  0  0  0  0
  143.7890  134.1166  151.5896 C   0  0  0  0  0  0  0  0  0  0  0  0
  145.0992  134.8830  151.8757 C   0  0  1  0  0  0  0  0  0  0  0  0
  145.0406  135.5935  153.2368 C   0  0  0  0  0  0  0  0  0  0  0  0
  144.0594  134.8279  155.8734 N   0  0  0  0  0  0  0  0  0  0  0  0
  143.7078  134.8555  157.1614 C   0  0  0  0  0  0  0  0  0  0  0  0
  144.4868  134.7636  158.2392 N   0  0  0  0  0  0  0  0  0  0  0  0
  145.7979  134.6271  157.8916 C   0  0  0  0  0  0  0  0  0  0  0  0
  148.0926  136.7805  160.5440 C   0  0  0  0  0  0  0  0  0  0  0  0
  148.2893  137.0515  161.9480 O   0  0  0  0  0  0  0  0  0  0  0  0
  147.3778  135.9804  162.2705 C   0  0  0  0  0  0  0  0  0  0  0  0
  144.6799  138.2135  161.1356 H   0  0  0  0  0  0  0  0  0  0  0  0
  144.7427  136.0973  161.2036 H   0  0  0  0  0  0  0  0  0  0  0  0
  145.1769  136.4349  159.5509 H   0  0  0  0  0  0  0  0  0  0  0  0
  147.7832  133.9263  160.5199 H   0  0  0  0  0  0  0  0  0  0  0  0
  146.0493  133.8975  160.5174 H   0  0  0  0  0  0  0  0  0  0  0  0
  148.9915  134.3073  158.2571 H   0  0  0  0  0  0  0  0  0  0  0  0
  147.1980  133.2491  153.9012 H   0  0  0  0  0  0  0  0  0  0  0  0
  145.5470  132.6652  153.6300 H   0  0  0  0  0  0  0  0  0  0  0  0
  147.2117  134.5551  151.9490 H   0  0  0  0  0  0  0  0  0  0  0  0
  146.7279  133.2390  150.0522 H   0  0  0  0  0  0  0  0  0  0  0  0
  147.1700  132.0984  151.2940 H   0  0  0  0  0  0  0  0  0  0  0  0
  145.1672  131.3720  149.9685 H   0  0  0  0  0  0  0  0  0  0  0  0
  144.7962  131.5241  151.6687 H   0  0  0  0  0  0  0  0  0  0  0  0
  144.1916  133.6261  149.5211 H   0  0  0  0  0  0  0  0  0  0  0  0
  142.0438  133.0464  150.1412 H   0  0  0  0  0  0  0  0  0  0  0  0
  142.9956  134.8265  151.3525 H   0  0  0  0  0  0  0  0  0  0  0  0
  143.4659  133.5896  152.4890 H   0  0  0  0  0  0  0  0  0  0  0  0
  145.2745  135.5962  151.0693 H   0  0  0  0  0  0  0  0  0  0  0  0
  144.0158  135.8502  153.5091 H   0  0  0  0  0  0  0  0  0  0  0  0
  145.6242  136.5143  153.2139 H   0  0  0  0  0  0  0  0  0  0  0  0
  142.6515  134.9679  157.3561 H   0  0  0  0  0  0  0  0  0  0  0  0
  148.9422  136.2501  160.1108 H   0  0  0  0  0  0  0  0  0  0  0  0
  147.8651  137.6808  159.9720 H   0  0  0  0  0  0  0  0  0  0  0  0
  146.6140  136.2796  162.9890 H   0  0  0  0  0  0  0  0  0  0  0  0
  147.9117  135.0943  162.6160 H   0  0  0  0  0  0  0  0  0  0  0  0
  1  2  1  0  0  0  0
  1 27  1  0  0  0  0
  2  3  1  0  0  0  0
  2 28  1  0  0  0  0
  2 29  1  0  0  0  0
  3 26  1  0  0  0  0
  3  4  1  0  0  0  0
  3 24  1  0  0  0  0
  4  5  1  0  0  0  0
  4 30  1  0  0  0  0
  4 31  1  0  0  0  0
  5 23  1  0  0  0  0
  5  6  1  0  0  0  0
  6  7  2  0  0  0  0
  6 32  1  0  0  0  0
  7  8  1  0  0  0  0
  8 23  2  0  0  0  0
  8  9  1  0  0  0  0
  9 10  1  0  0  0  0
  9 20  2  0  0  0  0
 10 19  1  0  0  0  0
 10 11  1  0  0  0  0
 11 12  1  0  0  0  0
 11 33  1  0  0  0  0
 11 34  1  0  0  0  0
 12 18  1  0  0  0  0
 12 13  1  0  0  0  0
 12 35  1  0  0  0  0
 13 14  1  0  0  0  0
 13 36  1  0  0  0  0
 13 37  1  0  0  0  0
 14 15  1  0  0  0  0
 14 38  1  0  0  0  0
 14 39  1  0  0  0  0
 15 16  1  0  0  0  0
 15 17  1  0  0  0  0
 15 40  1  0  0  0  0
 16 41  1  0  0  0  0
 17 18  1  0  0  0  0
 17 42  1  0  0  0  0
 17 43  1  0  0  0  0
 18 19  1  0  0  0  0
 18 44  1  0  0  0  0
 19 45  1  0  0  0  0
 19 46  1  0  0  0  0
 20 21  1  0  0  0  0
 21 22  2  0  0  0  0
 21 47  1  0  0  0  0
 22 23  1  0  0  0  0
 24 25  1  0  0  0  0
 24 48  1  0  0  0  0
 24 49  1  0  0  0  0
 25 26  1  0  0  0  0
 26 50  1  0  0  0  0
 26 51  1  0  0  0  0
M  END
> <s_m_source_file>
AV-unprocessed.smi

> <i_m_source_file_index>
86

> <i_lp_mmshare_version>
43012

> <i_f3d_flags>
0

> <s_epik_input>
W0NIMl0xT1tDSDJdQzEoW0NIMl1bT0hdKVtDSDJdbihbY0hdbjIpYyhjMjMpbltjSF1uYzNOKFtDSDJdNClbQ0gyXVtDQEBIXShbQ0BIXTQ1KVtDSDJdW0NASF0oW09IXSlbQ0gyXVtDSDJdNQ==

> <s_epik_cmdline>
J2VwaWtfcHl0aG9uJywgJy1waCcsICc3LjAnLCAnLXRuJywgJzgnLCAnLW1hJywgJzIwMCcsICctbWV0YWxfYmluZGluZycsICctaW1hZScsICc8aW5maWxlLm1hZT4nLCAnLW9tYWUnLCAnPG91dGZpbGUubWFlPic=

> <r_lp_tautomer_probability>
1

> <r_epik_Ionization_Penalty>
0.00425795

> <r_epik_Ionization_Penalty_Charging>
0

> <r_epik_Ionization_Penalty_Neutral>
0.00425795

> <r_epik_State_Penalty>
0.00299946

> <r_epik_Charging_Adjusted_Penalty>
0.00299946

> <i_epik_Tot_Q>
0

> <i_epik_Tot_abs_Q>
0

> <r_epik_Metal_State_Penalty>
-0

> <b_epik_Metal_Only>
0

> <s_lp_Force_Field>
OPLS_2005

> <r_lp_Energy>
54.7951

> <b_lp_Chiralities_Consistent>
1

> <s_lp_Variant>
AV-unprocessed.smi:86-2

> <Gold.Version>
5.8.1

> <Gold.Id.Protein>
6NUR|6NUR_protein|mol2

> <Gold.PLP.Fitness>
40.9633

> <Gold.PLP.PLP>
-31.7062

> <Gold.PLP.part.hbond>
-4.0000

> <Gold.PLP.part.metal>
0.0000

> <Gold.PLP.part.buried>
-5.9200

> <Gold.PLP.part.nonpolar>
-22.1862

> <Gold.PLP.part.repulsive>
0.0911

> <Gold.PLP.ligand.clash>
0.0000

> <Gold.PLP.ligand.torsion>
1.5968

> <Gold.PLP.Chemscore.Hbond>
3.0000

> <Gold.PLP.Chemscore.CHOScore>
0.9971

> <Gold.PLP.Chemscore.Metal>
0.0000

> <Gold.Chemscore.Hbonds>
donor molecule, donor type, donor heavy atom, donor atom, acceptor molecule, acceptor atom, score
      L1  H    16    41       P1 10186  1.00
      P1  H  6931  6943       L1    25  0.68
      P1  H  6934  6947       L1     1  0.88
      L1  C    21    47       P1 11000  1.00

> <Gold.PLP.Chemscore.Internal.Correction>
0.4594

> <Gold.Rescore>
     Score         DG    S(hbond)    S(metal)    S(lipo)     H(rot)  DE(clash)    DE(int)     intcor
     11.65     -13.68       1.98        0.00      74.13       2.76       0.00       2.02       ----

> <Gold.Chemscore.Fitness>
11.6544

> <Gold.Chemscore.DG>
-13.6839

> <Gold.Chemscore.ZeroCoef>
-5.4800

> <Gold.Chemscore.Hbond>
1.9773

> <Gold.Chemscore.Metal>
0.0000

> <Gold.Chemscore.Lipo>
74.1294

> <Gold.Chemscore.Internal_Hbond>
0.0000

> <Gold.Chemscore.DEClash>
0.0048

> <Gold.Chemscore.DEInternal>
2.0247

> <Gold.Chemscore.Rot>
2.7630

> <Gold.Chemscore.Internal.Correction>
   9.000000E+99

> <Gold.Chemscore.Hbonds>
donor molecule, donor type, donor heavy atom, donor atom, acceptor molecule, acceptor atom, score
      L1  H    16    41       P1 10186  1.00
      P1  H  6931  6943       L1    25  0.27
      P1  H  6934  6947       L1     1  0.86

> <Gold.Chemscore.Hbond.Weighted>
-6.6041

> <Gold.Chemscore.Metal.Weighted>
-0.0000

> <Gold.Chemscore.Lipo.Weighted>
-8.6731

> <Gold.Chemscore.Internal_Hbond.Weighted>
0.0000

> <Gold.Chemscore.DEClash.Weighted>
0.0048

> <Gold.Chemscore.DEInternal.Weighted>
2.0247

> <Gold.Chemscore.Rot.Weighted>
7.0734

> <Gold.Chemscore.Internal.Correction.Weighted>
   9.000000E+99

> <Gold.Protein.RotatedTorsions>
[ 6907 6896 6895 6894 ] final   62.63 input  -60.11 | X-H torsion
[ 7974 7965 7964 7962 ] final  -75.81 input  175.53 | X-H torsion
[ 8008 7997 7996 7995 ] final   -5.83 input   59.86 | X-H torsion
[ 10167 10162 10161 10158 ] final  -29.27 input  -65.29 | X-H torsion
[ 10718 10713 10712 10709 ] final -144.70 input   66.30 | X-H torsion
[ 10763 10752 10751 10750 ] final   31.67 input  -60.55 | X-H torsion
[ 11005 11000 10999 10996 ] final   76.82 input  -57.11 | X-H torsion

> <Gold.Protein.ActiveResidues>
 VAL166  LYS551  ARG553  GLY616  TRP617  ASP618  TYR619  PRO620  LYS621  CYS622 
 ASP623  PHE694  ASN695  SER759  ASP760  ASP761  ALA762  ILE779  LEU786  VAL792 
 PHE793  MET794  SER795  GLU796  ALA797  LYS798  CYS799  TRP800  GLU811  SER814 

> <Gold.Protein.RotatedAtoms>
  152.4188  134.5993  159.9995 H   0  0  0  0  0  0  0  0  0  0  0  0  # atno 6907 bound_to 6896
  151.6149  133.3338  159.3083 H   0  0  0  0  0  0  0  0  0  0  0  0  # atno 6908 bound_to 6896
  150.8076  134.7249  159.6724 H   0  0  0  0  0  0  0  0  0  0  0  0  # atno 6909 bound_to 6896
  145.6211  140.9363  143.1138 H   0  0  0  0  0  0  0  0  0  0  0  0  # atno 7974 bound_to 7965
  154.5999  140.2448  155.7806 H   0  0  0  0  0  0  0  0  0  0  0  0  # atno 8008 bound_to 7997
  156.2304  140.2968  156.0126 H   0  0  0  0  0  0  0  0  0  0  0  0  # atno 8009 bound_to 7997
  155.2229  140.0401  157.2941 H   0  0  0  0  0  0  0  0  0  0  0  0  # atno 8010 bound_to 7997
  140.7262  143.3942  151.1376 H   0  0  0  0  0  0  0  0  0  0  0  0  # atno 10167 bound_to 10162
  156.3733  130.7799  151.1983 H   0  0  0  0  0  0  0  0  0  0  0  0  # atno 10718 bound_to 10713
  153.0303  135.6433  154.1235 H   0  0  0  0  0  0  0  0  0  0  0  0  # atno 10763 bound_to 10752
  154.0958  135.2863  155.3263 H   0  0  0  0  0  0  0  0  0  0  0  0  # atno 10764 bound_to 10752
  154.6433  135.5452  153.7878 H   0  0  0  0  0  0  0  0  0  0  0  0  # atno 10765 bound_to 10752
  139.9281  134.7632  156.1443 H   0  0  0  0  0  0  0  0  0  0  0  0  # atno 11005 bound_to 11000
  144.7231  139.7965  143.7375 LP  0  0  0  0  0  0  0  0  0  0  0  0  # atno 17320 bound_to 7965
  146.1430  139.4492  143.0096 LP  0  0  0  0  0  0  0  0  0  0  0  0  # atno 17321 bound_to 7965
  139.7552  143.8718  152.3087 LP  0  0  0  0  0  0  0  0  0  0  0  0  # atno 17342 bound_to 10162
  139.8585  144.7129  150.9128 LP  0  0  0  0  0  0  0  0  0  0  0  0  # atno 17343 bound_to 10162
  157.7486  131.0366  150.4415 LP  0  0  0  0  0  0  0  0  0  0  0  0  # atno 17370 bound_to 10713
  156.4646  130.4039  149.6555 LP  0  0  0  0  0  0  0  0  0  0  0  0  # atno 17371 bound_to 10713
  141.0853  133.6737  156.2423 LP  0  0  0  0  0  0  0  0  0  0  0  0  # atno 17394 bound_to 11000
  140.6277  134.5296  157.5556 LP  0  0  0  0  0  0  0  0  0  0  0  0  # atno 17395 bound_to 11000

$$$$
