AV-unprocessed.smi:1669|AV-procd|sdf|6688|dock9
  -GOLD-   22720 7413D 1   1.00000     0.00000
 Structure written by MMmdl.
 47 49  0  0  0  0  0  0  0  0  1 V2000
  148.9196  135.8130  158.0615 C   0  0  0  0  0  0  0  0  0  0  0  0
  149.2296  136.8508  159.0410 N   0  0  0  0  0  0  0  0  0  0  0  0
  148.0299  137.2211  159.8005 C   0  0  0  0  0  0  0  0  0  0  0  0
  147.5751  136.1640  160.7924 C   0  0  0  0  0  0  0  0  0  0  0  0
  147.1703  134.8907  160.3381 C   0  0  0  0  0  0  0  0  0  0  0  0
  146.7508  133.9111  161.2592 C   0  0  0  0  0  0  0  0  0  0  0  0
  146.7363  134.2003  162.6373 C   0  0  0  0  0  0  0  0  0  0  0  0
  147.1425  135.4688  163.0945 C   0  0  0  0  0  0  0  0  0  0  0  0
  147.5628  136.4486  162.1741 C   0  0  0  0  0  0  0  0  0  0  0  0
  149.8238  138.0067  158.3671 C   0  0  0  0  0  0  0  0  0  0  0  0
  151.3597  138.1307  158.4917 C   0  0  1  0  0  0  0  0  0  0  0  0
  151.8989  136.8297  158.5934 O   0  0  0  0  0  0  0  0  0  0  0  0
  152.0220  138.8170  157.2801 C   0  0  0  0  0  0  0  0  0  0  0  0
  151.6025  140.2032  157.1149 N   0  0  0  0  0  0  0  0  0  0  0  0
  150.8525  140.7389  156.1179 C   0  0  0  0  0  0  0  0  0  0  0  0
  150.3244  139.8974  154.9896 C   0  0  0  0  0  0  0  0  0  0  0  0
  149.6622  140.6371  153.9835 O   0  0  0  0  0  0  0  0  0  0  0  0
  150.6294  142.0523  156.2080 N   0  0  0  0  0  0  0  0  0  0  0  0
  151.2841  142.3968  157.3732 C   0  0  0  0  0  0  0  0  0  0  0  0
  151.4200  143.6490  158.0141 C   0  0  0  0  0  0  0  0  0  0  0  0
  152.1491  143.7604  159.2162 C   0  0  0  0  0  0  0  0  0  0  0  0
  152.7510  142.6236  159.7932 C   0  0  0  0  0  0  0  0  0  0  0  0
  152.6287  141.3669  159.1701 C   0  0  0  0  0  0  0  0  0  0  0  0
  151.9002  141.2610  157.9696 C   0  0  0  0  0  0  0  0  0  0  0  0
  149.8131  135.5231  157.5079 H   0  0  0  0  0  0  0  0  0  0  0  0
  148.1737  136.1584  157.3441 H   0  0  0  0  0  0  0  0  0  0  0  0
  148.5363  134.9138  158.5441 H   0  0  0  0  0  0  0  0  0  0  0  0
  148.2045  138.1252  160.3808 H   0  0  0  0  0  0  0  0  0  0  0  0
  147.2134  137.4564  159.1156 H   0  0  0  0  0  0  0  0  0  0  0  0
  147.1791  134.6641  159.2820 H   0  0  0  0  0  0  0  0  0  0  0  0
  146.4401  132.9379  160.9087 H   0  0  0  0  0  0  0  0  0  0  0  0
  146.4137  133.4494  163.3436 H   0  0  0  0  0  0  0  0  0  0  0  0
  147.1315  135.6905  164.1516 H   0  0  0  0  0  0  0  0  0  0  0  0
  147.8727  137.4195  162.5323 H   0  0  0  0  0  0  0  0  0  0  0  0
  149.5770  137.9825  157.3043 H   0  0  0  0  0  0  0  0  0  0  0  0
  149.3443  138.9061  158.7531 H   0  0  0  0  0  0  0  0  0  0  0  0
  151.6415  138.6726  159.3915 H   0  0  0  0  0  0  0  0  0  0  0  0
  151.7545  136.3840  157.7724 H   0  0  0  0  0  0  0  0  0  0  0  0
  153.1080  138.7868  157.3700 H   0  0  0  0  0  0  0  0  0  0  0  0
  151.7851  138.2717  156.3659 H   0  0  0  0  0  0  0  0  0  0  0  0
  151.1508  139.3556  154.5303 H   0  0  0  0  0  0  0  0  0  0  0  0
  149.6227  139.1609  155.3804 H   0  0  0  0  0  0  0  0  0  0  0  0
  149.8220  140.2219  153.1501 H   0  0  0  0  0  0  0  0  0  0  0  0
  150.9624  144.5253  157.5794 H   0  0  0  0  0  0  0  0  0  0  0  0
  152.2472  144.7225  159.6974 H   0  0  0  0  0  0  0  0  0  0  0  0
  153.3079  142.7171  160.7141 H   0  0  0  0  0  0  0  0  0  0  0  0
  153.0929  140.4962  159.6089 H   0  0  0  0  0  0  0  0  0  0  0  0
  1  2  1  0  0  0  0
  1 25  1  0  0  0  0
  1 26  1  0  0  0  0
  1 27  1  0  0  0  0
  2  3  1  0  0  0  0
  2 10  1  0  0  0  0
  3  4  1  0  0  0  0
  3 28  1  0  0  0  0
  3 29  1  0  0  0  0
  4  9  1  0  0  0  0
  4  5  2  0  0  0  0
  5  6  1  0  0  0  0
  5 30  1  0  0  0  0
  6  7  2  0  0  0  0
  6 31  1  0  0  0  0
  7  8  1  0  0  0  0
  7 32  1  0  0  0  0
  8  9  2  0  0  0  0
  8 33  1  0  0  0  0
  9 34  1  0  0  0  0
 10 11  1  0  0  0  0
 10 35  1  0  0  0  0
 10 36  1  0  0  0  0
 11 12  1  0  0  0  0
 11 13  1  0  0  0  0
 11 37  1  0  0  0  0
 12 38  1  0  0  0  0
 13 14  1  0  0  0  0
 13 39  1  0  0  0  0
 13 40  1  0  0  0  0
 14 24  1  0  0  0  0
 14 15  1  0  0  0  0
 15 16  1  0  0  0  0
 15 18  2  0  0  0  0
 16 17  1  0  0  0  0
 16 41  1  0  0  0  0
 16 42  1  0  0  0  0
 17 43  1  0  0  0  0
 18 19  1  0  0  0  0
 19 24  2  0  0  0  0
 19 20  1  0  0  0  0
 20 21  2  0  0  0  0
 20 44  1  0  0  0  0
 21 22  1  0  0  0  0
 21 45  1  0  0  0  0
 22 23  2  0  0  0  0
 22 46  1  0  0  0  0
 23 24  1  0  0  0  0
 23 47  1  0  0  0  0
M  END
> <s_m_source_file>
AV-unprocessed.smi

> <i_m_source_file_index>
1669

> <i_lp_mmshare_version>
43012

> <i_f3d_flags>
0

> <s_epik_input>
W2NIXTFbY0hdW2NIXVtjSF1bY0hdYzFbQ0gyXU4oW0NIM10pW0NIMl1bQ0BIXShbT0hdKVtDSDJdbihjKG4yKVtDSDJdW09IXSljKGMyMylbY0hdW2NIXVtjSF1bY0hdMw==

> <s_epik_cmdline>
J2VwaWtfcHl0aG9uJywgJy1waCcsICc3LjAnLCAnLXRuJywgJzgnLCAnLW1hJywgJzIwMCcsICctbWV0YWxfYmluZGluZycsICctaW1hZScsICc8aW5maWxlLm1hZT4nLCAnLW9tYWUnLCAnPG91dGZpbGUubWFlPic=

> <r_epik_Ionization_Penalty>
1.56301

> <r_epik_Ionization_Penalty_Charging>
0

> <r_epik_Ionization_Penalty_Neutral>
1.56301

> <r_epik_State_Penalty>
1.64771

> <r_epik_Charging_Adjusted_Penalty>
1.64771

> <i_epik_Tot_Q>
0

> <i_epik_Tot_abs_Q>
0

> <r_epik_Metal_State_Penalty>
1.61258

> <b_epik_Metal_Only>
0

> <s_lp_Force_Field>
OPLS_2005

> <r_lp_Energy>
25.3744

> <b_lp_Chiralities_Consistent>
1

> <s_lp_Variant>
AV-unprocessed.smi:1669-6

> <Gold.Version>
5.8.1

> <Gold.Id.Protein>
6NUR|6NUR_protein|mol2

> <Gold.PLP.Fitness>
54.4672

> <Gold.PLP.PLP>
-52.3122

> <Gold.PLP.part.hbond>
-2.9966

> <Gold.PLP.part.metal>
0.0000

> <Gold.PLP.part.buried>
-6.3882

> <Gold.PLP.part.nonpolar>
-43.9807

> <Gold.PLP.part.repulsive>
0.0926

> <Gold.PLP.ligand.clash>
0.0000

> <Gold.PLP.ligand.torsion>
1.1706

> <Gold.PLP.Chemscore.Hbond>
1.3947

> <Gold.PLP.Chemscore.CHOScore>
0.0000

> <Gold.PLP.Chemscore.Metal>
0.0000

> <Gold.Chemscore.Hbonds>
donor molecule, donor type, donor heavy atom, donor atom, acceptor molecule, acceptor atom, score
      L1  H    17    43       P1  7957  1.00
      P1  H  6896  6907       L1    12  0.46

> <Gold.PLP.Chemscore.Internal.Correction>
0.3121

> <Gold.Rescore>
     Score         DG    S(hbond)    S(metal)    S(lipo)     H(rot)  DE(clash)    DE(int)     intcor
     16.29     -17.49       1.24        0.00     134.13       3.06       0.02       1.18       ----

> <Gold.Chemscore.Fitness>
16.2932

> <Gold.Chemscore.DG>
-17.4949

> <Gold.Chemscore.ZeroCoef>
-5.4800

> <Gold.Chemscore.Hbond>
1.2449

> <Gold.Chemscore.Metal>
0.0000

> <Gold.Chemscore.Lipo>
134.1263

> <Gold.Chemscore.Internal_Hbond>
0.0000

> <Gold.Chemscore.DEClash>
0.0249

> <Gold.Chemscore.DEInternal>
1.1769

> <Gold.Chemscore.Rot>
3.0609

> <Gold.Chemscore.Internal.Correction>
   9.000000E+99

> <Gold.Chemscore.Hbonds>
donor molecule, donor type, donor heavy atom, donor atom, acceptor molecule, acceptor atom, score
      L1  H    17    43       P1  7957  0.93
      P1  H  6896  6907       L1    12  0.10

> <Gold.Chemscore.Hbond.Weighted>
-4.1580

> <Gold.Chemscore.Metal.Weighted>
-0.0000

> <Gold.Chemscore.Lipo.Weighted>
-15.6928

> <Gold.Chemscore.Internal_Hbond.Weighted>
0.0000

> <Gold.Chemscore.DEClash.Weighted>
0.0249

> <Gold.Chemscore.DEInternal.Weighted>
1.1769

> <Gold.Chemscore.Rot.Weighted>
7.8358

> <Gold.Chemscore.Internal.Correction.Weighted>
   9.000000E+99

> <Gold.Protein.RotatedTorsions>
[ 6907 6896 6895 6894 ] final    0.95 input  -60.11 | X-H torsion
[ 7974 7965 7964 7962 ] final  -28.74 input  175.53 | X-H torsion
[ 8008 7997 7996 7995 ] final    9.56 input   59.86 | X-H torsion
[ 10167 10162 10161 10158 ] final -155.46 input  -65.29 | X-H torsion
[ 10718 10713 10712 10709 ] final  -13.84 input   66.30 | X-H torsion
[ 10763 10752 10751 10750 ] final  129.19 input  -60.55 | X-H torsion
[ 11005 11000 10999 10996 ] final -145.73 input  -57.11 | X-H torsion

> <Gold.Protein.ActiveResidues>
 VAL166  LYS551  ARG553  GLY616  TRP617  ASP618  TYR619  PRO620  LYS621  CYS622 
 ASP623  PHE694  ASN695  SER759  ASP760  ASP761  ALA762  ILE779  LEU786  VAL792 
 PHE793  MET794  SER795  GLU796  ALA797  LYS798  CYS799  TRP800  GLU811  SER814 

> <Gold.Protein.RotatedAtoms>
  151.5848  135.1056  160.0025 H   0  0  0  0  0  0  0  0  0  0  0  0  # atno 6907 bound_to 6896
  152.4336  133.7317  159.6601 H   0  0  0  0  0  0  0  0  0  0  0  0  # atno 6908 bound_to 6896
  150.8231  133.8148  159.3153 H   0  0  0  0  0  0  0  0  0  0  0  0  # atno 6909 bound_to 6896
  146.1266  140.5322  142.8711 H   0  0  0  0  0  0  0  0  0  0  0  0  # atno 7974 bound_to 7965
  154.7816  140.2820  155.6059 H   0  0  0  0  0  0  0  0  0  0  0  0  # atno 8008 bound_to 7997
  156.2951  140.2622  156.2571 H   0  0  0  0  0  0  0  0  0  0  0  0  # atno 8009 bound_to 7997
  154.9777  140.0375  157.2253 H   0  0  0  0  0  0  0  0  0  0  0  0  # atno 8010 bound_to 7997
  139.6929  143.9390  152.2393 H   0  0  0  0  0  0  0  0  0  0  0  0  # atno 10167 bound_to 10162
  156.6245  130.4884  149.6152 H   0  0  0  0  0  0  0  0  0  0  0  0  # atno 10718 bound_to 10713
  153.7378  135.3229  155.3298 H   0  0  0  0  0  0  0  0  0  0  0  0  # atno 10763 bound_to 10752
  154.8305  135.4537  154.1057 H   0  0  0  0  0  0  0  0  0  0  0  0  # atno 10764 bound_to 10752
  153.2223  135.6949  153.8067 H   0  0  0  0  0  0  0  0  0  0  0  0  # atno 10765 bound_to 10752
  140.7892  134.2988  157.5019 H   0  0  0  0  0  0  0  0  0  0  0  0  # atno 11005 bound_to 11000
  144.7649  140.5507  143.6710 LP  0  0  0  0  0  0  0  0  0  0  0  0  # atno 17320 bound_to 7965
  145.5351  139.1475  143.3478 LP  0  0  0  0  0  0  0  0  0  0  0  0  # atno 17321 bound_to 7965
  139.9211  144.6799  150.8460 LP  0  0  0  0  0  0  0  0  0  0  0  0  # atno 17342 bound_to 10162
  140.7688  143.3374  151.2280 LP  0  0  0  0  0  0  0  0  0  0  0  0  # atno 17343 bound_to 10162
  156.2285  130.6780  151.1440 LP  0  0  0  0  0  0  0  0  0  0  0  0  # atno 17370 bound_to 10713
  157.7218  131.0676  150.6103 LP  0  0  0  0  0  0  0  0  0  0  0  0  # atno 17371 bound_to 10713
  139.8733  134.9365  156.3661 LP  0  0  0  0  0  0  0  0  0  0  0  0  # atno 17394 bound_to 11000
  140.9406  133.7517  156.0141 LP  0  0  0  0  0  0  0  0  0  0  0  0  # atno 17395 bound_to 11000

$$$$
