AV-unprocessed.smi:1171|AV-procd|sdf|4942|dock9
  -GOLD-   22720 3523D 1   1.00000     0.00000
 Structure written by MMmdl.
 32 33  0  0  0  0  0  0  0  0  1 V2000
  150.9544  137.7459  154.3711 C   0  0  0  0  0  0  0  0  0  0  0  0
  150.5138  139.1377  154.7157 C   0  0  0  0  0  0  0  0  0  0  0  0
  151.0978  140.0364  155.6554 C   0  0  0  0  0  0  0  0  0  0  0  0
  150.2958  141.1399  155.5542 C   0  0  0  0  0  0  0  0  0  0  0  0
  150.3900  142.3278  156.2079 N   0  0  0  0  0  0  0  0  0  0  0  0
  151.2074  142.6745  157.2217 C   0  0  0  0  0  0  0  0  0  0  0  0
  151.9837  141.9078  157.7883 O   0  0  0  0  0  0  0  0  0  0  0  0
  151.0819  143.9535  157.6204 N   0  0  0  0  0  0  0  0  0  0  0  0
  151.7973  144.6289  158.6625 C   0  0  0  0  0  0  0  0  0  0  0  0
  151.8368  143.9585  160.0189 C   0  0  0  0  0  0  0  0  0  0  0  0
  151.0006  145.1925  159.8194 C   0  0  0  0  0  0  0  0  0  0  0  0
  149.3154  140.8940  154.6186 N   0  0  0  0  0  0  0  0  0  0  0  0
  148.2461  141.7557  154.1504 C   0  0  0  0  0  0  0  0  0  0  0  0
  146.9023  141.3588  154.7697 C   0  0  0  0  0  0  0  0  0  0  0  0
  145.8860  142.4118  154.6324 C   0  0  0  0  0  0  0  0  0  0  0  0
  145.0864  143.2407  154.5235 N   0  0  0  0  0  0  0  0  0  0  0  0
  149.4564  139.6551  154.1003 N   0  0  0  0  0  0  0  0  0  0  0  0
  151.8635  137.4757  154.9086 H   0  0  0  0  0  0  0  0  0  0  0  0
  151.1597  137.6514  153.3045 H   0  0  0  0  0  0  0  0  0  0  0  0
  150.1866  137.0164  154.6302 H   0  0  0  0  0  0  0  0  0  0  0  0
  151.9626  139.8800  156.2826 H   0  0  0  0  0  0  0  0  0  0  0  0
  149.7659  143.0501  155.8802 H   0  0  0  0  0  0  0  0  0  0  0  0
  150.3480  144.4886  157.1788 H   0  0  0  0  0  0  0  0  0  0  0  0
  152.7065  145.1643  158.3923 H   0  0  0  0  0  0  0  0  0  0  0  0
  151.3132  143.0114  160.1366 H   0  0  0  0  0  0  0  0  0  0  0  0
  152.7496  144.0607  160.6025 H   0  0  0  0  0  0  0  0  0  0  0  0
  151.3555  146.1181  160.2684 H   0  0  0  0  0  0  0  0  0  0  0  0
  149.9192  145.0690  159.8015 H   0  0  0  0  0  0  0  0  0  0  0  0
  148.4875  142.7904  154.3982 H   0  0  0  0  0  0  0  0  0  0  0  0
  148.1981  141.6956  153.0625 H   0  0  0  0  0  0  0  0  0  0  0  0
  146.5137  140.4572  154.2954 H   0  0  0  0  0  0  0  0  0  0  0  0
  147.0209  141.1420  155.8316 H   0  0  0  0  0  0  0  0  0  0  0  0
  1  2  1  0  0  0  0
  1 18  1  0  0  0  0
  1 19  1  0  0  0  0
  1 20  1  0  0  0  0
  2 17  2  0  0  0  0
  2  3  1  0  0  0  0
  3  4  2  0  0  0  0
  3 21  1  0  0  0  0
  4  5  1  0  0  0  0
  4 12  1  0  0  0  0
  5  6  1  0  0  0  0
  5 22  1  0  0  0  0
  6  7  2  0  0  0  0
  6  8  1  0  0  0  0
  8  9  1  0  0  0  0
  8 23  1  0  0  0  0
  9 11  1  0  0  0  0
  9 10  1  0  0  0  0
  9 24  1  0  0  0  0
 10 11  1  0  0  0  0
 10 25  1  0  0  0  0
 10 26  1  0  0  0  0
 11 27  1  0  0  0  0
 11 28  1  0  0  0  0
 12 13  1  0  0  0  0
 12 17  1  0  0  0  0
 13 14  1  0  0  0  0
 13 29  1  0  0  0  0
 13 30  1  0  0  0  0
 14 15  1  0  0  0  0
 14 31  1  0  0  0  0
 14 32  1  0  0  0  0
 15 16  3  0  0  0  0
M  END
> <s_m_source_file>
AV-unprocessed.smi

> <i_m_source_file_index>
1171

> <i_lp_mmshare_version>
43012

> <i_f3d_flags>
0

> <s_epik_input>
TiNDW0NIMl1bQ0gyXW4objEpYyhbY0hdYzFbQ0gzXSlbTkhdQyg9TylbTkhdW0NIXTJbQ0gyXVtDSDJdMg==

> <s_epik_cmdline>
J2VwaWtfcHl0aG9uJywgJy1waCcsICc3LjAnLCAnLXRuJywgJzgnLCAnLW1hJywgJzIwMCcsICctbWV0YWxfYmluZGluZycsICctaW1hZScsICc8aW5maWxlLm1hZT4nLCAnLW9tYWUnLCAnPG91dGZpbGUubWFlPic=

> <r_lp_tautomer_probability>
1

> <r_epik_Ionization_Penalty>
3.70036e-05

> <r_epik_Ionization_Penalty_Charging>
0

> <r_epik_Ionization_Penalty_Neutral>
3.70036e-05

> <r_epik_State_Penalty>
-0

> <r_epik_Charging_Adjusted_Penalty>
0

> <i_epik_Tot_Q>
0

> <i_epik_Tot_abs_Q>
0

> <r_epik_Metal_State_Penalty>
-0

> <b_epik_Metal_Only>
0

> <s_lp_Force_Field>
OPLS_2005

> <r_lp_Energy>
27.1595

> <b_lp_Chiralities_Consistent>
1

> <s_lp_Variant>
AV-unprocessed.smi:1171-1

> <Gold.Version>
5.8.1

> <Gold.Id.Protein>
6NUR|6NUR_protein|mol2

> <Gold.PLP.Fitness>
45.1968

> <Gold.PLP.PLP>
-39.8370

> <Gold.PLP.part.hbond>
-2.0000

> <Gold.PLP.part.metal>
0.0000

> <Gold.PLP.part.buried>
-5.4907

> <Gold.PLP.part.nonpolar>
-34.0973

> <Gold.PLP.part.repulsive>
1.3176

> <Gold.PLP.ligand.clash>
0.0000

> <Gold.PLP.ligand.torsion>
0.3432

> <Gold.PLP.Chemscore.Hbond>
2.0000

> <Gold.PLP.Chemscore.CHOScore>
0.0000

> <Gold.PLP.Chemscore.Metal>
0.0000

> <Gold.Chemscore.Hbonds>
donor molecule, donor type, donor heavy atom, donor atom, acceptor molecule, acceptor atom, score
      L1  H     5    22       P1  8028  1.00
      L1  H     8    23       P1  8028  0.86

> <Gold.PLP.Chemscore.Internal.Correction>
0.0461

> <Gold.Rescore>
     Score         DG    S(hbond)    S(metal)    S(lipo)     H(rot)  DE(clash)    DE(int)     intcor
     12.46     -15.50       1.83        0.00      68.49       1.61       0.19       2.84       ----

> <Gold.Chemscore.Fitness>
12.4643

> <Gold.Chemscore.DG>
-15.4959

> <Gold.Chemscore.ZeroCoef>
-5.4800

> <Gold.Chemscore.Hbond>
1.8303

> <Gold.Chemscore.Metal>
0.0000

> <Gold.Chemscore.Lipo>
68.4881

> <Gold.Chemscore.Internal_Hbond>
0.0000

> <Gold.Chemscore.DEClash>
0.1905

> <Gold.Chemscore.DEInternal>
2.8411

> <Gold.Chemscore.Rot>
1.6056

> <Gold.Chemscore.Internal.Correction>
   9.000000E+99

> <Gold.Chemscore.Hbonds>
donor molecule, donor type, donor heavy atom, donor atom, acceptor molecule, acceptor atom, score
      L1  H     5    22       P1  8028  1.00
      L1  H     8    23       P1  8028  0.57

> <Gold.Chemscore.Hbond.Weighted>
-6.1130

> <Gold.Chemscore.Metal.Weighted>
-0.0000

> <Gold.Chemscore.Lipo.Weighted>
-8.0131

> <Gold.Chemscore.Internal_Hbond.Weighted>
0.0000

> <Gold.Chemscore.DEClash.Weighted>
0.1905

> <Gold.Chemscore.DEInternal.Weighted>
2.8411

> <Gold.Chemscore.Rot.Weighted>
4.1102

> <Gold.Chemscore.Internal.Correction.Weighted>
   9.000000E+99

> <Gold.Protein.RotatedTorsions>
[ 6907 6896 6895 6894 ] final   30.79 input  -60.11 | X-H torsion
[ 7974 7965 7964 7962 ] final -173.96 input  175.53 | X-H torsion
[ 8008 7997 7996 7995 ] final   41.65 input   59.86 | X-H torsion
[ 10167 10162 10161 10158 ] final   88.91 input  -65.29 | X-H torsion
[ 10718 10713 10712 10709 ] final -125.00 input   66.30 | X-H torsion
[ 10763 10752 10751 10750 ] final  -55.82 input  -60.55 | X-H torsion
[ 11005 11000 10999 10996 ] final -120.81 input  -57.11 | X-H torsion

> <Gold.Protein.ActiveResidues>
 VAL166  LYS551  ARG553  GLY616  TRP617  ASP618  TYR619  PRO620  LYS621  CYS622 
 ASP623  PHE694  ASN695  SER759  ASP760  ASP761  ALA762  ILE779  LEU786  VAL792 
 PHE793  MET794  SER795  GLU796  ALA797  LYS798  CYS799  TRP800  GLU811  SER814 

> <Gold.Protein.RotatedAtoms>
  152.0510  134.9653  160.0574 H   0  0  0  0  0  0  0  0  0  0  0  0  # atno 6907 bound_to 6896
  152.1054  133.4267  159.4614 H   0  0  0  0  0  0  0  0  0  0  0  0  # atno 6908 bound_to 6896
  150.6841  134.2630  159.4600 H   0  0  0  0  0  0  0  0  0  0  0  0  # atno 6909 bound_to 6896
  144.7134  140.1543  143.6381 H   0  0  0  0  0  0  0  0  0  0  0  0  # atno 7974 bound_to 7965
  155.2731  140.3367  155.4264 H   0  0  0  0  0  0  0  0  0  0  0  0  # atno 8008 bound_to 7997
  156.2124  140.1775  156.7707 H   0  0  0  0  0  0  0  0  0  0  0  0  # atno 8009 bound_to 7997
  154.5705  140.0671  156.8941 H   0  0  0  0  0  0  0  0  0  0  0  0  # atno 8010 bound_to 7997
  139.8625  144.6536  150.9041 H   0  0  0  0  0  0  0  0  0  0  0  0  # atno 10167 bound_to 10162
  156.1636  130.6619  151.0084 H   0  0  0  0  0  0  0  0  0  0  0  0  # atno 10718 bound_to 10713
  154.1969  135.6417  153.5076 H   0  0  0  0  0  0  0  0  0  0  0  0  # atno 10763 bound_to 10752
  153.0021  135.5442  154.6356 H   0  0  0  0  0  0  0  0  0  0  0  0  # atno 10764 bound_to 10752
  154.5759  135.2921  155.0754 H   0  0  0  0  0  0  0  0  0  0  0  0  # atno 10765 bound_to 10752
  141.0116  134.0256  157.3406 H   0  0  0  0  0  0  0  0  0  0  0  0  # atno 11005 bound_to 11000
  145.9088  139.2474  143.1450 LP  0  0  0  0  0  0  0  0  0  0  0  0  # atno 17320 bound_to 7965
  145.9737  140.8739  143.0149 LP  0  0  0  0  0  0  0  0  0  0  0  0  # atno 17321 bound_to 7965
  140.7773  143.3732  151.1611 LP  0  0  0  0  0  0  0  0  0  0  0  0  # atno 17342 bound_to 10162
  139.7360  143.8999  152.3035 LP  0  0  0  0  0  0  0  0  0  0  0  0  # atno 17343 bound_to 10162
  157.6751  131.0852  150.7514 LP  0  0  0  0  0  0  0  0  0  0  0  0  # atno 17370 bound_to 10713
  156.7576  130.4788  149.5443 LP  0  0  0  0  0  0  0  0  0  0  0  0  # atno 17371 bound_to 10713
  139.9093  135.0187  156.7623 LP  0  0  0  0  0  0  0  0  0  0  0  0  # atno 17394 bound_to 11000
  140.6724  133.9548  155.7864 LP  0  0  0  0  0  0  0  0  0  0  0  0  # atno 17395 bound_to 11000

$$$$
