AV-unprocessed.smi:1213|AV-procd|sdf|5091|dock2
  -GOLD-   22720 4143D 1   1.00000     0.00000
 Structure written by MMmdl.
 36 37  0  0  0  0  0  0  0  0  3 V2000
  146.7658  139.4015  151.1270 N   0  0  0  0  0  0  0  0  0  0  0  0
  146.6400  138.8742  152.3472 C   0  0  0  0  0  0  0  0  0  0  0  0
  145.7104  138.1264  152.6455 O   0  0  0  0  0  0  0  0  0  0  0  0
  147.7286  139.2245  153.3671 C   0  0  0  0  0  0  0  0  0  0  0  0
  148.4164  138.0291  153.9198 N   0  3  2  0  0  0  0  0  0  0  0  0
  147.5030  137.1297  154.6749 C   0  0  0  0  0  0  0  0  0  0  0  0
  148.2284  135.8482  155.1214 C   0  0  0  0  0  0  0  0  0  0  0  0
  149.4852  136.1644  155.9560 C   0  0  2  0  0  0  0  0  0  0  0  0
  149.1410  136.7406  157.2553 N   0  0  0  0  0  0  0  0  0  0  0  0
  148.9921  136.0739  158.4084 C   0  0  0  0  0  0  0  0  0  0  0  0
  149.1648  134.8538  158.4422 O   0  0  0  0  0  0  0  0  0  0  0  0
  148.6438  136.8666  159.4465 N   0  5  0  0  0  0  0  0  0  0  0  0
  148.0696  136.3330  160.5369 C   0  0  0  0  0  0  0  0  0  0  0  0
  147.7344  137.0553  161.6118 N   0  0  0  0  0  0  0  0  0  0  0  0
  147.1407  136.2998  162.6246 C   0  0  0  0  0  0  0  0  0  0  0  0
  147.0144  134.9727  162.3105 C   0  0  0  0  0  0  0  0  0  0  0  0
  147.6396  134.6302  160.7227 S   0  0  0  0  0  0  0  0  0  0  0  0
  150.3860  137.1330  155.1716 C   0  0  0  0  0  0  0  0  0  0  0  0
  149.6184  138.3882  154.7158 C   0  0  0  0  0  0  0  0  0  0  0  0
  146.0739  139.1982  150.4195 H   0  0  0  0  0  0  0  0  0  0  0  0
  147.5501  139.9999  150.9108 H   0  0  0  0  0  0  0  0  0  0  0  0
  148.4502  139.8547  152.8456 H   0  0  0  0  0  0  0  0  0  0  0  0
  147.3163  139.8268  154.1786 H   0  0  0  0  0  0  0  0  0  0  0  0
  147.1021  137.6578  155.5415 H   0  0  0  0  0  0  0  0  0  0  0  0
  146.6494  136.8557  154.0546 H   0  0  0  0  0  0  0  0  0  0  0  0
  147.5452  135.2081  155.6807 H   0  0  0  0  0  0  0  0  0  0  0  0
  148.5190  135.2766  154.2391 H   0  0  0  0  0  0  0  0  0  0  0  0
  150.0418  135.2418  156.1296 H   0  0  0  0  0  0  0  0  0  0  0  0
  149.0011  137.7396  157.2879 H   0  0  0  0  0  0  0  0  0  0  0  0
  146.8368  136.7904  163.5372 H   0  0  0  0  0  0  0  0  0  0  0  0
  146.5927  134.1806  162.9102 H   0  0  0  0  0  0  0  0  0  0  0  0
  151.2480  137.4196  155.7756 H   0  0  0  0  0  0  0  0  0  0  0  0
  150.7869  136.6210  154.2957 H   0  0  0  0  0  0  0  0  0  0  0  0
  150.2830  139.0113  154.1163 H   0  0  0  0  0  0  0  0  0  0  0  0
  149.3188  138.9866  155.5778 H   0  0  0  0  0  0  0  0  0  0  0  0
  148.7511  137.5050  153.1236 H   0  0  0  0  0  0  0  0  0  0  0  0
  1  2  1  0  0  0  0
  1 20  1  0  0  0  0
  1 21  1  0  0  0  0
  2  3  2  0  0  0  0
  2  4  1  0  0  0  0
  4  5  1  0  0  0  0
  4 22  1  0  0  0  0
  4 23  1  0  0  0  0
  5 19  1  0  0  0  0
  5  6  1  0  0  0  0
  5 36  1  0  0  0  0
  6  7  1  0  0  0  0
  6 24  1  0  0  0  0
  6 25  1  0  0  0  0
  7  8  1  0  0  0  0
  7 26  1  0  0  0  0
  7 27  1  0  0  0  0
  8  9  1  0  0  0  0
  8 18  1  0  0  0  0
  8 28  1  0  0  0  0
  9 10  1  0  0  0  0
  9 29  1  0  0  0  0
 10 11  2  0  0  0  0
 10 12  1  0  0  0  0
 12 13  1  0  0  0  0
 13 17  1  0  0  0  0
 13 14  2  0  0  0  0
 14 15  1  0  0  0  0
 15 16  2  0  0  0  0
 15 30  1  0  0  0  0
 16 17  1  0  0  0  0
 16 31  1  0  0  0  0
 18 19  1  0  0  0  0
 18 32  1  0  0  0  0
 18 33  1  0  0  0  0
 19 34  1  0  0  0  0
 19 35  1  0  0  0  0
M  CHG  1   5   1
M  CHG  1  12  -1
M  END
> <s_m_source_file>
AV-unprocessed.smi

> <i_m_source_file_index>
1213

> <i_lp_mmshare_version>
43012

> <i_f3d_flags>
0

> <s_epik_input>
W05IMl1DKD1PKVtDSDJdTjFbQ0gyXVtDSDJdW0NIXShbQ0gyXVtDSDJdMSlbTkhdQyg9TylbTkhdYzJuW2NIXVtjSF1zMg==

> <s_epik_cmdline>
J2VwaWtfcHl0aG9uJywgJy1waCcsICc3LjAnLCAnLXRuJywgJzgnLCAnLW1hJywgJzIwMCcsICctbWV0YWxfYmluZGluZycsICctaW1hZScsICc8aW5maWxlLm1hZT4nLCAnLW9tYWUnLCAnPG91dGZpbGUubWFlPic=

> <r_lp_tautomer_probability>
0.999

> <r_epik_Ionization_Penalty>
7.1168

> <r_epik_Ionization_Penalty_Charging>
6.25003

> <r_epik_Ionization_Penalty_Neutral>
0.866763

> <r_epik_State_Penalty>
6.33484

> <r_epik_Charging_Adjusted_Penalty>
12.5849

> <i_epik_Tot_Q>
0

> <i_epik_Tot_abs_Q>
2

> <r_epik_Metal_State_Penalty>
2.3501

> <b_epik_Metal_Only>
1

> <s_lp_Force_Field>
OPLS_2005

> <r_lp_Energy>
4.12503

> <b_lp_Chiralities_Consistent>
1

> <s_lp_Variant>
AV-unprocessed.smi:1213-8

> <Gold.Version>
5.8.1

> <Gold.Id.Protein>
6NUR|6NUR_protein|mol2

> <Gold.PLP.Fitness>
46.8064

> <Gold.PLP.PLP>
-30.0575

> <Gold.PLP.part.hbond>
-5.7927

> <Gold.PLP.part.metal>
0.0000

> <Gold.PLP.part.buried>
-3.6490

> <Gold.PLP.part.nonpolar>
-21.2216

> <Gold.PLP.part.repulsive>
0.3806

> <Gold.PLP.ligand.clash>
0.0000

> <Gold.PLP.ligand.torsion>
0.4762

> <Gold.PLP.Chemscore.Hbond>
5.8738

> <Gold.PLP.Chemscore.CHOScore>
0.0000

> <Gold.PLP.Chemscore.Metal>
0.0000

> <Gold.Chemscore.Hbonds>
donor molecule, donor type, donor heavy atom, donor atom, acceptor molecule, acceptor atom, score
      L1  H     1    20       P1 10171  0.24
      L1  H     1    21       P1  7957  0.80
      L1  H     5    36       P1  7948  2.00
      P1  H  6896  6909       L1    11  1.00
      P1  H  6931  6943       L1    14  1.00
      P1  H  6934  6947       L1    14  0.54

> <Gold.PLP.Chemscore.Internal.Correction>
0.0801

> <Gold.Rescore>
     Score         DG    S(hbond)    S(metal)    S(lipo)     H(rot)  DE(clash)    DE(int)     intcor
     17.02     -20.47       4.30        0.00      50.01       2.04       0.14       3.31       ----

> <Gold.Chemscore.Fitness>
17.0181

> <Gold.Chemscore.DG>
-20.4701

> <Gold.Chemscore.ZeroCoef>
-5.4800

> <Gold.Chemscore.Hbond>
4.2978

> <Gold.Chemscore.Metal>
0.0000

> <Gold.Chemscore.Lipo>
50.0082

> <Gold.Chemscore.Internal_Hbond>
0.0000

> <Gold.Chemscore.DEClash>
0.1394

> <Gold.Chemscore.DEInternal>
3.3126

> <Gold.Chemscore.Rot>
2.0373

> <Gold.Chemscore.Internal.Correction>
   9.000000E+99

> <Gold.Chemscore.Hbonds>
donor molecule, donor type, donor heavy atom, donor atom, acceptor molecule, acceptor atom, score
      L1  H     1    20       P1 10171  0.24
      L1  H     1    21       P1  7957  0.69
      L1  H     5    36       P1  7948  1.00
      P1  H  6896  6909       L1    11  0.96
      P1  H  6931  6943       L1    14  0.68
      P1  H  6934  6947       L1    14  0.35

> <Gold.Chemscore.Hbond.Weighted>
-14.3545

> <Gold.Chemscore.Metal.Weighted>
-0.0000

> <Gold.Chemscore.Lipo.Weighted>
-5.8510

> <Gold.Chemscore.Internal_Hbond.Weighted>
0.0000

> <Gold.Chemscore.DEClash.Weighted>
0.1394

> <Gold.Chemscore.DEInternal.Weighted>
3.3126

> <Gold.Chemscore.Rot.Weighted>
5.2154

> <Gold.Chemscore.Internal.Correction.Weighted>
   9.000000E+99

> <Gold.Protein.RotatedTorsions>
[ 6907 6896 6895 6894 ] final   26.16 input  -60.11 | X-H torsion
[ 7974 7965 7964 7962 ] final  -60.86 input  175.53 | X-H torsion
[ 8008 7997 7996 7995 ] final -170.55 input   59.86 | X-H torsion
[ 10167 10162 10161 10158 ] final -103.42 input  -65.29 | X-H torsion
[ 10718 10713 10712 10709 ] final  143.49 input   66.30 | X-H torsion
[ 10763 10752 10751 10750 ] final   41.67 input  -60.55 | X-H torsion
[ 11005 11000 10999 10996 ] final   56.88 input  -57.11 | X-H torsion

> <Gold.Protein.ActiveResidues>
 VAL166  LYS551  ARG553  GLY616  TRP617  ASP618  TYR619  PRO620  LYS621  CYS622 
 ASP623  PHE694  ASN695  SER759  ASP760  ASP761  ALA762  ILE779  LEU786  VAL792 
 PHE793  MET794  SER795  GLU796  ALA797  LYS798  CYS799  TRP800  GLU811  SER814 

> <Gold.Protein.RotatedAtoms>
  151.9833  135.0017  160.0558 H   0  0  0  0  0  0  0  0  0  0  0  0  # atno 6907 bound_to 6896
  152.1676  133.4618  159.4901 H   0  0  0  0  0  0  0  0  0  0  0  0  # atno 6908 bound_to 6896
  150.6897  134.1910  159.4328 H   0  0  0  0  0  0  0  0  0  0  0  0  # atno 6909 bound_to 6896
  145.8105  140.8601  143.0184 H   0  0  0  0  0  0  0  0  0  0  0  0  # atno 7974 bound_to 7965
  155.9198  140.1072  157.1215 H   0  0  0  0  0  0  0  0  0  0  0  0  # atno 8008 bound_to 7997
  154.4052  140.1258  156.4730 H   0  0  0  0  0  0  0  0  0  0  0  0  # atno 8009 bound_to 7997
  155.7209  140.3470  155.5018 H   0  0  0  0  0  0  0  0  0  0  0  0  # atno 8010 bound_to 7997
  140.2201  143.3682  152.0976 H   0  0  0  0  0  0  0  0  0  0  0  0  # atno 10167 bound_to 10162
  157.3684  131.0975  151.0851 H   0  0  0  0  0  0  0  0  0  0  0  0  # atno 10718 bound_to 10713
  152.9902  135.6154  154.2826 H   0  0  0  0  0  0  0  0  0  0  0  0  # atno 10763 bound_to 10752
  154.2554  135.2784  155.2801 H   0  0  0  0  0  0  0  0  0  0  0  0  # atno 10764 bound_to 10752
  154.5251  135.5804  153.6770 H   0  0  0  0  0  0  0  0  0  0  0  0  # atno 10765 bound_to 10752
  140.0495  134.5757  155.9281 H   0  0  0  0  0  0  0  0  0  0  0  0  # atno 11005 bound_to 11000
  144.6758  140.0388  143.7481 LP  0  0  0  0  0  0  0  0  0  0  0  0  # atno 17320 bound_to 7965
  145.9782  139.2921  143.1058 LP  0  0  0  0  0  0  0  0  0  0  0  0  # atno 17321 bound_to 7965
  139.5147  144.6952  151.5650 LP  0  0  0  0  0  0  0  0  0  0  0  0  # atno 17342 bound_to 10162
  140.6261  143.9166  150.6566 LP  0  0  0  0  0  0  0  0  0  0  0  0  # atno 17343 bound_to 10162
  157.1965  130.6375  149.5723 LP  0  0  0  0  0  0  0  0  0  0  0  0  # atno 17370 bound_to 10713
  155.9750  130.4705  150.6432 LP  0  0  0  0  0  0  0  0  0  0  0  0  # atno 17371 bound_to 10713
  141.1923  133.6575  156.5497 LP  0  0  0  0  0  0  0  0  0  0  0  0  # atno 17394 bound_to 11000
  140.3940  134.7415  157.4739 LP  0  0  0  0  0  0  0  0  0  0  0  0  # atno 17395 bound_to 11000

$$$$
