AV-unprocessed.smi:2482|AV-procd|sdf|9777|dock4
  -GOLD-   2272013423D 1   1.00000     0.00000
 Structure written by MMmdl.
 35 36  0  0  0  0  0  0  0  0  2 V2000
  152.3724  142.4280  162.6188 C   0  0  0  0  0  0  0  0  0  0  0  0
  152.1689  142.6050  161.1233 C   0  0  0  0  0  0  0  0  0  0  0  0
  152.4026  143.8578  160.6743 N   0  0  0  0  0  0  0  0  0  0  0  0
  152.2498  144.1059  159.3578 C   0  0  0  0  0  0  0  0  0  0  0  0
  151.8512  143.1273  158.4287 C   0  0  0  0  0  0  0  0  0  0  0  0
  151.5909  141.8180  158.8953 C   0  0  0  0  0  0  0  0  0  0  0  0
  151.2107  140.7577  158.0298 N   0  0  0  0  0  0  0  0  0  0  0  0
  150.5558  140.8398  156.8574 C   0  0  0  0  0  0  0  0  0  0  0  0
  150.1949  141.8970  156.3394 O   0  0  0  0  0  0  0  0  0  0  0  0
  150.2484  139.4940  156.1701 C   0  0  2  0  0  0  0  0  0  0  0  0
  149.5968  139.6191  154.7721 C   0  0  0  0  0  0  0  0  0  0  0  0
  148.2005  140.1056  154.8749 N   0  3  1  0  0  0  0  0  0  0  0  0
  147.5665  140.3028  153.5540 C   0  0  0  0  0  0  0  0  0  0  0  0
  147.4059  139.2314  155.7668 C   0  0  0  0  0  0  0  0  0  0  0  0
  148.0757  139.1242  157.1464 C   0  0  0  0  0  0  0  0  0  0  0  0
  149.4213  138.6688  156.9985 O   0  0  0  0  0  0  0  0  0  0  0  0
  151.7673  141.5444  160.2720 C   0  0  0  0  0  0  0  0  0  0  0  0
  151.4800  139.9483  160.8832 Cl  0  0  0  0  0  0  0  0  0  0  0  0
  152.1548  141.4204  162.9679 H   0  0  0  0  0  0  0  0  0  0  0  0
  151.7247  143.1131  163.1663 H   0  0  0  0  0  0  0  0  0  0  0  0
  153.4052  142.6552  162.8845 H   0  0  0  0  0  0  0  0  0  0  0  0
  152.4583  145.1147  159.0336 H   0  0  0  0  0  0  0  0  0  0  0  0
  151.7663  143.3891  157.3847 H   0  0  0  0  0  0  0  0  0  0  0  0
  151.3571  139.8269  158.3938 H   0  0  0  0  0  0  0  0  0  0  0  0
  151.2045  138.9821  156.0569 H   0  0  0  0  0  0  0  0  0  0  0  0
  150.1776  140.2883  154.1355 H   0  0  0  0  0  0  0  0  0  0  0  0
  149.6024  138.6457  154.2791 H   0  0  0  0  0  0  0  0  0  0  0  0
  147.4945  139.3610  153.0084 H   0  0  0  0  0  0  0  0  0  0  0  0
  148.1451  141.0043  152.9520 H   0  0  0  0  0  0  0  0  0  0  0  0
  146.5617  140.7116  153.6667 H   0  0  0  0  0  0  0  0  0  0  0  0
  146.3976  139.6322  155.8760 H   0  0  0  0  0  0  0  0  0  0  0  0
  147.3115  138.2406  155.3197 H   0  0  0  0  0  0  0  0  0  0  0  0
  148.0398  140.0802  157.6703 H   0  0  0  0  0  0  0  0  0  0  0  0
  147.5344  138.4114  157.7689 H   0  0  0  0  0  0  0  0  0  0  0  0
  148.2410  141.0145  155.3146 H   0  0  0  0  0  0  0  0  0  0  0  0
  1  2  1  0  0  0  0
  1 19  1  0  0  0  0
  1 20  1  0  0  0  0
  1 21  1  0  0  0  0
  2 17  1  0  0  0  0
  2  3  2  0  0  0  0
  3  4  1  0  0  0  0
  4  5  2  0  0  0  0
  4 22  1  0  0  0  0
  5  6  1  0  0  0  0
  5 23  1  0  0  0  0
  6  7  1  0  0  0  0
  6 17  2  0  0  0  0
  7  8  1  0  0  0  0
  7 24  1  0  0  0  0
  8  9  2  0  0  0  0
  8 10  1  0  0  0  0
 10 16  1  0  0  0  0
 10 11  1  0  0  0  0
 10 25  1  0  0  0  0
 11 12  1  0  0  0  0
 11 26  1  0  0  0  0
 11 27  1  0  0  0  0
 12 13  1  0  0  0  0
 12 14  1  0  0  0  0
 12 35  1  0  0  0  0
 13 28  1  0  0  0  0
 13 29  1  0  0  0  0
 13 30  1  0  0  0  0
 14 15  1  0  0  0  0
 14 31  1  0  0  0  0
 14 32  1  0  0  0  0
 15 16  1  0  0  0  0
 15 33  1  0  0  0  0
 15 34  1  0  0  0  0
 17 18  1  0  0  0  0
M  CHG  1  12   1
M  END
> <s_m_source_file>
AV-unprocessed.smi

> <i_m_source_file_index>
2482

> <i_lp_mmshare_version>
43012

> <i_f3d_flags>
0

> <s_epik_input>
W0NIM11jMW5bY0hdW2NIXWMoYzFDbClbTkhdQyg9TylbQ0BASF0yW0NIMl1OKFtDSDNdKVtDSDJdW0NIMl1PMg==

> <s_epik_cmdline>
J2VwaWtfcHl0aG9uJywgJy1waCcsICc3LjAnLCAnLXRuJywgJzgnLCAnLW1hJywgJzIwMCcsICctbWV0YWxfYmluZGluZycsICctaW1hZScsICc8aW5maWxlLm1hZT4nLCAnLW9tYWUnLCAnPG91dGZpbGUubWFlPic=

> <r_epik_Ionization_Penalty>
0.314226

> <r_epik_Ionization_Penalty_Charging>
0.314023

> <r_epik_Ionization_Penalty_Neutral>
0.00020299

> <r_epik_State_Penalty>
0.308208

> <r_epik_Charging_Adjusted_Penalty>
0.62223

> <i_epik_Tot_Q>
1

> <i_epik_Tot_abs_Q>
1

> <r_epik_Metal_State_Penalty>
0.314444

> <b_epik_Metal_Only>
0

> <s_lp_Force_Field>
OPLS_2005

> <r_lp_Energy>
21.5381

> <b_lp_Chiralities_Consistent>
1

> <s_lp_Variant>
AV-unprocessed.smi:2482-3

> <Gold.Version>
5.8.1

> <Gold.Id.Protein>
6NUR|6NUR_protein|mol2

> <Gold.PLP.Fitness>
31.0669

> <Gold.PLP.PLP>
-31.4005

> <Gold.PLP.part.hbond>
0.0000

> <Gold.PLP.part.metal>
0.0000

> <Gold.PLP.part.buried>
-2.2806

> <Gold.PLP.part.nonpolar>
-28.4277

> <Gold.PLP.part.repulsive>
0.3901

> <Gold.PLP.ligand.clash>
0.0000

> <Gold.PLP.ligand.torsion>
0.1762

> <Gold.PLP.Chemscore.Hbond>
0.0000

> <Gold.PLP.Chemscore.CHOScore>
0.0000

> <Gold.PLP.Chemscore.Metal>
0.0000

> <Gold.PLP.Chemscore.Internal.Correction>
0.0188

> <Gold.Rescore>
     Score         DG    S(hbond)    S(metal)    S(lipo)     H(rot)  DE(clash)    DE(int)     intcor
     11.94     -13.73       0.00        0.00      92.38       1.00       0.29       1.50       ----

> <Gold.Chemscore.Fitness>
11.9360

> <Gold.Chemscore.DG>
-13.7288

> <Gold.Chemscore.ZeroCoef>
-5.4800

> <Gold.Chemscore.Hbond>
0.0000

> <Gold.Chemscore.Metal>
0.0000

> <Gold.Chemscore.Lipo>
92.3831

> <Gold.Chemscore.Internal_Hbond>
0.0000

> <Gold.Chemscore.DEClash>
0.2927

> <Gold.Chemscore.DEInternal>
1.5001

> <Gold.Chemscore.Rot>
1.0000

> <Gold.Chemscore.Internal.Correction>
   9.000000E+99

> <Gold.Chemscore.Hbond.Weighted>
-0.0000

> <Gold.Chemscore.Metal.Weighted>
-0.0000

> <Gold.Chemscore.Lipo.Weighted>
-10.8088

> <Gold.Chemscore.Internal_Hbond.Weighted>
0.0000

> <Gold.Chemscore.DEClash.Weighted>
0.2927

> <Gold.Chemscore.DEInternal.Weighted>
1.5001

> <Gold.Chemscore.Rot.Weighted>
2.5600

> <Gold.Chemscore.Internal.Correction.Weighted>
   9.000000E+99

> <Gold.Protein.RotatedTorsions>
[ 6907 6896 6895 6894 ] final  -21.34 input  -60.11 | X-H torsion
[ 7974 7965 7964 7962 ] final -173.69 input  175.53 | X-H torsion
[ 8008 7997 7996 7995 ] final  115.83 input   59.86 | X-H torsion
[ 10167 10162 10161 10158 ] final    7.29 input  -65.29 | X-H torsion
[ 10718 10713 10712 10709 ] final  -80.61 input   66.30 | X-H torsion
[ 10763 10752 10751 10750 ] final -104.42 input  -60.55 | X-H torsion
[ 11005 11000 10999 10996 ] final  -50.02 input  -57.11 | X-H torsion

> <Gold.Protein.ActiveResidues>
 VAL166  LYS551  ARG553  GLY616  TRP617  ASP618  TYR619  PRO620  LYS621  CYS622 
 ASP623  PHE694  ASN695  SER759  ASP760  ASP761  ALA762  ILE779  LEU786  VAL792 
 PHE793  MET794  SER795  GLU796  ALA797  LYS798  CYS799  TRP800  GLU811  SER814 

> <Gold.Protein.RotatedAtoms>
  151.2347  135.0567  159.9001 H   0  0  0  0  0  0  0  0  0  0  0  0  # atno 6907 bound_to 6896
  152.5400  134.0499  159.8115 H   0  0  0  0  0  0  0  0  0  0  0  0  # atno 6908 bound_to 6896
  151.0684  133.5438  159.2660 H   0  0  0  0  0  0  0  0  0  0  0  0  # atno 6909 bound_to 6896
  144.7136  140.1584  143.6378 H   0  0  0  0  0  0  0  0  0  0  0  0  # atno 7974 bound_to 7965
  156.2404  140.2930  156.0429 H   0  0  0  0  0  0  0  0  0  0  0  0  # atno 8008 bound_to 7997
  155.1967  140.0408  157.2927 H   0  0  0  0  0  0  0  0  0  0  0  0  # atno 8009 bound_to 7997
  154.6158  140.2463  155.7619 H   0  0  0  0  0  0  0  0  0  0  0  0  # atno 8010 bound_to 7997
  140.6380  143.7841  150.7387 H   0  0  0  0  0  0  0  0  0  0  0  0  # atno 10167 bound_to 10162
  156.0066  130.4579  150.3827 H   0  0  0  0  0  0  0  0  0  0  0  0  # atno 10718 bound_to 10713
  154.7877  135.4787  153.9982 H   0  0  0  0  0  0  0  0  0  0  0  0  # atno 10763 bound_to 10752
  153.1584  135.6804  153.8785 H   0  0  0  0  0  0  0  0  0  0  0  0  # atno 10764 bound_to 10752
  153.8407  135.3179  155.3404 H   0  0  0  0  0  0  0  0  0  0  0  0  # atno 10765 bound_to 10752
  141.0792  133.6657  156.3671 H   0  0  0  0  0  0  0  0  0  0  0  0  # atno 11005 bound_to 11000
  145.9053  139.2454  143.1469 LP  0  0  0  0  0  0  0  0  0  0  0  0  # atno 17320 bound_to 7965
  145.9770  140.8713  143.0133 LP  0  0  0  0  0  0  0  0  0  0  0  0  # atno 17321 bound_to 7965
  140.1467  143.4394  152.2158 LP  0  0  0  0  0  0  0  0  0  0  0  0  # atno 17342 bound_to 10162
  139.5590  144.7392  151.4211 LP  0  0  0  0  0  0  0  0  0  0  0  0  # atno 17343 bound_to 10162
  157.1906  131.0414  151.2702 LP  0  0  0  0  0  0  0  0  0  0  0  0  # atno 17370 bound_to 10713
  157.4065  130.7361  149.6806 LP  0  0  0  0  0  0  0  0  0  0  0  0  # atno 17371 bound_to 10713
  140.5505  134.6032  157.5406 LP  0  0  0  0  0  0  0  0  0  0  0  0  # atno 17394 bound_to 11000
  139.9606  134.7460  156.0246 LP  0  0  0  0  0  0  0  0  0  0  0  0  # atno 17395 bound_to 11000

$$$$
