AV-unprocessed.smi:769|AV-procd|sdf|3677|dock4
  -GOLD-   22720 1 93D 1   1.00000     0.00000
 Structure written by MMmdl.
 51 53  0  0  0  0  0  0  0  0  3 V2000
  144.9420  137.4425  153.2751 O   0  0  0  0  0  0  0  0  0  0  0  0
  146.0669  137.2401  152.8188 C   0  0  0  0  0  0  0  0  0  0  0  0
  147.0776  138.1124  152.9433 N   0  0  0  0  0  0  0  0  0  0  0  0
  146.9974  139.3852  153.6517 C   0  0  0  0  0  0  0  0  0  0  0  0
  148.3830  140.0449  153.7968 C   0  0  0  0  0  0  0  0  0  0  0  0
  148.8606  140.0640  155.2021 N   0  3  0  0  0  0  0  0  0  0  0  0
  150.2690  140.5337  155.3073 C   0  0  0  0  0  0  0  0  0  0  0  0
  150.7551  140.5516  156.7684 C   0  0  0  0  0  0  0  0  0  0  0  0
  149.8355  141.3707  157.5627 N   0  0  0  0  0  0  0  0  0  0  0  0
  150.1935  142.5565  158.1131 C   0  0  0  0  0  0  0  0  0  0  0  0
  149.3811  143.2753  158.6963 O   0  0  0  0  0  0  0  0  0  0  0  0
  151.6719  142.9970  158.0445 C   0  0  0  0  0  0  0  0  0  0  0  0
  152.3144  143.4598  159.3678 C   0  0  0  0  0  0  0  0  0  0  0  0
  152.1328  144.9154  158.9275 C   0  0  0  0  0  0  0  0  0  0  0  0
  151.8749  144.4215  157.5003 C   0  0  0  0  0  0  0  0  0  0  0  0
  148.4887  140.7926  157.5680 C   0  0  0  0  0  0  0  0  0  0  0  0
  147.9427  140.7854  156.1287 C   0  0  0  0  0  0  0  0  0  0  0  0
  146.4430  136.1507  152.1261 N   0  0  0  0  0  0  0  0  0  0  0  0
  145.6783  134.9988  151.7928 C   0  0  0  0  0  0  0  0  0  0  0  0
  146.3512  133.9336  151.1535 C   0  0  0  0  0  0  0  0  0  0  0  0
  145.6412  132.7637  150.8151 C   0  0  0  0  0  0  0  0  0  0  0  0
  144.3278  132.6652  151.1115 N   0  3  0  0  0  0  0  0  0  0  0  0
  143.6443  133.6496  151.7333 C   0  0  0  0  0  0  0  0  0  0  0  0
  144.3012  134.8431  152.0967 C   0  0  0  0  0  0  0  0  0  0  0  0
  147.9701  137.8722  152.5362 H   0  0  0  0  0  0  0  0  0  0  0  0
  146.2960  140.0363  153.1289 H   0  0  0  0  0  0  0  0  0  0  0  0
  146.5705  139.1977  154.6372 H   0  0  0  0  0  0  0  0  0  0  0  0
  149.0907  139.4810  153.1869 H   0  0  0  0  0  0  0  0  0  0  0  0
  148.3800  141.0619  153.4015 H   0  0  0  0  0  0  0  0  0  0  0  0
  150.9170  139.8851  154.7166 H   0  0  0  0  0  0  0  0  0  0  0  0
  150.3475  141.5353  154.8808 H   0  0  0  0  0  0  0  0  0  0  0  0
  150.7742  139.5379  157.1716 H   0  0  0  0  0  0  0  0  0  0  0  0
  151.7860  140.9055  156.8083 H   0  0  0  0  0  0  0  0  0  0  0  0
  152.2978  142.2514  157.5529 H   0  0  0  0  0  0  0  0  0  0  0  0
  151.7825  143.2058  160.2852 H   0  0  0  0  0  0  0  0  0  0  0  0
  153.3642  143.1724  159.4393 H   0  0  0  0  0  0  0  0  0  0  0  0
  151.2546  145.3827  159.3754 H   0  0  0  0  0  0  0  0  0  0  0  0
  153.0223  145.5363  159.0383 H   0  0  0  0  0  0  0  0  0  0  0  0
  152.7520  144.5002  156.8564 H   0  0  0  0  0  0  0  0  0  0  0  0
  150.9987  144.8726  157.0323 H   0  0  0  0  0  0  0  0  0  0  0  0
  148.5445  139.7711  157.9469 H   0  0  0  0  0  0  0  0  0  0  0  0
  147.7923  141.3031  158.2312 H   0  0  0  0  0  0  0  0  0  0  0  0
  147.8082  141.8112  155.7816 H   0  0  0  0  0  0  0  0  0  0  0  0
  146.9584  140.3190  156.1264 H   0  0  0  0  0  0  0  0  0  0  0  0
  147.3807  136.1679  151.7521 H   0  0  0  0  0  0  0  0  0  0  0  0
  147.4029  134.0098  150.9178 H   0  0  0  0  0  0  0  0  0  0  0  0
  146.0819  131.9095  150.3216 H   0  0  0  0  0  0  0  0  0  0  0  0
  142.5997  133.4524  151.9263 H   0  0  0  0  0  0  0  0  0  0  0  0
  143.7367  135.6057  152.6105 H   0  0  0  0  0  0  0  0  0  0  0  0
  148.8754  139.1022  155.5104 H   0  0  0  0  0  0  0  0  0  0  0  0
  143.8319  131.8098  150.8589 H   0  0  0  0  0  0  0  0  0  0  0  0
  1  2  2  0  0  0  0
  2  3  1  0  0  0  0
  2 18  1  0  0  0  0
  3  4  1  0  0  0  0
  3 25  1  0  0  0  0
  4  5  1  0  0  0  0
  4 26  1  0  0  0  0
  4 27  1  0  0  0  0
  5  6  1  0  0  0  0
  5 28  1  0  0  0  0
  5 29  1  0  0  0  0
  6 17  1  0  0  0  0
  6  7  1  0  0  0  0
  6 50  1  0  0  0  0
  7  8  1  0  0  0  0
  7 30  1  0  0  0  0
  7 31  1  0  0  0  0
  8  9  1  0  0  0  0
  8 32  1  0  0  0  0
  8 33  1  0  0  0  0
  9 10  1  0  0  0  0
  9 16  1  0  0  0  0
 10 11  2  0  0  0  0
 10 12  1  0  0  0  0
 12 15  1  0  0  0  0
 12 13  1  0  0  0  0
 12 34  1  0  0  0  0
 13 14  1  0  0  0  0
 13 35  1  0  0  0  0
 13 36  1  0  0  0  0
 14 15  1  0  0  0  0
 14 37  1  0  0  0  0
 14 38  1  0  0  0  0
 15 39  1  0  0  0  0
 15 40  1  0  0  0  0
 16 17  1  0  0  0  0
 16 41  1  0  0  0  0
 16 42  1  0  0  0  0
 17 43  1  0  0  0  0
 17 44  1  0  0  0  0
 18 19  1  0  0  0  0
 18 45  1  0  0  0  0
 19 24  1  0  0  0  0
 19 20  2  0  0  0  0
 20 21  1  0  0  0  0
 20 46  1  0  0  0  0
 21 22  2  0  0  0  0
 21 47  1  0  0  0  0
 22 23  1  0  0  0  0
 22 51  1  0  0  0  0
 23 24  2  0  0  0  0
 23 48  1  0  0  0  0
 24 49  1  0  0  0  0
M  CHG  1   6   1
M  CHG  1  22   1
M  END
> <s_m_source_file>
AV-unprocessed.smi

> <i_m_source_file_index>
769

> <i_lp_mmshare_version>
43012

> <i_f3d_flags>
0

> <s_epik_input>
W2NIXTFbY0hdbltjSF1bY0hdYzFbTkhdQyg9TylbTkhdW0NIMl1bQ0gyXU4yW0NIMl1bQ0gyXU4oW0NIMl1bQ0gyXTIpQyg9TylbQ0hdM1tDSDJdW0NIMl1bQ0gyXTM=

> <s_epik_cmdline>
J2VwaWtfcHl0aG9uJywgJy1waCcsICc3LjAnLCAnLXRuJywgJzgnLCAnLW1hJywgJzIwMCcsICctbWV0YWxfYmluZGluZycsICctaW1hZScsICc8aW5maWxlLm1hZT4nLCAnLW9tYWUnLCAnPG91dGZpbGUubWFlPic=

> <r_epik_Ionization_Penalty>
1.74797

> <r_epik_Ionization_Penalty_Charging>
1.74795

> <r_epik_Ionization_Penalty_Neutral>
1.97893e-05

> <r_epik_State_Penalty>
1.75255

> <r_epik_Charging_Adjusted_Penalty>
3.5005

> <i_epik_Tot_Q>
2

> <i_epik_Tot_abs_Q>
2

> <r_epik_Metal_State_Penalty>
1.84999

> <b_epik_Metal_Only>
0

> <s_lp_Force_Field>
OPLS_2005

> <r_lp_Energy>
63.8018

> <b_lp_Chiralities_Consistent>
1

> <s_lp_Variant>
AV-unprocessed.smi:769-4

> <Gold.Version>
5.8.1

> <Gold.Id.Protein>
6NUR|6NUR_protein|mol2

> <Gold.PLP.Fitness>
46.6701

> <Gold.PLP.PLP>
-41.9736

> <Gold.PLP.part.hbond>
-2.0000

> <Gold.PLP.part.metal>
0.0000

> <Gold.PLP.part.buried>
-4.9724

> <Gold.PLP.part.nonpolar>
-35.9603

> <Gold.PLP.part.repulsive>
0.5315

> <Gold.PLP.ligand.clash>
0.0000

> <Gold.PLP.ligand.torsion>
0.6009

> <Gold.PLP.Chemscore.Hbond>
1.8160

> <Gold.PLP.Chemscore.CHOScore>
0.0000

> <Gold.PLP.Chemscore.Metal>
0.0000

> <Gold.Chemscore.Hbonds>
donor molecule, donor type, donor heavy atom, donor atom, acceptor molecule, acceptor atom, score
      L1  H     3    25       P1  7948  0.80
      L1  H    18    45       P1  7948  1.00

> <Gold.PLP.Chemscore.Internal.Correction>
0.4504

> <Gold.Rescore>
     Score         DG    S(hbond)    S(metal)    S(lipo)     H(rot)  DE(clash)    DE(int)     intcor
     17.47     -19.50       1.89        0.00     104.48       1.76       0.22       1.81       ----

> <Gold.Chemscore.Fitness>
17.4655

> <Gold.Chemscore.DG>
-19.5003

> <Gold.Chemscore.ZeroCoef>
-5.4800

> <Gold.Chemscore.Hbond>
1.8879

> <Gold.Chemscore.Metal>
0.0000

> <Gold.Chemscore.Lipo>
104.4763

> <Gold.Chemscore.Internal_Hbond>
0.0000

> <Gold.Chemscore.DEClash>
0.2250

> <Gold.Chemscore.DEInternal>
1.8098

> <Gold.Chemscore.Rot>
1.7614

> <Gold.Chemscore.Internal.Correction>
   9.000000E+99

> <Gold.Chemscore.Hbonds>
donor molecule, donor type, donor heavy atom, donor atom, acceptor molecule, acceptor atom, score
      L1  H     3    25       P1  7948  0.76
      L1  H    18    45       P1  7948  0.94

> <Gold.Chemscore.Hbond.Weighted>
-6.3057

> <Gold.Chemscore.Metal.Weighted>
-0.0000

> <Gold.Chemscore.Lipo.Weighted>
-12.2237

> <Gold.Chemscore.Internal_Hbond.Weighted>
0.0000

> <Gold.Chemscore.DEClash.Weighted>
0.2250

> <Gold.Chemscore.DEInternal.Weighted>
1.8098

> <Gold.Chemscore.Rot.Weighted>
4.5091

> <Gold.Chemscore.Internal.Correction.Weighted>
   9.000000E+99

> <Gold.Protein.RotatedTorsions>
[ 6907 6896 6895 6894 ] final  -21.05 input  -60.11 | X-H torsion
[ 7974 7965 7964 7962 ] final    7.49 input  175.53 | X-H torsion
[ 8008 7997 7996 7995 ] final  -86.97 input   59.86 | X-H torsion
[ 10167 10162 10161 10158 ] final  138.19 input  -65.29 | X-H torsion
[ 10718 10713 10712 10709 ] final   70.38 input   66.30 | X-H torsion
[ 10763 10752 10751 10750 ] final   76.30 input  -60.55 | X-H torsion
[ 11005 11000 10999 10996 ] final  164.10 input  -57.11 | X-H torsion

> <Gold.Protein.ActiveResidues>
 VAL166  LYS551  ARG553  GLY616  TRP617  ASP618  TYR619  PRO620  LYS621  CYS622 
 ASP623  PHE694  ASN695  SER759  ASP760  ASP761  ALA762  ILE779  LEU786  VAL792 
 PHE793  MET794  SER795  GLU796  ALA797  LYS798  CYS799  TRP800  GLU811  SER814 

> <Gold.Protein.RotatedAtoms>
  151.2391  135.0582  159.9017 H   0  0  0  0  0  0  0  0  0  0  0  0  # atno 6907 bound_to 6896
  152.5395  134.0454  159.8096 H   0  0  0  0  0  0  0  0  0  0  0  0  # atno 6908 bound_to 6896
  151.0645  133.5468  159.2663 H   0  0  0  0  0  0  0  0  0  0  0  0  # atno 6909 bound_to 6896
  146.2426  140.0075  142.8410 H   0  0  0  0  0  0  0  0  0  0  0  0  # atno 7974 bound_to 7965
  154.6579  140.0571  157.0030 H   0  0  0  0  0  0  0  0  0  0  0  0  # atno 8008 bound_to 7997
  155.1272  140.3253  155.4464 H   0  0  0  0  0  0  0  0  0  0  0  0  # atno 8009 bound_to 7997
  156.2605  140.1987  156.6392 H   0  0  0  0  0  0  0  0  0  0  0  0  # atno 8010 bound_to 7997
  139.5119  144.6367  151.5677 H   0  0  0  0  0  0  0  0  0  0  0  0  # atno 10167 bound_to 10162
  157.6396  130.9474  150.0642 H   0  0  0  0  0  0  0  0  0  0  0  0  # atno 10718 bound_to 10713
  153.0716  135.4956  154.8316 H   0  0  0  0  0  0  0  0  0  0  0  0  # atno 10763 bound_to 10752
  154.7030  135.3005  154.9315 H   0  0  0  0  0  0  0  0  0  0  0  0  # atno 10764 bound_to 10752
  154.0033  135.6763  153.4813 H   0  0  0  0  0  0  0  0  0  0  0  0  # atno 10765 bound_to 10752
  140.2425  134.8040  157.3424 H   0  0  0  0  0  0  0  0  0  0  0  0  # atno 11005 bound_to 11000
  145.1358  140.9544  143.4517 LP  0  0  0  0  0  0  0  0  0  0  0  0  # atno 17320 bound_to 7965
  145.0343  139.3314  143.6009 LP  0  0  0  0  0  0  0  0  0  0  0  0  # atno 17321 bound_to 7965
  140.6119  143.9421  150.6459 LP  0  0  0  0  0  0  0  0  0  0  0  0  # atno 17342 bound_to 10162
  140.2666  143.3486  152.1275 LP  0  0  0  0  0  0  0  0  0  0  0  0  # atno 17343 bound_to 10162
  156.1666  130.3645  149.9224 LP  0  0  0  0  0  0  0  0  0  0  0  0  # atno 17370 bound_to 10713
  156.7210  130.9006  151.3618 LP  0  0  0  0  0  0  0  0  0  0  0  0  # atno 17371 bound_to 10713
  140.1639  134.4694  155.7876 LP  0  0  0  0  0  0  0  0  0  0  0  0  # atno 17394 bound_to 11000
  141.2209  133.6913  156.7591 LP  0  0  0  0  0  0  0  0  0  0  0  0  # atno 17395 bound_to 11000

$$$$
