AV-unprocessed.smi:2448|AV-procd|sdf|9653|dock4
  -GOLD-   2272013283D 1   1.00000     0.00000
 Structure written by MMmdl.
 37 38  0  0  0  0  0  0  0  0  1 V2000
  149.8811  143.3098  159.3602 O   0  0  0  0  0  0  0  0  0  0  0  0
  151.2306  143.4050  158.9405 C   0  0  1  0  0  0  0  0  0  0  0  0
  151.4029  142.5138  157.6937 C   0  0  0  0  0  0  0  0  0  0  0  0
  151.2344  141.0937  158.0065 N   0  0  0  0  0  0  0  0  0  0  0  0
  151.7945  140.1390  157.0378 C   0  0  1  0  0  0  0  0  0  0  0  0
  152.3319  138.8432  157.7013 C   0  0  0  0  0  0  0  0  0  0  0  0
  153.5188  139.0361  158.6324 C   0  0  0  0  0  0  0  0  0  0  0  0
  153.4682  139.9828  159.6776 C   0  0  0  0  0  0  0  0  0  0  0  0
  154.5920  140.1210  160.5166 C   0  0  0  0  0  0  0  0  0  0  0  0
  155.7168  139.3873  160.3766 N   0  0  0  0  0  0  0  0  0  0  0  0
  155.7552  138.4750  159.3821 C   0  0  0  0  0  0  0  0  0  0  0  0
  154.6875  138.2588  158.4881 C   0  0  0  0  0  0  0  0  0  0  0  0
  150.7332  139.8160  155.9647 C   0  0  0  0  0  0  0  0  0  0  0  0
  149.6884  139.2078  156.5283 F   0  0  0  0  0  0  0  0  0  0  0  0
  150.2972  140.9379  155.3916 F   0  0  0  0  0  0  0  0  0  0  0  0
  151.2407  139.0176  155.0248 F   0  0  0  0  0  0  0  0  0  0  0  0
  151.6052  144.8814  158.7176 C   0  0  0  0  0  0  0  0  0  0  0  0
  151.7226  145.5485  160.0918 C   0  0  0  0  0  0  0  0  0  0  0  0
  152.3498  144.3098  161.2530 S   0  0  0  0  0  0  0  0  0  0  0  0
  152.1164  142.9269  160.1040 C   0  0  0  0  0  0  0  0  0  0  0  0
  149.8437  142.7405  160.1136 H   0  0  0  0  0  0  0  0  0  0  0  0
  150.6664  142.8053  156.9438 H   0  0  0  0  0  0  0  0  0  0  0  0
  152.3825  142.7015  157.2591 H   0  0  0  0  0  0  0  0  0  0  0  0
  150.2478  140.8930  158.1377 H   0  0  0  0  0  0  0  0  0  0  0  0
  152.6133  140.6231  156.5049 H   0  0  0  0  0  0  0  0  0  0  0  0
  151.5239  138.3307  158.2251 H   0  0  0  0  0  0  0  0  0  0  0  0
  152.6674  138.1483  156.9313 H   0  0  0  0  0  0  0  0  0  0  0  0
  152.5926  140.5960  159.8327 H   0  0  0  0  0  0  0  0  0  0  0  0
  154.5865  140.8405  161.3221 H   0  0  0  0  0  0  0  0  0  0  0  0
  156.6640  137.8979  159.2963 H   0  0  0  0  0  0  0  0  0  0  0  0
  154.7683  137.5112  157.7129 H   0  0  0  0  0  0  0  0  0  0  0  0
  152.5723  144.9350  158.2154 H   0  0  0  0  0  0  0  0  0  0  0  0
  150.8885  145.4038  158.0827 H   0  0  0  0  0  0  0  0  0  0  0  0
  152.3683  146.4263  160.0685 H   0  0  0  0  0  0  0  0  0  0  0  0
  150.7393  145.8695  160.4367 H   0  0  0  0  0  0  0  0  0  0  0  0
  151.7091  142.0539  160.6156 H   0  0  0  0  0  0  0  0  0  0  0  0
  153.1045  142.6511  159.7339 H   0  0  0  0  0  0  0  0  0  0  0  0
  1  2  1  0  0  0  0
  1 21  1  0  0  0  0
  2 20  1  0  0  0  0
  2  3  1  0  0  0  0
  2 17  1  0  0  0  0
  3  4  1  0  0  0  0
  3 22  1  0  0  0  0
  3 23  1  0  0  0  0
  4  5  1  0  0  0  0
  4 24  1  0  0  0  0
  5  6  1  0  0  0  0
  5 13  1  0  0  0  0
  5 25  1  0  0  0  0
  6  7  1  0  0  0  0
  6 26  1  0  0  0  0
  6 27  1  0  0  0  0
  7 12  1  0  0  0  0
  7  8  2  0  0  0  0
  8  9  1  0  0  0  0
  8 28  1  0  0  0  0
  9 10  2  0  0  0  0
  9 29  1  0  0  0  0
 10 11  1  0  0  0  0
 11 12  2  0  0  0  0
 11 30  1  0  0  0  0
 12 31  1  0  0  0  0
 13 14  1  0  0  0  0
 13 15  1  0  0  0  0
 13 16  1  0  0  0  0
 17 18  1  0  0  0  0
 17 32  1  0  0  0  0
 17 33  1  0  0  0  0
 18 19  1  0  0  0  0
 18 34  1  0  0  0  0
 18 35  1  0  0  0  0
 19 20  1  0  0  0  0
 20 36  1  0  0  0  0
 20 37  1  0  0  0  0
M  END
> <s_m_source_file>
AV-unprocessed.smi

> <i_m_source_file_index>
2448

> <i_lp_mmshare_version>
43012

> <i_f3d_flags>
0

> <s_epik_input>
W0NIMl0xU1tDSDJdW0NIMl1bQ0BAXTEoW09IXSlbQ0gyXVtOSF1bQ0BASF0oQyhGKShGKUYpW0NIMl1jMltjSF1bY0hdbltjSF1bY0hdMg==

> <s_epik_cmdline>
J2VwaWtfcHl0aG9uJywgJy1waCcsICc3LjAnLCAnLXRuJywgJzgnLCAnLW1hJywgJzIwMCcsICctbWV0YWxfYmluZGluZycsICctaW1hZScsICc8aW5maWxlLm1hZT4nLCAnLW9tYWUnLCAnPG91dGZpbGUubWFlPic=

> <r_epik_Ionization_Penalty>
0.187708

> <r_epik_Ionization_Penalty_Charging>
0

> <r_epik_Ionization_Penalty_Neutral>
0.187708

> <r_epik_State_Penalty>
0.22769

> <r_epik_Charging_Adjusted_Penalty>
0.22769

> <i_epik_Tot_Q>
0

> <i_epik_Tot_abs_Q>
0

> <r_epik_Metal_State_Penalty>
0.176206

> <b_epik_Metal_Only>
0

> <s_lp_Force_Field>
OPLS_2005

> <r_lp_Energy>
32.0446

> <b_lp_Chiralities_Consistent>
1

> <s_lp_Variant>
AV-unprocessed.smi:2448-3

> <Gold.Version>
5.8.1

> <Gold.Id.Protein>
6NUR|6NUR_protein|mol2

> <Gold.PLP.Fitness>
36.9983

> <Gold.PLP.PLP>
-37.8020

> <Gold.PLP.part.hbond>
-0.7597

> <Gold.PLP.part.metal>
0.0000

> <Gold.PLP.part.buried>
-3.2203

> <Gold.PLP.part.nonpolar>
-33.4304

> <Gold.PLP.part.repulsive>
0.0000

> <Gold.PLP.ligand.clash>
0.0000

> <Gold.PLP.ligand.torsion>
0.6387

> <Gold.PLP.Chemscore.Hbond>
0.0000

> <Gold.PLP.Chemscore.CHOScore>
0.0000

> <Gold.PLP.Chemscore.Metal>
0.0000

> <Gold.PLP.Chemscore.Internal.Correction>
0.4736

> <Gold.Rescore>
     Score         DG    S(hbond)    S(metal)    S(lipo)     H(rot)  DE(clash)    DE(int)     intcor
     11.50     -12.34       0.00        0.00     109.21       2.31       0.04       0.81       ----

> <Gold.Chemscore.Fitness>
11.4952

> <Gold.Chemscore.DG>
-12.3413

> <Gold.Chemscore.ZeroCoef>
-5.4800

> <Gold.Chemscore.Hbond>
0.0000

> <Gold.Chemscore.Metal>
0.0000

> <Gold.Chemscore.Lipo>
109.2108

> <Gold.Chemscore.Internal_Hbond>
0.0000

> <Gold.Chemscore.DEClash>
0.0402

> <Gold.Chemscore.DEInternal>
0.8059

> <Gold.Chemscore.Rot>
2.3111

> <Gold.Chemscore.Internal.Correction>
   9.000000E+99

> <Gold.Chemscore.Hbond.Weighted>
-0.0000

> <Gold.Chemscore.Metal.Weighted>
-0.0000

> <Gold.Chemscore.Lipo.Weighted>
-12.7777

> <Gold.Chemscore.Internal_Hbond.Weighted>
0.0000

> <Gold.Chemscore.DEClash.Weighted>
0.0402

> <Gold.Chemscore.DEInternal.Weighted>
0.8059

> <Gold.Chemscore.Rot.Weighted>
5.9164

> <Gold.Chemscore.Internal.Correction.Weighted>
   9.000000E+99

> <Gold.Protein.RotatedTorsions>
[ 6907 6896 6895 6894 ] final   81.05 input  -60.11 | X-H torsion
[ 7974 7965 7964 7962 ] final -135.30 input  175.53 | X-H torsion
[ 8008 7997 7996 7995 ] final   55.55 input   59.86 | X-H torsion
[ 10167 10162 10161 10158 ] final -105.91 input  -65.29 | X-H torsion
[ 10718 10713 10712 10709 ] final    4.53 input   66.30 | X-H torsion
[ 10763 10752 10751 10750 ] final  -50.90 input  -60.55 | X-H torsion
[ 11005 11000 10999 10996 ] final  -72.04 input  -57.11 | X-H torsion

> <Gold.Protein.ActiveResidues>
 VAL166  LYS551  ARG553  GLY616  TRP617  ASP618  TYR619  PRO620  LYS621  CYS622 
 ASP623  PHE694  ASN695  SER759  ASP760  ASP761  ALA762  ILE779  LEU786  VAL792 
 PHE793  MET794  SER795  GLU796  ALA797  LYS798  CYS799  TRP800  GLU811  SER814 

> <Gold.Protein.RotatedAtoms>
  152.5255  134.3263  159.9166 H   0  0  0  0  0  0  0  0  0  0  0  0  # atno 6907 bound_to 6896
  151.3212  133.4033  159.2662 H   0  0  0  0  0  0  0  0  0  0  0  0  # atno 6908 bound_to 6896
  150.9957  134.9299  159.7983 H   0  0  0  0  0  0  0  0  0  0  0  0  # atno 6909 bound_to 6896
  144.9026  140.6791  143.5075 H   0  0  0  0  0  0  0  0  0  0  0  0  # atno 7974 bound_to 7965
  155.5029  140.3475  155.4374 H   0  0  0  0  0  0  0  0  0  0  0  0  # atno 8008 bound_to 7997
  156.0901  140.1408  156.9630 H   0  0  0  0  0  0  0  0  0  0  0  0  # atno 8009 bound_to 7997
  154.4630  140.0928  156.6921 H   0  0  0  0  0  0  0  0  0  0  0  0  # atno 8010 bound_to 7997
  140.1935  143.3874  152.1187 H   0  0  0  0  0  0  0  0  0  0  0  0  # atno 10167 bound_to 10162
  156.8940  130.5698  149.5649 H   0  0  0  0  0  0  0  0  0  0  0  0  # atno 10718 bound_to 10713
  154.1179  135.6539  153.4897 H   0  0  0  0  0  0  0  0  0  0  0  0  # atno 10763 bound_to 10752
  153.0235  135.5263  154.7127 H   0  0  0  0  0  0  0  0  0  0  0  0  # atno 10764 bound_to 10752
  154.6326  135.2978  155.0169 H   0  0  0  0  0  0  0  0  0  0  0  0  # atno 10765 bound_to 10752
  141.1602  133.6835  156.6998 H   0  0  0  0  0  0  0  0  0  0  0  0  # atno 11005 bound_to 11000
  145.3591  139.1686  143.4393 LP  0  0  0  0  0  0  0  0  0  0  0  0  # atno 17320 bound_to 7965
  146.3116  140.3651  142.8668 LP  0  0  0  0  0  0  0  0  0  0  0  0  # atno 17321 bound_to 7965
  139.5246  144.7086  151.5277 LP  0  0  0  0  0  0  0  0  0  0  0  0  # atno 17342 bound_to 10162
  140.6440  143.8832  150.6719 LP  0  0  0  0  0  0  0  0  0  0  0  0  # atno 17343 bound_to 10162
  156.0615  130.5666  150.9201 LP  0  0  0  0  0  0  0  0  0  0  0  0  # atno 17370 bound_to 10713
  157.6066  131.0938  150.8868 LP  0  0  0  0  0  0  0  0  0  0  0  0  # atno 17371 bound_to 10713
  140.2967  134.8196  157.4063 LP  0  0  0  0  0  0  0  0  0  0  0  0  # atno 17394 bound_to 11000
  140.1298  134.5110  155.8115 LP  0  0  0  0  0  0  0  0  0  0  0  0  # atno 17395 bound_to 11000

$$$$
