AV-unprocessed.smi:2193|AV-procd|sdf|8899|dock3
  -GOLD-   2272012113D 1   1.00000     0.00000
 Structure written by MMmdl.
 40 42  0  0  0  0  0  0  0  0  1 V2000
  147.0818  140.2111  157.6893 O   0  0  0  0  0  0  0  0  0  0  0  0
  146.4828  140.0226  156.4229 C   0  0  0  0  0  0  0  0  0  0  0  0
  145.9032  141.2750  155.8275 C   0  0  0  0  0  0  0  0  0  0  0  0
  144.9613  142.0025  156.4333 N   0  0  0  0  0  0  0  0  0  0  0  0
  144.7534  143.0379  155.5437 C   0  0  0  0  0  0  0  0  0  0  0  0
  143.8758  144.1438  155.6108 C   0  0  0  0  0  0  0  0  0  0  0  0
  143.8386  145.0902  154.5658 C   0  0  0  0  0  0  0  0  0  0  0  0
  144.6762  144.9440  153.4411 C   0  0  0  0  0  0  0  0  0  0  0  0
  145.5580  143.8494  153.3546 C   0  0  0  0  0  0  0  0  0  0  0  0
  145.5916  142.9077  154.4008 C   0  0  0  0  0  0  0  0  0  0  0  0
  146.3231  141.7448  154.6256 N   0  0  0  0  0  0  0  0  0  0  0  0
  147.3307  141.1730  153.7414 C   0  0  0  0  0  0  0  0  0  0  0  0
  148.6326  140.7978  154.4792 C   0  0  1  0  0  0  0  0  0  0  0  0
  149.7308  140.8599  153.5908 O   0  0  0  0  0  0  0  0  0  0  0  0
  148.9208  141.7235  155.6700 C   0  0  0  0  0  0  0  0  0  0  0  0
  150.1389  141.3232  156.2837 O   0  0  0  0  0  0  0  0  0  0  0  0
  150.5838  142.0354  157.3767 C   0  0  0  0  0  0  0  0  0  0  0  0
  151.8586  141.7033  157.8805 C   0  0  0  0  0  0  0  0  0  0  0  0
  152.3938  142.3820  158.9923 C   0  0  0  0  0  0  0  0  0  0  0  0
  151.6550  143.4053  159.6140 C   0  0  0  0  0  0  0  0  0  0  0  0
  152.1685  144.0607  160.6817 F   0  0  0  0  0  0  0  0  0  0  0  0
  150.3812  143.7464  159.1231 C   0  0  0  0  0  0  0  0  0  0  0  0
  149.8456  143.0669  158.0115 C   0  0  0  0  0  0  0  0  0  0  0  0
  147.8181  139.6239  157.7640 H   0  0  0  0  0  0  0  0  0  0  0  0
  147.2336  139.6197  155.7427 H   0  0  0  0  0  0  0  0  0  0  0  0
  145.6980  139.2739  156.5253 H   0  0  0  0  0  0  0  0  0  0  0  0
  143.2300  144.2640  156.4679 H   0  0  0  0  0  0  0  0  0  0  0  0
  143.1641  145.9317  154.6274 H   0  0  0  0  0  0  0  0  0  0  0  0
  144.6410  145.6726  152.6445 H   0  0  0  0  0  0  0  0  0  0  0  0
  146.1994  143.7348  152.4937 H   0  0  0  0  0  0  0  0  0  0  0  0
  146.9054  140.2941  153.2554 H   0  0  0  0  0  0  0  0  0  0  0  0
  147.5379  141.8834  152.9409 H   0  0  0  0  0  0  0  0  0  0  0  0
  148.5689  139.7715  154.8412 H   0  0  0  0  0  0  0  0  0  0  0  0
  150.1316  140.0053  153.5472 H   0  0  0  0  0  0  0  0  0  0  0  0
  149.0142  142.7521  155.3170 H   0  0  0  0  0  0  0  0  0  0  0  0
  148.0970  141.6838  156.3849 H   0  0  0  0  0  0  0  0  0  0  0  0
  152.4333  140.9192  157.4094 H   0  0  0  0  0  0  0  0  0  0  0  0
  153.3715  142.1178  159.3673 H   0  0  0  0  0  0  0  0  0  0  0  0
  149.8130  144.5317  159.5992 H   0  0  0  0  0  0  0  0  0  0  0  0
  148.8663  143.3581  157.6641 H   0  0  0  0  0  0  0  0  0  0  0  0
  1  2  1  0  0  0  0
  1 24  1  0  0  0  0
  2  3  1  0  0  0  0
  2 25  1  0  0  0  0
  2 26  1  0  0  0  0
  3 11  1  0  0  0  0
  3  4  2  0  0  0  0
  4  5  1  0  0  0  0
  5 10  2  0  0  0  0
  5  6  1  0  0  0  0
  6  7  2  0  0  0  0
  6 27  1  0  0  0  0
  7  8  1  0  0  0  0
  7 28  1  0  0  0  0
  8  9  2  0  0  0  0
  8 29  1  0  0  0  0
  9 10  1  0  0  0  0
  9 30  1  0  0  0  0
 10 11  1  0  0  0  0
 11 12  1  0  0  0  0
 12 13  1  0  0  0  0
 12 31  1  0  0  0  0
 12 32  1  0  0  0  0
 13 14  1  0  0  0  0
 13 15  1  0  0  0  0
 13 33  1  0  0  0  0
 14 34  1  0  0  0  0
 15 16  1  0  0  0  0
 15 35  1  0  0  0  0
 15 36  1  0  0  0  0
 16 17  1  0  0  0  0
 17 23  1  0  0  0  0
 17 18  2  0  0  0  0
 18 19  1  0  0  0  0
 18 37  1  0  0  0  0
 19 20  2  0  0  0  0
 19 38  1  0  0  0  0
 20 21  1  0  0  0  0
 20 22  1  0  0  0  0
 22 23  2  0  0  0  0
 22 39  1  0  0  0  0
 23 40  1  0  0  0  0
M  END
> <s_m_source_file>
AV-unprocessed.smi

> <i_m_source_file_index>
2193

> <i_lp_mmshare_version>
43012

> <i_f3d_flags>
0

> <s_epik_input>
W2NIXTFbY0hdW2NIXVtjSF1jKGMxMiluKGMobjIpW0NIMl1bT0hdKVtDSDJdW0NASF0oW09IXSlbQ0gyXU9jM1tjSF1bY0hdYyhGKVtjSF1bY0hdMw==

> <s_epik_cmdline>
J2VwaWtfcHl0aG9uJywgJy1waCcsICc3LjAnLCAnLXRuJywgJzgnLCAnLW1hJywgJzIwMCcsICctbWV0YWxfYmluZGluZycsICctaW1hZScsICc8aW5maWxlLm1hZT4nLCAnLW9tYWUnLCAnPG91dGZpbGUubWFlPic=

> <r_lp_tautomer_probability>
1

> <r_epik_Ionization_Penalty>
0.0549747

> <r_epik_Ionization_Penalty_Charging>
0

> <r_epik_Ionization_Penalty_Neutral>
0.0549747

> <r_epik_State_Penalty>
0.0472568

> <r_epik_Charging_Adjusted_Penalty>
0.0472568

> <i_epik_Tot_Q>
0

> <i_epik_Tot_abs_Q>
0

> <r_epik_Metal_State_Penalty>
4.91905e-05

> <b_epik_Metal_Only>
0

> <s_lp_Force_Field>
OPLS_2005

> <r_lp_Energy>
14.6926

> <b_lp_Chiralities_Consistent>
1

> <s_lp_Variant>
AV-unprocessed.smi:2193-2

> <Gold.Version>
5.8.1

> <Gold.Id.Protein>
6NUR|6NUR_protein|mol2

> <Gold.PLP.Fitness>
45.9475

> <Gold.PLP.PLP>
-43.7498

> <Gold.PLP.part.hbond>
-2.9176

> <Gold.PLP.part.metal>
0.0000

> <Gold.PLP.part.buried>
-4.1483

> <Gold.PLP.part.nonpolar>
-37.0381

> <Gold.PLP.part.repulsive>
0.1169

> <Gold.PLP.ligand.clash>
0.0000

> <Gold.PLP.ligand.torsion>
0.5044

> <Gold.PLP.Chemscore.Hbond>
1.0000

> <Gold.PLP.Chemscore.CHOScore>
0.0000

> <Gold.PLP.Chemscore.Metal>
0.0000

> <Gold.Chemscore.Hbonds>
donor molecule, donor type, donor heavy atom, donor atom, acceptor molecule, acceptor atom, score
      P1  H  8011  8017       L1    14  1.00

> <Gold.PLP.Chemscore.Internal.Correction>
0.2066

> <Gold.Rescore>
     Score         DG    S(hbond)    S(metal)    S(lipo)     H(rot)  DE(clash)    DE(int)     intcor
      9.48     -12.81       0.84        0.00     109.20       3.22       2.01       1.31       ----

> <Gold.Chemscore.Fitness>
9.4848

> <Gold.Chemscore.DG>
-12.8080

> <Gold.Chemscore.ZeroCoef>
-5.4800

> <Gold.Chemscore.Hbond>
0.8365

> <Gold.Chemscore.Metal>
0.0000

> <Gold.Chemscore.Lipo>
109.1979

> <Gold.Chemscore.Internal_Hbond>
0.0000

> <Gold.Chemscore.DEClash>
2.0085

> <Gold.Chemscore.DEInternal>
1.3147

> <Gold.Chemscore.Rot>
3.2196

> <Gold.Chemscore.Internal.Correction>
   9.000000E+99

> <Gold.Chemscore.Hbonds>
donor molecule, donor type, donor heavy atom, donor atom, acceptor molecule, acceptor atom, score
      P1  H  8011  8017       L1    14  0.89

> <Gold.Chemscore.Hbond.Weighted>
-2.7940

> <Gold.Chemscore.Metal.Weighted>
-0.0000

> <Gold.Chemscore.Lipo.Weighted>
-12.7762

> <Gold.Chemscore.Internal_Hbond.Weighted>
0.0000

> <Gold.Chemscore.DEClash.Weighted>
2.0085

> <Gold.Chemscore.DEInternal.Weighted>
1.3147

> <Gold.Chemscore.Rot.Weighted>
8.2422

> <Gold.Chemscore.Internal.Correction.Weighted>
   9.000000E+99

> <Gold.Protein.RotatedTorsions>
[ 6907 6896 6895 6894 ] final  173.58 input  -60.11 | X-H torsion
[ 7974 7965 7964 7962 ] final   73.58 input  175.53 | X-H torsion
[ 8008 7997 7996 7995 ] final  179.36 input   59.86 | X-H torsion
[ 10167 10162 10161 10158 ] final   18.88 input  -65.29 | X-H torsion
[ 10718 10713 10712 10709 ] final  165.19 input   66.30 | X-H torsion
[ 10763 10752 10751 10750 ] final   -1.90 input  -60.55 | X-H torsion
[ 11005 11000 10999 10996 ] final  -31.80 input  -57.11 | X-H torsion

> <Gold.Protein.ActiveResidues>
 VAL166  LYS551  ARG553  GLY616  TRP617  ASP618  TYR619  PRO620  LYS621  CYS622 
 ASP623  PHE694  ASN695  SER759  ASP760  ASP761  ALA762  ILE779  LEU786  VAL792 
 PHE793  MET794  SER795  GLU796  ALA797  LYS798  CYS799  TRP800  GLU811  SER814 

> <Gold.Protein.RotatedAtoms>
  151.7660  133.3337  159.3430 H   0  0  0  0  0  0  0  0  0  0  0  0  # atno 6907 bound_to 6896
  150.7479  134.6062  159.6072 H   0  0  0  0  0  0  0  0  0  0  0  0  # atno 6908 bound_to 6896
  152.3373  134.7183  160.0325 H   0  0  0  0  0  0  0  0  0  0  0  0  # atno 6909 bound_to 6896
  145.7390  139.2713  143.1497 H   0  0  0  0  0  0  0  0  0  0  0  0  # atno 7974 bound_to 7965
  156.0443  140.1310  157.0121 H   0  0  0  0  0  0  0  0  0  0  0  0  # atno 8008 bound_to 7997
  154.4405  140.1024  156.6353 H   0  0  0  0  0  0  0  0  0  0  0  0  # atno 8009 bound_to 7997
  155.5620  140.3465  155.4496 H   0  0  0  0  0  0  0  0  0  0  0  0  # atno 8010 bound_to 7997
  140.5620  143.9319  150.6649 H   0  0  0  0  0  0  0  0  0  0  0  0  # atno 10167 bound_to 10162
  157.0836  131.0399  151.2565 H   0  0  0  0  0  0  0  0  0  0  0  0  # atno 10718 bound_to 10713
  153.3510  135.6985  153.6789 H   0  0  0  0  0  0  0  0  0  0  0  0  # atno 10763 bound_to 10752
  153.5516  135.3552  155.2762 H   0  0  0  0  0  0  0  0  0  0  0  0  # atno 10764 bound_to 10752
  154.8653  135.4228  154.2745 H   0  0  0  0  0  0  0  0  0  0  0  0  # atno 10765 bound_to 10752
  140.9499  133.7227  156.1204 H   0  0  0  0  0  0  0  0  0  0  0  0  # atno 11005 bound_to 11000
  146.0466  140.8112  142.9802 LP  0  0  0  0  0  0  0  0  0  0  0  0  # atno 17320 bound_to 7965
  144.6875  140.2989  143.7266 LP  0  0  0  0  0  0  0  0  0  0  0  0  # atno 17321 bound_to 7965
  140.2773  143.3414  152.1184 LP  0  0  0  0  0  0  0  0  0  0  0  0  # atno 17342 bound_to 10162
  139.5075  144.6832  151.5954 LP  0  0  0  0  0  0  0  0  0  0  0  0  # atno 17343 bound_to 10162
  157.4779  130.7748  149.7386 LP  0  0  0  0  0  0  0  0  0  0  0  0  # atno 17370 bound_to 10713
  155.9917  130.3936  150.2975 LP  0  0  0  0  0  0  0  0  0  0  0  0  # atno 17371 bound_to 10713
  140.7617  134.3931  157.5524 LP  0  0  0  0  0  0  0  0  0  0  0  0  # atno 17394 bound_to 11000
  139.8844  134.8966  156.2704 LP  0  0  0  0  0  0  0  0  0  0  0  0  # atno 17395 bound_to 11000

$$$$
