AV-unprocessed.smi:286|AV-procd|sdf|2173|dock2
  -GOLD-   2262021533D 1   1.00000     0.00000
 Structure written by MMmdl.
 46 48  0  0  0  0  0  0  0  0  1 V2000
  152.7030  137.8421  156.8484 O   0  0  0  0  0  0  0  0  0  0  0  0
  152.3472  138.9578  157.2319 C   0  0  0  0  0  0  0  0  0  0  0  0
  152.5554  139.4402  158.5930 C   0  0  0  0  0  0  0  0  0  0  0  0
  153.1733  138.6522  159.4892 F   0  0  0  0  0  0  0  0  0  0  0  0
  152.1355  140.6668  158.9722 C   0  0  0  0  0  0  0  0  0  0  0  0
  151.4890  141.5427  158.1149 N   0  0  0  0  0  0  0  0  0  0  0  0
  151.0150  142.9086  158.5655 C   0  0  2  0  0  0  0  0  0  0  0  0
  151.7084  144.0187  157.7530 C   0  0  0  0  0  0  0  0  0  0  0  0
  152.2495  144.9367  158.8313 C   0  0  0  0  0  0  0  0  0  0  0  0
  152.4863  143.9683  159.9804 C   0  0  0  0  0  0  0  0  0  0  0  0
  151.3541  143.1117  159.9080 O   0  0  0  0  0  0  0  0  0  0  0  0
  151.2364  141.1549  156.7811 C   0  0  0  0  0  0  0  0  0  0  0  0
  150.6379  141.9073  156.0079 O   0  0  0  0  0  0  0  0  0  0  0  0
  151.6888  139.8763  156.3780 N   0  0  0  0  0  0  0  0  0  0  0  0
  151.4152  139.4631  155.0112 C   0  0  0  0  0  0  0  0  0  0  0  0
  149.9966  138.8778  154.8209 C   0  0  2  0  0  0  0  0  0  0  0  0
  149.8565  138.4332  153.4851 O   0  0  0  0  0  0  0  0  0  0  0  0
  148.8795  139.9017  155.1398 C   0  0  0  0  0  0  0  0  0  0  0  0
  147.5038  139.2220  155.3152 C   0  0  0  0  0  0  0  0  0  0  0  0
  146.4146  140.2345  155.7038 C   0  0  0  0  0  0  0  0  0  0  0  0
  146.3284  141.3784  154.6822 C   0  0  0  0  0  0  0  0  0  0  0  0
  147.6900  142.0685  154.5104 C   0  0  0  0  0  0  0  0  0  0  0  0
  148.7829  141.0604  154.1190 C   0  0  0  0  0  0  0  0  0  0  0  0
  152.3197  140.9552  159.9956 H   0  0  0  0  0  0  0  0  0  0  0  0
  149.9283  142.8928  158.4654 H   0  0  0  0  0  0  0  0  0  0  0  0
  152.5260  143.6015  157.1630 H   0  0  0  0  0  0  0  0  0  0  0  0
  151.0034  144.5113  157.0829 H   0  0  0  0  0  0  0  0  0  0  0  0
  153.1519  145.4680  158.5280 H   0  0  0  0  0  0  0  0  0  0  0  0
  151.4950  145.6726  159.1119 H   0  0  0  0  0  0  0  0  0  0  0  0
  153.4028  143.3979  159.8238 H   0  0  0  0  0  0  0  0  0  0  0  0
  152.5508  144.4673  160.9476 H   0  0  0  0  0  0  0  0  0  0  0  0
  151.5624  140.3495  154.3915 H   0  0  0  0  0  0  0  0  0  0  0  0
  152.1997  138.7785  154.6845 H   0  0  0  0  0  0  0  0  0  0  0  0
  149.8646  138.0171  155.4777 H   0  0  0  0  0  0  0  0  0  0  0  0
  149.8951  139.1843  152.9129 H   0  0  0  0  0  0  0  0  0  0  0  0
  149.1313  140.3444  156.1049 H   0  0  0  0  0  0  0  0  0  0  0  0
  147.2135  138.7217  154.3908 H   0  0  0  0  0  0  0  0  0  0  0  0
  147.5656  138.4456  156.0785 H   0  0  0  0  0  0  0  0  0  0  0  0
  145.4506  139.7312  155.7793 H   0  0  0  0  0  0  0  0  0  0  0  0
  146.6291  140.6411  156.6928 H   0  0  0  0  0  0  0  0  0  0  0  0
  145.9926  140.9865  153.7213 H   0  0  0  0  0  0  0  0  0  0  0  0
  145.5798  142.1052  154.9990 H   0  0  0  0  0  0  0  0  0  0  0  0
  147.6175  142.8502  153.7539 H   0  0  0  0  0  0  0  0  0  0  0  0
  147.9673  142.5651  155.4409 H   0  0  0  0  0  0  0  0  0  0  0  0
  149.7364  141.5828  154.0442 H   0  0  0  0  0  0  0  0  0  0  0  0
  148.5671  140.6684  153.1245 H   0  0  0  0  0  0  0  0  0  0  0  0
  1  2  2  0  0  0  0
  2 14  1  0  0  0  0
  2  3  1  0  0  0  0
  3  4  1  0  0  0  0
  3  5  2  0  0  0  0
  5  6  1  0  0  0  0
  5 24  1  0  0  0  0
  6  7  1  0  0  0  0
  6 12  1  0  0  0  0
  7 11  1  0  0  0  0
  7  8  1  0  0  0  0
  7 25  1  0  0  0  0
  8  9  1  0  0  0  0
  8 26  1  0  0  0  0
  8 27  1  0  0  0  0
  9 10  1  0  0  0  0
  9 28  1  0  0  0  0
  9 29  1  0  0  0  0
 10 11  1  0  0  0  0
 10 30  1  0  0  0  0
 10 31  1  0  0  0  0
 12 13  2  0  0  0  0
 12 14  1  0  0  0  0
 14 15  1  0  0  0  0
 15 16  1  0  0  0  0
 15 32  1  0  0  0  0
 15 33  1  0  0  0  0
 16 17  1  0  0  0  0
 16 18  1  0  0  0  0
 16 34  1  0  0  0  0
 17 35  1  0  0  0  0
 18 23  1  0  0  0  0
 18 19  1  0  0  0  0
 18 36  1  0  0  0  0
 19 20  1  0  0  0  0
 19 37  1  0  0  0  0
 19 38  1  0  0  0  0
 20 21  1  0  0  0  0
 20 39  1  0  0  0  0
 20 40  1  0  0  0  0
 21 22  1  0  0  0  0
 21 41  1  0  0  0  0
 21 42  1  0  0  0  0
 22 23  1  0  0  0  0
 22 43  1  0  0  0  0
 22 44  1  0  0  0  0
 23 45  1  0  0  0  0
 23 46  1  0  0  0  0
M  END
> <s_m_source_file>
AV-unprocessed.smi

> <i_m_source_file_index>
286

> <i_lp_mmshare_version>
43012

> <i_f3d_flags>
0

> <s_epik_input>
TzFbQ0gyXVtDSDJdW0NIMl1bQ0BIXTFuKFtjSF1jKEYpYzI9TyljKD1PKW4yW0NIMl1bQ0BIXShbT0hdKVtDSF0zW0NIMl1bQ0gyXVtDSDJdW0NIMl1bQ0gyXTM=

> <s_epik_cmdline>
J2VwaWtfcHl0aG9uJywgJy1waCcsICc3LjAnLCAnLXRuJywgJzgnLCAnLW1hJywgJzIwMCcsICctbWV0YWxfYmluZGluZycsICctaW1hZScsICc8aW5maWxlLm1hZT4nLCAnLW9tYWUnLCAnPG91dGZpbGUubWFlPic=

> <r_lp_tautomer_probability>
1

> <r_epik_Ionization_Penalty>
3.15564e-07

> <r_epik_Ionization_Penalty_Charging>
2.06416e-08

> <r_epik_Ionization_Penalty_Neutral>
2.94923e-07

> <r_epik_State_Penalty>
-0

> <r_epik_Charging_Adjusted_Penalty>
2.06416e-08

> <i_epik_Tot_Q>
0

> <i_epik_Tot_abs_Q>
0

> <r_epik_Metal_State_Penalty>
-0

> <b_epik_Metal_Only>
0

> <s_epik_Chemistry_Notes>
This compound contains an acetal/aminal-like group ( X-CH(R)-Y where X, Y are N, S, or O) that may be acid/base labile, releasing an aldehyde.

> <s_lp_Force_Field>
OPLS_2005

> <r_lp_Energy>
41.5856

> <b_lp_Chiralities_Consistent>
1

> <s_lp_Variant>
AV-unprocessed.smi:286-1

> <Gold.Version>
5.8.1

> <Gold.Id.Protein>
6NUR|6NUR_protein|mol2

> <Gold.PLP.Fitness>
47.2363

> <Gold.PLP.PLP>
-45.1680

> <Gold.PLP.part.hbond>
-2.2347

> <Gold.PLP.part.metal>
0.0000

> <Gold.PLP.part.buried>
-3.7247

> <Gold.PLP.part.nonpolar>
-38.7816

> <Gold.PLP.part.repulsive>
0.1074

> <Gold.PLP.ligand.clash>
0.0000

> <Gold.PLP.ligand.torsion>
0.4839

> <Gold.PLP.Chemscore.Hbond>
1.0000

> <Gold.PLP.Chemscore.CHOScore>
0.0000

> <Gold.PLP.Chemscore.Metal>
0.0000

> <Gold.Chemscore.Hbonds>
donor molecule, donor type, donor heavy atom, donor atom, acceptor molecule, acceptor atom, score
      L1  H    17    35       P1  7957  1.00

> <Gold.PLP.Chemscore.Internal.Correction>
0.0361

> <Gold.Rescore>
     Score         DG    S(hbond)    S(metal)    S(lipo)     H(rot)  DE(clash)    DE(int)     intcor
     12.36     -13.28       0.94        0.00      89.58       2.28       0.11       0.81       ----

> <Gold.Chemscore.Fitness>
12.3639

> <Gold.Chemscore.DG>
-13.2751

> <Gold.Chemscore.ZeroCoef>
-5.4800

> <Gold.Chemscore.Hbond>
0.9401

> <Gold.Chemscore.Metal>
0.0000

> <Gold.Chemscore.Lipo>
89.5779

> <Gold.Chemscore.Internal_Hbond>
0.0000

> <Gold.Chemscore.DEClash>
0.1050

> <Gold.Chemscore.DEInternal>
0.8061

> <Gold.Chemscore.Rot>
2.2756

> <Gold.Chemscore.Internal.Correction>
   9.000000E+99

> <Gold.Chemscore.Hbonds>
donor molecule, donor type, donor heavy atom, donor atom, acceptor molecule, acceptor atom, score
      L1  H    17    35       P1  7957  0.90

> <Gold.Chemscore.Hbond.Weighted>
-3.1399

> <Gold.Chemscore.Metal.Weighted>
-0.0000

> <Gold.Chemscore.Lipo.Weighted>
-10.4806

> <Gold.Chemscore.Internal_Hbond.Weighted>
0.0000

> <Gold.Chemscore.DEClash.Weighted>
0.1050

> <Gold.Chemscore.DEInternal.Weighted>
0.8061

> <Gold.Chemscore.Rot.Weighted>
5.8254

> <Gold.Chemscore.Internal.Correction.Weighted>
   9.000000E+99

> <Gold.Protein.RotatedTorsions>
[ 6907 6896 6895 6894 ] final -147.27 input  -60.11 | X-H torsion
[ 7974 7965 7964 7962 ] final -172.50 input  175.53 | X-H torsion
[ 8008 7997 7996 7995 ] final  102.08 input   59.86 | X-H torsion
[ 10167 10162 10161 10158 ] final  -47.83 input  -65.29 | X-H torsion
[ 10718 10713 10712 10709 ] final   65.87 input   66.30 | X-H torsion
[ 10763 10752 10751 10750 ] final  138.98 input  -60.55 | X-H torsion
[ 11005 11000 10999 10996 ] final -120.93 input  -57.11 | X-H torsion

> <Gold.Protein.ActiveResidues>
 VAL166  LYS551  ARG553  GLY616  TRP617  ASP618  TYR619  PRO620  LYS621  CYS622 
 ASP623  PHE694  ASN695  SER759  ASP760  ASP761  ALA762  ILE779  LEU786  VAL792 
 PHE793  MET794  SER795  GLU796  ALA797  LYS798  CYS799  TRP800  GLU811  SER814 

> <Gold.Protein.RotatedAtoms>
  151.1533  133.4893  159.2594 H   0  0  0  0  0  0  0  0  0  0  0  0  # atno 6907 bound_to 6896
  151.1531  135.0236  159.8687 H   0  0  0  0  0  0  0  0  0  0  0  0  # atno 6908 bound_to 6896
  152.5463  134.1415  159.8534 H   0  0  0  0  0  0  0  0  0  0  0  0  # atno 6909 bound_to 6896
  144.7146  140.1763  143.6362 H   0  0  0  0  0  0  0  0  0  0  0  0  # atno 7974 bound_to 7965
  156.1359  140.3187  155.8420 H   0  0  0  0  0  0  0  0  0  0  0  0  # atno 8008 bound_to 7997
  155.4245  140.0514  157.3040 H   0  0  0  0  0  0  0  0  0  0  0  0  # atno 8009 bound_to 7997
  154.4936  140.2102  155.9507 H   0  0  0  0  0  0  0  0  0  0  0  0  # atno 8010 bound_to 7997
  140.6758  143.2766  151.3984 H   0  0  0  0  0  0  0  0  0  0  0  0  # atno 10167 bound_to 10162
  157.6133  130.9237  150.0034 H   0  0  0  0  0  0  0  0  0  0  0  0  # atno 10718 bound_to 10713
  153.8986  135.3024  155.3448 H   0  0  0  0  0  0  0  0  0  0  0  0  # atno 10763 bound_to 10752
  154.7681  135.4900  153.9598 H   0  0  0  0  0  0  0  0  0  0  0  0  # atno 10764 bound_to 10752
  153.1257  135.6792  153.9360 H   0  0  0  0  0  0  0  0  0  0  0  0  # atno 10765 bound_to 10752
  141.0108  134.0268  157.3417 H   0  0  0  0  0  0  0  0  0  0  0  0  # atno 11005 bound_to 11000
  145.8897  139.2369  143.1557 LP  0  0  0  0  0  0  0  0  0  0  0  0  # atno 17320 bound_to 7965
  145.9915  140.8598  143.0064 LP  0  0  0  0  0  0  0  0  0  0  0  0  # atno 17321 bound_to 7965
  139.6049  144.1218  152.2238 LP  0  0  0  0  0  0  0  0  0  0  0  0  # atno 17342 bound_to 10162
  140.0614  144.5854  150.7260 LP  0  0  0  0  0  0  0  0  0  0  0  0  # atno 17343 bound_to 10162
  156.1245  130.3645  149.9832 LP  0  0  0  0  0  0  0  0  0  0  0  0  # atno 17370 bound_to 10713
  156.7906  130.9254  151.3646 LP  0  0  0  0  0  0  0  0  0  0  0  0  # atno 17371 bound_to 10713
  139.9088  135.0186  156.7605 LP  0  0  0  0  0  0  0  0  0  0  0  0  # atno 17394 bound_to 11000
  140.6737  133.9536  155.7871 LP  0  0  0  0  0  0  0  0  0  0  0  0  # atno 17395 bound_to 11000

$$$$
