AV-unprocessed.smi:644|AV-procd|sdf|3157|dock5
  -GOLD-   22720 0 83D 1   1.00000     0.00000
 Structure written by MMmdl.
 38 40  0  0  0  0  0  0  0  0  2 V2000
  152.1362  145.4903  160.3931 C   0  0  0  0  0  0  0  0  0  0  0  0
  151.8715  144.1756  159.6792 C   0  0  0  0  0  0  0  0  0  0  0  0
  151.2323  144.2096  158.4190 C   0  0  0  0  0  0  0  0  0  0  0  0
  151.0038  142.9909  157.7912 C   0  0  0  0  0  0  0  0  0  0  0  0
  150.4078  142.6905  156.5642 N   0  3  0  0  0  0  0  0  0  0  0  0
  150.4115  141.3418  156.3757 C   0  0  0  0  0  0  0  0  0  0  0  0
  151.0011  140.7778  157.4644 N   0  0  0  0  0  0  0  0  0  0  0  0
  151.2655  139.3653  157.7679 C   0  0  0  0  0  0  0  0  0  0  0  0
  152.7605  139.0031  157.6757 C   0  0  2  0  0  0  0  0  0  0  0  0
  153.1238  138.8420  156.3177 O   0  0  0  0  0  0  0  0  0  0  0  0
  153.0846  137.7113  158.4422 C   0  0  0  0  0  0  0  0  0  0  0  0
  152.3746  137.7158  160.1177 S   0  0  0  0  0  0  0  0  0  0  0  0
  153.7661  137.1550  161.0465 C   0  0  0  0  0  0  0  0  0  0  0  0
  154.9219  136.7217  160.5228 N   0  0  0  0  0  0  0  0  0  0  0  0
  155.8358  136.3454  161.4976 N   0  0  0  0  0  0  0  0  0  0  0  0
  155.3360  136.5084  162.7248 C   0  0  0  0  0  0  0  0  0  0  0  0
  153.6999  137.1342  162.8049 S   0  0  0  0  0  0  0  0  0  0  0  0
  151.3867  141.7675  158.3738 C   0  0  0  0  0  0  0  0  0  0  0  0
  152.0173  141.7153  159.6143 C   0  0  0  0  0  0  0  0  0  0  0  0
  152.2585  142.9443  160.2692 C   0  0  0  0  0  0  0  0  0  0  0  0
  152.9435  142.9202  161.6249 C   0  0  0  0  0  0  0  0  0  0  0  0
  151.8004  146.3413  159.7997 H   0  0  0  0  0  0  0  0  0  0  0  0
  153.2024  145.6173  160.5820 H   0  0  0  0  0  0  0  0  0  0  0  0
  151.6085  145.5202  161.3468 H   0  0  0  0  0  0  0  0  0  0  0  0
  150.9345  145.1430  157.9640 H   0  0  0  0  0  0  0  0  0  0  0  0
  150.0229  140.8145  155.5164 H   0  0  0  0  0  0  0  0  0  0  0  0
  150.8682  139.1439  158.7591 H   0  0  0  0  0  0  0  0  0  0  0  0
  150.6875  138.7670  157.0621 H   0  0  0  0  0  0  0  0  0  0  0  0
  153.3541  139.8201  158.0876 H   0  0  0  0  0  0  0  0  0  0  0  0
  152.7348  138.0419  155.9979 H   0  0  0  0  0  0  0  0  0  0  0  0
  152.6803  136.8544  157.9019 H   0  0  0  0  0  0  0  0  0  0  0  0
  154.1649  137.5727  158.5054 H   0  0  0  0  0  0  0  0  0  0  0  0
  155.9343  136.2571  163.5881 H   0  0  0  0  0  0  0  0  0  0  0  0
  152.3121  140.7772  160.0609 H   0  0  0  0  0  0  0  0  0  0  0  0
  153.1690  141.9009  161.9400 H   0  0  0  0  0  0  0  0  0  0  0  0
  152.3038  143.3695  162.3850 H   0  0  0  0  0  0  0  0  0  0  0  0
  153.8826  143.4733  161.5901 H   0  0  0  0  0  0  0  0  0  0  0  0
  150.0279  143.3543  155.9014 H   0  0  0  0  0  0  0  0  0  0  0  0
  1  2  1  0  0  0  0
  1 22  1  0  0  0  0
  1 23  1  0  0  0  0
  1 24  1  0  0  0  0
  2 20  1  0  0  0  0
  2  3  2  0  0  0  0
  3  4  1  0  0  0  0
  3 25  1  0  0  0  0
  4 18  2  0  0  0  0
  4  5  1  0  0  0  0
  5  6  2  0  0  0  0
  5 38  1  0  0  0  0
  6  7  1  0  0  0  0
  6 26  1  0  0  0  0
  7  8  1  0  0  0  0
  7 18  1  0  0  0  0
  8  9  1  0  0  0  0
  8 27  1  0  0  0  0
  8 28  1  0  0  0  0
  9 10  1  0  0  0  0
  9 11  1  0  0  0  0
  9 29  1  0  0  0  0
 10 30  1  0  0  0  0
 11 12  1  0  0  0  0
 11 31  1  0  0  0  0
 11 32  1  0  0  0  0
 12 13  1  0  0  0  0
 13 17  1  0  0  0  0
 13 14  2  0  0  0  0
 14 15  1  0  0  0  0
 15 16  2  0  0  0  0
 16 17  1  0  0  0  0
 16 33  1  0  0  0  0
 18 19  1  0  0  0  0
 19 20  2  0  0  0  0
 19 34  1  0  0  0  0
 20 21  1  0  0  0  0
 21 35  1  0  0  0  0
 21 36  1  0  0  0  0
 21 37  1  0  0  0  0
M  CHG  1   5   1
M  END
> <s_m_source_file>
AV-unprocessed.smi

> <i_m_source_file_index>
644

> <i_lp_mmshare_version>
43012

> <i_f3d_flags>
0

> <s_epik_input>
W0NIM11jKFtjSF0xKWMoW0NIM10pW2NIXWMoYzEyKW4oW2NIXW4yKVtDSDJdW0NASF0oW09IXSlbQ0gyXVNjM25uW2NIXXMz

> <s_epik_cmdline>
J2VwaWtfcHl0aG9uJywgJy1waCcsICc3LjAnLCAnLXRuJywgJzgnLCAnLW1hJywgJzIwMCcsICctbWV0YWxfYmluZGluZycsICctaW1hZScsICc8aW5maWxlLm1hZT4nLCAnLW9tYWUnLCAnPG91dGZpbGUubWFlPic=

> <r_lp_tautomer_probability>
1

> <r_epik_Ionization_Penalty>
1.07492

> <r_epik_Ionization_Penalty_Charging>
1.07491

> <r_epik_Ionization_Penalty_Neutral>
3.80549e-06

> <r_epik_State_Penalty>
1.12982

> <r_epik_Charging_Adjusted_Penalty>
2.20473

> <i_epik_Tot_Q>
1

> <i_epik_Tot_abs_Q>
1

> <r_epik_Metal_State_Penalty>
1.2206

> <b_epik_Metal_Only>
0

> <s_lp_Force_Field>
OPLS_2005

> <r_lp_Energy>
11.8761

> <b_lp_Chiralities_Consistent>
1

> <s_lp_Variant>
AV-unprocessed.smi:644-3

> <Gold.Version>
5.8.1

> <Gold.Id.Protein>
6NUR|6NUR_protein|mol2

> <Gold.PLP.Fitness>
49.6959

> <Gold.PLP.PLP>
-42.6319

> <Gold.PLP.part.hbond>
-2.0000

> <Gold.PLP.part.metal>
0.0000

> <Gold.PLP.part.buried>
-5.7474

> <Gold.PLP.part.nonpolar>
-34.9653

> <Gold.PLP.part.repulsive>
0.0641

> <Gold.PLP.ligand.clash>
0.0000

> <Gold.PLP.ligand.torsion>
0.7334

> <Gold.PLP.Chemscore.Hbond>
2.8320

> <Gold.PLP.Chemscore.CHOScore>
0.0000

> <Gold.PLP.Chemscore.Metal>
0.0000

> <Gold.Chemscore.Hbonds>
donor molecule, donor type, donor heavy atom, donor atom, acceptor molecule, acceptor atom, score
      L1  H     5    38       P1  8028  1.86
      P1  H  7997  8008       L1    10  0.98

> <Gold.PLP.Chemscore.Internal.Correction>
0.0348

> <Gold.Rescore>
     Score         DG    S(hbond)    S(metal)    S(lipo)     H(rot)  DE(clash)    DE(int)     intcor
     18.70     -19.35       1.83        0.00     121.59       2.53       0.08       0.57       ----

> <Gold.Chemscore.Fitness>
18.6992

> <Gold.Chemscore.DG>
-19.3541

> <Gold.Chemscore.ZeroCoef>
-5.4800

> <Gold.Chemscore.Hbond>
1.8349

> <Gold.Chemscore.Metal>
0.0000

> <Gold.Chemscore.Lipo>
121.5906

> <Gold.Chemscore.Internal_Hbond>
0.0000

> <Gold.Chemscore.DEClash>
0.0816

> <Gold.Chemscore.DEInternal>
0.5733

> <Gold.Chemscore.Rot>
2.5315

> <Gold.Chemscore.Internal.Correction>
   9.000000E+99

> <Gold.Chemscore.Hbonds>
donor molecule, donor type, donor heavy atom, donor atom, acceptor molecule, acceptor atom, score
      L1  H     5    38       P1  8028  0.90
      P1  H  7997  8008       L1    10  0.24

> <Gold.Chemscore.Hbond.Weighted>
-6.1286

> <Gold.Chemscore.Metal.Weighted>
-0.0000

> <Gold.Chemscore.Lipo.Weighted>
-14.2261

> <Gold.Chemscore.Internal_Hbond.Weighted>
0.0000

> <Gold.Chemscore.DEClash.Weighted>
0.0816

> <Gold.Chemscore.DEInternal.Weighted>
0.5733

> <Gold.Chemscore.Rot.Weighted>
6.4805

> <Gold.Chemscore.Internal.Correction.Weighted>
   9.000000E+99

> <Gold.Protein.RotatedTorsions>
[ 6907 6896 6895 6894 ] final   15.56 input  -60.11 | X-H torsion
[ 7974 7965 7964 7962 ] final  -42.43 input  175.53 | X-H torsion
[ 8008 7997 7996 7995 ] final  -31.44 input   59.86 | X-H torsion
[ 10167 10162 10161 10158 ] final  -14.69 input  -65.29 | X-H torsion
[ 10718 10713 10712 10709 ] final  -41.53 input   66.30 | X-H torsion
[ 10763 10752 10751 10750 ] final  114.10 input  -60.55 | X-H torsion
[ 11005 11000 10999 10996 ] final  110.53 input  -57.11 | X-H torsion

> <Gold.Protein.ActiveResidues>
 VAL166  LYS551  ARG553  GLY616  TRP617  ASP618  TYR619  PRO620  LYS621  CYS622 
 ASP623  PHE694  ASN695  SER759  ASP760  ASP761  ALA762  ILE779  LEU786  VAL792 
 PHE793  MET794  SER795  GLU796  ALA797  LYS798  CYS799  TRP800  GLU811  SER814 

> <Gold.Protein.RotatedAtoms>
  151.8200  135.0654  160.0423 H   0  0  0  0  0  0  0  0  0  0  0  0  # atno 6907 bound_to 6896
  152.2958  133.5602  159.5595 H   0  0  0  0  0  0  0  0  0  0  0  0  # atno 6908 bound_to 6896
  150.7250  134.0279  159.3765 H   0  0  0  0  0  0  0  0  0  0  0  0  # atno 6909 bound_to 6896
  146.0116  140.6957  142.9221 H   0  0  0  0  0  0  0  0  0  0  0  0  # atno 7974 bound_to 7965
  154.4214  140.1764  156.1566 H   0  0  0  0  0  0  0  0  0  0  0  0  # atno 8008 bound_to 7997
  155.9872  140.3372  155.6694 H   0  0  0  0  0  0  0  0  0  0  0  0  # atno 8009 bound_to 7997
  155.6422  140.0681  157.2605 H   0  0  0  0  0  0  0  0  0  0  0  0  # atno 8010 bound_to 7997
  140.7205  143.5295  150.9536 H   0  0  0  0  0  0  0  0  0  0  0  0  # atno 10167 bound_to 10162
  156.2694  130.4205  149.8455 H   0  0  0  0  0  0  0  0  0  0  0  0  # atno 10718 bound_to 10713
  153.5022  135.3635  155.2545 H   0  0  0  0  0  0  0  0  0  0  0  0  # atno 10763 bound_to 10752
  154.8747  135.4002  154.3465 H   0  0  0  0  0  0  0  0  0  0  0  0  # atno 10764 bound_to 10752
  153.4103  135.7077  153.6430 H   0  0  0  0  0  0  0  0  0  0  0  0  # atno 10765 bound_to 10752
  139.8884  134.9486  156.6293 H   0  0  0  0  0  0  0  0  0  0  0  0  # atno 11005 bound_to 11000
  144.6955  140.3409  143.7199 LP  0  0  0  0  0  0  0  0  0  0  0  0  # atno 17320 bound_to 7965
  145.7333  139.1742  143.2418 LP  0  0  0  0  0  0  0  0  0  0  0  0  # atno 17321 bound_to 7965
  139.9015  143.6830  152.3130 LP  0  0  0  0  0  0  0  0  0  0  0  0  # atno 17342 bound_to 10162
  139.7181  144.7608  151.1000 LP  0  0  0  0  0  0  0  0  0  0  0  0  # atno 17343 bound_to 10162
  156.5942  130.8519  151.3416 LP  0  0  0  0  0  0  0  0  0  0  0  0  # atno 17370 bound_to 10713
  157.7278  130.9648  150.1716 LP  0  0  0  0  0  0  0  0  0  0  0  0  # atno 17371 bound_to 10713
  140.7679  133.8763  155.8468 LP  0  0  0  0  0  0  0  0  0  0  0  0  # atno 17394 bound_to 11000
  140.9867  134.1333  157.4446 LP  0  0  0  0  0  0  0  0  0  0  0  0  # atno 17395 bound_to 11000

$$$$
