AV-unprocessed.smi:2078|AV-procd|sdf|8469|dock10
  -GOLD-   2272011173D 1   1.00000     0.00000
 Structure written by MMmdl.
 41 42  0  0  0  0  0  0  0  0  3 V2000
  151.6021  141.2508  158.0025 C   0  0  0  0  0  0  0  0  0  0  0  0
  151.2731  140.4991  156.7585 C   0  0  0  0  0  0  0  0  0  0  0  0
  151.3611  139.1782  156.4214 C   0  0  0  0  0  0  0  0  0  0  0  0
  150.8865  139.1529  155.0816 C   0  0  0  0  0  0  0  0  0  0  0  0
  150.7655  138.0645  154.3061 N   0  5  0  0  0  0  0  0  0  0  0  0
  150.8556  136.8287  154.8471 C   0  0  0  0  0  0  0  0  0  0  0  0
  151.5825  136.4896  155.7840 O   0  0  0  0  0  0  0  0  0  0  0  0
  150.0558  135.9255  154.2620 N   0  0  0  0  0  0  0  0  0  0  0  0
  149.9571  134.5173  154.6254 C   0  0  0  0  0  0  0  0  0  0  0  0
  148.4927  134.1012  154.8603 C   0  0  0  0  0  0  0  0  0  0  0  0
  147.6733  134.2033  153.6277 N   0  3  1  0  0  0  0  0  0  0  0  0
  147.9287  133.0796  152.6903 C   0  0  0  0  0  0  0  0  0  0  0  0
  147.1894  133.2889  151.3595 C   0  0  0  0  0  0  0  0  0  0  0  0
  145.6838  133.4819  151.5901 C   0  0  0  0  0  0  0  0  0  0  0  0
  145.4142  134.6044  152.6091 C   0  0  2  0  0  0  0  0  0  0  0  0
  145.6526  136.0089  152.0273 C   0  0  0  0  0  0  0  0  0  0  0  0
  146.2193  134.3655  153.9034 C   0  0  0  0  0  0  0  0  0  0  0  0
  150.5278  140.3500  154.6494 N   0  0  0  0  0  0  0  0  0  0  0  0
  150.7766  141.2200  155.7177 O   0  0  0  0  0  0  0  0  0  0  0  0
  150.7977  141.1581  158.7323 H   0  0  0  0  0  0  0  0  0  0  0  0
  151.7495  142.3105  157.7928 H   0  0  0  0  0  0  0  0  0  0  0  0
  152.5164  140.8671  158.4553 H   0  0  0  0  0  0  0  0  0  0  0  0
  151.7112  138.3606  157.0334 H   0  0  0  0  0  0  0  0  0  0  0  0
  149.4755  136.2457  153.5003 H   0  0  0  0  0  0  0  0  0  0  0  0
  150.4306  133.9157  153.8493 H   0  0  0  0  0  0  0  0  0  0  0  0
  150.5373  134.3618  155.5351 H   0  0  0  0  0  0  0  0  0  0  0  0
  148.4921  133.0680  155.2112 H   0  0  0  0  0  0  0  0  0  0  0  0
  148.0329  134.6933  155.6530 H   0  0  0  0  0  0  0  0  0  0  0  0
  148.9981  132.9973  152.4924 H   0  0  0  0  0  0  0  0  0  0  0  0
  147.6182  132.1413  153.1528 H   0  0  0  0  0  0  0  0  0  0  0  0
  147.6023  134.1550  150.8414 H   0  0  0  0  0  0  0  0  0  0  0  0
  147.3562  132.4336  150.7041 H   0  0  0  0  0  0  0  0  0  0  0  0
  145.1784  133.6897  150.6464 H   0  0  0  0  0  0  0  0  0  0  0  0
  145.2594  132.5489  151.9637 H   0  0  0  0  0  0  0  0  0  0  0  0
  144.3561  134.5569  152.8699 H   0  0  0  0  0  0  0  0  0  0  0  0
  146.6973  136.1688  151.7614 H   0  0  0  0  0  0  0  0  0  0  0  0
  145.3752  136.7806  152.7460 H   0  0  0  0  0  0  0  0  0  0  0  0
  145.0535  136.1686  151.1303 H   0  0  0  0  0  0  0  0  0  0  0  0
  145.8519  133.4688  154.4050 H   0  0  0  0  0  0  0  0  0  0  0  0
  146.0462  135.1928  154.5904 H   0  0  0  0  0  0  0  0  0  0  0  0
  147.9789  135.0408  153.1531 H   0  0  0  0  0  0  0  0  0  0  0  0
  1  2  1  0  0  0  0
  1 20  1  0  0  0  0
  1 21  1  0  0  0  0
  1 22  1  0  0  0  0
  2 19  1  0  0  0  0
  2  3  2  0  0  0  0
  3  4  1  0  0  0  0
  3 23  1  0  0  0  0
  4  5  1  0  0  0  0
  4 18  2  0  0  0  0
  5  6  1  0  0  0  0
  6  7  2  0  0  0  0
  6  8  1  0  0  0  0
  8  9  1  0  0  0  0
  8 24  1  0  0  0  0
  9 10  1  0  0  0  0
  9 25  1  0  0  0  0
  9 26  1  0  0  0  0
 10 11  1  0  0  0  0
 10 27  1  0  0  0  0
 10 28  1  0  0  0  0
 11 17  1  0  0  0  0
 11 12  1  0  0  0  0
 11 41  1  0  0  0  0
 12 13  1  0  0  0  0
 12 29  1  0  0  0  0
 12 30  1  0  0  0  0
 13 14  1  0  0  0  0
 13 31  1  0  0  0  0
 13 32  1  0  0  0  0
 14 15  1  0  0  0  0
 14 33  1  0  0  0  0
 14 34  1  0  0  0  0
 15 16  1  0  0  0  0
 15 17  1  0  0  0  0
 15 35  1  0  0  0  0
 16 36  1  0  0  0  0
 16 37  1  0  0  0  0
 16 38  1  0  0  0  0
 17 39  1  0  0  0  0
 17 40  1  0  0  0  0
 18 19  1  0  0  0  0
M  CHG  1   5  -1
M  CHG  1  11   1
M  END
> <s_m_source_file>
AV-unprocessed.smi

> <i_m_source_file_index>
2078

> <i_lp_mmshare_version>
43012

> <i_f3d_flags>
0

> <s_epik_input>
W0NIM11jMVtjSF1jKG5vMSlbTkhdQyg9TylbTkhdW0NIMl1bQ0gyXU4yW0NIMl1bQ0gyXVtDSDJdW0NAQEhdKFtDSDNdKVtDSDJdMg==

> <s_epik_cmdline>
J2VwaWtfcHl0aG9uJywgJy1waCcsICc3LjAnLCAnLXRuJywgJzgnLCAnLW1hJywgJzIwMCcsICctbWV0YWxfYmluZGluZycsICctaW1hZScsICc8aW5maWxlLm1hZT4nLCAnLW9tYWUnLCAnPG91dGZpbGUubWFlPic=

> <r_epik_Ionization_Penalty>
6.22434

> <r_epik_Ionization_Penalty_Charging>
6.22425

> <r_epik_Ionization_Penalty_Neutral>
9.37855e-05

> <r_epik_State_Penalty>
6.22423

> <r_epik_Charging_Adjusted_Penalty>
12.4485

> <i_epik_Tot_Q>
0

> <i_epik_Tot_abs_Q>
2

> <r_epik_Metal_State_Penalty>
2.16764

> <b_epik_Metal_Only>
1

> <s_lp_Force_Field>
OPLS_2005

> <r_lp_Energy>
5.82233

> <b_lp_Chiralities_Consistent>
1

> <s_lp_Variant>
AV-unprocessed.smi:2078-7

> <Gold.Version>
5.8.1

> <Gold.Id.Protein>
6NUR|6NUR_protein|mol2

> <Gold.PLP.Fitness>
43.1523

> <Gold.PLP.PLP>
-29.1641

> <Gold.PLP.part.hbond>
-5.9703

> <Gold.PLP.part.metal>
0.0000

> <Gold.PLP.part.buried>
-1.8701

> <Gold.PLP.part.nonpolar>
-21.6811

> <Gold.PLP.part.repulsive>
0.5054

> <Gold.PLP.ligand.clash>
0.0000

> <Gold.PLP.ligand.torsion>
0.5208

> <Gold.PLP.Chemscore.Hbond>
5.0000

> <Gold.PLP.Chemscore.CHOScore>
0.0000

> <Gold.PLP.Chemscore.Metal>
0.0000

> <Gold.Chemscore.Hbonds>
donor molecule, donor type, donor heavy atom, donor atom, acceptor molecule, acceptor atom, score
      L1  H     8    24       P1  7948  1.00
      L1  H    11    41       P1  7948  2.00
      P1  H  7989  7998       L1    18  1.00
      P1  H 10752 10765       L1     7  1.00

> <Gold.PLP.Chemscore.Internal.Correction>
0.0299

> <Gold.Rescore>
     Score         DG    S(hbond)    S(metal)    S(lipo)     H(rot)  DE(clash)    DE(int)     intcor
     16.74     -19.56       3.49        0.00      54.59       1.54       0.89       1.93       ----

> <Gold.Chemscore.Fitness>
16.7427

> <Gold.Chemscore.DG>
-19.5644

> <Gold.Chemscore.ZeroCoef>
-5.4800

> <Gold.Chemscore.Hbond>
3.4856

> <Gold.Chemscore.Metal>
0.0000

> <Gold.Chemscore.Lipo>
54.5910

> <Gold.Chemscore.Internal_Hbond>
0.0000

> <Gold.Chemscore.DEClash>
0.8896

> <Gold.Chemscore.DEInternal>
1.9321

> <Gold.Chemscore.Rot>
1.5409

> <Gold.Chemscore.Internal.Correction>
   9.000000E+99

> <Gold.Chemscore.Hbonds>
donor molecule, donor type, donor heavy atom, donor atom, acceptor molecule, acceptor atom, score
      L1  H     8    24       P1  7948  0.58
      L1  H    11    41       P1  7948  0.95
      P1  H  7989  7998       L1    18  0.25
      P1  H 10752 10765       L1     7  0.63

> <Gold.Chemscore.Hbond.Weighted>
-11.6419

> <Gold.Chemscore.Metal.Weighted>
-0.0000

> <Gold.Chemscore.Lipo.Weighted>
-6.3871

> <Gold.Chemscore.Internal_Hbond.Weighted>
0.0000

> <Gold.Chemscore.DEClash.Weighted>
0.8896

> <Gold.Chemscore.DEInternal.Weighted>
1.9321

> <Gold.Chemscore.Rot.Weighted>
3.9446

> <Gold.Chemscore.Internal.Correction.Weighted>
   9.000000E+99

> <Gold.Protein.RotatedTorsions>
[ 6907 6896 6895 6894 ] final -138.20 input  -60.11 | X-H torsion
[ 7974 7965 7964 7962 ] final -104.48 input  175.53 | X-H torsion
[ 8008 7997 7996 7995 ] final -151.31 input   59.86 | X-H torsion
[ 10167 10162 10161 10158 ] final   49.71 input  -65.29 | X-H torsion
[ 10718 10713 10712 10709 ] final  150.35 input   66.30 | X-H torsion
[ 10763 10752 10751 10750 ] final -150.99 input  -60.55 | X-H torsion
[ 11005 11000 10999 10996 ] final -112.56 input  -57.11 | X-H torsion

> <Gold.Protein.ActiveResidues>
 VAL166  LYS551  ARG553  GLY616  TRP617  ASP618  TYR619  PRO620  LYS621  CYS622 
 ASP623  PHE694  ASN695  SER759  ASP760  ASP761  ALA762  ILE779  LEU786  VAL792 
 PHE793  MET794  SER795  GLU796  ALA797  LYS798  CYS799  TRP800  GLU811  SER814 

> <Gold.Protein.RotatedAtoms>
  151.0321  133.5781  159.2659 H   0  0  0  0  0  0  0  0  0  0  0  0  # atno 6907 bound_to 6896
  151.2859  135.0727  159.9196 H   0  0  0  0  0  0  0  0  0  0  0  0  # atno 6908 bound_to 6896
  152.5347  134.0027  159.7956 H   0  0  0  0  0  0  0  0  0  0  0  0  # atno 6909 bound_to 6896
  145.2427  140.9210  143.3141 H   0  0  0  0  0  0  0  0  0  0  0  0  # atno 7974 bound_to 7965
  155.6373  140.0698  157.2630 H   0  0  0  0  0  0  0  0  0  0  0  0  # atno 8008 bound_to 7997
  154.4192  140.1757  156.1585 H   0  0  0  0  0  0  0  0  0  0  0  0  # atno 8009 bound_to 7997
  155.9884  140.3347  155.6733 H   0  0  0  0  0  0  0  0  0  0  0  0  # atno 8010 bound_to 7997
  140.2801  144.3167  150.6266 H   0  0  0  0  0  0  0  0  0  0  0  0  # atno 10167 bound_to 10162
  157.2846  131.0842  151.1507 H   0  0  0  0  0  0  0  0  0  0  0  0  # atno 10718 bound_to 10713
  154.8085  135.3271  154.7367 H   0  0  0  0  0  0  0  0  0  0  0  0  # atno 10763 bound_to 10752
  153.8020  135.6902  153.4858 H   0  0  0  0  0  0  0  0  0  0  0  0  # atno 10764 bound_to 10752
  153.1848  135.4573  155.0019 H   0  0  0  0  0  0  0  0  0  0  0  0  # atno 10765 bound_to 10752
  141.0667  133.9446  157.2564 H   0  0  0  0  0  0  0  0  0  0  0  0  # atno 11005 bound_to 11000
  144.9575  139.4016  143.6372 LP  0  0  0  0  0  0  0  0  0  0  0  0  # atno 17320 bound_to 7965
  146.3324  139.8612  142.8856 LP  0  0  0  0  0  0  0  0  0  0  0  0  # atno 17321 bound_to 7965
  140.5819  143.2172  151.7413 LP  0  0  0  0  0  0  0  0  0  0  0  0  # atno 17342 bound_to 10162
  139.4965  144.4067  152.0124 LP  0  0  0  0  0  0  0  0  0  0  0  0  # atno 17343 bound_to 10162
  157.2927  130.6804  149.6122 LP  0  0  0  0  0  0  0  0  0  0  0  0  # atno 17370 bound_to 10713
  155.9665  130.4416  150.5346 LP  0  0  0  0  0  0  0  0  0  0  0  0  # atno 17371 bound_to 10713
  139.9484  135.0180  156.8920 LP  0  0  0  0  0  0  0  0  0  0  0  0  # atno 17394 bound_to 11000
  140.5758  134.0400  155.7446 LP  0  0  0  0  0  0  0  0  0  0  0  0  # atno 17395 bound_to 11000

$$$$
