AV-unprocessed.smi:21|AV-procd|sdf|136|dock10
  -GOLD-   2262015333D 1   1.00000     0.00000
 Structure written by MMmdl.
 62 65  0  0  0  0  0  0  0  0  2 V2000
  150.9892  131.0100  155.3529 C   0  0  0  0  0  0  0  0  0  0  0  0
  149.9996  131.2737  154.3707 O   0  0  0  0  0  0  0  0  0  0  0  0
  149.7910  132.6568  154.1281 C   0  0  2  0  0  0  0  0  0  0  0  0
  149.2713  133.4108  155.3465 C   0  0  0  0  0  0  0  0  0  0  0  0
  148.5667  134.6420  154.7529 C   0  0  2  0  0  0  0  0  0  0  0  0
  147.4482  135.2261  155.6574 C   0  0  0  0  0  0  0  0  0  0  0  0
  147.5578  134.8245  157.0615 N   0  0  0  0  0  0  0  0  0  0  0  0
  146.5028  133.9740  157.6060 C   0  0  0  0  0  0  0  0  0  0  0  0
  148.2100  135.6580  157.9166 C   0  0  0  0  0  0  0  0  0  0  0  0
  148.0319  135.4997  159.2560 N   0  0  0  0  0  0  0  0  0  0  0  0
  148.6058  136.3385  160.1221 C   0  0  0  0  0  0  0  0  0  0  0  0
  149.3808  137.3931  159.8695 N   0  0  0  0  0  0  0  0  0  0  0  0
  149.5812  137.5516  158.5304 C   0  0  0  0  0  0  0  0  0  0  0  0
  149.0522  136.7287  157.4950 C   0  0  0  0  0  0  0  0  0  0  0  0
  149.5034  137.1838  156.2612 N   0  0  0  0  0  0  0  0  0  0  0  0
  150.2409  138.2206  156.5484 C   0  0  0  0  0  0  0  0  0  0  0  0
  150.3093  138.5370  157.8859 N   0  0  0  0  0  0  0  0  0  0  0  0
  151.0401  139.6448  158.4778 C   0  0  0  0  0  0  0  0  0  0  0  0
  150.8791  141.0017  157.7350 C   0  0  1  0  0  0  0  0  0  0  0  0
  149.4226  141.1359  157.2293 C   0  0  0  0  0  0  0  0  0  0  0  0
  149.3625  141.8688  156.0230 O   0  0  0  0  0  0  0  0  0  0  0  0
  151.2753  142.2402  158.5926 C   0  0  1  0  0  0  0  0  0  0  0  0
  152.6696  142.2373  159.2026 C   0  0  0  0  0  0  0  0  0  0  0  0
  152.8847  143.7102  159.5173 C   0  0  0  0  0  0  0  0  0  0  0  0
  152.2991  144.3957  158.4228 O   0  0  0  0  0  0  0  0  0  0  0  0
  151.3234  143.5614  157.8050 C   0  0  0  0  0  0  0  0  0  0  0  0
  148.1402  134.2293  153.3815 N   0  3  2  0  0  0  0  0  0  0  0  0
  146.7120  134.3887  153.0194 C   0  0  0  0  0  0  0  0  0  0  0  0
  148.6542  132.8635  153.1322 C   0  0  0  0  0  0  0  0  0  0  0  0
  150.6988  133.1284  153.7469 H   0  0  0  0  0  0  0  0  0  0  0  0
  149.3192  135.4151  154.5922 H   0  0  0  0  0  0  0  0  0  0  0  0
  151.1289  129.9332  155.4482 H   0  0  0  0  0  0  0  0  0  0  0  0
  150.6957  131.3928  156.3308 H   0  0  0  0  0  0  0  0  0  0  0  0
  151.9482  131.4501  155.0767 H   0  0  0  0  0  0  0  0  0  0  0  0
  148.5519  132.7852  155.8775 H   0  0  0  0  0  0  0  0  0  0  0  0
  150.0663  133.6758  156.0438 H   0  0  0  0  0  0  0  0  0  0  0  0
  147.5017  136.3146  155.6479 H   0  0  0  0  0  0  0  0  0  0  0  0
  146.4696  134.9807  155.2518 H   0  0  0  0  0  0  0  0  0  0  0  0
  146.8532  133.4414  158.4911 H   0  0  0  0  0  0  0  0  0  0  0  0
  146.1928  133.2287  156.8732 H   0  0  0  0  0  0  0  0  0  0  0  0
  145.6275  134.5641  157.8801 H   0  0  0  0  0  0  0  0  0  0  0  0
  148.4075  136.1425  161.1657 H   0  0  0  0  0  0  0  0  0  0  0  0
  150.7377  138.8015  155.7847 H   0  0  0  0  0  0  0  0  0  0  0  0
  150.6912  139.7277  159.5072 H   0  0  0  0  0  0  0  0  0  0  0  0
  152.0958  139.3774  158.5375 H   0  0  0  0  0  0  0  0  0  0  0  0
  151.5215  140.9965  156.8540 H   0  0  0  0  0  0  0  0  0  0  0  0
  148.9727  140.1539  157.0785 H   0  0  0  0  0  0  0  0  0  0  0  0
  148.7962  141.6645  157.9466 H   0  0  0  0  0  0  0  0  0  0  0  0
  149.2754  142.7866  156.2318 H   0  0  0  0  0  0  0  0  0  0  0  0
  150.5549  142.3531  159.4044 H   0  0  0  0  0  0  0  0  0  0  0  0
  152.7503  141.6309  160.1027 H   0  0  0  0  0  0  0  0  0  0  0  0
  153.4100  141.8918  158.4795 H   0  0  0  0  0  0  0  0  0  0  0  0
  152.3554  143.9863  160.4304 H   0  0  0  0  0  0  0  0  0  0  0  0
  153.9351  143.9698  159.6423 H   0  0  0  0  0  0  0  0  0  0  0  0
  151.6357  143.3932  156.7733 H   0  0  0  0  0  0  0  0  0  0  0  0
  150.3534  144.0591  157.7845 H   0  0  0  0  0  0  0  0  0  0  0  0
  146.0656  133.7957  153.6676 H   0  0  0  0  0  0  0  0  0  0  0  0
  146.5491  134.0585  151.9929 H   0  0  0  0  0  0  0  0  0  0  0  0
  146.4059  135.4334  153.0731 H   0  0  0  0  0  0  0  0  0  0  0  0
  148.9737  132.7348  152.0977 H   0  0  0  0  0  0  0  0  0  0  0  0
  147.8641  132.1364  153.3303 H   0  0  0  0  0  0  0  0  0  0  0  0
  148.6528  134.8344  152.7556 H   0  0  0  0  0  0  0  0  0  0  0  0
  1  2  1  0  0  0  0
  1 32  1  0  0  0  0
  1 33  1  0  0  0  0
  1 34  1  0  0  0  0
  2  3  1  0  0  0  0
  3 30  1  0  0  0  0
  3 29  1  0  0  0  0
  3  4  1  0  0  0  0
  4  5  1  0  0  0  0
  4 35  1  0  0  0  0
  4 36  1  0  0  0  0
  5 31  1  0  0  0  0
  5  6  1  0  0  0  0
  5 27  1  0  0  0  0
  6  7  1  0  0  0  0
  6 37  1  0  0  0  0
  6 38  1  0  0  0  0
  7  8  1  0  0  0  0
  7  9  1  0  0  0  0
  8 39  1  0  0  0  0
  8 40  1  0  0  0  0
  8 41  1  0  0  0  0
  9 14  1  0  0  0  0
  9 10  2  0  0  0  0
 10 11  1  0  0  0  0
 11 12  2  0  0  0  0
 11 42  1  0  0  0  0
 12 13  1  0  0  0  0
 13 17  1  0  0  0  0
 13 14  2  0  0  0  0
 14 15  1  0  0  0  0
 15 16  2  0  0  0  0
 16 17  1  0  0  0  0
 16 43  1  0  0  0  0
 17 18  1  0  0  0  0
 18 19  1  0  0  0  0
 18 44  1  0  0  0  0
 18 45  1  0  0  0  0
 19 20  1  0  0  0  0
 19 22  1  0  0  0  0
 19 46  1  0  0  0  0
 20 21  1  0  0  0  0
 20 47  1  0  0  0  0
 20 48  1  0  0  0  0
 21 49  1  0  0  0  0
 22 26  1  0  0  0  0
 22 23  1  0  0  0  0
 22 50  1  0  0  0  0
 23 24  1  0  0  0  0
 23 51  1  0  0  0  0
 23 52  1  0  0  0  0
 24 25  1  0  0  0  0
 24 53  1  0  0  0  0
 24 54  1  0  0  0  0
 25 26  1  0  0  0  0
 26 55  1  0  0  0  0
 26 56  1  0  0  0  0
 27 28  1  0  0  0  0
 27 29  1  0  0  0  0
 27 62  1  0  0  0  0
 28 57  1  0  0  0  0
 28 58  1  0  0  0  0
 28 59  1  0  0  0  0
 29 60  1  0  0  0  0
 29 61  1  0  0  0  0
M  CHG  1  27   1
M  END
> <s_m_source_file>
AV-unprocessed.smi

> <i_m_source_file_index>
21

> <i_lp_mmshare_version>
43012

> <i_f3d_flags>
0

> <s_epik_input>
W0NIM11PW0NASF0xW0NIMl1bQ0BIXShOKFtDSDNdKVtDSDJdMSlbQ0gyXU4oW0NIM10pYyhuW2NIXW4yKWMoYzIzKW5bY0hdbjNbQ0gyXVtDQEhdKFtDSDJdW09IXSlbQ0BASF00W0NIMl1bQ0gyXU9bQ0gyXTQ=

> <s_epik_cmdline>
J2VwaWtfcHl0aG9uJywgJy1waCcsICc3LjAnLCAnLXRuJywgJzgnLCAnLW1hJywgJzIwMCcsICctbWV0YWxfYmluZGluZycsICctaW1hZScsICc8aW5maWxlLm1hZT4nLCAnLW9tYWUnLCAnPG91dGZpbGUubWFlPic=

> <r_lp_tautomer_probability>
1

> <r_epik_Ionization_Penalty>
0.0157465

> <r_epik_Ionization_Penalty_Charging>
0.015354

> <r_epik_Ionization_Penalty_Neutral>
0.000392529

> <r_epik_State_Penalty>
0.0120612

> <r_epik_Charging_Adjusted_Penalty>
0.0274152

> <i_epik_Tot_Q>
1

> <i_epik_Tot_abs_Q>
1

> <r_epik_Metal_State_Penalty>
0.0121253

> <b_epik_Metal_Only>
0

> <s_lp_Force_Field>
OPLS_2005

> <r_lp_Energy>
61.1925

> <b_lp_Chiralities_Consistent>
1

> <s_lp_Variant>
AV-unprocessed.smi:21-16

> <Gold.Version>
5.8.1

> <Gold.Id.Protein>
6NUR|6NUR_protein|mol2

> <Gold.PLP.Fitness>
46.1173

> <Gold.PLP.PLP>
-39.4958

> <Gold.PLP.part.hbond>
-3.0000

> <Gold.PLP.part.metal>
0.0000

> <Gold.PLP.part.buried>
-6.4925

> <Gold.PLP.part.nonpolar>
-29.5049

> <Gold.PLP.part.repulsive>
0.0976

> <Gold.PLP.ligand.clash>
0.0000

> <Gold.PLP.ligand.torsion>
1.6437

> <Gold.PLP.Chemscore.Hbond>
3.0824

> <Gold.PLP.Chemscore.CHOScore>
0.0000

> <Gold.PLP.Chemscore.Metal>
0.0000

> <Gold.Chemscore.Hbonds>
donor molecule, donor type, donor heavy atom, donor atom, acceptor molecule, acceptor atom, score
      L1  H    21    49       P1  8028  0.94
      L1  H    27    62       P1  7948  1.90
      P1  H  6931  6943       L1    12  0.11

> <Gold.PLP.Chemscore.Internal.Correction>
0.6619

> <Gold.Rescore>
     Score         DG    S(hbond)    S(metal)    S(lipo)     H(rot)  DE(clash)    DE(int)     intcor
     11.22     -14.12       1.90        0.00      86.96       3.08       0.01       2.89       ----

> <Gold.Chemscore.Fitness>
11.2224

> <Gold.Chemscore.DG>
-14.1203

> <Gold.Chemscore.ZeroCoef>
-5.4800

> <Gold.Chemscore.Hbond>
1.8982

> <Gold.Chemscore.Metal>
0.0000

> <Gold.Chemscore.Lipo>
86.9619

> <Gold.Chemscore.Internal_Hbond>
0.0000

> <Gold.Chemscore.DEClash>
0.0069

> <Gold.Chemscore.DEInternal>
2.8909

> <Gold.Chemscore.Rot>
3.0758

> <Gold.Chemscore.Internal.Correction>
   9.000000E+99

> <Gold.Chemscore.Hbonds>
donor molecule, donor type, donor heavy atom, donor atom, acceptor molecule, acceptor atom, score
      L1  H    21    49       P1  8028  0.85
      L1  H    27    62       P1  7948  0.21
      P1  H  6931  6943       L1    12  0.01

> <Gold.Chemscore.Hbond.Weighted>
-6.3399

> <Gold.Chemscore.Metal.Weighted>
-0.0000

> <Gold.Chemscore.Lipo.Weighted>
-10.1745

> <Gold.Chemscore.Internal_Hbond.Weighted>
0.0000

> <Gold.Chemscore.DEClash.Weighted>
0.0069

> <Gold.Chemscore.DEInternal.Weighted>
2.8909

> <Gold.Chemscore.Rot.Weighted>
7.8741

> <Gold.Chemscore.Internal.Correction.Weighted>
   9.000000E+99

> <Gold.Protein.RotatedTorsions>
[ 6907 6896 6895 6894 ] final  -13.69 input  -60.11 | X-H torsion
[ 7974 7965 7964 7962 ] final   58.53 input  175.53 | X-H torsion
[ 8008 7997 7996 7995 ] final   37.65 input   59.86 | X-H torsion
[ 10167 10162 10161 10158 ] final -139.44 input  -65.29 | X-H torsion
[ 10718 10713 10712 10709 ] final  -87.80 input   66.30 | X-H torsion
[ 10763 10752 10751 10750 ] final -130.64 input  -60.55 | X-H torsion
[ 11005 11000 10999 10996 ] final  135.10 input  -57.11 | X-H torsion

> <Gold.Protein.ActiveResidues>
 VAL166  LYS551  ARG553  GLY616  TRP617  ASP618  TYR619  PRO620  LYS621  CYS622 
 ASP623  PHE694  ASN695  SER759  ASP760  ASP761  ALA762  ILE779  LEU786  VAL792 
 PHE793  MET794  SER795  GLU796  ALA797  LYS798  CYS799  TRP800  GLU811  SER814 

> <Gold.Protein.RotatedAtoms>
  151.3510  135.0884  159.9402 H   0  0  0  0  0  0  0  0  0  0  0  0  # atno 6907 bound_to 6896
  152.5187  133.9352  159.7610 H   0  0  0  0  0  0  0  0  0  0  0  0  # atno 6908 bound_to 6896
  150.9728  133.6273  159.2764 H   0  0  0  0  0  0  0  0  0  0  0  0  # atno 6909 bound_to 6896
  145.9171  139.3700  143.0500 H   0  0  0  0  0  0  0  0  0  0  0  0  # atno 7974 bound_to 7965
  155.2073  140.3320  155.4334 H   0  0  0  0  0  0  0  0  0  0  0  0  # atno 8008 bound_to 7997
  156.2384  140.1883  156.7105 H   0  0  0  0  0  0  0  0  0  0  0  0  # atno 8009 bound_to 7997
  154.6102  140.0610  156.9469 H   0  0  0  0  0  0  0  0  0  0  0  0  # atno 8010 bound_to 7997
  139.8379  143.7360  152.2664 H   0  0  0  0  0  0  0  0  0  0  0  0  # atno 10167 bound_to 10162
  155.9984  130.4813  150.4923 H   0  0  0  0  0  0  0  0  0  0  0  0  # atno 10718 bound_to 10713
  154.8754  135.3856  154.4115 H   0  0  0  0  0  0  0  0  0  0  0  0  # atno 10763 bound_to 10752
  153.4829  135.7030  153.5933 H   0  0  0  0  0  0  0  0  0  0  0  0  # atno 10764 bound_to 10752
  153.4341  135.3871  155.2155 H   0  0  0  0  0  0  0  0  0  0  0  0  # atno 10765 bound_to 10752
  139.9958  134.9498  156.9960 H   0  0  0  0  0  0  0  0  0  0  0  0  # atno 11005 bound_to 11000
  145.8597  140.9482  143.0706 LP  0  0  0  0  0  0  0  0  0  0  0  0  # atno 17320 bound_to 7965
  144.6749  140.0515  143.7478 LP  0  0  0  0  0  0  0  0  0  0  0  0  # atno 17321 bound_to 7965
  139.7588  144.7513  151.0395 LP  0  0  0  0  0  0  0  0  0  0  0  0  # atno 17342 bound_to 10162
  140.7801  143.4775  151.0063 LP  0  0  0  0  0  0  0  0  0  0  0  0  # atno 17343 bound_to 10162
  157.2916  131.0627  151.2130 LP  0  0  0  0  0  0  0  0  0  0  0  0  # atno 17370 bound_to 10713
  157.3140  130.6904  149.6231 LP  0  0  0  0  0  0  0  0  0  0  0  0  # atno 17371 bound_to 10713
  140.4822  134.1278  155.7218 LP  0  0  0  0  0  0  0  0  0  0  0  0  # atno 17394 bound_to 11000
  141.1603  133.8806  157.1867 LP  0  0  0  0  0  0  0  0  0  0  0  0  # atno 17395 bound_to 11000

$$$$
