AV-unprocessed.smi:355|AV-procd|sdf|2407|dock4
  -GOLD-   2262022343D 1   1.00000     0.00000
 Structure written by MMmdl.
 39 40  0  0  0  0  0  0  0  0  1 V2000
  153.2779  142.5224  162.5411 C   0  0  0  0  0  0  0  0  0  0  0  0
  152.5672  142.8584  161.2461 C   0  0  0  0  0  0  0  0  0  0  0  0
  152.0057  144.1369  161.0581 C   0  0  0  0  0  0  0  0  0  0  0  0
  151.3464  144.4447  159.8539 C   0  0  0  0  0  0  0  0  0  0  0  0
  151.2465  143.4755  158.8379 C   0  0  0  0  0  0  0  0  0  0  0  0
  151.7989  142.1900  159.0109 C   0  0  0  0  0  0  0  0  0  0  0  0
  151.6540  141.3038  157.9658 O   0  0  0  0  0  0  0  0  0  0  0  0
  150.9653  141.7378  156.8015 C   0  0  0  0  0  0  0  0  0  0  0  0
  151.3972  140.8961  155.5839 C   0  0  0  0  0  0  0  0  0  0  0  0
  150.3575  139.9221  155.1715 N   0  0  0  0  0  0  0  0  0  0  0  0
  150.4933  138.5401  155.5182 C   0  0  0  0  0  0  0  0  0  0  0  0
  151.7550  138.0623  156.2530 C   0  0  0  0  0  0  0  0  0  0  0  0
  151.7217  136.7455  156.4624 F   0  0  0  0  0  0  0  0  0  0  0  0
  152.8470  138.3087  155.5284 F   0  0  0  0  0  0  0  0  0  0  0  0
  151.8857  138.6328  157.4499 F   0  0  0  0  0  0  0  0  0  0  0  0
  149.5205  137.6698  155.1904 C   0  0  0  0  0  0  0  0  0  0  0  0
  148.3522  138.1216  154.4876 C   0  0  0  0  0  0  0  0  0  0  0  0
  148.2220  139.4181  154.1264 C   0  0  0  0  0  0  0  0  0  0  0  0
  147.0371  139.9302  153.3998 C   0  0  0  0  0  0  0  0  0  0  0  0
  146.1527  138.9858  153.0551 N   0  0  0  0  0  0  0  0  0  0  0  0
  146.8020  141.0994  153.0949 O   0  0  0  0  0  0  0  0  0  0  0  0
  149.2827  140.4044  154.4583 C   0  0  0  0  0  0  0  0  0  0  0  0
  149.2362  141.5944  154.1330 O   0  0  0  0  0  0  0  0  0  0  0  0
  152.4622  141.8884  160.2275 C   0  0  0  0  0  0  0  0  0  0  0  0
  153.6434  143.4243  163.0333 H   0  0  0  0  0  0  0  0  0  0  0  0
  154.1321  141.8705  162.3552 H   0  0  0  0  0  0  0  0  0  0  0  0
  152.5970  142.0114  163.2220 H   0  0  0  0  0  0  0  0  0  0  0  0
  152.0786  144.8842  161.8347 H   0  0  0  0  0  0  0  0  0  0  0  0
  150.9162  145.4245  159.7084 H   0  0  0  0  0  0  0  0  0  0  0  0
  150.7383  143.7198  157.9165 H   0  0  0  0  0  0  0  0  0  0  0  0
  149.8923  141.6115  156.9532 H   0  0  0  0  0  0  0  0  0  0  0  0
  151.1563  142.7966  156.6232 H   0  0  0  0  0  0  0  0  0  0  0  0
  151.6756  141.5601  154.7639 H   0  0  0  0  0  0  0  0  0  0  0  0
  152.3395  140.4083  155.8120 H   0  0  0  0  0  0  0  0  0  0  0  0
  149.6036  136.6217  155.4371 H   0  0  0  0  0  0  0  0  0  0  0  0
  147.5957  137.3838  154.2647 H   0  0  0  0  0  0  0  0  0  0  0  0
  145.3112  139.2380  152.5581 H   0  0  0  0  0  0  0  0  0  0  0  0
  146.3320  138.0219  153.2971 H   0  0  0  0  0  0  0  0  0  0  0  0
  152.9005  140.9173  160.4005 H   0  0  0  0  0  0  0  0  0  0  0  0
  1  2  1  0  0  0  0
  1 25  1  0  0  0  0
  1 26  1  0  0  0  0
  1 27  1  0  0  0  0
  2 24  1  0  0  0  0
  2  3  2  0  0  0  0
  3  4  1  0  0  0  0
  3 28  1  0  0  0  0
  4  5  2  0  0  0  0
  4 29  1  0  0  0  0
  5  6  1  0  0  0  0
  5 30  1  0  0  0  0
  6  7  1  0  0  0  0
  6 24  2  0  0  0  0
  7  8  1  0  0  0  0
  8  9  1  0  0  0  0
  8 31  1  0  0  0  0
  8 32  1  0  0  0  0
  9 10  1  0  0  0  0
  9 33  1  0  0  0  0
  9 34  1  0  0  0  0
 10 22  1  0  0  0  0
 10 11  1  0  0  0  0
 11 12  1  0  0  0  0
 11 16  2  0  0  0  0
 12 13  1  0  0  0  0
 12 14  1  0  0  0  0
 12 15  1  0  0  0  0
 16 17  1  0  0  0  0
 16 35  1  0  0  0  0
 17 18  2  0  0  0  0
 17 36  1  0  0  0  0
 18 19  1  0  0  0  0
 18 22  1  0  0  0  0
 19 20  1  0  0  0  0
 19 21  2  0  0  0  0
 20 37  1  0  0  0  0
 20 38  1  0  0  0  0
 22 23  2  0  0  0  0
 24 39  1  0  0  0  0
M  END
> <s_m_source_file>
AV-unprocessed.smi

> <i_m_source_file_index>
355

> <i_lp_mmshare_version>
43012

> <i_f3d_flags>
0

> <s_epik_input>
W0NIM11jMVtjSF1bY0hdW2NIXWMoW2NIXTEpT1tDSDJdW0NIMl1uMmMoQyhGKShGKUYpW2NIXVtjSF1jKGMyPU8pQyg9TylbTkgyXQ==

> <s_epik_cmdline>
J2VwaWtfcHl0aG9uJywgJy1waCcsICc3LjAnLCAnLXRuJywgJzgnLCAnLW1hJywgJzIwMCcsICctbWV0YWxfYmluZGluZycsICctaW1hZScsICc8aW5maWxlLm1hZT4nLCAnLW9tYWUnLCAnPG91dGZpbGUubWFlPic=

> <r_lp_tautomer_probability>
1

> <r_epik_Ionization_Penalty>
1.75992e-06

> <r_epik_Ionization_Penalty_Charging>
1.13667e-09

> <r_epik_Ionization_Penalty_Neutral>
1.75878e-06

> <r_epik_State_Penalty>
-0

> <r_epik_Charging_Adjusted_Penalty>
1.13667e-09

> <i_epik_Tot_Q>
0

> <i_epik_Tot_abs_Q>
0

> <r_epik_Metal_State_Penalty>
-0

> <b_epik_Metal_Only>
0

> <s_lp_Force_Field>
OPLS_2005

> <r_lp_Energy>
35.0119

> <b_lp_Chiralities_Consistent>
1

> <s_lp_Variant>
AV-unprocessed.smi:355-1

> <Gold.Version>
5.8.1

> <Gold.Id.Protein>
6NUR|6NUR_protein|mol2

> <Gold.PLP.Fitness>
46.7281

> <Gold.PLP.PLP>
-45.3139

> <Gold.PLP.part.hbond>
-3.0000

> <Gold.PLP.part.metal>
0.0000

> <Gold.PLP.part.buried>
-4.5154

> <Gold.PLP.part.nonpolar>
-37.7145

> <Gold.PLP.part.repulsive>
0.3913

> <Gold.PLP.ligand.clash>
5.7026

> <Gold.PLP.ligand.torsion>
0.7018

> <Gold.PLP.Chemscore.Hbond>
1.6264

> <Gold.PLP.Chemscore.CHOScore>
0.0000

> <Gold.PLP.Chemscore.Metal>
0.0000

> <Gold.Chemscore.Hbonds>
donor molecule, donor type, donor heavy atom, donor atom, acceptor molecule, acceptor atom, score
      L1  H    20    37       P1 10175  0.92
      P1  H  8011  8017       L1    23  0.57

> <Gold.PLP.Chemscore.Internal.Correction>
3.6412

> <Gold.Rescore>
     Score         DG    S(hbond)    S(metal)    S(lipo)     H(rot)  DE(clash)    DE(int)     intcor
     13.05     -19.32       1.56        0.00     114.00       1.84       1.22       5.05       ----

> <Gold.Chemscore.Fitness>
13.0459

> <Gold.Chemscore.DG>
-19.3218

> <Gold.Chemscore.ZeroCoef>
-5.4800

> <Gold.Chemscore.Hbond>
1.5621

> <Gold.Chemscore.Metal>
0.0000

> <Gold.Chemscore.Lipo>
113.9990

> <Gold.Chemscore.Internal_Hbond>
0.0000

> <Gold.Chemscore.DEClash>
1.2215

> <Gold.Chemscore.DEInternal>
5.0544

> <Gold.Chemscore.Rot>
1.8412

> <Gold.Chemscore.Internal.Correction>
   9.000000E+99

> <Gold.Chemscore.Hbonds>
donor molecule, donor type, donor heavy atom, donor atom, acceptor molecule, acceptor atom, score
      L1  H    20    37       P1 10175  0.83
      P1  H  8011  8017       L1    23  0.54

> <Gold.Chemscore.Hbond.Weighted>
-5.2173

> <Gold.Chemscore.Metal.Weighted>
-0.0000

> <Gold.Chemscore.Lipo.Weighted>
-13.3379

> <Gold.Chemscore.Internal_Hbond.Weighted>
0.0000

> <Gold.Chemscore.DEClash.Weighted>
1.2215

> <Gold.Chemscore.DEInternal.Weighted>
5.0544

> <Gold.Chemscore.Rot.Weighted>
4.7134

> <Gold.Chemscore.Internal.Correction.Weighted>
   9.000000E+99

> <Gold.Protein.RotatedTorsions>
[ 6907 6896 6895 6894 ] final   72.37 input  -60.11 | X-H torsion
[ 7974 7965 7964 7962 ] final  -85.60 input  175.53 | X-H torsion
[ 8008 7997 7996 7995 ] final  145.23 input   59.86 | X-H torsion
[ 10167 10162 10161 10158 ] final -105.13 input  -65.29 | X-H torsion
[ 10718 10713 10712 10709 ] final  -24.82 input   66.30 | X-H torsion
[ 10763 10752 10751 10750 ] final -134.21 input  -60.55 | X-H torsion
[ 11005 11000 10999 10996 ] final    3.68 input  -57.11 | X-H torsion

> <Gold.Protein.ActiveResidues>
 VAL166  LYS551  ARG553  GLY616  TRP617  ASP618  TYR619  PRO620  LYS621  CYS622 
 ASP623  PHE694  ASN695  SER759  ASP760  ASP761  ALA762  ILE779  LEU786  VAL792 
 PHE793  MET794  SER795  GLU796  ALA797  LYS798  CYS799  TRP800  GLU811  SER814 

> <Gold.Protein.RotatedAtoms>
  152.4864  134.4582  159.9596 H   0  0  0  0  0  0  0  0  0  0  0  0  # atno 6907 bound_to 6896
  151.4577  133.3595  159.2812 H   0  0  0  0  0  0  0  0  0  0  0  0  # atno 6908 bound_to 6896
  150.8978  134.8412  159.7399 H   0  0  0  0  0  0  0  0  0  0  0  0  # atno 6909 bound_to 6896
  145.4911  140.9552  143.1812 H   0  0  0  0  0  0  0  0  0  0  0  0  # atno 7974 bound_to 7965
  156.2888  140.2215  156.5181 H   0  0  0  0  0  0  0  0  0  0  0  0  # atno 8008 bound_to 7997
  154.7552  140.0477  157.0949 H   0  0  0  0  0  0  0  0  0  0  0  0  # atno 8009 bound_to 7997
  155.0060  140.3107  155.4851 H   0  0  0  0  0  0  0  0  0  0  0  0  # atno 8010 bound_to 7997
  140.2019  143.3812  152.1122 H   0  0  0  0  0  0  0  0  0  0  0  0  # atno 10167 bound_to 10162
  156.4725  130.4527  149.6860 H   0  0  0  0  0  0  0  0  0  0  0  0  # atno 10718 bound_to 10713
  154.8722  135.3742  154.4698 H   0  0  0  0  0  0  0  0  0  0  0  0  # atno 10763 bound_to 10752
  153.5359  135.7027  153.5665 H   0  0  0  0  0  0  0  0  0  0  0  0  # atno 10764 bound_to 10752
  153.3848  135.3987  155.1847 H   0  0  0  0  0  0  0  0  0  0  0  0  # atno 10765 bound_to 10752
  140.5904  133.9930  155.8086 H   0  0  0  0  0  0  0  0  0  0  0  0  # atno 11005 bound_to 11000
  144.7833  139.6479  143.7145 LP  0  0  0  0  0  0  0  0  0  0  0  0  # atno 17320 bound_to 7965
  146.2284  139.5766  142.9572 LP  0  0  0  0  0  0  0  0  0  0  0  0  # atno 17321 bound_to 7965
  139.5214  144.7045  151.5395 LP  0  0  0  0  0  0  0  0  0  0  0  0  # atno 17342 bound_to 10162
  140.6384  143.8937  150.6669 LP  0  0  0  0  0  0  0  0  0  0  0  0  # atno 17343 bound_to 10162
  156.3603  130.7478  151.2449 LP  0  0  0  0  0  0  0  0  0  0  0  0  # atno 17370 bound_to 10713
  157.7490  131.0352  150.4352 LP  0  0  0  0  0  0  0  0  0  0  0  0  # atno 17371 bound_to 10713
  141.0939  133.9874  157.3193 LP  0  0  0  0  0  0  0  0  0  0  0  0  # atno 17394 bound_to 11000
  139.9277  135.0201  156.8291 LP  0  0  0  0  0  0  0  0  0  0  0  0  # atno 17395 bound_to 11000

$$$$
