AV-unprocessed.smi:1817|AV-procd|sdf|7371|dock6
  -GOLD-   22720 9 33D 1   1.00000     0.00000
 Structure written by MMmdl.
 43 44  0  0  0  0  0  0  0  0  2 V2000
  144.7962  131.2968  150.9013 C   0  0  0  0  0  0  0  0  0  0  0  0
  145.4004  131.8311  152.2078 C   0  0  0  0  0  0  0  0  0  0  0  0
  146.6909  132.4880  151.9867 N   0  0  0  0  0  0  0  0  0  0  0  0
  146.7617  133.3402  150.7985 C   0  0  0  0  0  0  0  0  0  0  0  0
  145.9025  134.6150  150.9332 C   0  0  0  0  0  0  0  0  0  0  0  0
  146.2923  135.4173  152.1277 N   0  3  0  0  0  0  0  0  0  0  0  0
  145.5254  136.6959  152.3117 C   0  0  1  0  0  0  0  0  0  0  0  0
  145.8802  137.7103  151.1980 C   0  0  0  0  0  0  0  0  0  0  0  0
  143.9868  136.4787  152.3823 C   0  0  0  0  0  0  0  0  0  0  0  0
  143.2411  137.7065  152.6525 N   0  0  0  0  0  0  0  0  0  0  0  0
  142.0140  137.7726  153.1903 C   0  0  0  0  0  0  0  0  0  0  0  0
  141.3518  136.7803  153.4922 O   0  0  0  0  0  0  0  0  0  0  0  0
  141.6199  139.0470  153.3431 N   0  0  0  0  0  0  0  0  0  0  0  0
  140.3897  139.5240  153.8608 C   0  0  0  0  0  0  0  0  0  0  0  0
  139.4325  138.6283  154.1285 N   0  0  0  0  0  0  0  0  0  0  0  0
  138.2839  139.2282  154.6303 N   0  0  0  0  0  0  0  0  0  0  0  0
  138.4210  140.5543  154.7229 C   0  0  0  0  0  0  0  0  0  0  0  0
  139.9672  141.2036  154.2062 S   0  0  0  0  0  0  0  0  0  0  0  0
  146.2618  134.5421  153.3335 C   0  0  0  0  0  0  0  0  0  0  0  0
  147.1236  133.2775  153.1385 C   0  0  0  0  0  0  0  0  0  0  0  0
  143.9100  130.6970  151.1098 H   0  0  0  0  0  0  0  0  0  0  0  0
  145.5039  130.6623  150.3672 H   0  0  0  0  0  0  0  0  0  0  0  0
  144.4889  132.1008  150.2333 H   0  0  0  0  0  0  0  0  0  0  0  0
  144.6912  132.4902  152.7071 H   0  0  0  0  0  0  0  0  0  0  0  0
  145.5574  130.9835  152.8763 H   0  0  0  0  0  0  0  0  0  0  0  0
  147.8035  133.6236  150.6415 H   0  0  0  0  0  0  0  0  0  0  0  0
  146.4711  132.7803  149.9103 H   0  0  0  0  0  0  0  0  0  0  0  0
  146.0661  135.1880  150.0218 H   0  0  0  0  0  0  0  0  0  0  0  0
  144.8396  134.3735  150.9713 H   0  0  0  0  0  0  0  0  0  0  0  0
  145.8309  137.1240  153.2680 H   0  0  0  0  0  0  0  0  0  0  0  0
  145.3545  138.6556  151.3269 H   0  0  0  0  0  0  0  0  0  0  0  0
  145.6184  137.3211  150.2136 H   0  0  0  0  0  0  0  0  0  0  0  0
  146.9353  137.9751  151.1829 H   0  0  0  0  0  0  0  0  0  0  0  0
  143.6290  135.9951  151.4717 H   0  0  0  0  0  0  0  0  0  0  0  0
  143.7282  135.8159  153.2071 H   0  0  0  0  0  0  0  0  0  0  0  0
  143.7069  138.5757  152.4351 H   0  0  0  0  0  0  0  0  0  0  0  0
  142.2733  139.7611  153.0565 H   0  0  0  0  0  0  0  0  0  0  0  0
  137.6052  141.1541  155.0984 H   0  0  0  0  0  0  0  0  0  0  0  0
  146.6589  135.0636  154.2012 H   0  0  0  0  0  0  0  0  0  0  0  0
  145.2322  134.2791  153.5789 H   0  0  0  0  0  0  0  0  0  0  0  0
  147.0959  132.6592  154.0364 H   0  0  0  0  0  0  0  0  0  0  0  0
  148.1669  133.5633  152.9970 H   0  0  0  0  0  0  0  0  0  0  0  0
  147.2566  135.6798  151.9814 H   0  0  0  0  0  0  0  0  0  0  0  0
  1  2  1  0  0  0  0
  1 21  1  0  0  0  0
  1 22  1  0  0  0  0
  1 23  1  0  0  0  0
  2  3  1  0  0  0  0
  2 24  1  0  0  0  0
  2 25  1  0  0  0  0
  3 20  1  0  0  0  0
  3  4  1  0  0  0  0
  4  5  1  0  0  0  0
  4 26  1  0  0  0  0
  4 27  1  0  0  0  0
  5  6  1  0  0  0  0
  5 28  1  0  0  0  0
  5 29  1  0  0  0  0
  6  7  1  0  0  0  0
  6 19  1  0  0  0  0
  6 43  1  0  0  0  0
  7  8  1  0  0  0  0
  7  9  1  0  0  0  0
  7 30  1  0  0  0  0
  8 31  1  0  0  0  0
  8 32  1  0  0  0  0
  8 33  1  0  0  0  0
  9 10  1  0  0  0  0
  9 34  1  0  0  0  0
  9 35  1  0  0  0  0
 10 11  1  0  0  0  0
 10 36  1  0  0  0  0
 11 12  2  0  0  0  0
 11 13  1  0  0  0  0
 13 14  1  0  0  0  0
 13 37  1  0  0  0  0
 14 18  1  0  0  0  0
 14 15  2  0  0  0  0
 15 16  1  0  0  0  0
 16 17  2  0  0  0  0
 17 18  1  0  0  0  0
 17 38  1  0  0  0  0
 19 20  1  0  0  0  0
 19 39  1  0  0  0  0
 19 40  1  0  0  0  0
 20 41  1  0  0  0  0
 20 42  1  0  0  0  0
M  CHG  1   6   1
M  END
> <s_m_source_file>
AV-unprocessed.smi

> <i_m_source_file_index>
1817

> <i_lp_mmshare_version>
43012

> <i_f3d_flags>
0

> <s_epik_input>
W0NIM11bQ0gyXU4xW0NIMl1bQ0gyXU4oW0NIMl1bQ0gyXTEpW0NASF0oW0NIM10pW0NIMl1bTkhdQyg9TylbTkhdYzJubltjSF1zMg==

> <s_epik_cmdline>
J2VwaWtfcHl0aG9uJywgJy1waCcsICc3LjAnLCAnLXRuJywgJzgnLCAnLW1hJywgJzIwMCcsICctbWV0YWxfYmluZGluZycsICctaW1hZScsICc8aW5maWxlLm1hZT4nLCAnLW9tYWUnLCAnPG91dGZpbGUubWFlPic=

> <r_epik_Ionization_Penalty>
0.153808

> <r_epik_Ionization_Penalty_Charging>
0.148467

> <r_epik_Ionization_Penalty_Neutral>
0.00534086

> <r_epik_State_Penalty>
0.974087

> <r_epik_Charging_Adjusted_Penalty>
1.12255

> <i_epik_Tot_Q>
1

> <i_epik_Tot_abs_Q>
1

> <r_epik_Metal_State_Penalty>
1.30894

> <b_epik_Metal_Only>
0

> <s_lp_Force_Field>
OPLS_2005

> <r_lp_Energy>
21.4774

> <b_lp_Chiralities_Consistent>
1

> <s_lp_Variant>
AV-unprocessed.smi:1817-4

> <Gold.Version>
5.8.1

> <Gold.Id.Protein>
6NUR|6NUR_protein|mol2

> <Gold.PLP.Fitness>
40.5882

> <Gold.PLP.PLP>
-29.5014

> <Gold.PLP.part.hbond>
-4.9168

> <Gold.PLP.part.metal>
0.0000

> <Gold.PLP.part.buried>
-1.0354

> <Gold.PLP.part.nonpolar>
-24.4031

> <Gold.PLP.part.repulsive>
0.4618

> <Gold.PLP.ligand.clash>
0.0000

> <Gold.PLP.ligand.torsion>
0.4036

> <Gold.PLP.Chemscore.Hbond>
3.9440

> <Gold.PLP.Chemscore.CHOScore>
0.0000

> <Gold.PLP.Chemscore.Metal>
0.0000

> <Gold.Chemscore.Hbonds>
donor molecule, donor type, donor heavy atom, donor atom, acceptor molecule, acceptor atom, score
      L1  H     6    43       P1  7948  2.00
      L1  H    10    36       P1 10175  0.94
      L1  H    13    37       P1 10175  1.00

> <Gold.PLP.Chemscore.Internal.Correction>
0.0622

> <Gold.Rescore>
     Score         DG    S(hbond)    S(metal)    S(lipo)     H(rot)  DE(clash)    DE(int)     intcor
     14.43     -17.61       2.85        0.00      64.15       1.92       1.33       1.85       ----

> <Gold.Chemscore.Fitness>
14.4317

> <Gold.Chemscore.DG>
-17.6060

> <Gold.Chemscore.ZeroCoef>
-5.4800

> <Gold.Chemscore.Hbond>
2.8547

> <Gold.Chemscore.Metal>
0.0000

> <Gold.Chemscore.Lipo>
64.1478

> <Gold.Chemscore.Internal_Hbond>
0.0000

> <Gold.Chemscore.DEClash>
1.3268

> <Gold.Chemscore.DEInternal>
1.8476

> <Gold.Chemscore.Rot>
1.9196

> <Gold.Chemscore.Internal.Correction>
   9.000000E+99

> <Gold.Chemscore.Hbonds>
donor molecule, donor type, donor heavy atom, donor atom, acceptor molecule, acceptor atom, score
      L1  H     6    43       P1  7948  1.00
      L1  H    10    36       P1 10175  0.91
      L1  H    13    37       P1 10175  0.77

> <Gold.Chemscore.Hbond.Weighted>
-9.5348

> <Gold.Chemscore.Metal.Weighted>
-0.0000

> <Gold.Chemscore.Lipo.Weighted>
-7.5053

> <Gold.Chemscore.Internal_Hbond.Weighted>
0.0000

> <Gold.Chemscore.DEClash.Weighted>
1.3268

> <Gold.Chemscore.DEInternal.Weighted>
1.8476

> <Gold.Chemscore.Rot.Weighted>
4.9141

> <Gold.Chemscore.Internal.Correction.Weighted>
   9.000000E+99

> <Gold.Protein.RotatedTorsions>
[ 6907 6896 6895 6894 ] final  -80.97 input  -60.11 | X-H torsion
[ 7974 7965 7964 7962 ] final  -23.58 input  175.53 | X-H torsion
[ 8008 7997 7996 7995 ] final   79.95 input   59.86 | X-H torsion
[ 10167 10162 10161 10158 ] final -147.65 input  -65.29 | X-H torsion
[ 10718 10713 10712 10709 ] final  148.00 input   66.30 | X-H torsion
[ 10763 10752 10751 10750 ] final  147.66 input  -60.55 | X-H torsion
[ 11005 11000 10999 10996 ] final -104.49 input  -57.11 | X-H torsion

> <Gold.Protein.ActiveResidues>
 VAL166  LYS551  ARG553  GLY616  TRP617  ASP618  TYR619  PRO620  LYS621  CYS622 
 ASP623  PHE694  ASN695  SER759  ASP760  ASP761  ALA762  ILE779  LEU786  VAL792 
 PHE793  MET794  SER795  GLU796  ALA797  LYS798  CYS799  TRP800  GLU811  SER814 

> <Gold.Protein.RotatedAtoms>
  150.6920  134.3888  159.5066 H   0  0  0  0  0  0  0  0  0  0  0  0  # atno 6907 bound_to 6896
  152.1679  134.8855  160.0546 H   0  0  0  0  0  0  0  0  0  0  0  0  # atno 6908 bound_to 6896
  151.9892  133.3750  159.4175 H   0  0  0  0  0  0  0  0  0  0  0  0  # atno 6909 bound_to 6896
  146.1607  140.4636  142.8572 H   0  0  0  0  0  0  0  0  0  0  0  0  # atno 7974 bound_to 7965
  155.8768  140.3446  155.5859 H   0  0  0  0  0  0  0  0  0  0  0  0  # atno 8008 bound_to 7997
  155.7765  140.0852  157.2100 H   0  0  0  0  0  0  0  0  0  0  0  0  # atno 8009 bound_to 7997
  154.4021  140.1508  156.2990 H   0  0  0  0  0  0  0  0  0  0  0  0  # atno 8010 bound_to 7997
  139.7603  143.8387  152.2605 H   0  0  0  0  0  0  0  0  0  0  0  0  # atno 10167 bound_to 10162
  157.3141  131.0893  151.1293 H   0  0  0  0  0  0  0  0  0  0  0  0  # atno 10718 bound_to 10713
  154.0420  135.2889  155.3353 H   0  0  0  0  0  0  0  0  0  0  0  0  # atno 10763 bound_to 10752
  154.6923  135.5221  153.8413 H   0  0  0  0  0  0  0  0  0  0  0  0  # atno 10764 bound_to 10752
  153.0596  135.6608  154.0623 H   0  0  0  0  0  0  0  0  0  0  0  0  # atno 10765 bound_to 10752
  141.1098  133.8727  157.1617 H   0  0  0  0  0  0  0  0  0  0  0  0  # atno 11005 bound_to 11000
  144.8023  140.6236  143.6470 LP  0  0  0  0  0  0  0  0  0  0  0  0  # atno 17320 bound_to 7965
  145.4595  139.1514  143.3874 LP  0  0  0  0  0  0  0  0  0  0  0  0  # atno 17321 bound_to 7965
  139.8391  144.7218  150.9354 LP  0  0  0  0  0  0  0  0  0  0  0  0  # atno 17342 bound_to 10162
  140.7806  143.4000  151.1165 LP  0  0  0  0  0  0  0  0  0  0  0  0  # atno 17343 bound_to 10162
  157.2604  130.6656  149.5972 LP  0  0  0  0  0  0  0  0  0  0  0  0  # atno 17370 bound_to 10713
  155.9680  130.4510  150.5720 LP  0  0  0  0  0  0  0  0  0  0  0  0  # atno 17371 bound_to 10713
  139.9986  135.0037  157.0139 LP  0  0  0  0  0  0  0  0  0  0  0  0  # atno 17394 bound_to 11000
  140.4805  134.1294  155.7216 LP  0  0  0  0  0  0  0  0  0  0  0  0  # atno 17395 bound_to 11000

$$$$
