AV-unprocessed.smi:3149|AV-procd|sdf|12004|dock3
  -GOLD-   2272017413D 1   1.00000     0.00000
 Structure written by MMmdl.
 37 38  0  0  0  0  0  0  0  0  1 V2000
  152.8023  144.6444  157.8671 C   0  0  0  0  0  0  0  0  0  0  0  0
  151.4084  144.0098  158.0656 C   0  0  1  0  0  0  0  0  0  0  0  0
  151.3406  142.7567  157.3181 N   0  0  0  0  0  0  0  0  0  0  0  0
  150.1058  142.0010  157.5620 C   0  0  0  0  0  0  0  0  0  0  0  0
  149.5435  141.4237  156.2606 C   0  0  0  0  0  0  0  0  0  0  0  0
  148.4006  141.7080  155.9024 O   0  0  0  0  0  0  0  0  0  0  0  0
  150.3955  140.6526  155.4653 N   0  0  0  0  0  0  0  0  0  0  0  0
  151.5141  139.9265  156.0470 C   0  0  0  0  0  0  0  0  0  0  0  0
  151.3228  138.9312  154.8978 C   0  0  0  0  0  0  0  0  0  0  0  0
  149.9133  139.5034  154.7136 C   0  0  0  0  0  0  0  0  0  0  0  0
  151.0824  143.7027  159.5534 C   0  0  2  0  0  0  0  0  0  0  0  0
  150.8694  144.9809  160.3888 C   0  0  0  0  0  0  0  0  0  0  0  0
  152.0976  142.8627  160.1781 N   0  0  0  0  0  0  0  0  0  0  0  0
  152.7348  143.0526  161.3872 C   0  0  0  0  0  0  0  0  0  0  0  0
  153.6010  142.0114  161.5612 C   0  0  0  0  0  0  0  0  0  0  0  0
  153.4230  141.2243  160.3897 C   0  0  0  0  0  0  0  0  0  0  0  0
  152.5245  141.7353  159.5641 N   0  0  0  0  0  0  0  0  0  0  0  0
  152.8827  145.6047  158.3764 H   0  0  0  0  0  0  0  0  0  0  0  0
  153.0193  144.8374  156.8171 H   0  0  0  0  0  0  0  0  0  0  0  0
  153.5900  143.9982  158.2558 H   0  0  0  0  0  0  0  0  0  0  0  0
  150.6515  144.7007  157.6902 H   0  0  0  0  0  0  0  0  0  0  0  0
  151.4826  142.9365  156.3342 H   0  0  0  0  0  0  0  0  0  0  0  0
  150.2882  141.1963  158.2756 H   0  0  0  0  0  0  0  0  0  0  0  0
  149.3486  142.6492  158.0021 H   0  0  0  0  0  0  0  0  0  0  0  0
  152.4572  140.4733  156.0252 H   0  0  0  0  0  0  0  0  0  0  0  0
  151.2955  139.4982  157.0275 H   0  0  0  0  0  0  0  0  0  0  0  0
  151.9810  139.1202  154.0478 H   0  0  0  0  0  0  0  0  0  0  0  0
  151.3451  137.8846  155.2029 H   0  0  0  0  0  0  0  0  0  0  0  0
  149.1473  138.9273  155.2356 H   0  0  0  0  0  0  0  0  0  0  0  0
  149.6442  139.7268  153.6810 H   0  0  0  0  0  0  0  0  0  0  0  0
  150.1521  143.1325  159.5849 H   0  0  0  0  0  0  0  0  0  0  0  0
  150.0169  145.5566  160.0288 H   0  0  0  0  0  0  0  0  0  0  0  0
  151.7440  145.6314  160.3562 H   0  0  0  0  0  0  0  0  0  0  0  0
  150.6753  144.7370  161.4339 H   0  0  0  0  0  0  0  0  0  0  0  0
  152.5202  143.9030  162.0175 H   0  0  0  0  0  0  0  0  0  0  0  0
  154.2612  141.8384  162.3980 H   0  0  0  0  0  0  0  0  0  0  0  0
  153.9165  140.3031  160.1165 H   0  0  0  0  0  0  0  0  0  0  0  0
  1  2  1  0  0  0  0
  1 18  1  0  0  0  0
  1 19  1  0  0  0  0
  1 20  1  0  0  0  0
  2  3  1  0  0  0  0
  2 11  1  0  0  0  0
  2 21  1  0  0  0  0
  3  4  1  0  0  0  0
  3 22  1  0  0  0  0
  4  5  1  0  0  0  0
  4 23  1  0  0  0  0
  4 24  1  0  0  0  0
  5  6  2  0  0  0  0
  5  7  1  0  0  0  0
  7 10  1  0  0  0  0
  7  8  1  0  0  0  0
  8  9  1  0  0  0  0
  8 25  1  0  0  0  0
  8 26  1  0  0  0  0
  9 10  1  0  0  0  0
  9 27  1  0  0  0  0
  9 28  1  0  0  0  0
 10 29  1  0  0  0  0
 10 30  1  0  0  0  0
 11 12  1  0  0  0  0
 11 13  1  0  0  0  0
 11 31  1  0  0  0  0
 12 32  1  0  0  0  0
 12 33  1  0  0  0  0
 12 34  1  0  0  0  0
 13 17  1  0  0  0  0
 13 14  1  0  0  0  0
 14 15  2  0  0  0  0
 14 35  1  0  0  0  0
 15 16  1  0  0  0  0
 15 36  1  0  0  0  0
 16 17  2  0  0  0  0
 16 37  1  0  0  0  0
M  END
> <s_m_source_file>
AV-unprocessed.smi

> <i_m_source_file_index>
3149

> <i_lp_mmshare_version>
43012

> <i_f3d_flags>
0

> <s_epik_input>
bjFbY0hdW2NIXVtjSF1uMVtDQEBIXShbQ0gzXSlbQ0BIXShbQ0gzXSlbTkhdW0NIMl1DKD1PKU4yW0NIMl1bQ0gyXVtDSDJdMg==

> <s_epik_cmdline>
J2VwaWtfcHl0aG9uJywgJy1waCcsICc3LjAnLCAnLXRuJywgJzgnLCAnLW1hJywgJzIwMCcsICctbWV0YWxfYmluZGluZycsICctaW1hZScsICc8aW5maWxlLm1hZT4nLCAnLW9tYWUnLCAnPG91dGZpbGUubWFlPic=

> <r_lp_tautomer_probability>
1

> <r_epik_Ionization_Penalty>
0.918674

> <r_epik_Ionization_Penalty_Charging>
0

> <r_epik_Ionization_Penalty_Neutral>
0.918674

> <r_epik_State_Penalty>
0.958258

> <r_epik_Charging_Adjusted_Penalty>
0.958258

> <i_epik_Tot_Q>
0

> <i_epik_Tot_abs_Q>
0

> <r_epik_Metal_State_Penalty>
0.956881

> <b_epik_Metal_Only>
0

> <s_lp_Force_Field>
OPLS_2005

> <r_lp_Energy>
23.4298

> <b_lp_Chiralities_Consistent>
1

> <s_lp_Variant>
AV-unprocessed.smi:3149-6

> <Gold.Version>
5.8.1

> <Gold.Id.Protein>
6NUR|6NUR_protein|mol2

> <Gold.PLP.Fitness>
41.9413

> <Gold.PLP.PLP>
-42.9672

> <Gold.PLP.part.hbond>
0.0000

> <Gold.PLP.part.metal>
0.0000

> <Gold.PLP.part.buried>
-3.9159

> <Gold.PLP.part.nonpolar>
-39.7634

> <Gold.PLP.part.repulsive>
0.4943

> <Gold.PLP.ligand.clash>
0.0000

> <Gold.PLP.ligand.torsion>
0.9778

> <Gold.PLP.Chemscore.Hbond>
0.0000

> <Gold.PLP.Chemscore.CHOScore>
0.0000

> <Gold.PLP.Chemscore.Metal>
0.0000

> <Gold.PLP.Chemscore.Internal.Correction>
0.9297

> <Gold.Rescore>
     Score         DG    S(hbond)    S(metal)    S(lipo)     H(rot)  DE(clash)    DE(int)     intcor
     11.00     -13.35       0.00        0.00     106.35       1.79       0.04       2.31       ----

> <Gold.Chemscore.Fitness>
10.9981

> <Gold.Chemscore.DG>
-13.3472

> <Gold.Chemscore.ZeroCoef>
-5.4800

> <Gold.Chemscore.Hbond>
0.0000

> <Gold.Chemscore.Metal>
0.0000

> <Gold.Chemscore.Lipo>
106.3511

> <Gold.Chemscore.Internal_Hbond>
0.0000

> <Gold.Chemscore.DEClash>
0.0381

> <Gold.Chemscore.DEInternal>
2.3110

> <Gold.Chemscore.Rot>
1.7874

> <Gold.Chemscore.Internal.Correction>
   9.000000E+99

> <Gold.Chemscore.Hbond.Weighted>
-0.0000

> <Gold.Chemscore.Metal.Weighted>
-0.0000

> <Gold.Chemscore.Lipo.Weighted>
-12.4431

> <Gold.Chemscore.Internal_Hbond.Weighted>
0.0000

> <Gold.Chemscore.DEClash.Weighted>
0.0381

> <Gold.Chemscore.DEInternal.Weighted>
2.3110

> <Gold.Chemscore.Rot.Weighted>
4.5758

> <Gold.Chemscore.Internal.Correction.Weighted>
   9.000000E+99

> <Gold.Protein.RotatedTorsions>
[ 6907 6896 6895 6894 ] final  -58.28 input  -60.11 | X-H torsion
[ 7974 7965 7964 7962 ] final   17.25 input  175.53 | X-H torsion
[ 8008 7997 7996 7995 ] final   25.53 input   59.86 | X-H torsion
[ 10167 10162 10161 10158 ] final -147.00 input  -65.29 | X-H torsion
[ 10718 10713 10712 10709 ] final  -54.32 input   66.30 | X-H torsion
[ 10763 10752 10751 10750 ] final  -73.15 input  -60.55 | X-H torsion
[ 11005 11000 10999 10996 ] final  120.36 input  -57.11 | X-H torsion

> <Gold.Protein.ActiveResidues>
 VAL166  LYS551  ARG553  GLY616  TRP617  ASP618  TYR619  PRO620  LYS621  CYS622 
 ASP623  PHE694  ASN695  SER759  ASP760  ASP761  ALA762  ILE779  LEU786  VAL792 
 PHE793  MET794  SER795  GLU796  ALA797  LYS798  CYS799  TRP800  GLU811  SER814 

> <Gold.Protein.RotatedAtoms>
  150.8019  134.7119  159.6608 H   0  0  0  0  0  0  0  0  0  0  0  0  # atno 6907 bound_to 6896
  152.4137  134.6076  160.0027 H   0  0  0  0  0  0  0  0  0  0  0  0  # atno 6908 bound_to 6896
  151.6312  133.3295  159.3145 H   0  0  0  0  0  0  0  0  0  0  0  0  # atno 6909 bound_to 6896
  146.2224  139.8630  142.8601 H   0  0  0  0  0  0  0  0  0  0  0  0  # atno 7974 bound_to 7965
  155.0131  140.3139  155.4822 H   0  0  0  0  0  0  0  0  0  0  0  0  # atno 8008 bound_to 7997
  156.2905  140.2211  156.5188 H   0  0  0  0  0  0  0  0  0  0  0  0  # atno 8009 bound_to 7997
  154.7517  140.0465  157.0887 H   0  0  0  0  0  0  0  0  0  0  0  0  # atno 8010 bound_to 7997
  139.7662  143.8304  152.2616 H   0  0  0  0  0  0  0  0  0  0  0  0  # atno 10167 bound_to 10162
  156.1461  130.4153  150.0022 H   0  0  0  0  0  0  0  0  0  0  0  0  # atno 10718 bound_to 10713
  154.4555  135.5906  153.6220 H   0  0  0  0  0  0  0  0  0  0  0  0  # atno 10763 bound_to 10752
  152.9818  135.6031  154.3551 H   0  0  0  0  0  0  0  0  0  0  0  0  # atno 10764 bound_to 10752
  154.3417  135.2841  155.2398 H   0  0  0  0  0  0  0  0  0  0  0  0  # atno 10765 bound_to 10752
  139.9182  134.9634  156.7796 H   0  0  0  0  0  0  0  0  0  0  0  0  # atno 11005 bound_to 11000
  145.2685  141.0101  143.3785 LP  0  0  0  0  0  0  0  0  0  0  0  0  # atno 17320 bound_to 7965
  144.9242  139.4375  143.6526 LP  0  0  0  0  0  0  0  0  0  0  0  0  # atno 17321 bound_to 7965
  139.8325  144.7247  150.9432 LP  0  0  0  0  0  0  0  0  0  0  0  0  # atno 17342 bound_to 10162
  140.7811  143.4057  151.1076 LP  0  0  0  0  0  0  0  0  0  0  0  0  # atno 17343 bound_to 10162
  156.7893  130.9250  151.3646 LP  0  0  0  0  0  0  0  0  0  0  0  0  # atno 17370 bound_to 10713
  157.6618  130.8972  149.9845 LP  0  0  0  0  0  0  0  0  0  0  0  0  # atno 17371 bound_to 10713
  140.6555  133.9692  155.7777 LP  0  0  0  0  0  0  0  0  0  0  0  0  # atno 17394 bound_to 11000
  141.0679  134.0249  157.3568 LP  0  0  0  0  0  0  0  0  0  0  0  0  # atno 17395 bound_to 11000

$$$$
