AV-unprocessed.smi:104|AV-procd|sdf|996|dock4
  -GOLD-   2262017573D 1   1.00000     0.00000
 Structure written by MMmdl.
 47 49  0  0  0  0  0  0  0  0  1 V2000
  154.7699  135.7343  159.0984 C   0  0  0  0  0  0  0  0  0  0  0  0
  153.9759  136.4100  157.9876 C   0  0  0  0  0  0  0  0  0  0  0  0
  153.7872  135.8547  156.9054 O   0  0  0  0  0  0  0  0  0  0  0  0
  153.5389  137.6293  158.3364 O   0  0  0  0  0  0  0  0  0  0  0  0
  152.6493  138.3361  157.4838 C   0  0  0  0  0  0  0  0  0  0  0  0
  151.2740  137.6496  157.4181 C   0  0  1  0  0  0  0  0  0  0  0  0
  150.7470  137.3611  158.7114 O   0  0  0  0  0  0  0  0  0  0  0  0
  149.3516  137.4173  158.6650 C   0  0  2  0  0  0  0  0  0  0  0  0
  148.7801  136.1384  159.1839 N   0  0  0  0  0  0  0  0  0  0  0  0
  148.7405  134.9046  158.5758 C   0  0  0  0  0  0  0  0  0  0  0  0
  149.4781  134.5990  156.8466 Br  0  0  0  0  0  0  0  0  0  0  0  0
  148.1885  133.9293  159.2419 N   0  0  0  0  0  0  0  0  0  0  0  0
  147.8203  134.5425  160.4328 C   0  0  0  0  0  0  0  0  0  0  0  0
  147.1822  134.0920  161.6162 C   0  0  0  0  0  0  0  0  0  0  0  0
  146.7710  132.8286  161.7911 N   0  0  0  0  0  0  0  0  0  0  0  0
  146.9794  134.9780  162.6190 N   0  0  0  0  0  0  0  0  0  0  0  0
  147.3815  136.2443  162.4718 C   0  0  0  0  0  0  0  0  0  0  0  0
  147.9880  136.8123  161.4261 N   0  0  0  0  0  0  0  0  0  0  0  0
  148.1898  135.9199  160.4128 C   0  0  0  0  0  0  0  0  0  0  0  0
  148.9424  137.6269  157.2071 C   0  0  1  0  0  0  0  0  0  0  0  0
  147.7241  138.3546  157.1199 O   0  0  0  0  0  0  0  0  0  0  0  0
  147.1957  138.6421  155.9200 C   0  0  0  0  0  0  0  0  0  0  0  0
  145.9691  139.5379  156.0267 C   0  0  0  0  0  0  0  0  0  0  0  0
  147.6216  138.2607  154.8300 O   0  0  0  0  0  0  0  0  0  0  0  0
  150.1514  138.3700  156.6582 C   0  0  1  0  0  0  0  0  0  0  0  0
  150.1099  139.7529  157.0050 O   0  0  0  0  0  0  0  0  0  0  0  0
  150.9163  140.6416  156.3990 C   0  0  0  0  0  0  0  0  0  0  0  0
  150.8159  142.0310  157.0146 C   0  0  0  0  0  0  0  0  0  0  0  0
  151.6682  140.4135  155.4516 O   0  0  0  0  0  0  0  0  0  0  0  0
  155.1615  136.4722  159.7994 H   0  0  0  0  0  0  0  0  0  0  0  0
  155.6097  135.1800  158.6790 H   0  0  0  0  0  0  0  0  0  0  0  0
  154.1345  135.0378  159.6457 H   0  0  0  0  0  0  0  0  0  0  0  0
  152.5194  139.3615  157.8337 H   0  0  0  0  0  0  0  0  0  0  0  0
  153.0874  138.3887  156.4866 H   0  0  0  0  0  0  0  0  0  0  0  0
  151.4203  136.6870  156.9266 H   0  0  0  0  0  0  0  0  0  0  0  0
  149.0036  138.2017  159.3371 H   0  0  0  0  0  0  0  0  0  0  0  0
  146.9115  132.1470  161.0591 H   0  0  0  0  0  0  0  0  0  0  0  0
  146.3181  132.5611  162.6530 H   0  0  0  0  0  0  0  0  0  0  0  0
  147.1885  136.8957  163.3115 H   0  0  0  0  0  0  0  0  0  0  0  0
  148.8645  136.6481  156.7300 H   0  0  0  0  0  0  0  0  0  0  0  0
  145.3385  139.2252  156.8595 H   0  0  0  0  0  0  0  0  0  0  0  0
  145.3797  139.4900  155.1107 H   0  0  0  0  0  0  0  0  0  0  0  0
  146.2724  140.5722  156.1899 H   0  0  0  0  0  0  0  0  0  0  0  0
  150.2595  138.2286  155.5820 H   0  0  0  0  0  0  0  0  0  0  0  0
  149.9780  142.0893  157.7100 H   0  0  0  0  0  0  0  0  0  0  0  0
  150.6705  142.7795  156.2355 H   0  0  0  0  0  0  0  0  0  0  0  0
  151.7311  142.2684  157.5568 H   0  0  0  0  0  0  0  0  0  0  0  0
  1  2  1  0  0  0  0
  1 30  1  0  0  0  0
  1 31  1  0  0  0  0
  1 32  1  0  0  0  0
  2  3  2  0  0  0  0
  2  4  1  0  0  0  0
  4  5  1  0  0  0  0
  5  6  1  0  0  0  0
  5 33  1  0  0  0  0
  5 34  1  0  0  0  0
  6 25  1  0  0  0  0
  6  7  1  0  0  0  0
  6 35  1  0  0  0  0
  7  8  1  0  0  0  0
  8  9  1  0  0  0  0
  8 20  1  0  0  0  0
  8 36  1  0  0  0  0
  9 19  1  0  0  0  0
  9 10  1  0  0  0  0
 10 11  1  0  0  0  0
 10 12  2  0  0  0  0
 12 13  1  0  0  0  0
 13 19  2  0  0  0  0
 13 14  1  0  0  0  0
 14 15  1  0  0  0  0
 14 16  2  0  0  0  0
 15 37  1  0  0  0  0
 15 38  1  0  0  0  0
 16 17  1  0  0  0  0
 17 18  2  0  0  0  0
 17 39  1  0  0  0  0
 18 19  1  0  0  0  0
 20 21  1  0  0  0  0
 20 25  1  0  0  0  0
 20 40  1  0  0  0  0
 21 22  1  0  0  0  0
 22 23  1  0  0  0  0
 22 24  2  0  0  0  0
 23 41  1  0  0  0  0
 23 42  1  0  0  0  0
 23 43  1  0  0  0  0
 25 26  1  0  0  0  0
 25 44  1  0  0  0  0
 26 27  1  0  0  0  0
 27 28  1  0  0  0  0
 27 29  2  0  0  0  0
 28 45  1  0  0  0  0
 28 46  1  0  0  0  0
 28 47  1  0  0  0  0
M  END
> <s_m_source_file>
AV-unprocessed.smi

> <i_m_source_file_index>
104

> <i_lp_mmshare_version>
43012

> <i_f3d_flags>
0

> <s_epik_input>
W0NIM11DKD1PKU9bQ0gyXVtDQEBIXTFPW0NASF0oW0NAQEhdKE9DKD1PKVtDSDNdKVtDQEhdMU9DKD1PKVtDSDNdKW4oYyhCciluMiljKGMyMyluW2NIXW5jM1tOSDJd

> <s_epik_cmdline>
J2VwaWtfcHl0aG9uJywgJy1waCcsICc3LjAnLCAnLXRuJywgJzgnLCAnLW1hJywgJzIwMCcsICctbWV0YWxfYmluZGluZycsICctaW1hZScsICc8aW5maWxlLm1hZT4nLCAnLW9tYWUnLCAnPG91dGZpbGUubWFlPic=

> <r_lp_tautomer_probability>
1

> <r_epik_Ionization_Penalty>
7.36622e-05

> <r_epik_Ionization_Penalty_Charging>
0

> <r_epik_Ionization_Penalty_Neutral>
7.36622e-05

> <r_epik_State_Penalty>
-0

> <r_epik_Charging_Adjusted_Penalty>
0

> <i_epik_Tot_Q>
0

> <i_epik_Tot_abs_Q>
0

> <r_epik_Metal_State_Penalty>
-0

> <b_epik_Metal_Only>
0

> <s_epik_Chemistry_Notes>
This compound has an ester and may undergo hydrolysis at high or low pH. This compound contains an acetal/aminal-like group ( X-CH(R)-Y where X, Y are N, S, or O) that may be acid/base labile, releasing an aldehyde.

> <s_lp_Force_Field>
OPLS_2005

> <r_lp_Energy>
19.7206

> <b_lp_Chiralities_Consistent>
1

> <s_lp_Variant>
AV-unprocessed.smi:104-4

> <Gold.Version>
5.8.1

> <Gold.Id.Protein>
6NUR|6NUR_protein|mol2

> <Gold.PLP.Fitness>
40.6889

> <Gold.PLP.PLP>
-30.9923

> <Gold.PLP.part.hbond>
-4.0000

> <Gold.PLP.part.metal>
0.0000

> <Gold.PLP.part.buried>
-6.0343

> <Gold.PLP.part.nonpolar>
-20.7588

> <Gold.PLP.part.repulsive>
0.1818

> <Gold.PLP.ligand.clash>
0.0000

> <Gold.PLP.ligand.torsion>
0.7492

> <Gold.PLP.Chemscore.Hbond>
3.6160

> <Gold.PLP.Chemscore.CHOScore>
0.0000

> <Gold.PLP.Chemscore.Metal>
0.0000

> <Gold.Chemscore.Hbonds>
donor molecule, donor type, donor heavy atom, donor atom, acceptor molecule, acceptor atom, score
      P1  H  6931  6943       L1    18  1.00
      P1  H  6934  6947       L1    18  0.06
      P1  H  7989  7998       L1    29  0.80
      P1  H 10752 10763       L1     3  1.00

> <Gold.PLP.Chemscore.Internal.Correction>
0.3470

> <Gold.Rescore>
     Score         DG    S(hbond)    S(metal)    S(lipo)     H(rot)  DE(clash)    DE(int)     intcor
      8.95      -9.77       3.49        0.00      31.27       4.31       0.01       0.81       ----

> <Gold.Chemscore.Fitness>
8.9481

> <Gold.Chemscore.DG>
-9.7687

> <Gold.Chemscore.ZeroCoef>
-5.4800

> <Gold.Chemscore.Hbond>
3.4898

> <Gold.Chemscore.Metal>
0.0000

> <Gold.Chemscore.Lipo>
31.2714

> <Gold.Chemscore.Internal_Hbond>
0.0000

> <Gold.Chemscore.DEClash>
0.0078

> <Gold.Chemscore.DEInternal>
0.8128

> <Gold.Chemscore.Rot>
4.3070

> <Gold.Chemscore.Internal.Correction>
   9.000000E+99

> <Gold.Chemscore.Hbonds>
donor molecule, donor type, donor heavy atom, donor atom, acceptor molecule, acceptor atom, score
      P1  H  6931  6943       L1    18  0.85
      P1  H  6934  6947       L1    18  0.07
      P1  H  7989  7998       L1    29  0.77
      P1  H 10752 10763       L1     3  0.98

> <Gold.Chemscore.Hbond.Weighted>
-11.6558

> <Gold.Chemscore.Metal.Weighted>
-0.0000

> <Gold.Chemscore.Lipo.Weighted>
-3.6588

> <Gold.Chemscore.Internal_Hbond.Weighted>
0.0000

> <Gold.Chemscore.DEClash.Weighted>
0.0078

> <Gold.Chemscore.DEInternal.Weighted>
0.8128

> <Gold.Chemscore.Rot.Weighted>
11.0259

> <Gold.Chemscore.Internal.Correction.Weighted>
   9.000000E+99

> <Gold.Protein.RotatedTorsions>
[ 6907 6896 6895 6894 ] final  157.21 input  -60.11 | X-H torsion
[ 7974 7965 7964 7962 ] final  -30.63 input  175.53 | X-H torsion
[ 8008 7997 7996 7995 ] final  -69.60 input   59.86 | X-H torsion
[ 10167 10162 10161 10158 ] final -163.14 input  -65.29 | X-H torsion
[ 10718 10713 10712 10709 ] final -115.87 input   66.30 | X-H torsion
[ 10763 10752 10751 10750 ] final  120.56 input  -60.55 | X-H torsion
[ 11005 11000 10999 10996 ] final  -96.67 input  -57.11 | X-H torsion

> <Gold.Protein.ActiveResidues>
 VAL166  LYS551  ARG553  GLY616  TRP617  ASP618  TYR619  PRO620  LYS621  CYS622 
 ASP623  PHE694  ASN695  SER759  ASP760  ASP761  ALA762  ILE779  LEU786  VAL792 
 PHE793  MET794  SER795  GLU796  ALA797  LYS798  CYS799  TRP800  GLU811  SER814 

> <Gold.Protein.RotatedAtoms>
  152.0184  133.3889  159.4247 H   0  0  0  0  0  0  0  0  0  0  0  0  # atno 6907 bound_to 6896
  150.6892  134.3653  159.4978 H   0  0  0  0  0  0  0  0  0  0  0  0  # atno 6908 bound_to 6896
  152.1424  134.9052  160.0603 H   0  0  0  0  0  0  0  0  0  0  0  0  # atno 6909 bound_to 6896
  146.1128  140.5564  142.8770 H   0  0  0  0  0  0  0  0  0  0  0  0  # atno 7974 bound_to 7965
  154.4951  140.0850  156.7678 H   0  0  0  0  0  0  0  0  0  0  0  0  # atno 8008 bound_to 7997
  155.4137  140.3442  155.4247 H   0  0  0  0  0  0  0  0  0  0  0  0  # atno 8009 bound_to 7997
  156.1382  140.1521  156.8949 H   0  0  0  0  0  0  0  0  0  0  0  0  # atno 8010 bound_to 7997
  139.6342  144.0381  152.2041 H   0  0  0  0  0  0  0  0  0  0  0  0  # atno 10167 bound_to 10162
  156.0925  130.6104  150.8963 H   0  0  0  0  0  0  0  0  0  0  0  0  # atno 10718 bound_to 10713
  153.6004  135.3449  155.2943 H   0  0  0  0  0  0  0  0  0  0  0  0  # atno 10763 bound_to 10752
  154.8637  135.4226  154.2419 H   0  0  0  0  0  0  0  0  0  0  0  0  # atno 10764 bound_to 10752
  153.3246  135.7040  153.7072 H   0  0  0  0  0  0  0  0  0  0  0  0  # atno 10765 bound_to 10752
  141.1404  133.8114  157.0602 H   0  0  0  0  0  0  0  0  0  0  0  0  # atno 11005 bound_to 11000
  144.7527  140.5230  143.6791 LP  0  0  0  0  0  0  0  0  0  0  0  0  # atno 17320 bound_to 7965
  145.5627  139.1480  143.3332 LP  0  0  0  0  0  0  0  0  0  0  0  0  # atno 17321 bound_to 7965
  140.0055  144.6262  150.7693 LP  0  0  0  0  0  0  0  0  0  0  0  0  # atno 17342 bound_to 10162
  140.7456  143.2878  151.3415 LP  0  0  0  0  0  0  0  0  0  0  0  0  # atno 17343 bound_to 10162
  157.6078  131.0938  150.8849 LP  0  0  0  0  0  0  0  0  0  0  0  0  # atno 17370 bound_to 10713
  156.8994  130.5241  149.5283 LP  0  0  0  0  0  0  0  0  0  0  0  0  # atno 17371 bound_to 10713
  140.0576  134.9772  157.1248 LP  0  0  0  0  0  0  0  0  0  0  0  0  # atno 17394 bound_to 11000
  140.3896  134.2198  155.7167 LP  0  0  0  0  0  0  0  0  0  0  0  0  # atno 17395 bound_to 11000

$$$$
