AV-unprocessed.smi:138|AV-procd|sdf|1180|dock9
  -GOLD-   2262018333D 1   1.00000     0.00000
 Structure written by MMmdl.
 52 55  0  0  0  0  0  0  0  0  1 V2000
  148.5671  141.7486  156.8756 C   0  0  0  0  0  0  0  0  0  0  0  0
  149.2233  140.5239  157.4283 C   0  0  0  0  0  0  0  0  0  0  0  0
  148.6811  139.3122  157.7391 C   0  0  0  0  0  0  0  0  0  0  0  0
  149.7129  138.4673  158.2344 C   0  0  0  0  0  0  0  0  0  0  0  0
  149.6004  137.0684  158.7208 C   0  0  0  0  0  0  0  0  0  0  0  0
  150.5575  136.4250  159.1538 O   0  0  0  0  0  0  0  0  0  0  0  0
  148.1898  136.4525  158.6647 C   0  0  0  0  0  0  0  0  0  0  0  0
  147.9191  135.5424  159.7714 N   0  0  0  0  0  0  0  0  0  0  0  0
  147.6843  136.1068  161.0502 C   0  0  0  0  0  0  0  0  0  0  0  0
  147.6972  137.3239  161.2426 O   0  0  0  0  0  0  0  0  0  0  0  0
  147.4469  135.1308  162.1073 C   0  0  0  0  0  0  0  0  0  0  0  0
  147.2228  135.5524  163.3635 F   0  0  0  0  0  0  0  0  0  0  0  0
  147.4525  133.8058  161.8470 C   0  0  0  0  0  0  0  0  0  0  0  0
  147.6694  133.2799  160.5861 N   0  0  0  0  0  0  0  0  0  0  0  0
  147.7041  131.7761  160.4184 C   0  0  1  0  0  0  0  0  0  0  0  0
  148.6495  131.0645  161.3977 C   0  0  0  0  0  0  0  0  0  0  0  0
  147.8963  129.7760  161.6481 C   0  0  0  0  0  0  0  0  0  0  0  0
  146.4453  130.2427  161.6031 C   0  0  0  0  0  0  0  0  0  0  0  0
  146.4170  131.2624  160.6074 O   0  0  0  0  0  0  0  0  0  0  0  0
  147.9443  134.1513  159.5056 C   0  0  0  0  0  0  0  0  0  0  0  0
  148.2075  133.7163  158.3831 O   0  0  0  0  0  0  0  0  0  0  0  0
  150.8858  139.1874  158.1989 C   0  0  0  0  0  0  0  0  0  0  0  0
  152.2887  138.7991  158.5784 C   0  0  0  0  0  0  0  0  0  0  0  0
  150.5803  140.4643  157.7216 N   0  0  0  0  0  0  0  0  0  0  0  0
  151.5167  141.5690  157.5383 C   0  0  0  0  0  0  0  0  0  0  0  0
  151.9961  142.1361  158.8355 C   0  0  0  0  0  0  0  0  0  0  0  0
  151.8545  143.3573  159.4348 C   0  0  0  0  0  0  0  0  0  0  0  0
  152.5525  143.2816  160.6717 C   0  0  0  0  0  0  0  0  0  0  0  0
  153.0676  142.0185  160.7363 C   0  0  0  0  0  0  0  0  0  0  0  0
  152.7364  141.3068  159.6250 O   0  0  0  0  0  0  0  0  0  0  0  0
  147.5208  141.5537  156.6389 H   0  0  0  0  0  0  0  0  0  0  0  0
  149.0578  142.0777  155.9598 H   0  0  0  0  0  0  0  0  0  0  0  0
  148.5973  142.5675  157.5948 H   0  0  0  0  0  0  0  0  0  0  0  0
  147.6367  139.0614  157.6259 H   0  0  0  0  0  0  0  0  0  0  0  0
  147.4243  137.2297  158.6692 H   0  0  0  0  0  0  0  0  0  0  0  0
  148.0382  135.9046  157.7333 H   0  0  0  0  0  0  0  0  0  0  0  0
  147.2754  133.1305  162.6713 H   0  0  0  0  0  0  0  0  0  0  0  0
  147.9883  131.5946  159.3811 H   0  0  0  0  0  0  0  0  0  0  0  0
  149.6333  130.9150  160.9520 H   0  0  0  0  0  0  0  0  0  0  0  0
  148.7675  131.6260  162.3235 H   0  0  0  0  0  0  0  0  0  0  0  0
  148.0868  129.0685  160.8401 H   0  0  0  0  0  0  0  0  0  0  0  0
  148.1627  129.2992  162.5916 H   0  0  0  0  0  0  0  0  0  0  0  0
  145.7536  129.4349  161.3639 H   0  0  0  0  0  0  0  0  0  0  0  0
  146.1491  130.6643  162.5637 H   0  0  0  0  0  0  0  0  0  0  0  0
  152.5055  137.7726  158.2848 H   0  0  0  0  0  0  0  0  0  0  0  0
  152.4323  138.8799  159.6559 H   0  0  0  0  0  0  0  0  0  0  0  0
  153.0432  139.4129  158.0905 H   0  0  0  0  0  0  0  0  0  0  0  0
  152.3667  141.2167  156.9537 H   0  0  0  0  0  0  0  0  0  0  0  0
  151.0587  142.3463  156.9280 H   0  0  0  0  0  0  0  0  0  0  0  0
  151.3167  144.2023  159.0304 H   0  0  0  0  0  0  0  0  0  0  0  0
  152.6642  144.0533  161.4190 H   0  0  0  0  0  0  0  0  0  0  0  0
  153.6638  141.4874  161.4634 H   0  0  0  0  0  0  0  0  0  0  0  0
  1  2  1  0  0  0  0
  1 31  1  0  0  0  0
  1 32  1  0  0  0  0
  1 33  1  0  0  0  0
  2 24  1  0  0  0  0
  2  3  2  0  0  0  0
  3  4  1  0  0  0  0
  3 34  1  0  0  0  0
  4  5  1  0  0  0  0
  4 22  2  0  0  0  0
  5  6  2  0  0  0  0
  5  7  1  0  0  0  0
  7  8  1  0  0  0  0
  7 35  1  0  0  0  0
  7 36  1  0  0  0  0
  8 20  1  0  0  0  0
  8  9  1  0  0  0  0
  9 10  2  0  0  0  0
  9 11  1  0  0  0  0
 11 12  1  0  0  0  0
 11 13  2  0  0  0  0
 13 14  1  0  0  0  0
 13 37  1  0  0  0  0
 14 15  1  0  0  0  0
 14 20  1  0  0  0  0
 15 19  1  0  0  0  0
 15 16  1  0  0  0  0
 15 38  1  0  0  0  0
 16 17  1  0  0  0  0
 16 39  1  0  0  0  0
 16 40  1  0  0  0  0
 17 18  1  0  0  0  0
 17 41  1  0  0  0  0
 17 42  1  0  0  0  0
 18 19  1  0  0  0  0
 18 43  1  0  0  0  0
 18 44  1  0  0  0  0
 20 21  2  0  0  0  0
 22 23  1  0  0  0  0
 22 24  1  0  0  0  0
 23 45  1  0  0  0  0
 23 46  1  0  0  0  0
 23 47  1  0  0  0  0
 24 25  1  0  0  0  0
 25 26  1  0  0  0  0
 25 48  1  0  0  0  0
 25 49  1  0  0  0  0
 26 30  1  0  0  0  0
 26 27  2  0  0  0  0
 27 28  1  0  0  0  0
 27 50  1  0  0  0  0
 28 29  2  0  0  0  0
 28 51  1  0  0  0  0
 29 30  1  0  0  0  0
 29 52  1  0  0  0  0
M  END
> <s_m_source_file>
AV-unprocessed.smi

> <i_m_source_file_index>
138

> <i_lp_mmshare_version>
43012

> <i_f3d_flags>
0

> <s_epik_input>
bzFbY0hdW2NIXVtjSF1jMVtDSDJdbjJjKFtDSDNdKWMoW2NIXWMyW0NIM10pQyg9TylbQ0gyXW4zYyg9TyljKEYpW2NIXW4oYzM9TylbQ0BASF00W0NIMl1bQ0gyXVtDSDJdTzQ=

> <s_epik_cmdline>
J2VwaWtfcHl0aG9uJywgJy1waCcsICc3LjAnLCAnLXRuJywgJzgnLCAnLW1hJywgJzIwMCcsICctbWV0YWxfYmluZGluZycsICctaW1hZScsICc8aW5maWxlLm1hZT4nLCAnLW9tYWUnLCAnPG91dGZpbGUubWFlPic=

> <r_lp_tautomer_probability>
1

> <r_epik_Ionization_Penalty>
5.03107e-09

> <r_epik_Ionization_Penalty_Charging>
5.01743e-09

> <r_epik_Ionization_Penalty_Neutral>
1.36377e-11

> <r_epik_State_Penalty>
-0

> <r_epik_Charging_Adjusted_Penalty>
5.01743e-09

> <i_epik_Tot_Q>
0

> <i_epik_Tot_abs_Q>
0

> <r_epik_Metal_State_Penalty>
-0

> <b_epik_Metal_Only>
0

> <s_epik_Chemistry_Notes>
This compound contains an acetal/aminal-like group ( X-CH(R)-Y where X, Y are N, S, or O) that may be acid/base labile, releasing an aldehyde.

> <s_lp_Force_Field>
OPLS_2005

> <r_lp_Energy>
34.2081

> <b_lp_Chiralities_Consistent>
1

> <s_lp_Variant>
AV-unprocessed.smi:138-2

> <Gold.Version>
5.8.1

> <Gold.Id.Protein>
6NUR|6NUR_protein|mol2

> <Gold.PLP.Fitness>
56.6774

> <Gold.PLP.PLP>
-50.0240

> <Gold.PLP.part.hbond>
-3.0000

> <Gold.PLP.part.metal>
0.0000

> <Gold.PLP.part.buried>
-6.2123

> <Gold.PLP.part.nonpolar>
-41.3218

> <Gold.PLP.part.repulsive>
0.0078

> <Gold.PLP.ligand.clash>
0.0000

> <Gold.PLP.ligand.torsion>
0.7608

> <Gold.PLP.Chemscore.Hbond>
2.6800

> <Gold.PLP.Chemscore.CHOScore>
0.0000

> <Gold.PLP.Chemscore.Metal>
0.0000

> <Gold.Chemscore.Hbonds>
donor molecule, donor type, donor heavy atom, donor atom, acceptor molecule, acceptor atom, score
      P1  H  6896  6907       L1     6  1.00
      P1  H  6931  6943       L1    10  0.90
      P1  H  6934  6947       L1    10  0.82

> <Gold.PLP.Chemscore.Internal.Correction>
0.1350

> <Gold.Rescore>
     Score         DG    S(hbond)    S(metal)    S(lipo)     H(rot)  DE(clash)    DE(int)     intcor
     17.84     -21.06       2.74        0.00      98.55       2.00       0.01       3.21       ----

> <Gold.Chemscore.Fitness>
17.8376

> <Gold.Chemscore.DG>
-21.0618

> <Gold.Chemscore.ZeroCoef>
-5.4800

> <Gold.Chemscore.Hbond>
2.7427

> <Gold.Chemscore.Metal>
0.0000

> <Gold.Chemscore.Lipo>
98.5509

> <Gold.Chemscore.Internal_Hbond>
0.0000

> <Gold.Chemscore.DEClash>
0.0112

> <Gold.Chemscore.DEInternal>
3.2129

> <Gold.Chemscore.Rot>
1.9958

> <Gold.Chemscore.Internal.Correction>
   9.000000E+99

> <Gold.Chemscore.Hbonds>
donor molecule, donor type, donor heavy atom, donor atom, acceptor molecule, acceptor atom, score
      P1  H  6896  6907       L1     6  0.98
      P1  H  6931  6943       L1    10  0.86
      P1  H  6934  6947       L1    10  0.81

> <Gold.Chemscore.Hbond.Weighted>
-9.1605

> <Gold.Chemscore.Metal.Weighted>
-0.0000

> <Gold.Chemscore.Lipo.Weighted>
-11.5305

> <Gold.Chemscore.Internal_Hbond.Weighted>
0.0000

> <Gold.Chemscore.DEClash.Weighted>
0.0112

> <Gold.Chemscore.DEInternal.Weighted>
3.2129

> <Gold.Chemscore.Rot.Weighted>
5.1092

> <Gold.Chemscore.Internal.Correction.Weighted>
   9.000000E+99

> <Gold.Protein.RotatedTorsions>
[ 6907 6896 6895 6894 ] final  -44.56 input  -60.11 | X-H torsion
[ 7974 7965 7964 7962 ] final   44.38 input  175.53 | X-H torsion
[ 8008 7997 7996 7995 ] final   36.86 input   59.86 | X-H torsion
[ 10167 10162 10161 10158 ] final   30.97 input  -65.29 | X-H torsion
[ 10718 10713 10712 10709 ] final  162.16 input   66.30 | X-H torsion
[ 10763 10752 10751 10750 ] final   92.15 input  -60.55 | X-H torsion
[ 11005 11000 10999 10996 ] final  -51.54 input  -57.11 | X-H torsion

> <Gold.Protein.ActiveResidues>
 VAL166  LYS551  ARG553  GLY616  TRP617  ASP618  TYR619  PRO620  LYS621  CYS622 
 ASP623  PHE694  ASN695  SER759  ASP760  ASP761  ALA762  ILE779  LEU786  VAL792 
 PHE793  MET794  SER795  GLU796  ALA797  LYS798  CYS799  TRP800  GLU811  SER814 

> <Gold.Protein.RotatedAtoms>
  150.9315  134.8730  159.7553 H   0  0  0  0  0  0  0  0  0  0  0  0  # atno 6907 bound_to 6896
  152.5040  134.4072  159.9446 H   0  0  0  0  0  0  0  0  0  0  0  0  # atno 6908 bound_to 6896
  151.4099  133.3691  159.2777 H   0  0  0  0  0  0  0  0  0  0  0  0  # atno 6909 bound_to 6896
  146.0574  139.5081  142.9680 H   0  0  0  0  0  0  0  0  0  0  0  0  # atno 7974 bound_to 7965
  155.1943  140.3310  155.4353 H   0  0  0  0  0  0  0  0  0  0  0  0  # atno 8008 bound_to 7997
  156.2430  140.1905  156.6984 H   0  0  0  0  0  0  0  0  0  0  0  0  # atno 8009 bound_to 7997
  154.6184  140.0599  156.9570 H   0  0  0  0  0  0  0  0  0  0  0  0  # atno 8010 bound_to 7997
  140.4630  144.0878  150.6217 H   0  0  0  0  0  0  0  0  0  0  0  0  # atno 10167 bound_to 10162
  157.1264  131.0505  151.2392 H   0  0  0  0  0  0  0  0  0  0  0  0  # atno 10718 bound_to 10713
  153.2160  135.4372  155.0435 H   0  0  0  0  0  0  0  0  0  0  0  0  # atno 10763 bound_to 10752
  154.8225  135.3344  154.6998 H   0  0  0  0  0  0  0  0  0  0  0  0  # atno 10764 bound_to 10752
  153.7432  135.7003  153.5018 H   0  0  0  0  0  0  0  0  0  0  0  0  # atno 10765 bound_to 10752
  141.0876  133.6639  156.3892 H   0  0  0  0  0  0  0  0  0  0  0  0  # atno 11005 bound_to 11000
  145.6620  141.0238  143.1704 LP  0  0  0  0  0  0  0  0  0  0  0  0  # atno 17320 bound_to 7965
  144.7155  139.8211  143.7400 LP  0  0  0  0  0  0  0  0  0  0  0  0  # atno 17321 bound_to 7965
  140.4070  143.2675  151.9879 LP  0  0  0  0  0  0  0  0  0  0  0  0  # atno 17342 bound_to 10162
  139.4808  144.5948  151.7709 LP  0  0  0  0  0  0  0  0  0  0  0  0  # atno 17343 bound_to 10162
  157.4431  130.7555  149.7086 LP  0  0  0  0  0  0  0  0  0  0  0  0  # atno 17370 bound_to 10713
  155.9817  130.4016  150.3456 LP  0  0  0  0  0  0  0  0  0  0  0  0  # atno 17371 bound_to 10713
  140.5326  134.6197  157.5355 LP  0  0  0  0  0  0  0  0  0  0  0  0  # atno 17394 bound_to 11000
  139.9697  134.7314  156.0067 LP  0  0  0  0  0  0  0  0  0  0  0  0  # atno 17395 bound_to 11000

$$$$
