AV-unprocessed.smi:1291|AV-procd|sdf|5394|dock10
  -GOLD-   22720 4553D 1   1.00000     0.00000
 Structure written by MMmdl.
 44 46  0  0  0  0  0  0  0  0  2 V2000
  150.2499  139.9243  153.9261 O   0  0  0  0  0  0  0  0  0  0  0  0
  149.4898  140.6044  154.9021 C   0  0  0  0  0  0  0  0  0  0  0  0
  150.3296  141.1884  155.9929 C   0  0  0  0  0  0  0  0  0  0  0  0
  150.3576  142.4987  156.3695 N   0  3  0  0  0  0  0  0  0  0  0  0
  151.2526  142.6701  157.4255 C   0  0  0  0  0  0  0  0  0  0  0  0
  151.6171  143.8106  158.1343 C   0  0  0  0  0  0  0  0  0  0  0  0
  152.5678  143.6397  159.1619 C   0  0  0  0  0  0  0  0  0  0  0  0
  153.1187  142.3740  159.4492 C   0  0  0  0  0  0  0  0  0  0  0  0
  152.7417  141.2252  158.7229 C   0  0  0  0  0  0  0  0  0  0  0  0
  151.7984  141.4017  157.7104 C   0  0  0  0  0  0  0  0  0  0  0  0
  151.1987  140.5185  156.8037 N   0  0  0  0  0  0  0  0  0  0  0  0
  151.5514  139.0899  156.8411 C   0  0  0  0  0  0  0  0  0  0  0  0
  150.7277  138.2965  157.8761 C   0  0  1  0  0  0  0  0  0  0  0  0
  150.9330  138.7720  159.1913 O   0  0  0  0  0  0  0  0  0  0  0  0
  149.2200  138.2787  157.5771 C   0  0  0  0  0  0  0  0  0  0  0  0
  148.5201  137.6665  158.6491 O   0  0  0  0  0  0  0  0  0  0  0  0
  148.9319  136.3320  158.8888 C   0  0  0  0  0  0  0  0  0  0  0  0
  148.3240  135.7936  160.1693 C   0  0  0  0  0  0  0  0  0  0  0  0
  148.1521  136.6477  161.2791 C   0  0  0  0  0  0  0  0  0  0  0  0
  147.5941  136.1534  162.4742 C   0  0  0  0  0  0  0  0  0  0  0  0
  147.2054  134.8030  162.5643 C   0  0  0  0  0  0  0  0  0  0  0  0
  147.3784  133.9463  161.4601 C   0  0  0  0  0  0  0  0  0  0  0  0
  147.9384  134.4383  160.2648 C   0  0  0  0  0  0  0  0  0  0  0  0
  148.1058  133.6022  159.2120 F   0  0  0  0  0  0  0  0  0  0  0  0
  149.7320  139.8518  153.1385 H   0  0  0  0  0  0  0  0  0  0  0  0
  148.9261  141.4037  154.4208 H   0  0  0  0  0  0  0  0  0  0  0  0
  148.7674  139.9076  155.3273 H   0  0  0  0  0  0  0  0  0  0  0  0
  151.1978  144.7815  157.9142 H   0  0  0  0  0  0  0  0  0  0  0  0
  152.8822  144.4966  159.7402 H   0  0  0  0  0  0  0  0  0  0  0  0
  153.8464  142.2817  160.2422 H   0  0  0  0  0  0  0  0  0  0  0  0
  153.1758  140.2623  158.9490 H   0  0  0  0  0  0  0  0  0  0  0  0
  151.4464  138.6722  155.8398 H   0  0  0  0  0  0  0  0  0  0  0  0
  152.6124  139.0225  157.0837 H   0  0  0  0  0  0  0  0  0  0  0  0
  151.0767  137.2634  157.8762 H   0  0  0  0  0  0  0  0  0  0  0  0
  150.1714  139.2661  159.4528 H   0  0  0  0  0  0  0  0  0  0  0  0
  148.8651  139.3039  157.4612 H   0  0  0  0  0  0  0  0  0  0  0  0
  149.0203  137.7614  156.6372 H   0  0  0  0  0  0  0  0  0  0  0  0
  148.6339  135.6962  158.0534 H   0  0  0  0  0  0  0  0  0  0  0  0
  150.0198  136.2789  158.9532 H   0  0  0  0  0  0  0  0  0  0  0  0
  148.4495  137.6843  161.2173 H   0  0  0  0  0  0  0  0  0  0  0  0
  147.4652  136.8096  163.3225 H   0  0  0  0  0  0  0  0  0  0  0  0
  146.7769  134.4237  163.4801 H   0  0  0  0  0  0  0  0  0  0  0  0
  147.0834  132.9098  161.5301 H   0  0  0  0  0  0  0  0  0  0  0  0
  149.8025  143.2208  155.9281 H   0  0  0  0  0  0  0  0  0  0  0  0
  1  2  1  0  0  0  0
  1 25  1  0  0  0  0
  2  3  1  0  0  0  0
  2 26  1  0  0  0  0
  2 27  1  0  0  0  0
  3 11  1  0  0  0  0
  3  4  2  0  0  0  0
  4  5  1  0  0  0  0
  4 44  1  0  0  0  0
  5 10  2  0  0  0  0
  5  6  1  0  0  0  0
  6  7  2  0  0  0  0
  6 28  1  0  0  0  0
  7  8  1  0  0  0  0
  7 29  1  0  0  0  0
  8  9  2  0  0  0  0
  8 30  1  0  0  0  0
  9 10  1  0  0  0  0
  9 31  1  0  0  0  0
 10 11  1  0  0  0  0
 11 12  1  0  0  0  0
 12 13  1  0  0  0  0
 12 32  1  0  0  0  0
 12 33  1  0  0  0  0
 13 14  1  0  0  0  0
 13 15  1  0  0  0  0
 13 34  1  0  0  0  0
 14 35  1  0  0  0  0
 15 16  1  0  0  0  0
 15 36  1  0  0  0  0
 15 37  1  0  0  0  0
 16 17  1  0  0  0  0
 17 18  1  0  0  0  0
 17 38  1  0  0  0  0
 17 39  1  0  0  0  0
 18 23  1  0  0  0  0
 18 19  2  0  0  0  0
 19 20  1  0  0  0  0
 19 40  1  0  0  0  0
 20 21  2  0  0  0  0
 20 41  1  0  0  0  0
 21 22  1  0  0  0  0
 21 42  1  0  0  0  0
 22 23  2  0  0  0  0
 22 43  1  0  0  0  0
 23 24  1  0  0  0  0
M  CHG  1   4   1
M  END
> <s_m_source_file>
AV-unprocessed.smi

> <i_m_source_file_index>
1291

> <i_lp_mmshare_version>
43012

> <i_f3d_flags>
0

> <s_epik_input>
W2NIXTFbY0hdW2NIXVtjSF1jKGMxMiluKGMobjIpW0NIMl1bT0hdKVtDSDJdW0NASF0oW09IXSlbQ0gyXU9bQ0gyXWMzW2NIXVtjSF1bY0hdW2NIXWMzRg==

> <s_epik_cmdline>
J2VwaWtfcHl0aG9uJywgJy1waCcsICc3LjAnLCAnLXRuJywgJzgnLCAnLW1hJywgJzIwMCcsICctbWV0YWxfYmluZGluZycsICctaW1hZScsICc8aW5maWxlLm1hZT4nLCAnLW9tYWUnLCAnPG91dGZpbGUubWFlPic=

> <r_epik_Ionization_Penalty>
1.34314

> <r_epik_Ionization_Penalty_Charging>
1.34228

> <r_epik_Ionization_Penalty_Neutral>
0.000856861

> <r_epik_State_Penalty>
1.41963

> <r_epik_Charging_Adjusted_Penalty>
2.76191

> <i_epik_Tot_Q>
1

> <i_epik_Tot_abs_Q>
1

> <r_epik_Metal_State_Penalty>
5.45585

> <b_epik_Metal_Only>
0

> <s_lp_Force_Field>
OPLS_2005

> <r_lp_Energy>
19.0817

> <b_lp_Chiralities_Consistent>
1

> <s_lp_Variant>
AV-unprocessed.smi:1291-4

> <Gold.Version>
5.8.1

> <Gold.Id.Protein>
6NUR|6NUR_protein|mol2

> <Gold.PLP.Fitness>
60.8009

> <Gold.PLP.PLP>
-50.1570

> <Gold.PLP.part.hbond>
-3.6146

> <Gold.PLP.part.metal>
0.0000

> <Gold.PLP.part.buried>
-4.2428

> <Gold.PLP.part.nonpolar>
-42.0673

> <Gold.PLP.part.repulsive>
0.0835

> <Gold.PLP.ligand.clash>
0.0000

> <Gold.PLP.ligand.torsion>
0.7716

> <Gold.PLP.Chemscore.Hbond>
4.0000

> <Gold.PLP.Chemscore.CHOScore>
0.0000

> <Gold.PLP.Chemscore.Metal>
0.0000

> <Gold.Chemscore.Hbonds>
donor molecule, donor type, donor heavy atom, donor atom, acceptor molecule, acceptor atom, score
      L1  H     1    25       P1  7957  0.96
      L1  H     4    44       P1  8028  2.00
      P1  H  7989  7998       L1     1  0.98

> <Gold.PLP.Chemscore.Internal.Correction>
0.1871

> <Gold.Rescore>
     Score         DG    S(hbond)    S(metal)    S(lipo)     H(rot)  DE(clash)    DE(int)     intcor
     19.22     -19.99       2.56        0.00     126.25       3.44       0.07       0.71       ----

> <Gold.Chemscore.Fitness>
19.2180

> <Gold.Chemscore.DG>
-19.9948

> <Gold.Chemscore.ZeroCoef>
-5.4800

> <Gold.Chemscore.Hbond>
2.5562

> <Gold.Chemscore.Metal>
0.0000

> <Gold.Chemscore.Lipo>
126.2512

> <Gold.Chemscore.Internal_Hbond>
0.0000

> <Gold.Chemscore.DEClash>
0.0684

> <Gold.Chemscore.DEInternal>
0.7084

> <Gold.Chemscore.Rot>
3.4353

> <Gold.Chemscore.Internal.Correction>
   9.000000E+99

> <Gold.Chemscore.Hbonds>
donor molecule, donor type, donor heavy atom, donor atom, acceptor molecule, acceptor atom, score
      L1  H     1    25       P1  7957  0.90
      L1  H     4    44       P1  8028  1.00
      P1  H  7989  7998       L1     1  0.35

> <Gold.Chemscore.Hbond.Weighted>
-8.5378

> <Gold.Chemscore.Metal.Weighted>
-0.0000

> <Gold.Chemscore.Lipo.Weighted>
-14.7714

> <Gold.Chemscore.Internal_Hbond.Weighted>
0.0000

> <Gold.Chemscore.DEClash.Weighted>
0.0684

> <Gold.Chemscore.DEInternal.Weighted>
0.7084

> <Gold.Chemscore.Rot.Weighted>
8.7944

> <Gold.Chemscore.Internal.Correction.Weighted>
   9.000000E+99

> <Gold.Protein.RotatedTorsions>
[ 6907 6896 6895 6894 ] final   73.56 input  -60.11 | X-H torsion
[ 7974 7965 7964 7962 ] final   84.86 input  175.53 | X-H torsion
[ 8008 7997 7996 7995 ] final  102.51 input   59.86 | X-H torsion
[ 10167 10162 10161 10158 ] final   25.99 input  -65.29 | X-H torsion
[ 10718 10713 10712 10709 ] final  172.95 input   66.30 | X-H torsion
[ 10763 10752 10751 10750 ] final -168.30 input  -60.55 | X-H torsion
[ 11005 11000 10999 10996 ] final -136.40 input  -57.11 | X-H torsion

> <Gold.Protein.ActiveResidues>
 VAL166  LYS551  ARG553  GLY616  TRP617  ASP618  TYR619  PRO620  LYS621  CYS622 
 ASP623  PHE694  ASN695  SER759  ASP760  ASP761  ALA762  ILE779  LEU786  VAL792 
 PHE793  MET794  SER795  GLU796  ALA797  LYS798  CYS799  TRP800  GLU811  SER814 

> <Gold.Protein.RotatedAtoms>
  152.4929  134.4404  159.9541 H   0  0  0  0  0  0  0  0  0  0  0  0  # atno 6907 bound_to 6896
  151.4387  133.3643  159.2786 H   0  0  0  0  0  0  0  0  0  0  0  0  # atno 6908 bound_to 6896
  150.9103  134.8543  159.7480 H   0  0  0  0  0  0  0  0  0  0  0  0  # atno 6909 bound_to 6896
  145.5932  139.2341  143.2288 H   0  0  0  0  0  0  0  0  0  0  0  0  # atno 7974 bound_to 7965
  156.1399  140.3180  155.8479 H   0  0  0  0  0  0  0  0  0  0  0  0  # atno 8008 bound_to 7997
  155.4173  140.0510  157.3045 H   0  0  0  0  0  0  0  0  0  0  0  0  # atno 8009 bound_to 7997
  154.4968  140.2114  155.9443 H   0  0  0  0  0  0  0  0  0  0  0  0  # atno 8010 bound_to 7997
  140.5060  144.0238  150.6352 H   0  0  0  0  0  0  0  0  0  0  0  0  # atno 10167 bound_to 10162
  156.9715  131.0091  151.2904 H   0  0  0  0  0  0  0  0  0  0  0  0  # atno 10718 bound_to 10713
  154.6643  135.2929  154.9826 H   0  0  0  0  0  0  0  0  0  0  0  0  # atno 10763 bound_to 10752
  154.0874  135.6595  153.4851 H   0  0  0  0  0  0  0  0  0  0  0  0  # atno 10764 bound_to 10752
  153.0448  135.5212  154.7609 H   0  0  0  0  0  0  0  0  0  0  0  0  # atno 10765 bound_to 10752
  140.8809  134.1933  157.4592 H   0  0  0  0  0  0  0  0  0  0  0  0  # atno 11005 bound_to 11000
  146.1631  140.6758  142.9268 LP  0  0  0  0  0  0  0  0  0  0  0  0  # atno 17320 bound_to 7965
  144.7342  140.4761  143.6916 LP  0  0  0  0  0  0  0  0  0  0  0  0  # atno 17321 bound_to 7965
  140.3547  143.2942  152.0449 LP  0  0  0  0  0  0  0  0  0  0  0  0  # atno 17342 bound_to 10162
  139.4884  144.6347  151.6998 LP  0  0  0  0  0  0  0  0  0  0  0  0  # atno 17343 bound_to 10162
  157.5589  130.8232  149.8241 LP  0  0  0  0  0  0  0  0  0  0  0  0  # atno 17370 bound_to 10713
  156.0281  130.3773  150.1765 LP  0  0  0  0  0  0  0  0  0  0  0  0  # atno 17371 bound_to 10713
  139.8719  134.9817  156.5125 LP  0  0  0  0  0  0  0  0  0  0  0  0  # atno 17394 bound_to 11000
  140.8462  133.8167  155.9124 LP  0  0  0  0  0  0  0  0  0  0  0  0  # atno 17395 bound_to 11000

$$$$
