AV-unprocessed.smi:1071|AV-procd|sdf|4677|dock4
  -GOLD-   22720 3193D 1   1.00000     0.00000
 Structure written by MMmdl.
 47 48  0  0  0  0  0  0  0  0  2 V2000
  135.1202  137.7655  154.4856 C   0  0  0  0  0  0  0  0  0  0  0  0
  136.3322  137.1728  154.9184 O   0  0  0  0  0  0  0  0  0  0  0  0
  137.4525  137.6284  154.1782 C   0  0  0  0  0  0  0  0  0  0  0  0
  138.7298  137.0584  154.8010 C   0  0  0  0  0  0  0  0  0  0  0  0
  139.8385  137.8356  154.3587 O   0  0  0  0  0  0  0  0  0  0  0  0
  140.9115  137.1857  153.7842 C   0  0  0  0  0  0  0  0  0  0  0  0
  140.9592  135.7793  153.8478 C   0  0  0  0  0  0  0  0  0  0  0  0
  142.0502  135.1111  153.2613 C   0  0  0  0  0  0  0  0  0  0  0  0
  143.0563  135.8625  152.6212 C   0  0  0  0  0  0  0  0  0  0  0  0
  144.1458  135.1515  152.0481 N   0  0  0  0  0  0  0  0  0  0  0  0
  144.1940  133.8773  151.6114 C   0  0  0  0  0  0  0  0  0  0  0  0
  143.2085  133.1524  151.4869 O   0  0  0  0  0  0  0  0  0  0  0  0
  145.4347  133.5164  151.2007 N   0  0  0  0  0  0  0  0  0  0  0  0
  146.5999  133.7785  152.0592 C   0  0  0  0  0  0  0  0  0  0  0  0
  146.8480  132.5528  152.9619 C   0  0  0  0  0  0  0  0  0  0  0  0
  147.0075  131.3100  152.1622 N   0  3  1  0  0  0  0  0  0  0  0  0
  147.2215  130.1171  153.0087 C   0  0  0  0  0  0  0  0  0  0  0  0
  145.9285  131.1089  151.1594 C   0  0  0  0  0  0  0  0  0  0  0  0
  145.7210  132.3771  150.3055 C   0  0  1  0  0  0  0  0  0  0  0  0
  144.7023  132.1662  149.1657 C   0  0  0  0  0  0  0  0  0  0  0  0
  142.9242  137.2732  152.6224 C   0  0  0  0  0  0  0  0  0  0  0  0
  141.8807  137.9198  153.1840 N   0  0  0  0  0  0  0  0  0  0  0  0
  134.2917  137.3821  155.0812 H   0  0  0  0  0  0  0  0  0  0  0  0
  134.9187  137.5321  153.4393 H   0  0  0  0  0  0  0  0  0  0  0  0
  135.1468  138.8497  154.6039 H   0  0  0  0  0  0  0  0  0  0  0  0
  137.3703  137.3076  153.1384 H   0  0  0  0  0  0  0  0  0  0  0  0
  137.4883  138.7189  154.1861 H   0  0  0  0  0  0  0  0  0  0  0  0
  138.6547  137.0909  155.8892 H   0  0  0  0  0  0  0  0  0  0  0  0
  138.8512  136.0164  154.5000 H   0  0  0  0  0  0  0  0  0  0  0  0
  140.1730  135.2234  154.3371 H   0  0  0  0  0  0  0  0  0  0  0  0
  142.1080  134.0331  153.2997 H   0  0  0  0  0  0  0  0  0  0  0  0
  145.0315  135.6359  152.0715 H   0  0  0  0  0  0  0  0  0  0  0  0
  147.4756  133.9720  151.4381 H   0  0  0  0  0  0  0  0  0  0  0  0
  146.4821  134.6682  152.6793 H   0  0  0  0  0  0  0  0  0  0  0  0
  147.7413  132.7128  153.5665 H   0  0  0  0  0  0  0  0  0  0  0  0
  146.0142  132.4299  153.6552 H   0  0  0  0  0  0  0  0  0  0  0  0
  146.3417  129.9069  153.6182 H   0  0  0  0  0  0  0  0  0  0  0  0
  148.0718  130.2656  153.6747 H   0  0  0  0  0  0  0  0  0  0  0  0
  147.4292  129.2411  152.3933 H   0  0  0  0  0  0  0  0  0  0  0  0
  146.1898  130.2664  150.5178 H   0  0  0  0  0  0  0  0  0  0  0  0
  145.0012  130.8428  151.6697 H   0  0  0  0  0  0  0  0  0  0  0  0
  146.6657  132.5991  149.8058 H   0  0  0  0  0  0  0  0  0  0  0  0
  145.0890  131.4527  148.4374 H   0  0  0  0  0  0  0  0  0  0  0  0
  144.5047  133.0972  148.6334 H   0  0  0  0  0  0  0  0  0  0  0  0
  143.7519  131.7681  149.5199 H   0  0  0  0  0  0  0  0  0  0  0  0
  143.6652  137.9229  152.1850 H   0  0  0  0  0  0  0  0  0  0  0  0
  147.8562  131.4352  151.6289 H   0  0  0  0  0  0  0  0  0  0  0  0
  1  2  1  0  0  0  0
  1 23  1  0  0  0  0
  1 24  1  0  0  0  0
  1 25  1  0  0  0  0
  2  3  1  0  0  0  0
  3  4  1  0  0  0  0
  3 26  1  0  0  0  0
  3 27  1  0  0  0  0
  4  5  1  0  0  0  0
  4 28  1  0  0  0  0
  4 29  1  0  0  0  0
  5  6  1  0  0  0  0
  6 22  1  0  0  0  0
  6  7  2  0  0  0  0
  7  8  1  0  0  0  0
  7 30  1  0  0  0  0
  8  9  2  0  0  0  0
  8 31  1  0  0  0  0
  9 10  1  0  0  0  0
  9 21  1  0  0  0  0
 10 11  1  0  0  0  0
 10 32  1  0  0  0  0
 11 12  2  0  0  0  0
 11 13  1  0  0  0  0
 13 19  1  0  0  0  0
 13 14  1  0  0  0  0
 14 15  1  0  0  0  0
 14 33  1  0  0  0  0
 14 34  1  0  0  0  0
 15 16  1  0  0  0  0
 15 35  1  0  0  0  0
 15 36  1  0  0  0  0
 16 17  1  0  0  0  0
 16 18  1  0  0  0  0
 16 47  1  0  0  0  0
 17 37  1  0  0  0  0
 17 38  1  0  0  0  0
 17 39  1  0  0  0  0
 18 19  1  0  0  0  0
 18 40  1  0  0  0  0
 18 41  1  0  0  0  0
 19 20  1  0  0  0  0
 19 42  1  0  0  0  0
 20 43  1  0  0  0  0
 20 44  1  0  0  0  0
 20 45  1  0  0  0  0
 21 22  2  0  0  0  0
 21 46  1  0  0  0  0
M  CHG  1  16   1
M  END
> <s_m_source_file>
AV-unprocessed.smi

> <i_m_source_file_index>
1071

> <i_lp_mmshare_version>
43012

> <i_f3d_flags>
0

> <s_epik_input>
W0NIM11PW0NIMl1bQ0gyXU9jMVtjSF1bY0hdYyhbY0hdbjEpW05IXUMoPU8pTjJbQ0gyXVtDSDJdTihbQ0gzXSlbQ0gyXVtDQEhdMltDSDNd

> <s_epik_cmdline>
J2VwaWtfcHl0aG9uJywgJy1waCcsICc3LjAnLCAnLXRuJywgJzgnLCAnLW1hJywgJzIwMCcsICctbWV0YWxfYmluZGluZycsICctaW1hZScsICc8aW5maWxlLm1hZT4nLCAnLW9tYWUnLCAnPG91dGZpbGUubWFlPic=

> <r_lp_tautomer_probability>
1

> <r_epik_Ionization_Penalty>
0.25455

> <r_epik_Ionization_Penalty_Charging>
0.254506

> <r_epik_Ionization_Penalty_Neutral>
4.43365e-05

> <r_epik_State_Penalty>
0.245983

> <r_epik_Charging_Adjusted_Penalty>
0.500488

> <i_epik_Tot_Q>
1

> <i_epik_Tot_abs_Q>
1

> <r_epik_Metal_State_Penalty>
0.245987

> <b_epik_Metal_Only>
0

> <s_lp_Force_Field>
OPLS_2005

> <r_lp_Energy>
54.998

> <b_lp_Chiralities_Consistent>
1

> <s_lp_Variant>
AV-unprocessed.smi:1071-1

> <Gold.Version>
5.8.1

> <Gold.Id.Protein>
6NUR|6NUR_protein|mol2

> <Gold.PLP.Fitness>
44.6501

> <Gold.PLP.PLP>
-38.3448

> <Gold.PLP.part.hbond>
-1.0000

> <Gold.PLP.part.metal>
0.0000

> <Gold.PLP.part.buried>
-6.6584

> <Gold.PLP.part.nonpolar>
-31.2512

> <Gold.PLP.part.repulsive>
0.7009

> <Gold.PLP.ligand.clash>
0.3132

> <Gold.PLP.ligand.torsion>
1.1271

> <Gold.PLP.Chemscore.Hbond>
1.0000

> <Gold.PLP.Chemscore.CHOScore>
1.7513

> <Gold.PLP.Chemscore.Metal>
0.0000

> <Gold.Chemscore.Hbonds>
donor molecule, donor type, donor heavy atom, donor atom, acceptor molecule, acceptor atom, score
      L1  H    16    47       P1 10747  0.98
      L1  C    21    46       P1 10171  0.94
      L1  C    21    46       P1 10175  0.87

> <Gold.PLP.Chemscore.Internal.Correction>
0.6189

> <Gold.Rescore>
     Score         DG    S(hbond)    S(metal)    S(lipo)     H(rot)  DE(clash)    DE(int)     intcor
     11.38     -15.02       0.98        0.00      88.80       1.60       0.17       3.47       ----

> <Gold.Chemscore.Fitness>
11.3818

> <Gold.Chemscore.DG>
-15.0204

> <Gold.Chemscore.ZeroCoef>
-5.4800

> <Gold.Chemscore.Hbond>
0.9755

> <Gold.Chemscore.Metal>
0.0000

> <Gold.Chemscore.Lipo>
88.8023

> <Gold.Chemscore.Internal_Hbond>
0.0000

> <Gold.Chemscore.DEClash>
0.1707

> <Gold.Chemscore.DEInternal>
3.4679

> <Gold.Chemscore.Rot>
1.6045

> <Gold.Chemscore.Internal.Correction>
   9.000000E+99

> <Gold.Chemscore.Hbonds>
donor molecule, donor type, donor heavy atom, donor atom, acceptor molecule, acceptor atom, score
      L1  H    16    47       P1 10747  0.93

> <Gold.Chemscore.Hbond.Weighted>
-3.2581

> <Gold.Chemscore.Metal.Weighted>
-0.0000

> <Gold.Chemscore.Lipo.Weighted>
-10.3899

> <Gold.Chemscore.Internal_Hbond.Weighted>
0.0000

> <Gold.Chemscore.DEClash.Weighted>
0.1707

> <Gold.Chemscore.DEInternal.Weighted>
3.4679

> <Gold.Chemscore.Rot.Weighted>
4.1075

> <Gold.Chemscore.Internal.Correction.Weighted>
   9.000000E+99

> <Gold.Protein.RotatedTorsions>
[ 6907 6896 6895 6894 ] final  -35.84 input  -60.11 | X-H torsion
[ 7974 7965 7964 7962 ] final -125.80 input  175.53 | X-H torsion
[ 8008 7997 7996 7995 ] final  -67.84 input   59.86 | X-H torsion
[ 10167 10162 10161 10158 ] final  123.22 input  -65.29 | X-H torsion
[ 10718 10713 10712 10709 ] final   11.43 input   66.30 | X-H torsion
[ 10763 10752 10751 10750 ] final  -55.08 input  -60.55 | X-H torsion
[ 11005 11000 10999 10996 ] final  -17.05 input  -57.11 | X-H torsion

> <Gold.Protein.ActiveResidues>
 VAL166  LYS551  ARG553  GLY616  TRP617  ASP618  TYR619  PRO620  LYS621  CYS622 
 ASP623  PHE694  ASN695  SER759  ASP760  ASP761  ALA762  ILE779  LEU786  VAL792 
 PHE793  MET794  SER795  GLU796  ALA797  LYS798  CYS799  TRP800  GLU811  SER814 

> <Gold.Protein.RotatedAtoms>
  151.0347  134.9564  159.8129 H   0  0  0  0  0  0  0  0  0  0  0  0  # atno 6907 bound_to 6896
  152.5352  134.2735  159.8990 H   0  0  0  0  0  0  0  0  0  0  0  0  # atno 6908 bound_to 6896
  151.2745  133.4196  159.2657 H   0  0  0  0  0  0  0  0  0  0  0  0  # atno 6909 bound_to 6896
  144.9938  140.7757  143.4538 H   0  0  0  0  0  0  0  0  0  0  0  0  # atno 7974 bound_to 7965
  154.4827  140.0885  156.7414 H   0  0  0  0  0  0  0  0  0  0  0  0  # atno 8008 bound_to 7997
  155.4430  140.3454  155.4274 H   0  0  0  0  0  0  0  0  0  0  0  0  # atno 8009 bound_to 7997
  156.1215  140.1475  156.9186 H   0  0  0  0  0  0  0  0  0  0  0  0  # atno 8010 bound_to 7997
  139.5812  144.6987  151.3524 H   0  0  0  0  0  0  0  0  0  0  0  0  # atno 10167 bound_to 10162
  156.9955  130.6059  149.5690 H   0  0  0  0  0  0  0  0  0  0  0  0  # atno 10718 bound_to 10713
  154.1852  135.6436  153.5045 H   0  0  0  0  0  0  0  0  0  0  0  0  # atno 10763 bound_to 10752
  153.0049  135.5415  154.6473 H   0  0  0  0  0  0  0  0  0  0  0  0  # atno 10764 bound_to 10752
  154.5847  135.2928  155.0669 H   0  0  0  0  0  0  0  0  0  0  0  0  # atno 10765 bound_to 10752
  140.8129  133.8127  155.9581 H   0  0  0  0  0  0  0  0  0  0  0  0  # atno 11005 bound_to 11000
  145.2248  139.2142  143.5074 LP  0  0  0  0  0  0  0  0  0  0  0  0  # atno 17320 bound_to 7965
  146.3437  140.2114  142.8590 LP  0  0  0  0  0  0  0  0  0  0  0  0  # atno 17321 bound_to 7965
  140.7090  143.7440  150.7533 LP  0  0  0  0  0  0  0  0  0  0  0  0  # atno 17342 bound_to 10162
  140.0973  143.4821  152.2445 LP  0  0  0  0  0  0  0  0  0  0  0  0  # atno 17343 bound_to 10162
  156.0191  130.5285  150.8222 LP  0  0  0  0  0  0  0  0  0  0  0  0  # atno 17370 bound_to 10713
  157.5428  131.0941  150.9804 LP  0  0  0  0  0  0  0  0  0  0  0  0  # atno 17371 bound_to 10713
  140.9179  134.2178  157.4945 LP  0  0  0  0  0  0  0  0  0  0  0  0  # atno 17394 bound_to 11000
  139.8713  134.9779  156.4977 LP  0  0  0  0  0  0  0  0  0  0  0  0  # atno 17395 bound_to 11000

$$$$
