AV-unprocessed.smi:1768|AV-procd|sdf|7146|dock3
  -GOLD-   22720 8383D 1   1.00000     0.00000
 Structure written by MMmdl.
 33 34  0  0  0  0  0  0  0  0  1 V2000
  148.6752  129.5438  154.2867 C   0  0  0  0  0  0  0  0  0  0  0  0
  149.1179  130.9480  154.5187 C   0  0  0  0  0  0  0  0  0  0  0  0
  149.9294  131.2975  155.5244 N   0  0  0  0  0  0  0  0  0  0  0  0
  150.1966  132.6594  155.5361 N   0  0  0  0  0  0  0  0  0  0  0  0
  149.5760  133.2987  154.5350 C   0  0  0  0  0  0  0  0  0  0  0  0
  149.6749  134.6969  154.3086 N   0  0  0  0  0  0  0  0  0  0  0  0
  150.3762  135.6071  155.0068 C   0  0  0  0  0  0  0  0  0  0  0  0
  151.0540  135.3679  156.0062 O   0  0  0  0  0  0  0  0  0  0  0  0
  150.2412  136.8305  154.4741 N   0  0  0  0  0  0  0  0  0  0  0  0
  150.8666  138.0565  154.9678 C   0  0  1  0  0  0  0  0  0  0  0  0
  152.3758  137.9900  154.6914 C   0  0  0  0  0  0  0  0  0  0  0  0
  150.2121  139.2881  154.3108 C   0  0  1  0  0  0  0  0  0  0  0  0
  148.6841  139.3279  154.4018 C   0  0  0  0  0  0  0  0  0  0  0  0
  148.4081  140.8093  154.2919 C   0  0  0  0  0  0  0  0  0  0  0  0
  149.5585  141.3952  155.1035 C   0  0  0  0  0  0  0  0  0  0  0  0
  150.6464  140.4879  154.9496 O   0  0  0  0  0  0  0  0  0  0  0  0
  148.6080  132.2775  153.4858 S   0  0  0  0  0  0  0  0  0  0  0  0
  149.1066  128.8746  155.0320 H   0  0  0  0  0  0  0  0  0  0  0  0
  148.9894  129.2128  153.2968 H   0  0  0  0  0  0  0  0  0  0  0  0
  147.5887  129.4816  154.3490 H   0  0  0  0  0  0  0  0  0  0  0  0
  149.1560  135.0437  153.5155 H   0  0  0  0  0  0  0  0  0  0  0  0
  149.6587  136.9244  153.6552 H   0  0  0  0  0  0  0  0  0  0  0  0
  150.7332  138.1390  156.0478 H   0  0  0  0  0  0  0  0  0  0  0  0
  152.8867  138.8732  155.0754 H   0  0  0  0  0  0  0  0  0  0  0  0
  152.5823  137.9251  153.6227 H   0  0  0  0  0  0  0  0  0  0  0  0
  152.8238  137.1192  155.1711 H   0  0  0  0  0  0  0  0  0  0  0  0
  150.5031  139.3522  153.2608 H   0  0  0  0  0  0  0  0  0  0  0  0
  148.1949  138.7439  153.6217 H   0  0  0  0  0  0  0  0  0  0  0  0
  148.3444  138.9570  155.3701 H   0  0  0  0  0  0  0  0  0  0  0  0
  148.4799  141.1273  153.2508 H   0  0  0  0  0  0  0  0  0  0  0  0
  147.4273  141.0955  154.6728 H   0  0  0  0  0  0  0  0  0  0  0  0
  149.8283  142.4006  154.7792 H   0  0  0  0  0  0  0  0  0  0  0  0
  149.2945  141.4393  156.1607 H   0  0  0  0  0  0  0  0  0  0  0  0
  1  2  1  0  0  0  0
  1 18  1  0  0  0  0
  1 19  1  0  0  0  0
  1 20  1  0  0  0  0
  2 17  1  0  0  0  0
  2  3  2  0  0  0  0
  3  4  1  0  0  0  0
  4  5  2  0  0  0  0
  5  6  1  0  0  0  0
  5 17  1  0  0  0  0
  6  7  1  0  0  0  0
  6 21  1  0  0  0  0
  7  8  2  0  0  0  0
  7  9  1  0  0  0  0
  9 10  1  0  0  0  0
  9 22  1  0  0  0  0
 10 11  1  0  0  0  0
 10 12  1  0  0  0  0
 10 23  1  0  0  0  0
 11 24  1  0  0  0  0
 11 25  1  0  0  0  0
 11 26  1  0  0  0  0
 12 16  1  0  0  0  0
 12 13  1  0  0  0  0
 12 27  1  0  0  0  0
 13 14  1  0  0  0  0
 13 28  1  0  0  0  0
 13 29  1  0  0  0  0
 14 15  1  0  0  0  0
 14 30  1  0  0  0  0
 14 31  1  0  0  0  0
 15 16  1  0  0  0  0
 15 32  1  0  0  0  0
 15 33  1  0  0  0  0
M  END
> <s_m_source_file>
AV-unprocessed.smi

> <i_m_source_file_index>
1768

> <i_lp_mmshare_version>
43012

> <i_f3d_flags>
0

> <s_epik_input>
W0NIM11jMW5uYyhzMSlbTkhdQyg9TylbTkhdW0NASF0oW0NIM10pW0NAQEhdMltDSDJdW0NIMl1bQ0gyXU8y

> <s_epik_cmdline>
J2VwaWtfcHl0aG9uJywgJy1waCcsICc3LjAnLCAnLXRuJywgJzgnLCAnLW1hJywgJzIwMCcsICctbWV0YWxfYmluZGluZycsICctaW1hZScsICc8aW5maWxlLm1hZT4nLCAnLW9tYWUnLCAnPG91dGZpbGUubWFlPic=

> <r_lp_tautomer_probability>
1

> <r_epik_Ionization_Penalty>
0.000523083

> <r_epik_Ionization_Penalty_Charging>
0

> <r_epik_Ionization_Penalty_Neutral>
0.000523083

> <r_epik_State_Penalty>
-0

> <r_epik_Charging_Adjusted_Penalty>
0

> <i_epik_Tot_Q>
0

> <i_epik_Tot_abs_Q>
0

> <r_epik_Metal_State_Penalty>
0.223408

> <b_epik_Metal_Only>
0

> <s_lp_Force_Field>
OPLS_2005

> <r_lp_Energy>
16.9545

> <b_lp_Chiralities_Consistent>
1

> <s_lp_Variant>
AV-unprocessed.smi:1768-4

> <Gold.Version>
5.8.1

> <Gold.Id.Protein>
6NUR|6NUR_protein|mol2

> <Gold.PLP.Fitness>
41.1052

> <Gold.PLP.PLP>
-31.4285

> <Gold.PLP.part.hbond>
-4.7899

> <Gold.PLP.part.metal>
0.0000

> <Gold.PLP.part.buried>
-2.7143

> <Gold.PLP.part.nonpolar>
-25.4802

> <Gold.PLP.part.repulsive>
0.2331

> <Gold.PLP.ligand.clash>
0.0000

> <Gold.PLP.ligand.torsion>
0.2068

> <Gold.PLP.Chemscore.Hbond>
3.3600

> <Gold.PLP.Chemscore.CHOScore>
0.0000

> <Gold.PLP.Chemscore.Metal>
0.0000

> <Gold.Chemscore.Hbonds>
donor molecule, donor type, donor heavy atom, donor atom, acceptor molecule, acceptor atom, score
      L1  H     6    21       P1  7948  0.95
      L1  H     9    22       P1  7948  1.00
      P1  H  7989  7998       L1    16  0.50
      P1  H 10752 10764       L1     8  0.33

> <Gold.PLP.Chemscore.Internal.Correction>
0.0103

> <Gold.Rescore>
     Score         DG    S(hbond)    S(metal)    S(lipo)     H(rot)  DE(clash)    DE(int)     intcor
     12.11     -13.80       1.47        0.00      57.30       1.29       0.11       1.58       ----

> <Gold.Chemscore.Fitness>
12.1121

> <Gold.Chemscore.DG>
-13.7996

> <Gold.Chemscore.ZeroCoef>
-5.4800

> <Gold.Chemscore.Hbond>
1.4740

> <Gold.Chemscore.Metal>
0.0000

> <Gold.Chemscore.Lipo>
57.2955

> <Gold.Chemscore.Internal_Hbond>
0.0000

> <Gold.Chemscore.DEClash>
0.1112

> <Gold.Chemscore.DEInternal>
1.5763

> <Gold.Chemscore.Rot>
1.2919

> <Gold.Chemscore.Internal.Correction>
   9.000000E+99

> <Gold.Chemscore.Hbonds>
donor molecule, donor type, donor heavy atom, donor atom, acceptor molecule, acceptor atom, score
      L1  H     6    21       P1  7948  0.20
      L1  H     9    22       P1  7948  0.66
      P1  H  7989  7998       L1    16  0.02
      P1  H 10752 10764       L1     8  0.05

> <Gold.Chemscore.Hbond.Weighted>
-4.9232

> <Gold.Chemscore.Metal.Weighted>
-0.0000

> <Gold.Chemscore.Lipo.Weighted>
-6.7036

> <Gold.Chemscore.Internal_Hbond.Weighted>
0.0000

> <Gold.Chemscore.DEClash.Weighted>
0.1112

> <Gold.Chemscore.DEInternal.Weighted>
1.5763

> <Gold.Chemscore.Rot.Weighted>
3.3072

> <Gold.Chemscore.Internal.Correction.Weighted>
   9.000000E+99

> <Gold.Protein.RotatedTorsions>
[ 6907 6896 6895 6894 ] final  -48.07 input  -60.11 | X-H torsion
[ 7974 7965 7964 7962 ] final    7.71 input  175.53 | X-H torsion
[ 8008 7997 7996 7995 ] final -156.55 input   59.86 | X-H torsion
[ 10167 10162 10161 10158 ] final -104.58 input  -65.29 | X-H torsion
[ 10718 10713 10712 10709 ] final  -40.41 input   66.30 | X-H torsion
[ 10763 10752 10751 10750 ] final  -36.10 input  -60.55 | X-H torsion
[ 11005 11000 10999 10996 ] final  172.39 input  -57.11 | X-H torsion

> <Gold.Protein.ActiveResidues>
 VAL166  LYS551  ARG553  GLY616  TRP617  ASP618  TYR619  PRO620  LYS621  CYS622 
 ASP623  PHE694  ASN695  SER759  ASP760  ASP761  ALA762  ILE779  LEU786  VAL792 
 PHE793  MET794  SER795  GLU796  ALA797  LYS798  CYS799  TRP800  GLU811  SER814 

> <Gold.Protein.RotatedAtoms>
  150.8943  134.8350  159.7315 H   0  0  0  0  0  0  0  0  0  0  0  0  # atno 6907 bound_to 6896
  152.4855  134.4600  159.9612 H   0  0  0  0  0  0  0  0  0  0  0  0  # atno 6908 bound_to 6896
  151.4659  133.3542  159.2851 H   0  0  0  0  0  0  0  0  0  0  0  0  # atno 6909 bound_to 6896
  146.2424  140.0043  142.8413 H   0  0  0  0  0  0  0  0  0  0  0  0  # atno 7974 bound_to 7965
  155.7189  140.0787  157.2339 H   0  0  0  0  0  0  0  0  0  0  0  0  # atno 8008 bound_to 7997
  154.4048  140.1616  156.2434 H   0  0  0  0  0  0  0  0  0  0  0  0  # atno 8009 bound_to 7997
  155.9214  140.3397  155.6179 H   0  0  0  0  0  0  0  0  0  0  0  0  # atno 8010 bound_to 7997
  140.2077  143.3770  152.1077 H   0  0  0  0  0  0  0  0  0  0  0  0  # atno 10167 bound_to 10162
  156.2816  130.4218  149.8331 H   0  0  0  0  0  0  0  0  0  0  0  0  # atno 10718 bound_to 10713
  153.8741  135.6828  153.4772 H   0  0  0  0  0  0  0  0  0  0  0  0  # atno 10763 bound_to 10752
  153.1270  135.4714  154.9286 H   0  0  0  0  0  0  0  0  0  0  0  0  # atno 10764 bound_to 10752
  154.7700  135.3236  154.8160 H   0  0  0  0  0  0  0  0  0  0  0  0  # atno 10765 bound_to 10752
  140.3292  134.7371  157.4122 H   0  0  0  0  0  0  0  0  0  0  0  0  # atno 11005 bound_to 11000
  145.1386  140.9559  143.4502 LP  0  0  0  0  0  0  0  0  0  0  0  0  # atno 17320 bound_to 7965
  145.0317  139.3335  143.6021 LP  0  0  0  0  0  0  0  0  0  0  0  0  # atno 17321 bound_to 7965
  139.5192  144.7016  151.5476 LP  0  0  0  0  0  0  0  0  0  0  0  0  # atno 17342 bound_to 10162
  140.6346  143.9010  150.6635 LP  0  0  0  0  0  0  0  0  0  0  0  0  # atno 17343 bound_to 10162
  156.5776  130.8452  151.3374 LP  0  0  0  0  0  0  0  0  0  0  0  0  # atno 17370 bound_to 10713
  157.7316  130.9703  150.1888 LP  0  0  0  0  0  0  0  0  0  0  0  0  # atno 17371 bound_to 10713
  140.0875  134.5647  155.8478 LP  0  0  0  0  0  0  0  0  0  0  0  0  # atno 17394 bound_to 11000
  141.2067  133.6658  156.6262 LP  0  0  0  0  0  0  0  0  0  0  0  0  # atno 17395 bound_to 11000

$$$$
