AV-unprocessed.smi:2109|AV-procd|sdf|8607|dock2
  -GOLD-   2272011343D 1   1.00000     0.00000
 Structure written by MMmdl.
 46 47  0  0  0  0  0  0  0  0  2 V2000
  145.8984  131.5811  151.3857 C   0  0  0  0  0  0  0  0  0  0  0  0
  146.6429  132.9023  151.6469 C   0  0  0  0  0  0  0  0  0  0  0  0
  147.6964  132.7160  152.7487 C   0  0  0  0  0  0  0  0  0  0  0  0
  145.6919  134.0662  151.9965 C   0  0  0  0  0  0  0  0  0  0  0  0
  146.3857  135.3492  152.0690 N   0  0  0  0  0  0  0  0  0  0  0  0
  145.7966  136.5460  152.2015 C   0  0  0  0  0  0  0  0  0  0  0  0
  144.5799  136.7162  152.2771 O   0  0  0  0  0  0  0  0  0  0  0  0
  146.6947  137.5400  152.2494 N   0  0  0  0  0  0  0  0  0  0  0  0
  146.3697  138.9614  152.3444 C   0  0  0  0  0  0  0  0  0  0  0  0
  147.3201  139.8067  153.1871 C   0  0  0  0  0  0  0  0  0  0  0  0
  147.0740  141.1910  153.3003 C   0  0  0  0  0  0  0  0  0  0  0  0
  147.9387  141.9850  154.0752 C   0  0  0  0  0  0  0  0  0  0  0  0
  148.9883  141.4168  154.7047 N   0  3  0  0  0  0  0  0  0  0  0  0
  149.2787  140.0946  154.6442 C   0  0  0  0  0  0  0  0  0  0  0  0
  150.4001  139.6281  155.3659 N   0  0  0  0  0  0  0  0  0  0  0  0
  151.4992  139.0222  154.6188 C   0  0  0  0  0  0  0  0  0  0  0  0
  152.4680  138.3012  155.5710 C   0  0  0  0  0  0  0  0  0  0  0  0
  152.9083  139.2030  156.5795 O   0  0  0  0  0  0  0  0  0  0  0  0
  151.8263  139.6666  157.3792 C   0  0  0  0  0  0  0  0  0  0  0  0
  150.8270  140.4417  156.5038 C   0  0  0  0  0  0  0  0  0  0  0  0
  148.4334  139.2585  153.8706 C   0  0  0  0  0  0  0  0  0  0  0  0
  145.3035  131.2847  152.2502 H   0  0  0  0  0  0  0  0  0  0  0  0
  146.5979  130.7727  151.1713 H   0  0  0  0  0  0  0  0  0  0  0  0
  145.2274  131.6590  150.5303 H   0  0  0  0  0  0  0  0  0  0  0  0
  147.1753  133.1670  150.7321 H   0  0  0  0  0  0  0  0  0  0  0  0
  147.2332  132.4422  153.6974 H   0  0  0  0  0  0  0  0  0  0  0  0
  148.2664  133.6318  152.9088 H   0  0  0  0  0  0  0  0  0  0  0  0
  148.4062  131.9310  152.4860 H   0  0  0  0  0  0  0  0  0  0  0  0
  144.8634  134.1056  151.2870 H   0  0  0  0  0  0  0  0  0  0  0  0
  145.2414  133.8888  152.9734 H   0  0  0  0  0  0  0  0  0  0  0  0
  147.3933  135.3204  152.0120 H   0  0  0  0  0  0  0  0  0  0  0  0
  147.6733  137.3004  152.1834 H   0  0  0  0  0  0  0  0  0  0  0  0
  146.3637  139.3608  151.3298 H   0  0  0  0  0  0  0  0  0  0  0  0
  145.3551  139.0911  152.7249 H   0  0  0  0  0  0  0  0  0  0  0  0
  146.2307  141.6420  152.7973 H   0  0  0  0  0  0  0  0  0  0  0  0
  147.8217  143.0503  154.2130 H   0  0  0  0  0  0  0  0  0  0  0  0
  151.1158  138.2995  153.8980 H   0  0  0  0  0  0  0  0  0  0  0  0
  152.0275  139.7971  154.0620 H   0  0  0  0  0  0  0  0  0  0  0  0
  151.9912  137.4320  156.0275 H   0  0  0  0  0  0  0  0  0  0  0  0
  153.3334  137.9350  155.0184 H   0  0  0  0  0  0  0  0  0  0  0  0
  151.3387  138.8256  157.8753 H   0  0  0  0  0  0  0  0  0  0  0  0
  152.2174  140.3144  158.1640 H   0  0  0  0  0  0  0  0  0  0  0  0
  151.2896  141.3552  156.1280 H   0  0  0  0  0  0  0  0  0  0  0  0
  149.9812  140.7422  157.1221 H   0  0  0  0  0  0  0  0  0  0  0  0
  148.6354  138.2025  153.7952 H   0  0  0  0  0  0  0  0  0  0  0  0
  149.5937  142.0175  155.2644 H   0  0  0  0  0  0  0  0  0  0  0  0
  1  2  1  0  0  0  0
  1 22  1  0  0  0  0
  1 23  1  0  0  0  0
  1 24  1  0  0  0  0
  2  3  1  0  0  0  0
  2  4  1  0  0  0  0
  2 25  1  0  0  0  0
  3 26  1  0  0  0  0
  3 27  1  0  0  0  0
  3 28  1  0  0  0  0
  4  5  1  0  0  0  0
  4 29  1  0  0  0  0
  4 30  1  0  0  0  0
  5  6  1  0  0  0  0
  5 31  1  0  0  0  0
  6  7  2  0  0  0  0
  6  8  1  0  0  0  0
  8  9  1  0  0  0  0
  8 32  1  0  0  0  0
  9 10  1  0  0  0  0
  9 33  1  0  0  0  0
  9 34  1  0  0  0  0
 10 21  1  0  0  0  0
 10 11  2  0  0  0  0
 11 12  1  0  0  0  0
 11 35  1  0  0  0  0
 12 13  2  0  0  0  0
 12 36  1  0  0  0  0
 13 14  1  0  0  0  0
 13 46  1  0  0  0  0
 14 15  1  0  0  0  0
 14 21  2  0  0  0  0
 15 20  1  0  0  0  0
 15 16  1  0  0  0  0
 16 17  1  0  0  0  0
 16 37  1  0  0  0  0
 16 38  1  0  0  0  0
 17 18  1  0  0  0  0
 17 39  1  0  0  0  0
 17 40  1  0  0  0  0
 18 19  1  0  0  0  0
 19 20  1  0  0  0  0
 19 41  1  0  0  0  0
 19 42  1  0  0  0  0
 20 43  1  0  0  0  0
 20 44  1  0  0  0  0
 21 45  1  0  0  0  0
M  CHG  1  13   1
M  END
> <s_m_source_file>
AV-unprocessed.smi

> <i_m_source_file_index>
2109

> <i_lp_mmshare_version>
43012

> <i_f3d_flags>
0

> <s_epik_input>
W0NIM11bQ0hdKFtDSDNdKVtDSDJdW05IXUMoPU8pW05IXVtDSDJdYzFbY0hdW2NIXW5jKFtjSF0xKU4yW0NIMl1bQ0gyXU9bQ0gyXVtDSDJdMg==

> <s_epik_cmdline>
J2VwaWtfcHl0aG9uJywgJy1waCcsICc3LjAnLCAnLXRuJywgJzgnLCAnLW1hJywgJzIwMCcsICctbWV0YWxfYmluZGluZycsICctaW1hZScsICc8aW5maWxlLm1hZT4nLCAnLW9tYWUnLCAnPG91dGZpbGUubWFlPic=

> <r_lp_tautomer_probability>
0.999994

> <r_epik_Ionization_Penalty>
2.29114

> <r_epik_Ionization_Penalty_Charging>
2.2911

> <r_epik_Ionization_Penalty_Neutral>
4.11828e-05

> <r_epik_State_Penalty>
2.44112

> <r_epik_Charging_Adjusted_Penalty>
4.73222

> <i_epik_Tot_Q>
1

> <i_epik_Tot_abs_Q>
1

> <r_epik_Metal_State_Penalty>
2.45346

> <b_epik_Metal_Only>
0

> <s_lp_Force_Field>
OPLS_2005

> <r_lp_Energy>
19.1618

> <b_lp_Chiralities_Consistent>
1

> <s_lp_Variant>
AV-unprocessed.smi:2109-2

> <Gold.Version>
5.8.1

> <Gold.Id.Protein>
6NUR|6NUR_protein|mol2

> <Gold.PLP.Fitness>
44.9225

> <Gold.PLP.PLP>
-36.6733

> <Gold.PLP.part.hbond>
-3.0000

> <Gold.PLP.part.metal>
0.0000

> <Gold.PLP.part.buried>
-1.1354

> <Gold.PLP.part.nonpolar>
-32.2089

> <Gold.PLP.part.repulsive>
0.4920

> <Gold.PLP.ligand.clash>
0.0000

> <Gold.PLP.ligand.torsion>
0.5640

> <Gold.PLP.Chemscore.Hbond>
2.9600

> <Gold.PLP.Chemscore.CHOScore>
0.0000

> <Gold.PLP.Chemscore.Metal>
0.0000

> <Gold.Chemscore.Hbonds>
donor molecule, donor type, donor heavy atom, donor atom, acceptor molecule, acceptor atom, score
      L1  H     5    31       P1  7948  0.98
      L1  H     8    32       P1  7948  1.00
      P1  H  7997  8009       L1    18  1.00

> <Gold.PLP.Chemscore.Internal.Correction>
0.4972

> <Gold.Rescore>
     Score         DG    S(hbond)    S(metal)    S(lipo)     H(rot)  DE(clash)    DE(int)     intcor
     20.05     -20.65       2.88        0.00      87.25       1.82       0.07       0.53       ----

> <Gold.Chemscore.Fitness>
20.0451

> <Gold.Chemscore.DG>
-20.6486

> <Gold.Chemscore.ZeroCoef>
-5.4800

> <Gold.Chemscore.Hbond>
2.8787

> <Gold.Chemscore.Metal>
0.0000

> <Gold.Chemscore.Lipo>
87.2466

> <Gold.Chemscore.Internal_Hbond>
0.0000

> <Gold.Chemscore.DEClash>
0.0703

> <Gold.Chemscore.DEInternal>
0.5332

> <Gold.Chemscore.Rot>
1.8180

> <Gold.Chemscore.Internal.Correction>
   9.000000E+99

> <Gold.Chemscore.Hbonds>
donor molecule, donor type, donor heavy atom, donor atom, acceptor molecule, acceptor atom, score
      L1  H     5    31       P1  7948  0.93
      L1  H     8    32       P1  7948  0.97
      P1  H  7997  8009       L1    18  0.90

> <Gold.Chemscore.Hbond.Weighted>
-9.6148

> <Gold.Chemscore.Metal.Weighted>
-0.0000

> <Gold.Chemscore.Lipo.Weighted>
-10.2079

> <Gold.Chemscore.Internal_Hbond.Weighted>
0.0000

> <Gold.Chemscore.DEClash.Weighted>
0.0703

> <Gold.Chemscore.DEInternal.Weighted>
0.5332

> <Gold.Chemscore.Rot.Weighted>
4.6541

> <Gold.Chemscore.Internal.Correction.Weighted>
   9.000000E+99

> <Gold.Protein.RotatedTorsions>
[ 6907 6896 6895 6894 ] final -177.48 input  -60.11 | X-H torsion
[ 7974 7965 7964 7962 ] final  -57.22 input  175.53 | X-H torsion
[ 8008 7997 7996 7995 ] final  170.47 input   59.86 | X-H torsion
[ 10167 10162 10161 10158 ] final  -67.04 input  -65.29 | X-H torsion
[ 10718 10713 10712 10709 ] final  -85.44 input   66.30 | X-H torsion
[ 10763 10752 10751 10750 ] final  -21.95 input  -60.55 | X-H torsion
[ 11005 11000 10999 10996 ] final -164.25 input  -57.11 | X-H torsion

> <Gold.Protein.ActiveResidues>
 VAL166  LYS551  ARG553  GLY616  TRP617  ASP618  TYR619  PRO620  LYS621  CYS622 
 ASP623  PHE694  ASN695  SER759  ASP760  ASP761  ALA762  ILE779  LEU786  VAL792 
 PHE793  MET794  SER795  GLU796  ALA797  LYS798  CYS799  TRP800  GLU811  SER814 

> <Gold.Protein.RotatedAtoms>
  151.6217  133.3338  159.3089 H   0  0  0  0  0  0  0  0  0  0  0  0  # atno 6907 bound_to 6896
  150.8102  134.7256  159.6693 H   0  0  0  0  0  0  0  0  0  0  0  0  # atno 6908 bound_to 6896
  152.4199  134.5979  160.0043 H   0  0  0  0  0  0  0  0  0  0  0  0  # atno 6909 bound_to 6896
  145.8535  140.8335  142.9973 H   0  0  0  0  0  0  0  0  0  0  0  0  # atno 7974 bound_to 7965
  156.1362  140.1537  156.8990 H   0  0  0  0  0  0  0  0  0  0  0  0  # atno 8008 bound_to 7997
  154.4949  140.0841  156.7715 H   0  0  0  0  0  0  0  0  0  0  0  0  # atno 8009 bound_to 7997
  155.4164  140.3421  155.4270 H   0  0  0  0  0  0  0  0  0  0  0  0  # atno 8010 bound_to 7997
  140.5612  143.2313  151.6723 H   0  0  0  0  0  0  0  0  0  0  0  0  # atno 10167 bound_to 10162
  155.9997  130.4731  150.4563 H   0  0  0  0  0  0  0  0  0  0  0  0  # atno 10718 bound_to 10713
  153.6443  135.6983  153.5231 H   0  0  0  0  0  0  0  0  0  0  0  0  # atno 10763 bound_to 10752
  153.2757  135.4201  155.1030 H   0  0  0  0  0  0  0  0  0  0  0  0  # atno 10764 bound_to 10752
  154.8492  135.3589  154.5987 H   0  0  0  0  0  0  0  0  0  0  0  0  # atno 10765 bound_to 10752
  140.5890  134.5064  157.5190 H   0  0  0  0  0  0  0  0  0  0  0  0  # atno 11005 bound_to 11000
  144.6728  140.0989  143.7461 LP  0  0  0  0  0  0  0  0  0  0  0  0  # atno 17320 bound_to 7965
  145.9330  139.2618  143.1314 LP  0  0  0  0  0  0  0  0  0  0  0  0  # atno 17321 bound_to 7965
  139.5071  144.3658  152.0518 LP  0  0  0  0  0  0  0  0  0  0  0  0  # atno 17342 bound_to 10162
  140.2784  144.3886  150.6127 LP  0  0  0  0  0  0  0  0  0  0  0  0  # atno 17343 bound_to 10162
  157.2591  131.0563  151.2331 LP  0  0  0  0  0  0  0  0  0  0  0  0  # atno 17370 bound_to 10713
  157.3452  130.7054  149.6406 LP  0  0  0  0  0  0  0  0  0  0  0  0  # atno 17371 bound_to 10713
  139.9282  134.8014  156.1005 LP  0  0  0  0  0  0  0  0  0  0  0  0  # atno 17394 bound_to 11000
  141.0947  133.6700  156.2618 LP  0  0  0  0  0  0  0  0  0  0  0  0  # atno 17395 bound_to 11000

$$$$
