AV-unprocessed.smi:240|AV-procd|sdf|1832|dock9
  -GOLD-   2262020433D 1   1.00000     0.00000
 Structure written by MMmdl.
 55 59  0  0  0  0  0  0  0  0  1 V2000
  151.2683  136.7214  153.9962 O   0  0  0  0  0  0  0  0  0  0  0  0
  150.8269  137.2831  155.2146 C   0  0  2  0  0  0  0  0  0  0  0  0
  150.9535  136.2890  156.3688 C   0  0  0  0  0  0  0  0  0  0  0  0
  149.9741  136.8033  157.4297 C   0  0  0  0  0  0  0  0  0  0  0  0
  148.9398  137.6635  156.6854 C   0  0  0  0  0  0  0  0  0  0  0  0
  149.3281  137.6155  155.1957 C   0  0  1  0  0  0  0  0  0  0  0  0
  148.9078  138.8482  154.3381 C   0  0  2  0  0  0  0  0  0  0  0  0
  149.7466  140.1208  154.6238 C   0  0  0  0  0  0  0  0  0  0  0  0
  149.3126  141.1977  153.8008 O   0  0  0  0  0  0  0  0  0  0  0  0
  147.9572  141.5437  154.0498 C   0  0  0  0  0  0  0  0  0  0  0  0
  147.0677  140.3423  153.7064 C   0  0  0  0  0  0  0  0  0  0  0  0
  147.4799  139.1715  154.4717 N   0  0  0  0  0  0  0  0  0  0  0  0
  146.5963  138.1612  154.3062 C   0  0  0  0  0  0  0  0  0  0  0  0
  146.0626  137.6227  155.4299 N   0  0  0  0  0  0  0  0  0  0  0  0
  145.1842  136.6199  155.3384 C   0  0  0  0  0  0  0  0  0  0  0  0
  144.7072  136.0246  154.2431 N   0  0  0  0  0  0  0  0  0  0  0  0
  145.2319  136.5752  153.1104 C   0  0  0  0  0  0  0  0  0  0  0  0
  146.1755  137.6390  153.0499 C   0  0  0  0  0  0  0  0  0  0  0  0
  146.4740  137.9315  151.7247 N   0  0  0  0  0  0  0  0  0  0  0  0
  145.7504  137.0876  151.0413 C   0  0  0  0  0  0  0  0  0  0  0  0
  144.9669  136.2414  151.7935 N   0  0  0  0  0  0  0  0  0  0  0  0
  144.0686  135.2102  151.2955 C   0  0  0  0  0  0  0  0  0  0  0  0
  144.4045  133.7824  151.7968 C   0  0  2  0  0  0  0  0  0  0  0  0
  144.1976  133.7211  153.1962 O   0  0  0  0  0  0  0  0  0  0  0  0
  145.8293  133.3257  151.4806 C   0  0  0  0  0  0  0  0  0  0  0  0
  145.6496  132.5370  150.1929 C   0  0  0  0  0  0  0  0  0  0  0  0
  144.4434  131.8349  150.4356 O   0  0  0  0  0  0  0  0  0  0  0  0
  143.5395  132.7166  151.0923 C   0  0  0  0  0  0  0  0  0  0  0  0
  150.7249  137.0524  153.2975 H   0  0  0  0  0  0  0  0  0  0  0  0
  151.4271  138.1620  155.4464 H   0  0  0  0  0  0  0  0  0  0  0  0
  150.6404  135.2958  156.0431 H   0  0  0  0  0  0  0  0  0  0  0  0
  151.9742  136.2072  156.7437 H   0  0  0  0  0  0  0  0  0  0  0  0
  149.5059  135.9805  157.9705 H   0  0  0  0  0  0  0  0  0  0  0  0
  150.5023  137.4153  158.1615 H   0  0  0  0  0  0  0  0  0  0  0  0
  147.9262  137.2926  156.8389 H   0  0  0  0  0  0  0  0  0  0  0  0
  148.9676  138.6785  157.0783 H   0  0  0  0  0  0  0  0  0  0  0  0
  148.8395  136.7318  154.7823 H   0  0  0  0  0  0  0  0  0  0  0  0
  149.0862  138.5928  153.2935 H   0  0  0  0  0  0  0  0  0  0  0  0
  149.6882  140.4223  155.6696 H   0  0  0  0  0  0  0  0  0  0  0  0
  150.7986  139.9515  154.3999 H   0  0  0  0  0  0  0  0  0  0  0  0
  147.8262  141.8447  155.0904 H   0  0  0  0  0  0  0  0  0  0  0  0
  147.6887  142.4001  153.4312 H   0  0  0  0  0  0  0  0  0  0  0  0
  146.0254  140.5836  153.9209 H   0  0  0  0  0  0  0  0  0  0  0  0
  147.1347  140.1243  152.6394 H   0  0  0  0  0  0  0  0  0  0  0  0
  144.8086  136.2412  156.2776 H   0  0  0  0  0  0  0  0  0  0  0  0
  145.7637  137.0625  149.9613 H   0  0  0  0  0  0  0  0  0  0  0  0
  143.0518  135.4795  151.5847 H   0  0  0  0  0  0  0  0  0  0  0  0
  144.0897  135.2387  150.2054 H   0  0  0  0  0  0  0  0  0  0  0  0
  143.5979  133.0136  153.3783 H   0  0  0  0  0  0  0  0  0  0  0  0
  146.5555  134.1313  151.3852 H   0  0  0  0  0  0  0  0  0  0  0  0
  146.1977  132.6487  152.2531 H   0  0  0  0  0  0  0  0  0  0  0  0
  145.5285  133.2019  149.3362 H   0  0  0  0  0  0  0  0  0  0  0  0
  146.4790  131.8582  149.9931 H   0  0  0  0  0  0  0  0  0  0  0  0
  142.9097  132.1522  151.7814 H   0  0  0  0  0  0  0  0  0  0  0  0
  142.8828  133.1655  150.3460 H   0  0  0  0  0  0  0  0  0  0  0  0
  1  2  1  0  0  0  0
  1 29  1  0  0  0  0
  2  6  1  0  0  0  0
  2  3  1  0  0  0  0
  2 30  1  0  0  0  0
  3  4  1  0  0  0  0
  3 31  1  0  0  0  0
  3 32  1  0  0  0  0
  4  5  1  0  0  0  0
  4 33  1  0  0  0  0
  4 34  1  0  0  0  0
  5  6  1  0  0  0  0
  5 35  1  0  0  0  0
  5 36  1  0  0  0  0
  6  7  1  0  0  0  0
  6 37  1  0  0  0  0
  7 12  1  0  0  0  0
  7  8  1  0  0  0  0
  7 38  1  0  0  0  0
  8  9  1  0  0  0  0
  8 39  1  0  0  0  0
  8 40  1  0  0  0  0
  9 10  1  0  0  0  0
 10 11  1  0  0  0  0
 10 41  1  0  0  0  0
 10 42  1  0  0  0  0
 11 12  1  0  0  0  0
 11 43  1  0  0  0  0
 11 44  1  0  0  0  0
 12 13  1  0  0  0  0
 13 18  1  0  0  0  0
 13 14  2  0  0  0  0
 14 15  1  0  0  0  0
 15 16  2  0  0  0  0
 15 45  1  0  0  0  0
 16 17  1  0  0  0  0
 17 21  1  0  0  0  0
 17 18  2  0  0  0  0
 18 19  1  0  0  0  0
 19 20  2  0  0  0  0
 20 21  1  0  0  0  0
 20 46  1  0  0  0  0
 21 22  1  0  0  0  0
 22 23  1  0  0  0  0
 22 47  1  0  0  0  0
 22 48  1  0  0  0  0
 23 28  1  0  0  0  0
 23 24  1  0  0  0  0
 23 25  1  0  0  0  0
 24 49  1  0  0  0  0
 25 26  1  0  0  0  0
 25 50  1  0  0  0  0
 25 51  1  0  0  0  0
 26 27  1  0  0  0  0
 26 52  1  0  0  0  0
 26 53  1  0  0  0  0
 27 28  1  0  0  0  0
 28 54  1  0  0  0  0
 28 55  1  0  0  0  0
M  END
> <s_m_source_file>
AV-unprocessed.smi

> <i_m_source_file_index>
240

> <i_lp_mmshare_version>
43012

> <i_f3d_flags>
0

> <s_epik_input>
W09IXVtDQEBIXTFbQ0gyXVtDSDJdW0NIMl1bQ0BIXTFbQ0BASF0yW0NIMl1PW0NIMl1bQ0gyXU4yYyhuW2NIXW4zKWMoYzM0KW5bY0hdbjRbQ0gyXVtDQEBdNShbT0hdKVtDSDJdW0NIMl1PW0NIMl01

> <s_epik_cmdline>
J2VwaWtfcHl0aG9uJywgJy1waCcsICc3LjAnLCAnLXRuJywgJzgnLCAnLW1hJywgJzIwMCcsICctbWV0YWxfYmluZGluZycsICctaW1hZScsICc8aW5maWxlLm1hZT4nLCAnLW9tYWUnLCAnPG91dGZpbGUubWFlPic=

> <r_lp_tautomer_probability>
1

> <r_epik_Ionization_Penalty>
0.000130618

> <r_epik_Ionization_Penalty_Charging>
0

> <r_epik_Ionization_Penalty_Neutral>
0.000130618

> <r_epik_State_Penalty>
-0

> <r_epik_Charging_Adjusted_Penalty>
0

> <i_epik_Tot_Q>
0

> <i_epik_Tot_abs_Q>
0

> <r_epik_Metal_State_Penalty>
-0

> <b_epik_Metal_Only>
0

> <s_lp_Force_Field>
OPLS_2005

> <r_lp_Energy>
62.3789

> <b_lp_Chiralities_Consistent>
1

> <s_lp_Variant>
AV-unprocessed.smi:240-9

> <Gold.Version>
5.8.1

> <Gold.Id.Protein>
6NUR|6NUR_protein|mol2

> <Gold.PLP.Fitness>
44.3595

> <Gold.PLP.PLP>
-35.7540

> <Gold.PLP.part.hbond>
-5.5563

> <Gold.PLP.part.metal>
0.0000

> <Gold.PLP.part.buried>
-5.3126

> <Gold.PLP.part.nonpolar>
-29.6209

> <Gold.PLP.part.repulsive>
3.1890

> <Gold.PLP.ligand.clash>
0.0000

> <Gold.PLP.ligand.torsion>
0.4078

> <Gold.PLP.Chemscore.Hbond>
2.8047

> <Gold.PLP.Chemscore.CHOScore>
0.2684

> <Gold.PLP.Chemscore.Metal>
0.0000

> <Gold.Chemscore.Hbonds>
donor molecule, donor type, donor heavy atom, donor atom, acceptor molecule, acceptor atom, score
      L1  H     1    29       P1  7949  0.10
      L1  H    24    49       P1 10957  0.84
      P1  H  8011  8017       L1     9  0.90
      P1  H 10752 10763       L1     1  1.00
      L1  C    20    46       P1 10171  0.26

> <Gold.PLP.Chemscore.Internal.Correction>
0.2019

> <Gold.Rescore>
     Score         DG    S(hbond)    S(metal)    S(lipo)     H(rot)  DE(clash)    DE(int)     intcor
     11.26     -13.79       2.24        0.00      72.73       3.00       1.16       1.37       ----

> <Gold.Chemscore.Fitness>
11.2638

> <Gold.Chemscore.DG>
-13.7949

> <Gold.Chemscore.ZeroCoef>
-5.4800

> <Gold.Chemscore.Hbond>
2.2440

> <Gold.Chemscore.Metal>
0.0000

> <Gold.Chemscore.Lipo>
72.7334

> <Gold.Chemscore.Internal_Hbond>
0.0000

> <Gold.Chemscore.DEClash>
1.1612

> <Gold.Chemscore.DEInternal>
1.3698

> <Gold.Chemscore.Rot>
3.0039

> <Gold.Chemscore.Internal.Correction>
   9.000000E+99

> <Gold.Chemscore.Hbonds>
donor molecule, donor type, donor heavy atom, donor atom, acceptor molecule, acceptor atom, score
      L1  H     1    29       P1  7949  0.01
      L1  H    24    49       P1 10957  0.61
      P1  H  8011  8017       L1     9  0.30
      P1  H 10752 10763       L1     1  0.56

> <Gold.Chemscore.Hbond.Weighted>
-7.4950

> <Gold.Chemscore.Metal.Weighted>
-0.0000

> <Gold.Chemscore.Lipo.Weighted>
-8.5098

> <Gold.Chemscore.Internal_Hbond.Weighted>
0.0000

> <Gold.Chemscore.DEClash.Weighted>
1.1612

> <Gold.Chemscore.DEInternal.Weighted>
1.3698

> <Gold.Chemscore.Rot.Weighted>
7.6899

> <Gold.Chemscore.Internal.Correction.Weighted>
   9.000000E+99

> <Gold.Protein.RotatedTorsions>
[ 6907 6896 6895 6894 ] final    3.63 input  -60.11 | X-H torsion
[ 7974 7965 7964 7962 ] final -132.24 input  175.53 | X-H torsion
[ 8008 7997 7996 7995 ] final  147.65 input   59.86 | X-H torsion
[ 10167 10162 10161 10158 ] final  152.35 input  -65.29 | X-H torsion
[ 10718 10713 10712 10709 ] final  127.74 input   66.30 | X-H torsion
[ 10763 10752 10751 10750 ] final   49.82 input  -60.55 | X-H torsion
[ 11005 11000 10999 10996 ] final   32.40 input  -57.11 | X-H torsion

> <Gold.Protein.ActiveResidues>
 VAL166  LYS551  ARG553  GLY616  TRP617  ASP618  TYR619  PRO620  LYS621  CYS622 
 ASP623  PHE694  ASN695  SER759  ASP760  ASP761  ALA762  ILE779  LEU786  VAL792 
 PHE793  MET794  SER795  GLU796  ALA797  LYS798  CYS799  TRP800  GLU811  SER814 

> <Gold.Protein.RotatedAtoms>
  151.6283  135.1025  160.0115 H   0  0  0  0  0  0  0  0  0  0  0  0  # atno 6907 bound_to 6896
  152.4120  133.6975  159.6415 H   0  0  0  0  0  0  0  0  0  0  0  0  # atno 6908 bound_to 6896
  150.8010  133.8523  159.3250 H   0  0  0  0  0  0  0  0  0  0  0  0  # atno 6909 bound_to 6896
  144.9304  140.7121  143.4909 H   0  0  0  0  0  0  0  0  0  0  0  0  # atno 7974 bound_to 7965
  156.2817  140.2150  156.5573 H   0  0  0  0  0  0  0  0  0  0  0  0  # atno 8008 bound_to 7997
  154.7242  140.0501  157.0690 H   0  0  0  0  0  0  0  0  0  0  0  0  # atno 8009 bound_to 7997
  155.0438  140.3148  155.4718 H   0  0  0  0  0  0  0  0  0  0  0  0  # atno 8010 bound_to 7997
  139.4833  144.5365  151.7637 H   0  0  0  0  0  0  0  0  0  0  0  0  # atno 10167 bound_to 10162
  157.5306  131.1098  150.9014 H   0  0  0  0  0  0  0  0  0  0  0  0  # atno 10718 bound_to 10713
  152.9786  135.5899  154.4151 H   0  0  0  0  0  0  0  0  0  0  0  0  # atno 10763 bound_to 10752
  154.3782  135.2767  155.2229 H   0  0  0  0  0  0  0  0  0  0  0  0  # atno 10764 bound_to 10752
  154.4154  135.6071  153.6032 H   0  0  0  0  0  0  0  0  0  0  0  0  # atno 10765 bound_to 10752
  140.2738  134.3051  155.7820 H   0  0  0  0  0  0  0  0  0  0  0  0  # atno 11005 bound_to 11000
  145.3151  139.1806  143.4618 LP  0  0  0  0  0  0  0  0  0  0  0  0  # atno 17320 bound_to 7965
  146.3244  140.3161  142.8630 LP  0  0  0  0  0  0  0  0  0  0  0  0  # atno 17321 bound_to 7965
  140.4898  144.1327  150.5948 LP  0  0  0  0  0  0  0  0  0  0  0  0  # atno 17342 bound_to 10162
  140.4184  143.2623  151.9746 LP  0  0  0  0  0  0  0  0  0  0  0  0  # atno 17343 bound_to 10162
  156.9597  130.5450  149.5285 LP  0  0  0  0  0  0  0  0  0  0  0  0  # atno 17370 bound_to 10713
  156.0420  130.5501  150.8793 LP  0  0  0  0  0  0  0  0  0  0  0  0  # atno 17371 bound_to 10713
  141.2173  133.7483  156.9376 LP  0  0  0  0  0  0  0  0  0  0  0  0  # atno 17394 bound_to 11000
  140.1347  134.9333  157.2386 LP  0  0  0  0  0  0  0  0  0  0  0  0  # atno 17395 bound_to 11000

$$$$
