AV-unprocessed.smi:2212|AV-procd|sdf|8953|dock1
  -GOLD-   2272012173D 1   1.00000     0.00000
 Structure written by MMmdl.
 31 32  0  0  0  0  0  0  0  0  1 V2000
  153.0604  141.3071  160.5292 C   0  0  0  0  0  0  0  0  0  0  0  0
  151.8468  141.8655  160.0429 O   0  0  0  0  0  0  0  0  0  0  0  0
  151.9473  142.6331  158.8427 C   0  0  0  0  0  0  0  0  0  0  0  0
  151.9799  141.7432  157.5921 C   0  0  0  0  0  0  0  0  0  0  0  0
  150.8098  141.9823  156.7571 N   0  0  0  0  0  0  0  0  0  0  0  0
  150.5916  141.4159  155.5627 C   0  0  0  0  0  0  0  0  0  0  0  0
  151.4074  140.6390  155.0561 O   0  0  0  0  0  0  0  0  0  0  0  0
  149.3880  141.8558  155.0345 N   0  0  0  0  0  0  0  0  0  0  0  0
  148.7307  141.0749  154.2345 C   0  0  0  0  0  0  0  0  0  0  0  0
  147.5081  141.3168  153.6292 N   0  0  0  0  0  0  0  0  0  0  0  0
  147.1927  140.2317  152.8591 C   0  0  0  0  0  0  0  0  0  0  0  0
  148.1760  139.3434  152.9728 C   0  0  0  0  0  0  0  0  0  0  0  0
  149.1350  139.8302  153.8087 O   0  0  0  0  0  0  0  0  0  0  0  0
  150.8851  143.7472  158.9002 C   0  0  0  0  0  0  0  0  0  0  0  0
  151.9562  144.7398  158.4444 C   0  0  0  0  0  0  0  0  0  0  0  0
  152.9957  143.7549  158.9817 C   0  0  0  0  0  0  0  0  0  0  0  0
  152.8758  140.8392  161.4958 H   0  0  0  0  0  0  0  0  0  0  0  0
  153.8305  142.0656  160.6706 H   0  0  0  0  0  0  0  0  0  0  0  0
  153.4456  140.5344  159.8641 H   0  0  0  0  0  0  0  0  0  0  0  0
  152.8777  141.9500  157.0074 H   0  0  0  0  0  0  0  0  0  0  0  0
  152.0309  140.6870  157.8578 H   0  0  0  0  0  0  0  0  0  0  0  0
  150.1120  142.6155  157.1205 H   0  0  0  0  0  0  0  0  0  0  0  0
  146.9201  142.1338  153.7122 H   0  0  0  0  0  0  0  0  0  0  0  0
  146.2714  140.2106  152.2956 H   0  0  0  0  0  0  0  0  0  0  0  0
  148.3352  138.3653  152.5433 H   0  0  0  0  0  0  0  0  0  0  0  0
  150.0553  143.6287  158.2028 H   0  0  0  0  0  0  0  0  0  0  0  0
  150.5289  143.9528  159.9115 H   0  0  0  0  0  0  0  0  0  0  0  0
  151.9979  144.8523  157.3597 H   0  0  0  0  0  0  0  0  0  0  0  0
  151.9328  145.7037  158.9533 H   0  0  0  0  0  0  0  0  0  0  0  0
  153.2699  143.9663  160.0168 H   0  0  0  0  0  0  0  0  0  0  0  0
  153.8767  143.6388  158.3499 H   0  0  0  0  0  0  0  0  0  0  0  0
  1  2  1  0  0  0  0
  1 17  1  0  0  0  0
  1 18  1  0  0  0  0
  1 19  1  0  0  0  0
  2  3  1  0  0  0  0
  3 16  1  0  0  0  0
  3  4  1  0  0  0  0
  3 14  1  0  0  0  0
  4  5  1  0  0  0  0
  4 20  1  0  0  0  0
  4 21  1  0  0  0  0
  5 22  1  0  0  0  0
  5  6  1  0  0  0  0
  6  8  1  0  0  0  0
  6  7  2  0  0  0  0
  8  9  2  0  0  0  0
  9 13  1  0  0  0  0
  9 10  1  0  0  0  0
 10 23  1  0  0  0  0
 10 11  1  0  0  0  0
 11 24  1  0  0  0  0
 11 12  2  0  0  0  0
 12 25  1  0  0  0  0
 12 13  1  0  0  0  0
 14 15  1  0  0  0  0
 14 26  1  0  0  0  0
 14 27  1  0  0  0  0
 15 16  1  0  0  0  0
 15 28  1  0  0  0  0
 15 29  1  0  0  0  0
 16 30  1  0  0  0  0
 16 31  1  0  0  0  0
M  END
> <s_m_source_file>
AV-unprocessed.smi

> <i_m_source_file_index>
2212

> <i_lp_mmshare_version>
43012

> <i_f3d_flags>
0

> <s_epik_input>
W0NIMl0xW0NIMl1bQ0gyXUMxKE9bQ0gzXSlbQ0gyXVtOSF1DKD1PKVtOSF1jMm5bY0hdW2NIXW8y

> <s_epik_cmdline>
J2VwaWtfcHl0aG9uJywgJy1waCcsICc3LjAnLCAnLXRuJywgJzgnLCAnLW1hJywgJzIwMCcsICctbWV0YWxfYmluZGluZycsICctaW1hZScsICc8aW5maWxlLm1hZT4nLCAnLW9tYWUnLCAnPG91dGZpbGUubWFlPic=

> <r_lp_tautomer_probability>
0.107061

> <r_epik_Ionization_Penalty>
1.29244

> <r_epik_Ionization_Penalty_Charging>
1.29208

> <r_epik_Ionization_Penalty_Neutral>
0.000357989

> <r_epik_State_Penalty>
2.59896

> <r_epik_Charging_Adjusted_Penalty>
3.89105

> <i_epik_Tot_Q>
0

> <i_epik_Tot_abs_Q>
0

> <r_epik_Metal_State_Penalty>
3.62496

> <b_epik_Metal_Only>
0

> <s_lp_Force_Field>
OPLS_2005

> <r_lp_Energy>
40.2308

> <b_lp_Chiralities_Consistent>
1

> <s_lp_Variant>
AV-unprocessed.smi:2212-3

> <Gold.Version>
5.8.1

> <Gold.Id.Protein>
6NUR|6NUR_protein|mol2

> <Gold.PLP.Fitness>
37.3943

> <Gold.PLP.PLP>
-31.3644

> <Gold.PLP.part.hbond>
-1.4449

> <Gold.PLP.part.metal>
0.0000

> <Gold.PLP.part.buried>
-5.6896

> <Gold.PLP.part.nonpolar>
-24.8877

> <Gold.PLP.part.repulsive>
0.8178

> <Gold.PLP.ligand.clash>
0.0000

> <Gold.PLP.ligand.torsion>
1.5871

> <Gold.PLP.Chemscore.Hbond>
0.9760

> <Gold.PLP.Chemscore.CHOScore>
2.0000

> <Gold.PLP.Chemscore.Metal>
0.0000

> <Gold.Chemscore.Hbonds>
donor molecule, donor type, donor heavy atom, donor atom, acceptor molecule, acceptor atom, score
      P1  H  7989  7998       L1     7  0.83
      L1  C    11    24       P1 10175  0.83
      L1  C    12    25       P1  7948  1.00

> <Gold.PLP.Chemscore.Internal.Correction>
0.2762

> <Gold.Rescore>
     Score         DG    S(hbond)    S(metal)    S(lipo)     H(rot)  DE(clash)    DE(int)     intcor
     10.39     -13.39       0.88        0.00      78.48       1.64       0.14       2.86       ----

> <Gold.Chemscore.Fitness>
10.3942

> <Gold.Chemscore.DG>
-13.3935

> <Gold.Chemscore.ZeroCoef>
-5.4800

> <Gold.Chemscore.Hbond>
0.8779

> <Gold.Chemscore.Metal>
0.0000

> <Gold.Chemscore.Lipo>
78.4816

> <Gold.Chemscore.Internal_Hbond>
0.0000

> <Gold.Chemscore.DEClash>
0.1390

> <Gold.Chemscore.DEInternal>
2.8603

> <Gold.Chemscore.Rot>
1.6411

> <Gold.Chemscore.Internal.Correction>
   9.000000E+99

> <Gold.Chemscore.Hbonds>
donor molecule, donor type, donor heavy atom, donor atom, acceptor molecule, acceptor atom, score
      P1  H  7989  7998       L1     7  0.72

> <Gold.Chemscore.Hbond.Weighted>
-2.9322

> <Gold.Chemscore.Metal.Weighted>
-0.0000

> <Gold.Chemscore.Lipo.Weighted>
-9.1823

> <Gold.Chemscore.Internal_Hbond.Weighted>
0.0000

> <Gold.Chemscore.DEClash.Weighted>
0.1390

> <Gold.Chemscore.DEInternal.Weighted>
2.8603

> <Gold.Chemscore.Rot.Weighted>
4.2011

> <Gold.Chemscore.Internal.Correction.Weighted>
   9.000000E+99

> <Gold.Protein.RotatedTorsions>
[ 6907 6896 6895 6894 ] final -117.20 input  -60.11 | X-H torsion
[ 7974 7965 7964 7962 ] final  100.80 input  175.53 | X-H torsion
[ 8008 7997 7996 7995 ] final -133.45 input   59.86 | X-H torsion
[ 10167 10162 10161 10158 ] final   25.93 input  -65.29 | X-H torsion
[ 10718 10713 10712 10709 ] final   85.57 input   66.30 | X-H torsion
[ 10763 10752 10751 10750 ] final -125.76 input  -60.55 | X-H torsion
[ 11005 11000 10999 10996 ] final   93.26 input  -57.11 | X-H torsion

> <Gold.Protein.ActiveResidues>
 VAL166  LYS551  ARG553  GLY616  TRP617  ASP618  TYR619  PRO620  LYS621  CYS622 
 ASP623  PHE694  ASN695  SER759  ASP760  ASP761  ALA762  ILE779  LEU786  VAL792 
 PHE793  MET794  SER795  GLU796  ALA797  LYS798  CYS799  TRP800  GLU811  SER814 

> <Gold.Protein.RotatedAtoms>
  150.8117  133.8409  159.3178 H   0  0  0  0  0  0  0  0  0  0  0  0  # atno 6907 bound_to 6896
  151.6193  135.1032  160.0107 H   0  0  0  0  0  0  0  0  0  0  0  0  # atno 6908 bound_to 6896
  152.4209  133.7075  159.6516 H   0  0  0  0  0  0  0  0  0  0  0  0  # atno 6909 bound_to 6896
  145.3807  139.2380  143.3405 H   0  0  0  0  0  0  0  0  0  0  0  0  # atno 7974 bound_to 7965
  155.3456  140.0474  157.3045 H   0  0  0  0  0  0  0  0  0  0  0  0  # atno 8008 bound_to 7997
  154.5254  140.2239  155.8864 H   0  0  0  0  0  0  0  0  0  0  0  0  # atno 8009 bound_to 7997
  156.1734  140.3090  155.9020 H   0  0  0  0  0  0  0  0  0  0  0  0  # atno 8010 bound_to 7997
  140.5065  144.0230  150.6354 H   0  0  0  0  0  0  0  0  0  0  0  0  # atno 10167 bound_to 10162
  157.6916  131.0180  150.2842 H   0  0  0  0  0  0  0  0  0  0  0  0  # atno 10718 bound_to 10713
  154.8739  135.4018  154.3321 H   0  0  0  0  0  0  0  0  0  0  0  0  # atno 10763 bound_to 10752
  153.4133  135.7021  153.6349 H   0  0  0  0  0  0  0  0  0  0  0  0  # atno 10764 bound_to 10752
  153.5043  135.3721  155.2525 H   0  0  0  0  0  0  0  0  0  0  0  0  # atno 10765 bound_to 10752
  139.8812  134.8780  156.3692 H   0  0  0  0  0  0  0  0  0  0  0  0  # atno 11005 bound_to 11000
  146.2843  140.4474  142.8764 LP  0  0  0  0  0  0  0  0  0  0  0  0  # atno 17320 bound_to 7965
  144.8510  140.7000  143.6168 LP  0  0  0  0  0  0  0  0  0  0  0  0  # atno 17321 bound_to 7965
  140.3540  143.2946  152.0456 LP  0  0  0  0  0  0  0  0  0  0  0  0  # atno 17342 bound_to 10162
  139.4885  144.6352  151.6989 LP  0  0  0  0  0  0  0  0  0  0  0  0  # atno 17343 bound_to 10162
  156.3383  130.3811  149.7431 LP  0  0  0  0  0  0  0  0  0  0  0  0  # atno 17370 bound_to 10713
  156.4948  130.8101  151.3109 LP  0  0  0  0  0  0  0  0  0  0  0  0  # atno 17371 bound_to 10713
  140.9476  133.7472  156.0229 LP  0  0  0  0  0  0  0  0  0  0  0  0  # atno 17394 bound_to 11000
  140.8144  134.3362  157.5401 LP  0  0  0  0  0  0  0  0  0  0  0  0  # atno 17395 bound_to 11000

$$$$
