AV-unprocessed.smi:1194|AV-procd|sdf|4992|dock5
  -GOLD-   22720 3593D 1   1.00000     0.00000
 Structure written by MMmdl.
 48 49  0  0  0  0  0  0  0  0  2 V2000
  151.0423  142.1401  156.9320 C   0  0  0  0  0  0  0  0  0  0  0  0
  151.3765  140.7692  156.3337 C   0  0  0  0  0  0  0  0  0  0  0  0
  150.1199  140.0125  155.8620 C   0  0  0  0  0  0  0  0  0  0  0  0
  149.3352  140.7322  154.7489 C   0  0  0  0  0  0  0  0  0  0  0  0
  149.9648  141.1826  153.7896 O   0  0  0  0  0  0  0  0  0  0  0  0
  147.9850  140.8699  154.8583 N   0  0  0  0  0  0  0  0  0  0  0  0
  147.1474  141.4957  153.8070 C   0  0  0  0  0  0  0  0  0  0  0  0
  146.0921  142.4461  154.3923 C   0  0  0  0  0  0  0  0  0  0  0  0
  145.2572  141.7520  155.4689 C   0  0  0  0  0  0  0  0  0  0  0  0
  146.1906  141.2007  156.5499 C   0  0  0  0  0  0  0  0  0  0  0  0
  147.2589  140.2291  155.9904 C   0  0  1  0  0  0  0  0  0  0  0  0
  146.6403  138.8555  155.6363 C   0  0  0  0  0  0  0  0  0  0  0  0
  146.0988  138.1869  156.5164 O   0  0  0  0  0  0  0  0  0  0  0  0
  146.7707  138.4093  154.3761 N   0  0  0  0  0  0  0  0  0  0  0  0
  146.3916  137.0843  153.8997 C   0  0  0  0  0  0  0  0  0  0  0  0
  145.3309  137.1509  152.7821 C   0  0  0  0  0  0  0  0  0  0  0  0
  144.8781  135.7824  152.2979 C   0  0  0  0  0  0  0  0  0  0  0  0
  145.0337  135.4095  150.9446 C   0  0  0  0  0  0  0  0  0  0  0  0
  144.6343  134.1210  150.5320 C   0  0  0  0  0  0  0  0  0  0  0  0
  144.0861  133.2349  151.4818 C   0  0  0  0  0  0  0  0  0  0  0  0
  143.9495  133.6277  152.7670 N   0  3  0  0  0  0  0  0  0  0  0  0
  144.3194  134.8518  153.2016 C   0  0  0  0  0  0  0  0  0  0  0  0
  151.9477  142.6537  157.2563 H   0  0  0  0  0  0  0  0  0  0  0  0
  150.3870  142.0428  157.7979 H   0  0  0  0  0  0  0  0  0  0  0  0
  150.5420  142.7770  156.2020 H   0  0  0  0  0  0  0  0  0  0  0  0
  152.0625  140.9077  155.4972 H   0  0  0  0  0  0  0  0  0  0  0  0
  151.9096  140.1781  157.0795 H   0  0  0  0  0  0  0  0  0  0  0  0
  150.4112  139.0246  155.5029 H   0  0  0  0  0  0  0  0  0  0  0  0
  149.4619  139.8694  156.7200 H   0  0  0  0  0  0  0  0  0  0  0  0
  147.7164  142.0728  153.0813 H   0  0  0  0  0  0  0  0  0  0  0  0
  146.6523  140.7130  153.2326 H   0  0  0  0  0  0  0  0  0  0  0  0
  146.5861  143.3203  154.8191 H   0  0  0  0  0  0  0  0  0  0  0  0
  145.4422  142.8157  153.5985 H   0  0  0  0  0  0  0  0  0  0  0  0
  144.5496  142.4563  155.9071 H   0  0  0  0  0  0  0  0  0  0  0  0
  144.6666  140.9479  155.0281 H   0  0  0  0  0  0  0  0  0  0  0  0
  146.6968  142.0355  157.0367 H   0  0  0  0  0  0  0  0  0  0  0  0
  145.6029  140.7227  157.3348 H   0  0  0  0  0  0  0  0  0  0  0  0
  147.9336  140.0324  156.8248 H   0  0  0  0  0  0  0  0  0  0  0  0
  147.2226  139.0180  153.7090 H   0  0  0  0  0  0  0  0  0  0  0  0
  147.2674  136.5232  153.5700 H   0  0  0  0  0  0  0  0  0  0  0  0
  145.9825  136.5438  154.7535 H   0  0  0  0  0  0  0  0  0  0  0  0
  144.4603  137.7015  153.1414 H   0  0  0  0  0  0  0  0  0  0  0  0
  145.7189  137.7199  151.9365 H   0  0  0  0  0  0  0  0  0  0  0  0
  145.4621  136.0991  150.2319 H   0  0  0  0  0  0  0  0  0  0  0  0
  144.7493  133.8158  149.5021 H   0  0  0  0  0  0  0  0  0  0  0  0
  143.7584  132.2309  151.2550 H   0  0  0  0  0  0  0  0  0  0  0  0
  144.1724  135.0425  154.2549 H   0  0  0  0  0  0  0  0  0  0  0  0
  143.5562  132.9692  153.4402 H   0  0  0  0  0  0  0  0  0  0  0  0
  1  2  1  0  0  0  0
  1 23  1  0  0  0  0
  1 24  1  0  0  0  0
  1 25  1  0  0  0  0
  2  3  1  0  0  0  0
  2 26  1  0  0  0  0
  2 27  1  0  0  0  0
  3  4  1  0  0  0  0
  3 28  1  0  0  0  0
  3 29  1  0  0  0  0
  4  5  2  0  0  0  0
  4  6  1  0  0  0  0
  6 11  1  0  0  0  0
  6  7  1  0  0  0  0
  7  8  1  0  0  0  0
  7 30  1  0  0  0  0
  7 31  1  0  0  0  0
  8  9  1  0  0  0  0
  8 32  1  0  0  0  0
  8 33  1  0  0  0  0
  9 10  1  0  0  0  0
  9 34  1  0  0  0  0
  9 35  1  0  0  0  0
 10 11  1  0  0  0  0
 10 36  1  0  0  0  0
 10 37  1  0  0  0  0
 11 12  1  0  0  0  0
 11 38  1  0  0  0  0
 12 13  2  0  0  0  0
 12 14  1  0  0  0  0
 14 15  1  0  0  0  0
 14 39  1  0  0  0  0
 15 16  1  0  0  0  0
 15 40  1  0  0  0  0
 15 41  1  0  0  0  0
 16 17  1  0  0  0  0
 16 42  1  0  0  0  0
 16 43  1  0  0  0  0
 17 22  1  0  0  0  0
 17 18  2  0  0  0  0
 18 19  1  0  0  0  0
 18 44  1  0  0  0  0
 19 20  2  0  0  0  0
 19 45  1  0  0  0  0
 20 21  1  0  0  0  0
 20 46  1  0  0  0  0
 21 22  2  0  0  0  0
 21 48  1  0  0  0  0
 22 47  1  0  0  0  0
M  CHG  1  21   1
M  END
> <s_m_source_file>
AV-unprocessed.smi

> <i_m_source_file_index>
1194

> <i_lp_mmshare_version>
43012

> <i_f3d_flags>
0

> <s_epik_input>
W0NIM11bQ0gyXVtDSDJdQyg9TylOMVtDSDJdW0NIMl1bQ0gyXVtDSDJdW0NASF0xQyg9TylbTkhdW0NIMl1bQ0gyXWMyW2NIXVtjSF1bY0hdbltjSF0y

> <s_epik_cmdline>
J2VwaWtfcHl0aG9uJywgJy1waCcsICc3LjAnLCAnLXRuJywgJzgnLCAnLW1hJywgJzIwMCcsICctbWV0YWxfYmluZGluZycsICctaW1hZScsICc8aW5maWxlLm1hZT4nLCAnLW9tYWUnLCAnPG91dGZpbGUubWFlPic=

> <r_epik_Ionization_Penalty>
2.26523

> <r_epik_Ionization_Penalty_Charging>
2.26523

> <r_epik_Ionization_Penalty_Neutral>
5.33649e-08

> <r_epik_State_Penalty>
2.41338

> <r_epik_Charging_Adjusted_Penalty>
4.67861

> <i_epik_Tot_Q>
1

> <i_epik_Tot_abs_Q>
1

> <r_epik_Metal_State_Penalty>
2.42628

> <b_epik_Metal_Only>
0

> <s_lp_Force_Field>
OPLS_2005

> <r_lp_Energy>
32.0414

> <b_lp_Chiralities_Consistent>
1

> <s_lp_Variant>
AV-unprocessed.smi:1194-3

> <Gold.Version>
5.8.1

> <Gold.Id.Protein>
6NUR|6NUR_protein|mol2

> <Gold.PLP.Fitness>
41.3226

> <Gold.PLP.PLP>
-31.8654

> <Gold.PLP.part.hbond>
-2.0682

> <Gold.PLP.part.metal>
0.0000

> <Gold.PLP.part.buried>
-4.1987

> <Gold.PLP.part.nonpolar>
-27.3833

> <Gold.PLP.part.repulsive>
1.9905

> <Gold.PLP.ligand.clash>
0.0000

> <Gold.PLP.ligand.torsion>
0.1725

> <Gold.PLP.Chemscore.Hbond>
3.2320

> <Gold.PLP.Chemscore.CHOScore>
0.0000

> <Gold.PLP.Chemscore.Metal>
0.0000

> <Gold.Chemscore.Hbonds>
donor molecule, donor type, donor heavy atom, donor atom, acceptor molecule, acceptor atom, score
      L1  H    21    48       P1 10957  2.00
      P1  H  7989  7998       L1     5  0.29
      P1  H  8011  8017       L1     5  0.82

> <Gold.PLP.Chemscore.Internal.Correction>
0.1061

> <Gold.Rescore>
     Score         DG    S(hbond)    S(metal)    S(lipo)     H(rot)  DE(clash)    DE(int)     intcor
     14.83     -16.00       2.12        0.00      68.75       1.80       1.02       0.16       ----

> <Gold.Chemscore.Fitness>
14.8275

> <Gold.Chemscore.DG>
-16.0029

> <Gold.Chemscore.ZeroCoef>
-5.4800

> <Gold.Chemscore.Hbond>
2.1209

> <Gold.Chemscore.Metal>
0.0000

> <Gold.Chemscore.Lipo>
68.7463

> <Gold.Chemscore.Internal_Hbond>
0.0000

> <Gold.Chemscore.DEClash>
1.0197

> <Gold.Chemscore.DEInternal>
0.1557

> <Gold.Chemscore.Rot>
1.7985

> <Gold.Chemscore.Internal.Correction>
   9.000000E+99

> <Gold.Chemscore.Hbonds>
donor molecule, donor type, donor heavy atom, donor atom, acceptor molecule, acceptor atom, score
      L1  H    21    48       P1 10957  0.79
      P1  H  7989  7998       L1     5  0.28
      P1  H  8011  8017       L1     5  0.79

> <Gold.Chemscore.Hbond.Weighted>
-7.0838

> <Gold.Chemscore.Metal.Weighted>
-0.0000

> <Gold.Chemscore.Lipo.Weighted>
-8.0433

> <Gold.Chemscore.Internal_Hbond.Weighted>
0.0000

> <Gold.Chemscore.DEClash.Weighted>
1.0197

> <Gold.Chemscore.DEInternal.Weighted>
0.1557

> <Gold.Chemscore.Rot.Weighted>
4.6041

> <Gold.Chemscore.Internal.Correction.Weighted>
   9.000000E+99

> <Gold.Protein.RotatedTorsions>
[ 6907 6896 6895 6894 ] final  -96.27 input  -60.11 | X-H torsion
[ 7974 7965 7964 7962 ] final  156.26 input  175.53 | X-H torsion
[ 8008 7997 7996 7995 ] final   66.41 input   59.86 | X-H torsion
[ 10167 10162 10161 10158 ] final -161.91 input  -65.29 | X-H torsion
[ 10718 10713 10712 10709 ] final  -89.13 input   66.30 | X-H torsion
[ 10763 10752 10751 10750 ] final -122.74 input  -60.55 | X-H torsion
[ 11005 11000 10999 10996 ] final -147.66 input  -57.11 | X-H torsion

> <Gold.Protein.ActiveResidues>
 VAL166  LYS551  ARG553  GLY616  TRP617  ASP618  TYR619  PRO620  LYS621  CYS622 
 ASP623  PHE694  ASN695  SER759  ASP760  ASP761  ALA762  ILE779  LEU786  VAL792 
 PHE793  MET794  SER795  GLU796  ALA797  LYS798  CYS799  TRP800  GLU811  SER814 

> <Gold.Protein.RotatedAtoms>
  150.6984  134.1528  159.4146 H   0  0  0  0  0  0  0  0  0  0  0  0  # atno 6907 bound_to 6896
  151.9510  135.0166  160.0551 H   0  0  0  0  0  0  0  0  0  0  0  0  # atno 6908 bound_to 6896
  152.2010  133.4806  159.5095 H   0  0  0  0  0  0  0  0  0  0  0  0  # atno 6909 bound_to 6896
  144.7974  139.7179  143.6196 H   0  0  0  0  0  0  0  0  0  0  0  0  # atno 7974 bound_to 7965
  155.6769  140.3497  155.4840 H   0  0  0  0  0  0  0  0  0  0  0  0  # atno 8008 bound_to 7997
  155.9640  140.1143  157.0894 H   0  0  0  0  0  0  0  0  0  0  0  0  # atno 8009 bound_to 7997
  154.4150  140.1170  156.5203 H   0  0  0  0  0  0  0  0  0  0  0  0  # atno 8010 bound_to 7997
  139.6431  144.0223  152.2106 H   0  0  0  0  0  0  0  0  0  0  0  0  # atno 10167 bound_to 10162
  155.9984  130.4861  150.5125 H   0  0  0  0  0  0  0  0  0  0  0  0  # atno 10718 bound_to 10713
  154.8695  135.4122  154.2831 H   0  0  0  0  0  0  0  0  0  0  0  0  # atno 10763 bound_to 10752
  153.3720  135.7008  153.6636 H   0  0  0  0  0  0  0  0  0  0  0  0  # atno 10764 bound_to 10752
  153.5494  135.3632  155.2725 H   0  0  0  0  0  0  0  0  0  0  0  0  # atno 10765 bound_to 10752
  140.7694  134.3207  157.5079 H   0  0  0  0  0  0  0  0  0  0  0  0  # atno 11005 bound_to 11000
  146.2246  139.5699  142.9595 LP  0  0  0  0  0  0  0  0  0  0  0  0  # atno 17320 bound_to 7965
  145.5639  141.0401  143.2211 LP  0  0  0  0  0  0  0  0  0  0  0  0  # atno 17321 bound_to 7965
  139.9918  144.6356  150.7808 LP  0  0  0  0  0  0  0  0  0  0  0  0  # atno 17342 bound_to 10162
  140.7501  143.2949  151.3231 LP  0  0  0  0  0  0  0  0  0  0  0  0  # atno 17343 bound_to 10162
  157.3096  131.0661  151.2010 LP  0  0  0  0  0  0  0  0  0  0  0  0  # atno 17370 bound_to 10713
  157.2961  130.6820  149.6139 LP  0  0  0  0  0  0  0  0  0  0  0  0  # atno 17371 bound_to 10713
  139.8758  134.9251  156.3367 LP  0  0  0  0  0  0  0  0  0  0  0  0  # atno 17394 bound_to 11000
  140.9588  133.7402  156.0373 LP  0  0  0  0  0  0  0  0  0  0  0  0  # atno 17395 bound_to 11000

$$$$
