AV-unprocessed.smi:1207|AV-procd|sdf|5054|dock10
  -GOLD-   22720 4 83D 1   1.00000     0.00000
 Structure written by MMmdl.
 52 54  0  0  0  0  0  0  0  0  2 V2000
  152.6522  142.7650  160.8287 C   0  0  0  0  0  0  0  0  0  0  0  0
  152.0676  142.3279  159.4969 C   0  0  0  0  0  0  0  0  0  0  0  0
  152.5892  141.1784  158.8619 C   0  0  0  0  0  0  0  0  0  0  0  0
  152.0720  140.7368  157.6245 C   0  0  0  0  0  0  0  0  0  0  0  0
  152.4228  139.6524  156.8387 N   0  0  0  0  0  0  0  0  0  0  0  0
  151.5787  139.7755  155.8189 C   0  0  0  0  0  0  0  0  0  0  0  0
  150.7199  140.8124  155.8510 N   0  0  0  0  0  0  0  0  0  0  0  0
  149.7101  141.1409  154.8609 C   0  0  0  0  0  0  0  0  0  0  0  0
  148.8977  139.9090  154.4174 C   0  0  1  0  0  0  0  0  0  0  0  0
  149.6525  139.1515  153.4896 O   0  0  0  0  0  0  0  0  0  0  0  0
  148.5347  139.0024  155.6069 C   0  0  0  0  0  0  0  0  0  0  0  0
  147.8895  137.7407  155.1548 N   0  3  2  0  0  0  0  0  0  0  0  0
  146.7782  137.9766  154.2049 C   0  0  0  0  0  0  0  0  0  0  0  0
  147.4942  136.8366  156.2635 C   0  0  0  0  0  0  0  0  0  0  0  0
  148.7013  136.2379  156.9411 C   0  0  0  0  0  0  0  0  0  0  0  0
  149.0562  136.2998  158.3196 C   0  0  0  0  0  0  0  0  0  0  0  0
  148.3161  136.9613  159.4471 C   0  0  0  0  0  0  0  0  0  0  0  0
  150.1969  135.6775  158.5632 N   0  0  0  0  0  0  0  0  0  0  0  0
  150.6294  135.1726  157.3335 O   0  0  0  0  0  0  0  0  0  0  0  0
  149.7218  135.5159  156.3854 C   0  0  0  0  0  0  0  0  0  0  0  0
  150.0151  135.0728  154.9922 C   0  0  0  0  0  0  0  0  0  0  0  0
  151.0113  141.4840  157.0338 C   0  0  0  0  0  0  0  0  0  0  0  0
  150.4854  142.6307  157.6549 C   0  0  0  0  0  0  0  0  0  0  0  0
  151.0119  143.0563  158.8922 C   0  0  0  0  0  0  0  0  0  0  0  0
  150.4341  144.2931  159.5570 C   0  0  0  0  0  0  0  0  0  0  0  0
  153.4742  142.1172  161.1344 H   0  0  0  0  0  0  0  0  0  0  0  0
  151.8915  142.7310  161.6089 H   0  0  0  0  0  0  0  0  0  0  0  0
  153.0363  143.7833  160.7625 H   0  0  0  0  0  0  0  0  0  0  0  0
  153.3933  140.6230  159.3223 H   0  0  0  0  0  0  0  0  0  0  0  0
  151.5821  139.0690  155.0017 H   0  0  0  0  0  0  0  0  0  0  0  0
  149.0533  141.9071  155.2748 H   0  0  0  0  0  0  0  0  0  0  0  0
  150.2088  141.5914  154.0016 H   0  0  0  0  0  0  0  0  0  0  0  0
  147.9903  140.2486  153.9171 H   0  0  0  0  0  0  0  0  0  0  0  0
  149.8477  139.6943  152.7405 H   0  0  0  0  0  0  0  0  0  0  0  0
  149.4449  138.7987  156.1708 H   0  0  0  0  0  0  0  0  0  0  0  0
  147.8710  139.5222  156.2995 H   0  0  0  0  0  0  0  0  0  0  0  0
  145.9477  138.4872  154.6943 H   0  0  0  0  0  0  0  0  0  0  0  0
  146.4082  137.0330  153.8023 H   0  0  0  0  0  0  0  0  0  0  0  0
  147.1030  138.5857  153.3614 H   0  0  0  0  0  0  0  0  0  0  0  0
  146.8674  137.3870  156.9665 H   0  0  0  0  0  0  0  0  0  0  0  0
  146.8665  136.0384  155.8653 H   0  0  0  0  0  0  0  0  0  0  0  0
  148.1544  138.0194  159.2417 H   0  0  0  0  0  0  0  0  0  0  0  0
  148.8618  136.8884  160.3888 H   0  0  0  0  0  0  0  0  0  0  0  0
  147.3402  136.4990  159.5951 H   0  0  0  0  0  0  0  0  0  0  0  0
  149.1238  135.1289  154.3673 H   0  0  0  0  0  0  0  0  0  0  0  0
  150.3705  134.0422  154.9793 H   0  0  0  0  0  0  0  0  0  0  0  0
  150.7836  135.7018  154.5428 H   0  0  0  0  0  0  0  0  0  0  0  0
  149.6811  143.1764  157.1843 H   0  0  0  0  0  0  0  0  0  0  0  0
  149.6115  144.7100  158.9752 H   0  0  0  0  0  0  0  0  0  0  0  0
  151.1983  145.0639  159.6570 H   0  0  0  0  0  0  0  0  0  0  0  0
  150.0524  144.0514  160.5491 H   0  0  0  0  0  0  0  0  0  0  0  0
  148.6002  137.2391  154.6407 H   0  0  0  0  0  0  0  0  0  0  0  0
  1  2  1  0  0  0  0
  1 26  1  0  0  0  0
  1 27  1  0  0  0  0
  1 28  1  0  0  0  0
  2 24  1  0  0  0  0
  2  3  2  0  0  0  0
  3  4  1  0  0  0  0
  3 29  1  0  0  0  0
  4 22  2  0  0  0  0
  4  5  1  0  0  0  0
  5  6  2  0  0  0  0
  6  7  1  0  0  0  0
  6 30  1  0  0  0  0
  7  8  1  0  0  0  0
  7 22  1  0  0  0  0
  8  9  1  0  0  0  0
  8 31  1  0  0  0  0
  8 32  1  0  0  0  0
  9 10  1  0  0  0  0
  9 11  1  0  0  0  0
  9 33  1  0  0  0  0
 10 34  1  0  0  0  0
 11 12  1  0  0  0  0
 11 35  1  0  0  0  0
 11 36  1  0  0  0  0
 12 13  1  0  0  0  0
 12 14  1  0  0  0  0
 12 52  1  0  0  0  0
 13 37  1  0  0  0  0
 13 38  1  0  0  0  0
 13 39  1  0  0  0  0
 14 15  1  0  0  0  0
 14 40  1  0  0  0  0
 14 41  1  0  0  0  0
 15 20  2  0  0  0  0
 15 16  1  0  0  0  0
 16 17  1  0  0  0  0
 16 18  2  0  0  0  0
 17 42  1  0  0  0  0
 17 43  1  0  0  0  0
 17 44  1  0  0  0  0
 18 19  1  0  0  0  0
 19 20  1  0  0  0  0
 20 21  1  0  0  0  0
 21 45  1  0  0  0  0
 21 46  1  0  0  0  0
 21 47  1  0  0  0  0
 22 23  1  0  0  0  0
 23 24  2  0  0  0  0
 23 48  1  0  0  0  0
 24 25  1  0  0  0  0
 25 49  1  0  0  0  0
 25 50  1  0  0  0  0
 25 51  1  0  0  0  0
M  CHG  1  12   1
M  END
> <s_m_source_file>
AV-unprocessed.smi

> <i_m_source_file_index>
1207

> <i_lp_mmshare_version>
43012

> <i_f3d_flags>
0

> <s_epik_input>
W0NIM11jKFtjSF0xKWMoW0NIM10pW2NIXWMoYzEyKW4oW2NIXW4yKVtDSDJdW0NASF0oW09IXSlbQ0gyXU4oW0NIM10pW0NIMl1jM2MoW0NIM10pbm9jM1tDSDNd

> <s_epik_cmdline>
J2VwaWtfcHl0aG9uJywgJy1waCcsICc3LjAnLCAnLXRuJywgJzgnLCAnLW1hJywgJzIwMCcsICctbWV0YWxfYmluZGluZycsICctaW1hZScsICc8aW5maWxlLm1hZT4nLCAnLW9tYWUnLCAnPG91dGZpbGUubWFlPic=

> <r_epik_Ionization_Penalty>
0.646518

> <r_epik_Ionization_Penalty_Charging>
0.559419

> <r_epik_Ionization_Penalty_Neutral>
0.0870981

> <r_epik_State_Penalty>
0.661677

> <r_epik_Charging_Adjusted_Penalty>
1.2211

> <i_epik_Tot_Q>
1

> <i_epik_Tot_abs_Q>
1

> <r_epik_Metal_State_Penalty>
0.649158

> <b_epik_Metal_Only>
0

> <s_lp_Force_Field>
OPLS_2005

> <r_lp_Energy>
8.09598

> <b_lp_Chiralities_Consistent>
1

> <s_lp_Variant>
AV-unprocessed.smi:1207-6

> <Gold.Version>
5.8.1

> <Gold.Id.Protein>
6NUR|6NUR_protein|mol2

> <Gold.PLP.Fitness>
48.1891

> <Gold.PLP.PLP>
-40.1961

> <Gold.PLP.part.hbond>
-3.5632

> <Gold.PLP.part.metal>
0.0000

> <Gold.PLP.part.buried>
-4.8721

> <Gold.PLP.part.nonpolar>
-31.8509

> <Gold.PLP.part.repulsive>
0.0000

> <Gold.PLP.ligand.clash>
0.0000

> <Gold.PLP.ligand.torsion>
0.5060

> <Gold.PLP.Chemscore.Hbond>
2.9675

> <Gold.PLP.Chemscore.CHOScore>
0.0000

> <Gold.PLP.Chemscore.Metal>
0.0000

> <Gold.Chemscore.Hbonds>
donor molecule, donor type, donor heavy atom, donor atom, acceptor molecule, acceptor atom, score
      L1  H    10    34       P1  7957  0.98
      P1  H  6896  6907       L1    18  0.95
      P1  H  7997  8010       L1     5  0.91

> <Gold.PLP.Chemscore.Internal.Correction>
0.1026

> <Gold.Rescore>
     Score         DG    S(hbond)    S(metal)    S(lipo)     H(rot)  DE(clash)    DE(int)     intcor
     17.32     -17.83       2.18        0.00      97.23       2.46       0.13       0.39       ----

> <Gold.Chemscore.Fitness>
17.3175

> <Gold.Chemscore.DG>
-17.8341

> <Gold.Chemscore.ZeroCoef>
-5.4800

> <Gold.Chemscore.Hbond>
2.1755

> <Gold.Chemscore.Metal>
0.0000

> <Gold.Chemscore.Lipo>
97.2345

> <Gold.Chemscore.Internal_Hbond>
0.0000

> <Gold.Chemscore.DEClash>
0.1315

> <Gold.Chemscore.DEInternal>
0.3850

> <Gold.Chemscore.Rot>
2.4565

> <Gold.Chemscore.Internal.Correction>
   9.000000E+99

> <Gold.Chemscore.Hbonds>
donor molecule, donor type, donor heavy atom, donor atom, acceptor molecule, acceptor atom, score
      L1  H    10    34       P1  7957  0.93
      P1  H  6896  6907       L1    18  0.38
      P1  H  7997  8010       L1     5  0.23

> <Gold.Chemscore.Hbond.Weighted>
-7.2663

> <Gold.Chemscore.Metal.Weighted>
-0.0000

> <Gold.Chemscore.Lipo.Weighted>
-11.3764

> <Gold.Chemscore.Internal_Hbond.Weighted>
0.0000

> <Gold.Chemscore.DEClash.Weighted>
0.1315

> <Gold.Chemscore.DEInternal.Weighted>
0.3850

> <Gold.Chemscore.Rot.Weighted>
6.2887

> <Gold.Chemscore.Internal.Correction.Weighted>
   9.000000E+99

> <Gold.Protein.RotatedTorsions>
[ 6907 6896 6895 6894 ] final  -63.42 input  -60.11 | X-H torsion
[ 7974 7965 7964 7962 ] final   78.79 input  175.53 | X-H torsion
[ 8008 7997 7996 7995 ] final   83.92 input   59.86 | X-H torsion
[ 10167 10162 10161 10158 ] final  129.00 input  -65.29 | X-H torsion
[ 10718 10713 10712 10709 ] final   -0.72 input   66.30 | X-H torsion
[ 10763 10752 10751 10750 ] final   78.69 input  -60.55 | X-H torsion
[ 11005 11000 10999 10996 ] final -108.24 input  -57.11 | X-H torsion

> <Gold.Protein.ActiveResidues>
 VAL166  LYS551  ARG553  GLY616  TRP617  ASP618  TYR619  PRO620  LYS621  CYS622 
 ASP623  PHE694  ASN695  SER759  ASP760  ASP761  ALA762  ILE779  LEU786  VAL792 
 PHE793  MET794  SER795  GLU796  ALA797  LYS798  CYS799  TRP800  GLU811  SER814 

> <Gold.Protein.RotatedAtoms>
  150.7650  134.6437  159.6250 H   0  0  0  0  0  0  0  0  0  0  0  0  # atno 6907 bound_to 6896
  152.3677  134.6776  160.0195 H   0  0  0  0  0  0  0  0  0  0  0  0  # atno 6908 bound_to 6896
  151.7146  133.3277  159.3336 H   0  0  0  0  0  0  0  0  0  0  0  0  # atno 6909 bound_to 6896
  145.6725  139.2501  143.1860 H   0  0  0  0  0  0  0  0  0  0  0  0  # atno 7974 bound_to 7965
  155.9303  140.3415  155.6244 H   0  0  0  0  0  0  0  0  0  0  0  0  # atno 8008 bound_to 7997
  155.7165  140.0778  157.2367 H   0  0  0  0  0  0  0  0  0  0  0  0  # atno 8009 bound_to 7997
  154.4084  140.1613  156.2342 H   0  0  0  0  0  0  0  0  0  0  0  0  # atno 8010 bound_to 7997
  139.5499  144.6804  151.4356 H   0  0  0  0  0  0  0  0  0  0  0  0  # atno 10167 bound_to 10162
  156.8162  130.5441  149.5703 H   0  0  0  0  0  0  0  0  0  0  0  0  # atno 10718 bound_to 10713
  153.0894  135.4867  154.8661 H   0  0  0  0  0  0  0  0  0  0  0  0  # atno 10763 bound_to 10752
  154.7251  135.3048  154.8987 H   0  0  0  0  0  0  0  0  0  0  0  0  # atno 10764 bound_to 10752
  153.9639  135.6809  153.4799 H   0  0  0  0  0  0  0  0  0  0  0  0  # atno 10765 bound_to 10752
  141.0912  133.9051  157.2071 H   0  0  0  0  0  0  0  0  0  0  0  0  # atno 11005 bound_to 11000
  146.1033  140.7518  142.9538 LP  0  0  0  0  0  0  0  0  0  0  0  0  # atno 17320 bound_to 7965
  144.7052  140.3822  143.7124 LP  0  0  0  0  0  0  0  0  0  0  0  0  # atno 17321 bound_to 7965
  140.6759  143.8191  150.7057 LP  0  0  0  0  0  0  0  0  0  0  0  0  # atno 17342 bound_to 10162
  140.1630  143.4259  152.2054 LP  0  0  0  0  0  0  0  0  0  0  0  0  # atno 17343 bound_to 10162
  156.1015  130.5973  150.9902 LP  0  0  0  0  0  0  0  0  0  0  0  0  # atno 17370 bound_to 10713
  157.6480  131.0901  150.8111 LP  0  0  0  0  0  0  0  0  0  0  0  0  # atno 17371 bound_to 10713
  139.9738  135.0120  156.9581 LP  0  0  0  0  0  0  0  0  0  0  0  0  # atno 17394 bound_to 11000
  140.5247  134.0872  155.7300 LP  0  0  0  0  0  0  0  0  0  0  0  0  # atno 17395 bound_to 11000

$$$$
