AV-unprocessed.smi:1586|AV-procd|sdf|6386|dock2
  -GOLD-   22720 7 23D 1   1.00000     0.00000
 Structure written by MMmdl.
 45 46  0  0  0  0  0  0  0  0  2 V2000
  151.7199  145.3446  158.7814 C   0  0  0  0  0  0  0  0  0  0  0  0
  151.9012  144.0838  159.6386 C   0  0  0  0  0  0  0  0  0  0  0  0
  151.9710  142.8324  158.8867 N   0  0  0  0  0  0  0  0  0  0  0  0
  150.8177  142.6408  158.0081 C   0  0  0  0  0  0  0  0  0  0  0  0
  150.9057  141.3130  157.2315 C   0  0  0  0  0  0  0  0  0  0  0  0
  150.9885  140.1440  158.1209 N   0  0  0  0  0  0  0  0  0  0  0  0
  151.0775  138.8633  157.3806 C   0  0  1  0  0  0  0  0  0  0  0  0
  152.3850  138.7410  156.5565 C   0  0  0  0  0  0  0  0  0  0  0  0
  150.9440  137.6141  158.2944 C   0  0  0  0  0  0  0  0  0  0  0  0
  149.9091  137.7766  159.3109 N   0  0  0  0  0  0  0  0  0  0  0  0
  149.0860  136.8115  159.7425 C   0  0  0  0  0  0  0  0  0  0  0  0
  149.1787  135.6727  159.2781 O   0  0  0  0  0  0  0  0  0  0  0  0
  148.2058  137.2259  160.6833 N   0  5  0  0  0  0  0  0  0  0  0  0
  147.6076  136.3341  161.4880 C   0  0  0  0  0  0  0  0  0  0  0  0
  146.9278  135.1577  161.0691 C   0  0  0  0  0  0  0  0  0  0  0  0
  146.4962  134.6110  162.2439 C   0  0  0  0  0  0  0  0  0  0  0  0
  145.7252  133.3754  162.5613 C   0  0  0  0  0  0  0  0  0  0  0  0
  146.8698  135.3920  163.2932 O   0  0  0  0  0  0  0  0  0  0  0  0
  147.5750  136.4964  162.8002 N   0  0  0  0  0  0  0  0  0  0  0  0
  152.1367  140.3589  159.0148 C   0  0  0  0  0  0  0  0  0  0  0  0
  152.0369  141.6860  159.7880 C   0  0  0  0  0  0  0  0  0  0  0  0
  151.7827  146.2399  159.4002 H   0  0  0  0  0  0  0  0  0  0  0  0
  150.7505  145.3631  158.2838 H   0  0  0  0  0  0  0  0  0  0  0  0
  152.4945  145.4161  158.0176 H   0  0  0  0  0  0  0  0  0  0  0  0
  152.8257  144.2046  160.2043 H   0  0  0  0  0  0  0  0  0  0  0  0
  151.1017  144.0287  160.3788 H   0  0  0  0  0  0  0  0  0  0  0  0
  149.8945  142.6633  158.5895 H   0  0  0  0  0  0  0  0  0  0  0  0
  150.7535  143.4566  157.2889 H   0  0  0  0  0  0  0  0  0  0  0  0
  150.0168  141.2591  156.6068 H   0  0  0  0  0  0  0  0  0  0  0  0
  151.7653  141.3344  156.5598 H   0  0  0  0  0  0  0  0  0  0  0  0
  150.2491  138.8273  156.6712 H   0  0  0  0  0  0  0  0  0  0  0  0
  152.4800  137.7747  156.0628 H   0  0  0  0  0  0  0  0  0  0  0  0
  153.2628  138.8696  157.1903 H   0  0  0  0  0  0  0  0  0  0  0  0
  152.4376  139.4745  155.7534 H   0  0  0  0  0  0  0  0  0  0  0  0
  150.7333  136.7323  157.6869 H   0  0  0  0  0  0  0  0  0  0  0  0
  151.8637  137.4152  158.8422 H   0  0  0  0  0  0  0  0  0  0  0  0
  149.8035  138.6952  159.7154 H   0  0  0  0  0  0  0  0  0  0  0  0
  146.7850  134.7759  160.0694 H   0  0  0  0  0  0  0  0  0  0  0  0
  146.2475  132.4914  162.1954 H   0  0  0  0  0  0  0  0  0  0  0  0
  144.7413  133.4050  162.0931 H   0  0  0  0  0  0  0  0  0  0  0  0
  145.5845  133.2637  163.6366 H   0  0  0  0  0  0  0  0  0  0  0  0
  152.1981  139.5656  159.7572 H   0  0  0  0  0  0  0  0  0  0  0  0
  153.0664  140.3323  158.4442 H   0  0  0  0  0  0  0  0  0  0  0  0
  152.9033  141.7822  160.4432 H   0  0  0  0  0  0  0  0  0  0  0  0
  151.1584  141.6668  160.4350 H   0  0  0  0  0  0  0  0  0  0  0  0
  1  2  1  0  0  0  0
  1 22  1  0  0  0  0
  1 23  1  0  0  0  0
  1 24  1  0  0  0  0
  2  3  1  0  0  0  0
  2 25  1  0  0  0  0
  2 26  1  0  0  0  0
  3 21  1  0  0  0  0
  3  4  1  0  0  0  0
  4  5  1  0  0  0  0
  4 27  1  0  0  0  0
  4 28  1  0  0  0  0
  5  6  1  0  0  0  0
  5 29  1  0  0  0  0
  5 30  1  0  0  0  0
  6  7  1  0  0  0  0
  6 20  1  0  0  0  0
  7  8  1  0  0  0  0
  7  9  1  0  0  0  0
  7 31  1  0  0  0  0
  8 32  1  0  0  0  0
  8 33  1  0  0  0  0
  8 34  1  0  0  0  0
  9 10  1  0  0  0  0
  9 35  1  0  0  0  0
  9 36  1  0  0  0  0
 10 11  1  0  0  0  0
 10 37  1  0  0  0  0
 11 12  2  0  0  0  0
 11 13  1  0  0  0  0
 13 14  1  0  0  0  0
 14 19  2  0  0  0  0
 14 15  1  0  0  0  0
 15 16  2  0  0  0  0
 15 38  1  0  0  0  0
 16 17  1  0  0  0  0
 16 18  1  0  0  0  0
 17 39  1  0  0  0  0
 17 40  1  0  0  0  0
 17 41  1  0  0  0  0
 18 19  1  0  0  0  0
 20 21  1  0  0  0  0
 20 42  1  0  0  0  0
 20 43  1  0  0  0  0
 21 44  1  0  0  0  0
 21 45  1  0  0  0  0
M  CHG  1  13  -1
M  END
> <s_m_source_file>
AV-unprocessed.smi

> <i_m_source_file_index>
1586

> <i_lp_mmshare_version>
43012

> <i_f3d_flags>
0

> <s_epik_input>
W0NIM11bQ0gyXU4xW0NIMl1bQ0gyXU4oW0NIMl1bQ0gyXTEpW0NASF0oW0NIM10pW0NIMl1bTkhdQyg9TylbTkhdYzJbY0hdYyhbQ0gzXSlvbjI=

> <s_epik_cmdline>
J2VwaWtfcHl0aG9uJywgJy1waCcsICc3LjAnLCAnLXRuJywgJzgnLCAnLW1hJywgJzIwMCcsICctbWV0YWxfYmluZGluZycsICctaW1hZScsICc8aW5maWxlLm1hZT4nLCAnLW9tYWUnLCAnPG91dGZpbGUubWFlPic=

> <r_epik_Ionization_Penalty>
9.09031

> <r_epik_Ionization_Penalty_Charging>
6.65437

> <r_epik_Ionization_Penalty_Neutral>
2.43594

> <r_epik_State_Penalty>
8.41762

> <r_epik_Charging_Adjusted_Penalty>
15.072

> <i_epik_Tot_Q>
-1

> <i_epik_Tot_abs_Q>
1

> <r_epik_Metal_State_Penalty>
4.3436

> <b_epik_Metal_Only>
1

> <s_lp_Force_Field>
OPLS_2005

> <r_lp_Energy>
36.2307

> <b_lp_Chiralities_Consistent>
1

> <s_lp_Variant>
AV-unprocessed.smi:1586-14

> <Gold.Version>
5.8.1

> <Gold.Id.Protein>
6NUR|6NUR_protein|mol2

> <Gold.PLP.Fitness>
47.5261

> <Gold.PLP.PLP>
-39.2108

> <Gold.PLP.part.hbond>
-3.0084

> <Gold.PLP.part.metal>
0.0000

> <Gold.PLP.part.buried>
-7.1040

> <Gold.PLP.part.nonpolar>
-30.0269

> <Gold.PLP.part.repulsive>
0.2294

> <Gold.PLP.ligand.clash>
0.0000

> <Gold.PLP.ligand.torsion>
0.8719

> <Gold.PLP.Chemscore.Hbond>
3.3114

> <Gold.PLP.Chemscore.CHOScore>
0.0000

> <Gold.PLP.Chemscore.Metal>
0.0000

> <Gold.Chemscore.Hbonds>
donor molecule, donor type, donor heavy atom, donor atom, acceptor molecule, acceptor atom, score
      P1  H  6896  6909       L1    12  1.00
      P1  H  6931  6943       L1    13  1.63
      P1  H  6934  6947       L1    13  1.17

> <Gold.PLP.Chemscore.Internal.Correction>
0.1249

> <Gold.Rescore>
     Score         DG    S(hbond)    S(metal)    S(lipo)     H(rot)  DE(clash)    DE(int)     intcor
     15.01     -17.12       1.55        0.00      91.88       1.68       0.01       2.10       ----

> <Gold.Chemscore.Fitness>
15.0070

> <Gold.Chemscore.DG>
-17.1160

> <Gold.Chemscore.ZeroCoef>
-5.4800

> <Gold.Chemscore.Hbond>
1.5521

> <Gold.Chemscore.Metal>
0.0000

> <Gold.Chemscore.Lipo>
91.8797

> <Gold.Chemscore.Internal_Hbond>
0.0000

> <Gold.Chemscore.DEClash>
0.0060

> <Gold.Chemscore.DEInternal>
2.1030

> <Gold.Chemscore.Rot>
1.6788

> <Gold.Chemscore.Internal.Correction>
   9.000000E+99

> <Gold.Chemscore.Hbonds>
donor molecule, donor type, donor heavy atom, donor atom, acceptor molecule, acceptor atom, score
      P1  H  6896  6909       L1    12  0.98
      P1  H  6931  6943       L1    13  0.18
      P1  H  6934  6947       L1    13  0.35

> <Gold.Chemscore.Hbond.Weighted>
-5.1839

> <Gold.Chemscore.Metal.Weighted>
-0.0000

> <Gold.Chemscore.Lipo.Weighted>
-10.7499

> <Gold.Chemscore.Internal_Hbond.Weighted>
0.0000

> <Gold.Chemscore.DEClash.Weighted>
0.0060

> <Gold.Chemscore.DEInternal.Weighted>
2.1030

> <Gold.Chemscore.Rot.Weighted>
4.2978

> <Gold.Chemscore.Internal.Correction.Weighted>
   9.000000E+99

> <Gold.Protein.RotatedTorsions>
[ 6907 6896 6895 6894 ] final   42.53 input  -60.11 | X-H torsion
[ 7974 7965 7964 7962 ] final  113.21 input  175.53 | X-H torsion
[ 8008 7997 7996 7995 ] final  138.79 input   59.86 | X-H torsion
[ 10167 10162 10161 10158 ] final   42.13 input  -65.29 | X-H torsion
[ 10718 10713 10712 10709 ] final  126.29 input   66.30 | X-H torsion
[ 10763 10752 10751 10750 ] final -146.23 input  -60.55 | X-H torsion
[ 11005 11000 10999 10996 ] final  -93.44 input  -57.11 | X-H torsion

> <Gold.Protein.ActiveResidues>
 VAL166  LYS551  ARG553  GLY616  TRP617  ASP618  TYR619  PRO620  LYS621  CYS622 
 ASP623  PHE694  ASN695  SER759  ASP760  ASP761  ALA762  ILE779  LEU786  VAL792 
 PHE793  MET794  SER795  GLU796  ALA797  LYS798  CYS799  TRP800  GLU811  SER814 

> <Gold.Protein.RotatedAtoms>
  152.2090  134.8519  160.0499 H   0  0  0  0  0  0  0  0  0  0  0  0  # atno 6907 bound_to 6896
  151.9344  133.3615  159.3951 H   0  0  0  0  0  0  0  0  0  0  0  0  # atno 6908 bound_to 6896
  150.6972  134.4428  159.5344 H   0  0  0  0  0  0  0  0  0  0  0  0  # atno 6909 bound_to 6896
  145.2198  139.2867  143.4224 H   0  0  0  0  0  0  0  0  0  0  0  0  # atno 7974 bound_to 7965
  156.2995  140.2384  156.4132 H   0  0  0  0  0  0  0  0  0  0  0  0  # atno 8008 bound_to 7997
  154.8422  140.0428  157.1569 H   0  0  0  0  0  0  0  0  0  0  0  0  # atno 8009 bound_to 7997
  154.9090  140.2987  155.5280 H   0  0  0  0  0  0  0  0  0  0  0  0  # atno 8010 bound_to 7997
  140.3575  144.2272  150.6140 H   0  0  0  0  0  0  0  0  0  0  0  0  # atno 10167 bound_to 10162
  157.5431  131.1096  150.8826 H   0  0  0  0  0  0  0  0  0  0  0  0  # atno 10718 bound_to 10713
  154.8346  135.3392  154.6628 H   0  0  0  0  0  0  0  0  0  0  0  0  # atno 10763 bound_to 10752
  153.7245  135.6956  153.5009 H   0  0  0  0  0  0  0  0  0  0  0  0  # atno 10764 bound_to 10752
  153.2357  135.4401  155.0597 H   0  0  0  0  0  0  0  0  0  0  0  0  # atno 10765 bound_to 10752
  141.1497  133.7888  157.0159 H   0  0  0  0  0  0  0  0  0  0  0  0  # atno 11005 bound_to 11000
  146.3378  140.2500  142.8598 LP  0  0  0  0  0  0  0  0  0  0  0  0  # atno 17320 bound_to 7965
  144.9776  140.8429  143.5417 LP  0  0  0  0  0  0  0  0  0  0  0  0  # atno 17321 bound_to 7965
  140.5160  143.2278  151.8463 LP  0  0  0  0  0  0  0  0  0  0  0  0  # atno 17342 bound_to 10162
  139.4818  144.4894  151.9205 LP  0  0  0  0  0  0  0  0  0  0  0  0  # atno 17343 bound_to 10162
  156.9373  130.5371  149.5279 LP  0  0  0  0  0  0  0  0  0  0  0  0  # atno 17370 bound_to 10713
  156.0513  130.5582  150.8995 LP  0  0  0  0  0  0  0  0  0  0  0  0  # atno 17371 bound_to 10713
  140.0847  134.9628  157.1681 LP  0  0  0  0  0  0  0  0  0  0  0  0  # atno 17394 bound_to 11000
  140.3528  134.2580  155.7196 LP  0  0  0  0  0  0  0  0  0  0  0  0  # atno 17395 bound_to 11000

$$$$
