AV-unprocessed.smi:1319|AV-procd|sdf|5459|dock2
  -GOLD-   22720 5 23D 1   1.00000     0.00000
 Structure written by MMmdl.
 28 29  0  0  0  0  0  0  0  0  1 V2000
  149.6404  138.7060  153.3115 N   0  0  0  0  0  0  0  0  0  0  0  0
  149.9369  138.9847  154.6238 C   0  0  0  0  0  0  0  0  0  0  0  0
  149.8083  137.9703  155.4885 N   0  0  0  0  0  0  0  0  0  0  0  0
  150.1144  138.3223  156.7438 C   0  0  0  0  0  0  0  0  0  0  0  0
  150.0077  137.3369  157.6950 N   0  0  0  0  0  0  0  0  0  0  0  0
  150.5130  139.5227  157.1794 N   0  0  0  0  0  0  0  0  0  0  0  0
  150.5881  140.4171  156.1875 C   0  0  0  0  0  0  0  0  0  0  0  0
  151.1161  142.0451  156.6533 S   0  0  0  0  0  0  0  0  0  0  0  0
  151.3929  141.7657  158.4239 C   0  0  0  0  0  0  0  0  0  0  0  0
  152.1484  142.9308  159.0774 C   0  0  1  0  0  0  0  0  0  0  0  0
  152.0428  144.2620  158.3251 C   0  0  0  0  0  0  0  0  0  0  0  0
  152.0472  145.3169  159.4239 C   0  0  0  0  0  0  0  0  0  0  0  0
  152.0811  144.5078  160.7204 C   0  0  0  0  0  0  0  0  0  0  0  0
  151.5860  143.2325  160.3446 O   0  0  0  0  0  0  0  0  0  0  0  0
  150.3210  140.2383  154.8891 N   0  0  0  0  0  0  0  0  0  0  0  0
  149.7164  139.4248  152.6067 H   0  0  0  0  0  0  0  0  0  0  0  0
  149.3808  137.7705  153.0345 H   0  0  0  0  0  0  0  0  0  0  0  0
  149.7125  136.4068  157.4358 H   0  0  0  0  0  0  0  0  0  0  0  0
  150.2540  137.5253  158.6558 H   0  0  0  0  0  0  0  0  0  0  0  0
  150.4329  141.6088  158.9169 H   0  0  0  0  0  0  0  0  0  0  0  0
  151.9628  140.8433  158.5398 H   0  0  0  0  0  0  0  0  0  0  0  0
  153.1977  142.6658  159.2229 H   0  0  0  0  0  0  0  0  0  0  0  0
  152.8612  144.3924  157.6164 H   0  0  0  0  0  0  0  0  0  0  0  0
  151.1078  144.3206  157.7664 H   0  0  0  0  0  0  0  0  0  0  0  0
  152.8994  145.9932  159.3506 H   0  0  0  0  0  0  0  0  0  0  0  0
  151.1375  145.9161  159.3691 H   0  0  0  0  0  0  0  0  0  0  0  0
  153.1043  144.4048  161.0853 H   0  0  0  0  0  0  0  0  0  0  0  0
  151.4803  144.9555  161.5122 H   0  0  0  0  0  0  0  0  0  0  0  0
  1  2  1  0  0  0  0
  1 16  1  0  0  0  0
  1 17  1  0  0  0  0
  2 15  1  0  0  0  0
  2  3  2  0  0  0  0
  3  4  1  0  0  0  0
  4  5  1  0  0  0  0
  4  6  2  0  0  0  0
  5 18  1  0  0  0  0
  5 19  1  0  0  0  0
  6  7  1  0  0  0  0
  7  8  1  0  0  0  0
  7 15  2  0  0  0  0
  8  9  1  0  0  0  0
  9 10  1  0  0  0  0
  9 20  1  0  0  0  0
  9 21  1  0  0  0  0
 10 14  1  0  0  0  0
 10 11  1  0  0  0  0
 10 22  1  0  0  0  0
 11 12  1  0  0  0  0
 11 23  1  0  0  0  0
 11 24  1  0  0  0  0
 12 13  1  0  0  0  0
 12 25  1  0  0  0  0
 12 26  1  0  0  0  0
 13 14  1  0  0  0  0
 13 27  1  0  0  0  0
 13 28  1  0  0  0  0
M  END
> <s_m_source_file>
AV-unprocessed.smi

> <i_m_source_file_index>
1319

> <i_lp_mmshare_version>
43012

> <i_f3d_flags>
0

> <s_epik_input>
W05IMl1jMW5jKFtOSDJdKW5jKG4xKVNbQ0gyXVtDQEBIXTJbQ0gyXVtDSDJdW0NIMl1PMg==

> <s_epik_cmdline>
J2VwaWtfcHl0aG9uJywgJy1waCcsICc3LjAnLCAnLXRuJywgJzgnLCAnLW1hJywgJzIwMCcsICctbWV0YWxfYmluZGluZycsICctaW1hZScsICc8aW5maWxlLm1hZT4nLCAnLW9tYWUnLCAnPG91dGZpbGUubWFlPic=

> <r_lp_tautomer_probability>
1

> <r_epik_Ionization_Penalty>
0.000877611

> <r_epik_Ionization_Penalty_Charging>
0

> <r_epik_Ionization_Penalty_Neutral>
0.000877611

> <r_epik_State_Penalty>
-0

> <r_epik_Charging_Adjusted_Penalty>
0

> <i_epik_Tot_Q>
0

> <i_epik_Tot_abs_Q>
0

> <r_epik_Metal_State_Penalty>
-0

> <b_epik_Metal_Only>
0

> <s_lp_Force_Field>
OPLS_2005

> <r_lp_Energy>
7.48637

> <b_lp_Chiralities_Consistent>
1

> <s_lp_Variant>
AV-unprocessed.smi:1319-2

> <Gold.Version>
5.8.1

> <Gold.Id.Protein>
6NUR|6NUR_protein|mol2

> <Gold.PLP.Fitness>
38.5607

> <Gold.PLP.PLP>
-30.7409

> <Gold.PLP.part.hbond>
-2.8622

> <Gold.PLP.part.metal>
0.0000

> <Gold.PLP.part.buried>
-4.4591

> <Gold.PLP.part.nonpolar>
-23.1799

> <Gold.PLP.part.repulsive>
0.3649

> <Gold.PLP.ligand.clash>
0.0000

> <Gold.PLP.ligand.torsion>
0.5943

> <Gold.PLP.Chemscore.Hbond>
3.0000

> <Gold.PLP.Chemscore.CHOScore>
0.0000

> <Gold.PLP.Chemscore.Metal>
0.0000

> <Gold.Chemscore.Hbonds>
donor molecule, donor type, donor heavy atom, donor atom, acceptor molecule, acceptor atom, score
      L1  H     1    16       P1  7957  1.00
      L1  H     1    17       P1  7948  1.00
      P1  H  7989  7998       L1    15  1.00

> <Gold.PLP.Chemscore.Internal.Correction>
0.0084

> <Gold.Rescore>
     Score         DG    S(hbond)    S(metal)    S(lipo)     H(rot)  DE(clash)    DE(int)     intcor
     17.11     -17.38       2.80        0.00      64.79       1.96       0.15       0.12       ----

> <Gold.Chemscore.Fitness>
17.1078

> <Gold.Chemscore.DG>
-17.3800

> <Gold.Chemscore.ZeroCoef>
-5.4800

> <Gold.Chemscore.Hbond>
2.7970

> <Gold.Chemscore.Metal>
0.0000

> <Gold.Chemscore.Lipo>
64.7898

> <Gold.Chemscore.Internal_Hbond>
0.0000

> <Gold.Chemscore.DEClash>
0.1483

> <Gold.Chemscore.DEInternal>
0.1239

> <Gold.Chemscore.Rot>
1.9619

> <Gold.Chemscore.Internal.Correction>
   9.000000E+99

> <Gold.Chemscore.Hbonds>
donor molecule, donor type, donor heavy atom, donor atom, acceptor molecule, acceptor atom, score
      L1  H     1    16       P1  7957  0.94
      L1  H     1    17       P1  7948  0.93
      P1  H  7989  7998       L1    15  0.68

> <Gold.Chemscore.Hbond.Weighted>
-9.3419

> <Gold.Chemscore.Metal.Weighted>
-0.0000

> <Gold.Chemscore.Lipo.Weighted>
-7.5804

> <Gold.Chemscore.Internal_Hbond.Weighted>
0.0000

> <Gold.Chemscore.DEClash.Weighted>
0.1483

> <Gold.Chemscore.DEInternal.Weighted>
0.1239

> <Gold.Chemscore.Rot.Weighted>
5.0224

> <Gold.Chemscore.Internal.Correction.Weighted>
   9.000000E+99

> <Gold.Protein.RotatedTorsions>
[ 6907 6896 6895 6894 ] final -150.93 input  -60.11 | X-H torsion
[ 7974 7965 7964 7962 ] final  -20.86 input  175.53 | X-H torsion
[ 8008 7997 7996 7995 ] final  -49.29 input   59.86 | X-H torsion
[ 10167 10162 10161 10158 ] final -159.12 input  -65.29 | X-H torsion
[ 10718 10713 10712 10709 ] final   50.09 input   66.30 | X-H torsion
[ 10763 10752 10751 10750 ] final  -47.45 input  -60.55 | X-H torsion
[ 11005 11000 10999 10996 ] final  -23.37 input  -57.11 | X-H torsion

> <Gold.Protein.ActiveResidues>
 VAL166  LYS551  ARG553  GLY616  TRP617  ASP618  TYR619  PRO620  LYS621  CYS622 
 ASP623  PHE694  ASN695  SER759  ASP760  ASP761  ALA762  ILE779  LEU786  VAL792 
 PHE793  MET794  SER795  GLU796  ALA797  LYS798  CYS799  TRP800  GLU811  SER814 

> <Gold.Protein.RotatedAtoms>
  151.2057  133.4585  159.2596 H   0  0  0  0  0  0  0  0  0  0  0  0  # atno 6907 bound_to 6896
  151.1026  134.9981  159.8466 H   0  0  0  0  0  0  0  0  0  0  0  0  # atno 6908 bound_to 6896
  152.5444  134.1982  159.8754 H   0  0  0  0  0  0  0  0  0  0  0  0  # atno 6909 bound_to 6896
  146.1765  140.4260  142.8511 H   0  0  0  0  0  0  0  0  0  0  0  0  # atno 7974 bound_to 7965
  154.4042  140.1300  156.4478 H   0  0  0  0  0  0  0  0  0  0  0  0  # atno 8008 bound_to 7997
  155.7396  140.3490  155.5078 H   0  0  0  0  0  0  0  0  0  0  0  0  # atno 8009 bound_to 7997
  155.9051  140.1026  157.1311 H   0  0  0  0  0  0  0  0  0  0  0  0  # atno 8010 bound_to 7997
  139.6639  143.9863  152.2243 H   0  0  0  0  0  0  0  0  0  0  0  0  # atno 10167 bound_to 10162
  157.4850  130.8339  149.8137 H   0  0  0  0  0  0  0  0  0  0  0  0  # atno 10718 bound_to 10713
  154.0615  135.6617  153.4812 H   0  0  0  0  0  0  0  0  0  0  0  0  # atno 10763 bound_to 10752
  153.0425  135.5136  154.7654 H   0  0  0  0  0  0  0  0  0  0  0  0  # atno 10764 bound_to 10752
  154.6692  135.3027  154.9732 H   0  0  0  0  0  0  0  0  0  0  0  0  # atno 10765 bound_to 10752
  140.8745  133.7697  156.0227 H   0  0  0  0  0  0  0  0  0  0  0  0  # atno 11005 bound_to 11000
  144.8245  140.6605  143.6331 LP  0  0  0  0  0  0  0  0  0  0  0  0  # atno 17320 bound_to 7965
  145.4197  139.1566  143.4081 LP  0  0  0  0  0  0  0  0  0  0  0  0  # atno 17321 bound_to 7965
  139.9610  144.6558  150.8080 LP  0  0  0  0  0  0  0  0  0  0  0  0  # atno 17342 bound_to 10162
  140.7591  143.3122  151.2817 LP  0  0  0  0  0  0  0  0  0  0  0  0  # atno 17343 bound_to 10162
  156.0142  130.3820  150.2165 LP  0  0  0  0  0  0  0  0  0  0  0  0  # atno 17370 bound_to 10713
  157.0352  131.0019  151.3300 LP  0  0  0  0  0  0  0  0  0  0  0  0  # atno 17371 bound_to 10713
  140.8534  134.2927  157.5265 LP  0  0  0  0  0  0  0  0  0  0  0  0  # atno 17394 bound_to 11000
  139.8714  134.9480  156.3983 LP  0  0  0  0  0  0  0  0  0  0  0  0  # atno 17395 bound_to 11000

$$$$
