AV-unprocessed.smi:47|AV-procd|sdf|425|dock1
  -GOLD-   2262016303D 1   1.00000     0.00000
 Structure written by MMmdl.
 32 34  0  0  0  0  0  0  0  0  2 V2000
  146.1531  139.8646  153.6662 O   0  0  0  0  0  0  0  0  0  0  0  0
  147.1234  140.8863  153.7559 C   0  0  1  0  0  0  0  0  0  0  0  0
  146.8232  141.8739  154.8889 C   0  0  0  0  0  0  0  0  0  0  0  0
  148.1328  142.3424  155.3858 N   0  3  0  0  0  0  0  0  0  0  0  0
  149.1958  141.5714  154.7085 C   0  0  1  0  0  0  0  0  0  0  0  0
  150.3303  141.2342  155.6235 C   0  0  0  0  0  0  0  0  0  0  0  0
  151.2218  140.3068  155.2917 N   0  0  0  0  0  0  0  0  0  0  0  0
  152.0193  140.2878  156.3795 N   0  0  0  0  0  0  0  0  0  0  0  0
  151.5800  141.1616  157.2946 C   0  0  0  0  0  0  0  0  0  0  0  0
  152.2086  141.3929  158.5971 C   0  0  0  0  0  0  0  0  0  0  0  0
  153.0706  140.4226  159.1594 C   0  0  0  0  0  0  0  0  0  0  0  0
  153.6750  140.6440  160.4122 C   0  0  0  0  0  0  0  0  0  0  0  0
  153.4232  141.8361  161.1162 C   0  0  0  0  0  0  0  0  0  0  0  0
  152.5666  142.8078  160.5660 C   0  0  0  0  0  0  0  0  0  0  0  0
  151.9621  142.5878  159.3129 C   0  0  0  0  0  0  0  0  0  0  0  0
  150.4881  141.7934  156.8609 N   0  0  0  0  0  0  0  0  0  0  0  0
  148.5001  140.3409  154.1212 C   0  0  0  0  0  0  0  0  0  0  0  0
  147.1804  141.4193  152.8057 H   0  0  0  0  0  0  0  0  0  0  0  0
  149.5664  142.1910  153.8900 H   0  0  0  0  0  0  0  0  0  0  0  0
  152.8215  139.6790  156.4594 H   0  0  0  0  0  0  0  0  0  0  0  0
  145.3659  140.2256  153.2871 H   0  0  0  0  0  0  0  0  0  0  0  0
  146.1981  142.7044  154.5596 H   0  0  0  0  0  0  0  0  0  0  0  0
  146.3132  141.3760  155.7147 H   0  0  0  0  0  0  0  0  0  0  0  0
  148.2567  143.3291  155.2099 H   0  0  0  0  0  0  0  0  0  0  0  0
  153.2792  139.5004  158.6372 H   0  0  0  0  0  0  0  0  0  0  0  0
  154.3329  139.8980  160.8332 H   0  0  0  0  0  0  0  0  0  0  0  0
  153.8866  142.0051  162.0773 H   0  0  0  0  0  0  0  0  0  0  0  0
  152.3722  143.7230  161.1058 H   0  0  0  0  0  0  0  0  0  0  0  0
  151.3077  143.3468  158.9101 H   0  0  0  0  0  0  0  0  0  0  0  0
  148.3977  139.5700  154.8877 H   0  0  0  0  0  0  0  0  0  0  0  0
  149.0369  139.9068  153.2771 H   0  0  0  0  0  0  0  0  0  0  0  0
  148.1834  142.1652  156.3792 H   0  0  0  0  0  0  0  0  0  0  0  0
  1  2  1  0  0  0  0
  1 21  1  0  0  0  0
  2 18  1  0  0  0  0
  2 17  1  0  0  0  0
  2  3  1  0  0  0  0
  3  4  1  0  0  0  0
  3 22  1  0  0  0  0
  3 23  1  0  0  0  0
  4  5  1  0  0  0  0
  4 24  1  0  0  0  0
  4 32  1  0  0  0  0
  5 19  1  0  0  0  0
  5  6  1  0  0  0  0
  5 17  1  0  0  0  0
  6 16  1  0  0  0  0
  6  7  2  0  0  0  0
  7  8  1  0  0  0  0
  8 20  1  0  0  0  0
  8  9  1  0  0  0  0
  9 10  1  0  0  0  0
  9 16  2  0  0  0  0
 10 15  1  0  0  0  0
 10 11  2  0  0  0  0
 11 12  1  0  0  0  0
 11 25  1  0  0  0  0
 12 13  2  0  0  0  0
 12 26  1  0  0  0  0
 13 14  1  0  0  0  0
 13 27  1  0  0  0  0
 14 15  2  0  0  0  0
 14 28  1  0  0  0  0
 15 29  1  0  0  0  0
 17 30  1  0  0  0  0
 17 31  1  0  0  0  0
M  CHG  1   4   1
M  END
> <s_m_source_file>
AV-unprocessed.smi

> <i_m_source_file_index>
47

> <i_lp_mmshare_version>
43012

> <i_f3d_flags>
0

> <s_epik_input>
W09IXVtDQEhdMVtDSDJdW05IXVtDQEBIXShbQ0gyXTEpYzJuW25IXWMobjIpLWMzW2NIXVtjSF1bY0hdW2NIXVtjSF0z

> <s_epik_cmdline>
J2VwaWtfcHl0aG9uJywgJy1waCcsICc3LjAnLCAnLXRuJywgJzgnLCAnLW1hJywgJzIwMCcsICctbWV0YWxfYmluZGluZycsICctaW1hZScsICc8aW5maWxlLm1hZT4nLCAnLW9tYWUnLCAnPG91dGZpbGUubWFlPic=

> <r_lp_tautomer_probability>
0.948284

> <r_epik_Ionization_Penalty>
0.163822

> <r_epik_Ionization_Penalty_Charging>
0.0371552

> <r_epik_Ionization_Penalty_Neutral>
0.126667

> <r_epik_State_Penalty>
0.318338

> <r_epik_Charging_Adjusted_Penalty>
0.355493

> <i_epik_Tot_Q>
1

> <i_epik_Tot_abs_Q>
1

> <r_epik_Metal_State_Penalty>
0.81572

> <b_epik_Metal_Only>
0

> <s_lp_Force_Field>
OPLS_2005

> <r_lp_Energy>
24.6024

> <b_lp_Chiralities_Consistent>
1

> <s_lp_Variant>
AV-unprocessed.smi:47-3

> <Gold.Version>
5.8.1

> <Gold.Id.Protein>
6NUR|6NUR_protein|mol2

> <Gold.PLP.Fitness>
47.6332

> <Gold.PLP.PLP>
-36.6090

> <Gold.PLP.part.hbond>
-2.8901

> <Gold.PLP.part.metal>
0.0000

> <Gold.PLP.part.buried>
-3.9835

> <Gold.PLP.part.nonpolar>
-29.6217

> <Gold.PLP.part.repulsive>
0.3908

> <Gold.PLP.ligand.clash>
0.0000

> <Gold.PLP.ligand.torsion>
0.4942

> <Gold.PLP.Chemscore.Hbond>
4.0000

> <Gold.PLP.Chemscore.CHOScore>
0.0000

> <Gold.PLP.Chemscore.Metal>
0.0000

> <Gold.Chemscore.Hbonds>
donor molecule, donor type, donor heavy atom, donor atom, acceptor molecule, acceptor atom, score
      L1  H     1    21       P1 10175  1.00
      L1  H     4    24       P1  8028  2.00
      P1  H  7989  7998       L1     7  1.00

> <Gold.PLP.Chemscore.Internal.Correction>
0.0125

> <Gold.Rescore>
     Score         DG    S(hbond)    S(metal)    S(lipo)     H(rot)  DE(clash)    DE(int)     intcor
     18.85     -19.38       2.48        0.00      80.83       1.50       0.16       0.37       ----

> <Gold.Chemscore.Fitness>
18.8516

> <Gold.Chemscore.DG>
-19.3789

> <Gold.Chemscore.ZeroCoef>
-5.4800

> <Gold.Chemscore.Hbond>
2.4769

> <Gold.Chemscore.Metal>
0.0000

> <Gold.Chemscore.Lipo>
80.8305

> <Gold.Chemscore.Internal_Hbond>
0.0000

> <Gold.Chemscore.DEClash>
0.1615

> <Gold.Chemscore.DEInternal>
0.3658

> <Gold.Chemscore.Rot>
1.4966

> <Gold.Chemscore.Internal.Correction>
   9.000000E+99

> <Gold.Chemscore.Hbonds>
donor molecule, donor type, donor heavy atom, donor atom, acceptor molecule, acceptor atom, score
      L1  H     1    21       P1 10175  1.00
      L1  H     4    24       P1  8028  0.87
      P1  H  7989  7998       L1     7  0.24

> <Gold.Chemscore.Hbond.Weighted>
-8.2730

> <Gold.Chemscore.Metal.Weighted>
-0.0000

> <Gold.Chemscore.Lipo.Weighted>
-9.4572

> <Gold.Chemscore.Internal_Hbond.Weighted>
0.0000

> <Gold.Chemscore.DEClash.Weighted>
0.1615

> <Gold.Chemscore.DEInternal.Weighted>
0.3658

> <Gold.Chemscore.Rot.Weighted>
3.8312

> <Gold.Chemscore.Internal.Correction.Weighted>
   9.000000E+99

> <Gold.Protein.RotatedTorsions>
[ 6907 6896 6895 6894 ] final  166.74 input  -60.11 | X-H torsion
[ 7974 7965 7964 7962 ] final   78.33 input  175.53 | X-H torsion
[ 8008 7997 7996 7995 ] final -107.44 input   59.86 | X-H torsion
[ 10167 10162 10161 10158 ] final  -16.28 input  -65.29 | X-H torsion
[ 10718 10713 10712 10709 ] final -144.03 input   66.30 | X-H torsion
[ 10763 10752 10751 10750 ] final   -7.64 input  -60.55 | X-H torsion
[ 11005 11000 10999 10996 ] final  169.82 input  -57.11 | X-H torsion

> <Gold.Protein.ActiveResidues>
 VAL166  LYS551  ARG553  GLY616  TRP617  ASP618  TYR619  PRO620  LYS621  CYS622 
 ASP623  PHE694  ASN695  SER759  ASP760  ASP761  ALA762  ILE779  LEU786  VAL792 
 PHE793  MET794  SER795  GLU796  ALA797  LYS798  CYS799  TRP800  GLU811  SER814 

> <Gold.Protein.RotatedAtoms>
  151.8742  133.3482  159.3744 H   0  0  0  0  0  0  0  0  0  0  0  0  # atno 6907 bound_to 6896
  150.7144  134.5082  159.5604 H   0  0  0  0  0  0  0  0  0  0  0  0  # atno 6908 bound_to 6896
  152.2621  134.8023  160.0480 H   0  0  0  0  0  0  0  0  0  0  0  0  # atno 6909 bound_to 6896
  145.6786  139.2517  143.1827 H   0  0  0  0  0  0  0  0  0  0  0  0  # atno 7974 bound_to 7965
  154.9294  140.0405  157.2040 H   0  0  0  0  0  0  0  0  0  0  0  0  # atno 8008 bound_to 7997
  154.8176  140.2878  155.5788 H   0  0  0  0  0  0  0  0  0  0  0  0  # atno 8009 bound_to 7997
  156.2977  140.2525  156.3077 H   0  0  0  0  0  0  0  0  0  0  0  0  # atno 8010 bound_to 7997
  140.7231  143.5132  150.9724 H   0  0  0  0  0  0  0  0  0  0  0  0  # atno 10167 bound_to 10162
  156.3652  130.7759  151.1932 H   0  0  0  0  0  0  0  0  0  0  0  0  # atno 10718 bound_to 10713
  153.4293  135.7011  153.6242 H   0  0  0  0  0  0  0  0  0  0  0  0  # atno 10763 bound_to 10752
  153.4663  135.3725  155.2367 H   0  0  0  0  0  0  0  0  0  0  0  0  # atno 10764 bound_to 10752
  154.8725  135.4032  154.3674 H   0  0  0  0  0  0  0  0  0  0  0  0  # atno 10765 bound_to 10752
  140.3018  134.7589  157.3922 H   0  0  0  0  0  0  0  0  0  0  0  0  # atno 11005 bound_to 11000
  146.0984  140.7573  142.9561 LP  0  0  0  0  0  0  0  0  0  0  0  0  # atno 17320 bound_to 7965
  144.7033  140.3748  143.7138 LP  0  0  0  0  0  0  0  0  0  0  0  0  # atno 17321 bound_to 7965
  139.8846  143.7028  152.3153 LP  0  0  0  0  0  0  0  0  0  0  0  0  # atno 17342 bound_to 10162
  139.7323  144.7579  151.0782 LP  0  0  0  0  0  0  0  0  0  0  0  0  # atno 17343 bound_to 10162
  157.7478  131.0388  150.4521 LP  0  0  0  0  0  0  0  0  0  0  0  0  # atno 17370 bound_to 10713
  156.4739  130.4059  149.6501 LP  0  0  0  0  0  0  0  0  0  0  0  0  # atno 17371 bound_to 10713
  140.1103  134.5355  155.8272 LP  0  0  0  0  0  0  0  0  0  0  0  0  # atno 17394 bound_to 11000
  141.2126  133.6722  156.6676 LP  0  0  0  0  0  0  0  0  0  0  0  0  # atno 17395 bound_to 11000

$$$$
