AV-unprocessed.smi:2224|AV-procd|sdf|8992|dock2
  -GOLD-   2272012203D 1   1.00000     0.00000
 Structure written by MMmdl.
 44 46  0  0  0  0  0  0  0  0  1 V2000
  144.9963  132.7394  150.0197 C   0  0  0  0  0  0  0  0  0  0  0  0
  144.7557  133.7646  151.1079 C   0  0  0  0  0  0  0  0  0  0  0  0
  143.4619  133.9894  151.6155 C   0  0  0  0  0  0  0  0  0  0  0  0
  143.3037  134.9564  152.6275 C   0  0  0  0  0  0  0  0  0  0  0  0
  141.9400  135.2507  153.2166 C   0  0  0  0  0  0  0  0  0  0  0  0
  144.3321  135.6741  153.1280 N   0  0  0  0  0  0  0  0  0  0  0  0
  145.5830  135.4659  152.6473 C   0  0  0  0  0  0  0  0  0  0  0  0
  146.7297  136.1683  153.1045 N   0  0  0  0  0  0  0  0  0  0  0  0
  146.8380  136.9734  154.1762 C   0  0  0  0  0  0  0  0  0  0  0  0
  145.9337  137.2269  154.9728 O   0  0  0  0  0  0  0  0  0  0  0  0
  148.0720  137.4864  154.2764 N   0  0  0  0  0  0  0  0  0  0  0  0
  148.5035  138.4081  155.3330 C   0  0  1  0  0  0  0  0  0  0  0  0
  150.0211  138.4067  155.5362 C   0  0  1  0  0  0  0  0  0  0  0  0
  151.1438  137.5027  155.1753 C   0  0  0  0  0  0  0  0  0  0  0  0
  152.1509  138.6056  154.7490 C   0  0  0  0  0  0  0  0  0  0  0  0
  151.3921  139.8411  154.6955 O   0  0  0  0  0  0  0  0  0  0  0  0
  150.0736  139.4181  154.4101 C   0  0  2  0  0  0  0  0  0  0  0  0
  148.6913  139.9142  154.8905 C   0  0  0  0  0  0  0  0  0  0  0  0
  147.7660  140.4435  153.7891 C   0  0  0  0  0  0  0  0  0  0  0  0
  148.6748  140.9817  155.9996 C   0  0  0  0  0  0  0  0  0  0  0  0
  145.8287  134.5133  151.6327 C   0  0  0  0  0  0  0  0  0  0  0  0
  144.0591  132.3063  149.6687 H   0  0  0  0  0  0  0  0  0  0  0  0
  145.6261  131.9323  150.3943 H   0  0  0  0  0  0  0  0  0  0  0  0
  145.4976  133.2012  149.1688 H   0  0  0  0  0  0  0  0  0  0  0  0
  142.6136  133.4360  151.2395 H   0  0  0  0  0  0  0  0  0  0  0  0
  141.2060  134.5079  152.9026 H   0  0  0  0  0  0  0  0  0  0  0  0
  141.5934  136.2322  152.8924 H   0  0  0  0  0  0  0  0  0  0  0  0
  141.9841  135.2436  154.3062 H   0  0  0  0  0  0  0  0  0  0  0  0
  147.5609  136.0526  152.5439 H   0  0  0  0  0  0  0  0  0  0  0  0
  148.7589  137.2284  153.5834 H   0  0  0  0  0  0  0  0  0  0  0  0
  147.9524  138.2975  156.2686 H   0  0  0  0  0  0  0  0  0  0  0  0
  150.2349  138.8500  156.5118 H   0  0  0  0  0  0  0  0  0  0  0  0
  151.5006  136.9103  156.0182 H   0  0  0  0  0  0  0  0  0  0  0  0
  150.8907  136.8373  154.3489 H   0  0  0  0  0  0  0  0  0  0  0  0
  152.9676  138.7105  155.4637 H   0  0  0  0  0  0  0  0  0  0  0  0
  152.5825  138.3813  153.7726 H   0  0  0  0  0  0  0  0  0  0  0  0
  150.0252  138.9755  153.4098 H   0  0  0  0  0  0  0  0  0  0  0  0
  148.0413  141.4539  153.4855 H   0  0  0  0  0  0  0  0  0  0  0  0
  146.7274  140.4701  154.1202 H   0  0  0  0  0  0  0  0  0  0  0  0
  147.8029  139.8261  152.8915 H   0  0  0  0  0  0  0  0  0  0  0  0
  149.1362  141.9093  155.6599 H   0  0  0  0  0  0  0  0  0  0  0  0
  149.2029  140.6800  156.9024 H   0  0  0  0  0  0  0  0  0  0  0  0
  147.6552  141.2193  156.3050 H   0  0  0  0  0  0  0  0  0  0  0  0
  146.8299  134.3567  151.2577 H   0  0  0  0  0  0  0  0  0  0  0  0
  1  2  1  0  0  0  0
  1 22  1  0  0  0  0
  1 23  1  0  0  0  0
  1 24  1  0  0  0  0
  2 21  1  0  0  0  0
  2  3  2  0  0  0  0
  3  4  1  0  0  0  0
  3 25  1  0  0  0  0
  4  5  1  0  0  0  0
  4  6  2  0  0  0  0
  5 26  1  0  0  0  0
  5 27  1  0  0  0  0
  5 28  1  0  0  0  0
  6  7  1  0  0  0  0
  7  8  1  0  0  0  0
  7 21  2  0  0  0  0
  8  9  1  0  0  0  0
  8 29  1  0  0  0  0
  9 10  2  0  0  0  0
  9 11  1  0  0  0  0
 11 12  1  0  0  0  0
 11 30  1  0  0  0  0
 12 18  1  0  0  0  0
 12 13  1  0  0  0  0
 12 31  1  0  0  0  0
 13 17  1  0  0  0  0
 13 14  1  0  0  0  0
 13 32  1  0  0  0  0
 14 15  1  0  0  0  0
 14 33  1  0  0  0  0
 14 34  1  0  0  0  0
 15 16  1  0  0  0  0
 15 35  1  0  0  0  0
 15 36  1  0  0  0  0
 16 17  1  0  0  0  0
 17 18  1  0  0  0  0
 17 37  1  0  0  0  0
 18 19  1  0  0  0  0
 18 20  1  0  0  0  0
 19 38  1  0  0  0  0
 19 39  1  0  0  0  0
 19 40  1  0  0  0  0
 20 41  1  0  0  0  0
 20 42  1  0  0  0  0
 20 43  1  0  0  0  0
 21 44  1  0  0  0  0
M  END
> <s_m_source_file>
AV-unprocessed.smi

> <i_m_source_file_index>
2224

> <i_lp_mmshare_version>
43012

> <i_f3d_flags>
0

> <s_epik_input>
W0NIM11jMVtjSF1jKFtDSDNdKW5jKFtjSF0xKVtOSF1DKD1PKVtOSF1bQ0BIXTJDKFtDSDNdKShbQ0gzXSlbQ0BIXShbQ0BASF0yMylPW0NIMl1bQ0gyXTM=

> <s_epik_cmdline>
J2VwaWtfcHl0aG9uJywgJy1waCcsICc3LjAnLCAnLXRuJywgJzgnLCAnLW1hJywgJzIwMCcsICctbWV0YWxfYmluZGluZycsICctaW1hZScsICc8aW5maWxlLm1hZT4nLCAnLW9tYWUnLCAnPG91dGZpbGUubWFlPic=

> <r_lp_tautomer_probability>
1

> <r_epik_Ionization_Penalty>
0.000276544

> <r_epik_Ionization_Penalty_Charging>
0

> <r_epik_Ionization_Penalty_Neutral>
0.000276544

> <r_epik_State_Penalty>
-0

> <r_epik_Charging_Adjusted_Penalty>
0

> <i_epik_Tot_Q>
0

> <i_epik_Tot_abs_Q>
0

> <r_epik_Metal_State_Penalty>
-0

> <b_epik_Metal_Only>
0

> <s_lp_Force_Field>
OPLS_2005

> <r_lp_Energy>
64.3875

> <b_lp_Chiralities_Consistent>
1

> <s_lp_Variant>
AV-unprocessed.smi:2224-2

> <Gold.Version>
5.8.1

> <Gold.Id.Protein>
6NUR|6NUR_protein|mol2

> <Gold.PLP.Fitness>
41.0995

> <Gold.PLP.PLP>
-32.7812

> <Gold.PLP.part.hbond>
-2.9887

> <Gold.PLP.part.metal>
0.0000

> <Gold.PLP.part.buried>
-6.1425

> <Gold.PLP.part.nonpolar>
-24.4486

> <Gold.PLP.part.repulsive>
0.1698

> <Gold.PLP.ligand.clash>
0.0000

> <Gold.PLP.ligand.torsion>
0.2663

> <Gold.PLP.Chemscore.Hbond>
2.8640

> <Gold.PLP.Chemscore.CHOScore>
0.0000

> <Gold.PLP.Chemscore.Metal>
0.0000

> <Gold.Chemscore.Hbonds>
donor molecule, donor type, donor heavy atom, donor atom, acceptor molecule, acceptor atom, score
      L1  H     8    29       P1  7948  1.00
      L1  H    11    30       P1  7948  0.86
      P1  H  7989  7998       L1    16  1.00

> <Gold.PLP.Chemscore.Internal.Correction>
0.2588

> <Gold.Rescore>
     Score         DG    S(hbond)    S(metal)    S(lipo)     H(rot)  DE(clash)    DE(int)     intcor
     20.71     -22.26       2.89        0.00      82.89       1.00       0.02       1.53       ----

> <Gold.Chemscore.Fitness>
20.7091

> <Gold.Chemscore.DG>
-22.2605

> <Gold.Chemscore.ZeroCoef>
-5.4800

> <Gold.Chemscore.Hbond>
2.8871

> <Gold.Chemscore.Metal>
0.0000

> <Gold.Chemscore.Lipo>
82.8851

> <Gold.Chemscore.Internal_Hbond>
0.0000

> <Gold.Chemscore.DEClash>
0.0216

> <Gold.Chemscore.DEInternal>
1.5298

> <Gold.Chemscore.Rot>
1.0000

> <Gold.Chemscore.Internal.Correction>
   9.000000E+99

> <Gold.Chemscore.Hbonds>
donor molecule, donor type, donor heavy atom, donor atom, acceptor molecule, acceptor atom, score
      L1  H     8    29       P1  7948  0.95
      L1  H    11    30       P1  7948  0.83
      P1  H  7989  7998       L1    16  0.29

> <Gold.Chemscore.Hbond.Weighted>
-9.6430

> <Gold.Chemscore.Metal.Weighted>
-0.0000

> <Gold.Chemscore.Lipo.Weighted>
-9.6976

> <Gold.Chemscore.Internal_Hbond.Weighted>
0.0000

> <Gold.Chemscore.DEClash.Weighted>
0.0216

> <Gold.Chemscore.DEInternal.Weighted>
1.5298

> <Gold.Chemscore.Rot.Weighted>
2.5600

> <Gold.Chemscore.Internal.Correction.Weighted>
   9.000000E+99

> <Gold.Protein.RotatedTorsions>
[ 6907 6896 6895 6894 ] final  167.52 input  -60.11 | X-H torsion
[ 7974 7965 7964 7962 ] final  -94.72 input  175.53 | X-H torsion
[ 8008 7997 7996 7995 ] final -172.79 input   59.86 | X-H torsion
[ 10167 10162 10161 10158 ] final  -40.61 input  -65.29 | X-H torsion
[ 10718 10713 10712 10709 ] final -109.54 input   66.30 | X-H torsion
[ 10763 10752 10751 10750 ] final  151.51 input  -60.55 | X-H torsion
[ 11005 11000 10999 10996 ] final  157.98 input  -57.11 | X-H torsion

> <Gold.Protein.ActiveResidues>
 VAL166  LYS551  ARG553  GLY616  TRP617  ASP618  TYR619  PRO620  LYS621  CYS622 
 ASP623  PHE694  ASN695  SER759  ASP760  ASP761  ALA762  ILE779  LEU786  VAL792 
 PHE793  MET794  SER795  GLU796  ALA797  LYS798  CYS799  TRP800  GLU811  SER814 

> <Gold.Protein.RotatedAtoms>
  151.8620  133.3459  159.3706 H   0  0  0  0  0  0  0  0  0  0  0  0  # atno 6907 bound_to 6896
  150.7176  134.5197  159.5657 H   0  0  0  0  0  0  0  0  0  0  0  0  # atno 6908 bound_to 6896
  152.2712  134.7931  160.0465 H   0  0  0  0  0  0  0  0  0  0  0  0  # atno 6909 bound_to 6896
  145.3695  140.9503  143.2455 H   0  0  0  0  0  0  0  0  0  0  0  0  # atno 7974 bound_to 7965
  155.9491  140.1123  157.0991 H   0  0  0  0  0  0  0  0  0  0  0  0  # atno 8008 bound_to 7997
  154.4106  140.1204  156.5095 H   0  0  0  0  0  0  0  0  0  0  0  0  # atno 8009 bound_to 7997
  155.6865  140.3473  155.4878 H   0  0  0  0  0  0  0  0  0  0  0  0  # atno 8010 bound_to 7997
  140.7029  143.3143  151.2948 H   0  0  0  0  0  0  0  0  0  0  0  0  # atno 10167 bound_to 10162
  156.0542  130.5769  150.8113 H   0  0  0  0  0  0  0  0  0  0  0  0  # atno 10718 bound_to 10713
  154.1049  135.2843  155.3243 H   0  0  0  0  0  0  0  0  0  0  0  0  # atno 10763 bound_to 10752
  154.6530  135.5362  153.7927 H   0  0  0  0  0  0  0  0  0  0  0  0  # atno 10764 bound_to 10752
  153.0366  135.6515  154.1211 H   0  0  0  0  0  0  0  0  0  0  0  0  # atno 10765 bound_to 10752
  140.1821  134.8468  157.2815 H   0  0  0  0  0  0  0  0  0  0  0  0  # atno 11005 bound_to 11000
  144.8587  139.5211  143.6822 LP  0  0  0  0  0  0  0  0  0  0  0  0  # atno 17320 bound_to 7965
  146.2891  139.7089  142.9173 LP  0  0  0  0  0  0  0  0  0  0  0  0  # atno 17321 bound_to 7965
  139.6577  144.0247  152.2671 LP  0  0  0  0  0  0  0  0  0  0  0  0  # atno 17342 bound_to 10162
  139.9804  144.6432  150.7906 LP  0  0  0  0  0  0  0  0  0  0  0  0  # atno 17343 bound_to 10162
  157.5497  131.0943  150.9712 LP  0  0  0  0  0  0  0  0  0  0  0  0  # atno 17370 bound_to 10713
  156.9975  130.5587  149.5308 LP  0  0  0  0  0  0  0  0  0  0  0  0  # atno 17371 bound_to 10713
  140.2255  134.3972  155.7546 LP  0  0  0  0  0  0  0  0  0  0  0  0  # atno 17394 bound_to 11000
  141.2223  133.7188  156.8558 LP  0  0  0  0  0  0  0  0  0  0  0  0  # atno 17395 bound_to 11000

$$$$
