AV-unprocessed.smi:1410|AV-procd|sdf|5731|dock8
  -GOLD-   22720 5363D 1   1.00000     0.00000
 Structure written by MMmdl.
 40 41  0  0  0  0  0  0  0  0  2 V2000
  142.3167  140.2800  155.1043 N   0  0  0  0  0  0  0  0  0  0  0  0
  142.7593  141.1987  155.9659 C   0  0  0  0  0  0  0  0  0  0  0  0
  142.4172  141.2076  157.1472 O   0  0  0  0  0  0  0  0  0  0  0  0
  143.7391  142.2441  155.4221 C   0  0  0  0  0  0  0  0  0  0  0  0
  145.0005  141.6468  154.9131 N   0  3  2  0  0  0  0  0  0  0  0  0
  145.7545  140.9005  155.9553 C   0  0  0  0  0  0  0  0  0  0  0  0
  146.9667  140.1747  155.3466 C   0  0  0  0  0  0  0  0  0  0  0  0
  147.9011  141.1436  154.5938 C   0  0  2  0  0  0  0  0  0  0  0  0
  148.6248  142.0271  155.5085 N   0  0  0  0  0  0  0  0  0  0  0  0
  149.6443  141.6564  156.2977 C   0  0  0  0  0  0  0  0  0  0  0  0
  150.0770  140.5055  156.3437 O   0  0  0  0  0  0  0  0  0  0  0  0
  150.0978  142.6928  157.0248 N   0  0  0  0  0  0  0  0  0  0  0  0
  151.1468  142.7222  157.9850 C   0  0  0  0  0  0  0  0  0  0  0  0
  151.7584  143.9662  158.2445 C   0  0  0  0  0  0  0  0  0  0  0  0
  152.8091  144.0259  159.1819 C   0  0  0  0  0  0  0  0  0  0  0  0
  153.2720  142.9466  159.8464 N   0  0  0  0  0  0  0  0  0  0  0  0
  152.6947  141.7543  159.5882 C   0  0  0  0  0  0  0  0  0  0  0  0
  151.6384  141.5847  158.6704 C   0  0  0  0  0  0  0  0  0  0  0  0
  147.0872  141.9647  153.5782 C   0  0  0  0  0  0  0  0  0  0  0  0
  145.8622  142.6401  154.2231 C   0  0  0  0  0  0  0  0  0  0  0  0
  141.6719  139.5685  155.4189 H   0  0  0  0  0  0  0  0  0  0  0  0
  142.6264  140.2921  154.1430 H   0  0  0  0  0  0  0  0  0  0  0  0
  143.2237  142.7605  154.6111 H   0  0  0  0  0  0  0  0  0  0  0  0
  143.9604  142.9962  156.1816 H   0  0  0  0  0  0  0  0  0  0  0  0
  146.0796  141.5888  156.7368 H   0  0  0  0  0  0  0  0  0  0  0  0
  145.1066  140.1667  156.4353 H   0  0  0  0  0  0  0  0  0  0  0  0
  147.5106  139.6383  156.1249 H   0  0  0  0  0  0  0  0  0  0  0  0
  146.6102  139.4121  154.6528 H   0  0  0  0  0  0  0  0  0  0  0  0
  148.6398  140.5606  154.0404 H   0  0  0  0  0  0  0  0  0  0  0  0
  148.3374  142.9946  155.5316 H   0  0  0  0  0  0  0  0  0  0  0  0
  149.5953  143.5612  156.9156 H   0  0  0  0  0  0  0  0  0  0  0  0
  151.4297  144.8634  157.7406 H   0  0  0  0  0  0  0  0  0  0  0  0
  153.2909  144.9669  159.4023 H   0  0  0  0  0  0  0  0  0  0  0  0
  153.0904  140.9055  160.1260 H   0  0  0  0  0  0  0  0  0  0  0  0
  151.2435  140.5940  158.5091 H   0  0  0  0  0  0  0  0  0  0  0  0
  147.7210  142.7129  153.1003 H   0  0  0  0  0  0  0  0  0  0  0  0
  146.7461  141.3041  152.7796 H   0  0  0  0  0  0  0  0  0  0  0  0
  145.2885  143.1476  153.4466 H   0  0  0  0  0  0  0  0  0  0  0  0
  146.1780  143.4058  154.9334 H   0  0  0  0  0  0  0  0  0  0  0  0
  144.7256  140.9737  154.2114 H   0  0  0  0  0  0  0  0  0  0  0  0
  1  2  1  0  0  0  0
  1 21  1  0  0  0  0
  1 22  1  0  0  0  0
  2  3  2  0  0  0  0
  2  4  1  0  0  0  0
  4  5  1  0  0  0  0
  4 23  1  0  0  0  0
  4 24  1  0  0  0  0
  5 20  1  0  0  0  0
  5  6  1  0  0  0  0
  5 40  1  0  0  0  0
  6  7  1  0  0  0  0
  6 25  1  0  0  0  0
  6 26  1  0  0  0  0
  7  8  1  0  0  0  0
  7 27  1  0  0  0  0
  7 28  1  0  0  0  0
  8  9  1  0  0  0  0
  8 19  1  0  0  0  0
  8 29  1  0  0  0  0
  9 10  1  0  0  0  0
  9 30  1  0  0  0  0
 10 11  2  0  0  0  0
 10 12  1  0  0  0  0
 12 13  1  0  0  0  0
 12 31  1  0  0  0  0
 13 18  1  0  0  0  0
 13 14  2  0  0  0  0
 14 15  1  0  0  0  0
 14 32  1  0  0  0  0
 15 16  2  0  0  0  0
 15 33  1  0  0  0  0
 16 17  1  0  0  0  0
 17 18  2  0  0  0  0
 17 34  1  0  0  0  0
 18 35  1  0  0  0  0
 19 20  1  0  0  0  0
 19 36  1  0  0  0  0
 19 37  1  0  0  0  0
 20 38  1  0  0  0  0
 20 39  1  0  0  0  0
M  CHG  1   5   1
M  END
> <s_m_source_file>
AV-unprocessed.smi

> <i_m_source_file_index>
1410

> <i_lp_mmshare_version>
43012

> <i_f3d_flags>
0

> <s_epik_input>
W05IMl1DKD1PKVtDSDJdTjFbQ0gyXVtDSDJdW0NIXShbQ0gyXVtDSDJdMSlbTkhdQyg9TylbTkhdYzJbY0hdW2NIXW5bY0hdW2NIXTI=

> <s_epik_cmdline>
J2VwaWtfcHl0aG9uJywgJy1waCcsICc3LjAnLCAnLXRuJywgJzgnLCAnLW1hJywgJzIwMCcsICctbWV0YWxfYmluZGluZycsICctaW1hZScsICc8aW5maWxlLm1hZT4nLCAnLW9tYWUnLCAnPG91dGZpbGUubWFlPic=

> <r_epik_Ionization_Penalty>
0.938358

> <r_epik_Ionization_Penalty_Charging>
0.838844

> <r_epik_Ionization_Penalty_Neutral>
0.0995144

> <r_epik_State_Penalty>
0.957795

> <r_epik_Charging_Adjusted_Penalty>
1.79664

> <i_epik_Tot_Q>
1

> <i_epik_Tot_abs_Q>
1

> <r_epik_Metal_State_Penalty>
0.97276

> <b_epik_Metal_Only>
0

> <s_lp_Force_Field>
OPLS_2005

> <r_lp_Energy>
18.9404

> <b_lp_Chiralities_Consistent>
1

> <s_lp_Variant>
AV-unprocessed.smi:1410-3

> <Gold.Version>
5.8.1

> <Gold.Id.Protein>
6NUR|6NUR_protein|mol2

> <Gold.PLP.Fitness>
46.2333

> <Gold.PLP.PLP>
-32.0118

> <Gold.PLP.part.hbond>
-4.0000

> <Gold.PLP.part.metal>
0.0000

> <Gold.PLP.part.buried>
-6.3546

> <Gold.PLP.part.nonpolar>
-23.2181

> <Gold.PLP.part.repulsive>
0.1649

> <Gold.PLP.ligand.clash>
0.0000

> <Gold.PLP.ligand.torsion>
0.3062

> <Gold.PLP.Chemscore.Hbond>
4.9360

> <Gold.PLP.Chemscore.CHOScore>
0.0000

> <Gold.PLP.Chemscore.Metal>
0.0000

> <Gold.Chemscore.Hbonds>
donor molecule, donor type, donor heavy atom, donor atom, acceptor molecule, acceptor atom, score
      L1  H     1    22       P1 10175  1.00
      L1  H     5    40       P1 10175  1.81
      L1  H     9    30       P1  8028  0.94
      L1  H    12    31       P1  8028  0.90

> <Gold.PLP.Chemscore.Internal.Correction>
0.0260

> <Gold.Rescore>
     Score         DG    S(hbond)    S(metal)    S(lipo)     H(rot)  DE(clash)    DE(int)     intcor
     20.54     -22.01       3.66        0.00      79.90       1.96       0.12       1.35       ----

> <Gold.Chemscore.Fitness>
20.5443

> <Gold.Chemscore.DG>
-22.0129

> <Gold.Chemscore.ZeroCoef>
-5.4800

> <Gold.Chemscore.Hbond>
3.6564

> <Gold.Chemscore.Metal>
0.0000

> <Gold.Chemscore.Lipo>
79.9040

> <Gold.Chemscore.Internal_Hbond>
0.0000

> <Gold.Chemscore.DEClash>
0.1214

> <Gold.Chemscore.DEInternal>
1.3472

> <Gold.Chemscore.Rot>
1.9642

> <Gold.Chemscore.Internal.Correction>
   9.000000E+99

> <Gold.Chemscore.Hbonds>
donor molecule, donor type, donor heavy atom, donor atom, acceptor molecule, acceptor atom, score
      L1  H     1    22       P1 10175  0.94
      L1  H     5    40       P1 10175  0.76
      L1  H     9    30       P1  8028  0.89
      L1  H    12    31       P1  8028  0.84

> <Gold.Chemscore.Hbond.Weighted>
-12.2125

> <Gold.Chemscore.Metal.Weighted>
-0.0000

> <Gold.Chemscore.Lipo.Weighted>
-9.3488

> <Gold.Chemscore.Internal_Hbond.Weighted>
0.0000

> <Gold.Chemscore.DEClash.Weighted>
0.1214

> <Gold.Chemscore.DEInternal.Weighted>
1.3472

> <Gold.Chemscore.Rot.Weighted>
5.0283

> <Gold.Chemscore.Internal.Correction.Weighted>
   9.000000E+99

> <Gold.Protein.RotatedTorsions>
[ 6907 6896 6895 6894 ] final  -57.86 input  -60.11 | X-H torsion
[ 7974 7965 7964 7962 ] final   -2.46 input  175.53 | X-H torsion
[ 8008 7997 7996 7995 ] final   14.12 input   59.86 | X-H torsion
[ 10167 10162 10161 10158 ] final  -32.06 input  -65.29 | X-H torsion
[ 10718 10713 10712 10709 ] final   -2.91 input   66.30 | X-H torsion
[ 10763 10752 10751 10750 ] final -112.76 input  -60.55 | X-H torsion
[ 11005 11000 10999 10996 ] final -103.79 input  -57.11 | X-H torsion

> <Gold.Protein.ActiveResidues>
 VAL166  LYS551  ARG553  GLY616  TRP617  ASP618  TYR619  PRO620  LYS621  CYS622 
 ASP623  PHE694  ASN695  SER759  ASP760  ASP761  ALA762  ILE779  LEU786  VAL792 
 PHE793  MET794  SER795  GLU796  ALA797  LYS798  CYS799  TRP800  GLU811  SER814 

> <Gold.Protein.RotatedAtoms>
  150.8053  134.7173  159.6637 H   0  0  0  0  0  0  0  0  0  0  0  0  # atno 6907 bound_to 6896
  152.4172  134.6018  160.0012 H   0  0  0  0  0  0  0  0  0  0  0  0  # atno 6908 bound_to 6896
  151.6244  133.3299  159.3131 H   0  0  0  0  0  0  0  0  0  0  0  0  # atno 6909 bound_to 6896
  146.2404  140.1574  142.8333 H   0  0  0  0  0  0  0  0  0  0  0  0  # atno 7974 bound_to 7965
  154.8440  140.2919  155.5641 H   0  0  0  0  0  0  0  0  0  0  0  0  # atno 8008 bound_to 7997
  156.3013  140.2508  156.3319 H   0  0  0  0  0  0  0  0  0  0  0  0  # atno 8009 bound_to 7997
  154.9094  140.0389  157.1927 H   0  0  0  0  0  0  0  0  0  0  0  0  # atno 8010 bound_to 7997
  140.7227  143.3723  151.1755 H   0  0  0  0  0  0  0  0  0  0  0  0  # atno 10167 bound_to 10162
  156.7839  130.5339  149.5746 H   0  0  0  0  0  0  0  0  0  0  0  0  # atno 10718 bound_to 10713
  154.8365  135.4479  154.1244 H   0  0  0  0  0  0  0  0  0  0  0  0  # atno 10763 bound_to 10752
  153.2472  135.6922  153.7725 H   0  0  0  0  0  0  0  0  0  0  0  0  # atno 10764 bound_to 10752
  153.7051  135.3365  155.3209 H   0  0  0  0  0  0  0  0  0  0  0  0  # atno 10765 bound_to 10752
  141.1130  133.8669  157.1530 H   0  0  0  0  0  0  0  0  0  0  0  0  # atno 11005 bound_to 11000
  145.0118  140.8720  143.5220 LP  0  0  0  0  0  0  0  0  0  0  0  0  # atno 17320 bound_to 7965
  145.1608  139.2459  143.5392 LP  0  0  0  0  0  0  0  0  0  0  0  0  # atno 17321 bound_to 7965
  139.7296  143.9093  152.3015 LP  0  0  0  0  0  0  0  0  0  0  0  0  # atno 17342 bound_to 10162
  139.8878  144.6982  150.8805 LP  0  0  0  0  0  0  0  0  0  0  0  0  # atno 17343 bound_to 10162
  156.1201  130.6103  151.0180 LP  0  0  0  0  0  0  0  0  0  0  0  0  # atno 17370 bound_to 10713
  157.6633  131.0876  150.7787 LP  0  0  0  0  0  0  0  0  0  0  0  0  # atno 17371 bound_to 10713
  140.0034  135.0018  157.0241 LP  0  0  0  0  0  0  0  0  0  0  0  0  # atno 17394 bound_to 11000
  140.4724  134.1373  155.7205 LP  0  0  0  0  0  0  0  0  0  0  0  0  # atno 17395 bound_to 11000

$$$$
