AV-unprocessed.smi:2454|AV-procd|sdf|9698|dock3
  -GOLD-   2272013333D 1   1.00000     0.00000
 Structure written by MMmdl.
 42 43  0  0  0  0  0  0  0  0  1 V2000
  150.4374  142.6470  157.9839 C   0  0  0  0  0  0  0  0  0  0  0  0
  150.3429  141.4412  157.2462 O   0  0  0  0  0  0  0  0  0  0  0  0
  151.1773  141.4378  156.1002 C   0  0  0  0  0  0  0  0  0  0  0  0
  151.4731  140.0257  155.6394 C   0  0  0  0  0  0  0  0  0  0  0  0
  150.4470  139.1767  155.1734 C   0  0  0  0  0  0  0  0  0  0  0  0
  150.8143  137.8714  154.7751 C   0  0  0  0  0  0  0  0  0  0  0  0
  149.7403  137.0510  154.3198 N   0  0  0  0  0  0  0  0  0  0  0  0
  148.4207  137.0702  154.6058 C   0  0  0  0  0  0  0  0  0  0  0  0
  147.9512  137.8986  155.3842 O   0  0  0  0  0  0  0  0  0  0  0  0
  147.6695  136.1403  153.9943 N   0  0  0  0  0  0  0  0  0  0  0  0
  146.2322  135.9428  154.1660 C   0  0  1  0  0  0  0  0  0  0  0  0
  145.4569  137.0763  153.4689 C   0  0  0  0  0  0  0  0  0  0  0  0
  145.5486  136.9817  151.9367 C   0  0  0  0  0  0  0  0  0  0  0  0
  145.0885  135.6046  151.4339 C   0  0  0  0  0  0  0  0  0  0  0  0
  145.8862  134.4594  152.0928 C   0  0  2  0  0  0  0  0  0  0  0  0
  145.4400  133.0751  151.5790 C   0  0  0  0  0  0  0  0  0  0  0  0
  144.1238  132.9164  151.7229 F   0  0  0  0  0  0  0  0  0  0  0  0
  145.7511  132.9444  150.2895 F   0  0  0  0  0  0  0  0  0  0  0  0
  146.0667  132.1134  152.2565 F   0  0  0  0  0  0  0  0  0  0  0  0
  145.7904  134.5627  153.6324 C   0  0  0  0  0  0  0  0  0  0  0  0
  152.1141  137.4862  154.8554 N   0  0  0  0  0  0  0  0  0  0  0  0
  153.0059  138.3682  155.3123 C   0  0  0  0  0  0  0  0  0  0  0  0
  152.7578  139.6168  155.7084 N   0  0  0  0  0  0  0  0  0  0  0  0
  149.7759  142.6004  158.8489 H   0  0  0  0  0  0  0  0  0  0  0  0
  150.1404  143.5045  157.3788 H   0  0  0  0  0  0  0  0  0  0  0  0
  151.4533  142.8090  158.3462 H   0  0  0  0  0  0  0  0  0  0  0  0
  150.6954  141.9841  155.2877 H   0  0  0  0  0  0  0  0  0  0  0  0
  152.1162  141.9505  156.3177 H   0  0  0  0  0  0  0  0  0  0  0  0
  149.4215  139.5145  155.1289 H   0  0  0  0  0  0  0  0  0  0  0  0
  150.0081  136.3562  153.6382 H   0  0  0  0  0  0  0  0  0  0  0  0
  148.1411  135.5013  153.3690 H   0  0  0  0  0  0  0  0  0  0  0  0
  146.0072  135.9924  155.2329 H   0  0  0  0  0  0  0  0  0  0  0  0
  144.4084  137.0271  153.7654 H   0  0  0  0  0  0  0  0  0  0  0  0
  145.8218  138.0475  153.8059 H   0  0  0  0  0  0  0  0  0  0  0  0
  144.9403  137.7640  151.4822 H   0  0  0  0  0  0  0  0  0  0  0  0
  146.5743  137.1654  151.6139 H   0  0  0  0  0  0  0  0  0  0  0  0
  144.0249  135.4806  151.6412 H   0  0  0  0  0  0  0  0  0  0  0  0
  145.1975  135.5624  150.3499 H   0  0  0  0  0  0  0  0  0  0  0  0
  146.9338  134.5829  151.8130 H   0  0  0  0  0  0  0  0  0  0  0  0
  146.3843  133.7770  154.1006 H   0  0  0  0  0  0  0  0  0  0  0  0
  144.7602  134.3808  153.9405 H   0  0  0  0  0  0  0  0  0  0  0  0
  154.0321  138.0364  155.3658 H   0  0  0  0  0  0  0  0  0  0  0  0
  1  2  1  0  0  0  0
  1 24  1  0  0  0  0
  1 25  1  0  0  0  0
  1 26  1  0  0  0  0
  2  3  1  0  0  0  0
  3  4  1  0  0  0  0
  3 27  1  0  0  0  0
  3 28  1  0  0  0  0
  4 23  1  0  0  0  0
  4  5  2  0  0  0  0
  5  6  1  0  0  0  0
  5 29  1  0  0  0  0
  6  7  1  0  0  0  0
  6 21  2  0  0  0  0
  7  8  1  0  0  0  0
  7 30  1  0  0  0  0
  8  9  2  0  0  0  0
  8 10  1  0  0  0  0
 10 11  1  0  0  0  0
 10 31  1  0  0  0  0
 11 20  1  0  0  0  0
 11 12  1  0  0  0  0
 11 32  1  0  0  0  0
 12 13  1  0  0  0  0
 12 33  1  0  0  0  0
 12 34  1  0  0  0  0
 13 14  1  0  0  0  0
 13 35  1  0  0  0  0
 13 36  1  0  0  0  0
 14 15  1  0  0  0  0
 14 37  1  0  0  0  0
 14 38  1  0  0  0  0
 15 16  1  0  0  0  0
 15 20  1  0  0  0  0
 15 39  1  0  0  0  0
 16 17  1  0  0  0  0
 16 18  1  0  0  0  0
 16 19  1  0  0  0  0
 20 40  1  0  0  0  0
 20 41  1  0  0  0  0
 21 22  1  0  0  0  0
 22 23  2  0  0  0  0
 22 42  1  0  0  0  0
M  END
> <s_m_source_file>
AV-unprocessed.smi

> <i_m_source_file_index>
2454

> <i_lp_mmshare_version>
43012

> <i_f3d_flags>
0

> <s_epik_input>
W0NIM11PW0NIMl1jMVtjSF1jKG5bY0hdbjEpW05IXUMoPU8pW05IXVtDQEBIXTJbQ0gyXVtDSDJdW0NIMl1bQ0BASF0oQyhGKShGKUYpW0NIMl0y

> <s_epik_cmdline>
J2VwaWtfcHl0aG9uJywgJy1waCcsICc3LjAnLCAnLXRuJywgJzgnLCAnLW1hJywgJzIwMCcsICctbWV0YWxfYmluZGluZycsICctaW1hZScsICc8aW5maWxlLm1hZT4nLCAnLW9tYWUnLCAnPG91dGZpbGUubWFlPic=

> <r_lp_tautomer_probability>
1

> <r_epik_Ionization_Penalty>
3.01554e-05

> <r_epik_Ionization_Penalty_Charging>
0

> <r_epik_Ionization_Penalty_Neutral>
3.01554e-05

> <r_epik_State_Penalty>
-0

> <r_epik_Charging_Adjusted_Penalty>
0

> <i_epik_Tot_Q>
0

> <i_epik_Tot_abs_Q>
0

> <r_epik_Metal_State_Penalty>
-0

> <b_epik_Metal_Only>
0

> <s_lp_Force_Field>
OPLS_2005

> <r_lp_Energy>
13.7545

> <b_lp_Chiralities_Consistent>
1

> <s_lp_Variant>
AV-unprocessed.smi:2454-4

> <Gold.Version>
5.8.1

> <Gold.Id.Protein>
6NUR|6NUR_protein|mol2

> <Gold.PLP.Fitness>
41.0494

> <Gold.PLP.PLP>
-34.7434

> <Gold.PLP.part.hbond>
-3.8735

> <Gold.PLP.part.metal>
0.0000

> <Gold.PLP.part.buried>
-3.0223

> <Gold.PLP.part.nonpolar>
-27.7569

> <Gold.PLP.part.repulsive>
0.2181

> <Gold.PLP.ligand.clash>
0.0000

> <Gold.PLP.ligand.torsion>
0.5610

> <Gold.PLP.Chemscore.Hbond>
2.4604

> <Gold.PLP.Chemscore.CHOScore>
0.0000

> <Gold.PLP.Chemscore.Metal>
0.0000

> <Gold.Chemscore.Hbonds>
donor molecule, donor type, donor heavy atom, donor atom, acceptor molecule, acceptor atom, score
      L1  H     7    30       P1  7948  0.33
      L1  H    10    31       P1  7948  0.37
      P1  H  7997  8009       L1    23  1.00
      P1  H 10752 10764       L1    21  0.73

> <Gold.PLP.Chemscore.Internal.Correction>
0.0467

> <Gold.Rescore>
     Score         DG    S(hbond)    S(metal)    S(lipo)     H(rot)  DE(clash)    DE(int)     intcor
     11.59     -14.12       1.92        0.00      54.01       1.60       0.54       1.98       ----

> <Gold.Chemscore.Fitness>
11.5924

> <Gold.Chemscore.DG>
-14.1167

> <Gold.Chemscore.ZeroCoef>
-5.4800

> <Gold.Chemscore.Hbond>
1.9228

> <Gold.Chemscore.Metal>
0.0000

> <Gold.Chemscore.Lipo>
54.0139

> <Gold.Chemscore.Internal_Hbond>
0.0000

> <Gold.Chemscore.DEClash>
0.5406

> <Gold.Chemscore.DEInternal>
1.9837

> <Gold.Chemscore.Rot>
1.6035

> <Gold.Chemscore.Internal.Correction>
   9.000000E+99

> <Gold.Chemscore.Hbonds>
donor molecule, donor type, donor heavy atom, donor atom, acceptor molecule, acceptor atom, score
      L1  H     7    30       P1  7948  0.04
      L1  H    10    31       P1  7948  0.36
      P1  H  7997  8009       L1    23  0.30
      P1  H 10752 10764       L1    21  0.59

> <Gold.Chemscore.Hbond.Weighted>
-6.4221

> <Gold.Chemscore.Metal.Weighted>
-0.0000

> <Gold.Chemscore.Lipo.Weighted>
-6.3196

> <Gold.Chemscore.Internal_Hbond.Weighted>
0.0000

> <Gold.Chemscore.DEClash.Weighted>
0.5406

> <Gold.Chemscore.DEInternal.Weighted>
1.9837

> <Gold.Chemscore.Rot.Weighted>
4.1050

> <Gold.Chemscore.Internal.Correction.Weighted>
   9.000000E+99

> <Gold.Protein.RotatedTorsions>
[ 6907 6896 6895 6894 ] final  118.71 input  -60.11 | X-H torsion
[ 7974 7965 7964 7962 ] final  -82.76 input  175.53 | X-H torsion
[ 8008 7997 7996 7995 ] final -150.39 input   59.86 | X-H torsion
[ 10167 10162 10161 10158 ] final  -55.89 input  -65.29 | X-H torsion
[ 10718 10713 10712 10709 ] final  163.56 input   66.30 | X-H torsion
[ 10763 10752 10751 10750 ] final  -67.47 input  -60.55 | X-H torsion
[ 11005 11000 10999 10996 ] final  144.57 input  -57.11 | X-H torsion

> <Gold.Protein.ActiveResidues>
 VAL166  LYS551  ARG553  GLY616  TRP617  ASP618  TYR619  PRO620  LYS621  CYS622 
 ASP623  PHE694  ASN695  SER759  ASP760  ASP761  ALA762  ILE779  LEU786  VAL792 
 PHE793  MET794  SER795  GLU796  ALA797  LYS798  CYS799  TRP800  GLU811  SER814 

> <Gold.Protein.RotatedAtoms>
  152.4524  133.7655  159.6770 H   0  0  0  0  0  0  0  0  0  0  0  0  # atno 6907 bound_to 6896
  150.8440  133.7881  159.3056 H   0  0  0  0  0  0  0  0  0  0  0  0  # atno 6908 bound_to 6896
  151.5497  135.1070  159.9998 H   0  0  0  0  0  0  0  0  0  0  0  0  # atno 6909 bound_to 6896
  145.5290  140.9523  143.1613 H   0  0  0  0  0  0  0  0  0  0  0  0  # atno 7974 bound_to 7965
  155.6229  140.0683  157.2673 H   0  0  0  0  0  0  0  0  0  0  0  0  # atno 8008 bound_to 7997
  154.4225  140.1781  156.1439 H   0  0  0  0  0  0  0  0  0  0  0  0  # atno 8009 bound_to 7997
  155.9995  140.3337  155.6835 H   0  0  0  0  0  0  0  0  0  0  0  0  # atno 8010 bound_to 7997
  140.6349  143.2477  151.5145 H   0  0  0  0  0  0  0  0  0  0  0  0  # atno 10167 bound_to 10162
  157.1067  131.0457  151.2475 H   0  0  0  0  0  0  0  0  0  0  0  0  # atno 10718 bound_to 10713
  154.3749  135.6087  153.5760 H   0  0  0  0  0  0  0  0  0  0  0  0  # atno 10763 bound_to 10752
  152.9789  135.5847  154.4478 H   0  0  0  0  0  0  0  0  0  0  0  0  # atno 10764 bound_to 10752
  154.4238  135.2846  155.1936 H   0  0  0  0  0  0  0  0  0  0  0  0  # atno 10765 bound_to 10752
  140.0643  134.9187  157.1237 H   0  0  0  0  0  0  0  0  0  0  0  0  # atno 11005 bound_to 11000
  144.7636  139.6899  143.7224 LP  0  0  0  0  0  0  0  0  0  0  0  0  # atno 17320 bound_to 7965
  146.2056  139.5379  142.9714 LP  0  0  0  0  0  0  0  0  0  0  0  0  # atno 17321 bound_to 7965
  139.5560  144.2275  152.1612 LP  0  0  0  0  0  0  0  0  0  0  0  0  # atno 17342 bound_to 10162
  140.1529  144.5098  150.6677 LP  0  0  0  0  0  0  0  0  0  0  0  0  # atno 17343 bound_to 10162
  157.4594  130.7644  149.7222 LP  0  0  0  0  0  0  0  0  0  0  0  0  # atno 17370 bound_to 10713
  155.9860  130.3978  150.3233 LP  0  0  0  0  0  0  0  0  0  0  0  0  # atno 17371 bound_to 10713
  140.3723  134.2377  155.7177 LP  0  0  0  0  0  0  0  0  0  0  0  0  # atno 17394 bound_to 11000
  141.1986  133.8031  157.0574 LP  0  0  0  0  0  0  0  0  0  0  0  0  # atno 17395 bound_to 11000

$$$$
