AV-unprocessed.smi:36|AV-procd|sdf|287|dock6
  -GOLD-   2262016 73D 1   1.00000     0.00000
 Structure written by MMmdl.
 64 67  0  0  0  0  0  0  0  0  1 V2000
  156.1721  130.0952  166.7188 C   0  0  0  0  0  0  0  0  0  0  0  0
  156.5779  128.9002  165.8404 C   0  0  0  0  0  0  0  0  0  0  0  0
  158.0393  129.0635  165.3881 C   0  0  0  0  0  0  0  0  0  0  0  0
  156.4163  127.5907  166.6299 C   0  0  0  0  0  0  0  0  0  0  0  0
  155.4574  128.8533  164.2946 Si  0  0  0  0  0  0  0  0  0  0  0  0
  155.9093  127.3831  163.1750 C   0  0  0  0  0  0  0  0  0  0  0  0
  153.6234  128.7439  164.7755 C   0  0  0  0  0  0  0  0  0  0  0  0
  155.6902  130.3062  163.4554 O   0  0  0  0  0  0  0  0  0  0  0  0
  154.7138  130.9366  162.6518 C   0  0  0  0  0  0  0  0  0  0  0  0
  154.2259  132.2070  163.3604 C   0  0  2  0  0  0  0  0  0  0  0  0
  155.3187  133.0961  163.5608 O   0  0  0  0  0  0  0  0  0  0  0  0
  155.0479  133.9433  164.6375 C   0  0  1  0  0  0  0  0  0  0  0  0
  154.7501  135.3107  164.1079 N   0  0  0  0  0  0  0  0  0  0  0  0
  154.3863  136.4089  164.8000 C   0  0  0  0  0  0  0  0  0  0  0  0
  154.1881  137.5032  164.0693 N   0  0  0  0  0  0  0  0  0  0  0  0
  154.4530  137.0589  162.7781 C   0  0  0  0  0  0  0  0  0  0  0  0
  154.4123  137.7829  161.4890 C   0  0  0  0  0  0  0  0  0  0  0  0
  154.0889  139.0404  161.5133 N   0  0  0  0  0  0  0  0  0  0  0  0
  154.0157  139.7656  160.3306 C   0  0  0  0  0  0  0  0  0  0  0  0
  154.5148  139.5036  159.2325 O   0  0  0  0  0  0  0  0  0  0  0  0
  153.2873  141.0632  160.4759 C   0  0  0  0  0  0  0  0  0  0  0  0
  153.0669  141.6158  161.7559 C   0  0  0  0  0  0  0  0  0  0  0  0
  152.3839  142.8406  161.8890 C   0  0  0  0  0  0  0  0  0  0  0  0
  151.9184  143.5163  160.7445 C   0  0  0  0  0  0  0  0  0  0  0  0
  152.1367  142.9679  159.4660 C   0  0  0  0  0  0  0  0  0  0  0  0
  152.8206  141.7441  159.3311 C   0  0  0  0  0  0  0  0  0  0  0  0
  154.7529  136.9133  160.4446 N   0  0  0  0  0  0  0  0  0  0  0  0
  155.0922  135.5579  160.5791 C   0  0  0  0  0  0  0  0  0  0  0  0
  155.1353  134.9072  161.7110 N   0  0  0  0  0  0  0  0  0  0  0  0
  154.7982  135.7247  162.7807 C   0  0  0  0  0  0  0  0  0  0  0  0
  153.8194  133.3812  165.3639 C   0  0  0  0  0  0  0  0  0  0  0  0
  153.7204  131.9827  164.7842 C   0  0  1  0  0  0  0  0  0  0  0  0
  152.3873  131.5162  164.8141 O   0  0  0  0  0  0  0  0  0  0  0  0
  156.8035  130.1689  167.6049 H   0  0  0  0  0  0  0  0  0  0  0  0
  155.1399  130.0079  167.0584 H   0  0  0  0  0  0  0  0  0  0  0  0
  156.2603  131.0351  166.1730 H   0  0  0  0  0  0  0  0  0  0  0  0
  158.1726  129.9728  164.8010 H   0  0  0  0  0  0  0  0  0  0  0  0
  158.3623  128.2252  164.7705 H   0  0  0  0  0  0  0  0  0  0  0  0
  158.7151  129.1203  166.2418 H   0  0  0  0  0  0  0  0  0  0  0  0
  157.0486  127.5836  167.5182 H   0  0  0  0  0  0  0  0  0  0  0  0
  156.6905  126.7256  166.0254 H   0  0  0  0  0  0  0  0  0  0  0  0
  155.3865  127.4501  166.9586 H   0  0  0  0  0  0  0  0  0  0  0  0
  155.7212  126.4322  163.6726 H   0  0  0  0  0  0  0  0  0  0  0  0
  156.9620  127.3956  162.8950 H   0  0  0  0  0  0  0  0  0  0  0  0
  155.3273  127.3852  162.2539 H   0  0  0  0  0  0  0  0  0  0  0  0
  153.4133  127.8431  165.3512 H   0  0  0  0  0  0  0  0  0  0  0  0
  152.9814  128.7237  163.8951 H   0  0  0  0  0  0  0  0  0  0  0  0
  153.3164  129.5965  165.3805 H   0  0  0  0  0  0  0  0  0  0  0  0
  155.1455  131.1805  161.6808 H   0  0  0  0  0  0  0  0  0  0  0  0
  153.8877  130.2481  162.4732 H   0  0  0  0  0  0  0  0  0  0  0  0
  153.4596  132.7135  162.7736 H   0  0  0  0  0  0  0  0  0  0  0  0
  155.9305  134.0580  165.2674 H   0  0  0  0  0  0  0  0  0  0  0  0
  154.2594  136.4113  165.8722 H   0  0  0  0  0  0  0  0  0  0  0  0
  153.4224  141.1050  162.6392 H   0  0  0  0  0  0  0  0  0  0  0  0
  152.2176  143.2619  162.8694 H   0  0  0  0  0  0  0  0  0  0  0  0
  151.3949  144.4552  160.8471 H   0  0  0  0  0  0  0  0  0  0  0  0
  151.7794  143.4861  158.5884 H   0  0  0  0  0  0  0  0  0  0  0  0
  152.9847  141.3308  158.3464 H   0  0  0  0  0  0  0  0  0  0  0  0
  155.3275  135.0641  159.6352 H   0  0  0  0  0  0  0  0  0  0  0  0
  153.9599  133.3961  166.4450 H   0  0  0  0  0  0  0  0  0  0  0  0
  152.9364  133.9732  165.1138 H   0  0  0  0  0  0  0  0  0  0  0  0
  154.3764  131.2999  165.3259 H   0  0  0  0  0  0  0  0  0  0  0  0
  152.2034  131.1854  165.6799 H   0  0  0  0  0  0  0  0  0  0  0  0
  154.7576  137.2989  159.5113 H   0  0  0  0  0  0  0  0  0  0  0  0
  1  2  1  0  0  0  0
  1 34  1  0  0  0  0
  1 35  1  0  0  0  0
  1 36  1  0  0  0  0
  2  3  1  0  0  0  0
  2  4  1  0  0  0  0
  2  5  1  0  0  0  0
  3 37  1  0  0  0  0
  3 38  1  0  0  0  0
  3 39  1  0  0  0  0
  4 40  1  0  0  0  0
  4 41  1  0  0  0  0
  4 42  1  0  0  0  0
  5  6  1  0  0  0  0
  5  7  1  0  0  0  0
  5  8  1  0  0  0  0
  6 43  1  0  0  0  0
  6 44  1  0  0  0  0
  6 45  1  0  0  0  0
  7 46  1  0  0  0  0
  7 47  1  0  0  0  0
  7 48  1  0  0  0  0
  8  9  1  0  0  0  0
  9 10  1  0  0  0  0
  9 49  1  0  0  0  0
  9 50  1  0  0  0  0
 10 32  1  0  0  0  0
 10 11  1  0  0  0  0
 10 51  1  0  0  0  0
 11 12  1  0  0  0  0
 12 13  1  0  0  0  0
 12 31  1  0  0  0  0
 12 52  1  0  0  0  0
 13 30  1  0  0  0  0
 13 14  1  0  0  0  0
 14 15  2  0  0  0  0
 14 53  1  0  0  0  0
 15 16  1  0  0  0  0
 16 30  2  0  0  0  0
 16 17  1  0  0  0  0
 17 18  2  0  0  0  0
 17 27  1  0  0  0  0
 18 19  1  0  0  0  0
 19 20  2  0  0  0  0
 19 21  1  0  0  0  0
 21 26  1  0  0  0  0
 21 22  2  0  0  0  0
 22 23  1  0  0  0  0
 22 54  1  0  0  0  0
 23 24  2  0  0  0  0
 23 55  1  0  0  0  0
 24 25  1  0  0  0  0
 24 56  1  0  0  0  0
 25 26  2  0  0  0  0
 25 57  1  0  0  0  0
 26 58  1  0  0  0  0
 27 28  1  0  0  0  0
 27 64  1  0  0  0  0
 28 29  2  0  0  0  0
 28 59  1  0  0  0  0
 29 30  1  0  0  0  0
 31 32  1  0  0  0  0
 31 60  1  0  0  0  0
 31 61  1  0  0  0  0
 32 33  1  0  0  0  0
 32 62  1  0  0  0  0
 33 63  1  0  0  0  0
M  END
> <s_m_source_file>
AV-unprocessed.smi

> <i_m_source_file_index>
36

> <i_lp_mmshare_version>
43012

> <i_f3d_flags>
0

> <s_epik_input>
W0NIM11DKFtDSDNdKShbQ0gzXSlbU2ldKFtDSDNdKShbQ0gzXSlPW0NIMl1bQ0BASF0xT1tDQEhdKFtDSDJdW0NASF0xW09IXSluKFtjSF1uMiljKGMyMyluW2NIXW5jM1tOSF1DKD1PKWM0W2NIXVtjSF1bY0hdW2NIXVtjSF00

> <s_epik_cmdline>
J2VwaWtfcHl0aG9uJywgJy1waCcsICc3LjAnLCAnLXRuJywgJzgnLCAnLW1hJywgJzIwMCcsICctbWV0YWxfYmluZGluZycsICctaW1hZScsICc8aW5maWxlLm1hZT4nLCAnLW9tYWUnLCAnPG91dGZpbGUubWFlPic=

> <r_epik_Ionization_Penalty>
0.0850405

> <r_epik_Ionization_Penalty_Charging>
0.0850403

> <r_epik_Ionization_Penalty_Neutral>
1.47497e-07

> <r_epik_State_Penalty>
2.6133

> <r_epik_Charging_Adjusted_Penalty>
2.69834

> <i_epik_Tot_Q>
0

> <i_epik_Tot_abs_Q>
0

> <r_epik_Metal_State_Penalty>
2.92945

> <b_epik_Metal_Only>
0

> <s_epik_Chemistry_Notes>
This compound contains an acetal/aminal-like group ( X-CH(R)-Y where X, Y are N, S, or O) that may be acid/base labile, releasing an aldehyde.

> <s_lp_Force_Field>
OPLS_2005

> <r_lp_Energy>
46.6166

> <b_lp_Chiralities_Consistent>
1

> <s_lp_Variant>
AV-unprocessed.smi:36-9

> <Gold.Version>
5.8.1

> <Gold.Id.Protein>
6NUR|6NUR_protein|mol2

> <Gold.PLP.Fitness>
55.3353

> <Gold.PLP.PLP>
-54.5186

> <Gold.PLP.part.hbond>
-2.0000

> <Gold.PLP.part.metal>
0.0000

> <Gold.PLP.part.buried>
-0.8670

> <Gold.PLP.part.nonpolar>
-51.1727

> <Gold.PLP.part.repulsive>
0.0935

> <Gold.PLP.ligand.clash>
0.0000

> <Gold.PLP.ligand.torsion>
1.1231

> <Gold.PLP.Chemscore.Hbond>
1.0000

> <Gold.PLP.Chemscore.CHOScore>
0.0000

> <Gold.PLP.Chemscore.Metal>
0.0000

> <Gold.Chemscore.Hbonds>
donor molecule, donor type, donor heavy atom, donor atom, acceptor molecule, acceptor atom, score
      P1  H  7997  8009       L1    20  0.96

> <Gold.PLP.Chemscore.Internal.Correction>
0.0629

> <Gold.Rescore>
     Score         DG    S(hbond)    S(metal)    S(lipo)     H(rot)  DE(clash)    DE(int)     intcor
     13.22     -16.22       1.00        0.00     122.44       2.70       0.18       2.82       ----

> <Gold.Chemscore.Fitness>
13.2239

> <Gold.Chemscore.DG>
-16.2227

> <Gold.Chemscore.ZeroCoef>
-5.4800

> <Gold.Chemscore.Hbond>
0.9999

> <Gold.Chemscore.Metal>
0.0000

> <Gold.Chemscore.Lipo>
122.4413

> <Gold.Chemscore.Internal_Hbond>
0.0000

> <Gold.Chemscore.DEClash>
0.1787

> <Gold.Chemscore.DEInternal>
2.8201

> <Gold.Chemscore.Rot>
2.7041

> <Gold.Chemscore.Internal.Correction>
   9.000000E+99

> <Gold.Chemscore.Hbonds>
donor molecule, donor type, donor heavy atom, donor atom, acceptor molecule, acceptor atom, score
      P1  H  7997  8009       L1    20  0.91

> <Gold.Chemscore.Hbond.Weighted>
-3.3395

> <Gold.Chemscore.Metal.Weighted>
-0.0000

> <Gold.Chemscore.Lipo.Weighted>
-14.3256

> <Gold.Chemscore.Internal_Hbond.Weighted>
0.0000

> <Gold.Chemscore.DEClash.Weighted>
0.1787

> <Gold.Chemscore.DEInternal.Weighted>
2.8201

> <Gold.Chemscore.Rot.Weighted>
6.9225

> <Gold.Chemscore.Internal.Correction.Weighted>
   9.000000E+99

> <Gold.Protein.RotatedTorsions>
[ 6907 6896 6895 6894 ] final  -46.83 input  -60.11 | X-H torsion
[ 7974 7965 7964 7962 ] final    4.11 input  175.53 | X-H torsion
[ 8008 7997 7996 7995 ] final  122.10 input   59.86 | X-H torsion
[ 10167 10162 10161 10158 ] final  155.85 input  -65.29 | X-H torsion
[ 10718 10713 10712 10709 ] final  -88.28 input   66.30 | X-H torsion
[ 10763 10752 10751 10750 ] final  116.72 input  -60.55 | X-H torsion
[ 11005 11000 10999 10996 ] final  168.12 input  -57.11 | X-H torsion

> <Gold.Protein.ActiveResidues>
 VAL166  LYS551  ARG553  GLY616  TRP617  ASP618  TYR619  PRO620  LYS621  CYS622 
 ASP623  PHE694  ASN695  SER759  ASP760  ASP761  ALA762  ILE779  LEU786  VAL792 
 PHE793  MET794  SER795  GLU796  ALA797  LYS798  CYS799  TRP800  GLU811  SER814 

> <Gold.Protein.RotatedAtoms>
  150.9071  134.8486  159.7399 H   0  0  0  0  0  0  0  0  0  0  0  0  # atno 6907 bound_to 6896
  152.4924  134.4415  159.9555 H   0  0  0  0  0  0  0  0  0  0  0  0  # atno 6908 bound_to 6896
  151.4461  133.3591  159.2824 H   0  0  0  0  0  0  0  0  0  0  0  0  # atno 6909 bound_to 6896
  146.2444  140.0584  142.8370 H   0  0  0  0  0  0  0  0  0  0  0  0  # atno 7974 bound_to 7965
  156.2714  140.2793  156.1414 H   0  0  0  0  0  0  0  0  0  0  0  0  # atno 8008 bound_to 7997
  155.0950  140.0389  157.2697 H   0  0  0  0  0  0  0  0  0  0  0  0  # atno 8009 bound_to 7997
  154.6860  140.2619  155.6866 H   0  0  0  0  0  0  0  0  0  0  0  0  # atno 8010 bound_to 7997
  139.4821  144.5061  151.8095 H   0  0  0  0  0  0  0  0  0  0  0  0  # atno 10167 bound_to 10162
  155.9984  130.4830  150.4995 H   0  0  0  0  0  0  0  0  0  0  0  0  # atno 10718 bound_to 10713
  153.5414  135.3558  155.2720 H   0  0  0  0  0  0  0  0  0  0  0  0  # atno 10763 bound_to 10752
  154.8717  135.4092  154.3039 H   0  0  0  0  0  0  0  0  0  0  0  0  # atno 10764 bound_to 10752
  153.3747  135.7066  153.6679 H   0  0  0  0  0  0  0  0  0  0  0  0  # atno 10765 bound_to 10752
  140.2839  134.7728  157.3782 H   0  0  0  0  0  0  0  0  0  0  0  0  # atno 11005 bound_to 11000
  145.0922  140.9291  143.4762 LP  0  0  0  0  0  0  0  0  0  0  0  0  # atno 17320 bound_to 7965
  145.0759  139.2996  143.5808 LP  0  0  0  0  0  0  0  0  0  0  0  0  # atno 17321 bound_to 7965
  140.4560  144.1789  150.5901 LP  0  0  0  0  0  0  0  0  0  0  0  0  # atno 17342 bound_to 10162
  140.4535  143.2477  151.9316 LP  0  0  0  0  0  0  0  0  0  0  0  0  # atno 17343 bound_to 10162
  157.2981  131.0640  151.2087 LP  0  0  0  0  0  0  0  0  0  0  0  0  # atno 17370 bound_to 10713
  157.3076  130.6874  149.6198 LP  0  0  0  0  0  0  0  0  0  0  0  0  # atno 17371 bound_to 10713
  140.1257  134.5160  155.8146 LP  0  0  0  0  0  0  0  0  0  0  0  0  # atno 17394 bound_to 11000
  141.2158  133.6772  156.6948 LP  0  0  0  0  0  0  0  0  0  0  0  0  # atno 17395 bound_to 11000

$$$$
