AV-unprocessed.smi:3156|AV-procd|sdf|12034|dock2
  -GOLD-   2272017453D 1   1.00000     0.00000
 Structure written by MMmdl.
 41 42  0  0  0  0  0  0  0  0  2 V2000
  149.3468  141.3875  155.2197 C   0  0  0  0  0  0  0  0  0  0  0  0
  150.6505  141.7356  155.9623 C   0  0  1  0  0  0  0  0  0  0  0  0
  150.3902  142.7785  156.9819 N   0  3  0  0  0  0  0  0  0  0  0  0
  151.5872  143.3919  157.5953 C   0  0  0  0  0  0  0  0  0  0  0  0
  151.7945  142.8914  159.0335 C   0  0  2  0  0  0  0  0  0  0  0  0
  152.2041  144.0131  160.0122 C   0  0  0  0  0  0  0  0  0  0  0  0
  152.4531  143.4395  161.4112 C   0  0  0  0  0  0  0  0  0  0  0  0
  153.4463  142.2759  161.3214 C   0  0  0  0  0  0  0  0  0  0  0  0
  152.9681  141.2410  160.2899 C   0  0  0  0  0  0  0  0  0  0  0  0
  152.7821  141.8625  159.0213 O   0  0  0  0  0  0  0  0  0  0  0  0
  151.3038  140.4973  156.6359 C   0  0  1  0  0  0  0  0  0  0  0  0
  150.7319  140.1945  158.0332 C   0  0  0  0  0  0  0  0  0  0  0  0
  151.1984  139.3060  155.7984 N   0  0  0  0  0  0  0  0  0  0  0  0
  150.6278  138.0901  156.1153 C   0  0  0  0  0  0  0  0  0  0  0  0
  150.7573  137.2800  155.0239 C   0  0  0  0  0  0  0  0  0  0  0  0
  151.4146  138.1030  154.0678 C   0  0  0  0  0  0  0  0  0  0  0  0
  151.6735  139.3144  154.5319 N   0  0  0  0  0  0  0  0  0  0  0  0
  149.5210  140.6779  154.4116 H   0  0  0  0  0  0  0  0  0  0  0  0
  148.8965  142.2699  154.7655 H   0  0  0  0  0  0  0  0  0  0  0  0
  148.6101  140.9503  155.8945 H   0  0  0  0  0  0  0  0  0  0  0  0
  151.3604  142.1382  155.2378 H   0  0  0  0  0  0  0  0  0  0  0  0
  149.8034  143.5003  156.5882 H   0  0  0  0  0  0  0  0  0  0  0  0
  152.4694  143.1499  157.0013 H   0  0  0  0  0  0  0  0  0  0  0  0
  151.4855  144.4772  157.5897 H   0  0  0  0  0  0  0  0  0  0  0  0
  150.8521  142.4574  159.3725 H   0  0  0  0  0  0  0  0  0  0  0  0
  153.1120  144.5070  159.6639 H   0  0  0  0  0  0  0  0  0  0  0  0
  151.4300  144.7801  160.0553 H   0  0  0  0  0  0  0  0  0  0  0  0
  152.8321  144.2141  162.0787 H   0  0  0  0  0  0  0  0  0  0  0  0
  151.5129  143.0885  161.8385 H   0  0  0  0  0  0  0  0  0  0  0  0
  154.4279  142.6526  161.0318 H   0  0  0  0  0  0  0  0  0  0  0  0
  153.5671  141.8072  162.2985 H   0  0  0  0  0  0  0  0  0  0  0  0
  153.7074  140.4466  160.1868 H   0  0  0  0  0  0  0  0  0  0  0  0
  152.0391  140.7698  160.6147 H   0  0  0  0  0  0  0  0  0  0  0  0
  152.3691  140.7020  156.7543 H   0  0  0  0  0  0  0  0  0  0  0  0
  150.9366  140.9994  158.7384 H   0  0  0  0  0  0  0  0  0  0  0  0
  151.1764  139.2893  158.4483 H   0  0  0  0  0  0  0  0  0  0  0  0
  149.6521  140.0459  157.9987 H   0  0  0  0  0  0  0  0  0  0  0  0
  150.1845  137.9022  157.0824 H   0  0  0  0  0  0  0  0  0  0  0  0
  150.4266  136.2570  154.9213 H   0  0  0  0  0  0  0  0  0  0  0  0
  151.7080  137.8584  153.0574 H   0  0  0  0  0  0  0  0  0  0  0  0
  149.8821  142.3296  157.7308 H   0  0  0  0  0  0  0  0  0  0  0  0
  1  2  1  0  0  0  0
  1 18  1  0  0  0  0
  1 19  1  0  0  0  0
  1 20  1  0  0  0  0
  2  3  1  0  0  0  0
  2 11  1  0  0  0  0
  2 21  1  0  0  0  0
  3  4  1  0  0  0  0
  3 22  1  0  0  0  0
  3 41  1  0  0  0  0
  4  5  1  0  0  0  0
  4 23  1  0  0  0  0
  4 24  1  0  0  0  0
  5 10  1  0  0  0  0
  5  6  1  0  0  0  0
  5 25  1  0  0  0  0
  6  7  1  0  0  0  0
  6 26  1  0  0  0  0
  6 27  1  0  0  0  0
  7  8  1  0  0  0  0
  7 28  1  0  0  0  0
  7 29  1  0  0  0  0
  8  9  1  0  0  0  0
  8 30  1  0  0  0  0
  8 31  1  0  0  0  0
  9 10  1  0  0  0  0
  9 32  1  0  0  0  0
  9 33  1  0  0  0  0
 11 12  1  0  0  0  0
 11 13  1  0  0  0  0
 11 34  1  0  0  0  0
 12 35  1  0  0  0  0
 12 36  1  0  0  0  0
 12 37  1  0  0  0  0
 13 17  1  0  0  0  0
 13 14  1  0  0  0  0
 14 15  2  0  0  0  0
 14 38  1  0  0  0  0
 15 16  1  0  0  0  0
 15 39  1  0  0  0  0
 16 17  2  0  0  0  0
 16 40  1  0  0  0  0
M  CHG  1   3   1
M  END
> <s_m_source_file>
AV-unprocessed.smi

> <i_m_source_file_index>
3156

> <i_lp_mmshare_version>
43012

> <i_f3d_flags>
0

> <s_epik_input>
bjFbY0hdW2NIXVtjSF1uMVtDQEBIXShbQ0gzXSlbQ0BIXShbQ0gzXSlbTkhdW0NIMl1bQ0BASF0yW0NIMl1bQ0gyXVtDSDJdW0NIMl1PMg==

> <s_epik_cmdline>
J2VwaWtfcHl0aG9uJywgJy1waCcsICc3LjAnLCAnLXRuJywgJzgnLCAnLW1hJywgJzIwMCcsICctbWV0YWxfYmluZGluZycsICctaW1hZScsICc8aW5maWxlLm1hZT4nLCAnLW9tYWUnLCAnPG91dGZpbGUubWFlPic=

> <r_lp_tautomer_probability>
1

> <r_epik_Ionization_Penalty>
0.00658015

> <r_epik_Ionization_Penalty_Charging>
0.00656881

> <r_epik_Ionization_Penalty_Neutral>
1.13431e-05

> <r_epik_State_Penalty>
0.0048654

> <r_epik_Charging_Adjusted_Penalty>
0.0114342

> <i_epik_Tot_Q>
1

> <i_epik_Tot_abs_Q>
1

> <r_epik_Metal_State_Penalty>
-0

> <b_epik_Metal_Only>
0

> <s_lp_Force_Field>
OPLS_2005

> <r_lp_Energy>
18.8572

> <b_lp_Chiralities_Consistent>
1

> <s_lp_Variant>
AV-unprocessed.smi:3156-6

> <Gold.Version>
5.8.1

> <Gold.Id.Protein>
6NUR|6NUR_protein|mol2

> <Gold.PLP.Fitness>
48.8229

> <Gold.PLP.PLP>
-39.5916

> <Gold.PLP.part.hbond>
-2.0000

> <Gold.PLP.part.metal>
0.0000

> <Gold.PLP.part.buried>
-6.0604

> <Gold.PLP.part.nonpolar>
-31.5284

> <Gold.PLP.part.repulsive>
0.1046

> <Gold.PLP.ligand.clash>
0.0000

> <Gold.PLP.ligand.torsion>
1.3964

> <Gold.PLP.Chemscore.Hbond>
3.0000

> <Gold.PLP.Chemscore.CHOScore>
0.9725

> <Gold.PLP.Chemscore.Metal>
0.0000

> <Gold.Chemscore.Hbonds>
donor molecule, donor type, donor heavy atom, donor atom, acceptor molecule, acceptor atom, score
      L1  H     3    22       P1  8028  2.00
      P1  H  7989  7998       L1    17  1.00
      L1  C    16    40       P1  7949  1.00

> <Gold.PLP.Chemscore.Internal.Correction>
0.1064

> <Gold.Rescore>
     Score         DG    S(hbond)    S(metal)    S(lipo)     H(rot)  DE(clash)    DE(int)     intcor
     19.24     -20.82       1.96        0.00     110.16       1.59       0.05       1.54       ----

> <Gold.Chemscore.Fitness>
19.2410

> <Gold.Chemscore.DG>
-20.8239

> <Gold.Chemscore.ZeroCoef>
-5.4800

> <Gold.Chemscore.Hbond>
1.9567

> <Gold.Chemscore.Metal>
0.0000

> <Gold.Chemscore.Lipo>
110.1610

> <Gold.Chemscore.Internal_Hbond>
0.0000

> <Gold.Chemscore.DEClash>
0.0468

> <Gold.Chemscore.DEInternal>
1.5361

> <Gold.Chemscore.Rot>
1.5938

> <Gold.Chemscore.Internal.Correction>
   9.000000E+99

> <Gold.Chemscore.Hbonds>
donor molecule, donor type, donor heavy atom, donor atom, acceptor molecule, acceptor atom, score
      L1  H     3    22       P1  8028  1.00
      P1  H  7989  7998       L1    17  0.96

> <Gold.Chemscore.Hbond.Weighted>
-6.5353

> <Gold.Chemscore.Metal.Weighted>
-0.0000

> <Gold.Chemscore.Lipo.Weighted>
-12.8888

> <Gold.Chemscore.Internal_Hbond.Weighted>
0.0000

> <Gold.Chemscore.DEClash.Weighted>
0.0468

> <Gold.Chemscore.DEInternal.Weighted>
1.5361

> <Gold.Chemscore.Rot.Weighted>
4.0802

> <Gold.Chemscore.Internal.Correction.Weighted>
   9.000000E+99

> <Gold.Protein.RotatedTorsions>
[ 6907 6896 6895 6894 ] final  -16.92 input  -60.11 | X-H torsion
[ 7974 7965 7964 7962 ] final -163.68 input  175.53 | X-H torsion
[ 8008 7997 7996 7995 ] final -125.23 input   59.86 | X-H torsion
[ 10167 10162 10161 10158 ] final  160.61 input  -65.29 | X-H torsion
[ 10718 10713 10712 10709 ] final  -59.32 input   66.30 | X-H torsion
[ 10763 10752 10751 10750 ] final  -33.71 input  -60.55 | X-H torsion
[ 11005 11000 10999 10996 ] final -151.17 input  -57.11 | X-H torsion

> <Gold.Protein.ActiveResidues>
 VAL166  LYS551  ARG553  GLY616  TRP617  ASP618  TYR619  PRO620  LYS621  CYS622 
 ASP623  PHE694  ASN695  SER759  ASP760  ASP761  ALA762  ILE779  LEU786  VAL792 
 PHE793  MET794  SER795  GLU796  ALA797  LYS798  CYS799  TRP800  GLU811  SER814 

> <Gold.Protein.RotatedAtoms>
  151.3012  135.0769  159.9238 H   0  0  0  0  0  0  0  0  0  0  0  0  # atno 6907 bound_to 6896
  152.5297  133.9831  159.7826 H   0  0  0  0  0  0  0  0  0  0  0  0  # atno 6908 bound_to 6896
  151.0118  133.5906  159.2712 H   0  0  0  0  0  0  0  0  0  0  0  0  # atno 6909 bound_to 6896
  144.7319  140.3071  143.6194 H   0  0  0  0  0  0  0  0  0  0  0  0  # atno 7974 bound_to 7965
  155.2098  140.0418  157.2931 H   0  0  0  0  0  0  0  0  0  0  0  0  # atno 8008 bound_to 7997
  154.6019  140.2454  155.7752 H   0  0  0  0  0  0  0  0  0  0  0  0  # atno 8009 bound_to 7997
  156.2326  140.2933  156.0238 H   0  0  0  0  0  0  0  0  0  0  0  0  # atno 8010 bound_to 7997
  139.4841  144.4617  151.8695 H   0  0  0  0  0  0  0  0  0  0  0  0  # atno 10167 bound_to 10162
  156.1070  130.4179  150.0699 H   0  0  0  0  0  0  0  0  0  0  0  0  # atno 10718 bound_to 10713
  153.8347  135.6863  153.4810 H   0  0  0  0  0  0  0  0  0  0  0  0  # atno 10763 bound_to 10752
  153.1489  135.4626  154.9606 H   0  0  0  0  0  0  0  0  0  0  0  0  # atno 10764 bound_to 10752
  154.7871  135.3288  154.7807 H   0  0  0  0  0  0  0  0  0  0  0  0  # atno 10765 bound_to 10752
  140.7325  134.3605  157.5164 H   0  0  0  0  0  0  0  0  0  0  0  0  # atno 11005 bound_to 11000
  145.7702  139.1854  143.2217 LP  0  0  0  0  0  0  0  0  0  0  0  0  # atno 17320 bound_to 7965
  146.0917  140.7648  142.9592 LP  0  0  0  0  0  0  0  0  0  0  0  0  # atno 17321 bound_to 7965
  140.4080  144.2406  150.5890 LP  0  0  0  0  0  0  0  0  0  0  0  0  # atno 17342 bound_to 10162
  140.4993  143.2323  151.8702 LP  0  0  0  0  0  0  0  0  0  0  0  0  # atno 17343 bound_to 10162
  156.8672  130.9512  151.3612 LP  0  0  0  0  0  0  0  0  0  0  0  0  # atno 17370 bound_to 10713
  157.6248  130.8683  149.9170 LP  0  0  0  0  0  0  0  0  0  0  0  0  # atno 17371 bound_to 10713
  139.8823  134.9027  156.2839 LP  0  0  0  0  0  0  0  0  0  0  0  0  # atno 17394 bound_to 11000
  140.9909  133.7209  156.0812 LP  0  0  0  0  0  0  0  0  0  0  0  0  # atno 17395 bound_to 11000

$$$$
