AV-unprocessed.smi:3343|AV-procd|sdf|12894|dock2
  -GOLD-   2272019303D 1   1.00000     0.00000
 Structure written by MMmdl.
 41 42  0  0  0  0  0  0  0  0  1 V2000
  152.9518  138.5666  154.5774 C   0  0  0  0  0  0  0  0  0  0  0  0
  151.4412  138.2568  154.5495 C   0  0  1  0  0  0  0  0  0  0  0  0
  151.1178  136.8748  155.1369 C   0  0  0  0  0  0  0  0  0  0  0  0
  151.5172  136.5643  156.2596 O   0  0  0  0  0  0  0  0  0  0  0  0
  150.3910  136.0547  154.3610 N   0  0  0  0  0  0  0  0  0  0  0  0
  149.9964  134.6929  154.7062 C   0  0  0  0  0  0  0  0  0  0  0  0
  148.4869  134.4684  154.4898 C   0  0  0  0  0  0  0  0  0  0  0  0
  148.1352  133.4139  153.5389 N   0  0  0  0  0  0  0  0  0  0  0  0
  148.1104  132.0836  154.1546 C   0  0  0  0  0  0  0  0  0  0  0  0
  147.7505  130.9943  153.1272 C   0  0  0  0  0  0  0  0  0  0  0  0
  146.4489  131.2488  152.5132 N   0  0  0  0  0  0  0  0  0  0  0  0
  146.1050  130.2193  151.5447 C   0  0  0  0  0  0  0  0  0  0  0  0
  146.4650  132.5765  151.9028 C   0  0  0  0  0  0  0  0  0  0  0  0
  146.8271  133.6632  152.9324 C   0  0  0  0  0  0  0  0  0  0  0  0
  150.6502  139.2840  155.2165 N   0  0  0  0  0  0  0  0  0  0  0  0
  149.8740  139.1984  156.2992 C   0  0  0  0  0  0  0  0  0  0  0  0
  149.3314  140.3506  156.6667 N   0  0  0  0  0  0  0  0  0  0  0  0
  149.8614  141.1675  155.7088 C   0  0  0  0  0  0  0  0  0  0  0  0
  150.6664  140.5822  154.8226 N   0  0  0  0  0  0  0  0  0  0  0  0
  153.5163  137.8116  154.0290 H   0  0  0  0  0  0  0  0  0  0  0  0
  153.3476  138.5992  155.5934 H   0  0  0  0  0  0  0  0  0  0  0  0
  153.1587  139.5306  154.1118 H   0  0  0  0  0  0  0  0  0  0  0  0
  151.1358  138.2506  153.5016 H   0  0  0  0  0  0  0  0  0  0  0  0
  150.1066  136.3921  153.4530 H   0  0  0  0  0  0  0  0  0  0  0  0
  150.5982  133.9544  154.1754 H   0  0  0  0  0  0  0  0  0  0  0  0
  150.2246  134.5507  155.7626 H   0  0  0  0  0  0  0  0  0  0  0  0
  148.0160  134.2597  155.4514 H   0  0  0  0  0  0  0  0  0  0  0  0
  148.0573  135.4119  154.1504 H   0  0  0  0  0  0  0  0  0  0  0  0
  149.0824  131.8445  154.5838 H   0  0  0  0  0  0  0  0  0  0  0  0
  147.3934  132.0643  154.9770 H   0  0  0  0  0  0  0  0  0  0  0  0
  148.5247  130.9475  152.3595 H   0  0  0  0  0  0  0  0  0  0  0  0
  147.7412  130.0217  153.6207 H   0  0  0  0  0  0  0  0  0  0  0  0
  145.1222  130.4089  151.1120 H   0  0  0  0  0  0  0  0  0  0  0  0
  146.0752  129.2380  152.0193 H   0  0  0  0  0  0  0  0  0  0  0  0
  146.8325  130.1828  150.7327 H   0  0  0  0  0  0  0  0  0  0  0  0
  147.1805  132.6012  151.0791 H   0  0  0  0  0  0  0  0  0  0  0  0
  145.4868  132.7967  151.4739 H   0  0  0  0  0  0  0  0  0  0  0  0
  146.0579  133.7075  153.7054 H   0  0  0  0  0  0  0  0  0  0  0  0
  146.8290  134.6355  152.4383 H   0  0  0  0  0  0  0  0  0  0  0  0
  149.7048  138.2741  156.8321 H   0  0  0  0  0  0  0  0  0  0  0  0
  149.6526  142.2263  155.6666 H   0  0  0  0  0  0  0  0  0  0  0  0
  1  2  1  0  0  0  0
  1 20  1  0  0  0  0
  1 21  1  0  0  0  0
  1 22  1  0  0  0  0
  2  3  1  0  0  0  0
  2 15  1  0  0  0  0
  2 23  1  0  0  0  0
  3  4  2  0  0  0  0
  3  5  1  0  0  0  0
  5  6  1  0  0  0  0
  5 24  1  0  0  0  0
  6  7  1  0  0  0  0
  6 25  1  0  0  0  0
  6 26  1  0  0  0  0
  7  8  1  0  0  0  0
  7 27  1  0  0  0  0
  7 28  1  0  0  0  0
  8 14  1  0  0  0  0
  8  9  1  0  0  0  0
  9 10  1  0  0  0  0
  9 29  1  0  0  0  0
  9 30  1  0  0  0  0
 10 11  1  0  0  0  0
 10 31  1  0  0  0  0
 10 32  1  0  0  0  0
 11 12  1  0  0  0  0
 11 13  1  0  0  0  0
 12 33  1  0  0  0  0
 12 34  1  0  0  0  0
 12 35  1  0  0  0  0
 13 14  1  0  0  0  0
 13 36  1  0  0  0  0
 13 37  1  0  0  0  0
 14 38  1  0  0  0  0
 14 39  1  0  0  0  0
 15 19  1  0  0  0  0
 15 16  1  0  0  0  0
 16 17  2  0  0  0  0
 16 40  1  0  0  0  0
 17 18  1  0  0  0  0
 18 19  2  0  0  0  0
 18 41  1  0  0  0  0
M  END
> <s_m_source_file>
AV-unprocessed.smi

> <i_m_source_file_index>
3343

> <i_lp_mmshare_version>
43012

> <i_f3d_flags>
0

> <s_epik_input>
bjFbY0hdbltjSF1uMVtDQEhdKFtDSDNdKUMoPU8pW05IXVtDSDJdW0NIMl1OMltDSDJdW0NIMl1OKFtDSDNdKVtDSDJdW0NIMl0y

> <s_epik_cmdline>
J2VwaWtfcHl0aG9uJywgJy1waCcsICc3LjAnLCAnLXRuJywgJzgnLCAnLW1hJywgJzIwMCcsICctbWV0YWxfYmluZGluZycsICctaW1hZScsICc8aW5maWxlLm1hZT4nLCAnLW9tYWUnLCAnPG91dGZpbGUubWFlPic=

> <r_lp_tautomer_probability>
1

> <r_epik_Ionization_Penalty>
1.97295

> <r_epik_Ionization_Penalty_Charging>
0

> <r_epik_Ionization_Penalty_Neutral>
1.97295

> <r_epik_State_Penalty>
1.8027

> <r_epik_Charging_Adjusted_Penalty>
1.8027

> <i_epik_Tot_Q>
0

> <i_epik_Tot_abs_Q>
0

> <r_epik_Metal_State_Penalty>
1.8027

> <b_epik_Metal_Only>
0

> <s_lp_Force_Field>
OPLS_2005

> <r_lp_Energy>
40.9653

> <b_lp_Chiralities_Consistent>
1

> <s_lp_Variant>
AV-unprocessed.smi:3343-4

> <Gold.Version>
5.8.1

> <Gold.Id.Protein>
6NUR|6NUR_protein|mol2

> <Gold.PLP.Fitness>
35.2285

> <Gold.PLP.PLP>
-29.0222

> <Gold.PLP.part.hbond>
-3.0000

> <Gold.PLP.part.metal>
0.0000

> <Gold.PLP.part.buried>
-2.9845

> <Gold.PLP.part.nonpolar>
-23.8149

> <Gold.PLP.part.repulsive>
0.5083

> <Gold.PLP.ligand.clash>
0.0000

> <Gold.PLP.ligand.torsion>
0.9542

> <Gold.PLP.Chemscore.Hbond>
1.6600

> <Gold.PLP.Chemscore.CHOScore>
1.0000

> <Gold.PLP.Chemscore.Metal>
0.0000

> <Gold.Chemscore.Hbonds>
donor molecule, donor type, donor heavy atom, donor atom, acceptor molecule, acceptor atom, score
      L1  H     5    24       P1  7948  0.60
      P1  H  7989  7998       L1    19  0.99
      P1  H 10752 10764       L1     4  0.05
      L1  C    18    41       P1  8028  0.81

> <Gold.PLP.Chemscore.Internal.Correction>
0.1347

> <Gold.Rescore>
     Score         DG    S(hbond)    S(metal)    S(lipo)     H(rot)  DE(clash)    DE(int)     intcor
      8.05      -9.11       1.15        0.00      54.22       2.56       0.00       1.06       ----

> <Gold.Chemscore.Fitness>
8.0493

> <Gold.Chemscore.DG>
-9.1096

> <Gold.Chemscore.ZeroCoef>
-5.4800

> <Gold.Chemscore.Hbond>
1.1478

> <Gold.Chemscore.Metal>
0.0000

> <Gold.Chemscore.Lipo>
54.2179

> <Gold.Chemscore.Internal_Hbond>
0.0000

> <Gold.Chemscore.DEClash>
0.0000

> <Gold.Chemscore.DEInternal>
1.0603

> <Gold.Chemscore.Rot>
2.5577

> <Gold.Chemscore.Internal.Correction>
   9.000000E+99

> <Gold.Chemscore.Hbonds>
donor molecule, donor type, donor heavy atom, donor atom, acceptor molecule, acceptor atom, score
      L1  H     5    24       P1  7948  0.04
      P1  H  7989  7998       L1    19  0.84

> <Gold.Chemscore.Hbond.Weighted>
-3.8338

> <Gold.Chemscore.Metal.Weighted>
-0.0000

> <Gold.Chemscore.Lipo.Weighted>
-6.3435

> <Gold.Chemscore.Internal_Hbond.Weighted>
0.0000

> <Gold.Chemscore.DEClash.Weighted>
0.0000

> <Gold.Chemscore.DEInternal.Weighted>
1.0603

> <Gold.Chemscore.Rot.Weighted>
6.5477

> <Gold.Chemscore.Internal.Correction.Weighted>
   9.000000E+99

> <Gold.Protein.RotatedTorsions>
[ 6907 6896 6895 6894 ] final -135.26 input  -60.11 | X-H torsion
[ 7974 7965 7964 7962 ] final -125.48 input  175.53 | X-H torsion
[ 8008 7997 7996 7995 ] final  141.00 input   59.86 | X-H torsion
[ 10167 10162 10161 10158 ] final -147.38 input  -65.29 | X-H torsion
[ 10718 10713 10712 10709 ] final  -90.41 input   66.30 | X-H torsion
[ 10763 10752 10751 10750 ] final  -27.91 input  -60.55 | X-H torsion
[ 11005 11000 10999 10996 ] final  171.71 input  -57.11 | X-H torsion

> <Gold.Protein.ActiveResidues>
 VAL166  LYS551  ARG553  GLY616  TRP617  ASP618  TYR619  PRO620  LYS621  CYS622 
 ASP623  PHE694  ASN695  SER759  ASP760  ASP761  ALA762  ILE779  LEU786  VAL792 
 PHE793  MET794  SER795  GLU796  ALA797  LYS798  CYS799  TRP800  GLU811  SER814 

> <Gold.Protein.RotatedAtoms>
  150.9957  133.6105  159.2701 H   0  0  0  0  0  0  0  0  0  0  0  0  # atno 6907 bound_to 6896
  151.3309  135.0840  159.9348 H   0  0  0  0  0  0  0  0  0  0  0  0  # atno 6908 bound_to 6896
  152.5259  133.9587  159.7761 H   0  0  0  0  0  0  0  0  0  0  0  0  # atno 6909 bound_to 6896
  144.9971  140.7786  143.4518 H   0  0  0  0  0  0  0  0  0  0  0  0  # atno 7974 bound_to 7965
  156.2972  140.2327  156.4492 H   0  0  0  0  0  0  0  0  0  0  0  0  # atno 8008 bound_to 7997
  154.8116  140.0442  157.1367 H   0  0  0  0  0  0  0  0  0  0  0  0  # atno 8009 bound_to 7997
  154.9416  140.3030  155.5121 H   0  0  0  0  0  0  0  0  0  0  0  0  # atno 8010 bound_to 7997
  139.7627  143.8352  152.2610 H   0  0  0  0  0  0  0  0  0  0  0  0  # atno 10167 bound_to 10162
  155.9988  130.4909  150.5318 H   0  0  0  0  0  0  0  0  0  0  0  0  # atno 10718 bound_to 10713
  153.7397  135.6933  153.4970 H   0  0  0  0  0  0  0  0  0  0  0  0  # atno 10763 bound_to 10752
  153.2078  135.4413  155.0342 H   0  0  0  0  0  0  0  0  0  0  0  0  # atno 10764 bound_to 10752
  154.8225  135.3429  154.6923 H   0  0  0  0  0  0  0  0  0  0  0  0  # atno 10765 bound_to 10752
  140.3219  134.7430  157.4070 H   0  0  0  0  0  0  0  0  0  0  0  0  # atno 11005 bound_to 11000
  145.2204  139.2162  143.5096 LP  0  0  0  0  0  0  0  0  0  0  0  0  # atno 17320 bound_to 7965
  146.3444  140.2061  142.8589 LP  0  0  0  0  0  0  0  0  0  0  0  0  # atno 17321 bound_to 7965
  139.8363  144.7230  150.9386 LP  0  0  0  0  0  0  0  0  0  0  0  0  # atno 17342 bound_to 10162
  140.7808  143.4023  151.1128 LP  0  0  0  0  0  0  0  0  0  0  0  0  # atno 17343 bound_to 10162
  157.3266  131.0692  151.1892 LP  0  0  0  0  0  0  0  0  0  0  0  0  # atno 17370 bound_to 10713
  157.2787  130.6739  149.6055 LP  0  0  0  0  0  0  0  0  0  0  0  0  # atno 17371 bound_to 10713
  140.0935  134.5569  155.8421 LP  0  0  0  0  0  0  0  0  0  0  0  0  # atno 17394 bound_to 11000
  141.2084  133.6674  156.6372 LP  0  0  0  0  0  0  0  0  0  0  0  0  # atno 17395 bound_to 11000

$$$$
