AV-unprocessed.smi:132|AV-procd|sdf|1163|dock3
  -GOLD-   2262018303D 1   1.00000     0.00000
 Structure written by MMmdl.
 41 44  0  0  0  0  0  0  0  0  1 V2000
  148.7101  139.0925  157.3467 O   0  0  0  0  0  0  0  0  0  0  0  0
  149.5549  139.9497  157.6102 C   0  0  0  0  0  0  0  0  0  0  0  0
  149.4458  141.3405  157.1833 C   0  0  0  0  0  0  0  0  0  0  0  0
  148.3898  141.7298  156.4492 F   0  0  0  0  0  0  0  0  0  0  0  0
  150.3900  142.2472  157.5147 C   0  0  0  0  0  0  0  0  0  0  0  0
  151.5075  141.9341  158.2687 N   0  0  0  0  0  0  0  0  0  0  0  0
  152.5178  143.0015  158.6150 C   0  0  2  0  0  0  0  0  0  0  0  0
  152.6117  143.1811  160.1363 C   0  0  0  0  0  0  0  0  0  0  0  0
  151.8619  144.4790  160.3584 C   0  0  0  0  0  0  0  0  0  0  0  0
  152.1344  145.2235  159.0576 C   0  0  0  0  0  0  0  0  0  0  0  0
  152.0910  144.2113  158.0602 O   0  0  0  0  0  0  0  0  0  0  0  0
  151.6913  140.6144  158.7367 C   0  0  0  0  0  0  0  0  0  0  0  0
  152.6553  140.3172  159.4461 O   0  0  0  0  0  0  0  0  0  0  0  0
  150.7134  139.6583  158.3727 N   0  0  0  0  0  0  0  0  0  0  0  0
  150.8899  138.2960  158.8518 C   0  0  0  0  0  0  0  0  0  0  0  0
  151.1228  137.3264  157.7300 C   0  0  0  0  0  0  0  0  0  0  0  0
  152.2780  136.9660  157.1630 N   0  0  0  0  0  0  0  0  0  0  0  0
  151.9499  136.0498  156.1909 N   0  0  0  0  0  0  0  0  0  0  0  0
  150.6201  135.9152  156.2388 C   0  0  0  0  0  0  0  0  0  0  0  0
  149.7635  135.0564  155.4216 C   0  0  0  0  0  0  0  0  0  0  0  0
  148.3950  135.3614  155.2372 C   0  0  0  0  0  0  0  0  0  0  0  0
  147.5780  134.5257  154.4510 C   0  0  0  0  0  0  0  0  0  0  0  0
  148.1208  133.3784  153.8418 C   0  0  0  0  0  0  0  0  0  0  0  0
  147.1186  132.3545  152.8806 Cl  0  0  0  0  0  0  0  0  0  0  0  0
  149.4826  133.0682  154.0193 C   0  0  0  0  0  0  0  0  0  0  0  0
  150.3001  133.9034  154.8053 C   0  0  0  0  0  0  0  0  0  0  0  0
  150.0462  136.6988  157.1917 O   0  0  0  0  0  0  0  0  0  0  0  0
  150.2575  143.2632  157.1737 H   0  0  0  0  0  0  0  0  0  0  0  0
  153.4650  142.7177  158.1553 H   0  0  0  0  0  0  0  0  0  0  0  0
  152.1955  142.3324  160.6810 H   0  0  0  0  0  0  0  0  0  0  0  0
  153.6619  143.2940  160.4078 H   0  0  0  0  0  0  0  0  0  0  0  0
  150.7942  144.2857  160.4672 H   0  0  0  0  0  0  0  0  0  0  0  0
  152.2009  145.0234  161.2399 H   0  0  0  0  0  0  0  0  0  0  0  0
  151.4078  146.0119  158.8606 H   0  0  0  0  0  0  0  0  0  0  0  0
  153.1302  145.6691  159.0726 H   0  0  0  0  0  0  0  0  0  0  0  0
  151.7217  138.2735  159.5567 H   0  0  0  0  0  0  0  0  0  0  0  0
  150.0037  138.0192  159.4252 H   0  0  0  0  0  0  0  0  0  0  0  0
  147.9569  136.2357  155.6956 H   0  0  0  0  0  0  0  0  0  0  0  0
  146.5337  134.7667  154.3171 H   0  0  0  0  0  0  0  0  0  0  0  0
  149.9027  132.1888  153.5537 H   0  0  0  0  0  0  0  0  0  0  0  0
  151.3426  133.6503  154.9316 H   0  0  0  0  0  0  0  0  0  0  0  0
  1  2  2  0  0  0  0
  2 14  1  0  0  0  0
  2  3  1  0  0  0  0
  3  4  1  0  0  0  0
  3  5  2  0  0  0  0
  5  6  1  0  0  0  0
  5 28  1  0  0  0  0
  6  7  1  0  0  0  0
  6 12  1  0  0  0  0
  7 11  1  0  0  0  0
  7  8  1  0  0  0  0
  7 29  1  0  0  0  0
  8  9  1  0  0  0  0
  8 30  1  0  0  0  0
  8 31  1  0  0  0  0
  9 10  1  0  0  0  0
  9 32  1  0  0  0  0
  9 33  1  0  0  0  0
 10 11  1  0  0  0  0
 10 34  1  0  0  0  0
 10 35  1  0  0  0  0
 12 13  2  0  0  0  0
 12 14  1  0  0  0  0
 14 15  1  0  0  0  0
 15 16  1  0  0  0  0
 15 36  1  0  0  0  0
 15 37  1  0  0  0  0
 16 27  1  0  0  0  0
 16 17  2  0  0  0  0
 17 18  1  0  0  0  0
 18 19  2  0  0  0  0
 19 20  1  0  0  0  0
 19 27  1  0  0  0  0
 20 26  1  0  0  0  0
 20 21  2  0  0  0  0
 21 22  1  0  0  0  0
 21 38  1  0  0  0  0
 22 23  2  0  0  0  0
 22 39  1  0  0  0  0
 23 24  1  0  0  0  0
 23 25  1  0  0  0  0
 25 26  2  0  0  0  0
 25 40  1  0  0  0  0
 26 41  1  0  0  0  0
M  END
> <s_m_source_file>
AV-unprocessed.smi

> <i_m_source_file_index>
132

> <i_lp_mmshare_version>
43012

> <i_f3d_flags>
0

> <s_epik_input>
TzFbQ0gyXVtDSDJdW0NIMl1bQ0BIXTFuKFtjSF1jKEYpYzI9TyljKD1PKW4yW0NIMl1jM25uYyhvMyktYzRbY0hdW2NIXWMoQ2wpW2NIXVtjSF00

> <s_epik_cmdline>
J2VwaWtfcHl0aG9uJywgJy1waCcsICc3LjAnLCAnLXRuJywgJzgnLCAnLW1hJywgJzIwMCcsICctbWV0YWxfYmluZGluZycsICctaW1hZScsICc8aW5maWxlLm1hZT4nLCAnLW9tYWUnLCAnPG91dGZpbGUubWFlPic=

> <r_lp_tautomer_probability>
1

> <r_epik_Ionization_Penalty>
2.5553e-09

> <r_epik_Ionization_Penalty_Charging>
2.54231e-09

> <r_epik_Ionization_Penalty_Neutral>
1.29923e-11

> <r_epik_State_Penalty>
-0

> <r_epik_Charging_Adjusted_Penalty>
2.54231e-09

> <i_epik_Tot_Q>
0

> <i_epik_Tot_abs_Q>
0

> <r_epik_Metal_State_Penalty>
-0

> <b_epik_Metal_Only>
0

> <s_epik_Chemistry_Notes>
This compound contains an acetal/aminal-like group ( X-CH(R)-Y where X, Y are N, S, or O) that may be acid/base labile, releasing an aldehyde.

> <s_lp_Force_Field>
OPLS_2005

> <r_lp_Energy>
32.6339

> <b_lp_Chiralities_Consistent>
1

> <s_lp_Variant>
AV-unprocessed.smi:132-1

> <Gold.Version>
5.8.1

> <Gold.Id.Protein>
6NUR|6NUR_protein|mol2

> <Gold.PLP.Fitness>
48.3838

> <Gold.PLP.PLP>
-43.6534

> <Gold.PLP.part.hbond>
-1.0000

> <Gold.PLP.part.metal>
0.0000

> <Gold.PLP.part.buried>
-7.9168

> <Gold.PLP.part.nonpolar>
-34.3748

> <Gold.PLP.part.repulsive>
0.0738

> <Gold.PLP.ligand.clash>
0.0000

> <Gold.PLP.ligand.torsion>
0.6499

> <Gold.PLP.Chemscore.Hbond>
1.0000

> <Gold.PLP.Chemscore.CHOScore>
0.9974

> <Gold.PLP.Chemscore.Metal>
0.0000

> <Gold.Chemscore.Hbonds>
donor molecule, donor type, donor heavy atom, donor atom, acceptor molecule, acceptor atom, score
      P1  H 10752 10764       L1    18  1.00
      L1  C     5    28       P1  8028  1.00

> <Gold.PLP.Chemscore.Internal.Correction>
0.0379

> <Gold.Rescore>
     Score         DG    S(hbond)    S(metal)    S(lipo)     H(rot)  DE(clash)    DE(int)     intcor
     11.35     -14.46       0.99        0.00      85.60       1.70       0.25       2.86       ----

> <Gold.Chemscore.Fitness>
11.3528

> <Gold.Chemscore.DG>
-14.4605

> <Gold.Chemscore.ZeroCoef>
-5.4800

> <Gold.Chemscore.Hbond>
0.9917

> <Gold.Chemscore.Metal>
0.0000

> <Gold.Chemscore.Lipo>
85.6003

> <Gold.Chemscore.Internal_Hbond>
0.0000

> <Gold.Chemscore.DEClash>
0.2475

> <Gold.Chemscore.DEInternal>
2.8602

> <Gold.Chemscore.Rot>
1.6980

> <Gold.Chemscore.Internal.Correction>
   9.000000E+99

> <Gold.Chemscore.Hbonds>
donor molecule, donor type, donor heavy atom, donor atom, acceptor molecule, acceptor atom, score
      P1  H 10752 10764       L1    18  0.99

> <Gold.Chemscore.Hbond.Weighted>
-3.3121

> <Gold.Chemscore.Metal.Weighted>
-0.0000

> <Gold.Chemscore.Lipo.Weighted>
-10.0152

> <Gold.Chemscore.Internal_Hbond.Weighted>
0.0000

> <Gold.Chemscore.DEClash.Weighted>
0.2475

> <Gold.Chemscore.DEInternal.Weighted>
2.8602

> <Gold.Chemscore.Rot.Weighted>
4.3469

> <Gold.Chemscore.Internal.Correction.Weighted>
   9.000000E+99

> <Gold.Protein.RotatedTorsions>
[ 6907 6896 6895 6894 ] final   68.82 input  -60.11 | X-H torsion
[ 7974 7965 7964 7962 ] final  -33.64 input  175.53 | X-H torsion
[ 8008 7997 7996 7995 ] final  174.21 input   59.86 | X-H torsion
[ 10167 10162 10161 10158 ] final -157.94 input  -65.29 | X-H torsion
[ 10718 10713 10712 10709 ] final   70.68 input   66.30 | X-H torsion
[ 10763 10752 10751 10750 ] final  -36.89 input  -60.55 | X-H torsion
[ 11005 11000 10999 10996 ] final  -57.38 input  -57.11 | X-H torsion

> <Gold.Protein.ActiveResidues>
 VAL166  LYS551  ARG553  GLY616  TRP617  ASP618  TYR619  PRO620  LYS621  CYS622 
 ASP623  PHE694  ASN695  SER759  ASP760  ASP761  ALA762  ILE779  LEU786  VAL792 
 PHE793  MET794  SER795  GLU796  ALA797  LYS798  CYS799  TRP800  GLU811  SER814 

> <Gold.Protein.RotatedAtoms>
  152.4646  134.5105  159.9752 H   0  0  0  0  0  0  0  0  0  0  0  0  # atno 6907 bound_to 6896
  151.5146  133.3472  159.2899 H   0  0  0  0  0  0  0  0  0  0  0  0  # atno 6908 bound_to 6896
  150.8624  134.8008  159.7155 H   0  0  0  0  0  0  0  0  0  0  0  0  # atno 6909 bound_to 6896
  146.0894  140.5941  142.8871 H   0  0  0  0  0  0  0  0  0  0  0  0  # atno 7974 bound_to 7965
  156.0998  140.1440  156.9483 H   0  0  0  0  0  0  0  0  0  0  0  0  # atno 8008 bound_to 7997
  154.4695  140.0915  156.7152 H   0  0  0  0  0  0  0  0  0  0  0  0  # atno 8009 bound_to 7997
  155.4780  140.3444  155.4337 H   0  0  0  0  0  0  0  0  0  0  0  0  # atno 8010 bound_to 7997
  139.6731  143.9711  152.2295 H   0  0  0  0  0  0  0  0  0  0  0  0  # atno 10167 bound_to 10162
  157.6412  130.9489  150.0684 H   0  0  0  0  0  0  0  0  0  0  0  0  # atno 10718 bound_to 10713
  153.8872  135.6816  153.4763 H   0  0  0  0  0  0  0  0  0  0  0  0  # atno 10763 bound_to 10752
  153.1201  135.4744  154.9179 H   0  0  0  0  0  0  0  0  0  0  0  0  # atno 10764 bound_to 10752
  154.7640  135.3219  154.8275 H   0  0  0  0  0  0  0  0  0  0  0  0  # atno 10765 bound_to 10752
  141.1162  133.6610  156.4760 H   0  0  0  0  0  0  0  0  0  0  0  0  # atno 11005 bound_to 11000
  144.7349  140.4780  143.6911 LP  0  0  0  0  0  0  0  0  0  0  0  0  # atno 17320 bound_to 7965
  145.6067  139.1509  143.3098 LP  0  0  0  0  0  0  0  0  0  0  0  0  # atno 17321 bound_to 7965
  139.9481  144.6638  150.8199 LP  0  0  0  0  0  0  0  0  0  0  0  0  # atno 17342 bound_to 10162
  140.7625  143.3200  151.2643 LP  0  0  0  0  0  0  0  0  0  0  0  0  # atno 17343 bound_to 10162
  156.1695  130.3646  149.9185 LP  0  0  0  0  0  0  0  0  0  0  0  0  # atno 17370 bound_to 10713
  156.7163  130.8990  151.3614 LP  0  0  0  0  0  0  0  0  0  0  0  0  # atno 17371 bound_to 10713
  140.4639  134.6816  157.5098 LP  0  0  0  0  0  0  0  0  0  0  0  0  # atno 17394 bound_to 11000
  140.0086  134.6726  155.9416 LP  0  0  0  0  0  0  0  0  0  0  0  0  # atno 17395 bound_to 11000

$$$$
