AV-unprocessed.smi:911|AV-procd|sdf|4136|dock6
  -GOLD-   22720 2 43D 1   1.00000     0.00000
 Structure written by MMmdl.
 47 49  0  0  0  0  0  0  0  0  3 V2000
  142.8897  136.1518  152.9414 C   0  0  0  0  0  0  0  0  0  0  0  0
  143.8802  135.0809  152.4043 C   0  0  0  0  0  0  0  0  0  0  0  0
  142.9952  133.8713  151.9912 C   0  0  0  0  0  0  0  0  0  0  0  0
  144.8174  135.5847  151.2883 C   0  0  2  0  0  0  0  0  0  0  0  0
  145.7647  134.3897  151.0396 C   0  0  0  0  0  0  0  0  0  0  0  0
  145.9251  133.7905  152.4507 C   0  0  0  0  0  0  0  0  0  0  0  0
  145.0835  134.7559  153.3311 C   0  0  2  0  0  0  0  0  0  0  0  0
  144.7244  134.1613  154.7036 C   0  0  0  0  0  0  0  0  0  0  0  0
  145.8330  136.1244  153.4133 C   0  0  1  0  0  0  0  0  0  0  0  0
  147.2498  136.0206  153.7643 N   0  0  0  0  0  0  0  0  0  0  0  0
  147.7357  135.8937  155.0081 C   0  0  0  0  0  0  0  0  0  0  0  0
  147.0223  135.8451  156.0111 O   0  0  0  0  0  0  0  0  0  0  0  0
  149.2621  135.7803  155.1244 C   0  0  0  0  0  0  0  0  0  0  0  0
  149.9385  137.0881  155.1461 N   0  0  0  0  0  0  0  0  0  0  0  0
  149.1941  138.2020  154.7095 C   0  0  0  0  0  0  0  0  0  0  0  0
  149.7167  139.4435  154.6754 C   0  0  0  0  0  0  0  0  0  0  0  0
  148.9406  140.5744  154.2167 N   0  3  0  0  0  0  0  0  0  0  0  0
  149.4780  141.6761  154.1689 O   0  0  0  0  0  0  0  0  0  0  0  0
  147.7703  140.4003  153.8901 O   0  5  0  0  0  0  0  0  0  0  0  0
  151.0903  139.6089  155.1099 C   0  0  0  0  0  0  0  0  0  0  0  0
  151.8083  138.5471  155.5252 C   0  0  0  0  0  0  0  0  0  0  0  0
  151.2394  137.1959  155.5561 C   0  0  0  0  0  0  0  0  0  0  0  0
  151.8926  136.2206  155.9274 O   0  0  0  0  0  0  0  0  0  0  0  0
  145.6533  136.6821  151.9829 C   0  0  0  0  0  0  0  0  0  0  0  0
  142.1567  136.4132  152.1776 H   0  0  0  0  0  0  0  0  0  0  0  0
  143.3442  137.0870  153.2599 H   0  0  0  0  0  0  0  0  0  0  0  0
  142.3351  135.7690  153.7987 H   0  0  0  0  0  0  0  0  0  0  0  0
  143.5344  133.0217  151.5787 H   0  0  0  0  0  0  0  0  0  0  0  0
  142.2699  134.1698  151.2338 H   0  0  0  0  0  0  0  0  0  0  0  0
  142.4290  133.4961  152.8442 H   0  0  0  0  0  0  0  0  0  0  0  0
  144.3142  135.9323  150.3854 H   0  0  0  0  0  0  0  0  0  0  0  0
  145.3282  133.6667  150.3500 H   0  0  0  0  0  0  0  0  0  0  0  0
  146.7199  134.7009  150.6152 H   0  0  0  0  0  0  0  0  0  0  0  0
  145.5331  132.7739  152.4872 H   0  0  0  0  0  0  0  0  0  0  0  0
  146.9698  133.7150  152.7511 H   0  0  0  0  0  0  0  0  0  0  0  0
  145.6213  133.9235  155.2755 H   0  0  0  0  0  0  0  0  0  0  0  0
  144.1501  133.2408  154.6008 H   0  0  0  0  0  0  0  0  0  0  0  0
  144.1318  134.8590  155.2953 H   0  0  0  0  0  0  0  0  0  0  0  0
  145.3409  136.7910  154.1230 H   0  0  0  0  0  0  0  0  0  0  0  0
  147.9087  136.0458  152.9996 H   0  0  0  0  0  0  0  0  0  0  0  0
  149.4916  135.2173  156.0299 H   0  0  0  0  0  0  0  0  0  0  0  0
  149.6457  135.1687  154.3053 H   0  0  0  0  0  0  0  0  0  0  0  0
  148.1847  137.9726  154.3992 H   0  0  0  0  0  0  0  0  0  0  0  0
  151.5533  140.5849  155.1050 H   0  0  0  0  0  0  0  0  0  0  0  0
  152.8300  138.6928  155.8439 H   0  0  0  0  0  0  0  0  0  0  0  0
  146.5995  136.8588  151.4692 H   0  0  0  0  0  0  0  0  0  0  0  0
  145.1257  137.6358  151.9973 H   0  0  0  0  0  0  0  0  0  0  0  0
  1  2  1  0  0  0  0
  1 25  1  0  0  0  0
  1 26  1  0  0  0  0
  1 27  1  0  0  0  0
  2  7  1  0  0  0  0
  2  3  1  0  0  0  0
  2  4  1  0  0  0  0
  3 28  1  0  0  0  0
  3 29  1  0  0  0  0
  3 30  1  0  0  0  0
  4 24  1  0  0  0  0
  4  5  1  0  0  0  0
  4 31  1  0  0  0  0
  5  6  1  0  0  0  0
  5 32  1  0  0  0  0
  5 33  1  0  0  0  0
  6  7  1  0  0  0  0
  6 34  1  0  0  0  0
  6 35  1  0  0  0  0
  7  8  1  0  0  0  0
  7  9  1  0  0  0  0
  8 36  1  0  0  0  0
  8 37  1  0  0  0  0
  8 38  1  0  0  0  0
  9 10  1  0  0  0  0
  9 24  1  0  0  0  0
  9 39  1  0  0  0  0
 10 11  1  0  0  0  0
 10 40  1  0  0  0  0
 11 12  2  0  0  0  0
 11 13  1  0  0  0  0
 13 14  1  0  0  0  0
 13 41  1  0  0  0  0
 13 42  1  0  0  0  0
 14 22  1  0  0  0  0
 14 15  1  0  0  0  0
 15 16  2  0  0  0  0
 15 43  1  0  0  0  0
 16 17  1  0  0  0  0
 16 20  1  0  0  0  0
 17 18  2  0  0  0  0
 17 19  1  0  0  0  0
 20 21  2  0  0  0  0
 20 44  1  0  0  0  0
 21 22  1  0  0  0  0
 21 45  1  0  0  0  0
 22 23  2  0  0  0  0
 24 46  1  0  0  0  0
 24 47  1  0  0  0  0
M  CHG  1  17   1
M  CHG  1  19  -1
M  END
> <s_m_source_file>
AV-unprocessed.smi

> <i_m_source_file_index>
911

> <i_lp_mmshare_version>
43012

> <i_f3d_flags>
0

> <s_epik_input>
W0NIM11bQ0BdMTJDKFtDSDNdKShbQ0gzXSlbQ0BIXShbQ0gyXVtDSDJdMSlbQ0gyXVtDQEBIXTJbTkhdQyg9TylbQ0gyXW4zW2NIXWMoW04rXSg9TylbTy1dKVtjSF1bY0hdYzM9Tw==

> <s_epik_cmdline>
J2VwaWtfcHl0aG9uJywgJy1waCcsICc3LjAnLCAnLXRuJywgJzgnLCAnLW1hJywgJzIwMCcsICctbWV0YWxfYmluZGluZycsICctaW1hZScsICc8aW5maWxlLm1hZT4nLCAnLW9tYWUnLCAnPG91dGZpbGUubWFlPic=

> <r_lp_tautomer_probability>
1

> <r_epik_Ionization_Penalty>
2.04092e-08

> <r_epik_Ionization_Penalty_Charging>
8.54191e-11

> <r_epik_Ionization_Penalty_Neutral>
2.03238e-08

> <r_epik_State_Penalty>
-0

> <r_epik_Charging_Adjusted_Penalty>
8.54191e-11

> <i_epik_Tot_Q>
0

> <i_epik_Tot_abs_Q>
2

> <r_epik_Metal_State_Penalty>
-0

> <b_epik_Metal_Only>
0

> <s_lp_Force_Field>
OPLS_2005

> <r_lp_Energy>
67.3082

> <b_lp_Chiralities_Consistent>
1

> <s_lp_Variant>
AV-unprocessed.smi:911-1

> <Gold.Version>
5.8.1

> <Gold.Id.Protein>
6NUR|6NUR_protein|mol2

> <Gold.PLP.Fitness>
38.8172

> <Gold.PLP.PLP>
-32.7923

> <Gold.PLP.part.hbond>
-4.0000

> <Gold.PLP.part.metal>
0.0000

> <Gold.PLP.part.buried>
-0.2626

> <Gold.PLP.part.nonpolar>
-29.4002

> <Gold.PLP.part.repulsive>
0.4018

> <Gold.PLP.ligand.clash>
0.1203

> <Gold.PLP.ligand.torsion>
0.8254

> <Gold.PLP.Chemscore.Hbond>
2.5910

> <Gold.PLP.Chemscore.CHOScore>
0.0000

> <Gold.PLP.Chemscore.Metal>
0.0000

> <Gold.Chemscore.Hbonds>
donor molecule, donor type, donor heavy atom, donor atom, acceptor molecule, acceptor atom, score
      L1  H    10    40       P1  7948  1.00
      P1  H  7989  7998       L1    18  0.03
      P1  H  8011  8017       L1    18  0.54
      P1  H 10752 10764       L1    23  1.00

> <Gold.PLP.Chemscore.Internal.Correction>
0.0229

> <Gold.Rescore>
     Score         DG    S(hbond)    S(metal)    S(lipo)     H(rot)  DE(clash)    DE(int)     intcor
     17.23     -18.37       2.53        0.00      71.26       1.53       0.28       0.86       ----

> <Gold.Chemscore.Fitness>
17.2289

> <Gold.Chemscore.DG>
-18.3688

> <Gold.Chemscore.ZeroCoef>
-5.4800

> <Gold.Chemscore.Hbond>
2.5336

> <Gold.Chemscore.Metal>
0.0000

> <Gold.Chemscore.Lipo>
71.2624

> <Gold.Chemscore.Internal_Hbond>
0.0000

> <Gold.Chemscore.DEClash>
0.2836

> <Gold.Chemscore.DEInternal>
0.8563

> <Gold.Chemscore.Rot>
1.5277

> <Gold.Chemscore.Internal.Correction>
   9.000000E+99

> <Gold.Chemscore.Hbonds>
donor molecule, donor type, donor heavy atom, donor atom, acceptor molecule, acceptor atom, score
      L1  H    10    40       P1  7948  0.95
      P1  H  7989  7998       L1    18  0.01
      P1  H  8011  8017       L1    18  0.49
      P1  H 10752 10764       L1    23  0.98

> <Gold.Chemscore.Hbond.Weighted>
-8.4621

> <Gold.Chemscore.Metal.Weighted>
-0.0000

> <Gold.Chemscore.Lipo.Weighted>
-8.3377

> <Gold.Chemscore.Internal_Hbond.Weighted>
0.0000

> <Gold.Chemscore.DEClash.Weighted>
0.2836

> <Gold.Chemscore.DEInternal.Weighted>
0.8563

> <Gold.Chemscore.Rot.Weighted>
3.9110

> <Gold.Chemscore.Internal.Correction.Weighted>
   9.000000E+99

> <Gold.Protein.RotatedTorsions>
[ 6907 6896 6895 6894 ] final  -43.58 input  -60.11 | X-H torsion
[ 7974 7965 7964 7962 ] final -175.76 input  175.53 | X-H torsion
[ 8008 7997 7996 7995 ] final   47.14 input   59.86 | X-H torsion
[ 10167 10162 10161 10158 ] final -108.17 input  -65.29 | X-H torsion
[ 10718 10713 10712 10709 ] final -153.82 input   66.30 | X-H torsion
[ 10763 10752 10751 10750 ] final  -42.10 input  -60.55 | X-H torsion
[ 11005 11000 10999 10996 ] final  -64.24 input  -57.11 | X-H torsion

> <Gold.Protein.ActiveResidues>
 VAL166  LYS551  ARG553  GLY616  TRP617  ASP618  TYR619  PRO620  LYS621  CYS622 
 ASP623  PHE694  ASN695  SER759  ASP760  ASP761  ALA762  ILE779  LEU786  VAL792 
 PHE793  MET794  SER795  GLU796  ALA797  LYS798  CYS799  TRP800  GLU811  SER814 

> <Gold.Protein.RotatedAtoms>
  150.9424  134.8832  159.7620 H   0  0  0  0  0  0  0  0  0  0  0  0  # atno 6907 bound_to 6896
  152.5085  134.3923  159.9398 H   0  0  0  0  0  0  0  0  0  0  0  0  # atno 6908 bound_to 6896
  151.3943  133.3738  159.2759 H   0  0  0  0  0  0  0  0  0  0  0  0  # atno 6909 bound_to 6896
  144.7127  140.1272  143.6401 H   0  0  0  0  0  0  0  0  0  0  0  0  # atno 7974 bound_to 7965
  155.3642  140.3420  155.4241 H   0  0  0  0  0  0  0  0  0  0  0  0  # atno 8008 bound_to 7997
  156.1697  140.1628  156.8503 H   0  0  0  0  0  0  0  0  0  0  0  0  # atno 8009 bound_to 7997
  154.5221  140.0764  156.8173 H   0  0  0  0  0  0  0  0  0  0  0  0  # atno 8010 bound_to 7997
  140.1691  143.4057  152.1368 H   0  0  0  0  0  0  0  0  0  0  0  0  # atno 10167 bound_to 10162
  156.4909  130.8347  151.2570 H   0  0  0  0  0  0  0  0  0  0  0  0  # atno 10718 bound_to 10713
  153.9735  135.6725  153.4748 H   0  0  0  0  0  0  0  0  0  0  0  0  # atno 10763 bound_to 10752
  153.0781  135.4937  154.8444 H   0  0  0  0  0  0  0  0  0  0  0  0  # atno 10764 bound_to 10752
  154.7205  135.3116  154.9015 H   0  0  0  0  0  0  0  0  0  0  0  0  # atno 10765 bound_to 10752
  141.1418  133.6663  156.5802 H   0  0  0  0  0  0  0  0  0  0  0  0  # atno 11005 bound_to 11000
  145.9318  139.2611  143.1320 LP  0  0  0  0  0  0  0  0  0  0  0  0  # atno 17320 bound_to 7965
  145.9514  140.8905  143.0257 LP  0  0  0  0  0  0  0  0  0  0  0  0  # atno 17321 bound_to 7965
  139.5346  144.7196  151.4937 LP  0  0  0  0  0  0  0  0  0  0  0  0  # atno 17342 bound_to 10162
  140.6594  143.8531  150.6870 LP  0  0  0  0  0  0  0  0  0  0  0  0  # atno 17343 bound_to 10162
  157.7474  131.0013  150.2960 LP  0  0  0  0  0  0  0  0  0  0  0  0  # atno 17370 bound_to 10713
  156.3427  130.3818  149.7395 LP  0  0  0  0  0  0  0  0  0  0  0  0  # atno 17371 bound_to 10713
  140.3844  134.7495  157.4681 LP  0  0  0  0  0  0  0  0  0  0  0  0  # atno 17394 bound_to 11000
  140.0613  134.5991  155.8745 LP  0  0  0  0  0  0  0  0  0  0  0  0  # atno 17395 bound_to 11000

$$$$
