AV-unprocessed.smi:103|AV-procd|sdf|978|dock8
  -GOLD-   2262017533D 1   1.00000     0.00000
 Structure written by MMmdl.
 53 55  0  0  0  0  0  0  0  0  1 V2000
  147.1741  141.7144  154.1634 C   0  0  0  0  0  0  0  0  0  0  0  0
  148.4039  140.8283  154.3153 C   0  0  0  0  0  0  0  0  0  0  0  0
  149.5347  141.2565  154.0833 O   0  0  0  0  0  0  0  0  0  0  0  0
  148.0965  139.5838  154.7212 O   0  0  0  0  0  0  0  0  0  0  0  0
  149.1102  138.7067  155.1946 C   0  0  0  0  0  0  0  0  0  0  0  0
  149.3757  138.9192  156.7001 C   0  0  1  0  0  0  0  0  0  0  0  0
  148.2245  138.4679  157.4185 O   0  0  0  0  0  0  0  0  0  0  0  0
  148.5462  137.3955  158.2506 C   0  0  1  0  0  0  0  0  0  0  0  0
  147.4270  136.3965  158.2442 N   0  0  0  0  0  0  0  0  0  0  0  0
  146.7160  135.8849  159.3109 C   0  0  0  0  0  0  0  0  0  0  0  0
  146.8854  136.3631  161.0258 S   0  0  0  0  0  0  0  0  0  0  0  0
  146.3618  134.8294  161.8937 C   0  0  0  0  0  0  0  0  0  0  0  0
  148.3179  136.5974  161.2670 O   0  0  0  0  0  0  0  0  0  0  0  0
  145.8999  137.4236  161.2850 O   0  0  0  0  0  0  0  0  0  0  0  0
  145.7538  135.0495  159.0295 N   0  0  0  0  0  0  0  0  0  0  0  0
  145.8500  134.9137  157.6522 C   0  0  0  0  0  0  0  0  0  0  0  0
  145.1493  134.1460  156.6884 C   0  0  0  0  0  0  0  0  0  0  0  0
  144.1467  133.3152  157.0044 N   0  0  0  0  0  0  0  0  0  0  0  0
  145.5094  134.2533  155.3884 N   0  0  0  0  0  0  0  0  0  0  0  0
  146.5074  135.0740  155.0478 C   0  0  0  0  0  0  0  0  0  0  0  0
  147.2521  135.8532  155.8354 N   0  0  0  0  0  0  0  0  0  0  0  0
  146.8900  135.7466  157.1478 C   0  0  0  0  0  0  0  0  0  0  0  0
  149.8716  136.8158  157.7438 C   0  0  1  0  0  0  0  0  0  0  0  0
  149.6702  135.8892  156.6770 O   0  0  0  0  0  0  0  0  0  0  0  0
  150.6951  135.1703  156.1858 C   0  0  0  0  0  0  0  0  0  0  0  0
  150.2527  134.2049  155.0949 C   0  0  0  0  0  0  0  0  0  0  0  0
  151.8684  135.2338  156.5516 O   0  0  0  0  0  0  0  0  0  0  0  0
  150.5431  138.0893  157.2584 C   0  0  1  0  0  0  0  0  0  0  0  0
  151.5901  137.8520  156.3224 O   0  0  0  0  0  0  0  0  0  0  0  0
  152.2958  138.8807  155.8209 C   0  0  0  0  0  0  0  0  0  0  0  0
  153.0132  138.5174  154.5280 C   0  0  0  0  0  0  0  0  0  0  0  0
  152.3895  140.0044  156.3151 O   0  0  0  0  0  0  0  0  0  0  0  0
  146.2710  141.1115  154.0635 H   0  0  0  0  0  0  0  0  0  0  0  0
  147.2675  142.3431  153.2775 H   0  0  0  0  0  0  0  0  0  0  0  0
  147.0650  142.3600  155.0349 H   0  0  0  0  0  0  0  0  0  0  0  0
  148.7950  137.6815  155.0051 H   0  0  0  0  0  0  0  0  0  0  0  0
  150.0232  138.8566  154.6167 H   0  0  0  0  0  0  0  0  0  0  0  0
  149.5507  139.9758  156.9040 H   0  0  0  0  0  0  0  0  0  0  0  0
  148.6051  137.7648  159.2740 H   0  0  0  0  0  0  0  0  0  0  0  0
  146.4190  134.9848  162.9707 H   0  0  0  0  0  0  0  0  0  0  0  0
  147.0220  134.0099  161.6103 H   0  0  0  0  0  0  0  0  0  0  0  0
  145.3376  134.5831  161.6152 H   0  0  0  0  0  0  0  0  0  0  0  0
  143.8608  133.2163  157.9679 H   0  0  0  0  0  0  0  0  0  0  0  0
  143.6832  132.7857  156.2804 H   0  0  0  0  0  0  0  0  0  0  0  0
  146.7422  135.1143  153.9943 H   0  0  0  0  0  0  0  0  0  0  0  0
  150.4288  136.3699  158.5681 H   0  0  0  0  0  0  0  0  0  0  0  0
  149.2474  133.8339  155.2969 H   0  0  0  0  0  0  0  0  0  0  0  0
  150.9305  133.3524  155.0429 H   0  0  0  0  0  0  0  0  0  0  0  0
  150.2505  134.7061  154.1268 H   0  0  0  0  0  0  0  0  0  0  0  0
  150.9389  138.6222  158.1249 H   0  0  0  0  0  0  0  0  0  0  0  0
  153.5220  137.5588  154.6323 H   0  0  0  0  0  0  0  0  0  0  0  0
  153.7549  139.2757  154.2764 H   0  0  0  0  0  0  0  0  0  0  0  0
  152.2998  138.4454  153.7072 H   0  0  0  0  0  0  0  0  0  0  0  0
  1  2  1  0  0  0  0
  1 33  1  0  0  0  0
  1 34  1  0  0  0  0
  1 35  1  0  0  0  0
  2  3  2  0  0  0  0
  2  4  1  0  0  0  0
  4  5  1  0  0  0  0
  5  6  1  0  0  0  0
  5 36  1  0  0  0  0
  5 37  1  0  0  0  0
  6 28  1  0  0  0  0
  6  7  1  0  0  0  0
  6 38  1  0  0  0  0
  7  8  1  0  0  0  0
  8  9  1  0  0  0  0
  8 23  1  0  0  0  0
  8 39  1  0  0  0  0
  9 22  1  0  0  0  0
  9 10  1  0  0  0  0
 10 11  1  0  0  0  0
 10 15  2  0  0  0  0
 11 12  1  0  0  0  0
 11 13  2  0  0  0  0
 11 14  2  0  0  0  0
 12 40  1  0  0  0  0
 12 41  1  0  0  0  0
 12 42  1  0  0  0  0
 15 16  1  0  0  0  0
 16 22  2  0  0  0  0
 16 17  1  0  0  0  0
 17 18  1  0  0  0  0
 17 19  2  0  0  0  0
 18 43  1  0  0  0  0
 18 44  1  0  0  0  0
 19 20  1  0  0  0  0
 20 21  2  0  0  0  0
 20 45  1  0  0  0  0
 21 22  1  0  0  0  0
 23 24  1  0  0  0  0
 23 28  1  0  0  0  0
 23 46  1  0  0  0  0
 24 25  1  0  0  0  0
 25 26  1  0  0  0  0
 25 27  2  0  0  0  0
 26 47  1  0  0  0  0
 26 48  1  0  0  0  0
 26 49  1  0  0  0  0
 28 29  1  0  0  0  0
 28 50  1  0  0  0  0
 29 30  1  0  0  0  0
 30 31  1  0  0  0  0
 30 32  2  0  0  0  0
 31 51  1  0  0  0  0
 31 52  1  0  0  0  0
 31 53  1  0  0  0  0
M  END
> <s_m_source_file>
AV-unprocessed.smi

> <i_m_source_file_index>
103

> <i_lp_mmshare_version>
43012

> <i_f3d_flags>
0

> <s_epik_input>
W0NIM11DKD1PKU9bQ0gyXVtDQEBIXTFPW0NASF0oW0NAQEhdKE9DKD1PKVtDSDNdKVtDQEhdMU9DKD1PKVtDSDNdKW4oYyhuMilTKD1PKSg9TylbQ0gzXSljKGMyMyluW2NIXW5jM1tOSDJd

> <s_epik_cmdline>
J2VwaWtfcHl0aG9uJywgJy1waCcsICc3LjAnLCAnLXRuJywgJzgnLCAnLW1hJywgJzIwMCcsICctbWV0YWxfYmluZGluZycsICctaW1hZScsICc8aW5maWxlLm1hZT4nLCAnLW9tYWUnLCAnPG91dGZpbGUubWFlPic=

> <r_lp_tautomer_probability>
1

> <r_epik_Ionization_Penalty>
1.51338e-05

> <r_epik_Ionization_Penalty_Charging>
0

> <r_epik_Ionization_Penalty_Neutral>
1.51338e-05

> <r_epik_State_Penalty>
-0

> <r_epik_Charging_Adjusted_Penalty>
0

> <i_epik_Tot_Q>
0

> <i_epik_Tot_abs_Q>
0

> <r_epik_Metal_State_Penalty>
-0

> <b_epik_Metal_Only>
0

> <s_epik_Chemistry_Notes>
This compound has an ester and may undergo hydrolysis at high or low pH. This compound contains an acetal/aminal-like group ( X-CH(R)-Y where X, Y are N, S, or O) that may be acid/base labile, releasing an aldehyde.

> <s_lp_Force_Field>
OPLS_2005

> <r_lp_Energy>
15.224

> <b_lp_Chiralities_Consistent>
1

> <s_lp_Variant>
AV-unprocessed.smi:103-2

> <Gold.Version>
5.8.1

> <Gold.Id.Protein>
6NUR|6NUR_protein|mol2

> <Gold.PLP.Fitness>
47.2656

> <Gold.PLP.PLP>
-30.3772

> <Gold.PLP.part.hbond>
-6.9267

> <Gold.PLP.part.metal>
0.0000

> <Gold.PLP.part.buried>
-4.5160

> <Gold.PLP.part.nonpolar>
-19.3994

> <Gold.PLP.part.repulsive>
0.8211

> <Gold.PLP.ligand.clash>
0.0000

> <Gold.PLP.ligand.torsion>
1.8947

> <Gold.PLP.Chemscore.Hbond>
6.0550

> <Gold.PLP.Chemscore.CHOScore>
0.0000

> <Gold.PLP.Chemscore.Metal>
0.0000

> <Gold.Chemscore.Hbonds>
donor molecule, donor type, donor heavy atom, donor atom, acceptor molecule, acceptor atom, score
      L1  H    18    44       P1 10957  0.98
      P1  H  6931  6943       L1    13  1.00
      P1  H  6934  6947       L1    14  0.83
      P1  H  7989  7998       L1     3  0.22
      P1  H  7997  8008       L1    32  0.95
      P1  H  8011  8017       L1     3  0.60
      P1  H 10752 10765       L1    27  1.00

> <Gold.PLP.Chemscore.Internal.Correction>
2.5128

> <Gold.Rescore>
     Score         DG    S(hbond)    S(metal)    S(lipo)     H(rot)  DE(clash)    DE(int)     intcor
      8.77     -17.18       5.32        0.00      40.99       4.25       0.53       7.88       ----

> <Gold.Chemscore.Fitness>
8.7712

> <Gold.Chemscore.DG>
-17.1791

> <Gold.Chemscore.ZeroCoef>
-5.4800

> <Gold.Chemscore.Hbond>
5.3210

> <Gold.Chemscore.Metal>
0.0000

> <Gold.Chemscore.Lipo>
40.9879

> <Gold.Chemscore.Internal_Hbond>
0.0000

> <Gold.Chemscore.DEClash>
0.5308

> <Gold.Chemscore.DEInternal>
7.8770

> <Gold.Chemscore.Rot>
4.2456

> <Gold.Chemscore.Internal.Correction>
   9.000000E+99

> <Gold.Chemscore.Hbonds>
donor molecule, donor type, donor heavy atom, donor atom, acceptor molecule, acceptor atom, score
      L1  H    18    44       P1 10957  0.91
      P1  H  6931  6943       L1    13  0.99
      P1  H  6934  6947       L1    14  0.16
      P1  H  7989  7998       L1     3  0.21
      P1  H  7997  8008       L1    32  0.21
      P1  H  8011  8017       L1     3  0.57
      P1  H 10752 10765       L1    27  0.94

> <Gold.Chemscore.Hbond.Weighted>
-17.7722

> <Gold.Chemscore.Metal.Weighted>
-0.0000

> <Gold.Chemscore.Lipo.Weighted>
-4.7956

> <Gold.Chemscore.Internal_Hbond.Weighted>
0.0000

> <Gold.Chemscore.DEClash.Weighted>
0.5308

> <Gold.Chemscore.DEInternal.Weighted>
7.8770

> <Gold.Chemscore.Rot.Weighted>
10.8687

> <Gold.Chemscore.Internal.Correction.Weighted>
   9.000000E+99

> <Gold.Protein.RotatedTorsions>
[ 6907 6896 6895 6894 ] final   19.67 input  -60.11 | X-H torsion
[ 7974 7965 7964 7962 ] final -143.86 input  175.53 | X-H torsion
[ 8008 7997 7996 7995 ] final  -48.87 input   59.86 | X-H torsion
[ 10167 10162 10161 10158 ] final   40.79 input  -65.29 | X-H torsion
[ 10718 10713 10712 10709 ] final   26.03 input   66.30 | X-H torsion
[ 10763 10752 10751 10750 ] final -138.52 input  -60.55 | X-H torsion
[ 11005 11000 10999 10996 ] final -152.06 input  -57.11 | X-H torsion

> <Gold.Protein.ActiveResidues>
 VAL166  LYS551  ARG553  GLY616  TRP617  ASP618  TYR619  PRO620  LYS621  CYS622 
 ASP623  PHE694  ASN695  SER759  ASP760  ASP761  ALA762  ILE779  LEU786  VAL792 
 PHE793  MET794  SER795  GLU796  ALA797  LYS798  CYS799  TRP800  GLU811  SER814 

> <Gold.Protein.RotatedAtoms>
  151.8845  135.0441  160.0491 H   0  0  0  0  0  0  0  0  0  0  0  0  # atno 6907 bound_to 6896
  152.2486  133.5191  159.5320 H   0  0  0  0  0  0  0  0  0  0  0  0  # atno 6908 bound_to 6896
  150.7076  134.0907  159.3973 H   0  0  0  0  0  0  0  0  0  0  0  0  # atno 6909 bound_to 6896
  144.8339  140.5783  143.5497 H   0  0  0  0  0  0  0  0  0  0  0  0  # atno 7974 bound_to 7965
  154.4035  140.1311  156.4410 H   0  0  0  0  0  0  0  0  0  0  0  0  # atno 8008 bound_to 7997
  155.7459  140.3489  155.5107 H   0  0  0  0  0  0  0  0  0  0  0  0  # atno 8009 bound_to 7997
  155.8995  140.1017  157.1350 H   0  0  0  0  0  0  0  0  0  0  0  0  # atno 8010 bound_to 7997
  140.3707  144.2108  150.6133 H   0  0  0  0  0  0  0  0  0  0  0  0  # atno 10167 bound_to 10162
  157.2013  130.6891  149.6190 H   0  0  0  0  0  0  0  0  0  0  0  0  # atno 10718 bound_to 10713
  154.8634  135.3609  154.5399 H   0  0  0  0  0  0  0  0  0  0  0  0  # atno 10763 bound_to 10752
  153.6021  135.7012  153.5385 H   0  0  0  0  0  0  0  0  0  0  0  0  # atno 10764 bound_to 10752
  153.3282  135.4132  155.1434 H   0  0  0  0  0  0  0  0  0  0  0  0  # atno 10765 bound_to 10752
  140.7229  134.3707  157.5180 H   0  0  0  0  0  0  0  0  0  0  0  0  # atno 11005 bound_to 11000
  145.4836  139.1493  143.3748 LP  0  0  0  0  0  0  0  0  0  0  0  0  # atno 17320 bound_to 7965
  146.2640  140.4973  142.8842 LP  0  0  0  0  0  0  0  0  0  0  0  0  # atno 17321 bound_to 7965
  140.5036  143.2311  151.8642 LP  0  0  0  0  0  0  0  0  0  0  0  0  # atno 17342 bound_to 10162
  139.4804  144.5031  151.9033 LP  0  0  0  0  0  0  0  0  0  0  0  0  # atno 17343 bound_to 10162
  155.9700  130.4582  150.5989 LP  0  0  0  0  0  0  0  0  0  0  0  0  # atno 17370 bound_to 10713
  157.3764  131.0774  151.1514 LP  0  0  0  0  0  0  0  0  0  0  0  0  # atno 17371 bound_to 10713
  139.8844  134.8967  156.2706 LP  0  0  0  0  0  0  0  0  0  0  0  0  # atno 17394 bound_to 11000
  140.9988  133.7164  156.0928 LP  0  0  0  0  0  0  0  0  0  0  0  0  # atno 17395 bound_to 11000

$$$$
