AV-unprocessed.smi:148|AV-procd|sdf|1216|dock5
  -GOLD-   2262018403D 1   1.00000     0.00000
 Structure written by MMmdl.
 63 67  0  0  0  0  0  0  0  0  1 V2000
  149.8093  132.6647  157.9522 O   0  0  0  0  0  0  0  0  0  0  0  0
  149.2990  133.5138  156.9456 C   0  0  0  0  0  0  0  0  0  0  0  0
  150.3345  133.7390  155.8181 C   0  0  2  0  0  0  0  0  0  0  0  0
  150.0478  135.0481  155.0376 C   0  0  0  0  0  0  0  0  0  0  0  0
  150.2092  136.2329  155.8612 N   0  0  0  0  0  0  0  0  0  0  0  0
  149.4202  136.6048  156.9266 C   0  0  0  0  0  0  0  0  0  0  0  0
  149.7546  137.7277  157.5020 N   0  0  0  0  0  0  0  0  0  0  0  0
  150.8587  138.1586  156.7779 C   0  0  0  0  0  0  0  0  0  0  0  0
  151.6934  139.3040  156.8419 C   0  0  0  0  0  0  0  0  0  0  0  0
  151.4894  140.2863  157.7493 N   0  0  0  0  0  0  0  0  0  0  0  0
  152.7243  140.5398  158.4918 C   0  0  0  0  0  0  0  0  0  0  0  0
  152.4836  141.4867  159.6735 C   0  0  0  0  0  0  0  0  0  0  0  0
  151.8420  142.7877  159.1838 C   0  0  0  0  0  0  0  0  0  0  0  0
  150.5426  142.4783  158.4288 C   0  0  0  0  0  0  0  0  0  0  0  0
  150.7702  141.4793  157.2632 C   0  0  2  0  0  0  0  0  0  0  0  0
  149.4567  141.1202  156.4963 C   0  0  1  0  0  0  0  0  0  0  0  0
  148.1790  141.8510  156.9546 C   0  0  0  0  0  0  0  0  0  0  0  0
  147.2657  141.9440  155.7211 C   0  0  0  0  0  0  0  0  0  0  0  0
  148.0050  141.2312  154.5844 C   0  0  0  0  0  0  0  0  0  0  0  0
  149.4798  141.3228  154.9742 C   0  0  2  0  0  0  0  0  0  0  0  0
  150.2493  140.3383  154.3152 O   0  0  0  0  0  0  0  0  0  0  0  0
  152.7163  139.3992  155.9510 N   0  0  0  0  0  0  0  0  0  0  0  0
  152.8983  138.4369  155.0414 C   0  0  0  0  0  0  0  0  0  0  0  0
  152.1884  137.3222  154.8510 N   0  0  0  0  0  0  0  0  0  0  0  0
  151.1682  137.2242  155.7517 C   0  0  0  0  0  0  0  0  0  0  0  0
  150.4685  132.4930  154.8996 C   0  0  2  0  0  0  0  0  0  0  0  0
  149.2062  132.0916  154.1345 C   0  0  0  0  0  0  0  0  0  0  0  0
  149.1224  130.5750  154.3176 C   0  0  0  0  0  0  0  0  0  0  0  0
  150.4352  130.1904  154.6945 O   0  0  0  0  0  0  0  0  0  0  0  0
  150.9133  131.1913  155.5767 C   0  0  0  0  0  0  0  0  0  0  0  0
  149.0911  132.1782  158.3273 H   0  0  0  0  0  0  0  0  0  0  0  0
  148.3761  133.0912  156.5477 H   0  0  0  0  0  0  0  0  0  0  0  0
  149.0337  134.4529  157.4300 H   0  0  0  0  0  0  0  0  0  0  0  0
  151.3037  133.8676  156.3029 H   0  0  0  0  0  0  0  0  0  0  0  0
  150.7119  135.1544  154.1809 H   0  0  0  0  0  0  0  0  0  0  0  0
  149.0338  135.0467  154.6388 H   0  0  0  0  0  0  0  0  0  0  0  0
  148.5772  136.0166  157.2593 H   0  0  0  0  0  0  0  0  0  0  0  0
  153.1364  139.5989  158.8599 H   0  0  0  0  0  0  0  0  0  0  0  0
  153.4687  140.9721  157.8212 H   0  0  0  0  0  0  0  0  0  0  0  0
  151.8345  141.0057  160.4064 H   0  0  0  0  0  0  0  0  0  0  0  0
  153.4251  141.6997  160.1804 H   0  0  0  0  0  0  0  0  0  0  0  0
  151.6393  143.4487  160.0269 H   0  0  0  0  0  0  0  0  0  0  0  0
  152.5338  143.3180  158.5282 H   0  0  0  0  0  0  0  0  0  0  0  0
  149.8158  142.0831  159.1375 H   0  0  0  0  0  0  0  0  0  0  0  0
  150.1349  143.4178  158.0591 H   0  0  0  0  0  0  0  0  0  0  0  0
  151.4325  141.9746  156.5516 H   0  0  0  0  0  0  0  0  0  0  0  0
  149.2592  140.0561  156.6364 H   0  0  0  0  0  0  0  0  0  0  0  0
  147.6913  141.3095  157.7651 H   0  0  0  0  0  0  0  0  0  0  0  0
  148.3894  142.8525  157.3268 H   0  0  0  0  0  0  0  0  0  0  0  0
  146.2863  141.5000  155.9023 H   0  0  0  0  0  0  0  0  0  0  0  0
  147.1059  142.9912  155.4615 H   0  0  0  0  0  0  0  0  0  0  0  0
  147.6908  140.1866  154.5513 H   0  0  0  0  0  0  0  0  0  0  0  0
  147.7986  141.6699  153.6078 H   0  0  0  0  0  0  0  0  0  0  0  0
  149.8474  142.3120  154.7061 H   0  0  0  0  0  0  0  0  0  0  0  0
  149.6683  139.6600  154.0067 H   0  0  0  0  0  0  0  0  0  0  0  0
  153.7287  138.5832  154.3664 H   0  0  0  0  0  0  0  0  0  0  0  0
  151.2134  132.7139  154.1341 H   0  0  0  0  0  0  0  0  0  0  0  0
  148.2989  132.5819  154.4855 H   0  0  0  0  0  0  0  0  0  0  0  0
  149.3174  132.3433  153.0792 H   0  0  0  0  0  0  0  0  0  0  0  0
  148.4297  130.3235  155.1220 H   0  0  0  0  0  0  0  0  0  0  0  0
  148.7978  130.0591  153.4139 H   0  0  0  0  0  0  0  0  0  0  0  0
  151.9949  131.1314  155.6998 H   0  0  0  0  0  0  0  0  0  0  0  0
  150.4508  131.0460  156.5527 H   0  0  0  0  0  0  0  0  0  0  0  0
  1  2  1  0  0  0  0
  1 31  1  0  0  0  0
  2  3  1  0  0  0  0
  2 32  1  0  0  0  0
  2 33  1  0  0  0  0
  3  4  1  0  0  0  0
  3 26  1  0  0  0  0
  3 34  1  0  0  0  0
  4  5  1  0  0  0  0
  4 35  1  0  0  0  0
  4 36  1  0  0  0  0
  5 25  1  0  0  0  0
  5  6  1  0  0  0  0
  6  7  2  0  0  0  0
  6 37  1  0  0  0  0
  7  8  1  0  0  0  0
  8 25  2  0  0  0  0
  8  9  1  0  0  0  0
  9 10  1  0  0  0  0
  9 22  2  0  0  0  0
 10 15  1  0  0  0  0
 10 11  1  0  0  0  0
 11 12  1  0  0  0  0
 11 38  1  0  0  0  0
 11 39  1  0  0  0  0
 12 13  1  0  0  0  0
 12 40  1  0  0  0  0
 12 41  1  0  0  0  0
 13 14  1  0  0  0  0
 13 42  1  0  0  0  0
 13 43  1  0  0  0  0
 14 15  1  0  0  0  0
 14 44  1  0  0  0  0
 14 45  1  0  0  0  0
 15 16  1  0  0  0  0
 15 46  1  0  0  0  0
 16 20  1  0  0  0  0
 16 17  1  0  0  0  0
 16 47  1  0  0  0  0
 17 18  1  0  0  0  0
 17 48  1  0  0  0  0
 17 49  1  0  0  0  0
 18 19  1  0  0  0  0
 18 50  1  0  0  0  0
 18 51  1  0  0  0  0
 19 20  1  0  0  0  0
 19 52  1  0  0  0  0
 19 53  1  0  0  0  0
 20 21  1  0  0  0  0
 20 54  1  0  0  0  0
 21 55  1  0  0  0  0
 22 23  1  0  0  0  0
 23 24  2  0  0  0  0
 23 56  1  0  0  0  0
 24 25  1  0  0  0  0
 26 30  1  0  0  0  0
 26 27  1  0  0  0  0
 26 57  1  0  0  0  0
 27 28  1  0  0  0  0
 27 58  1  0  0  0  0
 27 59  1  0  0  0  0
 28 29  1  0  0  0  0
 28 60  1  0  0  0  0
 28 61  1  0  0  0  0
 29 30  1  0  0  0  0
 30 62  1  0  0  0  0
 30 63  1  0  0  0  0
M  END
> <s_m_source_file>
AV-unprocessed.smi

> <i_m_source_file_index>
148

> <i_lp_mmshare_version>
43012

> <i_f3d_flags>
0

> <s_epik_input>
W0NIMl0xT1tDSDJdW0NIMl1bQ0BIXTFbQ0BIXShbQ0gyXVtPSF0pW0NIMl1uKFtjSF1uMiljKGMyMyluW2NIXW5jM040W0NIMl1bQ0gyXVtDSDJdW0NIMl1bQ0BIXTRbQ0BASF01W0NIMl1bQ0gyXVtDSDJdW0NASF01W09IXQ==

> <s_epik_cmdline>
J2VwaWtfcHl0aG9uJywgJy1waCcsICc3LjAnLCAnLXRuJywgJzgnLCAnLW1hJywgJzIwMCcsICctbWV0YWxfYmluZGluZycsICctaW1hZScsICc8aW5maWxlLm1hZT4nLCAnLW9tYWUnLCAnPG91dGZpbGUubWFlPic=

> <r_lp_tautomer_probability>
1

> <r_epik_Ionization_Penalty>
0.00556303

> <r_epik_Ionization_Penalty_Charging>
0

> <r_epik_Ionization_Penalty_Neutral>
0.00556303

> <r_epik_State_Penalty>
0.00401767

> <r_epik_Charging_Adjusted_Penalty>
0.00401767

> <i_epik_Tot_Q>
0

> <i_epik_Tot_abs_Q>
0

> <r_epik_Metal_State_Penalty>
-0

> <b_epik_Metal_Only>
0

> <s_lp_Force_Field>
OPLS_2005

> <r_lp_Energy>
68.7662

> <b_lp_Chiralities_Consistent>
1

> <s_lp_Variant>
AV-unprocessed.smi:148-15

> <Gold.Version>
5.8.1

> <Gold.Id.Protein>
6NUR|6NUR_protein|mol2

> <Gold.PLP.Fitness>
52.1747

> <Gold.PLP.PLP>
-44.4036

> <Gold.PLP.part.hbond>
-4.3126

> <Gold.PLP.part.metal>
0.0000

> <Gold.PLP.part.buried>
-6.6855

> <Gold.PLP.part.nonpolar>
-34.1040

> <Gold.PLP.part.repulsive>
0.1346

> <Gold.PLP.ligand.clash>
0.0000

> <Gold.PLP.ligand.torsion>
2.0585

> <Gold.PLP.Chemscore.Hbond>
3.8080

> <Gold.PLP.Chemscore.CHOScore>
0.0000

> <Gold.PLP.Chemscore.Metal>
0.0000

> <Gold.Chemscore.Hbonds>
donor molecule, donor type, donor heavy atom, donor atom, acceptor molecule, acceptor atom, score
      P1  H  6896  6907       L1     1  1.00
      P1  H  7989  7998       L1    21  0.98
      P1  H  7997  8008       L1    22  1.00
      P1  H 10752 10765       L1    24  0.80

> <Gold.PLP.Chemscore.Internal.Correction>
0.4640

> <Gold.Rescore>
     Score         DG    S(hbond)    S(metal)    S(lipo)     H(rot)  DE(clash)    DE(int)     intcor
     17.96     -20.41       3.47        0.00     101.12       3.32       0.05       2.41       ----

> <Gold.Chemscore.Fitness>
17.9607

> <Gold.Chemscore.DG>
-20.4145

> <Gold.Chemscore.ZeroCoef>
-5.4800

> <Gold.Chemscore.Hbond>
3.4740

> <Gold.Chemscore.Metal>
0.0000

> <Gold.Chemscore.Lipo>
101.1222

> <Gold.Chemscore.Internal_Hbond>
0.0000

> <Gold.Chemscore.DEClash>
0.0485

> <Gold.Chemscore.DEInternal>
2.4053

> <Gold.Chemscore.Rot>
3.3203

> <Gold.Chemscore.Internal.Correction>
   9.000000E+99

> <Gold.Chemscore.Hbonds>
donor molecule, donor type, donor heavy atom, donor atom, acceptor molecule, acceptor atom, score
      P1  H  6896  6907       L1     1  0.71
      P1  H  7989  7998       L1    21  0.86
      P1  H  7997  8008       L1    22  0.69
      P1  H 10752 10765       L1    24  0.62

> <Gold.Chemscore.Hbond.Weighted>
-11.6032

> <Gold.Chemscore.Metal.Weighted>
-0.0000

> <Gold.Chemscore.Lipo.Weighted>
-11.8313

> <Gold.Chemscore.Internal_Hbond.Weighted>
0.0000

> <Gold.Chemscore.DEClash.Weighted>
0.0485

> <Gold.Chemscore.DEInternal.Weighted>
2.4053

> <Gold.Chemscore.Rot.Weighted>
8.5000

> <Gold.Chemscore.Internal.Correction.Weighted>
   9.000000E+99

> <Gold.Protein.RotatedTorsions>
[ 6907 6896 6895 6894 ] final -127.81 input  -60.11 | X-H torsion
[ 7974 7965 7964 7962 ] final  -95.05 input  175.53 | X-H torsion
[ 8008 7997 7996 7995 ] final  -48.74 input   59.86 | X-H torsion
[ 10167 10162 10161 10158 ] final  -17.95 input  -65.29 | X-H torsion
[ 10718 10713 10712 10709 ] final  -44.18 input   66.30 | X-H torsion
[ 10763 10752 10751 10750 ] final  175.73 input  -60.55 | X-H torsion
[ 11005 11000 10999 10996 ] final -124.12 input  -57.11 | X-H torsion

> <Gold.Protein.ActiveResidues>
 VAL166  LYS551  ARG553  GLY616  TRP617  ASP618  TYR619  PRO620  LYS621  CYS622 
 ASP623  PHE694  ASN695  SER759  ASP760  ASP761  ALA762  ILE779  LEU786  VAL792 
 PHE793  MET794  SER795  GLU796  ALA797  LYS798  CYS799  TRP800  GLU811  SER814 

> <Gold.Protein.RotatedAtoms>
  150.9113  133.6994  159.2854 H   0  0  0  0  0  0  0  0  0  0  0  0  # atno 6907 bound_to 6896
  151.4480  135.1026  159.9699 H   0  0  0  0  0  0  0  0  0  0  0  0  # atno 6908 bound_to 6896
  152.4931  133.8505  159.7254 H   0  0  0  0  0  0  0  0  0  0  0  0  # atno 6909 bound_to 6896
  145.3652  140.9497  143.2478 H   0  0  0  0  0  0  0  0  0  0  0  0  # atno 7974 bound_to 7965
  154.4033  140.1314  156.4388 H   0  0  0  0  0  0  0  0  0  0  0  0  # atno 8008 bound_to 7997
  155.7479  140.3488  155.5116 H   0  0  0  0  0  0  0  0  0  0  0  0  # atno 8009 bound_to 7997
  155.8978  140.1014  157.1362 H   0  0  0  0  0  0  0  0  0  0  0  0  # atno 8010 bound_to 7997
  140.7253  143.4965  150.9924 H   0  0  0  0  0  0  0  0  0  0  0  0  # atno 10167 bound_to 10162
  156.2412  130.4180  149.8758 H   0  0  0  0  0  0  0  0  0  0  0  0  # atno 10718 bound_to 10713
  154.4716  135.2771  155.1638 H   0  0  0  0  0  0  0  0  0  0  0  0  # atno 10763 bound_to 10752
  154.3385  135.6175  153.5589 H   0  0  0  0  0  0  0  0  0  0  0  0  # atno 10764 bound_to 10752
  152.9865  135.5783  154.5098 H   0  0  0  0  0  0  0  0  0  0  0  0  # atno 10765 bound_to 10752
  140.9866  134.0599  157.3704 H   0  0  0  0  0  0  0  0  0  0  0  0  # atno 11005 bound_to 11000
  144.8617  139.5168  143.6809 LP  0  0  0  0  0  0  0  0  0  0  0  0  # atno 17320 bound_to 7965
  146.2910  139.7139  142.9161 LP  0  0  0  0  0  0  0  0  0  0  0  0  # atno 17321 bound_to 7965
  139.8672  143.7239  152.3169 LP  0  0  0  0  0  0  0  0  0  0  0  0  # atno 17342 bound_to 10162
  139.7475  144.7543  151.0558 LP  0  0  0  0  0  0  0  0  0  0  0  0  # atno 17343 bound_to 10162
  156.6339  130.8677  151.3501 LP  0  0  0  0  0  0  0  0  0  0  0  0  # atno 17370 bound_to 10713
  157.7176  130.9517  150.1314 LP  0  0  0  0  0  0  0  0  0  0  0  0  # atno 17371 bound_to 10713
  139.8973  135.0150  156.7094 LP  0  0  0  0  0  0  0  0  0  0  0  0  # atno 17394 bound_to 11000
  140.7105  133.9227  155.8082 LP  0  0  0  0  0  0  0  0  0  0  0  0  # atno 17395 bound_to 11000

$$$$
