AV-unprocessed.smi:1005|AV-procd|sdf|4381|dock7
  -GOLD-   22720 2303D 1   1.00000     0.00000
 Structure written by MMmdl.
 58 60  0  0  0  0  0  0  0  0  4 V2000
  152.7952  144.1030  161.6303 C   0  0  0  0  0  0  0  0  0  0  0  0
  152.4848  143.2613  160.4042 C   0  0  0  0  0  0  0  0  0  0  0  0
  151.5022  143.7234  159.5004 C   0  0  0  0  0  0  0  0  0  0  0  0
  151.2408  142.9322  158.3882 C   0  0  0  0  0  0  0  0  0  0  0  0
  150.3460  143.1101  157.3315 N   0  3  0  0  0  0  0  0  0  0  0  0
  150.4482  142.0625  156.4679 C   0  0  0  0  0  0  0  0  0  0  0  0
  151.3953  141.2164  156.9572 N   0  0  0  0  0  0  0  0  0  0  0  0
  151.8858  139.9427  156.4101 C   0  0  0  0  0  0  0  0  0  0  0  0
  151.6885  139.8302  154.8851 C   0  0  1  0  0  0  0  0  0  0  0  0
  152.9353  139.5917  154.2603 O   0  0  0  0  0  0  0  0  0  0  0  0
  150.7228  138.6875  154.5126 C   0  0  0  0  0  0  0  0  0  0  0  0
  149.5070  139.1827  153.8114 N   0  3  2  0  0  0  0  0  0  0  0  0
  148.8640  140.3637  154.4416 C   0  0  0  0  0  0  0  0  0  0  0  0
  148.0043  139.9605  155.6548 C   0  0  0  0  0  0  0  0  0  0  0  0
  147.0617  138.9668  155.2702 O   0  0  0  0  0  0  0  0  0  0  0  0
  147.6834  137.7767  154.7960 C   0  0  1  0  0  0  0  0  0  0  0  0
  146.5765  136.7502  154.4869 C   0  0  0  0  0  0  0  0  0  0  0  0
  147.1027  135.4721  153.9410 N   0  3  0  0  0  0  0  0  0  0  0  0
  146.0426  134.5167  153.5434 C   0  0  0  0  0  0  0  0  0  0  0  0
  148.0825  134.8418  154.8537 C   0  0  0  0  0  0  0  0  0  0  0  0
  148.5009  138.1276  153.5339 C   0  0  0  0  0  0  0  0  0  0  0  0
  151.9169  141.7182  158.1568 C   0  0  0  0  0  0  0  0  0  0  0  0
  152.8880  141.2485  159.0389 C   0  0  0  0  0  0  0  0  0  0  0  0
  153.1690  142.0394  160.1761 C   0  0  0  0  0  0  0  0  0  0  0  0
  154.2243  141.5525  161.1547 C   0  0  0  0  0  0  0  0  0  0  0  0
  152.1825  145.0046  161.6607 H   0  0  0  0  0  0  0  0  0  0  0  0
  153.8409  144.4114  161.6289 H   0  0  0  0  0  0  0  0  0  0  0  0
  152.6009  143.5379  162.5422 H   0  0  0  0  0  0  0  0  0  0  0  0
  150.9777  144.6531  159.6674 H   0  0  0  0  0  0  0  0  0  0  0  0
  149.8796  141.9290  155.5587 H   0  0  0  0  0  0  0  0  0  0  0  0
  152.9311  139.8075  156.6886 H   0  0  0  0  0  0  0  0  0  0  0  0
  151.3332  139.1481  156.9131 H   0  0  0  0  0  0  0  0  0  0  0  0
  151.3063  140.7822  154.5171 H   0  0  0  0  0  0  0  0  0  0  0  0
  152.8097  138.9770  153.5535 H   0  0  0  0  0  0  0  0  0  0  0  0
  151.2569  137.9814  153.8748 H   0  0  0  0  0  0  0  0  0  0  0  0
  150.4363  138.1277  155.4030 H   0  0  0  0  0  0  0  0  0  0  0  0
  149.6034  141.1110  154.7276 H   0  0  0  0  0  0  0  0  0  0  0  0
  148.2253  140.8384  153.6954 H   0  0  0  0  0  0  0  0  0  0  0  0
  148.6193  139.5960  156.4783 H   0  0  0  0  0  0  0  0  0  0  0  0
  147.4626  140.8286  156.0309 H   0  0  0  0  0  0  0  0  0  0  0  0
  148.3546  137.3817  155.5590 H   0  0  0  0  0  0  0  0  0  0  0  0
  146.0304  136.5492  155.4101 H   0  0  0  0  0  0  0  0  0  0  0  0
  145.8515  137.1688  153.7874 H   0  0  0  0  0  0  0  0  0  0  0  0
  145.4205  134.2445  154.3971 H   0  0  0  0  0  0  0  0  0  0  0  0
  146.4824  133.6031  153.1417 H   0  0  0  0  0  0  0  0  0  0  0  0
  145.3990  134.9291  152.7674 H   0  0  0  0  0  0  0  0  0  0  0  0
  147.6161  134.5700  155.8017 H   0  0  0  0  0  0  0  0  0  0  0  0
  148.9116  135.5189  155.0617 H   0  0  0  0  0  0  0  0  0  0  0  0
  148.5013  133.9387  154.4080 H   0  0  0  0  0  0  0  0  0  0  0  0
  147.8301  138.4977  152.7571 H   0  0  0  0  0  0  0  0  0  0  0  0
  148.9828  137.2410  153.1203 H   0  0  0  0  0  0  0  0  0  0  0  0
  153.4128  140.3209  158.8685 H   0  0  0  0  0  0  0  0  0  0  0  0
  154.6626  140.6078  160.8319 H   0  0  0  0  0  0  0  0  0  0  0  0
  153.7884  141.3977  162.1419 H   0  0  0  0  0  0  0  0  0  0  0  0
  155.0313  142.2802  161.2420 H   0  0  0  0  0  0  0  0  0  0  0  0
  147.6173  135.7057  153.1034 H   0  0  0  0  0  0  0  0  0  0  0  0
  149.8412  139.4859  152.9069 H   0  0  0  0  0  0  0  0  0  0  0  0
  149.7112  143.8886  157.2072 H   0  0  0  0  0  0  0  0  0  0  0  0
  1  2  1  0  0  0  0
  1 26  1  0  0  0  0
  1 27  1  0  0  0  0
  1 28  1  0  0  0  0
  2 24  1  0  0  0  0
  2  3  2  0  0  0  0
  3  4  1  0  0  0  0
  3 29  1  0  0  0  0
  4 22  2  0  0  0  0
  4  5  1  0  0  0  0
  5  6  2  0  0  0  0
  5 58  1  0  0  0  0
  6  7  1  0  0  0  0
  6 30  1  0  0  0  0
  7  8  1  0  0  0  0
  7 22  1  0  0  0  0
  8  9  1  0  0  0  0
  8 31  1  0  0  0  0
  8 32  1  0  0  0  0
  9 10  1  0  0  0  0
  9 11  1  0  0  0  0
  9 33  1  0  0  0  0
 10 34  1  0  0  0  0
 11 12  1  0  0  0  0
 11 35  1  0  0  0  0
 11 36  1  0  0  0  0
 12 21  1  0  0  0  0
 12 13  1  0  0  0  0
 12 57  1  0  0  0  0
 13 14  1  0  0  0  0
 13 37  1  0  0  0  0
 13 38  1  0  0  0  0
 14 15  1  0  0  0  0
 14 39  1  0  0  0  0
 14 40  1  0  0  0  0
 15 16  1  0  0  0  0
 16 17  1  0  0  0  0
 16 21  1  0  0  0  0
 16 41  1  0  0  0  0
 17 18  1  0  0  0  0
 17 42  1  0  0  0  0
 17 43  1  0  0  0  0
 18 19  1  0  0  0  0
 18 20  1  0  0  0  0
 18 56  1  0  0  0  0
 19 44  1  0  0  0  0
 19 45  1  0  0  0  0
 19 46  1  0  0  0  0
 20 47  1  0  0  0  0
 20 48  1  0  0  0  0
 20 49  1  0  0  0  0
 21 50  1  0  0  0  0
 21 51  1  0  0  0  0
 22 23  1  0  0  0  0
 23 24  2  0  0  0  0
 23 52  1  0  0  0  0
 24 25  1  0  0  0  0
 25 53  1  0  0  0  0
 25 54  1  0  0  0  0
 25 55  1  0  0  0  0
M  CHG  1   5   1
M  CHG  1  12   1
M  CHG  1  18   1
M  END
> <s_m_source_file>
AV-unprocessed.smi

> <i_m_source_file_index>
1005

> <i_lp_mmshare_version>
43012

> <i_f3d_flags>
0

> <s_epik_input>
W0NIM11jKFtjSF0xKWMoW0NIM10pW2NIXWMoYzEyKW4oW2NIXW4yKVtDSDJdW0NASF0oW09IXSlbQ0gyXU4zW0NIMl1bQ0gyXU9bQ0BIXShbQ0gyXTMpW0NIMl1OKFtDSDNdKVtDSDNd

> <s_epik_cmdline>
J2VwaWtfcHl0aG9uJywgJy1waCcsICc3LjAnLCAnLXRuJywgJzgnLCAnLW1hJywgJzIwMCcsICctbWV0YWxfYmluZGluZycsICctaW1hZScsICc8aW5maWxlLm1hZT4nLCAnLW9tYWUnLCAnPG91dGZpbGUubWFlPic=

> <r_epik_Ionization_Penalty>
2.30802

> <r_epik_Ionization_Penalty_Charging>
2.30798

> <r_epik_Ionization_Penalty_Neutral>
3.4851e-05

> <r_epik_State_Penalty>
2.52618

> <r_epik_Charging_Adjusted_Penalty>
4.83416

> <i_epik_Tot_Q>
3

> <i_epik_Tot_abs_Q>
3

> <r_epik_Metal_State_Penalty>
6.53149

> <b_epik_Metal_Only>
0

> <s_lp_Force_Field>
OPLS_2005

> <r_lp_Energy>
46.6076

> <b_lp_Chiralities_Consistent>
1

> <s_lp_Variant>
AV-unprocessed.smi:1005-20

> <Gold.Version>
5.8.1

> <Gold.Id.Protein>
6NUR|6NUR_protein|mol2

> <Gold.PLP.Fitness>
56.3318

> <Gold.PLP.PLP>
-43.7538

> <Gold.PLP.part.hbond>
-4.8143

> <Gold.PLP.part.metal>
0.0000

> <Gold.PLP.part.buried>
0.4788

> <Gold.PLP.part.nonpolar>
-39.6063

> <Gold.PLP.part.repulsive>
0.1645

> <Gold.PLP.ligand.clash>
0.0000

> <Gold.PLP.ligand.torsion>
1.8948

> <Gold.PLP.Chemscore.Hbond>
5.4000

> <Gold.PLP.Chemscore.CHOScore>
0.0000

> <Gold.PLP.Chemscore.Metal>
0.0000

> <Gold.Chemscore.Hbonds>
donor molecule, donor type, donor heavy atom, donor atom, acceptor molecule, acceptor atom, score
      L1  H     5    58       P1  8028  1.41
      L1  H    12    57       P1  7957  1.00
      L1  H    18    56       P1  7948  2.00
      P1  H  7997  8009       L1    10  0.36

> <Gold.PLP.Chemscore.Internal.Correction>
0.1675

> <Gold.Rescore>
     Score         DG    S(hbond)    S(metal)    S(lipo)     H(rot)  DE(clash)    DE(int)     intcor
     20.56     -24.26       3.13        0.00     127.16       2.56       1.78       1.92       ----

> <Gold.Chemscore.Fitness>
20.5634

> <Gold.Chemscore.DG>
-24.2624

> <Gold.Chemscore.ZeroCoef>
-5.4800

> <Gold.Chemscore.Hbond>
3.1285

> <Gold.Chemscore.Metal>
0.0000

> <Gold.Chemscore.Lipo>
127.1640

> <Gold.Chemscore.Internal_Hbond>
0.0000

> <Gold.Chemscore.DEClash>
1.7772

> <Gold.Chemscore.DEInternal>
1.9218

> <Gold.Chemscore.Rot>
2.5566

> <Gold.Chemscore.Internal.Correction>
   9.000000E+99

> <Gold.Chemscore.Hbonds>
donor molecule, donor type, donor heavy atom, donor atom, acceptor molecule, acceptor atom, score
      L1  H     5    58       P1  8028  0.52
      L1  H    12    57       P1  7957  0.97
      L1  H    18    56       P1  7948  1.00
      P1  H  7997  8009       L1    10  0.18

> <Gold.Chemscore.Hbond.Weighted>
-10.4492

> <Gold.Chemscore.Metal.Weighted>
-0.0000

> <Gold.Chemscore.Lipo.Weighted>
-14.8782

> <Gold.Chemscore.Internal_Hbond.Weighted>
0.0000

> <Gold.Chemscore.DEClash.Weighted>
1.7772

> <Gold.Chemscore.DEInternal.Weighted>
1.9218

> <Gold.Chemscore.Rot.Weighted>
6.5450

> <Gold.Chemscore.Internal.Correction.Weighted>
   9.000000E+99

> <Gold.Protein.RotatedTorsions>
[ 6907 6896 6895 6894 ] final  -53.06 input  -60.11 | X-H torsion
[ 7974 7965 7964 7962 ] final   73.47 input  175.53 | X-H torsion
[ 8008 7997 7996 7995 ] final -132.21 input   59.86 | X-H torsion
[ 10167 10162 10161 10158 ] final   34.99 input  -65.29 | X-H torsion
[ 10718 10713 10712 10709 ] final   94.29 input   66.30 | X-H torsion
[ 10763 10752 10751 10750 ] final  142.58 input  -60.55 | X-H torsion
[ 11005 11000 10999 10996 ] final   34.84 input  -57.11 | X-H torsion

> <Gold.Protein.ActiveResidues>
 VAL166  LYS551  ARG553  GLY616  TRP617  ASP618  TYR619  PRO620  LYS621  CYS622 
 ASP623  PHE694  ASN695  SER759  ASP760  ASP761  ALA762  ILE779  LEU786  VAL792 
 PHE793  MET794  SER795  GLU796  ALA797  LYS798  CYS799  TRP800  GLU811  SER814 

> <Gold.Protein.RotatedAtoms>
  150.8461  134.7770  159.6971 H   0  0  0  0  0  0  0  0  0  0  0  0  # atno 6907 bound_to 6896
  152.4537  134.5334  159.9827 H   0  0  0  0  0  0  0  0  0  0  0  0  # atno 6908 bound_to 6896
  151.5464  133.3386  159.2980 H   0  0  0  0  0  0  0  0  0  0  0  0  # atno 6909 bound_to 6896
  145.7404  139.2719  143.1489 H   0  0  0  0  0  0  0  0  0  0  0  0  # atno 7974 bound_to 7965
  155.3252  140.0464  157.3041 H   0  0  0  0  0  0  0  0  0  0  0  0  # atno 8008 bound_to 7997
  154.5358  140.2272  155.8691 H   0  0  0  0  0  0  0  0  0  0  0  0  # atno 8009 bound_to 7997
  156.1833  140.3068  155.9197 H   0  0  0  0  0  0  0  0  0  0  0  0  # atno 8010 bound_to 7997
  140.4264  144.1387  150.6154 H   0  0  0  0  0  0  0  0  0  0  0  0  # atno 10167 bound_to 10162
  157.6949  131.0507  150.4163 H   0  0  0  0  0  0  0  0  0  0  0  0  # atno 10718 bound_to 10713
  153.9581  135.2963  155.3435 H   0  0  0  0  0  0  0  0  0  0  0  0  # atno 10763 bound_to 10752
  154.7390  135.5033  153.9093 H   0  0  0  0  0  0  0  0  0  0  0  0  # atno 10764 bound_to 10752
  153.0960  135.6721  153.9872 H   0  0  0  0  0  0  0  0  0  0  0  0  # atno 10765 bound_to 10752
  140.2488  134.3328  155.7898 H   0  0  0  0  0  0  0  0  0  0  0  0  # atno 11005 bound_to 11000
  146.0453  140.8124  142.9808 LP  0  0  0  0  0  0  0  0  0  0  0  0  # atno 17320 bound_to 7965
  144.6872  140.2971  143.7269 LP  0  0  0  0  0  0  0  0  0  0  0  0  # atno 17321 bound_to 7965
  140.4477  143.2500  151.9390 LP  0  0  0  0  0  0  0  0  0  0  0  0  # atno 17342 bound_to 10162
  139.4783  144.5593  151.8264 LP  0  0  0  0  0  0  0  0  0  0  0  0  # atno 17343 bound_to 10162
  156.4542  130.4018  149.6616 LP  0  0  0  0  0  0  0  0  0  0  0  0  # atno 17370 bound_to 10713
  156.3755  130.7552  151.2540 LP  0  0  0  0  0  0  0  0  0  0  0  0  # atno 17371 bound_to 10713
  141.2203  133.7341  156.9003 LP  0  0  0  0  0  0  0  0  0  0  0  0  # atno 17394 bound_to 11000
  140.1579  134.9185  157.2677 LP  0  0  0  0  0  0  0  0  0  0  0  0  # atno 17395 bound_to 11000

$$$$
