AV-unprocessed.smi:2061|AV-procd|sdf|8375|dock3
  -GOLD-   2272011 53D 1   1.00000     0.00000
 Structure written by MMmdl.
 44 45  0  0  0  0  0  0  0  0  2 V2000
  146.6437  134.6260  161.9212 C   0  0  0  0  0  0  0  0  0  0  0  0
  147.5078  135.2357  160.8710 C   0  0  0  0  0  0  0  0  0  0  0  0
  147.9032  136.5199  160.6260 C   0  0  0  0  0  0  0  0  0  0  0  0
  148.7239  136.3923  159.4720 C   0  0  0  0  0  0  0  0  0  0  0  0
  149.3438  137.3943  158.8298 N   0  5  0  0  0  0  0  0  0  0  0  0
  150.6034  137.2295  158.3636 C   0  0  0  0  0  0  0  0  0  0  0  0
  151.4339  136.4173  158.7770 O   0  0  0  0  0  0  0  0  0  0  0  0
  150.9185  138.0657  157.3633 N   0  0  0  0  0  0  0  0  0  0  0  0
  152.1962  138.1381  156.6561 C   0  0  0  0  0  0  0  0  0  0  0  0
  152.0774  138.7995  155.2532 C   0  0  1  0  0  0  0  0  0  0  0  0
  151.4376  137.7879  154.2680 C   0  0  0  0  0  0  0  0  0  0  0  0
  151.3674  140.1011  155.2776 N   0  0  0  0  0  0  0  0  0  0  0  0
  151.6787  140.8896  156.4751 C   0  0  0  0  0  0  0  0  0  0  0  0
  150.9312  142.2359  156.5203 C   0  0  2  0  0  0  0  0  0  0  0  0
  151.2090  143.0097  157.8135 C   0  0  0  0  0  0  0  0  0  0  0  0
  149.5322  141.9956  156.4382 O   0  0  0  0  0  0  0  0  0  0  0  0
  149.1653  141.3023  155.2523 C   0  0  2  0  0  0  0  0  0  0  0  0
  147.6435  141.1223  155.2531 C   0  0  0  0  0  0  0  0  0  0  0  0
  149.9098  139.9543  155.2013 C   0  0  0  0  0  0  0  0  0  0  0  0
  148.8049  135.1434  159.0444 N   0  0  0  0  0  0  0  0  0  0  0  0
  148.0325  134.3942  159.9400 O   0  0  0  0  0  0  0  0  0  0  0  0
  145.5998  134.8991  161.7667 H   0  0  0  0  0  0  0  0  0  0  0  0
  146.9406  134.9697  162.9121 H   0  0  0  0  0  0  0  0  0  0  0  0
  146.7149  133.5381  161.9063 H   0  0  0  0  0  0  0  0  0  0  0  0
  147.6506  137.4090  161.1840 H   0  0  0  0  0  0  0  0  0  0  0  0
  150.2024  138.7117  157.0656 H   0  0  0  0  0  0  0  0  0  0  0  0
  152.9587  138.6474  157.2475 H   0  0  0  0  0  0  0  0  0  0  0  0
  152.5149  137.1007  156.5769 H   0  0  0  0  0  0  0  0  0  0  0  0
  153.0950  138.9802  154.9028 H   0  0  0  0  0  0  0  0  0  0  0  0
  151.9481  136.8260  154.2713 H   0  0  0  0  0  0  0  0  0  0  0  0
  151.4872  138.1243  153.2337 H   0  0  0  0  0  0  0  0  0  0  0  0
  150.3916  137.6045  154.5158 H   0  0  0  0  0  0  0  0  0  0  0  0
  151.4420  140.3101  157.3690 H   0  0  0  0  0  0  0  0  0  0  0  0
  152.7423  141.1160  156.5173 H   0  0  0  0  0  0  0  0  0  0  0  0
  151.2366  142.8520  155.6727 H   0  0  0  0  0  0  0  0  0  0  0  0
  152.2718  143.2292  157.9190 H   0  0  0  0  0  0  0  0  0  0  0  0
  150.8957  142.4400  158.6889 H   0  0  0  0  0  0  0  0  0  0  0  0
  150.6715  143.9582  157.8232 H   0  0  0  0  0  0  0  0  0  0  0  0
  149.4449  141.9063  154.3873 H   0  0  0  0  0  0  0  0  0  0  0  0
  147.3089  140.6068  154.3525 H   0  0  0  0  0  0  0  0  0  0  0  0
  147.1368  142.0869  155.2918 H   0  0  0  0  0  0  0  0  0  0  0  0
  147.3159  140.5389  156.1140 H   0  0  0  0  0  0  0  0  0  0  0  0
  149.6220  139.4731  154.2688 H   0  0  0  0  0  0  0  0  0  0  0  0
  149.5620  139.3119  156.0121 H   0  0  0  0  0  0  0  0  0  0  0  0
  1  2  1  0  0  0  0
  1 22  1  0  0  0  0
  1 23  1  0  0  0  0
  1 24  1  0  0  0  0
  2 21  1  0  0  0  0
  2  3  2  0  0  0  0
  3  4  1  0  0  0  0
  3 25  1  0  0  0  0
  4  5  1  0  0  0  0
  4 20  2  0  0  0  0
  5  6  1  0  0  0  0
  6  7  2  0  0  0  0
  6  8  1  0  0  0  0
  8  9  1  0  0  0  0
  8 26  1  0  0  0  0
  9 10  1  0  0  0  0
  9 27  1  0  0  0  0
  9 28  1  0  0  0  0
 10 11  1  0  0  0  0
 10 12  1  0  0  0  0
 10 29  1  0  0  0  0
 11 30  1  0  0  0  0
 11 31  1  0  0  0  0
 11 32  1  0  0  0  0
 12 19  1  0  0  0  0
 12 13  1  0  0  0  0
 13 14  1  0  0  0  0
 13 33  1  0  0  0  0
 13 34  1  0  0  0  0
 14 15  1  0  0  0  0
 14 16  1  0  0  0  0
 14 35  1  0  0  0  0
 15 36  1  0  0  0  0
 15 37  1  0  0  0  0
 15 38  1  0  0  0  0
 16 17  1  0  0  0  0
 17 18  1  0  0  0  0
 17 19  1  0  0  0  0
 17 39  1  0  0  0  0
 18 40  1  0  0  0  0
 18 41  1  0  0  0  0
 18 42  1  0  0  0  0
 19 43  1  0  0  0  0
 19 44  1  0  0  0  0
 20 21  1  0  0  0  0
M  CHG  1   5  -1
M  END
> <s_m_source_file>
AV-unprocessed.smi

> <i_m_source_file_index>
2061

> <i_lp_mmshare_version>
43012

> <i_f3d_flags>
0

> <s_epik_input>
W0NIM11jMVtjSF1jKG5vMSlbTkhdQyg9TylbTkhdW0NIMl1bQ0BIXShbQ0gzXSlOMltDSDJdW0NAQEhdKFtDSDNdKU9bQ0BASF0oW0NIM10pW0NIMl0y

> <s_epik_cmdline>
J2VwaWtfcHl0aG9uJywgJy1waCcsICc3LjAnLCAnLXRuJywgJzgnLCAnLW1hJywgJzIwMCcsICctbWV0YWxfYmluZGluZycsICctaW1hZScsICc8aW5maWxlLm1hZT4nLCAnLW9tYWUnLCAnPG91dGZpbGUubWFlPic=

> <r_epik_Ionization_Penalty>
6.88367

> <r_epik_Ionization_Penalty_Charging>
6.57198

> <r_epik_Ionization_Penalty_Neutral>
0.311681

> <r_epik_State_Penalty>
6.77619

> <r_epik_Charging_Adjusted_Penalty>
13.3482

> <i_epik_Tot_Q>
-1

> <i_epik_Tot_abs_Q>
1

> <r_epik_Metal_State_Penalty>
2.70524

> <b_epik_Metal_Only>
1

> <s_lp_Force_Field>
OPLS_2005

> <r_lp_Energy>
21.0449

> <b_lp_Chiralities_Consistent>
1

> <s_lp_Variant>
AV-unprocessed.smi:2061-16

> <Gold.Version>
5.8.1

> <Gold.Id.Protein>
6NUR|6NUR_protein|mol2

> <Gold.PLP.Fitness>
38.4960

> <Gold.PLP.PLP>
-33.8225

> <Gold.PLP.part.hbond>
-3.0079

> <Gold.PLP.part.metal>
0.0000

> <Gold.PLP.part.buried>
-6.0126

> <Gold.PLP.part.nonpolar>
-26.7230

> <Gold.PLP.part.repulsive>
1.5842

> <Gold.PLP.ligand.clash>
0.0000

> <Gold.PLP.ligand.torsion>
1.1161

> <Gold.PLP.Chemscore.Hbond>
2.2680

> <Gold.PLP.Chemscore.CHOScore>
0.0000

> <Gold.PLP.Chemscore.Metal>
0.0000

> <Gold.Chemscore.Hbonds>
donor molecule, donor type, donor heavy atom, donor atom, acceptor molecule, acceptor atom, score
      P1  H  6896  6908       L1    20  0.85
      P1  H  6896  6909       L1     7  0.29
      P1  H  7989  7998       L1    12  0.90

> <Gold.PLP.Chemscore.Internal.Correction>
0.1017

> <Gold.Rescore>
     Score         DG    S(hbond)    S(metal)    S(lipo)     H(rot)  DE(clash)    DE(int)     intcor
     10.16     -14.82       0.94        0.00      86.35       1.52       1.49       3.16       ----

> <Gold.Chemscore.Fitness>
10.1637

> <Gold.Chemscore.DG>
-14.8191

> <Gold.Chemscore.ZeroCoef>
-5.4800

> <Gold.Chemscore.Hbond>
0.9357

> <Gold.Chemscore.Metal>
0.0000

> <Gold.Chemscore.Lipo>
86.3454

> <Gold.Chemscore.Internal_Hbond>
0.0000

> <Gold.Chemscore.DEClash>
1.4908

> <Gold.Chemscore.DEInternal>
3.1646

> <Gold.Chemscore.Rot>
1.5190

> <Gold.Chemscore.Internal.Correction>
   9.000000E+99

> <Gold.Chemscore.Hbonds>
donor molecule, donor type, donor heavy atom, donor atom, acceptor molecule, acceptor atom, score
      P1  H  6896  6908       L1    20  0.13
      P1  H  6896  6909       L1     7  0.30
      P1  H  7989  7998       L1    12  0.08

> <Gold.Chemscore.Hbond.Weighted>
-3.1253

> <Gold.Chemscore.Metal.Weighted>
-0.0000

> <Gold.Chemscore.Lipo.Weighted>
-10.1024

> <Gold.Chemscore.Internal_Hbond.Weighted>
0.0000

> <Gold.Chemscore.DEClash.Weighted>
1.4908

> <Gold.Chemscore.DEInternal.Weighted>
3.1646

> <Gold.Chemscore.Rot.Weighted>
3.8886

> <Gold.Chemscore.Internal.Correction.Weighted>
   9.000000E+99

> <Gold.Protein.RotatedTorsions>
[ 6907 6896 6895 6894 ] final  149.25 input  -60.11 | X-H torsion
[ 7974 7965 7964 7962 ] final    4.08 input  175.53 | X-H torsion
[ 8008 7997 7996 7995 ] final   46.66 input   59.86 | X-H torsion
[ 10167 10162 10161 10158 ] final  -60.61 input  -65.29 | X-H torsion
[ 10718 10713 10712 10709 ] final  -48.50 input   66.30 | X-H torsion
[ 10763 10752 10751 10750 ] final -144.71 input  -60.55 | X-H torsion
[ 11005 11000 10999 10996 ] final -161.88 input  -57.11 | X-H torsion

> <Gold.Protein.ActiveResidues>
 VAL166  LYS551  ARG553  GLY616  TRP617  ASP618  TYR619  PRO620  LYS621  CYS622 
 ASP623  PHE694  ASN695  SER759  ASP760  ASP761  ALA762  ILE779  LEU786  VAL792 
 PHE793  MET794  SER795  GLU796  ALA797  LYS798  CYS799  TRP800  GLU811  SER814 

> <Gold.Protein.RotatedAtoms>
  152.1306  133.4405  159.4718 H   0  0  0  0  0  0  0  0  0  0  0  0  # atno 6907 bound_to 6896
  150.6878  134.2425  159.4487 H   0  0  0  0  0  0  0  0  0  0  0  0  # atno 6908 bound_to 6896
  152.0309  134.9768  160.0623 H   0  0  0  0  0  0  0  0  0  0  0  0  # atno 6909 bound_to 6896
  146.2444  140.0588  142.8370 H   0  0  0  0  0  0  0  0  0  0  0  0  # atno 7974 bound_to 7965
  155.3561  140.3416  155.4240 H   0  0  0  0  0  0  0  0  0  0  0  0  # atno 8008 bound_to 7997
  156.1738  140.1641  156.8434 H   0  0  0  0  0  0  0  0  0  0  0  0  # atno 8009 bound_to 7997
  154.5261  140.0756  156.8243 H   0  0  0  0  0  0  0  0  0  0  0  0  # atno 8010 bound_to 7997
  140.6060  143.2373  151.5820 H   0  0  0  0  0  0  0  0  0  0  0  0  # atno 10167 bound_to 10162
  156.1982  130.4155  149.9277 H   0  0  0  0  0  0  0  0  0  0  0  0  # atno 10718 bound_to 10713
  154.8416  135.3433  154.6388 H   0  0  0  0  0  0  0  0  0  0  0  0  # atno 10763 bound_to 10752
  153.6999  135.6970  153.5070 H   0  0  0  0  0  0  0  0  0  0  0  0  # atno 10764 bound_to 10752
  153.2531  135.4347  155.0772 H   0  0  0  0  0  0  0  0  0  0  0  0  # atno 10765 bound_to 10752
  140.6154  134.4805  157.5219 H   0  0  0  0  0  0  0  0  0  0  0  0  # atno 11005 bound_to 11000
  145.0918  140.9289  143.4764 LP  0  0  0  0  0  0  0  0  0  0  0  0  # atno 17320 bound_to 7965
  145.0763  139.2993  143.5806 LP  0  0  0  0  0  0  0  0  0  0  0  0  # atno 17321 bound_to 7965
  139.5325  144.2874  152.1180 LP  0  0  0  0  0  0  0  0  0  0  0  0  # atno 17342 bound_to 10162
  140.2064  144.4607  150.6407 LP  0  0  0  0  0  0  0  0  0  0  0  0  # atno 17343 bound_to 10162
  156.6995  130.8927  151.3598 LP  0  0  0  0  0  0  0  0  0  0  0  0  # atno 17370 bound_to 10713
  157.6970  130.9292  150.0673 LP  0  0  0  0  0  0  0  0  0  0  0  0  # atno 17371 bound_to 10713
  139.9175  134.8217  156.1319 LP  0  0  0  0  0  0  0  0  0  0  0  0  # atno 17394 bound_to 11000
  141.0779  133.6767  156.2274 LP  0  0  0  0  0  0  0  0  0  0  0  0  # atno 17395 bound_to 11000

$$$$
