AV-unprocessed.smi:3042|AV-procd|sdf|11601|dock10
  -GOLD-   2272016583D 1   1.00000     0.00000
 Structure written by MMmdl.
 32 33  0  0  0  0  0  0  0  0  1 V2000
  148.5871  142.3122  156.0921 N   0  0  0  0  0  0  0  0  0  0  0  0
  149.6661  141.3759  155.7359 C   0  0  0  0  0  0  0  0  0  0  0  0
  150.2708  140.6467  156.9627 C   0  0  2  0  0  0  0  0  0  0  0  0
  151.1092  141.6423  157.7630 C   0  0  0  0  0  0  0  0  0  0  0  0
  151.7444  141.2669  158.9672 C   0  0  0  0  0  0  0  0  0  0  0  0
  152.5112  142.2235  159.6594 C   0  0  0  0  0  0  0  0  0  0  0  0
  152.6134  143.5201  159.1178 C   0  0  0  0  0  0  0  0  0  0  0  0
  152.0122  143.8926  157.9675 N   0  0  0  0  0  0  0  0  0  0  0  0
  151.2795  142.9686  157.3093 C   0  0  0  0  0  0  0  0  0  0  0  0
  151.0441  139.4321  156.6296 N   0  0  0  0  0  0  0  0  0  0  0  0
  150.1747  138.3329  156.1943 C   0  0  0  0  0  0  0  0  0  0  0  0
  150.9635  137.0615  155.8375 C   0  0  0  0  0  0  0  0  0  0  0  0
  151.9167  137.3613  154.8262 O   0  0  0  0  0  0  0  0  0  0  0  0
  152.8231  138.3811  155.2256 C   0  0  0  0  0  0  0  0  0  0  0  0
  152.0442  139.6593  155.5829 C   0  0  0  0  0  0  0  0  0  0  0  0
  148.7379  143.2161  155.6465 H   0  0  0  0  0  0  0  0  0  0  0  0
  147.6887  141.9627  155.7623 H   0  0  0  0  0  0  0  0  0  0  0  0
  149.2574  140.6549  155.0303 H   0  0  0  0  0  0  0  0  0  0  0  0
  150.4520  141.9116  155.2026 H   0  0  0  0  0  0  0  0  0  0  0  0
  149.4354  140.3463  157.5977 H   0  0  0  0  0  0  0  0  0  0  0  0
  151.6459  140.2632  159.3538 H   0  0  0  0  0  0  0  0  0  0  0  0
  153.0104  141.9690  160.5826 H   0  0  0  0  0  0  0  0  0  0  0  0
  153.1946  144.2783  159.6215 H   0  0  0  0  0  0  0  0  0  0  0  0
  150.8144  143.3000  156.3923 H   0  0  0  0  0  0  0  0  0  0  0  0
  149.4582  138.0763  156.9743 H   0  0  0  0  0  0  0  0  0  0  0  0
  149.5904  138.6466  155.3279 H   0  0  0  0  0  0  0  0  0  0  0  0
  151.4671  136.6578  156.7173 H   0  0  0  0  0  0  0  0  0  0  0  0
  150.2888  136.2879  155.4708 H   0  0  0  0  0  0  0  0  0  0  0  0
  153.4149  138.0397  156.0763 H   0  0  0  0  0  0  0  0  0  0  0  0
  153.5192  138.5775  154.4103 H   0  0  0  0  0  0  0  0  0  0  0  0
  151.5606  140.0513  154.6870 H   0  0  0  0  0  0  0  0  0  0  0  0
  152.7722  140.4030  155.9019 H   0  0  0  0  0  0  0  0  0  0  0  0
  1  2  1  0  0  0  0
  1 16  1  0  0  0  0
  1 17  1  0  0  0  0
  2  3  1  0  0  0  0
  2 18  1  0  0  0  0
  2 19  1  0  0  0  0
  3  4  1  0  0  0  0
  3 10  1  0  0  0  0
  3 20  1  0  0  0  0
  4  9  1  0  0  0  0
  4  5  2  0  0  0  0
  5  6  1  0  0  0  0
  5 21  1  0  0  0  0
  6  7  2  0  0  0  0
  6 22  1  0  0  0  0
  7  8  1  0  0  0  0
  7 23  1  0  0  0  0
  8  9  2  0  0  0  0
  9 24  1  0  0  0  0
 10 15  1  0  0  0  0
 10 11  1  0  0  0  0
 11 12  1  0  0  0  0
 11 25  1  0  0  0  0
 11 26  1  0  0  0  0
 12 13  1  0  0  0  0
 12 27  1  0  0  0  0
 12 28  1  0  0  0  0
 13 14  1  0  0  0  0
 14 15  1  0  0  0  0
 14 29  1  0  0  0  0
 14 30  1  0  0  0  0
 15 31  1  0  0  0  0
 15 32  1  0  0  0  0
M  END
> <s_m_source_file>
AV-unprocessed.smi

> <i_m_source_file_index>
3042

> <i_lp_mmshare_version>
43012

> <i_f3d_flags>
0

> <s_epik_input>
W0NIMl0xW0NIMl1PW0NIMl1bQ0gyXU4xW0NASF0oW0NIMl1bTkgyXSljMltjSF1bY0hdW2NIXW5bY0hdMg==

> <s_epik_cmdline>
J2VwaWtfcHl0aG9uJywgJy1waCcsICc3LjAnLCAnLXRuJywgJzgnLCAnLW1hJywgJzIwMCcsICctbWV0YWxfYmluZGluZycsICctaW1hZScsICc8aW5maWxlLm1hZT4nLCAnLW9tYWUnLCAnPG91dGZpbGUubWFlPic=

> <r_epik_Ionization_Penalty>
2.62143

> <r_epik_Ionization_Penalty_Charging>
0

> <r_epik_Ionization_Penalty_Neutral>
2.62143

> <r_epik_State_Penalty>
2.72742

> <r_epik_Charging_Adjusted_Penalty>
2.72742

> <i_epik_Tot_Q>
0

> <i_epik_Tot_abs_Q>
0

> <r_epik_Metal_State_Penalty>
2.72081

> <b_epik_Metal_Only>
0

> <s_lp_Force_Field>
OPLS_2005

> <r_lp_Energy>
27.3222

> <b_lp_Chiralities_Consistent>
1

> <s_lp_Variant>
AV-unprocessed.smi:3042-3

> <Gold.Version>
5.8.1

> <Gold.Id.Protein>
6NUR|6NUR_protein|mol2

> <Gold.PLP.Fitness>
36.5259

> <Gold.PLP.PLP>
-28.4145

> <Gold.PLP.part.hbond>
-1.9048

> <Gold.PLP.part.metal>
0.0000

> <Gold.PLP.part.buried>
-4.9223

> <Gold.PLP.part.nonpolar>
-22.9851

> <Gold.PLP.part.repulsive>
0.1770

> <Gold.PLP.ligand.clash>
0.0000

> <Gold.PLP.ligand.torsion>
0.2983

> <Gold.PLP.Chemscore.Hbond>
1.8800

> <Gold.PLP.Chemscore.CHOScore>
1.0000

> <Gold.PLP.Chemscore.Metal>
0.0000

> <Gold.Chemscore.Hbonds>
donor molecule, donor type, donor heavy atom, donor atom, acceptor molecule, acceptor atom, score
      L1  H     1    16       P1  8028  0.93
      P1  H 10752 10764       L1    13  0.90
      L1  C     9    24       P1  8028  1.00

> <Gold.PLP.Chemscore.Internal.Correction>
0.0681

> <Gold.Rescore>
     Score         DG    S(hbond)    S(metal)    S(lipo)     H(rot)  DE(clash)    DE(int)     intcor
     16.56     -17.05       1.71        0.00      81.56       1.44       0.03       0.47       ----

> <Gold.Chemscore.Fitness>
16.5561

> <Gold.Chemscore.DG>
-17.0548

> <Gold.Chemscore.ZeroCoef>
-5.4800

> <Gold.Chemscore.Hbond>
1.7090

> <Gold.Chemscore.Metal>
0.0000

> <Gold.Chemscore.Lipo>
81.5612

> <Gold.Chemscore.Internal_Hbond>
0.0000

> <Gold.Chemscore.DEClash>
0.0276

> <Gold.Chemscore.DEInternal>
0.4711

> <Gold.Chemscore.Rot>
1.4359

> <Gold.Chemscore.Internal.Correction>
   9.000000E+99

> <Gold.Chemscore.Hbonds>
donor molecule, donor type, donor heavy atom, donor atom, acceptor molecule, acceptor atom, score
      L1  H     1    16       P1  8028  0.86
      P1  H 10752 10764       L1    13  0.32

> <Gold.Chemscore.Hbond.Weighted>
-5.7081

> <Gold.Chemscore.Metal.Weighted>
-0.0000

> <Gold.Chemscore.Lipo.Weighted>
-9.5427

> <Gold.Chemscore.Internal_Hbond.Weighted>
0.0000

> <Gold.Chemscore.DEClash.Weighted>
0.0276

> <Gold.Chemscore.DEInternal.Weighted>
0.4711

> <Gold.Chemscore.Rot.Weighted>
3.6759

> <Gold.Chemscore.Internal.Correction.Weighted>
   9.000000E+99

> <Gold.Protein.RotatedTorsions>
[ 6907 6896 6895 6894 ] final  -27.19 input  -60.11 | X-H torsion
[ 7974 7965 7964 7962 ] final   -8.14 input  175.53 | X-H torsion
[ 8008 7997 7996 7995 ] final  141.98 input   59.86 | X-H torsion
[ 10167 10162 10161 10158 ] final  -52.62 input  -65.29 | X-H torsion
[ 10718 10713 10712 10709 ] final   -5.55 input   66.30 | X-H torsion
[ 10763 10752 10751 10750 ] final  -65.19 input  -60.55 | X-H torsion
[ 11005 11000 10999 10996 ] final  -73.13 input  -57.11 | X-H torsion

> <Gold.Protein.ActiveResidues>
 VAL166  LYS551  ARG553  GLY616  TRP617  ASP618  TYR619  PRO620  LYS621  CYS622 
 ASP623  PHE694  ASN695  SER759  ASP760  ASP761  ALA762  ILE779  LEU786  VAL792 
 PHE793  MET794  SER795  GLU796  ALA797  LYS798  CYS799  TRP800  GLU811  SER814 

> <Gold.Protein.RotatedAtoms>
  151.1504  135.0224  159.8665 H   0  0  0  0  0  0  0  0  0  0  0  0  # atno 6907 bound_to 6896
  152.5453  134.1395  159.8483 H   0  0  0  0  0  0  0  0  0  0  0  0  # atno 6908 bound_to 6896
  151.1480  133.4881  159.2628 H   0  0  0  0  0  0  0  0  0  0  0  0  # atno 6909 bound_to 6896
  146.2288  140.2424  142.8344 H   0  0  0  0  0  0  0  0  0  0  0  0  # atno 7974 bound_to 7965
  156.2957  140.2301  156.4653 H   0  0  0  0  0  0  0  0  0  0  0  0  # atno 8008 bound_to 7997
  154.7983  140.0450  157.1274 H   0  0  0  0  0  0  0  0  0  0  0  0  # atno 8009 bound_to 7997
  154.9564  140.3048  155.5054 H   0  0  0  0  0  0  0  0  0  0  0  0  # atno 8010 bound_to 7997
  140.6527  143.2577  151.4675 H   0  0  0  0  0  0  0  0  0  0  0  0  # atno 10167 bound_to 10162
  156.7449  130.5221  149.5816 H   0  0  0  0  0  0  0  0  0  0  0  0  # atno 10718 bound_to 10713
  154.3413  135.6156  153.5597 H   0  0  0  0  0  0  0  0  0  0  0  0  # atno 10763 bound_to 10752
  152.9804  135.5770  154.4850 H   0  0  0  0  0  0  0  0  0  0  0  0  # atno 10764 bound_to 10752
  154.4554  135.2854  155.1728 H   0  0  0  0  0  0  0  0  0  0  0  0  # atno 10765 bound_to 10752
  141.1618  133.6868  156.7165 H   0  0  0  0  0  0  0  0  0  0  0  0  # atno 11005 bound_to 11000
  144.9474  140.8143  143.5593 LP  0  0  0  0  0  0  0  0  0  0  0  0  # atno 17320 bound_to 7965
  145.2381  139.2084  143.5007 LP  0  0  0  0  0  0  0  0  0  0  0  0  # atno 17321 bound_to 7965
  139.5745  144.1851  152.1884 LP  0  0  0  0  0  0  0  0  0  0  0  0  # atno 17342 bound_to 10162
  140.1157  144.5417  150.6895 LP  0  0  0  0  0  0  0  0  0  0  0  0  # atno 17343 bound_to 10162
  156.1440  130.6264  151.0506 LP  0  0  0  0  0  0  0  0  0  0  0  0  # atno 17370 bound_to 10713
  157.6802  131.0840  150.7389 LP  0  0  0  0  0  0  0  0  0  0  0  0  # atno 17371 bound_to 10713
  140.2848  134.8288  157.3965 LP  0  0  0  0  0  0  0  0  0  0  0  0  # atno 17394 bound_to 11000
  140.1400  134.4983  155.8038 LP  0  0  0  0  0  0  0  0  0  0  0  0  # atno 17395 bound_to 11000

$$$$
