AV-unprocessed.smi:209|AV-procd|sdf|1607|dock6
  -GOLD-   2262019523D 1   1.00000     0.00000
 Structure written by MMmdl.
 48 52  0  0  0  0  0  0  0  0  1 V2000
  143.6036  131.9759  149.7786 O   0  0  0  0  0  0  0  0  0  0  0  0
  144.1159  133.0384  150.1245 C   0  0  0  0  0  0  0  0  0  0  0  0
  143.4972  134.2150  150.2074 N   0  0  0  0  0  0  0  0  0  0  0  0
  144.3465  135.2702  150.7333 C   0  0  0  0  0  0  0  0  0  0  0  0
  145.5867  134.5305  151.2941 C   0  0  2  0  0  0  0  0  0  0  0  0
  145.5834  133.2052  150.4931 C   0  0  1  0  0  0  0  0  0  0  0  0
  146.2570  132.0032  151.1886 C   0  0  0  0  0  0  0  0  0  0  0  0
  145.9147  131.9297  152.6791 C   0  0  0  0  0  0  0  0  0  0  0  0
  146.2432  133.2657  153.3516 C   0  0  0  0  0  0  0  0  0  0  0  0
  145.4577  134.3401  152.7511 N   0  0  0  0  0  0  0  0  0  0  0  0
  145.4248  135.4480  153.5356 C   0  0  0  0  0  0  0  0  0  0  0  0
  144.8388  135.3997  154.7620 N   0  0  0  0  0  0  0  0  0  0  0  0
  144.7986  136.4903  155.5332 C   0  0  0  0  0  0  0  0  0  0  0  0
  145.2746  137.7106  155.2782 N   0  0  0  0  0  0  0  0  0  0  0  0
  145.8648  137.7646  154.0500 C   0  0  0  0  0  0  0  0  0  0  0  0
  145.9820  136.6906  153.1237 C   0  0  0  0  0  0  0  0  0  0  0  0
  146.6521  137.1191  151.9845 N   0  0  0  0  0  0  0  0  0  0  0  0
  146.9110  138.3763  152.2212 C   0  0  0  0  0  0  0  0  0  0  0  0
  146.4664  138.8496  153.4355 N   0  0  0  0  0  0  0  0  0  0  0  0
  146.6216  140.1990  153.9576 C   0  0  0  0  0  0  0  0  0  0  0  0
  147.7859  140.3536  154.9539 C   0  0  0  0  0  0  0  0  0  0  0  0
  149.1151  140.2227  154.1830 C   0  0  0  0  0  0  0  0  0  0  0  0
  149.1373  141.0060  153.0059 O   0  0  0  0  0  0  0  0  0  0  0  0
  147.6663  141.5540  155.9036 C   0  0  0  0  0  0  0  0  0  0  0  0
  147.8300  140.7224  157.0735 O   0  0  0  0  0  0  0  0  0  0  0  0
  147.6785  139.5426  156.2533 C   0  0  0  0  0  0  0  0  0  0  0  0
  146.5003  135.0872  151.0820 H   0  0  0  0  0  0  0  0  0  0  0  0
  146.0957  133.3722  149.5443 H   0  0  0  0  0  0  0  0  0  0  0  0
  142.5183  134.3551  150.0023 H   0  0  0  0  0  0  0  0  0  0  0  0
  144.6325  135.9248  149.9093 H   0  0  0  0  0  0  0  0  0  0  0  0
  143.8109  135.8744  151.4660 H   0  0  0  0  0  0  0  0  0  0  0  0
  145.9867  131.0684  150.6957 H   0  0  0  0  0  0  0  0  0  0  0  0
  147.3382  132.0960  151.0793 H   0  0  0  0  0  0  0  0  0  0  0  0
  144.8585  131.6926  152.8134 H   0  0  0  0  0  0  0  0  0  0  0  0
  146.4788  131.1248  153.1508 H   0  0  0  0  0  0  0  0  0  0  0  0
  146.0476  133.1840  154.4211 H   0  0  0  0  0  0  0  0  0  0  0  0
  147.3046  133.4930  153.2424 H   0  0  0  0  0  0  0  0  0  0  0  0
  144.3144  136.3678  156.4907 H   0  0  0  0  0  0  0  0  0  0  0  0
  147.4394  138.9948  151.5106 H   0  0  0  0  0  0  0  0  0  0  0  0
  146.7457  140.8830  153.1171 H   0  0  0  0  0  0  0  0  0  0  0  0
  145.6773  140.4797  154.4258 H   0  0  0  0  0  0  0  0  0  0  0  0
  149.9586  140.5415  154.7953 H   0  0  0  0  0  0  0  0  0  0  0  0
  149.3005  139.1854  153.9028 H   0  0  0  0  0  0  0  0  0  0  0  0
  148.9041  140.4559  152.2737 H   0  0  0  0  0  0  0  0  0  0  0  0
  148.4605  142.2939  155.7987 H   0  0  0  0  0  0  0  0  0  0  0  0
  146.6880  142.0369  155.8870 H   0  0  0  0  0  0  0  0  0  0  0  0
  146.7069  139.0723  156.4072 H   0  0  0  0  0  0  0  0  0  0  0  0
  148.4849  138.8232  156.4000 H   0  0  0  0  0  0  0  0  0  0  0  0
  1  2  2  0  0  0  0
  2  6  1  0  0  0  0
  2  3  1  0  0  0  0
  3  4  1  0  0  0  0
  3 29  1  0  0  0  0
  4  5  1  0  0  0  0
  4 30  1  0  0  0  0
  4 31  1  0  0  0  0
  5 27  1  0  0  0  0
  5 10  1  0  0  0  0
  5  6  1  0  0  0  0
  6 28  1  0  0  0  0
  6  7  1  0  0  0  0
  7  8  1  0  0  0  0
  7 32  1  0  0  0  0
  7 33  1  0  0  0  0
  8  9  1  0  0  0  0
  8 34  1  0  0  0  0
  8 35  1  0  0  0  0
  9 10  1  0  0  0  0
  9 36  1  0  0  0  0
  9 37  1  0  0  0  0
 10 11  1  0  0  0  0
 11 16  1  0  0  0  0
 11 12  2  0  0  0  0
 12 13  1  0  0  0  0
 13 14  2  0  0  0  0
 13 38  1  0  0  0  0
 14 15  1  0  0  0  0
 15 19  1  0  0  0  0
 15 16  2  0  0  0  0
 16 17  1  0  0  0  0
 17 18  2  0  0  0  0
 18 19  1  0  0  0  0
 18 39  1  0  0  0  0
 19 20  1  0  0  0  0
 20 21  1  0  0  0  0
 20 40  1  0  0  0  0
 20 41  1  0  0  0  0
 21 26  1  0  0  0  0
 21 22  1  0  0  0  0
 21 24  1  0  0  0  0
 22 23  1  0  0  0  0
 22 42  1  0  0  0  0
 22 43  1  0  0  0  0
 23 44  1  0  0  0  0
 24 25  1  0  0  0  0
 24 45  1  0  0  0  0
 24 46  1  0  0  0  0
 25 26  1  0  0  0  0
 26 47  1  0  0  0  0
 26 48  1  0  0  0  0
M  END
> <s_m_source_file>
AV-unprocessed.smi

> <i_m_source_file_index>
209

> <i_lp_mmshare_version>
43012

> <i_f3d_flags>
0

> <s_epik_input>
W0NIMl0xW05IXUMoPU8pW0NAQEhdKFtDQEBIXTEyKVtDSDJdW0NIMl1bQ0gyXU4yYyhuW2NIXW4zKWMoYzM0KW5bY0hdbjRbQ0gyXUM1KFtDSDJdW09IXSlbQ0gyXU9bQ0gyXTU=

> <s_epik_cmdline>
J2VwaWtfcHl0aG9uJywgJy1waCcsICc3LjAnLCAnLXRuJywgJzgnLCAnLW1hJywgJzIwMCcsICctbWV0YWxfYmluZGluZycsICctaW1hZScsICc8aW5maWxlLm1hZT4nLCAnLW9tYWUnLCAnPG91dGZpbGUubWFlPic=

> <r_lp_tautomer_probability>
1

> <r_epik_Ionization_Penalty>
0.00113306

> <r_epik_Ionization_Penalty_Charging>
0

> <r_epik_Ionization_Penalty_Neutral>
0.00113306

> <r_epik_State_Penalty>
0.000624042

> <r_epik_Charging_Adjusted_Penalty>
0.000624042

> <i_epik_Tot_Q>
0

> <i_epik_Tot_abs_Q>
0

> <r_epik_Metal_State_Penalty>
-0

> <b_epik_Metal_Only>
0

> <s_lp_Force_Field>
OPLS_2005

> <r_lp_Energy>
50.3938

> <b_lp_Chiralities_Consistent>
1

> <s_lp_Variant>
AV-unprocessed.smi:209-1

> <Gold.Version>
5.8.1

> <Gold.Id.Protein>
6NUR|6NUR_protein|mol2

> <Gold.PLP.Fitness>
37.8353

> <Gold.PLP.PLP>
-26.0381

> <Gold.PLP.part.hbond>
-4.2030

> <Gold.PLP.part.metal>
0.0000

> <Gold.PLP.part.buried>
-4.3556

> <Gold.PLP.part.nonpolar>
-23.7643

> <Gold.PLP.part.repulsive>
5.0091

> <Gold.PLP.ligand.clash>
0.0000

> <Gold.PLP.ligand.torsion>
0.9444

> <Gold.PLP.Chemscore.Hbond>
3.3301

> <Gold.PLP.Chemscore.CHOScore>
1.0000

> <Gold.PLP.Chemscore.Metal>
0.0000

> <Gold.Chemscore.Hbonds>
donor molecule, donor type, donor heavy atom, donor atom, acceptor molecule, acceptor atom, score
      L1  H     3    29       P1 10186  1.00
      L1  H    23    44       P1  7957  0.41
      P1  H  8011  8017       L1    23  1.00
      P1  H 10785 10796       L1     1  0.70
      L1  C    18    39       P1  7957  1.00

> <Gold.PLP.Chemscore.Internal.Correction>
0.6958

> <Gold.Rescore>
     Score         DG    S(hbond)    S(metal)    S(lipo)     H(rot)  DE(clash)    DE(int)     intcor
      9.86     -15.12       2.78        0.00      61.25       2.66       2.95       2.31       ----

> <Gold.Chemscore.Fitness>
9.8633

> <Gold.Chemscore.DG>
-15.1229

> <Gold.Chemscore.ZeroCoef>
-5.4800

> <Gold.Chemscore.Hbond>
2.7820

> <Gold.Chemscore.Metal>
0.0000

> <Gold.Chemscore.Lipo>
61.2478

> <Gold.Chemscore.Internal_Hbond>
0.0000

> <Gold.Chemscore.DEClash>
2.9462

> <Gold.Chemscore.DEInternal>
2.3135

> <Gold.Chemscore.Rot>
2.6620

> <Gold.Chemscore.Internal.Correction>
   9.000000E+99

> <Gold.Chemscore.Hbonds>
donor molecule, donor type, donor heavy atom, donor atom, acceptor molecule, acceptor atom, score
      L1  H     3    29       P1 10186  0.88
      L1  H    23    44       P1  7957  0.40
      P1  H  8011  8017       L1    23  0.50
      P1  H 10785 10796       L1     1  0.66

> <Gold.Chemscore.Hbond.Weighted>
-9.2917

> <Gold.Chemscore.Metal.Weighted>
-0.0000

> <Gold.Chemscore.Lipo.Weighted>
-7.1660

> <Gold.Chemscore.Internal_Hbond.Weighted>
0.0000

> <Gold.Chemscore.DEClash.Weighted>
2.9462

> <Gold.Chemscore.DEInternal.Weighted>
2.3135

> <Gold.Chemscore.Rot.Weighted>
6.8148

> <Gold.Chemscore.Internal.Correction.Weighted>
   9.000000E+99

> <Gold.Protein.RotatedTorsions>
[ 6907 6896 6895 6894 ] final  -23.12 input  -60.11 | X-H torsion
[ 7974 7965 7964 7962 ] final  -75.25 input  175.53 | X-H torsion
[ 8008 7997 7996 7995 ] final   98.87 input   59.86 | X-H torsion
[ 10167 10162 10161 10158 ] final -138.07 input  -65.29 | X-H torsion
[ 10718 10713 10712 10709 ] final  -64.03 input   66.30 | X-H torsion
[ 10763 10752 10751 10750 ] final   66.00 input  -60.55 | X-H torsion
[ 11005 11000 10999 10996 ] final  -18.06 input  -57.11 | X-H torsion

> <Gold.Protein.ActiveResidues>
 VAL166  LYS551  ARG553  GLY616  TRP617  ASP618  TYR619  PRO620  LYS621  CYS622 
 ASP623  PHE694  ASN695  SER759  ASP760  ASP761  ALA762  ILE779  LEU786  VAL792 
 PHE793  MET794  SER795  GLU796  ALA797  LYS798  CYS799  TRP800  GLU811  SER814 

> <Gold.Protein.RotatedAtoms>
  151.2087  135.0472  159.8901 H   0  0  0  0  0  0  0  0  0  0  0  0  # atno 6907 bound_to 6896
  152.5426  134.0769  159.8229 H   0  0  0  0  0  0  0  0  0  0  0  0  # atno 6908 bound_to 6896
  151.0920  133.5261  159.2646 H   0  0  0  0  0  0  0  0  0  0  0  0  # atno 6909 bound_to 6896
  145.6284  140.9344  143.1100 H   0  0  0  0  0  0  0  0  0  0  0  0  # atno 7974 bound_to 7965
  156.1048  140.3237  155.7991 H   0  0  0  0  0  0  0  0  0  0  0  0  # atno 8008 bound_to 7997
  155.4775  140.0551  157.2989 H   0  0  0  0  0  0  0  0  0  0  0  0  # atno 8009 bound_to 7997
  154.4720  140.2015  155.9985 H   0  0  0  0  0  0  0  0  0  0  0  0  # atno 8010 bound_to 7997
  139.8514  143.7193  152.2657 H   0  0  0  0  0  0  0  0  0  0  0  0  # atno 10167 bound_to 10162
  156.0754  130.4228  150.1361 H   0  0  0  0  0  0  0  0  0  0  0  0  # atno 10718 bound_to 10713
  153.0121  135.5336  154.6755 H   0  0  0  0  0  0  0  0  0  0  0  0  # atno 10763 bound_to 10752
  154.5929  135.2860  155.0619 H   0  0  0  0  0  0  0  0  0  0  0  0  # atno 10764 bound_to 10752
  154.1705  135.6533  153.5061 H   0  0  0  0  0  0  0  0  0  0  0  0  # atno 10765 bound_to 10752
  140.8230  133.8054  155.9679 H   0  0  0  0  0  0  0  0  0  0  0  0  # atno 11005 bound_to 11000
  144.7203  139.8053  143.7384 LP  0  0  0  0  0  0  0  0  0  0  0  0  # atno 17320 bound_to 7965
  146.1376  139.4425  143.0129 LP  0  0  0  0  0  0  0  0  0  0  0  0  # atno 17321 bound_to 7965
  139.7461  144.7547  151.0577 LP  0  0  0  0  0  0  0  0  0  0  0  0  # atno 17342 bound_to 10162
  140.7787  143.4914  150.9888 LP  0  0  0  0  0  0  0  0  0  0  0  0  # atno 17343 bound_to 10162
  156.9404  130.9742  151.3517 LP  0  0  0  0  0  0  0  0  0  0  0  0  # atno 17370 bound_to 10713
  157.5847  130.8401  149.8572 LP  0  0  0  0  0  0  0  0  0  0  0  0  # atno 17371 bound_to 10713
  140.9078  134.2298  157.5004 LP  0  0  0  0  0  0  0  0  0  0  0  0  # atno 17394 bound_to 11000
  139.8707  134.9736  156.4816 LP  0  0  0  0  0  0  0  0  0  0  0  0  # atno 17395 bound_to 11000

$$$$
