AV-unprocessed.smi:2654|AV-procd|sdf|10297|dock4
  -GOLD-   2272014313D 1   1.00000     0.00000
 Structure written by MMmdl.
 35 37  0  0  0  0  0  0  0  0  1 V2000
  145.6616  138.4412  153.8286 O   0  0  0  0  0  0  0  0  0  0  0  0
  146.6131  137.8806  153.2850 C   0  0  0  0  0  0  0  0  0  0  0  0
  147.8940  138.2829  153.3501 N   0  0  0  0  0  0  0  0  0  0  0  0
  148.4424  139.3998  154.0371 C   0  0  0  0  0  0  0  0  0  0  0  0
  147.7067  140.5425  154.4274 C   0  0  0  0  0  0  0  0  0  0  0  0
  148.3703  141.5767  155.1156 C   0  0  0  0  0  0  0  0  0  0  0  0
  149.7459  141.4502  155.4082 C   0  0  0  0  0  0  0  0  0  0  0  0
  150.3188  142.5520  156.0977 N   0  0  0  0  0  0  0  0  0  0  0  0
  151.2215  142.5351  157.0963 C   0  0  0  0  0  0  0  0  0  0  0  0
  151.6906  141.5095  157.5926 O   0  0  0  0  0  0  0  0  0  0  0  0
  151.6104  143.9004  157.5634 C   0  0  0  0  0  0  0  0  0  0  0  0
  152.7239  144.0023  158.5864 C   0  0  0  0  0  0  0  0  0  0  0  0
  151.2984  144.2691  158.9997 C   0  0  0  0  0  0  0  0  0  0  0  0
  150.4417  140.3456  155.0440 N   0  0  0  0  0  0  0  0  0  0  0  0
  149.8065  139.3550  154.3847 C   0  0  0  0  0  0  0  0  0  0  0  0
  146.4919  136.7822  152.5273 N   0  0  0  0  0  0  0  0  0  0  0  0
  145.2689  136.1054  152.2382 C   0  0  0  0  0  0  0  0  0  0  0  0
  145.3493  134.6488  151.8346 C   0  0  0  0  0  0  0  0  0  0  0  0
  145.0176  135.6926  150.8040 C   0  0  0  0  0  0  0  0  0  0  0  0
  148.5508  137.7573  152.7918 H   0  0  0  0  0  0  0  0  0  0  0  0
  146.6519  140.6454  154.2272 H   0  0  0  0  0  0  0  0  0  0  0  0
  147.8207  142.4568  155.4167 H   0  0  0  0  0  0  0  0  0  0  0  0
  150.0082  143.4632  155.7939 H   0  0  0  0  0  0  0  0  0  0  0  0
  151.5475  144.7026  156.8296 H   0  0  0  0  0  0  0  0  0  0  0  0
  153.1857  143.0848  158.9474 H   0  0  0  0  0  0  0  0  0  0  0  0
  153.3980  144.8518  158.4993 H   0  0  0  0  0  0  0  0  0  0  0  0
  151.0073  145.2995  159.1927 H   0  0  0  0  0  0  0  0  0  0  0  0
  150.8150  143.5287  159.6348 H   0  0  0  0  0  0  0  0  0  0  0  0
  150.4120  138.4997  154.1217 H   0  0  0  0  0  0  0  0  0  0  0  0
  147.3296  136.3952  152.1177 H   0  0  0  0  0  0  0  0  0  0  0  0
  144.3895  136.3944  152.8121 H   0  0  0  0  0  0  0  0  0  0  0  0
  146.3336  134.1874  151.7831 H   0  0  0  0  0  0  0  0  0  0  0  0
  144.5451  133.9933  152.1626 H   0  0  0  0  0  0  0  0  0  0  0  0
  143.9919  135.7334  150.4430 H   0  0  0  0  0  0  0  0  0  0  0  0
  145.7807  135.9277  150.0643 H   0  0  0  0  0  0  0  0  0  0  0  0
  1  2  2  0  0  0  0
  2  3  1  0  0  0  0
  2 16  1  0  0  0  0
  3  4  1  0  0  0  0
  3 20  1  0  0  0  0
  4 15  1  0  0  0  0
  4  5  2  0  0  0  0
  5  6  1  0  0  0  0
  5 21  1  0  0  0  0
  6  7  2  0  0  0  0
  6 22  1  0  0  0  0
  7  8  1  0  0  0  0
  7 14  1  0  0  0  0
  8  9  1  0  0  0  0
  8 23  1  0  0  0  0
  9 10  2  0  0  0  0
  9 11  1  0  0  0  0
 11 13  1  0  0  0  0
 11 12  1  0  0  0  0
 11 24  1  0  0  0  0
 12 13  1  0  0  0  0
 12 25  1  0  0  0  0
 12 26  1  0  0  0  0
 13 27  1  0  0  0  0
 13 28  1  0  0  0  0
 14 15  2  0  0  0  0
 15 29  1  0  0  0  0
 16 17  1  0  0  0  0
 16 30  1  0  0  0  0
 17 19  1  0  0  0  0
 17 18  1  0  0  0  0
 17 31  1  0  0  0  0
 18 19  1  0  0  0  0
 18 32  1  0  0  0  0
 18 33  1  0  0  0  0
 19 34  1  0  0  0  0
 19 35  1  0  0  0  0
M  END
> <s_m_source_file>
AV-unprocessed.smi

> <i_m_source_file_index>
2654

> <i_lp_mmshare_version>
43012

> <i_f3d_flags>
0

> <s_epik_input>
W0NIMl0xW0NIMl1bQ0hdMVtOSF1DKD1PKVtOSF1jMltjSF1bY0hdYyhuW2NIXTIpW05IXUMoPU8pW0NIXTNbQ0gyXVtDSDJdMw==

> <s_epik_cmdline>
J2VwaWtfcHl0aG9uJywgJy1waCcsICc3LjAnLCAnLXRuJywgJzgnLCAnLW1hJywgJzIwMCcsICctbWV0YWxfYmluZGluZycsICctaW1hZScsICc8aW5maWxlLm1hZT4nLCAnLW9tYWUnLCAnPG91dGZpbGUubWFlPic=

> <r_lp_tautomer_probability>
1

> <r_epik_Ionization_Penalty>
0.00116413

> <r_epik_Ionization_Penalty_Charging>
0

> <r_epik_Ionization_Penalty_Neutral>
0.00116413

> <r_epik_State_Penalty>
-0

> <r_epik_Charging_Adjusted_Penalty>
0

> <i_epik_Tot_Q>
0

> <i_epik_Tot_abs_Q>
0

> <r_epik_Metal_State_Penalty>
-0

> <b_epik_Metal_Only>
0

> <s_lp_Force_Field>
OPLS_2005

> <r_lp_Energy>
24.5982

> <b_lp_Chiralities_Consistent>
1

> <s_lp_Variant>
AV-unprocessed.smi:2654-1

> <Gold.Version>
5.8.1

> <Gold.Id.Protein>
6NUR|6NUR_protein|mol2

> <Gold.PLP.Fitness>
46.9560

> <Gold.PLP.PLP>
-36.8529

> <Gold.PLP.part.hbond>
-4.1996

> <Gold.PLP.part.metal>
0.0000

> <Gold.PLP.part.buried>
-4.4023

> <Gold.PLP.part.nonpolar>
-30.0395

> <Gold.PLP.part.repulsive>
0.4441

> <Gold.PLP.ligand.clash>
0.0000

> <Gold.PLP.ligand.torsion>
0.7100

> <Gold.PLP.Chemscore.Hbond>
3.8000

> <Gold.PLP.Chemscore.CHOScore>
0.0000

> <Gold.PLP.Chemscore.Metal>
0.0000

> <Gold.Chemscore.Hbonds>
donor molecule, donor type, donor heavy atom, donor atom, acceptor molecule, acceptor atom, score
      L1  H     3    20       P1  7948  1.00
      L1  H     8    23       P1  8028  1.00
      L1  H    16    30       P1  7948  1.00
      P1  H  7989  7998       L1    14  0.80

> <Gold.PLP.Chemscore.Internal.Correction>
0.1231

> <Gold.Rescore>
     Score         DG    S(hbond)    S(metal)    S(lipo)     H(rot)  DE(clash)    DE(int)     intcor
     18.92     -21.68       3.01        0.00      79.24       1.22       0.30       2.45       ----

> <Gold.Chemscore.Fitness>
18.9248

> <Gold.Chemscore.DG>
-21.6786

> <Gold.Chemscore.ZeroCoef>
-5.4800

> <Gold.Chemscore.Hbond>
3.0109

> <Gold.Chemscore.Metal>
0.0000

> <Gold.Chemscore.Lipo>
79.2410

> <Gold.Chemscore.Internal_Hbond>
0.0000

> <Gold.Chemscore.DEClash>
0.3020

> <Gold.Chemscore.DEInternal>
2.4517

> <Gold.Chemscore.Rot>
1.2222

> <Gold.Chemscore.Internal.Correction>
   9.000000E+99

> <Gold.Chemscore.Hbonds>
donor molecule, donor type, donor heavy atom, donor atom, acceptor molecule, acceptor atom, score
      L1  H     3    20       P1  7948  0.94
      L1  H     8    23       P1  8028  0.98
      L1  H    16    30       P1  7948  0.99
      P1  H  7989  7998       L1    14  0.07

> <Gold.Chemscore.Hbond.Weighted>
-10.0563

> <Gold.Chemscore.Metal.Weighted>
-0.0000

> <Gold.Chemscore.Lipo.Weighted>
-9.2712

> <Gold.Chemscore.Internal_Hbond.Weighted>
0.0000

> <Gold.Chemscore.DEClash.Weighted>
0.3020

> <Gold.Chemscore.DEInternal.Weighted>
2.4517

> <Gold.Chemscore.Rot.Weighted>
3.1289

> <Gold.Chemscore.Internal.Correction.Weighted>
   9.000000E+99

> <Gold.Protein.RotatedTorsions>
[ 6907 6896 6895 6894 ] final -128.02 input  -60.11 | X-H torsion
[ 7974 7965 7964 7962 ] final -107.88 input  175.53 | X-H torsion
[ 8008 7997 7996 7995 ] final -145.92 input   59.86 | X-H torsion
[ 10167 10162 10161 10158 ] final   80.67 input  -65.29 | X-H torsion
[ 10718 10713 10712 10709 ] final    1.58 input   66.30 | X-H torsion
[ 10763 10752 10751 10750 ] final  119.41 input  -60.55 | X-H torsion
[ 11005 11000 10999 10996 ] final  -90.96 input  -57.11 | X-H torsion

> <Gold.Protein.ActiveResidues>
 VAL166  LYS551  ARG553  GLY616  TRP617  ASP618  TYR619  PRO620  LYS621  CYS622 
 ASP623  PHE694  ASN695  SER759  ASP760  ASP761  ALA762  ILE779  LEU786  VAL792 
 PHE793  MET794  SER795  GLU796  ALA797  LYS798  CYS799  TRP800  GLU811  SER814 

> <Gold.Protein.RotatedAtoms>
  150.9135  133.6968  159.2848 H   0  0  0  0  0  0  0  0  0  0  0  0  # atno 6907 bound_to 6896
  151.4447  135.1022  159.9690 H   0  0  0  0  0  0  0  0  0  0  0  0  # atno 6908 bound_to 6896
  152.4942  133.8535  159.7269 H   0  0  0  0  0  0  0  0  0  0  0  0  # atno 6909 bound_to 6896
  145.1998  140.9051  143.3376 H   0  0  0  0  0  0  0  0  0  0  0  0  # atno 7974 bound_to 7965
  155.5510  140.0616  157.2850 H   0  0  0  0  0  0  0  0  0  0  0  0  # atno 8008 bound_to 7997
  154.4421  140.1902  156.0731 H   0  0  0  0  0  0  0  0  0  0  0  0  # atno 8009 bound_to 7997
  156.0516  140.3283  155.7362 H   0  0  0  0  0  0  0  0  0  0  0  0  # atno 8010 bound_to 7997
  139.9473  144.6050  150.8195 H   0  0  0  0  0  0  0  0  0  0  0  0  # atno 10167 bound_to 10162
  156.8503  130.5551  149.5670 H   0  0  0  0  0  0  0  0  0  0  0  0  # atno 10718 bound_to 10713
  153.5826  135.3481  155.2880 H   0  0  0  0  0  0  0  0  0  0  0  0  # atno 10763 bound_to 10752
  154.8665  135.4185  154.2604 H   0  0  0  0  0  0  0  0  0  0  0  0  # atno 10764 bound_to 10752
  153.3393  135.7049  153.6951 H   0  0  0  0  0  0  0  0  0  0  0  0  # atno 10765 bound_to 10752
  141.1555  133.7725  156.9811 H   0  0  0  0  0  0  0  0  0  0  0  0  # atno 11005 bound_to 11000
  144.9958  139.3645  143.6192 LP  0  0  0  0  0  0  0  0  0  0  0  0  # atno 17320 bound_to 7965
  146.3420  139.9161  142.8773 LP  0  0  0  0  0  0  0  0  0  0  0  0  # atno 17321 bound_to 7965
  140.7593  143.3127  151.2807 LP  0  0  0  0  0  0  0  0  0  0  0  0  # atno 17342 bound_to 10162
  139.6657  144.0110  152.2721 LP  0  0  0  0  0  0  0  0  0  0  0  0  # atno 17343 bound_to 10162
  156.0832  130.5837  150.9600 LP  0  0  0  0  0  0  0  0  0  0  0  0  # atno 17370 bound_to 10713
  157.6307  131.0921  150.8447 LP  0  0  0  0  0  0  0  0  0  0  0  0  # atno 17371 bound_to 10713
  140.1065  134.9503  157.2002 LP  0  0  0  0  0  0  0  0  0  0  0  0  # atno 17394 bound_to 11000
  140.3250  134.2874  155.7239 LP  0  0  0  0  0  0  0  0  0  0  0  0  # atno 17395 bound_to 11000

$$$$
