AV-unprocessed.smi:702|AV-procd|sdf|3424|dock1
  -GOLD-   22720 0403D 1   1.00000     0.00000
 Structure written by MMmdl.
 50 52  0  0  0  0  0  0  0  0  4 V2000
  151.0617  135.3567  156.6574 C   0  0  0  0  0  0  0  0  0  0  0  0
  149.8663  135.6199  155.7206 C   0  0  2  0  0  0  0  0  0  0  0  0
  149.9279  134.6621  154.6063 N   0  5  0  0  0  0  0  0  0  0  0  0
  149.0607  133.6340  154.4048 C   0  0  0  0  0  0  0  0  0  0  0  0
  148.8794  132.6487  155.1289 O   0  0  0  0  0  0  0  0  0  0  0  0
  148.3390  133.7934  153.2813 N   0  0  0  0  0  0  0  0  0  0  0  0
  147.3518  132.9354  152.7271 C   0  0  0  0  0  0  0  0  0  0  0  0
  146.7546  133.3208  151.5068 C   0  0  0  0  0  0  0  0  0  0  0  0
  145.7846  132.4868  150.9149 C   0  0  0  0  0  0  0  0  0  0  0  0
  145.4447  131.3230  151.5099 N   0  3  0  0  0  0  0  0  0  0  0  0
  146.0023  130.9038  152.6662 C   0  0  0  0  0  0  0  0  0  0  0  0
  146.9777  131.6959  153.3048 C   0  0  0  0  0  0  0  0  0  0  0  0
  149.8023  137.1218  155.1945 C   0  0  0  0  0  0  0  0  0  0  0  0
  148.5500  137.3511  154.3474 N   0  3  0  0  0  0  0  0  0  0  0  0
  147.2606  136.8592  154.9231 C   0  0  0  0  0  0  0  0  0  0  0  0
  146.1607  136.8521  153.8508 C   0  0  0  0  0  0  0  0  0  0  0  0
  145.9650  138.1737  153.3708 O   0  0  0  0  0  0  0  0  0  0  0  0
  147.1446  138.6955  152.7778 C   0  0  0  0  0  0  0  0  0  0  0  0
  148.2848  138.7306  153.8106 C   0  0  0  0  0  0  0  0  0  0  0  0
  149.8235  138.1164  156.4187 C   0  0  0  0  0  0  0  0  0  0  0  0
  150.9621  139.1244  156.2014 C   0  0  0  0  0  0  0  0  0  0  0  0
  151.4137  138.9735  154.7534 C   0  0  0  0  0  0  0  0  0  0  0  0
  151.0765  137.5278  154.3784 C   0  0  0  0  0  0  0  0  0  0  0  0
  151.0391  136.0092  157.5298 H   0  0  0  0  0  0  0  0  0  0  0  0
  152.0166  135.5102  156.1540 H   0  0  0  0  0  0  0  0  0  0  0  0
  151.0485  134.3311  157.0280 H   0  0  0  0  0  0  0  0  0  0  0  0
  148.9639  135.4476  156.3056 H   0  0  0  0  0  0  0  0  0  0  0  0
  148.4686  134.6753  152.8070 H   0  0  0  0  0  0  0  0  0  0  0  0
  147.0297  134.2513  151.0314 H   0  0  0  0  0  0  0  0  0  0  0  0
  145.2754  132.7132  149.9897 H   0  0  0  0  0  0  0  0  0  0  0  0
  145.6590  129.9506  153.0406 H   0  0  0  0  0  0  0  0  0  0  0  0
  147.4308  131.3380  154.2170 H   0  0  0  0  0  0  0  0  0  0  0  0
  147.3197  135.8585  155.3420 H   0  0  0  0  0  0  0  0  0  0  0  0
  146.9481  137.5156  155.7352 H   0  0  0  0  0  0  0  0  0  0  0  0
  146.4164  136.1805  153.0296 H   0  0  0  0  0  0  0  0  0  0  0  0
  145.2234  136.4942  154.2772 H   0  0  0  0  0  0  0  0  0  0  0  0
  147.4257  138.0961  151.9103 H   0  0  0  0  0  0  0  0  0  0  0  0
  146.9369  139.7021  152.4141 H   0  0  0  0  0  0  0  0  0  0  0  0
  148.0202  139.4099  154.6210 H   0  0  0  0  0  0  0  0  0  0  0  0
  149.1350  139.1780  153.3009 H   0  0  0  0  0  0  0  0  0  0  0  0
  148.8685  138.6174  156.5668 H   0  0  0  0  0  0  0  0  0  0  0  0
  149.9973  137.6631  157.3978 H   0  0  0  0  0  0  0  0  0  0  0  0
  150.6605  140.1461  156.4330 H   0  0  0  0  0  0  0  0  0  0  0  0
  151.7928  138.8737  156.8625 H   0  0  0  0  0  0  0  0  0  0  0  0
  150.8754  139.6769  154.1209 H   0  0  0  0  0  0  0  0  0  0  0  0
  152.4753  139.1909  154.6323 H   0  0  0  0  0  0  0  0  0  0  0  0
  151.9587  136.9366  154.6324 H   0  0  0  0  0  0  0  0  0  0  0  0
  150.9622  137.4158  153.3012 H   0  0  0  0  0  0  0  0  0  0  0  0
  148.7114  136.7795  153.5308 H   0  0  0  0  0  0  0  0  0  0  0  0
  144.7415  130.7333  151.0643 H   0  0  0  0  0  0  0  0  0  0  0  0
  1  2  1  0  0  0  0
  1 24  1  0  0  0  0
  1 25  1  0  0  0  0
  1 26  1  0  0  0  0
  2  3  1  0  0  0  0
  2 13  1  0  0  0  0
  2 27  1  0  0  0  0
  3  4  1  0  0  0  0
  4  5  2  0  0  0  0
  4  6  1  0  0  0  0
  6  7  1  0  0  0  0
  6 28  1  0  0  0  0
  7 12  1  0  0  0  0
  7  8  2  0  0  0  0
  8  9  1  0  0  0  0
  8 29  1  0  0  0  0
  9 10  2  0  0  0  0
  9 30  1  0  0  0  0
 10 11  1  0  0  0  0
 10 50  1  0  0  0  0
 11 12  2  0  0  0  0
 11 31  1  0  0  0  0
 12 32  1  0  0  0  0
 13 23  1  0  0  0  0
 13 14  1  0  0  0  0
 13 20  1  0  0  0  0
 14 19  1  0  0  0  0
 14 15  1  0  0  0  0
 14 49  1  0  0  0  0
 15 16  1  0  0  0  0
 15 33  1  0  0  0  0
 15 34  1  0  0  0  0
 16 17  1  0  0  0  0
 16 35  1  0  0  0  0
 16 36  1  0  0  0  0
 17 18  1  0  0  0  0
 18 19  1  0  0  0  0
 18 37  1  0  0  0  0
 18 38  1  0  0  0  0
 19 39  1  0  0  0  0
 19 40  1  0  0  0  0
 20 21  1  0  0  0  0
 20 41  1  0  0  0  0
 20 42  1  0  0  0  0
 21 22  1  0  0  0  0
 21 43  1  0  0  0  0
 21 44  1  0  0  0  0
 22 23  1  0  0  0  0
 22 45  1  0  0  0  0
 22 46  1  0  0  0  0
 23 47  1  0  0  0  0
 23 48  1  0  0  0  0
M  CHG  1   3  -1
M  CHG  1  10   1
M  CHG  1  14   1
M  END
> <s_m_source_file>
AV-unprocessed.smi

> <i_m_source_file_index>
702

> <i_lp_mmshare_version>
43012

> <i_f3d_flags>
0

> <s_epik_input>
W0NIMl0xW0NIMl1PW0NIMl1bQ0gyXU4xQzIoW0NIMl1bQ0gyXVtDSDJdW0NIMl0yKVtDQEhdKFtDSDNdKVtOSF1DKD1PKVtOSF1jM1tjSF1bY0hdbltjSF1bY0hdMw==

> <s_epik_cmdline>
J2VwaWtfcHl0aG9uJywgJy1waCcsICc3LjAnLCAnLXRuJywgJzgnLCAnLW1hJywgJzIwMCcsICctbWV0YWxfYmluZGluZycsICctaW1hZScsICc8aW5maWxlLm1hZT4nLCAnLW9tYWUnLCAnPG91dGZpbGUubWFlPic=

> <r_epik_Ionization_Penalty>
8.33674

> <r_epik_Ionization_Penalty_Charging>
8.33674

> <r_epik_Ionization_Penalty_Neutral>
3.60854e-06

> <r_epik_State_Penalty>
8.24268

> <r_epik_Charging_Adjusted_Penalty>
16.5794

> <i_epik_Tot_Q>
1

> <i_epik_Tot_abs_Q>
3

> <r_epik_Metal_State_Penalty>
4.24853

> <b_epik_Metal_Only>
1

> <s_lp_Force_Field>
OPLS_2005

> <r_lp_Energy>
64.6776

> <b_lp_Chiralities_Consistent>
1

> <s_lp_Variant>
AV-unprocessed.smi:702-9

> <Gold.Version>
5.8.1

> <Gold.Id.Protein>
6NUR|6NUR_protein|mol2

> <Gold.PLP.Fitness>
39.7582

> <Gold.PLP.PLP>
-31.9969

> <Gold.PLP.part.hbond>
-2.0000

> <Gold.PLP.part.metal>
0.0000

> <Gold.PLP.part.buried>
-4.1257

> <Gold.PLP.part.nonpolar>
-27.2958

> <Gold.PLP.part.repulsive>
0.4332

> <Gold.PLP.ligand.clash>
0.0000

> <Gold.PLP.ligand.torsion>
0.7882

> <Gold.PLP.Chemscore.Hbond>
3.0000

> <Gold.PLP.Chemscore.CHOScore>
0.0000

> <Gold.PLP.Chemscore.Metal>
0.0000

> <Gold.Chemscore.Hbonds>
donor molecule, donor type, donor heavy atom, donor atom, acceptor molecule, acceptor atom, score
      L1  H     6    28       P1  7948  1.00
      L1  H    14    49       P1  7948  2.00

> <Gold.PLP.Chemscore.Internal.Correction>
0.3378

> <Gold.Rescore>
     Score         DG    S(hbond)    S(metal)    S(lipo)     H(rot)  DE(clash)    DE(int)     intcor
     14.86     -17.04       1.87        0.00      77.23       1.45       0.04       2.14       ----

> <Gold.Chemscore.Fitness>
14.8567

> <Gold.Chemscore.DG>
-17.0421

> <Gold.Chemscore.ZeroCoef>
-5.4800

> <Gold.Chemscore.Hbond>
1.8680

> <Gold.Chemscore.Metal>
0.0000

> <Gold.Chemscore.Lipo>
77.2306

> <Gold.Chemscore.Internal_Hbond>
0.0000

> <Gold.Chemscore.DEClash>
0.0424

> <Gold.Chemscore.DEInternal>
2.1430

> <Gold.Chemscore.Rot>
1.4504

> <Gold.Chemscore.Internal.Correction>
   9.000000E+99

> <Gold.Chemscore.Hbonds>
donor molecule, donor type, donor heavy atom, donor atom, acceptor molecule, acceptor atom, score
      L1  H     6    28       P1  7948  0.30
      L1  H    14    49       P1  7948  1.00

> <Gold.Chemscore.Hbond.Weighted>
-6.2390

> <Gold.Chemscore.Metal.Weighted>
-0.0000

> <Gold.Chemscore.Lipo.Weighted>
-9.0360

> <Gold.Chemscore.Internal_Hbond.Weighted>
0.0000

> <Gold.Chemscore.DEClash.Weighted>
0.0424

> <Gold.Chemscore.DEInternal.Weighted>
2.1430

> <Gold.Chemscore.Rot.Weighted>
3.7129

> <Gold.Chemscore.Internal.Correction.Weighted>
   9.000000E+99

> <Gold.Protein.RotatedTorsions>
[ 6907 6896 6895 6894 ] final -124.43 input  -60.11 | X-H torsion
[ 7974 7965 7964 7962 ] final -142.05 input  175.53 | X-H torsion
[ 8008 7997 7996 7995 ] final -100.36 input   59.86 | X-H torsion
[ 10167 10162 10161 10158 ] final -135.06 input  -65.29 | X-H torsion
[ 10718 10713 10712 10709 ] final    7.65 input   66.30 | X-H torsion
[ 10763 10752 10751 10750 ] final   -8.29 input  -60.55 | X-H torsion
[ 11005 11000 10999 10996 ] final   57.59 input  -57.11 | X-H torsion

> <Gold.Protein.ActiveResidues>
 VAL166  LYS551  ARG553  GLY616  TRP617  ASP618  TYR619  PRO620  LYS621  CYS622 
 ASP623  PHE694  ASN695  SER759  ASP760  ASP761  ALA762  ILE779  LEU786  VAL792 
 PHE793  MET794  SER795  GLU796  ALA797  LYS798  CYS799  TRP800  GLU811  SER814 

> <Gold.Protein.RotatedAtoms>
  150.8767  133.7429  159.2944 H   0  0  0  0  0  0  0  0  0  0  0  0  # atno 6907 bound_to 6896
  151.5023  135.1061  159.9842 H   0  0  0  0  0  0  0  0  0  0  0  0  # atno 6908 bound_to 6896
  152.4732  133.8033  159.7020 H   0  0  0  0  0  0  0  0  0  0  0  0  # atno 6909 bound_to 6896
  144.8473  140.6005  143.5413 H   0  0  0  0  0  0  0  0  0  0  0  0  # atno 7974 bound_to 7965
  154.8275  140.0441  157.1454 H   0  0  0  0  0  0  0  0  0  0  0  0  # atno 8008 bound_to 7997
  154.9190  140.3024  155.5206 H   0  0  0  0  0  0  0  0  0  0  0  0  # atno 8009 bound_to 7997
  156.2985  140.2344  156.4237 H   0  0  0  0  0  0  0  0  0  0  0  0  # atno 8010 bound_to 7997
  139.8817  143.6830  152.2626 H   0  0  0  0  0  0  0  0  0  0  0  0  # atno 10167 bound_to 10162
  156.9400  130.5858  149.5652 H   0  0  0  0  0  0  0  0  0  0  0  0  # atno 10718 bound_to 10713
  153.4384  135.7013  153.6185 H   0  0  0  0  0  0  0  0  0  0  0  0  # atno 10763 bound_to 10752
  153.4570  135.3745  155.2317 H   0  0  0  0  0  0  0  0  0  0  0  0  # atno 10764 bound_to 10752
  154.8727  135.4011  154.3779 H   0  0  0  0  0  0  0  0  0  0  0  0  # atno 10765 bound_to 10752
  140.0441  134.5831  155.9345 H   0  0  0  0  0  0  0  0  0  0  0  0  # atno 11005 bound_to 11000
  145.4572  139.1517  143.3886 LP  0  0  0  0  0  0  0  0  0  0  0  0  # atno 17320 bound_to 7965
  146.2755  140.4700  142.8797 LP  0  0  0  0  0  0  0  0  0  0  0  0  # atno 17321 bound_to 7965
  139.7189  144.7606  151.0987 LP  0  0  0  0  0  0  0  0  0  0  0  0  # atno 17342 bound_to 10162
  140.7743  143.5233  150.9511 LP  0  0  0  0  0  0  0  0  0  0  0  0  # atno 17343 bound_to 10162
  156.0408  130.5491  150.8767 LP  0  0  0  0  0  0  0  0  0  0  0  0  # atno 17370 bound_to 10713
  157.5791  131.0946  150.9299 LP  0  0  0  0  0  0  0  0  0  0  0  0  # atno 17371 bound_to 10713
  141.1898  133.6566  156.5383 LP  0  0  0  0  0  0  0  0  0  0  0  0  # atno 17394 bound_to 11000
  140.4022  134.7346  157.4786 LP  0  0  0  0  0  0  0  0  0  0  0  0  # atno 17395 bound_to 11000

$$$$
