AV-unprocessed.smi:855|AV-procd|sdf|3957|dock4
  -GOLD-   22720 1423D 1   1.00000     0.00000
 Structure written by MMmdl.
 35 36  0  0  0  0  0  0  0  0  3 V2000
  152.1287  140.8286  159.2043 C   0  0  0  0  0  0  0  0  0  0  0  0
  151.8276  140.5688  157.7678 C   0  0  0  0  0  0  0  0  0  0  0  0
  150.8001  140.9494  156.9519 C   0  0  0  0  0  0  0  0  0  0  0  0
  151.1339  140.3480  155.7076 C   0  0  0  0  0  0  0  0  0  0  0  0
  150.4266  140.4407  154.5707 N   0  5  0  0  0  0  0  0  0  0  0  0
  149.0751  140.4052  154.6061 C   0  0  0  0  0  0  0  0  0  0  0  0
  148.3587  140.6947  155.5673 O   0  0  0  0  0  0  0  0  0  0  0  0
  148.5157  140.0076  153.4560 N   0  0  0  0  0  0  0  0  0  0  0  0
  147.0841  139.8670  153.2319 C   0  0  0  0  0  0  0  0  0  0  0  0
  146.8033  138.7506  152.2162 C   0  0  0  0  0  0  0  0  0  0  0  0
  145.4567  138.1625  152.4025 N   0  3  0  0  0  0  0  0  0  0  0  0
  145.1899  136.9378  151.6230 C   0  0  0  0  0  0  0  0  0  0  0  0
  143.9878  136.2764  152.3022 C   0  0  0  0  0  0  0  0  0  0  0  0
  143.9618  136.8401  153.7287 C   0  0  0  0  0  0  0  0  0  0  0  0
  145.1309  137.8273  153.8011 C   0  0  0  0  0  0  0  0  0  0  0  0
  152.2723  139.6768  155.7594 N   0  0  0  0  0  0  0  0  0  0  0  0
  152.7200  139.8073  157.0795 O   0  0  0  0  0  0  0  0  0  0  0  0
  152.0644  141.8942  159.4253 H   0  0  0  0  0  0  0  0  0  0  0  0
  153.1323  140.4906  159.4631 H   0  0  0  0  0  0  0  0  0  0  0  0
  151.4198  140.3062  159.8467 H   0  0  0  0  0  0  0  0  0  0  0  0
  149.9442  141.5569  157.2049 H   0  0  0  0  0  0  0  0  0  0  0  0
  149.1329  139.7774  152.6909 H   0  0  0  0  0  0  0  0  0  0  0  0
  146.5903  139.6437  154.1791 H   0  0  0  0  0  0  0  0  0  0  0  0
  146.6900  140.8197  152.8757 H   0  0  0  0  0  0  0  0  0  0  0  0
  146.9105  139.1222  151.1958 H   0  0  0  0  0  0  0  0  0  0  0  0
  147.5461  137.9615  152.3429 H   0  0  0  0  0  0  0  0  0  0  0  0
  145.0007  137.1557  150.5716 H   0  0  0  0  0  0  0  0  0  0  0  0
  146.0536  136.2730  151.6798 H   0  0  0  0  0  0  0  0  0  0  0  0
  143.0670  136.5458  151.7829 H   0  0  0  0  0  0  0  0  0  0  0  0
  144.0659  135.1889  152.2881 H   0  0  0  0  0  0  0  0  0  0  0  0
  143.0175  137.3563  153.9059 H   0  0  0  0  0  0  0  0  0  0  0  0
  144.0541  136.0569  154.4817 H   0  0  0  0  0  0  0  0  0  0  0  0
  145.9898  137.3419  154.2680 H   0  0  0  0  0  0  0  0  0  0  0  0
  144.8909  138.7182  154.3823 H   0  0  0  0  0  0  0  0  0  0  0  0
  144.7788  138.8516  152.1089 H   0  0  0  0  0  0  0  0  0  0  0  0
  1  2  1  0  0  0  0
  1 18  1  0  0  0  0
  1 19  1  0  0  0  0
  1 20  1  0  0  0  0
  2 17  1  0  0  0  0
  2  3  2  0  0  0  0
  3  4  1  0  0  0  0
  3 21  1  0  0  0  0
  4  5  1  0  0  0  0
  4 16  2  0  0  0  0
  5  6  1  0  0  0  0
  6  7  2  0  0  0  0
  6  8  1  0  0  0  0
  8  9  1  0  0  0  0
  8 22  1  0  0  0  0
  9 10  1  0  0  0  0
  9 23  1  0  0  0  0
  9 24  1  0  0  0  0
 10 11  1  0  0  0  0
 10 25  1  0  0  0  0
 10 26  1  0  0  0  0
 11 15  1  0  0  0  0
 11 12  1  0  0  0  0
 11 35  1  0  0  0  0
 12 13  1  0  0  0  0
 12 27  1  0  0  0  0
 12 28  1  0  0  0  0
 13 14  1  0  0  0  0
 13 29  1  0  0  0  0
 13 30  1  0  0  0  0
 14 15  1  0  0  0  0
 14 31  1  0  0  0  0
 14 32  1  0  0  0  0
 15 33  1  0  0  0  0
 15 34  1  0  0  0  0
 16 17  1  0  0  0  0
M  CHG  1   5  -1
M  CHG  1  11   1
M  END
> <s_m_source_file>
AV-unprocessed.smi

> <i_m_source_file_index>
855

> <i_lp_mmshare_version>
43012

> <i_f3d_flags>
0

> <s_epik_input>
W0NIM11jMVtjSF1jKG5vMSlbTkhdQyg9TylbTkhdW0NIMl1bQ0gyXU4yW0NIMl1bQ0gyXVtDSDJdW0NIMl0y

> <s_epik_cmdline>
J2VwaWtfcHl0aG9uJywgJy1waCcsICc3LjAnLCAnLXRuJywgJzgnLCAnLW1hJywgJzIwMCcsICctbWV0YWxfYmluZGluZycsICctaW1hZScsICc8aW5maWxlLm1hZT4nLCAnLW9tYWUnLCAnPG91dGZpbGUubWFlPic=

> <r_epik_Ionization_Penalty>
6.22372

> <r_epik_Ionization_Penalty_Charging>
6.22363

> <r_epik_Ionization_Penalty_Neutral>
9.36971e-05

> <r_epik_State_Penalty>
6.22291

> <r_epik_Charging_Adjusted_Penalty>
12.4465

> <i_epik_Tot_Q>
0

> <i_epik_Tot_abs_Q>
2

> <r_epik_Metal_State_Penalty>
2.16624

> <b_epik_Metal_Only>
1

> <s_lp_Force_Field>
OPLS_2005

> <r_lp_Energy>
15.2309

> <b_lp_Chiralities_Consistent>
1

> <s_lp_Variant>
AV-unprocessed.smi:855-2

> <Gold.Version>
5.8.1

> <Gold.Id.Protein>
6NUR|6NUR_protein|mol2

> <Gold.PLP.Fitness>
41.6753

> <Gold.PLP.PLP>
-28.2728

> <Gold.PLP.part.hbond>
-5.4266

> <Gold.PLP.part.metal>
0.0000

> <Gold.PLP.part.buried>
-0.2856

> <Gold.PLP.part.nonpolar>
-22.3022

> <Gold.PLP.part.repulsive>
0.3150

> <Gold.PLP.ligand.clash>
0.0000

> <Gold.PLP.ligand.torsion>
0.8090

> <Gold.PLP.Chemscore.Hbond>
4.9920

> <Gold.PLP.Chemscore.CHOScore>
0.0000

> <Gold.PLP.Chemscore.Metal>
0.0000

> <Gold.Chemscore.Hbonds>
donor molecule, donor type, donor heavy atom, donor atom, acceptor molecule, acceptor atom, score
      L1  H     8    22       P1  7957  0.98
      L1  H    11    35       P1 10175  2.00
      P1  H  7989  7998       L1     5  1.00
      P1  H  7997  8009       L1    17  1.00

> <Gold.PLP.Chemscore.Internal.Correction>
0.0444

> <Gold.Rescore>
     Score         DG    S(hbond)    S(metal)    S(lipo)     H(rot)  DE(clash)    DE(int)     intcor
     14.10     -16.63       2.85        0.00      48.28       1.57       0.35       2.17       ----

> <Gold.Chemscore.Fitness>
14.1045

> <Gold.Chemscore.DG>
-16.6273

> <Gold.Chemscore.ZeroCoef>
-5.4800

> <Gold.Chemscore.Hbond>
2.8519

> <Gold.Chemscore.Metal>
0.0000

> <Gold.Chemscore.Lipo>
48.2825

> <Gold.Chemscore.Internal_Hbond>
0.0000

> <Gold.Chemscore.DEClash>
0.3538

> <Gold.Chemscore.DEInternal>
2.1690

> <Gold.Chemscore.Rot>
1.5731

> <Gold.Chemscore.Internal.Correction>
   9.000000E+99

> <Gold.Chemscore.Hbonds>
donor molecule, donor type, donor heavy atom, donor atom, acceptor molecule, acceptor atom, score
      L1  H     8    22       P1  7957  0.93
      L1  H    11    35       P1 10175  0.95
      P1  H  7989  7998       L1     5  0.29
      P1  H  7997  8009       L1    17  0.25

> <Gold.Chemscore.Hbond.Weighted>
-9.5253

> <Gold.Chemscore.Metal.Weighted>
-0.0000

> <Gold.Chemscore.Lipo.Weighted>
-5.6491

> <Gold.Chemscore.Internal_Hbond.Weighted>
0.0000

> <Gold.Chemscore.DEClash.Weighted>
0.3538

> <Gold.Chemscore.DEInternal.Weighted>
2.1690

> <Gold.Chemscore.Rot.Weighted>
4.0271

> <Gold.Chemscore.Internal.Correction.Weighted>
   9.000000E+99

> <Gold.Protein.RotatedTorsions>
[ 6907 6896 6895 6894 ] final  -49.62 input  -60.11 | X-H torsion
[ 7974 7965 7964 7962 ] final   83.79 input  175.53 | X-H torsion
[ 8008 7997 7996 7995 ] final  170.14 input   59.86 | X-H torsion
[ 10167 10162 10161 10158 ] final   65.16 input  -65.29 | X-H torsion
[ 10718 10713 10712 10709 ] final  107.57 input   66.30 | X-H torsion
[ 10763 10752 10751 10750 ] final   51.40 input  -60.55 | X-H torsion
[ 11005 11000 10999 10996 ] final -126.79 input  -57.11 | X-H torsion

> <Gold.Protein.ActiveResidues>
 VAL166  LYS551  ARG553  GLY616  TRP617  ASP618  TYR619  PRO620  LYS621  CYS622 
 ASP623  PHE694  ASN695  SER759  ASP760  ASP761  ALA762  ILE779  LEU786  VAL792 
 PHE793  MET794  SER795  GLU796  ALA797  LYS798  CYS799  TRP800  GLU811  SER814 

> <Gold.Protein.RotatedAtoms>
  150.8787  134.8174  159.7208 H   0  0  0  0  0  0  0  0  0  0  0  0  # atno 6907 bound_to 6896
  152.4764  134.4830  159.9681 H   0  0  0  0  0  0  0  0  0  0  0  0  # atno 6908 bound_to 6896
  151.4908  133.3486  159.2888 H   0  0  0  0  0  0  0  0  0  0  0  0  # atno 6909 bound_to 6896
  145.6073  139.2362  143.2212 H   0  0  0  0  0  0  0  0  0  0  0  0  # atno 7974 bound_to 7965
  156.1393  140.1546  156.8945 H   0  0  0  0  0  0  0  0  0  0  0  0  # atno 8008 bound_to 7997
  154.4974  140.0834  156.7764 H   0  0  0  0  0  0  0  0  0  0  0  0  # atno 8009 bound_to 7997
  155.4109  140.3419  155.4266 H   0  0  0  0  0  0  0  0  0  0  0  0  # atno 8010 bound_to 7997
  140.1144  144.4789  150.6958 H   0  0  0  0  0  0  0  0  0  0  0  0  # atno 10167 bound_to 10162
  157.6623  131.0875  150.6177 H   0  0  0  0  0  0  0  0  0  0  0  0  # atno 10718 bound_to 10713
  152.9785  135.5847  154.4409 H   0  0  0  0  0  0  0  0  0  0  0  0  # atno 10763 bound_to 10752
  154.4010  135.2769  155.2098 H   0  0  0  0  0  0  0  0  0  0  0  0  # atno 10764 bound_to 10752
  154.3929  135.6121  153.5907 H   0  0  0  0  0  0  0  0  0  0  0  0  # atno 10765 bound_to 10752
  140.9652  134.0881  157.3927 H   0  0  0  0  0  0  0  0  0  0  0  0  # atno 11005 bound_to 11000
  146.1531  140.6897  142.9313 LP  0  0  0  0  0  0  0  0  0  0  0  0  # atno 17320 bound_to 7965
  144.7284  140.4598  143.6956 LP  0  0  0  0  0  0  0  0  0  0  0  0  # atno 17321 bound_to 7965
  140.6908  143.2375  151.5137 LP  0  0  0  0  0  0  0  0  0  0  0  0  # atno 17342 bound_to 10162
  139.5602  144.2175  152.1679 LP  0  0  0  0  0  0  0  0  0  0  0  0  # atno 17343 bound_to 10162
  156.6479  130.4477  149.5729 LP  0  0  0  0  0  0  0  0  0  0  0  0  # atno 17370 bound_to 10713
  156.2160  130.6708  151.1319 LP  0  0  0  0  0  0  0  0  0  0  0  0  # atno 17371 bound_to 10713
  139.8892  135.0103  156.6666 LP  0  0  0  0  0  0  0  0  0  0  0  0  # atno 17394 bound_to 11000
  140.7409  133.8978  155.8277 LP  0  0  0  0  0  0  0  0  0  0  0  0  # atno 17395 bound_to 11000

$$$$
