AV-unprocessed.smi:690|AV-procd|sdf|3361|dock7
  -GOLD-   22720 0343D 1   1.00000     0.00000
 Structure written by MMmdl.
 46 48  0  0  0  0  0  0  0  0  1 V2000
  149.3936  132.4520  154.0206 C   0  0  0  0  0  0  0  0  0  0  0  0
  147.9875  132.5491  153.4256 C   0  0  0  0  0  0  0  0  0  0  0  0
  147.2467  133.5064  154.1635 O   0  0  0  0  0  0  0  0  0  0  0  0
  145.8608  133.5083  153.8457 C   0  0  1  0  0  0  0  0  0  0  0  0
  145.1683  134.6668  154.5709 C   0  0  0  0  0  0  0  0  0  0  0  0
  145.3615  135.5131  153.3087 C   0  0  1  0  0  0  0  0  0  0  0  0
  146.5995  136.2890  153.3797 N   0  0  0  0  0  0  0  0  0  0  0  0
  146.8771  137.2072  154.3156 C   0  0  0  0  0  0  0  0  0  0  0  0
  146.0978  137.5038  155.2220 O   0  0  0  0  0  0  0  0  0  0  0  0
  148.2319  137.9160  154.1842 C   0  0  0  0  0  0  0  0  0  0  0  0
  148.1088  139.3820  154.1326 N   0  0  0  0  0  0  0  0  0  0  0  0
  146.8189  139.9134  153.9321 C   0  0  0  0  0  0  0  0  0  0  0  0
  146.5972  141.2363  153.8753 C   0  0  0  0  0  0  0  0  0  0  0  0
  147.7253  142.1245  154.0268 C   0  0  0  0  0  0  0  0  0  0  0  0
  148.9627  141.6268  154.2210 C   0  0  0  0  0  0  0  0  0  0  0  0
  149.2098  140.1817  154.2834 C   0  0  0  0  0  0  0  0  0  0  0  0
  150.3370  139.7184  154.4604 O   0  0  0  0  0  0  0  0  0  0  0  0
  145.5057  134.1984  152.5003 C   0  0  0  0  0  0  0  0  0  0  0  0
  144.2407  133.6749  151.8206 C   0  0  0  0  0  0  0  0  0  0  0  0
  144.6787  132.5807  150.8460 C   0  0  0  0  0  0  0  0  0  0  0  0
  146.1213  132.9244  150.4688 C   0  0  0  0  0  0  0  0  0  0  0  0
  146.5028  134.1273  151.3384 C   0  0  0  0  0  0  0  0  0  0  0  0
  149.9954  131.7194  153.4825 H   0  0  0  0  0  0  0  0  0  0  0  0
  149.3557  132.1507  155.0677 H   0  0  0  0  0  0  0  0  0  0  0  0
  149.9069  133.4124  153.9658 H   0  0  0  0  0  0  0  0  0  0  0  0
  148.0483  132.8339  152.3754 H   0  0  0  0  0  0  0  0  0  0  0  0
  147.4908  131.5792  153.4740 H   0  0  0  0  0  0  0  0  0  0  0  0
  145.3661  132.5509  154.0208 H   0  0  0  0  0  0  0  0  0  0  0  0
  144.1173  134.4612  154.7789 H   0  0  0  0  0  0  0  0  0  0  0  0
  145.6840  135.0296  155.4612 H   0  0  0  0  0  0  0  0  0  0  0  0
  144.4767  136.0983  153.0521 H   0  0  0  0  0  0  0  0  0  0  0  0
  147.2870  136.1165  152.6600 H   0  0  0  0  0  0  0  0  0  0  0  0
  148.8837  137.6240  155.0103 H   0  0  0  0  0  0  0  0  0  0  0  0
  148.7238  137.5389  153.2866 H   0  0  0  0  0  0  0  0  0  0  0  0
  146.0290  139.1826  153.8364 H   0  0  0  0  0  0  0  0  0  0  0  0
  145.6013  141.6263  153.7250 H   0  0  0  0  0  0  0  0  0  0  0  0
  147.5762  143.1935  153.9861 H   0  0  0  0  0  0  0  0  0  0  0  0
  149.7944  142.3068  154.3342 H   0  0  0  0  0  0  0  0  0  0  0  0
  143.5039  133.2994  152.5314 H   0  0  0  0  0  0  0  0  0  0  0  0
  143.7582  134.4802  151.2648 H   0  0  0  0  0  0  0  0  0  0  0  0
  144.6510  131.6096  151.3416 H   0  0  0  0  0  0  0  0  0  0  0  0
  144.0241  132.5256  149.9757 H   0  0  0  0  0  0  0  0  0  0  0  0
  146.7745  132.0749  150.6688 H   0  0  0  0  0  0  0  0  0  0  0  0
  146.2140  133.1648  149.4092 H   0  0  0  0  0  0  0  0  0  0  0  0
  146.4258  135.0327  150.7348 H   0  0  0  0  0  0  0  0  0  0  0  0
  147.5400  134.0692  151.6677 H   0  0  0  0  0  0  0  0  0  0  0  0
  1  2  1  0  0  0  0
  1 23  1  0  0  0  0
  1 24  1  0  0  0  0
  1 25  1  0  0  0  0
  2  3  1  0  0  0  0
  2 26  1  0  0  0  0
  2 27  1  0  0  0  0
  3  4  1  0  0  0  0
  4 18  1  0  0  0  0
  4  5  1  0  0  0  0
  4 28  1  0  0  0  0
  5  6  1  0  0  0  0
  5 29  1  0  0  0  0
  5 30  1  0  0  0  0
  6  7  1  0  0  0  0
  6 18  1  0  0  0  0
  6 31  1  0  0  0  0
  7  8  1  0  0  0  0
  7 32  1  0  0  0  0
  8  9  2  0  0  0  0
  8 10  1  0  0  0  0
 10 11  1  0  0  0  0
 10 33  1  0  0  0  0
 10 34  1  0  0  0  0
 11 16  1  0  0  0  0
 11 12  1  0  0  0  0
 12 13  2  0  0  0  0
 12 35  1  0  0  0  0
 13 14  1  0  0  0  0
 13 36  1  0  0  0  0
 14 15  2  0  0  0  0
 14 37  1  0  0  0  0
 15 16  1  0  0  0  0
 15 38  1  0  0  0  0
 16 17  2  0  0  0  0
 18 22  1  0  0  0  0
 18 19  1  0  0  0  0
 19 20  1  0  0  0  0
 19 39  1  0  0  0  0
 19 40  1  0  0  0  0
 20 21  1  0  0  0  0
 20 41  1  0  0  0  0
 20 42  1  0  0  0  0
 21 22  1  0  0  0  0
 21 43  1  0  0  0  0
 21 44  1  0  0  0  0
 22 45  1  0  0  0  0
 22 46  1  0  0  0  0
M  END
> <s_m_source_file>
AV-unprocessed.smi

> <i_m_source_file_index>
690

> <i_lp_mmshare_version>
43012

> <i_f3d_flags>
0

> <s_epik_input>
W0NIMl0xW0NIMl1bQ0gyXVtDSDJdQzEyW0NASF0oT1tDSDJdW0NIM10pW0NIMl1bQ0BIXTJbTkhdQyg9TylbQ0gyXW4zW2NIXVtjSF1bY0hdW2NIXWMzPU8=

> <s_epik_cmdline>
J2VwaWtfcHl0aG9uJywgJy1waCcsICc3LjAnLCAnLXRuJywgJzgnLCAnLW1hJywgJzIwMCcsICctbWV0YWxfYmluZGluZycsICctaW1hZScsICc8aW5maWxlLm1hZT4nLCAnLW9tYWUnLCAnPG91dGZpbGUubWFlPic=

> <r_lp_tautomer_probability>
1

> <r_epik_Ionization_Penalty>
4.11691e-07

> <r_epik_Ionization_Penalty_Charging>
3.92797e-07

> <r_epik_Ionization_Penalty_Neutral>
1.88943e-08

> <r_epik_State_Penalty>
-0

> <r_epik_Charging_Adjusted_Penalty>
3.92797e-07

> <i_epik_Tot_Q>
0

> <i_epik_Tot_abs_Q>
0

> <r_epik_Metal_State_Penalty>
-0

> <b_epik_Metal_Only>
0

> <s_lp_Force_Field>
OPLS_2005

> <r_lp_Energy>
47.4249

> <b_lp_Chiralities_Consistent>
1

> <s_lp_Variant>
AV-unprocessed.smi:690-2

> <Gold.Version>
5.8.1

> <Gold.Id.Protein>
6NUR|6NUR_protein|mol2

> <Gold.PLP.Fitness>
36.7668

> <Gold.PLP.PLP>
-31.8106

> <Gold.PLP.part.hbond>
-2.0000

> <Gold.PLP.part.metal>
0.0000

> <Gold.PLP.part.buried>
-1.5576

> <Gold.PLP.part.nonpolar>
-28.0226

> <Gold.PLP.part.repulsive>
0.1899

> <Gold.PLP.ligand.clash>
0.5830

> <Gold.PLP.ligand.torsion>
0.4311

> <Gold.PLP.Chemscore.Hbond>
2.0000

> <Gold.PLP.Chemscore.CHOScore>
0.0000

> <Gold.PLP.Chemscore.Metal>
0.0000

> <Gold.Chemscore.Hbonds>
donor molecule, donor type, donor heavy atom, donor atom, acceptor molecule, acceptor atom, score
      L1  H     7    32       P1  7948  1.00
      P1  H  7989  7998       L1    17  1.00

> <Gold.PLP.Chemscore.Internal.Correction>
0.4015

> <Gold.Rescore>
     Score         DG    S(hbond)    S(metal)    S(lipo)     H(rot)  DE(clash)    DE(int)     intcor
     14.65     -16.82       1.90        0.00      79.77       1.69       0.42       1.74       ----

> <Gold.Chemscore.Fitness>
14.6534

> <Gold.Chemscore.DG>
-16.8170

> <Gold.Chemscore.ZeroCoef>
-5.4800

> <Gold.Chemscore.Hbond>
1.8952

> <Gold.Chemscore.Metal>
0.0000

> <Gold.Chemscore.Lipo>
79.7731

> <Gold.Chemscore.Internal_Hbond>
0.0000

> <Gold.Chemscore.DEClash>
0.4194

> <Gold.Chemscore.DEInternal>
1.7442

> <Gold.Chemscore.Rot>
1.6900

> <Gold.Chemscore.Internal.Correction>
   9.000000E+99

> <Gold.Chemscore.Hbonds>
donor molecule, donor type, donor heavy atom, donor atom, acceptor molecule, acceptor atom, score
      L1  H     7    32       P1  7948  0.99
      P1  H  7989  7998       L1    17  0.64

> <Gold.Chemscore.Hbond.Weighted>
-6.3300

> <Gold.Chemscore.Metal.Weighted>
-0.0000

> <Gold.Chemscore.Lipo.Weighted>
-9.3335

> <Gold.Chemscore.Internal_Hbond.Weighted>
0.0000

> <Gold.Chemscore.DEClash.Weighted>
0.4194

> <Gold.Chemscore.DEInternal.Weighted>
1.7442

> <Gold.Chemscore.Rot.Weighted>
4.3265

> <Gold.Chemscore.Internal.Correction.Weighted>
   9.000000E+99

> <Gold.Protein.RotatedTorsions>
[ 6907 6896 6895 6894 ] final  169.43 input  -60.11 | X-H torsion
[ 7974 7965 7964 7962 ] final -166.45 input  175.53 | X-H torsion
[ 8008 7997 7996 7995 ] final   32.49 input   59.86 | X-H torsion
[ 10167 10162 10161 10158 ] final   10.62 input  -65.29 | X-H torsion
[ 10718 10713 10712 10709 ] final   51.04 input   66.30 | X-H torsion
[ 10763 10752 10751 10750 ] final  155.45 input  -60.55 | X-H torsion
[ 11005 11000 10999 10996 ] final  130.02 input  -57.11 | X-H torsion

> <Gold.Protein.ActiveResidues>
 VAL166  LYS551  ARG553  GLY616  TRP617  ASP618  TYR619  PRO620  LYS621  CYS622 
 ASP623  PHE694  ASN695  SER759  ASP760  ASP761  ALA762  ILE779  LEU786  VAL792 
 PHE793  MET794  SER795  GLU796  ALA797  LYS798  CYS799  TRP800  GLU811  SER814 

> <Gold.Protein.RotatedAtoms>
  151.8320  133.3410  159.3616 H   0  0  0  0  0  0  0  0  0  0  0  0  # atno 6907 bound_to 6896
  150.7261  134.5473  159.5786 H   0  0  0  0  0  0  0  0  0  0  0  0  # atno 6908 bound_to 6896
  152.2928  134.7702  160.0425 H   0  0  0  0  0  0  0  0  0  0  0  0  # atno 6909 bound_to 6896
  144.7245  140.2664  143.6257 H   0  0  0  0  0  0  0  0  0  0  0  0  # atno 7974 bound_to 7965
  155.1233  140.3250  155.4492 H   0  0  0  0  0  0  0  0  0  0  0  0  # atno 8008 bound_to 7997
  156.2656  140.2023  156.6303 H   0  0  0  0  0  0  0  0  0  0  0  0  # atno 8009 bound_to 7997
  154.6667  140.0541  157.0108 H   0  0  0  0  0  0  0  0  0  0  0  0  # atno 8010 bound_to 7997
  140.6183  143.8260  150.7144 H   0  0  0  0  0  0  0  0  0  0  0  0  # atno 10167 bound_to 10162
  157.4942  130.8396  149.8239 H   0  0  0  0  0  0  0  0  0  0  0  0  # atno 10718 bound_to 10713
  154.1686  135.2805  155.3087 H   0  0  0  0  0  0  0  0  0  0  0  0  # atno 10763 bound_to 10752
  154.6092  135.5504  153.7459 H   0  0  0  0  0  0  0  0  0  0  0  0  # atno 10764 bound_to 10752
  153.0171  135.6411  154.1827 H   0  0  0  0  0  0  0  0  0  0  0  0  # atno 10765 bound_to 10752
  139.9648  134.9593  156.9233 H   0  0  0  0  0  0  0  0  0  0  0  0  # atno 11005 bound_to 11000
  145.8085  139.1993  143.2007 LP  0  0  0  0  0  0  0  0  0  0  0  0  # atno 17320 bound_to 7965
  146.0616  140.7965  142.9732 LP  0  0  0  0  0  0  0  0  0  0  0  0  # atno 17321 bound_to 7965
  140.1844  143.4088  152.1909 LP  0  0  0  0  0  0  0  0  0  0  0  0  # atno 17342 bound_to 10162
  139.5417  144.7262  151.4713 LP  0  0  0  0  0  0  0  0  0  0  0  0  # atno 17343 bound_to 10162
  156.0191  130.3802  150.2018 LP  0  0  0  0  0  0  0  0  0  0  0  0  # atno 17370 bound_to 10713
  157.0207  130.9978  151.3340 LP  0  0  0  0  0  0  0  0  0  0  0  0  # atno 17371 bound_to 10713
  140.5420  134.0710  155.7344 LP  0  0  0  0  0  0  0  0  0  0  0  0  # atno 17394 bound_to 11000
  141.1327  133.9274  157.2500 LP  0  0  0  0  0  0  0  0  0  0  0  0  # atno 17395 bound_to 11000

$$$$
