AV-unprocessed.smi:1700|AV-procd|sdf|6820|dock5
  -GOLD-   22720 7593D 1   1.00000     0.00000
 Structure written by MMmdl.
 34 35  0  0  0  0  0  0  0  0  1 V2000
  147.6895  133.0466  152.4736 C   0  0  0  0  0  0  0  0  0  0  0  0
  146.4030  133.0367  151.6637 C   0  0  0  0  0  0  0  0  0  0  0  0
  145.8966  131.8081  151.1890 C   0  0  0  0  0  0  0  0  0  0  0  0
  144.7069  131.7996  150.4411 C   0  0  0  0  0  0  0  0  0  0  0  0
  144.0697  133.0284  150.1982 C   0  0  0  0  0  0  0  0  0  0  0  0
  144.5470  134.2070  150.6473 N   0  0  0  0  0  0  0  0  0  0  0  0
  145.6948  134.2331  151.3704 C   0  0  0  0  0  0  0  0  0  0  0  0
  146.2578  135.4402  151.8740 N   0  0  0  0  0  0  0  0  0  0  0  0
  145.6252  136.5001  152.4078 C   0  0  0  0  0  0  0  0  0  0  0  0
  144.4079  136.6012  152.5644 O   0  0  0  0  0  0  0  0  0  0  0  0
  146.4955  137.4581  152.7576 N   0  0  0  0  0  0  0  0  0  0  0  0
  146.1329  138.7409  153.3490 C   0  0  0  0  0  0  0  0  0  0  0  0
  147.2823  139.7569  153.2477 C   0  0  1  0  0  0  0  0  0  0  0  0
  146.9456  141.1247  153.8336 C   0  0  0  0  0  0  0  0  0  0  0  0
  148.3241  141.6883  154.0951 C   0  0  0  0  0  0  0  0  0  0  0  0
  149.1079  140.4507  154.5301 C   0  0  0  0  0  0  0  0  0  0  0  0
  148.4067  139.3244  154.0069 O   0  0  0  0  0  0  0  0  0  0  0  0
  148.0910  132.0401  152.5937 H   0  0  0  0  0  0  0  0  0  0  0  0
  147.5116  133.4577  153.4677 H   0  0  0  0  0  0  0  0  0  0  0  0
  148.4482  133.6526  151.9776 H   0  0  0  0  0  0  0  0  0  0  0  0
  146.4112  130.8810  151.3942 H   0  0  0  0  0  0  0  0  0  0  0  0
  144.2937  130.8759  150.0639 H   0  0  0  0  0  0  0  0  0  0  0  0
  143.1529  133.0672  149.6286 H   0  0  0  0  0  0  0  0  0  0  0  0
  147.2629  135.5043  151.8157 H   0  0  0  0  0  0  0  0  0  0  0  0
  147.4780  137.2967  152.5910 H   0  0  0  0  0  0  0  0  0  0  0  0
  145.2388  139.1328  152.8611 H   0  0  0  0  0  0  0  0  0  0  0  0
  145.8681  138.5768  154.3938 H   0  0  0  0  0  0  0  0  0  0  0  0
  147.5966  139.8834  152.2101 H   0  0  0  0  0  0  0  0  0  0  0  0
  146.3523  141.7417  153.1583 H   0  0  0  0  0  0  0  0  0  0  0  0
  146.4001  141.0188  154.7724 H   0  0  0  0  0  0  0  0  0  0  0  0
  148.7415  142.0893  153.1705 H   0  0  0  0  0  0  0  0  0  0  0  0
  148.3289  142.4814  154.8435 H   0  0  0  0  0  0  0  0  0  0  0  0
  150.1364  140.4747  154.1694 H   0  0  0  0  0  0  0  0  0  0  0  0
  149.1327  140.3699  155.6172 H   0  0  0  0  0  0  0  0  0  0  0  0
  1  2  1  0  0  0  0
  1 18  1  0  0  0  0
  1 19  1  0  0  0  0
  1 20  1  0  0  0  0
  2  7  1  0  0  0  0
  2  3  2  0  0  0  0
  3  4  1  0  0  0  0
  3 21  1  0  0  0  0
  4  5  2  0  0  0  0
  4 22  1  0  0  0  0
  5  6  1  0  0  0  0
  5 23  1  0  0  0  0
  6  7  2  0  0  0  0
  7  8  1  0  0  0  0
  8  9  1  0  0  0  0
  8 24  1  0  0  0  0
  9 10  2  0  0  0  0
  9 11  1  0  0  0  0
 11 12  1  0  0  0  0
 11 25  1  0  0  0  0
 12 13  1  0  0  0  0
 12 26  1  0  0  0  0
 12 27  1  0  0  0  0
 13 17  1  0  0  0  0
 13 14  1  0  0  0  0
 13 28  1  0  0  0  0
 14 15  1  0  0  0  0
 14 29  1  0  0  0  0
 14 30  1  0  0  0  0
 15 16  1  0  0  0  0
 15 31  1  0  0  0  0
 15 32  1  0  0  0  0
 16 17  1  0  0  0  0
 16 33  1  0  0  0  0
 16 34  1  0  0  0  0
M  END
> <s_m_source_file>
AV-unprocessed.smi

> <i_m_source_file_index>
1700

> <i_lp_mmshare_version>
43012

> <i_f3d_flags>
0

> <s_epik_input>
W0NIM11jMVtjSF1bY0hdW2NIXW5jMVtOSF1DKD1PKVtOSF1bQ0gyXVtDQEBIXTJbQ0gyXVtDSDJdW0NIMl1PMg==

> <s_epik_cmdline>
J2VwaWtfcHl0aG9uJywgJy1waCcsICc3LjAnLCAnLXRuJywgJzgnLCAnLW1hJywgJzIwMCcsICctbWV0YWxfYmluZGluZycsICctaW1hZScsICc8aW5maWxlLm1hZT4nLCAnLW9tYWUnLCAnPG91dGZpbGUubWFlPic=

> <r_lp_tautomer_probability>
1

> <r_epik_Ionization_Penalty>
5.57253e-05

> <r_epik_Ionization_Penalty_Charging>
0

> <r_epik_Ionization_Penalty_Neutral>
5.57253e-05

> <r_epik_State_Penalty>
-0

> <r_epik_Charging_Adjusted_Penalty>
0

> <i_epik_Tot_Q>
0

> <i_epik_Tot_abs_Q>
0

> <r_epik_Metal_State_Penalty>
-0

> <b_epik_Metal_Only>
0

> <s_lp_Force_Field>
OPLS_2005

> <r_lp_Energy>
19.2835

> <b_lp_Chiralities_Consistent>
1

> <s_lp_Variant>
AV-unprocessed.smi:1700-2

> <Gold.Version>
5.8.1

> <Gold.Id.Protein>
6NUR|6NUR_protein|mol2

> <Gold.PLP.Fitness>
38.8079

> <Gold.PLP.PLP>
-30.6987

> <Gold.PLP.part.hbond>
-2.0000

> <Gold.PLP.part.metal>
0.0000

> <Gold.PLP.part.buried>
-3.6717

> <Gold.PLP.part.nonpolar>
-26.3883

> <Gold.PLP.part.repulsive>
0.5718

> <Gold.PLP.ligand.clash>
0.0000

> <Gold.PLP.ligand.torsion>
0.4227

> <Gold.PLP.Chemscore.Hbond>
2.0000

> <Gold.PLP.Chemscore.CHOScore>
0.9834

> <Gold.PLP.Chemscore.Metal>
0.0000

> <Gold.Chemscore.Hbonds>
donor molecule, donor type, donor heavy atom, donor atom, acceptor molecule, acceptor atom, score
      L1  H     8    24       P1  7948  1.00
      L1  H    11    25       P1  7948  1.00
      L1  C     5    23       P1 10186  0.98

> <Gold.PLP.Chemscore.Internal.Correction>
0.0043

> <Gold.Rescore>
     Score         DG    S(hbond)    S(metal)    S(lipo)     H(rot)  DE(clash)    DE(int)     intcor
     17.03     -17.52       1.95        0.00      74.08       1.23       0.04       0.45       ----

> <Gold.Chemscore.Fitness>
17.0283

> <Gold.Chemscore.DG>
-17.5174

> <Gold.Chemscore.ZeroCoef>
-5.4800

> <Gold.Chemscore.Hbond>
1.9547

> <Gold.Chemscore.Metal>
0.0000

> <Gold.Chemscore.Lipo>
74.0765

> <Gold.Chemscore.Internal_Hbond>
0.0000

> <Gold.Chemscore.DEClash>
0.0423

> <Gold.Chemscore.DEInternal>
0.4468

> <Gold.Chemscore.Rot>
1.2337

> <Gold.Chemscore.Internal.Correction>
   9.000000E+99

> <Gold.Chemscore.Hbonds>
donor molecule, donor type, donor heavy atom, donor atom, acceptor molecule, acceptor atom, score
      L1  H     8    24       P1  7948  0.99
      L1  H    11    25       P1  7948  0.95

> <Gold.Chemscore.Hbond.Weighted>
-6.5286

> <Gold.Chemscore.Metal.Weighted>
-0.0000

> <Gold.Chemscore.Lipo.Weighted>
-8.6670

> <Gold.Chemscore.Internal_Hbond.Weighted>
0.0000

> <Gold.Chemscore.DEClash.Weighted>
0.0423

> <Gold.Chemscore.DEInternal.Weighted>
0.4468

> <Gold.Chemscore.Rot.Weighted>
3.1582

> <Gold.Chemscore.Internal.Correction.Weighted>
   9.000000E+99

> <Gold.Protein.RotatedTorsions>
[ 6907 6896 6895 6894 ] final   49.89 input  -60.11 | X-H torsion
[ 7974 7965 7964 7962 ] final   57.88 input  175.53 | X-H torsion
[ 8008 7997 7996 7995 ] final -157.63 input   59.86 | X-H torsion
[ 10167 10162 10161 10158 ] final  164.40 input  -65.29 | X-H torsion
[ 10718 10713 10712 10709 ] final  -35.89 input   66.30 | X-H torsion
[ 10763 10752 10751 10750 ] final -112.11 input  -60.55 | X-H torsion
[ 11005 11000 10999 10996 ] final -138.20 input  -57.11 | X-H torsion

> <Gold.Protein.ActiveResidues>
 VAL166  LYS551  ARG553  GLY616  TRP617  ASP618  TYR619  PRO620  LYS621  CYS622 
 ASP623  PHE694  ASN695  SER759  ASP760  ASP761  ALA762  ILE779  LEU786  VAL792 
 PHE793  MET794  SER795  GLU796  ALA797  LYS798  CYS799  TRP800  GLU811  SER814 

> <Gold.Protein.RotatedAtoms>
  152.2958  134.7668  160.0368 H   0  0  0  0  0  0  0  0  0  0  0  0  # atno 6907 bound_to 6896
  151.8199  133.3388  159.3589 H   0  0  0  0  0  0  0  0  0  0  0  0  # atno 6908 bound_to 6896
  150.7251  134.5513  159.5840 H   0  0  0  0  0  0  0  0  0  0  0  0  # atno 6909 bound_to 6896
  145.9243  139.3755  143.0459 H   0  0  0  0  0  0  0  0  0  0  0  0  # atno 7974 bound_to 7965
  155.7354  140.0807  157.2270 H   0  0  0  0  0  0  0  0  0  0  0  0  # atno 8008 bound_to 7997
  154.4028  140.1587  156.2611 H   0  0  0  0  0  0  0  0  0  0  0  0  # atno 8009 bound_to 7997
  155.9070  140.3406  155.6072 H   0  0  0  0  0  0  0  0  0  0  0  0  # atno 8010 bound_to 7997
  139.4888  144.4239  151.9153 H   0  0  0  0  0  0  0  0  0  0  0  0  # atno 10167 bound_to 10162
  156.3333  130.4282  149.7852 H   0  0  0  0  0  0  0  0  0  0  0  0  # atno 10718 bound_to 10713
  154.8333  135.4503  154.1143 H   0  0  0  0  0  0  0  0  0  0  0  0  # atno 10763 bound_to 10752
  153.2397  135.6915  153.7803 H   0  0  0  0  0  0  0  0  0  0  0  0  # atno 10764 bound_to 10752
  153.7156  135.3350  155.3232 H   0  0  0  0  0  0  0  0  0  0  0  0  # atno 10765 bound_to 10752
  140.8639  134.2135  157.4691 H   0  0  0  0  0  0  0  0  0  0  0  0  # atno 11005 bound_to 11000
  145.8509  140.9529  143.0750 LP  0  0  0  0  0  0  0  0  0  0  0  0  # atno 17320 bound_to 7965
  144.6756  140.0406  143.7481 LP  0  0  0  0  0  0  0  0  0  0  0  0  # atno 17321 bound_to 7965
  140.3684  144.2886  150.5923 LP  0  0  0  0  0  0  0  0  0  0  0  0  # atno 17342 bound_to 10162
  140.5341  143.2237  151.8191 LP  0  0  0  0  0  0  0  0  0  0  0  0  # atno 17343 bound_to 10162
  156.5116  130.8175  151.3171 LP  0  0  0  0  0  0  0  0  0  0  0  0  # atno 17370 bound_to 10713
  157.7434  130.9912  150.2592 LP  0  0  0  0  0  0  0  0  0  0  0  0  # atno 17371 bound_to 10713
  139.8708  134.9742  156.4839 LP  0  0  0  0  0  0  0  0  0  0  0  0  # atno 17394 bound_to 11000
  140.8651  133.8030  155.9306 LP  0  0  0  0  0  0  0  0  0  0  0  0  # atno 17395 bound_to 11000

$$$$
