AV-unprocessed.smi:1308|AV-procd|sdf|5439|dock3
  -GOLD-   22720 5 03D 1   1.00000     0.00000
 Structure written by MMmdl.
 45 45  0  0  0  0  0  0  0  0  1 V2000
  145.4146  142.7399  154.6313 C   0  0  0  0  0  0  0  0  0  0  0  0
  146.6176  141.8319  154.4870 C   0  0  0  0  0  0  0  0  0  0  0  0
  147.7351  142.0111  155.1110 N   0  0  0  0  0  0  0  0  0  0  0  0
  148.7812  141.1032  154.8955 C   0  0  0  0  0  0  0  0  0  0  0  0
  150.0608  141.3835  155.6644 C   0  0  0  0  0  0  0  0  0  0  0  0
  148.6455  140.0430  154.0456 C   0  0  0  0  0  0  0  0  0  0  0  0
  149.7684  139.0394  153.7848 C   0  0  0  0  0  0  0  0  0  0  0  0
  149.9332  137.9458  154.8413 C   0  0  0  0  0  0  0  0  0  0  0  0
  150.1402  138.2542  156.0144 O   0  0  0  0  0  0  0  0  0  0  0  0
  149.8382  136.6779  154.4047 N   0  0  0  0  0  0  0  0  0  0  0  0
  149.9980  135.4505  155.1883 C   0  0  1  0  0  0  0  0  0  0  0  0
  149.2242  135.5255  156.5166 C   0  0  0  0  0  0  0  0  0  0  0  0
  149.6656  134.1740  154.3841 C   0  0  0  0  0  0  0  0  0  0  0  0
  149.9756  132.8658  155.1382 C   0  0  0  0  0  0  0  0  0  0  0  0
  149.6471  131.5849  154.3435 C   0  0  0  0  0  0  0  0  0  0  0  0
  148.1961  131.5595  153.8331 C   0  0  0  0  0  0  0  0  0  0  0  0
  149.9368  130.3350  155.1885 C   0  0  0  0  0  0  0  0  0  0  0  0
  147.3659  139.8501  153.3360 C   0  0  0  0  0  0  0  0  0  0  0  0
  147.1411  138.9402  152.5394 O   0  0  0  0  0  0  0  0  0  0  0  0
  146.4130  140.7696  153.6082 N   0  0  0  0  0  0  0  0  0  0  0  0
  145.5190  140.6805  153.1476 H   0  0  0  0  0  0  0  0  0  0  0  0
  145.6670  143.7503  154.3088 H   0  0  0  0  0  0  0  0  0  0  0  0
  145.0991  142.7822  155.6741 H   0  0  0  0  0  0  0  0  0  0  0  0
  144.5714  142.3911  154.0331 H   0  0  0  0  0  0  0  0  0  0  0  0
  150.3003  140.5525  156.3278 H   0  0  0  0  0  0  0  0  0  0  0  0
  149.9667  142.2816  156.2760 H   0  0  0  0  0  0  0  0  0  0  0  0
  150.8957  141.5342  154.9801 H   0  0  0  0  0  0  0  0  0  0  0  0
  149.5936  138.5630  152.8197 H   0  0  0  0  0  0  0  0  0  0  0  0
  150.7250  139.5500  153.6681 H   0  0  0  0  0  0  0  0  0  0  0  0
  149.6510  136.5491  153.4205 H   0  0  0  0  0  0  0  0  0  0  0  0
  151.0574  135.4072  155.4432 H   0  0  0  0  0  0  0  0  0  0  0  0
  149.4637  134.6747  157.1548 H   0  0  0  0  0  0  0  0  0  0  0  0
  148.1456  135.5215  156.3592 H   0  0  0  0  0  0  0  0  0  0  0  0
  149.4776  136.4309  157.0689 H   0  0  0  0  0  0  0  0  0  0  0  0
  148.6057  134.1995  154.1329 H   0  0  0  0  0  0  0  0  0  0  0  0
  150.1961  134.1813  153.4316 H   0  0  0  0  0  0  0  0  0  0  0  0
  151.0363  132.8499  155.3908 H   0  0  0  0  0  0  0  0  0  0  0  0
  149.4404  132.8554  156.0885 H   0  0  0  0  0  0  0  0  0  0  0  0
  150.3075  131.5474  153.4762 H   0  0  0  0  0  0  0  0  0  0  0  0
  147.4845  131.6497  154.6542 H   0  0  0  0  0  0  0  0  0  0  0  0
  147.9825  130.6264  153.3112 H   0  0  0  0  0  0  0  0  0  0  0  0
  148.0006  132.3683  153.1296 H   0  0  0  0  0  0  0  0  0  0  0  0
  149.3117  130.3068  156.0816 H   0  0  0  0  0  0  0  0  0  0  0  0
  150.9782  130.3092  155.5106 H   0  0  0  0  0  0  0  0  0  0  0  0
  149.7484  129.4233  154.6211 H   0  0  0  0  0  0  0  0  0  0  0  0
  1  2  1  0  0  0  0
  1 22  1  0  0  0  0
  1 23  1  0  0  0  0
  1 24  1  0  0  0  0
  2 20  1  0  0  0  0
  2  3  2  0  0  0  0
  3  4  1  0  0  0  0
  4  5  1  0  0  0  0
  4  6  2  0  0  0  0
  5 25  1  0  0  0  0
  5 26  1  0  0  0  0
  5 27  1  0  0  0  0
  6  7  1  0  0  0  0
  6 18  1  0  0  0  0
  7  8  1  0  0  0  0
  7 28  1  0  0  0  0
  7 29  1  0  0  0  0
  8  9  2  0  0  0  0
  8 10  1  0  0  0  0
 10 11  1  0  0  0  0
 10 30  1  0  0  0  0
 11 12  1  0  0  0  0
 11 13  1  0  0  0  0
 11 31  1  0  0  0  0
 12 32  1  0  0  0  0
 12 33  1  0  0  0  0
 12 34  1  0  0  0  0
 13 14  1  0  0  0  0
 13 35  1  0  0  0  0
 13 36  1  0  0  0  0
 14 15  1  0  0  0  0
 14 37  1  0  0  0  0
 14 38  1  0  0  0  0
 15 16  1  0  0  0  0
 15 17  1  0  0  0  0
 15 39  1  0  0  0  0
 16 40  1  0  0  0  0
 16 41  1  0  0  0  0
 16 42  1  0  0  0  0
 17 43  1  0  0  0  0
 17 44  1  0  0  0  0
 17 45  1  0  0  0  0
 18 19  2  0  0  0  0
 18 20  1  0  0  0  0
 20 21  1  0  0  0  0
M  END
> <s_m_source_file>
AV-unprocessed.smi

> <i_m_source_file_index>
1308

> <i_lp_mmshare_version>
43012

> <i_f3d_flags>
0

> <s_epik_input>
W0NIM11jMW5jKFtDSDNdKWMoYyg9TylbbkhdMSlbQ0gyXUMoPU8pW05IXVtDQEhdKFtDSDNdKVtDSDJdW0NIMl1bQ0hdKFtDSDNdKVtDSDNd

> <s_epik_cmdline>
J2VwaWtfcHl0aG9uJywgJy1waCcsICc3LjAnLCAnLXRuJywgJzgnLCAnLW1hJywgJzIwMCcsICctbWV0YWxfYmluZGluZycsICctaW1hZScsICc8aW5maWxlLm1hZT4nLCAnLW9tYWUnLCAnPG91dGZpbGUubWFlPic=

> <r_lp_tautomer_probability>
0.839158

> <r_epik_Ionization_Penalty>
0.000390633

> <r_epik_Ionization_Penalty_Charging>
0.00035831

> <r_epik_Ionization_Penalty_Neutral>
3.23235e-05

> <r_epik_State_Penalty>
0.0470222

> <r_epik_Charging_Adjusted_Penalty>
0.0473805

> <i_epik_Tot_Q>
0

> <i_epik_Tot_abs_Q>
0

> <r_epik_Metal_State_Penalty>
0.223807

> <b_epik_Metal_Only>
0

> <s_lp_Force_Field>
OPLS_2005

> <r_lp_Energy>
7.09032

> <b_lp_Chiralities_Consistent>
1

> <s_lp_Variant>
AV-unprocessed.smi:1308-2

> <Gold.Version>
5.8.1

> <Gold.Id.Protein>
6NUR|6NUR_protein|mol2

> <Gold.PLP.Fitness>
36.8348

> <Gold.PLP.PLP>
-31.5510

> <Gold.PLP.part.hbond>
-2.2846

> <Gold.PLP.part.metal>
0.0000

> <Gold.PLP.part.buried>
-1.0429

> <Gold.PLP.part.nonpolar>
-29.7706

> <Gold.PLP.part.repulsive>
1.6873

> <Gold.PLP.ligand.clash>
0.0000

> <Gold.PLP.ligand.torsion>
0.4268

> <Gold.PLP.Chemscore.Hbond>
2.0000

> <Gold.PLP.Chemscore.CHOScore>
0.0000

> <Gold.PLP.Chemscore.Metal>
0.0000

> <Gold.Chemscore.Hbonds>
donor molecule, donor type, donor heavy atom, donor atom, acceptor molecule, acceptor atom, score
      L1  H    10    30       P1  7948  1.00
      L1  H    20    21       P1 10175  1.00

> <Gold.PLP.Chemscore.Internal.Correction>
0.1374

> <Gold.Rescore>
     Score         DG    S(hbond)    S(metal)    S(lipo)     H(rot)  DE(clash)    DE(int)     intcor
     11.94     -13.92       1.96        0.00      59.76       1.98       0.10       1.89       ----

> <Gold.Chemscore.Fitness>
11.9351

> <Gold.Chemscore.DG>
-13.9243

> <Gold.Chemscore.ZeroCoef>
-5.4800

> <Gold.Chemscore.Hbond>
1.9552

> <Gold.Chemscore.Metal>
0.0000

> <Gold.Chemscore.Lipo>
59.7590

> <Gold.Chemscore.Internal_Hbond>
0.0000

> <Gold.Chemscore.DEClash>
0.0998

> <Gold.Chemscore.DEInternal>
1.8894

> <Gold.Chemscore.Rot>
1.9835

> <Gold.Chemscore.Internal.Correction>
   9.000000E+99

> <Gold.Chemscore.Hbonds>
donor molecule, donor type, donor heavy atom, donor atom, acceptor molecule, acceptor atom, score
      L1  H    10    30       P1  7948  0.50
      L1  H    20    21       P1 10175  0.77

> <Gold.Chemscore.Hbond.Weighted>
-6.5302

> <Gold.Chemscore.Metal.Weighted>
-0.0000

> <Gold.Chemscore.Lipo.Weighted>
-6.9918

> <Gold.Chemscore.Internal_Hbond.Weighted>
0.0000

> <Gold.Chemscore.DEClash.Weighted>
0.0998

> <Gold.Chemscore.DEInternal.Weighted>
1.8894

> <Gold.Chemscore.Rot.Weighted>
5.0778

> <Gold.Chemscore.Internal.Correction.Weighted>
   9.000000E+99

> <Gold.Protein.RotatedTorsions>
[ 6907 6896 6895 6894 ] final  151.34 input  -60.11 | X-H torsion
[ 7974 7965 7964 7962 ] final  105.65 input  175.53 | X-H torsion
[ 8008 7997 7996 7995 ] final  -60.21 input   59.86 | X-H torsion
[ 10167 10162 10161 10158 ] final -144.01 input  -65.29 | X-H torsion
[ 10718 10713 10712 10709 ] final -141.28 input   66.30 | X-H torsion
[ 10763 10752 10751 10750 ] final  153.55 input  -60.55 | X-H torsion
[ 11005 11000 10999 10996 ] final  154.91 input  -57.11 | X-H torsion

> <Gold.Protein.ActiveResidues>
 VAL166  LYS551  ARG553  GLY616  TRP617  ASP618  TYR619  PRO620  LYS621  CYS622 
 ASP623  PHE694  ASN695  SER759  ASP760  ASP761  ALA762  ILE779  LEU786  VAL792 
 PHE793  MET794  SER795  GLU796  ALA797  LYS798  CYS799  TRP800  GLU811  SER814 

> <Gold.Protein.RotatedAtoms>
  152.1020  133.4255  159.4591 H   0  0  0  0  0  0  0  0  0  0  0  0  # atno 6907 bound_to 6896
  150.6864  134.2749  159.4612 H   0  0  0  0  0  0  0  0  0  0  0  0  # atno 6908 bound_to 6896
  152.0610  134.9594  160.0625 H   0  0  0  0  0  0  0  0  0  0  0  0  # atno 6909 bound_to 6896
  145.3169  139.2524  143.3733 H   0  0  0  0  0  0  0  0  0  0  0  0  # atno 7974 bound_to 7965
  154.4388  140.1044  156.6237 H   0  0  0  0  0  0  0  0  0  0  0  0  # atno 8008 bound_to 7997
  155.5680  140.3488  155.4489 H   0  0  0  0  0  0  0  0  0  0  0  0  # atno 8009 bound_to 7997
  156.0411  140.1282  157.0144 H   0  0  0  0  0  0  0  0  0  0  0  0  # atno 8010 bound_to 7997
  139.7939  143.7928  152.2652 H   0  0  0  0  0  0  0  0  0  0  0  0  # atno 10167 bound_to 10162
  156.3322  130.7592  151.1712 H   0  0  0  0  0  0  0  0  0  0  0  0  # atno 10718 bound_to 10713
  154.1380  135.2822  155.3168 H   0  0  0  0  0  0  0  0  0  0  0  0  # atno 10763 bound_to 10752
  154.6307  135.5436  153.7681 H   0  0  0  0  0  0  0  0  0  0  0  0  # atno 10764 bound_to 10752
  153.0259  135.6462  154.1528 H   0  0  0  0  0  0  0  0  0  0  0  0  # atno 10765 bound_to 10752
  140.1533  134.8660  157.2482 H   0  0  0  0  0  0  0  0  0  0  0  0  # atno 11005 bound_to 11000
  146.3097  140.3717  142.8675 LP  0  0  0  0  0  0  0  0  0  0  0  0  # atno 17320 bound_to 7965
  144.8971  140.7596  143.5890 LP  0  0  0  0  0  0  0  0  0  0  0  0  # atno 17321 bound_to 7965
  139.8027  144.7367  150.9802 LP  0  0  0  0  0  0  0  0  0  0  0  0  # atno 17342 bound_to 10162
  140.7820  143.4328  151.0668 LP  0  0  0  0  0  0  0  0  0  0  0  0  # atno 17343 bound_to 10162
  157.7432  131.0478  150.4963 LP  0  0  0  0  0  0  0  0  0  0  0  0  # atno 17370 bound_to 10713
  156.5130  130.4144  149.6291 LP  0  0  0  0  0  0  0  0  0  0  0  0  # atno 17371 bound_to 10713
  140.2578  134.3607  155.7418 LP  0  0  0  0  0  0  0  0  0  0  0  0  # atno 17394 bound_to 11000
  141.2201  133.7352  156.9034 LP  0  0  0  0  0  0  0  0  0  0  0  0  # atno 17395 bound_to 11000

$$$$
