AV-unprocessed.smi:1432|AV-procd|sdf|5831|dock2
  -GOLD-   22720 5493D 1   1.00000     0.00000
 Structure written by MMmdl.
 47 48  0  0  0  0  0  0  0  0  2 V2000
  145.5174  139.9297  155.9256 C   0  0  0  0  0  0  0  0  0  0  0  0
  145.8003  141.3900  155.5188 C   0  0  2  0  0  0  0  0  0  0  0  0
  144.6152  142.2748  155.9648 C   0  0  0  0  0  0  0  0  0  0  0  0
  144.8135  143.7421  155.5727 C   0  0  0  0  0  0  0  0  0  0  0  0
  145.0515  143.8386  154.0648 C   0  0  0  0  0  0  0  0  0  0  0  0
  146.2444  142.9645  153.6534 C   0  0  0  0  0  0  0  0  0  0  0  0
  146.0562  141.5422  154.0509 N   0  3  1  0  0  0  0  0  0  0  0  0
  147.1556  140.6848  153.5289 C   0  0  0  0  0  0  0  0  0  0  0  0
  148.5286  141.1927  153.9924 C   0  0  0  0  0  0  0  0  0  0  0  0
  148.8802  140.6085  155.2784 N   0  0  0  0  0  0  0  0  0  0  0  0
  150.0217  140.8532  155.9419 C   0  0  0  0  0  0  0  0  0  0  0  0
  150.8822  141.6225  155.5167 O   0  0  0  0  0  0  0  0  0  0  0  0
  150.2571  140.1340  157.2819 C   0  0  0  0  0  0  0  0  0  0  0  0
  151.1567  140.8360  158.2155 N   0  0  0  0  0  0  0  0  0  0  0  0
  150.9319  142.2133  158.4086 C   0  0  0  0  0  0  0  0  0  0  0  0
  151.6859  142.9715  159.2271 C   0  0  0  0  0  0  0  0  0  0  0  0
  151.3750  144.4417  159.4613 C   0  0  0  0  0  0  0  0  0  0  0  0
  151.5849  145.1606  158.3584 F   0  0  0  0  0  0  0  0  0  0  0  0
  150.0989  144.5849  159.8157 F   0  0  0  0  0  0  0  0  0  0  0  0
  152.1353  144.9406  160.4368 F   0  0  0  0  0  0  0  0  0  0  0  0
  152.7493  142.2905  159.9398 C   0  0  0  0  0  0  0  0  0  0  0  0
  152.9687  140.9710  159.7777 C   0  0  0  0  0  0  0  0  0  0  0  0
  152.1464  140.1622  158.8753 C   0  0  0  0  0  0  0  0  0  0  0  0
  152.3287  138.9538  158.7288 O   0  0  0  0  0  0  0  0  0  0  0  0
  145.2899  139.8620  156.9898 H   0  0  0  0  0  0  0  0  0  0  0  0
  146.3692  139.2739  155.7485 H   0  0  0  0  0  0  0  0  0  0  0  0
  144.6624  139.5250  155.3830 H   0  0  0  0  0  0  0  0  0  0  0  0
  146.6939  141.7240  156.0491 H   0  0  0  0  0  0  0  0  0  0  0  0
  143.6905  141.9049  155.5188 H   0  0  0  0  0  0  0  0  0  0  0  0
  144.4826  142.2051  157.0452 H   0  0  0  0  0  0  0  0  0  0  0  0
  143.9402  144.3302  155.8563 H   0  0  0  0  0  0  0  0  0  0  0  0
  145.6638  144.1607  156.1129 H   0  0  0  0  0  0  0  0  0  0  0  0
  144.1572  143.5216  153.5264 H   0  0  0  0  0  0  0  0  0  0  0  0
  145.2335  144.8757  153.7817 H   0  0  0  0  0  0  0  0  0  0  0  0
  146.3687  143.0267  152.5712 H   0  0  0  0  0  0  0  0  0  0  0  0
  147.1619  143.3495  154.1016 H   0  0  0  0  0  0  0  0  0  0  0  0
  147.0402  139.6592  153.8840 H   0  0  0  0  0  0  0  0  0  0  0  0
  147.1099  140.6131  152.4414 H   0  0  0  0  0  0  0  0  0  0  0  0
  149.3050  140.9395  153.2706 H   0  0  0  0  0  0  0  0  0  0  0  0
  148.5097  142.2810  154.0741 H   0  0  0  0  0  0  0  0  0  0  0  0
  148.2200  139.9645  155.6897 H   0  0  0  0  0  0  0  0  0  0  0  0
  149.2893  139.9539  157.7534 H   0  0  0  0  0  0  0  0  0  0  0  0
  150.6489  139.1394  157.0639 H   0  0  0  0  0  0  0  0  0  0  0  0
  150.0954  142.6139  157.8540 H   0  0  0  0  0  0  0  0  0  0  0  0
  153.3853  142.8475  160.6122 H   0  0  0  0  0  0  0  0  0  0  0  0
  153.7716  140.4971  160.3234 H   0  0  0  0  0  0  0  0  0  0  0  0
  145.2153  141.2361  153.5823 H   0  0  0  0  0  0  0  0  0  0  0  0
  1  2  1  0  0  0  0
  1 25  1  0  0  0  0
  1 26  1  0  0  0  0
  1 27  1  0  0  0  0
  2  7  1  0  0  0  0
  2  3  1  0  0  0  0
  2 28  1  0  0  0  0
  3  4  1  0  0  0  0
  3 29  1  0  0  0  0
  3 30  1  0  0  0  0
  4  5  1  0  0  0  0
  4 31  1  0  0  0  0
  4 32  1  0  0  0  0
  5  6  1  0  0  0  0
  5 33  1  0  0  0  0
  5 34  1  0  0  0  0
  6  7  1  0  0  0  0
  6 35  1  0  0  0  0
  6 36  1  0  0  0  0
  7  8  1  0  0  0  0
  7 47  1  0  0  0  0
  8  9  1  0  0  0  0
  8 37  1  0  0  0  0
  8 38  1  0  0  0  0
  9 10  1  0  0  0  0
  9 39  1  0  0  0  0
  9 40  1  0  0  0  0
 10 11  1  0  0  0  0
 10 41  1  0  0  0  0
 11 12  2  0  0  0  0
 11 13  1  0  0  0  0
 13 14  1  0  0  0  0
 13 42  1  0  0  0  0
 13 43  1  0  0  0  0
 14 23  1  0  0  0  0
 14 15  1  0  0  0  0
 15 16  2  0  0  0  0
 15 44  1  0  0  0  0
 16 17  1  0  0  0  0
 16 21  1  0  0  0  0
 17 18  1  0  0  0  0
 17 19  1  0  0  0  0
 17 20  1  0  0  0  0
 21 22  2  0  0  0  0
 21 45  1  0  0  0  0
 22 23  1  0  0  0  0
 22 46  1  0  0  0  0
 23 24  2  0  0  0  0
M  CHG  1   7   1
M  END
> <s_m_source_file>
AV-unprocessed.smi

> <i_m_source_file_index>
1432

> <i_lp_mmshare_version>
43012

> <i_f3d_flags>
0

> <s_epik_input>
W0NIM11bQ0BASF0xW0NIMl1bQ0gyXVtDSDJdW0NIMl1OMVtDSDJdW0NIMl1bTkhdQyg9TylbQ0gyXW4yW2NIXWMoQyhGKShGKUYpW2NIXVtjSF1jMj1P

> <s_epik_cmdline>
J2VwaWtfcHl0aG9uJywgJy1waCcsICc3LjAnLCAnLXRuJywgJzgnLCAnLW1hJywgJzIwMCcsICctbWV0YWxfYmluZGluZycsICctaW1hZScsICc8aW5maWxlLm1hZT4nLCAnLW9tYWUnLCAnPG91dGZpbGUubWFlPic=

> <r_lp_tautomer_probability>
1

> <r_epik_Ionization_Penalty>
0.00237222

> <r_epik_Ionization_Penalty_Charging>
0.00237213

> <r_epik_Ionization_Penalty_Neutral>
8.2065e-08

> <r_epik_State_Penalty>
0.00163922

> <r_epik_Charging_Adjusted_Penalty>
0.00401135

> <i_epik_Tot_Q>
1

> <i_epik_Tot_abs_Q>
1

> <r_epik_Metal_State_Penalty>
-0

> <b_epik_Metal_Only>
0

> <s_lp_Force_Field>
OPLS_2005

> <r_lp_Energy>
33.1317

> <b_lp_Chiralities_Consistent>
1

> <s_lp_Variant>
AV-unprocessed.smi:1432-1

> <Gold.Version>
5.8.1

> <Gold.Id.Protein>
6NUR|6NUR_protein|mol2

> <Gold.PLP.Fitness>
52.2521

> <Gold.PLP.PLP>
-47.2595

> <Gold.PLP.part.hbond>
-1.9968

> <Gold.PLP.part.metal>
0.0000

> <Gold.PLP.part.buried>
-6.5391

> <Gold.PLP.part.nonpolar>
-38.9033

> <Gold.PLP.part.repulsive>
0.1762

> <Gold.PLP.ligand.clash>
0.0000

> <Gold.PLP.ligand.torsion>
0.8547

> <Gold.PLP.Chemscore.Hbond>
2.1960

> <Gold.PLP.Chemscore.CHOScore>
0.0000

> <Gold.PLP.Chemscore.Metal>
0.0000

> <Gold.Chemscore.Hbonds>
donor molecule, donor type, donor heavy atom, donor atom, acceptor molecule, acceptor atom, score
      L1  H     7    47       P1 10175  2.00
      P1  H  7989  7998       L1    12  0.18

> <Gold.PLP.Chemscore.Internal.Correction>
0.1139

> <Gold.Rescore>
     Score         DG    S(hbond)    S(metal)    S(lipo)     H(rot)  DE(clash)    DE(int)     intcor
     12.82     -15.52       1.61        0.00      85.41       2.08       1.90       0.80       ----

> <Gold.Chemscore.Fitness>
12.8219

> <Gold.Chemscore.DG>
-15.5200

> <Gold.Chemscore.ZeroCoef>
-5.4800

> <Gold.Chemscore.Hbond>
1.6054

> <Gold.Chemscore.Metal>
0.0000

> <Gold.Chemscore.Lipo>
85.4099

> <Gold.Chemscore.Internal_Hbond>
0.0000

> <Gold.Chemscore.DEClash>
1.8965

> <Gold.Chemscore.DEInternal>
0.8016

> <Gold.Chemscore.Rot>
2.0762

> <Gold.Chemscore.Internal.Correction>
   9.000000E+99

> <Gold.Chemscore.Hbonds>
donor molecule, donor type, donor heavy atom, donor atom, acceptor molecule, acceptor atom, score
      L1  H     7    47       P1 10175  0.37
      P1  H  7989  7998       L1    12  0.13

> <Gold.Chemscore.Hbond.Weighted>
-5.3620

> <Gold.Chemscore.Metal.Weighted>
-0.0000

> <Gold.Chemscore.Lipo.Weighted>
-9.9930

> <Gold.Chemscore.Internal_Hbond.Weighted>
0.0000

> <Gold.Chemscore.DEClash.Weighted>
1.8965

> <Gold.Chemscore.DEInternal.Weighted>
0.8016

> <Gold.Chemscore.Rot.Weighted>
5.3150

> <Gold.Chemscore.Internal.Correction.Weighted>
   9.000000E+99

> <Gold.Protein.RotatedTorsions>
[ 6907 6896 6895 6894 ] final  -26.19 input  -60.11 | X-H torsion
[ 7974 7965 7964 7962 ] final   -8.23 input  175.53 | X-H torsion
[ 8008 7997 7996 7995 ] final -107.58 input   59.86 | X-H torsion
[ 10167 10162 10161 10158 ] final  115.91 input  -65.29 | X-H torsion
[ 10718 10713 10712 10709 ] final  -40.90 input   66.30 | X-H torsion
[ 10763 10752 10751 10750 ] final  107.70 input  -60.55 | X-H torsion
[ 11005 11000 10999 10996 ] final   94.51 input  -57.11 | X-H torsion

> <Gold.Protein.ActiveResidues>
 VAL166  LYS551  ARG553  GLY616  TRP617  ASP618  TYR619  PRO620  LYS621  CYS622 
 ASP623  PHE694  ASN695  SER759  ASP760  ASP761  ALA762  ILE779  LEU786  VAL792 
 PHE793  MET794  SER795  GLU796  ALA797  LYS798  CYS799  TRP800  GLU811  SER814 

> <Gold.Protein.RotatedAtoms>
  151.1645  135.0289  159.8724 H   0  0  0  0  0  0  0  0  0  0  0  0  # atno 6907 bound_to 6896
  152.5450  134.1241  159.8421 H   0  0  0  0  0  0  0  0  0  0  0  0  # atno 6908 bound_to 6896
  151.1340  133.4971  159.2631 H   0  0  0  0  0  0  0  0  0  0  0  0  # atno 6909 bound_to 6896
  146.2286  140.2437  142.8344 H   0  0  0  0  0  0  0  0  0  0  0  0  # atno 7974 bound_to 7965
  154.9314  140.0405  157.2050 H   0  0  0  0  0  0  0  0  0  0  0  0  # atno 8008 bound_to 7997
  154.8157  140.2875  155.5800 H   0  0  0  0  0  0  0  0  0  0  0  0  # atno 8009 bound_to 7997
  156.2975  140.2528  156.3054 H   0  0  0  0  0  0  0  0  0  0  0  0  # atno 8010 bound_to 7997
  139.6284  144.7111  151.2485 H   0  0  0  0  0  0  0  0  0  0  0  0  # atno 10167 bound_to 10162
  156.2763  130.4212  149.8384 H   0  0  0  0  0  0  0  0  0  0  0  0  # atno 10718 bound_to 10713
  153.4104  135.3836  155.2046 H   0  0  0  0  0  0  0  0  0  0  0  0  # atno 10763 bound_to 10752
  154.8737  135.3793  154.4508 H   0  0  0  0  0  0  0  0  0  0  0  0  # atno 10764 bound_to 10752
  153.5016  135.7088  153.5891 H   0  0  0  0  0  0  0  0  0  0  0  0  # atno 10765 bound_to 10752
  139.8798  134.8849  156.3875 H   0  0  0  0  0  0  0  0  0  0  0  0  # atno 11005 bound_to 11000
  144.9465  140.8134  143.5598 LP  0  0  0  0  0  0  0  0  0  0  0  0  # atno 17320 bound_to 7965
  145.2393  139.2079  143.5001 LP  0  0  0  0  0  0  0  0  0  0  0  0  # atno 17321 bound_to 7965
  140.7424  143.6526  150.8235 LP  0  0  0  0  0  0  0  0  0  0  0  0  # atno 17342 bound_to 10162
  140.0147  143.5605  152.2825 LP  0  0  0  0  0  0  0  0  0  0  0  0  # atno 17343 bound_to 10162
  156.5848  130.8481  151.3392 LP  0  0  0  0  0  0  0  0  0  0  0  0  # atno 17370 bound_to 10713
  157.7300  130.9679  150.1813 LP  0  0  0  0  0  0  0  0  0  0  0  0  # atno 17371 bound_to 10713
  140.9356  133.7549  156.0080 LP  0  0  0  0  0  0  0  0  0  0  0  0  # atno 17394 bound_to 11000
  140.8279  134.3212  157.5359 LP  0  0  0  0  0  0  0  0  0  0  0  0  # atno 17395 bound_to 11000

$$$$
