AV-unprocessed.smi:2511|AV-procd|sdf|9886|dock2
  -GOLD-   2272013523D 1   1.00000     0.00000
 Structure written by MMmdl.
 40 41  0  0  0  0  0  0  0  0  1 V2000
  149.9487  138.6375  153.2018 N   0  0  0  0  0  0  0  0  0  0  0  0
  150.1245  139.1090  154.4409 C   0  0  0  0  0  0  0  0  0  0  0  0
  150.6482  140.2008  154.6577 O   0  0  0  0  0  0  0  0  0  0  0  0
  149.6852  138.2097  155.5659 C   0  0  0  0  0  0  0  0  0  0  0  0
  149.4124  136.8459  155.3134 C   0  0  0  0  0  0  0  0  0  0  0  0
  149.0094  136.0182  156.3787 C   0  0  0  0  0  0  0  0  0  0  0  0
  148.8858  136.5783  157.6719 C   0  0  0  0  0  0  0  0  0  0  0  0
  148.5022  135.8505  158.8305 N   0  0  0  0  0  0  0  0  0  0  0  0
  148.0470  136.3172  160.0099 C   0  0  0  0  0  0  0  0  0  0  0  0
  147.8777  137.5052  160.2750 O   0  0  0  0  0  0  0  0  0  0  0  0
  147.7990  135.3615  160.9242 N   0  0  0  0  0  0  0  0  0  0  0  0
  147.3010  135.5091  162.2961 C   0  0  2  0  0  0  0  0  0  0  0  0
  147.2849  134.1392  163.0009 C   0  0  0  0  0  0  0  0  0  0  0  0
  146.1923  133.2118  162.4424 C   0  0  0  0  0  0  0  0  0  0  0  0
  144.8088  133.8783  162.4985 C   0  0  0  0  0  0  0  0  0  0  0  0
  144.7976  135.2331  161.7594 C   0  0  1  0  0  0  0  0  0  0  0  0
  143.4079  135.9019  161.7969 C   0  0  0  0  0  0  0  0  0  0  0  0
  143.4276  137.0736  161.1607 F   0  0  0  0  0  0  0  0  0  0  0  0
  142.5054  135.1112  161.2159 F   0  0  0  0  0  0  0  0  0  0  0  0
  143.0318  136.1039  163.0598 F   0  0  0  0  0  0  0  0  0  0  0  0
  145.8981  136.1566  162.3296 C   0  0  0  0  0  0  0  0  0  0  0  0
  149.2007  137.9433  157.8257 C   0  0  0  0  0  0  0  0  0  0  0  0
  149.5857  138.7419  156.8083 N   0  0  0  0  0  0  0  0  0  0  0  0
  150.2204  139.1958  152.4060 H   0  0  0  0  0  0  0  0  0  0  0  0
  149.5400  137.7232  153.0725 H   0  0  0  0  0  0  0  0  0  0  0  0
  149.5088  136.4305  154.3207 H   0  0  0  0  0  0  0  0  0  0  0  0
  148.8176  134.9751  156.1821 H   0  0  0  0  0  0  0  0  0  0  0  0
  148.6562  134.8536  158.7839 H   0  0  0  0  0  0  0  0  0  0  0  0
  147.9864  134.4127  160.6334 H   0  0  0  0  0  0  0  0  0  0  0  0
  147.9948  136.1465  162.8471 H   0  0  0  0  0  0  0  0  0  0  0  0
  148.2611  133.6596  162.9181 H   0  0  0  0  0  0  0  0  0  0  0  0
  147.1117  134.2889  164.0674 H   0  0  0  0  0  0  0  0  0  0  0  0
  146.4262  132.9418  161.4120 H   0  0  0  0  0  0  0  0  0  0  0  0
  146.1765  132.2791  163.0067 H   0  0  0  0  0  0  0  0  0  0  0  0
  144.0683  133.2072  162.0625 H   0  0  0  0  0  0  0  0  0  0  0  0
  144.5176  134.0219  163.5399 H   0  0  0  0  0  0  0  0  0  0  0  0
  145.0318  135.0399  160.7114 H   0  0  0  0  0  0  0  0  0  0  0  0
  145.6534  136.4070  163.3626 H   0  0  0  0  0  0  0  0  0  0  0  0
  145.9076  137.1042  161.7906 H   0  0  0  0  0  0  0  0  0  0  0  0
  149.1365  138.4143  158.7959 H   0  0  0  0  0  0  0  0  0  0  0  0
  1  2  1  0  0  0  0
  1 24  1  0  0  0  0
  1 25  1  0  0  0  0
  2  3  2  0  0  0  0
  2  4  1  0  0  0  0
  4 23  1  0  0  0  0
  4  5  2  0  0  0  0
  5  6  1  0  0  0  0
  5 26  1  0  0  0  0
  6  7  2  0  0  0  0
  6 27  1  0  0  0  0
  7  8  1  0  0  0  0
  7 22  1  0  0  0  0
  8  9  1  0  0  0  0
  8 28  1  0  0  0  0
  9 10  2  0  0  0  0
  9 11  1  0  0  0  0
 11 12  1  0  0  0  0
 11 29  1  0  0  0  0
 12 21  1  0  0  0  0
 12 13  1  0  0  0  0
 12 30  1  0  0  0  0
 13 14  1  0  0  0  0
 13 31  1  0  0  0  0
 13 32  1  0  0  0  0
 14 15  1  0  0  0  0
 14 33  1  0  0  0  0
 14 34  1  0  0  0  0
 15 16  1  0  0  0  0
 15 35  1  0  0  0  0
 15 36  1  0  0  0  0
 16 17  1  0  0  0  0
 16 21  1  0  0  0  0
 16 37  1  0  0  0  0
 17 18  1  0  0  0  0
 17 19  1  0  0  0  0
 17 20  1  0  0  0  0
 21 38  1  0  0  0  0
 21 39  1  0  0  0  0
 22 23  2  0  0  0  0
 22 40  1  0  0  0  0
M  END
> <s_m_source_file>
AV-unprocessed.smi

> <i_m_source_file_index>
2511

> <i_lp_mmshare_version>
43012

> <i_f3d_flags>
0

> <s_epik_input>
W05IMl1DKD1PKWMxW2NIXVtjSF1jKFtjSF1uMSlbTkhdQyg9TylbTkhdW0NAQEhdMltDSDJdW0NIMl1bQ0gyXVtDQEBIXShDKEYpKEYpRilbQ0gyXTI=

> <s_epik_cmdline>
J2VwaWtfcHl0aG9uJywgJy1waCcsICc3LjAnLCAnLXRuJywgJzgnLCAnLW1hJywgJzIwMCcsICctbWV0YWxfYmluZGluZycsICctaW1hZScsICc8aW5maWxlLm1hZT4nLCAnLW9tYWUnLCAnPG91dGZpbGUubWFlPic=

> <r_lp_tautomer_probability>
1

> <r_epik_Ionization_Penalty>
4.28758e-05

> <r_epik_Ionization_Penalty_Charging>
0

> <r_epik_Ionization_Penalty_Neutral>
4.28758e-05

> <r_epik_State_Penalty>
-0

> <r_epik_Charging_Adjusted_Penalty>
0

> <i_epik_Tot_Q>
0

> <i_epik_Tot_abs_Q>
0

> <r_epik_Metal_State_Penalty>
-0

> <b_epik_Metal_Only>
0

> <s_lp_Force_Field>
OPLS_2005

> <r_lp_Energy>
27.7433

> <b_lp_Chiralities_Consistent>
1

> <s_lp_Variant>
AV-unprocessed.smi:2511-1

> <Gold.Version>
5.8.1

> <Gold.Id.Protein>
6NUR|6NUR_protein|mol2

> <Gold.PLP.Fitness>
42.2327

> <Gold.PLP.PLP>
-30.2373

> <Gold.PLP.part.hbond>
-4.7364

> <Gold.PLP.part.metal>
0.0000

> <Gold.PLP.part.buried>
-2.9073

> <Gold.PLP.part.nonpolar>
-23.6500

> <Gold.PLP.part.repulsive>
0.4135

> <Gold.PLP.ligand.clash>
0.0000

> <Gold.PLP.ligand.torsion>
0.2047

> <Gold.PLP.Chemscore.Hbond>
4.1251

> <Gold.PLP.Chemscore.CHOScore>
0.0000

> <Gold.PLP.Chemscore.Metal>
0.0000

> <Gold.Chemscore.Hbonds>
donor molecule, donor type, donor heavy atom, donor atom, acceptor molecule, acceptor atom, score
      L1  H     1    24       P1  7957  0.86
      L1  H     1    25       P1  7948  0.98
      P1  H  6931  6943       L1    10  0.44
      P1  H  6934  6947       L1    10  0.74
      P1  H  7989  7998       L1     3  1.00

> <Gold.PLP.Chemscore.Internal.Correction>
0.0296

> <Gold.Rescore>
     Score         DG    S(hbond)    S(metal)    S(lipo)     H(rot)  DE(clash)    DE(int)     intcor
     19.36     -21.18       3.52        0.00      55.60       1.00       0.15       1.66       ----

> <Gold.Chemscore.Fitness>
19.3638

> <Gold.Chemscore.DG>
-21.1773

> <Gold.Chemscore.ZeroCoef>
-5.4800

> <Gold.Chemscore.Hbond>
3.5186

> <Gold.Chemscore.Metal>
0.0000

> <Gold.Chemscore.Lipo>
55.6008

> <Gold.Chemscore.Internal_Hbond>
0.0000

> <Gold.Chemscore.DEClash>
0.1509

> <Gold.Chemscore.DEInternal>
1.6626

> <Gold.Chemscore.Rot>
1.0000

> <Gold.Chemscore.Internal.Correction>
   9.000000E+99

> <Gold.Chemscore.Hbonds>
donor molecule, donor type, donor heavy atom, donor atom, acceptor molecule, acceptor atom, score
      L1  H     1    24       P1  7957  0.33
      L1  H     1    25       P1  7948  0.78
      P1  H  6931  6943       L1    10  0.40
      P1  H  6934  6947       L1    10  0.74
      P1  H  7989  7998       L1     3  0.96

> <Gold.Chemscore.Hbond.Weighted>
-11.7520

> <Gold.Chemscore.Metal.Weighted>
-0.0000

> <Gold.Chemscore.Lipo.Weighted>
-6.5053

> <Gold.Chemscore.Internal_Hbond.Weighted>
0.0000

> <Gold.Chemscore.DEClash.Weighted>
0.1509

> <Gold.Chemscore.DEInternal.Weighted>
1.6626

> <Gold.Chemscore.Rot.Weighted>
2.5600

> <Gold.Chemscore.Internal.Correction.Weighted>
   9.000000E+99

> <Gold.Protein.RotatedTorsions>
[ 6907 6896 6895 6894 ] final -117.63 input  -60.11 | X-H torsion
[ 7974 7965 7964 7962 ] final  -75.26 input  175.53 | X-H torsion
[ 8008 7997 7996 7995 ] final    9.05 input   59.86 | X-H torsion
[ 10167 10162 10161 10158 ] final  137.93 input  -65.29 | X-H torsion
[ 10718 10713 10712 10709 ] final   -9.33 input   66.30 | X-H torsion
[ 10763 10752 10751 10750 ] final   40.75 input  -60.55 | X-H torsion
[ 11005 11000 10999 10996 ] final   38.96 input  -57.11 | X-H torsion

> <Gold.Protein.ActiveResidues>
 VAL166  LYS551  ARG553  GLY616  TRP617  ASP618  TYR619  PRO620  LYS621  CYS622 
 ASP623  PHE694  ASN695  SER759  ASP760  ASP761  ALA762  ILE779  LEU786  VAL792 
 PHE793  MET794  SER795  GLU796  ALA797  LYS798  CYS799  TRP800  GLU811  SER814 

> <Gold.Protein.RotatedAtoms>
  150.8153  133.8349  159.3163 H   0  0  0  0  0  0  0  0  0  0  0  0  # atno 6907 bound_to 6896
  151.6123  135.1037  160.0093 H   0  0  0  0  0  0  0  0  0  0  0  0  # atno 6908 bound_to 6896
  152.4244  133.7130  159.6546 H   0  0  0  0  0  0  0  0  0  0  0  0  # atno 6909 bound_to 6896
  145.6284  140.9344  143.1100 H   0  0  0  0  0  0  0  0  0  0  0  0  # atno 7974 bound_to 7965
  154.7749  140.2808  155.6108 H   0  0  0  0  0  0  0  0  0  0  0  0  # atno 8008 bound_to 7997
  156.2940  140.2634  156.2489 H   0  0  0  0  0  0  0  0  0  0  0  0  # atno 8009 bound_to 7997
  154.9854  140.0374  157.2286 H   0  0  0  0  0  0  0  0  0  0  0  0  # atno 8010 bound_to 7997
  139.5127  144.6382  151.5640 H   0  0  0  0  0  0  0  0  0  0  0  0  # atno 10167 bound_to 10162
  156.6897  130.5061  149.5947 H   0  0  0  0  0  0  0  0  0  0  0  0  # atno 10718 bound_to 10713
  152.9927  135.6182  154.2676 H   0  0  0  0  0  0  0  0  0  0  0  0  # atno 10763 bound_to 10752
  154.2410  135.2788  155.2855 H   0  0  0  0  0  0  0  0  0  0  0  0  # atno 10764 bound_to 10752
  154.5369  135.5772  153.6864 H   0  0  0  0  0  0  0  0  0  0  0  0  # atno 10765 bound_to 10752
  140.2075  134.3795  155.8065 H   0  0  0  0  0  0  0  0  0  0  0  0  # atno 11005 bound_to 11000
  144.7203  139.8052  143.7384 LP  0  0  0  0  0  0  0  0  0  0  0  0  # atno 17320 bound_to 7965
  146.1376  139.4425  143.0129 LP  0  0  0  0  0  0  0  0  0  0  0  0  # atno 17321 bound_to 7965
  140.6139  143.9385  150.6474 LP  0  0  0  0  0  0  0  0  0  0  0  0  # atno 17342 bound_to 10162
  140.2637  143.3506  152.1300 LP  0  0  0  0  0  0  0  0  0  0  0  0  # atno 17343 bound_to 10162
  156.1807  130.6497  151.0948 LP  0  0  0  0  0  0  0  0  0  0  0  0  # atno 17370 bound_to 10713
  157.7013  131.0774  150.6809 LP  0  0  0  0  0  0  0  0  0  0  0  0  # atno 17371 bound_to 10713
  141.2227  133.7126  156.8362 LP  0  0  0  0  0  0  0  0  0  0  0  0  # atno 17394 bound_to 11000
  140.1987  134.8913  157.3144 LP  0  0  0  0  0  0  0  0  0  0  0  0  # atno 17395 bound_to 11000

$$$$
