AV-unprocessed.smi:3330|AV-procd|sdf|12803|dock8
  -GOLD-   2272019163D 1   1.00000     0.00000
 Structure written by MMmdl.
 39 40  0  0  0  0  0  0  0  0  2 V2000
  145.6229  136.9790  151.9779 C   0  0  0  0  0  0  0  0  0  0  0  0
  144.1904  136.4820  151.7105 C   0  0  2  0  0  0  0  0  0  0  0  0
  143.2432  137.3416  152.4560 N   0  3  0  0  0  0  0  0  0  0  0  0
  143.2276  137.1272  153.9169 C   0  0  0  0  0  0  0  0  0  0  0  0
  142.2911  138.1289  154.6087 C   0  0  0  0  0  0  0  0  0  0  0  0
  140.8895  137.8636  154.2754 N   0  0  0  0  0  0  0  0  0  0  0  0
  140.3504  136.6404  154.1948 C   0  0  0  0  0  0  0  0  0  0  0  0
  140.9139  135.5616  154.3743 O   0  0  0  0  0  0  0  0  0  0  0  0
  138.8840  136.7851  153.8502 C   0  0  0  0  0  0  0  0  0  0  0  0
  138.7986  138.2288  153.7903 N   0  0  0  0  0  0  0  0  0  0  0  0
  139.9721  138.8208  154.0464 C   0  0  0  0  0  0  0  0  0  0  0  0
  140.1648  140.0355  154.0729 O   0  0  0  0  0  0  0  0  0  0  0  0
  143.9862  134.9892  152.0879 C   0  0  1  0  0  0  0  0  0  0  0  0
  142.5095  134.6227  152.3307 C   0  0  0  0  0  0  0  0  0  0  0  0
  144.5646  134.0906  151.0966 N   0  0  0  0  0  0  0  0  0  0  0  0
  143.9090  133.2791  150.1935 C   0  0  0  0  0  0  0  0  0  0  0  0
  144.8610  132.6196  149.4704 C   0  0  0  0  0  0  0  0  0  0  0  0
  146.0872  133.1008  150.0074 C   0  0  0  0  0  0  0  0  0  0  0  0
  145.9075  133.9805  150.9789 N   0  0  0  0  0  0  0  0  0  0  0  0
  146.3564  136.4523  151.3672 H   0  0  0  0  0  0  0  0  0  0  0  0
  145.9010  136.8432  153.0235 H   0  0  0  0  0  0  0  0  0  0  0  0
  145.7183  138.0400  151.7444 H   0  0  0  0  0  0  0  0  0  0  0  0
  144.0091  136.5994  150.6404 H   0  0  0  0  0  0  0  0  0  0  0  0
  143.4730  138.3072  152.2692 H   0  0  0  0  0  0  0  0  0  0  0  0
  142.9039  136.1059  154.1231 H   0  0  0  0  0  0  0  0  0  0  0  0
  144.2395  137.2295  154.3103 H   0  0  0  0  0  0  0  0  0  0  0  0
  142.4275  138.0814  155.6908 H   0  0  0  0  0  0  0  0  0  0  0  0
  142.5565  139.1483  154.3223 H   0  0  0  0  0  0  0  0  0  0  0  0
  138.6479  136.3266  152.8894 H   0  0  0  0  0  0  0  0  0  0  0  0
  138.2435  136.3758  154.6322 H   0  0  0  0  0  0  0  0  0  0  0  0
  137.9408  138.7212  153.5862 H   0  0  0  0  0  0  0  0  0  0  0  0
  144.5231  134.8055  153.0200 H   0  0  0  0  0  0  0  0  0  0  0  0
  142.0963  135.1651  153.1811 H   0  0  0  0  0  0  0  0  0  0  0  0
  142.4018  133.5593  152.5475 H   0  0  0  0  0  0  0  0  0  0  0  0
  141.8921  134.8469  151.4603 H   0  0  0  0  0  0  0  0  0  0  0  0
  142.8309  133.2372  150.1417 H   0  0  0  0  0  0  0  0  0  0  0  0
  144.7056  131.9033  148.6774 H   0  0  0  0  0  0  0  0  0  0  0  0
  147.0954  132.8387  149.7216 H   0  0  0  0  0  0  0  0  0  0  0  0
  142.3128  137.1609  152.1071 H   0  0  0  0  0  0  0  0  0  0  0  0
  1  2  1  0  0  0  0
  1 20  1  0  0  0  0
  1 21  1  0  0  0  0
  1 22  1  0  0  0  0
  2  3  1  0  0  0  0
  2 13  1  0  0  0  0
  2 23  1  0  0  0  0
  3  4  1  0  0  0  0
  3 24  1  0  0  0  0
  3 39  1  0  0  0  0
  4  5  1  0  0  0  0
  4 25  1  0  0  0  0
  4 26  1  0  0  0  0
  5  6  1  0  0  0  0
  5 27  1  0  0  0  0
  5 28  1  0  0  0  0
  6 11  1  0  0  0  0
  6  7  1  0  0  0  0
  7  8  2  0  0  0  0
  7  9  1  0  0  0  0
  9 10  1  0  0  0  0
  9 29  1  0  0  0  0
  9 30  1  0  0  0  0
 10 11  1  0  0  0  0
 10 31  1  0  0  0  0
 11 12  2  0  0  0  0
 13 14  1  0  0  0  0
 13 15  1  0  0  0  0
 13 32  1  0  0  0  0
 14 33  1  0  0  0  0
 14 34  1  0  0  0  0
 14 35  1  0  0  0  0
 15 19  1  0  0  0  0
 15 16  1  0  0  0  0
 16 17  2  0  0  0  0
 16 36  1  0  0  0  0
 17 18  1  0  0  0  0
 17 37  1  0  0  0  0
 18 19  2  0  0  0  0
 18 38  1  0  0  0  0
M  CHG  1   3   1
M  END
> <s_m_source_file>
AV-unprocessed.smi

> <i_m_source_file_index>
3330

> <i_lp_mmshare_version>
43012

> <i_f3d_flags>
0

> <s_epik_input>
bjFbY0hdW2NIXVtjSF1uMVtDQEBIXShbQ0gzXSlbQ0BIXShbQ0gzXSlbTkhdW0NIMl1bQ0gyXU4yQyg9TylbQ0gyXVtOSF1DMj1P

> <s_epik_cmdline>
J2VwaWtfcHl0aG9uJywgJy1waCcsICc3LjAnLCAnLXRuJywgJzgnLCAnLW1hJywgJzIwMCcsICctbWV0YWxfYmluZGluZycsICctaW1hZScsICc8aW5maWxlLm1hZT4nLCAnLW9tYWUnLCAnPG91dGZpbGUubWFlPic=

> <r_lp_tautomer_probability>
1

> <r_epik_Ionization_Penalty>
0.0124905

> <r_epik_Ionization_Penalty_Charging>
0.0123685

> <r_epik_Ionization_Penalty_Neutral>
0.000122059

> <r_epik_State_Penalty>
0.00957041

> <r_epik_Charging_Adjusted_Penalty>
0.0219389

> <i_epik_Tot_Q>
1

> <i_epik_Tot_abs_Q>
1

> <r_epik_Metal_State_Penalty>
0.0858301

> <b_epik_Metal_Only>
0

> <s_lp_Force_Field>
OPLS_2005

> <r_lp_Energy>
25.3738

> <b_lp_Chiralities_Consistent>
1

> <s_lp_Variant>
AV-unprocessed.smi:3330-3

> <Gold.Version>
5.8.1

> <Gold.Id.Protein>
6NUR|6NUR_protein|mol2

> <Gold.PLP.Fitness>
43.7921

> <Gold.PLP.PLP>
-31.4475

> <Gold.PLP.part.hbond>
-3.0000

> <Gold.PLP.part.metal>
0.0000

> <Gold.PLP.part.buried>
-5.7087

> <Gold.PLP.part.nonpolar>
-24.1987

> <Gold.PLP.part.repulsive>
1.5668

> <Gold.PLP.ligand.clash>
0.0000

> <Gold.PLP.ligand.torsion>
1.0970

> <Gold.PLP.Chemscore.Hbond>
2.8320

> <Gold.PLP.Chemscore.CHOScore>
1.9821

> <Gold.PLP.Chemscore.Metal>
0.0000

> <Gold.Chemscore.Hbonds>
donor molecule, donor type, donor heavy atom, donor atom, acceptor molecule, acceptor atom, score
      L1  H     3    24       P1 10175  1.46
      P1  H 11000 11005       L1     8  0.90
      L1  C    16    36       P1 10186  1.00
      L1  C    18    38       P1 10747  0.41

> <Gold.PLP.Chemscore.Internal.Correction>
0.0962

> <Gold.Rescore>
     Score         DG    S(hbond)    S(metal)    S(lipo)     H(rot)  DE(clash)    DE(int)     intcor
      7.97      -9.94       1.47        0.00      54.51       2.67       0.06       1.91       ----

> <Gold.Chemscore.Fitness>
7.9683

> <Gold.Chemscore.DG>
-9.9396

> <Gold.Chemscore.ZeroCoef>
-5.4800

> <Gold.Chemscore.Hbond>
1.4695

> <Gold.Chemscore.Metal>
0.0000

> <Gold.Chemscore.Lipo>
54.5124

> <Gold.Chemscore.Internal_Hbond>
0.0000

> <Gold.Chemscore.DEClash>
0.0569

> <Gold.Chemscore.DEInternal>
1.9144

> <Gold.Chemscore.Rot>
2.6666

> <Gold.Chemscore.Internal.Correction>
   9.000000E+99

> <Gold.Chemscore.Hbonds>
donor molecule, donor type, donor heavy atom, donor atom, acceptor molecule, acceptor atom, score
      L1  H     3    24       P1 10175  0.73
      P1  H 11000 11005       L1     8  0.81

> <Gold.Chemscore.Hbond.Weighted>
-4.9081

> <Gold.Chemscore.Metal.Weighted>
-0.0000

> <Gold.Chemscore.Lipo.Weighted>
-6.3779

> <Gold.Chemscore.Internal_Hbond.Weighted>
0.0000

> <Gold.Chemscore.DEClash.Weighted>
0.0569

> <Gold.Chemscore.DEInternal.Weighted>
1.9144

> <Gold.Chemscore.Rot.Weighted>
6.8265

> <Gold.Chemscore.Internal.Correction.Weighted>
   9.000000E+99

> <Gold.Protein.RotatedTorsions>
[ 6907 6896 6895 6894 ] final  102.79 input  -60.11 | X-H torsion
[ 7974 7965 7964 7962 ] final   59.48 input  175.53 | X-H torsion
[ 8008 7997 7996 7995 ] final -176.67 input   59.86 | X-H torsion
[ 10167 10162 10161 10158 ] final  -51.68 input  -65.29 | X-H torsion
[ 10718 10713 10712 10709 ] final   -5.96 input   66.30 | X-H torsion
[ 10763 10752 10751 10750 ] final  -20.56 input  -60.55 | X-H torsion
[ 11005 11000 10999 10996 ] final   41.95 input  -57.11 | X-H torsion

> <Gold.Protein.ActiveResidues>
 VAL166  LYS551  ARG553  GLY616  TRP617  ASP618  TYR619  PRO620  LYS621  CYS622 
 ASP623  PHE694  ASN695  SER759  ASP760  ASP761  ALA762  ILE779  LEU786  VAL792 
 PHE793  MET794  SER795  GLU796  ALA797  LYS798  CYS799  TRP800  GLU811  SER814 

> <Gold.Protein.RotatedAtoms>
  152.5314  133.9923  159.7856 H   0  0  0  0  0  0  0  0  0  0  0  0  # atno 6907 bound_to 6896
  151.0157  133.5916  159.2684 H   0  0  0  0  0  0  0  0  0  0  0  0  # atno 6908 bound_to 6896
  151.2974  135.0766  159.9279 H   0  0  0  0  0  0  0  0  0  0  0  0  # atno 6909 bound_to 6896
  145.9067  139.3622  143.0560 H   0  0  0  0  0  0  0  0  0  0  0  0  # atno 7974 bound_to 7965
  155.9977  140.1214  157.0577 H   0  0  0  0  0  0  0  0  0  0  0  0  # atno 8008 bound_to 7997
  154.4232  140.1113  156.5722 H   0  0  0  0  0  0  0  0  0  0  0  0  # atno 8009 bound_to 7997
  155.6255  140.3472  155.4668 H   0  0  0  0  0  0  0  0  0  0  0  0  # atno 8010 bound_to 7997
  140.6576  143.2611  151.4539 H   0  0  0  0  0  0  0  0  0  0  0  0  # atno 10167 bound_to 10162
  156.7389  130.5203  149.5828 H   0  0  0  0  0  0  0  0  0  0  0  0  # atno 10718 bound_to 10713
  153.6224  135.6992  153.5305 H   0  0  0  0  0  0  0  0  0  0  0  0  # atno 10763 bound_to 10752
  153.2926  135.4152  155.1180 H   0  0  0  0  0  0  0  0  0  0  0  0  # atno 10764 bound_to 10752
  154.8540  135.3629  154.5765 H   0  0  0  0  0  0  0  0  0  0  0  0  # atno 10765 bound_to 10752
  140.1786  134.4133  155.8214 H   0  0  0  0  0  0  0  0  0  0  0  0  # atno 11005 bound_to 11000
  145.8723  140.9412  143.0644 LP  0  0  0  0  0  0  0  0  0  0  0  0  # atno 17320 bound_to 7965
  144.6740  140.0671  143.7474 LP  0  0  0  0  0  0  0  0  0  0  0  0  # atno 17321 bound_to 7965
  139.5802  144.1727  152.1958 LP  0  0  0  0  0  0  0  0  0  0  0  0  # atno 17342 bound_to 10162
  140.1050  144.5507  150.6963 LP  0  0  0  0  0  0  0  0  0  0  0  0  # atno 17343 bound_to 10162
  156.1478  130.6289  151.0555 LP  0  0  0  0  0  0  0  0  0  0  0  0  # atno 17370 bound_to 10713
  157.6827  131.0833  150.7327 LP  0  0  0  0  0  0  0  0  0  0  0  0  # atno 17371 bound_to 10713
  141.2222  133.6989  156.7890 LP  0  0  0  0  0  0  0  0  0  0  0  0  # atno 17394 bound_to 11000
  140.2294  134.8697  157.3461 LP  0  0  0  0  0  0  0  0  0  0  0  0  # atno 17395 bound_to 11000

$$$$
