AV-unprocessed.smi:252|AV-procd|sdf|1941|dock7
  -GOLD-   2262021 73D 1   1.00000     0.00000
 Structure written by MMmdl.
 56 59  0  0  0  0  0  0  0  0  1 V2000
  155.5014  139.5720  162.9013 C   0  0  0  0  0  0  0  0  0  0  0  0
  155.5892  140.1835  161.4941 C   0  0  0  0  0  0  0  0  0  0  0  0
  154.2676  140.1396  160.7199 C   0  0  0  0  0  0  0  0  0  0  0  0
  153.7242  139.0675  160.4510 O   0  0  0  0  0  0  0  0  0  0  0  0
  153.7603  141.3298  160.3643 N   0  0  0  0  0  0  0  0  0  0  0  0
  152.5196  141.5288  159.6224 C   0  0  1  0  0  0  0  0  0  0  0  0
  152.3822  143.0095  159.2225 C   0  0  0  0  0  0  0  0  0  0  0  0
  151.1276  143.2196  158.3599 C   0  0  0  0  0  0  0  0  0  0  0  0
  151.1336  142.2774  157.1454 C   0  0  0  0  0  0  0  0  0  0  0  0
  151.2933  140.8903  157.5724 N   0  0  0  0  0  0  0  0  0  0  0  0
  151.1003  139.9995  156.5772 C   0  0  0  0  0  0  0  0  0  0  0  0
  150.8411  140.4350  155.3159 N   0  0  0  0  0  0  0  0  0  0  0  0
  150.6486  139.5491  154.3333 C   0  0  0  0  0  0  0  0  0  0  0  0
  150.6726  138.2152  154.3934 N   0  0  0  0  0  0  0  0  0  0  0  0
  150.9324  137.7817  155.6605 C   0  0  0  0  0  0  0  0  0  0  0  0
  151.1547  138.6001  156.8022 C   0  0  0  0  0  0  0  0  0  0  0  0
  151.3842  137.8096  157.9213 N   0  0  0  0  0  0  0  0  0  0  0  0
  151.3008  136.5887  157.4662 C   0  0  0  0  0  0  0  0  0  0  0  0
  151.0333  136.4814  156.1199 N   0  0  0  0  0  0  0  0  0  0  0  0
  150.8849  135.2542  155.3544 C   0  0  0  0  0  0  0  0  0  0  0  0
  149.4078  134.8417  155.0615 C   0  0  1  0  0  0  0  0  0  0  0  0
  148.6621  135.9187  154.5098 O   0  0  0  0  0  0  0  0  0  0  0  0
  149.2837  133.6533  154.0945 C   0  0  0  0  0  0  0  0  0  0  0  0
  148.3878  132.6451  154.8165 C   0  0  0  0  0  0  0  0  0  0  0  0
  147.7327  133.4009  155.8202 O   0  0  0  0  0  0  0  0  0  0  0  0
  148.6817  134.3258  156.3237 C   0  0  2  0  0  0  0  0  0  0  0  0
  148.0176  135.3810  157.2232 C   0  0  0  0  0  0  0  0  0  0  0  0
  152.4877  140.6282  158.3710 C   0  0  0  0  0  0  0  0  0  0  0  0
  156.4635  139.6371  163.4097 H   0  0  0  0  0  0  0  0  0  0  0  0
  155.2211  138.5188  162.8606 H   0  0  0  0  0  0  0  0  0  0  0  0
  154.7682  140.0937  163.5175 H   0  0  0  0  0  0  0  0  0  0  0  0
  155.9143  141.2218  161.5683 H   0  0  0  0  0  0  0  0  0  0  0  0
  156.3496  139.6569  160.9161 H   0  0  0  0  0  0  0  0  0  0  0  0
  154.2737  142.1597  160.6233 H   0  0  0  0  0  0  0  0  0  0  0  0
  151.6747  141.2713  160.2644 H   0  0  0  0  0  0  0  0  0  0  0  0
  152.3329  143.6397  160.1113 H   0  0  0  0  0  0  0  0  0  0  0  0
  153.2629  143.3268  158.6621 H   0  0  0  0  0  0  0  0  0  0  0  0
  150.2365  143.0333  158.9609 H   0  0  0  0  0  0  0  0  0  0  0  0
  151.0680  144.2565  158.0288 H   0  0  0  0  0  0  0  0  0  0  0  0
  150.2038  142.3884  156.5856 H   0  0  0  0  0  0  0  0  0  0  0  0
  151.9481  142.5471  156.4711 H   0  0  0  0  0  0  0  0  0  0  0  0
  150.4466  139.9690  153.3590 H   0  0  0  0  0  0  0  0  0  0  0  0
  151.4305  135.7270  158.1045 H   0  0  0  0  0  0  0  0  0  0  0  0
  151.4523  135.3762  154.4319 H   0  0  0  0  0  0  0  0  0  0  0  0
  151.4041  134.4655  155.9002 H   0  0  0  0  0  0  0  0  0  0  0  0
  149.0434  136.1477  153.6759 H   0  0  0  0  0  0  0  0  0  0  0  0
  148.8357  133.9525  153.1455 H   0  0  0  0  0  0  0  0  0  0  0  0
  150.2398  133.1886  153.8532 H   0  0  0  0  0  0  0  0  0  0  0  0
  147.6732  132.1626  154.1495 H   0  0  0  0  0  0  0  0  0  0  0  0
  148.9894  131.8683  155.2907 H   0  0  0  0  0  0  0  0  0  0  0  0
  149.3808  133.7486  156.9323 H   0  0  0  0  0  0  0  0  0  0  0  0
  148.7463  136.1142  157.5697 H   0  0  0  0  0  0  0  0  0  0  0  0
  147.5752  134.9124  158.1023 H   0  0  0  0  0  0  0  0  0  0  0  0
  147.2218  135.9157  156.7045 H   0  0  0  0  0  0  0  0  0  0  0  0
  153.3761  140.8053  157.7630 H   0  0  0  0  0  0  0  0  0  0  0  0
  152.5061  139.5775  158.6649 H   0  0  0  0  0  0  0  0  0  0  0  0
  1  2  1  0  0  0  0
  1 29  1  0  0  0  0
  1 30  1  0  0  0  0
  1 31  1  0  0  0  0
  2  3  1  0  0  0  0
  2 32  1  0  0  0  0
  2 33  1  0  0  0  0
  3  4  2  0  0  0  0
  3  5  1  0  0  0  0
  5  6  1  0  0  0  0
  5 34  1  0  0  0  0
  6 28  1  0  0  0  0
  6  7  1  0  0  0  0
  6 35  1  0  0  0  0
  7  8  1  0  0  0  0
  7 36  1  0  0  0  0
  7 37  1  0  0  0  0
  8  9  1  0  0  0  0
  8 38  1  0  0  0  0
  8 39  1  0  0  0  0
  9 10  1  0  0  0  0
  9 40  1  0  0  0  0
  9 41  1  0  0  0  0
 10 11  1  0  0  0  0
 10 28  1  0  0  0  0
 11 16  1  0  0  0  0
 11 12  2  0  0  0  0
 12 13  1  0  0  0  0
 13 14  2  0  0  0  0
 13 42  1  0  0  0  0
 14 15  1  0  0  0  0
 15 19  1  0  0  0  0
 15 16  2  0  0  0  0
 16 17  1  0  0  0  0
 17 18  2  0  0  0  0
 18 19  1  0  0  0  0
 18 43  1  0  0  0  0
 19 20  1  0  0  0  0
 20 21  1  0  0  0  0
 20 44  1  0  0  0  0
 20 45  1  0  0  0  0
 21 26  1  0  0  0  0
 21 22  1  0  0  0  0
 21 23  1  0  0  0  0
 22 46  1  0  0  0  0
 23 24  1  0  0  0  0
 23 47  1  0  0  0  0
 23 48  1  0  0  0  0
 24 25  1  0  0  0  0
 24 49  1  0  0  0  0
 24 50  1  0  0  0  0
 25 26  1  0  0  0  0
 26 27  1  0  0  0  0
 26 51  1  0  0  0  0
 27 52  1  0  0  0  0
 27 53  1  0  0  0  0
 27 54  1  0  0  0  0
 28 55  1  0  0  0  0
 28 56  1  0  0  0  0
M  END
> <s_m_source_file>
AV-unprocessed.smi

> <i_m_source_file_index>
252

> <i_lp_mmshare_version>
43012

> <i_f3d_flags>
0

> <s_epik_input>
W0NIM11bQ0gyXUMoPU8pW05IXVtDQEBIXTFbQ0gyXVtDSDJdW0NIMl1OKFtDSDJdMSljKG5bY0hdbjIpYyhjMjMpbltjSF1uM1tDSDJdW0NAQF00KFtPSF0pW0NIMl1bQ0gyXU9bQ0BIXTRbQ0gzXQ==

> <s_epik_cmdline>
J2VwaWtfcHl0aG9uJywgJy1waCcsICc3LjAnLCAnLXRuJywgJzgnLCAnLW1hJywgJzIwMCcsICctbWV0YWxfYmluZGluZycsICctaW1hZScsICc8aW5maWxlLm1hZT4nLCAnLW9tYWUnLCAnPG91dGZpbGUubWFlPic=

> <r_lp_tautomer_probability>
1

> <r_epik_Ionization_Penalty>
0.00182575

> <r_epik_Ionization_Penalty_Charging>
0

> <r_epik_Ionization_Penalty_Neutral>
0.00182575

> <r_epik_State_Penalty>
0.00104524

> <r_epik_Charging_Adjusted_Penalty>
0.00104524

> <i_epik_Tot_Q>
0

> <i_epik_Tot_abs_Q>
0

> <r_epik_Metal_State_Penalty>
-0

> <b_epik_Metal_Only>
0

> <s_lp_Force_Field>
OPLS_2005

> <r_lp_Energy>
42.5457

> <b_lp_Chiralities_Consistent>
1

> <s_lp_Variant>
AV-unprocessed.smi:252-6

> <Gold.Version>
5.8.1

> <Gold.Id.Protein>
6NUR|6NUR_protein|mol2

> <Gold.PLP.Fitness>
40.2303

> <Gold.PLP.PLP>
-35.1063

> <Gold.PLP.part.hbond>
-2.0000

> <Gold.PLP.part.metal>
0.0000

> <Gold.PLP.part.buried>
-2.4916

> <Gold.PLP.part.nonpolar>
-30.4955

> <Gold.PLP.part.repulsive>
0.2927

> <Gold.PLP.ligand.clash>
0.0000

> <Gold.PLP.ligand.torsion>
0.5429

> <Gold.PLP.Chemscore.Hbond>
1.0000

> <Gold.PLP.Chemscore.CHOScore>
1.0000

> <Gold.PLP.Chemscore.Metal>
0.0000

> <Gold.Chemscore.Hbonds>
donor molecule, donor type, donor heavy atom, donor atom, acceptor molecule, acceptor atom, score
      L1  H    22    46       P1  7948  1.00
      L1  C    13    42       P1  7957  1.00

> <Gold.PLP.Chemscore.Internal.Correction>
0.2097

> <Gold.Rescore>
     Score         DG    S(hbond)    S(metal)    S(lipo)     H(rot)  DE(clash)    DE(int)     intcor
      9.62     -11.94       1.00        0.00      85.95       2.70       0.28       2.03       ----

> <Gold.Chemscore.Fitness>
9.6209

> <Gold.Chemscore.DG>
-11.9373

> <Gold.Chemscore.ZeroCoef>
-5.4800

> <Gold.Chemscore.Hbond>
0.9953

> <Gold.Chemscore.Metal>
0.0000

> <Gold.Chemscore.Lipo>
85.9450

> <Gold.Chemscore.Internal_Hbond>
0.0000

> <Gold.Chemscore.DEClash>
0.2841

> <Gold.Chemscore.DEInternal>
2.0323

> <Gold.Chemscore.Rot>
2.7041

> <Gold.Chemscore.Internal.Correction>
   9.000000E+99

> <Gold.Chemscore.Hbonds>
donor molecule, donor type, donor heavy atom, donor atom, acceptor molecule, acceptor atom, score
      L1  H    22    46       P1  7948  0.93

> <Gold.Chemscore.Hbond.Weighted>
-3.3242

> <Gold.Chemscore.Metal.Weighted>
-0.0000

> <Gold.Chemscore.Lipo.Weighted>
-10.0556

> <Gold.Chemscore.Internal_Hbond.Weighted>
0.0000

> <Gold.Chemscore.DEClash.Weighted>
0.2841

> <Gold.Chemscore.DEInternal.Weighted>
2.0323

> <Gold.Chemscore.Rot.Weighted>
6.9225

> <Gold.Chemscore.Internal.Correction.Weighted>
   9.000000E+99

> <Gold.Protein.RotatedTorsions>
[ 6907 6896 6895 6894 ] final  155.56 input  -60.11 | X-H torsion
[ 7974 7965 7964 7962 ] final  101.33 input  175.53 | X-H torsion
[ 8008 7997 7996 7995 ] final -108.45 input   59.86 | X-H torsion
[ 10167 10162 10161 10158 ] final  177.07 input  -65.29 | X-H torsion
[ 10718 10713 10712 10709 ] final   40.26 input   66.30 | X-H torsion
[ 10763 10752 10751 10750 ] final -122.31 input  -60.55 | X-H torsion
[ 11005 11000 10999 10996 ] final  -79.79 input  -57.11 | X-H torsion

> <Gold.Protein.ActiveResidues>
 VAL166  LYS551  ARG553  GLY616  TRP617  ASP618  TYR619  PRO620  LYS621  CYS622 
 ASP623  PHE694  ASN695  SER759  ASP760  ASP761  ALA762  ILE779  LEU786  VAL792 
 PHE793  MET794  SER795  GLU796  ALA797  LYS798  CYS799  TRP800  GLU811  SER814 

> <Gold.Protein.RotatedAtoms>
  152.0424  133.3983  159.4341 H   0  0  0  0  0  0  0  0  0  0  0  0  # atno 6907 bound_to 6896
  150.6875  134.3400  159.4873 H   0  0  0  0  0  0  0  0  0  0  0  0  # atno 6908 bound_to 6896
  152.1200  134.9212  160.0614 H   0  0  0  0  0  0  0  0  0  0  0  0  # atno 6909 bound_to 6896
  145.3738  139.2393  143.3440 H   0  0  0  0  0  0  0  0  0  0  0  0  # atno 7974 bound_to 7965
  154.9444  140.0402  157.2113 H   0  0  0  0  0  0  0  0  0  0  0  0  # atno 8008 bound_to 7997
  154.8038  140.2856  155.5880 H   0  0  0  0  0  0  0  0  0  0  0  0  # atno 8009 bound_to 7997
  156.2964  140.2550  156.2911 H   0  0  0  0  0  0  0  0  0  0  0  0  # atno 8010 bound_to 7997
  139.5239  144.2841  152.0521 H   0  0  0  0  0  0  0  0  0  0  0  0  # atno 10167 bound_to 10162
  157.3800  130.7748  149.7186 H   0  0  0  0  0  0  0  0  0  0  0  0  # atno 10718 bound_to 10713
  154.8687  135.4137  154.2760 H   0  0  0  0  0  0  0  0  0  0  0  0  # atno 10763 bound_to 10752
  153.3662  135.7005  153.6679 H   0  0  0  0  0  0  0  0  0  0  0  0  # atno 10764 bound_to 10752
  153.5560  135.3619  155.2751 H   0  0  0  0  0  0  0  0  0  0  0  0  # atno 10765 bound_to 10752
  141.1667  133.7121  156.8175 H   0  0  0  0  0  0  0  0  0  0  0  0  # atno 11005 bound_to 11000
  146.2873  140.4394  142.8753 LP  0  0  0  0  0  0  0  0  0  0  0  0  # atno 17320 bound_to 7965
  144.8557  140.7066  143.6140 LP  0  0  0  0  0  0  0  0  0  0  0  0  # atno 17321 bound_to 7965
  140.2295  144.4383  150.6306 LP  0  0  0  0  0  0  0  0  0  0  0  0  # atno 17342 bound_to 10162
  140.6365  143.2196  151.6384 LP  0  0  0  0  0  0  0  0  0  0  0  0  # atno 17343 bound_to 10162
  155.9774  130.4064  150.3717 LP  0  0  0  0  0  0  0  0  0  0  0  0  # atno 17370 bound_to 10713
  157.1819  131.0394  151.2744 LP  0  0  0  0  0  0  0  0  0  0  0  0  # atno 17371 bound_to 10713
  140.2143  134.8804  157.3309 LP  0  0  0  0  0  0  0  0  0  0  0  0  # atno 17394 bound_to 11000
  140.2054  134.4204  155.7640 LP  0  0  0  0  0  0  0  0  0  0  0  0  # atno 17395 bound_to 11000

$$$$
