AV-unprocessed.smi:1401|AV-procd|sdf|5689|dock4
  -GOLD-   22720 5313D 1   1.00000     0.00000
 Structure written by MMmdl.
 48 50  0  0  0  0  0  0  0  0  1 V2000
  152.8588  137.1173  162.9638 C   0  0  0  0  0  0  0  0  0  0  0  0
  153.0825  136.7818  161.5143 C   0  0  0  0  0  0  0  0  0  0  0  0
  152.2812  137.3305  160.6620 N   0  0  0  0  0  0  0  0  0  0  0  0
  152.3806  137.0717  159.3078 N   0  0  0  0  0  0  0  0  0  0  0  0
  151.3138  137.6988  158.5082 C   0  0  0  0  0  0  0  0  0  0  0  0
  151.7345  139.0188  157.8375 C   0  0  0  0  0  0  0  0  0  0  0  0
  152.7832  139.0641  157.1957 O   0  0  0  0  0  0  0  0  0  0  0  0
  150.9442  140.0888  158.0243 N   0  0  0  0  0  0  0  0  0  0  0  0
  151.2429  141.4659  157.6517 C   0  0  1  0  0  0  0  0  0  0  0  0
  150.4952  141.8453  156.3620 C   0  0  0  0  0  0  0  0  0  0  0  0
  150.8727  142.3975  158.8307 C   0  0  2  0  0  0  0  0  0  0  0  0
  150.2582  143.7529  158.4173 C   0  0  0  0  0  0  0  0  0  0  0  0
  151.0958  144.7697  159.2167 C   0  0  2  0  0  0  0  0  0  0  0  0
  152.4965  144.8792  158.5855 C   0  0  0  0  0  0  0  0  0  0  0  0
  153.1540  143.5461  158.9866 C   0  0  0  0  0  0  0  0  0  0  0  0
  152.0300  142.8344  159.7661 C   0  0  1  0  0  0  0  0  0  0  0  0
  151.3904  144.0062  160.5026 C   0  0  0  0  0  0  0  0  0  0  0  0
  153.3143  136.2535  158.7416 C   0  0  0  0  0  0  0  0  0  0  0  0
  153.3566  136.0347  157.5303 O   0  0  0  0  0  0  0  0  0  0  0  0
  154.2296  135.6481  159.7119 C   0  0  0  0  0  0  0  0  0  0  0  0
  155.2213  134.7814  159.1616 C   0  0  0  0  0  0  0  0  0  0  0  0
  156.0215  134.0648  158.7303 N   0  0  0  0  0  0  0  0  0  0  0  0
  154.1319  135.8842  161.0443 C   0  0  0  0  0  0  0  0  0  0  0  0
  155.0454  135.2675  162.0945 C   0  0  0  0  0  0  0  0  0  0  0  0
  153.7382  137.6006  163.3899 H   0  0  0  0  0  0  0  0  0  0  0  0
  152.6531  136.2157  163.5412 H   0  0  0  0  0  0  0  0  0  0  0  0
  152.0124  137.7926  163.0992 H   0  0  0  0  0  0  0  0  0  0  0  0
  150.9968  137.0050  157.7273 H   0  0  0  0  0  0  0  0  0  0  0  0
  150.4212  137.8824  159.1081 H   0  0  0  0  0  0  0  0  0  0  0  0
  150.0955  139.9464  158.5522 H   0  0  0  0  0  0  0  0  0  0  0  0
  152.3143  141.5468  157.4615 H   0  0  0  0  0  0  0  0  0  0  0  0
  150.7154  142.8712  156.0662 H   0  0  0  0  0  0  0  0  0  0  0  0
  149.4155  141.7608  156.4891 H   0  0  0  0  0  0  0  0  0  0  0  0
  150.7831  141.1996  155.5321 H   0  0  0  0  0  0  0  0  0  0  0  0
  150.1462  141.8709  159.4526 H   0  0  0  0  0  0  0  0  0  0  0  0
  150.3139  143.9390  157.3441 H   0  0  0  0  0  0  0  0  0  0  0  0
  149.2072  143.7982  158.7052 H   0  0  0  0  0  0  0  0  0  0  0  0
  150.6018  145.7321  159.3532 H   0  0  0  0  0  0  0  0  0  0  0  0
  152.4540  145.0135  157.5039 H   0  0  0  0  0  0  0  0  0  0  0  0
  153.0495  145.7202  159.0057 H   0  0  0  0  0  0  0  0  0  0  0  0
  153.5132  142.9770  158.1298 H   0  0  0  0  0  0  0  0  0  0  0  0
  154.0110  143.7267  159.6368 H   0  0  0  0  0  0  0  0  0  0  0  0
  152.3885  142.0383  160.4191 H   0  0  0  0  0  0  0  0  0  0  0  0
  152.0798  144.5280  161.1688 H   0  0  0  0  0  0  0  0  0  0  0  0
  150.4926  143.7325  161.0599 H   0  0  0  0  0  0  0  0  0  0  0  0
  155.8092  134.6272  161.6538 H   0  0  0  0  0  0  0  0  0  0  0  0
  154.4681  134.6574  162.7905 H   0  0  0  0  0  0  0  0  0  0  0  0
  155.5582  136.0453  162.6613 H   0  0  0  0  0  0  0  0  0  0  0  0
  1  2  1  0  0  0  0
  1 25  1  0  0  0  0
  1 26  1  0  0  0  0
  1 27  1  0  0  0  0
  2 23  1  0  0  0  0
  2  3  2  0  0  0  0
  3  4  1  0  0  0  0
  4  5  1  0  0  0  0
  4 18  1  0  0  0  0
  5  6  1  0  0  0  0
  5 28  1  0  0  0  0
  5 29  1  0  0  0  0
  6  7  2  0  0  0  0
  6  8  1  0  0  0  0
  8  9  1  0  0  0  0
  8 30  1  0  0  0  0
  9 10  1  0  0  0  0
  9 11  1  0  0  0  0
  9 31  1  0  0  0  0
 10 32  1  0  0  0  0
 10 33  1  0  0  0  0
 10 34  1  0  0  0  0
 11 16  1  0  0  0  0
 11 12  1  0  0  0  0
 11 35  1  0  0  0  0
 12 13  1  0  0  0  0
 12 36  1  0  0  0  0
 12 37  1  0  0  0  0
 13 17  1  0  0  0  0
 13 14  1  0  0  0  0
 13 38  1  0  0  0  0
 14 15  1  0  0  0  0
 14 39  1  0  0  0  0
 14 40  1  0  0  0  0
 15 16  1  0  0  0  0
 15 41  1  0  0  0  0
 15 42  1  0  0  0  0
 16 17  1  0  0  0  0
 16 43  1  0  0  0  0
 17 44  1  0  0  0  0
 17 45  1  0  0  0  0
 18 19  2  0  0  0  0
 18 20  1  0  0  0  0
 20 21  1  0  0  0  0
 20 23  2  0  0  0  0
 21 22  3  0  0  0  0
 23 24  1  0  0  0  0
 24 46  1  0  0  0  0
 24 47  1  0  0  0  0
 24 48  1  0  0  0  0
M  END
> <s_m_source_file>
AV-unprocessed.smi

> <i_m_source_file_index>
1401

> <i_lp_mmshare_version>
43012

> <i_f3d_flags>
0

> <s_epik_input>
TiNDYyhjMVtDSDNdKWMoPU8pbihuYzFbQ0gzXSlbQ0gyXUMoPU8pW05IXVtDQEhdKFtDSDNdKVtDQEhdKFtDSDJdW0NASF0yMylbQ0BIXShbQ0gyXTMpW0NIMl1bQ0gyXTI=

> <s_epik_cmdline>
J2VwaWtfcHl0aG9uJywgJy1waCcsICc3LjAnLCAnLXRuJywgJzgnLCAnLW1hJywgJzIwMCcsICctbWV0YWxfYmluZGluZycsICctaW1hZScsICc8aW5maWxlLm1hZT4nLCAnLW9tYWUnLCAnPG91dGZpbGUubWFlPic=

> <r_lp_tautomer_probability>
1

> <r_epik_Ionization_Penalty>
2.16501e-08

> <r_epik_Ionization_Penalty_Charging>
2.29436e-11

> <r_epik_Ionization_Penalty_Neutral>
2.16271e-08

> <r_epik_State_Penalty>
-0

> <r_epik_Charging_Adjusted_Penalty>
2.29436e-11

> <i_epik_Tot_Q>
0

> <i_epik_Tot_abs_Q>
0

> <r_epik_Metal_State_Penalty>
-0

> <b_epik_Metal_Only>
0

> <s_lp_Force_Field>
OPLS_2005

> <r_lp_Energy>
65.4856

> <b_lp_Chiralities_Consistent>
1

> <s_lp_Variant>
AV-unprocessed.smi:1401-2

> <Gold.Version>
5.8.1

> <Gold.Id.Protein>
6NUR|6NUR_protein|mol2

> <Gold.PLP.Fitness>
44.3084

> <Gold.PLP.PLP>
-41.6862

> <Gold.PLP.part.hbond>
-2.0000

> <Gold.PLP.part.metal>
0.0000

> <Gold.PLP.part.buried>
-6.4135

> <Gold.PLP.part.nonpolar>
-32.9051

> <Gold.PLP.part.repulsive>
0.0971

> <Gold.PLP.ligand.clash>
0.0000

> <Gold.PLP.ligand.torsion>
1.7085

> <Gold.PLP.Chemscore.Hbond>
2.0000

> <Gold.PLP.Chemscore.CHOScore>
0.0000

> <Gold.PLP.Chemscore.Metal>
0.0000

> <Gold.Chemscore.Hbonds>
donor molecule, donor type, donor heavy atom, donor atom, acceptor molecule, acceptor atom, score
      P1  H  7997  8008       L1     7  1.00
      P1  H 10752 10763       L1    19  0.36

> <Gold.PLP.Chemscore.Internal.Correction>
0.0393

> <Gold.Rescore>
     Score         DG    S(hbond)    S(metal)    S(lipo)     H(rot)  DE(clash)    DE(int)     intcor
     20.22     -21.70       1.98        0.00     117.84       1.63       0.00       1.48       ----

> <Gold.Chemscore.Fitness>
20.2169

> <Gold.Chemscore.DG>
-21.6996

> <Gold.Chemscore.ZeroCoef>
-5.4800

> <Gold.Chemscore.Hbond>
1.9760

> <Gold.Chemscore.Metal>
0.0000

> <Gold.Chemscore.Lipo>
117.8439

> <Gold.Chemscore.Internal_Hbond>
0.0000

> <Gold.Chemscore.DEClash>
0.0038

> <Gold.Chemscore.DEInternal>
1.4789

> <Gold.Chemscore.Rot>
1.6281

> <Gold.Chemscore.Internal.Correction>
   9.000000E+99

> <Gold.Chemscore.Hbonds>
donor molecule, donor type, donor heavy atom, donor atom, acceptor molecule, acceptor atom, score
      P1  H  7997  8008       L1     7  0.98
      P1  H 10752 10763       L1    19  0.37

> <Gold.Chemscore.Hbond.Weighted>
-6.5997

> <Gold.Chemscore.Metal.Weighted>
-0.0000

> <Gold.Chemscore.Lipo.Weighted>
-13.7877

> <Gold.Chemscore.Internal_Hbond.Weighted>
0.0000

> <Gold.Chemscore.DEClash.Weighted>
0.0038

> <Gold.Chemscore.DEInternal.Weighted>
1.4789

> <Gold.Chemscore.Rot.Weighted>
4.1678

> <Gold.Chemscore.Internal.Correction.Weighted>
   9.000000E+99

> <Gold.Protein.RotatedTorsions>
[ 6907 6896 6895 6894 ] final  -92.58 input  -60.11 | X-H torsion
[ 7974 7965 7964 7962 ] final -172.11 input  175.53 | X-H torsion
[ 8008 7997 7996 7995 ] final  -66.98 input   59.86 | X-H torsion
[ 10167 10162 10161 10158 ] final -164.19 input  -65.29 | X-H torsion
[ 10718 10713 10712 10709 ] final -140.37 input   66.30 | X-H torsion
[ 10763 10752 10751 10750 ] final  135.59 input  -60.55 | X-H torsion
[ 11005 11000 10999 10996 ] final  -74.41 input  -57.11 | X-H torsion

> <Gold.Protein.ActiveResidues>
 VAL166  LYS551  ARG553  GLY616  TRP617  ASP618  TYR619  PRO620  LYS621  CYS622 
 ASP623  PHE694  ASN695  SER759  ASP760  ASP761  ALA762  ILE779  LEU786  VAL792 
 PHE793  MET794  SER795  GLU796  ALA797  LYS798  CYS799  TRP800  GLU811  SER814 

> <Gold.Protein.RotatedAtoms>
  150.6908  134.2100  159.4355 H   0  0  0  0  0  0  0  0  0  0  0  0  # atno 6907 bound_to 6896
  152.0062  134.9899  160.0576 H   0  0  0  0  0  0  0  0  0  0  0  0  # atno 6908 bound_to 6896
  152.1532  133.4500  159.4861 H   0  0  0  0  0  0  0  0  0  0  0  0  # atno 6909 bound_to 6896
  144.7149  140.1821  143.6357 H   0  0  0  0  0  0  0  0  0  0  0  0  # atno 7974 bound_to 7965
  154.4769  140.0902  156.7285 H   0  0  0  0  0  0  0  0  0  0  0  0  # atno 8008 bound_to 7997
  155.4572  140.3459  155.4290 H   0  0  0  0  0  0  0  0  0  0  0  0  # atno 8009 bound_to 7997
  156.1131  140.1453  156.9299 H   0  0  0  0  0  0  0  0  0  0  0  0  # atno 8010 bound_to 7997
  139.6267  144.0518  152.1981 H   0  0  0  0  0  0  0  0  0  0  0  0  # atno 10167 bound_to 10162
  156.3215  130.7537  151.1635 H   0  0  0  0  0  0  0  0  0  0  0  0  # atno 10718 bound_to 10713
  153.8425  135.3089  155.3427 H   0  0  0  0  0  0  0  0  0  0  0  0  # atno 10763 bound_to 10752
  154.7926  135.4774  154.0091 H   0  0  0  0  0  0  0  0  0  0  0  0  # atno 10764 bound_to 10752
  153.1567  135.6853  153.8894 H   0  0  0  0  0  0  0  0  0  0  0  0  # atno 10765 bound_to 10752
  141.1635  133.6910  156.7360 H   0  0  0  0  0  0  0  0  0  0  0  0  # atno 11005 bound_to 11000
  145.8846  139.2342  143.1585 LP  0  0  0  0  0  0  0  0  0  0  0  0  # atno 17320 bound_to 7965
  145.9962  140.8560  143.0042 LP  0  0  0  0  0  0  0  0  0  0  0  0  # atno 17321 bound_to 7965
  140.0173  144.6179  150.7596 LP  0  0  0  0  0  0  0  0  0  0  0  0  # atno 17342 bound_to 10162
  140.7415  143.2819  151.3573 LP  0  0  0  0  0  0  0  0  0  0  0  0  # atno 17343 bound_to 10162
  157.7413  131.0506  150.5109 LP  0  0  0  0  0  0  0  0  0  0  0  0  # atno 17370 bound_to 10713
  156.5262  130.4173  149.6225 LP  0  0  0  0  0  0  0  0  0  0  0  0  # atno 17371 bound_to 10713
  140.2709  134.8392  157.3846 LP  0  0  0  0  0  0  0  0  0  0  0  0  # atno 17394 bound_to 11000
  140.1522  134.4835  155.7953 LP  0  0  0  0  0  0  0  0  0  0  0  0  # atno 17395 bound_to 11000

$$$$
