AV-unprocessed.smi:809|AV-procd|sdf|3806|dock2
  -GOLD-   22720 1243D 1   1.00000     0.00000
 Structure written by MMmdl.
 40 41  0  0  0  0  0  0  0  0  2 V2000
  146.2783  130.3328  151.7592 C   0  0  0  0  0  0  0  0  0  0  0  0
  147.3251  130.9058  152.6618 C   0  0  0  0  0  0  0  0  0  0  0  0
  148.0935  130.2247  153.5743 C   0  0  0  0  0  0  0  0  0  0  0  0
  149.1943  131.2801  154.4194 S   0  0  0  0  0  0  0  0  0  0  0  0
  148.5571  132.6261  153.4878 C   0  0  0  0  0  0  0  0  0  0  0  0
  149.0368  133.9516  153.6564 N   0  0  0  0  0  0  0  0  0  0  0  0
  149.7332  134.4558  154.6899 C   0  0  0  0  0  0  0  0  0  0  0  0
  150.0930  133.8207  155.6817 O   0  0  0  0  0  0  0  0  0  0  0  0
  149.9876  135.7605  154.5139 N   0  0  0  0  0  0  0  0  0  0  0  0
  150.7106  136.6237  155.4464 C   0  0  0  0  0  0  0  0  0  0  0  0
  151.5096  137.7500  154.7376 C   0  0  1  0  0  0  0  0  0  0  0  0
  152.3082  137.1169  153.7557 O   0  0  0  0  0  0  0  0  0  0  0  0
  150.6489  138.8315  154.0435 C   0  0  0  0  0  0  0  0  0  0  0  0
  149.9493  139.7509  155.0602 C   0  0  0  0  0  0  0  0  0  0  0  0
  150.9361  140.3920  155.9634 N   0  3  1  0  0  0  0  0  0  0  0  0
  150.3095  141.3732  156.8751 C   0  0  0  0  0  0  0  0  0  0  0  0
  151.7613  139.3948  156.6891 C   0  0  0  0  0  0  0  0  0  0  0  0
  152.4845  138.4501  155.7096 C   0  0  0  0  0  0  0  0  0  0  0  0
  147.5992  132.2759  152.6218 N   0  0  0  0  0  0  0  0  0  0  0  0
  146.2760  129.2431  151.7929 H   0  0  0  0  0  0  0  0  0  0  0  0
  146.4450  130.6293  150.7234 H   0  0  0  0  0  0  0  0  0  0  0  0
  145.2833  130.6740  152.0455 H   0  0  0  0  0  0  0  0  0  0  0  0
  148.0790  129.1686  153.7993 H   0  0  0  0  0  0  0  0  0  0  0  0
  148.8165  134.5910  152.9070 H   0  0  0  0  0  0  0  0  0  0  0  0
  149.6517  136.1984  153.6682 H   0  0  0  0  0  0  0  0  0  0  0  0
  150.0146  137.0465  156.1708 H   0  0  0  0  0  0  0  0  0  0  0  0
  151.3859  135.9971  156.0308 H   0  0  0  0  0  0  0  0  0  0  0  0
  151.7428  136.7479  153.0946 H   0  0  0  0  0  0  0  0  0  0  0  0
  151.2868  139.4481  153.4081 H   0  0  0  0  0  0  0  0  0  0  0  0
  149.9150  138.3857  153.3721 H   0  0  0  0  0  0  0  0  0  0  0  0
  149.3925  140.5214  154.5254 H   0  0  0  0  0  0  0  0  0  0  0  0
  149.2237  139.1924  155.6512 H   0  0  0  0  0  0  0  0  0  0  0  0
  149.6111  140.8849  157.5562 H   0  0  0  0  0  0  0  0  0  0  0  0
  149.7641  142.1306  156.3109 H   0  0  0  0  0  0  0  0  0  0  0  0
  151.0672  141.8842  157.4700 H   0  0  0  0  0  0  0  0  0  0  0  0
  152.5009  139.9147  157.2992 H   0  0  0  0  0  0  0  0  0  0  0  0
  151.1329  138.8304  157.3787 H   0  0  0  0  0  0  0  0  0  0  0  0
  153.0629  137.7113  156.2661 H   0  0  0  0  0  0  0  0  0  0  0  0
  153.2099  139.0358  155.1426 H   0  0  0  0  0  0  0  0  0  0  0  0
  151.5680  140.9139  155.3731 H   0  0  0  0  0  0  0  0  0  0  0  0
  1  2  1  0  0  0  0
  1 20  1  0  0  0  0
  1 21  1  0  0  0  0
  1 22  1  0  0  0  0
  2 19  1  0  0  0  0
  2  3  2  0  0  0  0
  3  4  1  0  0  0  0
  3 23  1  0  0  0  0
  4  5  1  0  0  0  0
  5  6  1  0  0  0  0
  5 19  2  0  0  0  0
  6  7  1  0  0  0  0
  6 24  1  0  0  0  0
  7  8  2  0  0  0  0
  7  9  1  0  0  0  0
  9 10  1  0  0  0  0
  9 25  1  0  0  0  0
 10 11  1  0  0  0  0
 10 26  1  0  0  0  0
 10 27  1  0  0  0  0
 11 18  1  0  0  0  0
 11 12  1  0  0  0  0
 11 13  1  0  0  0  0
 12 28  1  0  0  0  0
 13 14  1  0  0  0  0
 13 29  1  0  0  0  0
 13 30  1  0  0  0  0
 14 15  1  0  0  0  0
 14 31  1  0  0  0  0
 14 32  1  0  0  0  0
 15 16  1  0  0  0  0
 15 17  1  0  0  0  0
 15 40  1  0  0  0  0
 16 33  1  0  0  0  0
 16 34  1  0  0  0  0
 16 35  1  0  0  0  0
 17 18  1  0  0  0  0
 17 36  1  0  0  0  0
 17 37  1  0  0  0  0
 18 38  1  0  0  0  0
 18 39  1  0  0  0  0
M  CHG  1  15   1
M  END
> <s_m_source_file>
AV-unprocessed.smi

> <i_m_source_file_index>
809

> <i_lp_mmshare_version>
43012

> <i_f3d_flags>
0

> <s_epik_input>
W0NIM11jMVtjSF1zYyhuMSlbTkhdQyg9TylbTkhdW0NIMl1DMihbT0hdKVtDSDJdW0NIMl1OKFtDSDNdKVtDSDJdW0NIMl0y

> <s_epik_cmdline>
J2VwaWtfcHl0aG9uJywgJy1waCcsICc3LjAnLCAnLXRuJywgJzgnLCAnLW1hJywgJzIwMCcsICctbWV0YWxfYmluZGluZycsICctaW1hZScsICc8aW5maWxlLm1hZT4nLCAnLW9tYWUnLCAnPG91dGZpbGUubWFlPic=

> <r_lp_tautomer_probability>
0.999

> <r_epik_Ionization_Penalty>
0.00116503

> <r_epik_Ionization_Penalty_Charging>
0.000767707

> <r_epik_Ionization_Penalty_Neutral>
0.00039732

> <r_epik_State_Penalty>
0.000177984

> <r_epik_Charging_Adjusted_Penalty>
0.00094569

> <i_epik_Tot_Q>
1

> <i_epik_Tot_abs_Q>
1

> <r_epik_Metal_State_Penalty>
0.00775393

> <b_epik_Metal_Only>
0

> <s_lp_Force_Field>
OPLS_2005

> <r_lp_Energy>
16.2661

> <b_lp_Chiralities_Consistent>
1

> <s_lp_Variant>
AV-unprocessed.smi:809-2

> <Gold.Version>
5.8.1

> <Gold.Id.Protein>
6NUR|6NUR_protein|mol2

> <Gold.PLP.Fitness>
45.3116

> <Gold.PLP.PLP>
-34.0934

> <Gold.PLP.part.hbond>
-4.2222

> <Gold.PLP.part.metal>
0.0000

> <Gold.PLP.part.buried>
-3.2880

> <Gold.PLP.part.nonpolar>
-26.1031

> <Gold.PLP.part.repulsive>
0.3366

> <Gold.PLP.ligand.clash>
0.0000

> <Gold.PLP.ligand.torsion>
0.3223

> <Gold.PLP.Chemscore.Hbond>
3.9520

> <Gold.PLP.Chemscore.CHOScore>
0.0000

> <Gold.PLP.Chemscore.Metal>
0.0000

> <Gold.Chemscore.Hbonds>
donor molecule, donor type, donor heavy atom, donor atom, acceptor molecule, acceptor atom, score
      L1  H     6    24       P1  7948  0.65
      L1  H     9    25       P1  7948  1.00
      L1  H    12    28       P1  7949  1.00
      P1  H 10752 10764       L1    12  0.47

> <Gold.PLP.Chemscore.Internal.Correction>
0.0068

> <Gold.Rescore>
     Score         DG    S(hbond)    S(metal)    S(lipo)     H(rot)  DE(clash)    DE(int)     intcor
     16.86     -18.28       2.92        0.00      66.41       1.85       0.01       1.40       ----

> <Gold.Chemscore.Fitness>
16.8649

> <Gold.Chemscore.DG>
-18.2819

> <Gold.Chemscore.ZeroCoef>
-5.4800

> <Gold.Chemscore.Hbond>
2.9222

> <Gold.Chemscore.Metal>
0.0000

> <Gold.Chemscore.Lipo>
66.4128

> <Gold.Chemscore.Internal_Hbond>
0.0000

> <Gold.Chemscore.DEClash>
0.0136

> <Gold.Chemscore.DEInternal>
1.4034

> <Gold.Chemscore.Rot>
1.8471

> <Gold.Chemscore.Internal.Correction>
   9.000000E+99

> <Gold.Chemscore.Hbonds>
donor molecule, donor type, donor heavy atom, donor atom, acceptor molecule, acceptor atom, score
      L1  H     6    24       P1  7948  0.06
      L1  H     9    25       P1  7948  0.39
      L1  H    12    28       P1  7949  0.98
      P1  H 10752 10764       L1    12  0.03

> <Gold.Chemscore.Hbond.Weighted>
-9.7602

> <Gold.Chemscore.Metal.Weighted>
-0.0000

> <Gold.Chemscore.Lipo.Weighted>
-7.7703

> <Gold.Chemscore.Internal_Hbond.Weighted>
0.0000

> <Gold.Chemscore.DEClash.Weighted>
0.0136

> <Gold.Chemscore.DEInternal.Weighted>
1.4034

> <Gold.Chemscore.Rot.Weighted>
4.7286

> <Gold.Chemscore.Internal.Correction.Weighted>
   9.000000E+99

> <Gold.Protein.RotatedTorsions>
[ 6907 6896 6895 6894 ] final   13.15 input  -60.11 | X-H torsion
[ 7974 7965 7964 7962 ] final  146.81 input  175.53 | X-H torsion
[ 8008 7997 7996 7995 ] final  -49.71 input   59.86 | X-H torsion
[ 10167 10162 10161 10158 ] final   74.31 input  -65.29 | X-H torsion
[ 10718 10713 10712 10709 ] final  -78.92 input   66.30 | X-H torsion
[ 10763 10752 10751 10750 ] final -112.77 input  -60.55 | X-H torsion
[ 11005 11000 10999 10996 ] final   34.60 input  -57.11 | X-H torsion

> <Gold.Protein.ActiveResidues>
 VAL166  LYS551  ARG553  GLY616  TRP617  ASP618  TYR619  PRO620  LYS621  CYS622 
 ASP623  PHE694  ASN695  SER759  ASP760  ASP761  ALA762  ILE779  LEU786  VAL792 
 PHE793  MET794  SER795  GLU796  ALA797  LYS798  CYS799  TRP800  GLU811  SER814 

> <Gold.Protein.RotatedAtoms>
  151.7817  135.0760  160.0374 H   0  0  0  0  0  0  0  0  0  0  0  0  # atno 6907 bound_to 6896
  152.3218  133.5858  159.5758 H   0  0  0  0  0  0  0  0  0  0  0  0  # atno 6908 bound_to 6896
  150.7374  133.9915  159.3650 H   0  0  0  0  0  0  0  0  0  0  0  0  # atno 6909 bound_to 6896
  144.8641  139.5951  143.5917 H   0  0  0  0  0  0  0  0  0  0  0  0  # atno 7974 bound_to 7965
  154.4049  140.1290  156.4547 H   0  0  0  0  0  0  0  0  0  0  0  0  # atno 8008 bound_to 7997
  155.7331  140.3491  155.5049 H   0  0  0  0  0  0  0  0  0  0  0  0  # atno 8009 bound_to 7997
  155.9108  140.1035  157.1270 H   0  0  0  0  0  0  0  0  0  0  0  0  # atno 8010 bound_to 7997
  140.0151  144.5584  150.7627 H   0  0  0  0  0  0  0  0  0  0  0  0  # atno 10167 bound_to 10162
  156.0105  130.4531  150.3569 H   0  0  0  0  0  0  0  0  0  0  0  0  # atno 10718 bound_to 10713
  154.8365  135.4478  154.1246 H   0  0  0  0  0  0  0  0  0  0  0  0  # atno 10763 bound_to 10752
  153.2473  135.6923  153.7724 H   0  0  0  0  0  0  0  0  0  0  0  0  # atno 10764 bound_to 10752
  153.7050  135.3366  155.3209 H   0  0  0  0  0  0  0  0  0  0  0  0  # atno 10765 bound_to 10752
  140.2512  134.3301  155.7890 H   0  0  0  0  0  0  0  0  0  0  0  0  # atno 11005 bound_to 11000
  146.2883  139.7066  142.9179 LP  0  0  0  0  0  0  0  0  0  0  0  0  # atno 17320 bound_to 7965
  145.4255  141.0410  143.2940 LP  0  0  0  0  0  0  0  0  0  0  0  0  # atno 17321 bound_to 7965
  140.7366  143.2754  151.3757 LP  0  0  0  0  0  0  0  0  0  0  0  0  # atno 17342 bound_to 10162
  139.6178  144.0967  152.2362 LP  0  0  0  0  0  0  0  0  0  0  0  0  # atno 17343 bound_to 10162
  157.1659  131.0356  151.2819 LP  0  0  0  0  0  0  0  0  0  0  0  0  # atno 17370 bound_to 10713
  157.4271  130.7470  149.6960 LP  0  0  0  0  0  0  0  0  0  0  0  0  # atno 17371 bound_to 10713
  141.2201  133.7354  156.9039 LP  0  0  0  0  0  0  0  0  0  0  0  0  # atno 17394 bound_to 11000
  140.1556  134.9200  157.2650 LP  0  0  0  0  0  0  0  0  0  0  0  0  # atno 17395 bound_to 11000

$$$$
