AV-unprocessed.smi:1045|AV-procd|sdf|4545|dock2
  -GOLD-   22720 2573D 1   1.00000     0.00000
 Structure written by MMmdl.
 42 43  0  0  0  0  0  0  0  0  1 V2000
  146.5397  132.8310  151.4095 C   0  0  0  0  0  0  0  0  0  0  0  0
  147.1173  133.3586  152.5905 O   0  0  0  0  0  0  0  0  0  0  0  0
  148.2032  132.5752  153.0617 C   0  0  0  0  0  0  0  0  0  0  0  0
  148.7903  133.1987  154.3382 C   0  0  1  0  0  0  0  0  0  0  0  0
  150.0034  132.4176  154.8682 C   0  0  0  0  0  0  0  0  0  0  0  0
  149.1440  134.5937  154.0881 N   0  0  0  0  0  0  0  0  0  0  0  0
  149.5843  135.4640  155.0074 C   0  0  0  0  0  0  0  0  0  0  0  0
  149.7346  135.1785  156.1948 O   0  0  0  0  0  0  0  0  0  0  0  0
  149.8186  136.6682  154.4578 N   0  0  0  0  0  0  0  0  0  0  0  0
  150.2818  137.8591  155.0812 C   0  0  0  0  0  0  0  0  0  0  0  0
  150.6156  137.7986  156.4482 C   0  0  0  0  0  0  0  0  0  0  0  0
  151.0676  138.9608  157.1010 C   0  0  0  0  0  0  0  0  0  0  0  0
  151.1727  140.1647  156.3655 C   0  0  0  0  0  0  0  0  0  0  0  0
  151.6214  141.3518  156.9777 N   0  0  0  0  0  0  0  0  0  0  0  0
  152.2296  141.3472  158.2994 C   0  0  0  0  0  0  0  0  0  0  0  0
  152.4194  142.8236  158.6432 C   0  0  0  0  0  0  0  0  0  0  0  0
  151.2372  143.4961  157.9451 C   0  0  0  0  0  0  0  0  0  0  0  0
  151.0050  142.6409  156.6940 C   0  0  0  0  0  0  0  0  0  0  0  0
  150.8325  140.2295  155.0565 N   0  0  0  0  0  0  0  0  0  0  0  0
  150.3996  139.1124  154.4343 C   0  0  0  0  0  0  0  0  0  0  0  0
  145.7097  133.4630  151.0938 H   0  0  0  0  0  0  0  0  0  0  0  0
  146.1520  131.8250  151.5754 H   0  0  0  0  0  0  0  0  0  0  0  0
  147.2659  132.7973  150.5964 H   0  0  0  0  0  0  0  0  0  0  0  0
  147.8649  131.5582  153.2683 H   0  0  0  0  0  0  0  0  0  0  0  0
  148.9747  132.5075  152.2927 H   0  0  0  0  0  0  0  0  0  0  0  0
  148.0089  133.1623  155.0995 H   0  0  0  0  0  0  0  0  0  0  0  0
  149.7422  131.3781  155.0676 H   0  0  0  0  0  0  0  0  0  0  0  0
  150.3722  132.8473  155.8001 H   0  0  0  0  0  0  0  0  0  0  0  0
  150.8259  132.4226  154.1522 H   0  0  0  0  0  0  0  0  0  0  0  0
  149.0471  134.9169  153.1365 H   0  0  0  0  0  0  0  0  0  0  0  0
  149.5891  136.7569  153.4788 H   0  0  0  0  0  0  0  0  0  0  0  0
  150.5296  136.8710  156.9953 H   0  0  0  0  0  0  0  0  0  0  0  0
  151.3196  138.9134  158.1497 H   0  0  0  0  0  0  0  0  0  0  0  0
  151.5533  140.8702  159.0104 H   0  0  0  0  0  0  0  0  0  0  0  0
  153.1766  140.8067  158.3061 H   0  0  0  0  0  0  0  0  0  0  0  0
  152.4452  143.0096  159.7172 H   0  0  0  0  0  0  0  0  0  0  0  0
  153.3547  143.1859  158.2142 H   0  0  0  0  0  0  0  0  0  0  0  0
  150.3584  143.4461  158.5892 H   0  0  0  0  0  0  0  0  0  0  0  0
  151.4210  144.5450  157.7115 H   0  0  0  0  0  0  0  0  0  0  0  0
  151.4970  143.0828  155.8268 H   0  0  0  0  0  0  0  0  0  0  0  0
  149.9401  142.5518  156.4773 H   0  0  0  0  0  0  0  0  0  0  0  0
  150.1306  139.2547  153.3998 H   0  0  0  0  0  0  0  0  0  0  0  0
  1  2  1  0  0  0  0
  1 21  1  0  0  0  0
  1 22  1  0  0  0  0
  1 23  1  0  0  0  0
  2  3  1  0  0  0  0
  3  4  1  0  0  0  0
  3 24  1  0  0  0  0
  3 25  1  0  0  0  0
  4  5  1  0  0  0  0
  4  6  1  0  0  0  0
  4 26  1  0  0  0  0
  5 27  1  0  0  0  0
  5 28  1  0  0  0  0
  5 29  1  0  0  0  0
  6  7  1  0  0  0  0
  6 30  1  0  0  0  0
  7  8  2  0  0  0  0
  7  9  1  0  0  0  0
  9 10  1  0  0  0  0
  9 31  1  0  0  0  0
 10 20  1  0  0  0  0
 10 11  2  0  0  0  0
 11 12  1  0  0  0  0
 11 32  1  0  0  0  0
 12 13  2  0  0  0  0
 12 33  1  0  0  0  0
 13 14  1  0  0  0  0
 13 19  1  0  0  0  0
 14 18  1  0  0  0  0
 14 15  1  0  0  0  0
 15 16  1  0  0  0  0
 15 34  1  0  0  0  0
 15 35  1  0  0  0  0
 16 17  1  0  0  0  0
 16 36  1  0  0  0  0
 16 37  1  0  0  0  0
 17 18  1  0  0  0  0
 17 38  1  0  0  0  0
 17 39  1  0  0  0  0
 18 40  1  0  0  0  0
 18 41  1  0  0  0  0
 19 20  2  0  0  0  0
 20 42  1  0  0  0  0
M  END
> <s_m_source_file>
AV-unprocessed.smi

> <i_m_source_file_index>
1045

> <i_lp_mmshare_version>
43012

> <i_f3d_flags>
0

> <s_epik_input>
W0NIM11PW0NIMl1bQ0BIXShbQ0gzXSlbTkhdQyg9TylbTkhdYzFbY0hdW2NIXWMobltjSF0xKU4yW0NIMl1bQ0gyXVtDSDJdW0NIMl0y

> <s_epik_cmdline>
J2VwaWtfcHl0aG9uJywgJy1waCcsICc3LjAnLCAnLXRuJywgJzgnLCAnLW1hJywgJzIwMCcsICctbWV0YWxfYmluZGluZycsICctaW1hZScsICc8aW5maWxlLm1hZT4nLCAnLW9tYWUnLCAnPG91dGZpbGUubWFlPic=

> <r_lp_tautomer_probability>
1

> <r_epik_Ionization_Penalty>
0.10064

> <r_epik_Ionization_Penalty_Charging>
0

> <r_epik_Ionization_Penalty_Neutral>
0.10064

> <r_epik_State_Penalty>
0.0900987

> <r_epik_Charging_Adjusted_Penalty>
0.0900987

> <i_epik_Tot_Q>
0

> <i_epik_Tot_abs_Q>
0

> <r_epik_Metal_State_Penalty>
0.076945

> <b_epik_Metal_Only>
0

> <s_lp_Force_Field>
OPLS_2005

> <r_lp_Energy>
29.4827

> <b_lp_Chiralities_Consistent>
1

> <s_lp_Variant>
AV-unprocessed.smi:1045-2

> <Gold.Version>
5.8.1

> <Gold.Id.Protein>
6NUR|6NUR_protein|mol2

> <Gold.PLP.Fitness>
43.5667

> <Gold.PLP.PLP>
-33.5323

> <Gold.PLP.part.hbond>
-3.0000

> <Gold.PLP.part.metal>
0.0000

> <Gold.PLP.part.buried>
-3.9243

> <Gold.PLP.part.nonpolar>
-26.3236

> <Gold.PLP.part.repulsive>
0.2562

> <Gold.PLP.ligand.clash>
0.0000

> <Gold.PLP.ligand.torsion>
0.3704

> <Gold.PLP.Chemscore.Hbond>
2.5000

> <Gold.PLP.Chemscore.CHOScore>
1.0000

> <Gold.PLP.Chemscore.Metal>
0.0000

> <Gold.Chemscore.Hbonds>
donor molecule, donor type, donor heavy atom, donor atom, acceptor molecule, acceptor atom, score
      L1  H     6    30       P1  7948  0.75
      L1  H     9    31       P1  7948  1.00
      P1  H  7989  7998       L1    19  0.60
      L1  C    20    42       P1  7957  1.00

> <Gold.PLP.Chemscore.Internal.Correction>
0.2752

> <Gold.Rescore>
     Score         DG    S(hbond)    S(metal)    S(lipo)     H(rot)  DE(clash)    DE(int)     intcor
     15.33     -17.24       1.81        0.00      79.55       1.41       0.06       1.85       ----

> <Gold.Chemscore.Fitness>
15.3301

> <Gold.Chemscore.DG>
-17.2392

> <Gold.Chemscore.ZeroCoef>
-5.4800

> <Gold.Chemscore.Hbond>
1.8136

> <Gold.Chemscore.Metal>
0.0000

> <Gold.Chemscore.Lipo>
79.5548

> <Gold.Chemscore.Internal_Hbond>
0.0000

> <Gold.Chemscore.DEClash>
0.0637

> <Gold.Chemscore.DEInternal>
1.8454

> <Gold.Chemscore.Rot>
1.4086

> <Gold.Chemscore.Internal.Correction>
   9.000000E+99

> <Gold.Chemscore.Hbonds>
donor molecule, donor type, donor heavy atom, donor atom, acceptor molecule, acceptor atom, score
      L1  H     6    30       P1  7948  0.09
      L1  H     9    31       P1  7948  0.69
      P1  H  7989  7998       L1    19  0.04

> <Gold.Chemscore.Hbond.Weighted>
-6.0573

> <Gold.Chemscore.Metal.Weighted>
-0.0000

> <Gold.Chemscore.Lipo.Weighted>
-9.3079

> <Gold.Chemscore.Internal_Hbond.Weighted>
0.0000

> <Gold.Chemscore.DEClash.Weighted>
0.0637

> <Gold.Chemscore.DEInternal.Weighted>
1.8454

> <Gold.Chemscore.Rot.Weighted>
3.6060

> <Gold.Chemscore.Internal.Correction.Weighted>
   9.000000E+99

> <Gold.Protein.RotatedTorsions>
[ 6907 6896 6895 6894 ] final  -18.55 input  -60.11 | X-H torsion
[ 7974 7965 7964 7962 ] final   88.95 input  175.53 | X-H torsion
[ 8008 7997 7996 7995 ] final  -51.39 input   59.86 | X-H torsion
[ 10167 10162 10161 10158 ] final -117.98 input  -65.29 | X-H torsion
[ 10718 10713 10712 10709 ] final -100.41 input   66.30 | X-H torsion
[ 10763 10752 10751 10750 ] final -156.84 input  -60.55 | X-H torsion
[ 11005 11000 10999 10996 ] final   13.33 input  -57.11 | X-H torsion

> <Gold.Protein.ActiveResidues>
 VAL166  LYS551  ARG553  GLY616  TRP617  ASP618  TYR619  PRO620  LYS621  CYS622 
 ASP623  PHE694  ASN695  SER759  ASP760  ASP761  ALA762  ILE779  LEU786  VAL792 
 PHE793  MET794  SER795  GLU796  ALA797  LYS798  CYS799  TRP800  GLU811  SER814 

> <Gold.Protein.RotatedAtoms>
  151.2766  135.0701  159.9153 H   0  0  0  0  0  0  0  0  0  0  0  0  # atno 6907 bound_to 6896
  152.5341  134.0075  159.7933 H   0  0  0  0  0  0  0  0  0  0  0  0  # atno 6908 bound_to 6896
  151.0322  133.5730  159.2690 H   0  0  0  0  0  0  0  0  0  0  0  0  # atno 6909 bound_to 6896
  145.5388  139.2287  143.2577 H   0  0  0  0  0  0  0  0  0  0  0  0  # atno 7974 bound_to 7965
  154.4082  140.1249  156.4821 H   0  0  0  0  0  0  0  0  0  0  0  0  # atno 8008 bound_to 7997
  155.7075  140.3494  155.4940 H   0  0  0  0  0  0  0  0  0  0  0  0  # atno 8009 bound_to 7997
  155.9330  140.1073  157.1107 H   0  0  0  0  0  0  0  0  0  0  0  0  # atno 8010 bound_to 7997
  140.0624  143.4955  152.2024 H   0  0  0  0  0  0  0  0  0  0  0  0  # atno 10167 bound_to 10162
  156.0162  130.5326  150.6813 H   0  0  0  0  0  0  0  0  0  0  0  0  # atno 10718 bound_to 10713
  154.7682  135.3137  154.8243 H   0  0  0  0  0  0  0  0  0  0  0  0  # atno 10763 bound_to 10752
  153.8986  135.6818  153.4761 H   0  0  0  0  0  0  0  0  0  0  0  0  # atno 10764 bound_to 10752
  153.1291  135.4788  154.9254 H   0  0  0  0  0  0  0  0  0  0  0  0  # atno 10765 bound_to 10752
  140.4819  134.0927  155.7753 H   0  0  0  0  0  0  0  0  0  0  0  0  # atno 11005 bound_to 11000
  146.1995  140.6208  142.9109 LP  0  0  0  0  0  0  0  0  0  0  0  0  # atno 17320 bound_to 7965
  144.7587  140.5371  143.6750 LP  0  0  0  0  0  0  0  0  0  0  0  0  # atno 17321 bound_to 7965
  139.5885  144.7541  151.3459 LP  0  0  0  0  0  0  0  0  0  0  0  0  # atno 17342 bound_to 10162
  140.7165  143.7252  150.7665 LP  0  0  0  0  0  0  0  0  0  0  0  0  # atno 17343 bound_to 10162
  157.4515  131.0873  151.0841 LP  0  0  0  0  0  0  0  0  0  0  0  0  # atno 17370 bound_to 10713
  157.1355  130.6120  149.5541 LP  0  0  0  0  0  0  0  0  0  0  0  0  # atno 17371 bound_to 10713
  141.1527  133.8940  157.2057 LP  0  0  0  0  0  0  0  0  0  0  0  0  # atno 17394 bound_to 11000
  139.9821  135.0094  156.9775 LP  0  0  0  0  0  0  0  0  0  0  0  0  # atno 17395 bound_to 11000

$$$$
