AV-unprocessed.smi:3156|AV-procd|sdf|12036|dock2
  -GOLD-   2272017453D 1   1.00000     0.00000
 Structure written by MMmdl.
 41 42  0  0  0  0  0  0  0  0  2 V2000
  147.4220  141.6155  154.5742 C   0  0  0  0  0  0  0  0  0  0  0  0
  148.8739  141.3328  154.9937 C   0  0  1  0  0  0  0  0  0  0  0  0
  149.2190  142.2236  156.1261 N   0  3  0  0  0  0  0  0  0  0  0  0
  150.6634  142.3316  156.4192 C   0  0  0  0  0  0  0  0  0  0  0  0
  150.9111  142.7527  157.8749 C   0  0  1  0  0  0  0  0  0  0  0  0
  152.2412  142.1994  158.4297 C   0  0  0  0  0  0  0  0  0  0  0  0
  152.5046  142.7356  159.8410 C   0  0  0  0  0  0  0  0  0  0  0  0
  152.4151  144.2647  159.8357 C   0  0  0  0  0  0  0  0  0  0  0  0
  151.0849  144.7181  159.2149 C   0  0  0  0  0  0  0  0  0  0  0  0
  150.9523  144.1773  157.9038 O   0  0  0  0  0  0  0  0  0  0  0  0
  149.1083  139.8481  155.3860 C   0  0  1  0  0  0  0  0  0  0  0  0
  148.0349  138.8924  154.8295 C   0  0  0  0  0  0  0  0  0  0  0  0
  150.4347  139.3916  154.9844 N   0  0  0  0  0  0  0  0  0  0  0  0
  150.9022  139.1411  153.7102 C   0  0  0  0  0  0  0  0  0  0  0  0
  152.1942  138.7153  153.8249 C   0  0  0  0  0  0  0  0  0  0  0  0
  152.4357  138.7401  155.2265 C   0  0  0  0  0  0  0  0  0  0  0  0
  151.3814  139.1416  155.9171 N   0  0  0  0  0  0  0  0  0  0  0  0
  147.1497  141.0708  153.6705 H   0  0  0  0  0  0  0  0  0  0  0  0
  147.2774  142.6748  154.3593 H   0  0  0  0  0  0  0  0  0  0  0  0
  146.7185  141.3365  155.3593 H   0  0  0  0  0  0  0  0  0  0  0  0
  149.5101  141.5762  154.1406 H   0  0  0  0  0  0  0  0  0  0  0  0
  148.8658  143.1489  155.9284 H   0  0  0  0  0  0  0  0  0  0  0  0
  151.1634  141.3830  156.2212 H   0  0  0  0  0  0  0  0  0  0  0  0
  151.0963  143.0665  155.7393 H   0  0  0  0  0  0  0  0  0  0  0  0
  150.0771  142.4136  158.4924 H   0  0  0  0  0  0  0  0  0  0  0  0
  152.2274  141.1094  158.4465 H   0  0  0  0  0  0  0  0  0  0  0  0
  153.0627  142.4894  157.7729 H   0  0  0  0  0  0  0  0  0  0  0  0
  151.7691  142.3263  160.5348 H   0  0  0  0  0  0  0  0  0  0  0  0
  153.4841  142.4129  160.1949 H   0  0  0  0  0  0  0  0  0  0  0  0
  152.5113  144.6530  160.8500 H   0  0  0  0  0  0  0  0  0  0  0  0
  153.2448  144.6792  159.2616 H   0  0  0  0  0  0  0  0  0  0  0  0
  150.2411  144.4105  159.8342 H   0  0  0  0  0  0  0  0  0  0  0  0
  151.0535  145.8059  159.1514 H   0  0  0  0  0  0  0  0  0  0  0  0
  149.0691  139.7778  156.4740 H   0  0  0  0  0  0  0  0  0  0  0  0
  147.0542  139.0921  155.2601 H   0  0  0  0  0  0  0  0  0  0  0  0
  148.2783  137.8554  155.0635 H   0  0  0  0  0  0  0  0  0  0  0  0
  147.9469  138.9747  153.7458 H   0  0  0  0  0  0  0  0  0  0  0  0
  150.2831  139.2818  152.8361 H   0  0  0  0  0  0  0  0  0  0  0  0
  152.8662  138.4312  153.0286 H   0  0  0  0  0  0  0  0  0  0  0  0
  153.3381  138.4781  155.7590 H   0  0  0  0  0  0  0  0  0  0  0  0
  148.7526  141.8723  156.9502 H   0  0  0  0  0  0  0  0  0  0  0  0
  1  2  1  0  0  0  0
  1 18  1  0  0  0  0
  1 19  1  0  0  0  0
  1 20  1  0  0  0  0
  2  3  1  0  0  0  0
  2 11  1  0  0  0  0
  2 21  1  0  0  0  0
  3  4  1  0  0  0  0
  3 22  1  0  0  0  0
  3 41  1  0  0  0  0
  4  5  1  0  0  0  0
  4 23  1  0  0  0  0
  4 24  1  0  0  0  0
  5 10  1  0  0  0  0
  5  6  1  0  0  0  0
  5 25  1  0  0  0  0
  6  7  1  0  0  0  0
  6 26  1  0  0  0  0
  6 27  1  0  0  0  0
  7  8  1  0  0  0  0
  7 28  1  0  0  0  0
  7 29  1  0  0  0  0
  8  9  1  0  0  0  0
  8 30  1  0  0  0  0
  8 31  1  0  0  0  0
  9 10  1  0  0  0  0
  9 32  1  0  0  0  0
  9 33  1  0  0  0  0
 11 12  1  0  0  0  0
 11 13  1  0  0  0  0
 11 34  1  0  0  0  0
 12 35  1  0  0  0  0
 12 36  1  0  0  0  0
 12 37  1  0  0  0  0
 13 17  1  0  0  0  0
 13 14  1  0  0  0  0
 14 15  2  0  0  0  0
 14 38  1  0  0  0  0
 15 16  1  0  0  0  0
 15 39  1  0  0  0  0
 16 17  2  0  0  0  0
 16 40  1  0  0  0  0
M  CHG  1   3   1
M  END
> <s_m_source_file>
AV-unprocessed.smi

> <i_m_source_file_index>
3156

> <i_lp_mmshare_version>
43012

> <i_f3d_flags>
0

> <s_epik_input>
bjFbY0hdW2NIXVtjSF1uMVtDQEBIXShbQ0gzXSlbQ0BIXShbQ0gzXSlbTkhdW0NIMl1bQ0BASF0yW0NIMl1bQ0gyXVtDSDJdW0NIMl1PMg==

> <s_epik_cmdline>
J2VwaWtfcHl0aG9uJywgJy1waCcsICc3LjAnLCAnLXRuJywgJzgnLCAnLW1hJywgJzIwMCcsICctbWV0YWxfYmluZGluZycsICctaW1hZScsICc8aW5maWxlLm1hZT4nLCAnLW9tYWUnLCAnPG91dGZpbGUubWFlPic=

> <r_lp_tautomer_probability>
1

> <r_epik_Ionization_Penalty>
0.00658015

> <r_epik_Ionization_Penalty_Charging>
0.00656881

> <r_epik_Ionization_Penalty_Neutral>
1.13431e-05

> <r_epik_State_Penalty>
0.0048654

> <r_epik_Charging_Adjusted_Penalty>
0.0114342

> <i_epik_Tot_Q>
1

> <i_epik_Tot_abs_Q>
1

> <r_epik_Metal_State_Penalty>
-0

> <b_epik_Metal_Only>
0

> <s_lp_Force_Field>
OPLS_2005

> <r_lp_Energy>
18.5215

> <b_lp_Chiralities_Consistent>
1

> <s_lp_Variant>
AV-unprocessed.smi:3156-8

> <Gold.Version>
5.8.1

> <Gold.Id.Protein>
6NUR|6NUR_protein|mol2

> <Gold.PLP.Fitness>
43.0658

> <Gold.PLP.PLP>
-37.4267

> <Gold.PLP.part.hbond>
-1.0000

> <Gold.PLP.part.metal>
0.0000

> <Gold.PLP.part.buried>
-6.6977

> <Gold.PLP.part.nonpolar>
-30.8701

> <Gold.PLP.part.repulsive>
0.4384

> <Gold.PLP.ligand.clash>
0.0000

> <Gold.PLP.ligand.torsion>
1.7252

> <Gold.PLP.Chemscore.Hbond>
2.0000

> <Gold.PLP.Chemscore.CHOScore>
1.0000

> <Gold.PLP.Chemscore.Metal>
0.0000

> <Gold.Chemscore.Hbonds>
donor molecule, donor type, donor heavy atom, donor atom, acceptor molecule, acceptor atom, score
      L1  H     3    22       P1  8028  2.00
      L1  C    14    38       P1  7957  0.78

> <Gold.PLP.Chemscore.Internal.Correction>
0.0896

> <Gold.Rescore>
     Score         DG    S(hbond)    S(metal)    S(lipo)     H(rot)  DE(clash)    DE(int)     intcor
     15.84     -17.34       0.94        0.00     109.43       1.59       0.10       1.41       ----

> <Gold.Chemscore.Fitness>
15.8412

> <Gold.Chemscore.DG>
-17.3450

> <Gold.Chemscore.ZeroCoef>
-5.4800

> <Gold.Chemscore.Hbond>
0.9407

> <Gold.Chemscore.Metal>
0.0000

> <Gold.Chemscore.Lipo>
109.4299

> <Gold.Chemscore.Internal_Hbond>
0.0000

> <Gold.Chemscore.DEClash>
0.0961

> <Gold.Chemscore.DEInternal>
1.4077

> <Gold.Chemscore.Rot>
1.5938

> <Gold.Chemscore.Internal.Correction>
   9.000000E+99

> <Gold.Chemscore.Hbonds>
donor molecule, donor type, donor heavy atom, donor atom, acceptor molecule, acceptor atom, score
      L1  H     3    22       P1  8028  0.98

> <Gold.Chemscore.Hbond.Weighted>
-3.1419

> <Gold.Chemscore.Metal.Weighted>
-0.0000

> <Gold.Chemscore.Lipo.Weighted>
-12.8033

> <Gold.Chemscore.Internal_Hbond.Weighted>
0.0000

> <Gold.Chemscore.DEClash.Weighted>
0.0961

> <Gold.Chemscore.DEInternal.Weighted>
1.4077

> <Gold.Chemscore.Rot.Weighted>
4.0802

> <Gold.Chemscore.Internal.Correction.Weighted>
   9.000000E+99

> <Gold.Protein.RotatedTorsions>
[ 6907 6896 6895 6894 ] final -175.48 input  -60.11 | X-H torsion
[ 7974 7965 7964 7962 ] final  -10.93 input  175.53 | X-H torsion
[ 8008 7997 7996 7995 ] final  -49.85 input   59.86 | X-H torsion
[ 10167 10162 10161 10158 ] final  110.42 input  -65.29 | X-H torsion
[ 10718 10713 10712 10709 ] final -159.36 input   66.30 | X-H torsion
[ 10763 10752 10751 10750 ] final -131.52 input  -60.55 | X-H torsion
[ 11005 11000 10999 10996 ] final  -55.24 input  -57.11 | X-H torsion

> <Gold.Protein.ActiveResidues>
 VAL166  LYS551  ARG553  GLY616  TRP617  ASP618  TYR619  PRO620  LYS621  CYS622 
 ASP623  PHE694  ASN695  SER759  ASP760  ASP761  ALA762  ILE779  LEU786  VAL792 
 PHE793  MET794  SER795  GLU796  ALA797  LYS798  CYS799  TRP800  GLU811  SER814 

> <Gold.Protein.RotatedAtoms>
  151.5892  133.3368  159.3023 H   0  0  0  0  0  0  0  0  0  0  0  0  # atno 6907 bound_to 6896
  150.8269  134.7508  159.6832 H   0  0  0  0  0  0  0  0  0  0  0  0  # atno 6908 bound_to 6896
  152.4358  134.5696  159.9969 H   0  0  0  0  0  0  0  0  0  0  0  0  # atno 6909 bound_to 6896
  146.2204  140.2836  142.8364 H   0  0  0  0  0  0  0  0  0  0  0  0  # atno 7974 bound_to 7965
  154.4051  140.1286  156.4570 H   0  0  0  0  0  0  0  0  0  0  0  0  # atno 8008 bound_to 7997
  155.7310  140.3491  155.5040 H   0  0  0  0  0  0  0  0  0  0  0  0  # atno 8009 bound_to 7997
  155.9127  140.1038  157.1257 H   0  0  0  0  0  0  0  0  0  0  0  0  # atno 8010 bound_to 7997
  139.6690  144.7126  151.1723 H   0  0  0  0  0  0  0  0  0  0  0  0  # atno 10167 bound_to 10162
  156.5671  130.8672  151.2827 H   0  0  0  0  0  0  0  0  0  0  0  0  # atno 10718 bound_to 10713
  154.8750  135.3827  154.4260 H   0  0  0  0  0  0  0  0  0  0  0  0  # atno 10763 bound_to 10752
  153.4959  135.7030  153.5864 H   0  0  0  0  0  0  0  0  0  0  0  0  # atno 10764 bound_to 10752
  153.4217  135.3900  155.2082 H   0  0  0  0  0  0  0  0  0  0  0  0  # atno 10765 bound_to 10752
  141.1064  133.6613  156.4440 H   0  0  0  0  0  0  0  0  0  0  0  0  # atno 11005 bound_to 11000
  144.9179  140.7833  143.5767 LP  0  0  0  0  0  0  0  0  0  0  0  0  # atno 17320 bound_to 7965
  145.2771  139.1932  143.4811 LP  0  0  0  0  0  0  0  0  0  0  0  0  # atno 17321 bound_to 7965
  140.7610  143.5874  150.8831 LP  0  0  0  0  0  0  0  0  0  0  0  0  # atno 17342 bound_to 10162
  139.9538  143.6242  152.3021 LP  0  0  0  0  0  0  0  0  0  0  0  0  # atno 17343 bound_to 10162
  157.7356  130.9765  150.2092 LP  0  0  0  0  0  0  0  0  0  0  0  0  # atno 17370 bound_to 10713
  156.2748  130.3726  149.7995 LP  0  0  0  0  0  0  0  0  0  0  0  0  # atno 17371 bound_to 10713
  140.4890  134.6593  157.5203 LP  0  0  0  0  0  0  0  0  0  0  0  0  # atno 17394 bound_to 11000
  139.9936  134.6945  155.9647 LP  0  0  0  0  0  0  0  0  0  0  0  0  # atno 17395 bound_to 11000

$$$$
