AV-unprocessed.smi:35|AV-procd|sdf|261|dock10
  -GOLD-   2262016 23D 1   1.00000     0.00000
 Structure written by MMmdl.
 29 30  0  0  0  0  0  0  0  0  1 V2000
  153.2988  139.3207  156.6235 O   0  0  0  0  0  0  0  0  0  0  0  0
  152.1522  139.6285  156.3054 C   0  0  0  0  0  0  0  0  0  0  0  0
  151.5609  140.7829  156.8266 N   0  0  0  0  0  0  0  0  0  0  0  0
  150.2715  141.2357  156.5387 C   0  0  0  0  0  0  0  0  0  0  0  0
  149.8604  142.2792  157.0441 O   0  0  0  0  0  0  0  0  0  0  0  0
  149.4975  140.4550  155.6506 N   0  0  0  0  0  0  0  0  0  0  0  0
  148.0957  140.9002  155.2904 C   0  0  2  0  0  0  0  0  0  0  0  0
  147.2066  139.8770  155.6230 O   0  0  0  0  0  0  0  0  0  0  0  0
  146.2235  139.7482  154.6014 C   0  0  2  0  0  0  0  0  0  0  0  0
  145.5630  138.3587  154.6350 C   0  0  0  0  0  0  0  0  0  0  0  0
  144.6036  138.2515  153.6050 O   0  0  0  0  0  0  0  0  0  0  0  0
  146.9993  140.0809  153.3194 C   0  0  2  0  0  0  0  0  0  0  0  0
  147.7058  138.9470  152.8425 O   0  0  0  0  0  0  0  0  0  0  0  0
  147.9283  141.1981  153.7842 C   0  0  2  0  0  0  0  0  0  0  0  0
  149.1276  141.2764  153.0317 O   0  0  0  0  0  0  0  0  0  0  0  0
  150.0452  139.3028  155.1026 C   0  0  0  0  0  0  0  0  0  0  0  0
  151.2983  138.8795  155.3900 C   0  0  0  0  0  0  0  0  0  0  0  0
  151.8941  137.2122  154.5018 Br  0  0  0  0  0  0  0  0  0  0  0  0
  152.1149  141.3386  157.4619 H   0  0  0  0  0  0  0  0  0  0  0  0
  147.8620  141.7617  155.9184 H   0  0  0  0  0  0  0  0  0  0  0  0
  145.4709  140.5253  154.7503 H   0  0  0  0  0  0  0  0  0  0  0  0
  146.3104  137.5832  154.4649 H   0  0  0  0  0  0  0  0  0  0  0  0
  145.1025  138.1602  155.6033 H   0  0  0  0  0  0  0  0  0  0  0  0
  144.2197  139.1033  153.4624 H   0  0  0  0  0  0  0  0  0  0  0  0
  146.3333  140.4201  152.5253 H   0  0  0  0  0  0  0  0  0  0  0  0
  148.1961  139.2024  152.0758 H   0  0  0  0  0  0  0  0  0  0  0  0
  147.4057  142.1518  153.7008 H   0  0  0  0  0  0  0  0  0  0  0  0
  149.1216  140.5781  152.3946 H   0  0  0  0  0  0  0  0  0  0  0  0
  149.4577  138.7128  154.4149 H   0  0  0  0  0  0  0  0  0  0  0  0
  1  2  2  0  0  0  0
  2 17  1  0  0  0  0
  2  3  1  0  0  0  0
  3 19  1  0  0  0  0
  3  4  1  0  0  0  0
  4  5  2  0  0  0  0
  4  6  1  0  0  0  0
  6  7  1  0  0  0  0
  6 16  1  0  0  0  0
  7 14  1  0  0  0  0
  7  8  1  0  0  0  0
  7 20  1  0  0  0  0
  8  9  1  0  0  0  0
  9 10  1  0  0  0  0
  9 12  1  0  0  0  0
  9 21  1  0  0  0  0
 10 11  1  0  0  0  0
 10 22  1  0  0  0  0
 10 23  1  0  0  0  0
 11 24  1  0  0  0  0
 12 13  1  0  0  0  0
 12 14  1  0  0  0  0
 12 25  1  0  0  0  0
 13 26  1  0  0  0  0
 14 15  1  0  0  0  0
 14 27  1  0  0  0  0
 15 28  1  0  0  0  0
 16 17  2  0  0  0  0
 16 29  1  0  0  0  0
 17 18  1  0  0  0  0
M  END
> <s_m_source_file>
AV-unprocessed.smi

> <i_m_source_file_index>
35

> <i_lp_mmshare_version>
43012

> <i_f3d_flags>
0

> <s_epik_input>
Tz1jMVtuSF1jKD1PKW4oW2NIXWMxQnIpW0NAQEhdMk9bQ0BASF0oW0NIMl1bT0hdKVtDQEBIXShbT0hdKVtDQEhdMltPSF0=

> <s_epik_cmdline>
J2VwaWtfcHl0aG9uJywgJy1waCcsICc3LjAnLCAnLXRuJywgJzgnLCAnLW1hJywgJzIwMCcsICctbWV0YWxfYmluZGluZycsICctaW1hZScsICc8aW5maWxlLm1hZT4nLCAnLW9tYWUnLCAnPG91dGZpbGUubWFlPic=

> <r_lp_tautomer_probability>
0.999537

> <r_epik_Ionization_Penalty>
0.10812

> <r_epik_Ionization_Penalty_Charging>
0.108119

> <r_epik_Ionization_Penalty_Neutral>
4.93006e-07

> <r_epik_State_Penalty>
0.0979238

> <r_epik_Charging_Adjusted_Penalty>
0.206043

> <i_epik_Tot_Q>
0

> <i_epik_Tot_abs_Q>
0

> <r_epik_Metal_State_Penalty>
3.07911

> <b_epik_Metal_Only>
0

> <s_epik_Chemistry_Notes>
This compound contains an acetal/aminal-like group ( X-CH(R)-Y where X, Y are N, S, or O) that may be acid/base labile, releasing an aldehyde.

> <s_lp_Force_Field>
OPLS_2005

> <r_lp_Energy>
38.5572

> <b_lp_Chiralities_Consistent>
1

> <s_lp_Variant>
AV-unprocessed.smi:35-15

> <Gold.Version>
5.8.1

> <Gold.Id.Protein>
6NUR|6NUR_protein|mol2

> <Gold.PLP.Fitness>
36.8070

> <Gold.PLP.PLP>
-22.0546

> <Gold.PLP.part.hbond>
-5.9129

> <Gold.PLP.part.metal>
0.0000

> <Gold.PLP.part.buried>
-1.8860

> <Gold.PLP.part.nonpolar>
-16.5343

> <Gold.PLP.part.repulsive>
0.9206

> <Gold.PLP.ligand.clash>
0.0000

> <Gold.PLP.ligand.torsion>
0.0093

> <Gold.PLP.Chemscore.Hbond>
4.9191

> <Gold.PLP.Chemscore.CHOScore>
0.0000

> <Gold.PLP.Chemscore.Metal>
0.0000

> <Gold.Chemscore.Hbonds>
donor molecule, donor type, donor heavy atom, donor atom, acceptor molecule, acceptor atom, score
      L1  H    11    24       P1 10175  1.00
      L1  H    13    26       P1  7957  1.00
      L1  H    15    28       P1  7957  0.70
      P1  H  7997  8010       L1     1  0.47
      P1  H  8011  8017       L1    15  0.89

> <Gold.PLP.Chemscore.Internal.Correction>
0.0138

> <Gold.Rescore>
     Score         DG    S(hbond)    S(metal)    S(lipo)     H(rot)  DE(clash)    DE(int)     intcor
     11.82     -14.07       4.11        0.00      36.47       3.67       1.09       1.16       ----

> <Gold.Chemscore.Fitness>
11.8175

> <Gold.Chemscore.DG>
-14.0678

> <Gold.Chemscore.ZeroCoef>
-5.4800

> <Gold.Chemscore.Hbond>
4.1065

> <Gold.Chemscore.Metal>
0.0000

> <Gold.Chemscore.Lipo>
36.4741

> <Gold.Chemscore.Internal_Hbond>
0.0000

> <Gold.Chemscore.DEClash>
1.0890

> <Gold.Chemscore.DEInternal>
1.1613

> <Gold.Chemscore.Rot>
3.6701

> <Gold.Chemscore.Internal.Correction>
   9.000000E+99

> <Gold.Chemscore.Hbonds>
donor molecule, donor type, donor heavy atom, donor atom, acceptor molecule, acceptor atom, score
      L1  H    11    24       P1 10175  0.98
      L1  H    13    26       P1  7957  0.98
      L1  H    15    28       P1  7957  0.67
      P1  H  7997  8010       L1     1  0.45
      P1  H  8011  8017       L1    15  0.39

> <Gold.Chemscore.Hbond.Weighted>
-13.7158

> <Gold.Chemscore.Metal.Weighted>
-0.0000

> <Gold.Chemscore.Lipo.Weighted>
-4.2675

> <Gold.Chemscore.Internal_Hbond.Weighted>
0.0000

> <Gold.Chemscore.DEClash.Weighted>
1.0890

> <Gold.Chemscore.DEInternal.Weighted>
1.1613

> <Gold.Chemscore.Rot.Weighted>
9.3955

> <Gold.Chemscore.Internal.Correction.Weighted>
   9.000000E+99

> <Gold.Protein.RotatedTorsions>
[ 6907 6896 6895 6894 ] final -144.43 input  -60.11 | X-H torsion
[ 7974 7965 7964 7962 ] final  141.83 input  175.53 | X-H torsion
[ 8008 7997 7996 7995 ] final   72.80 input   59.86 | X-H torsion
[ 10167 10162 10161 10158 ] final   90.14 input  -65.29 | X-H torsion
[ 10718 10713 10712 10709 ] final -135.22 input   66.30 | X-H torsion
[ 10763 10752 10751 10750 ] final -104.48 input  -60.55 | X-H torsion
[ 11005 11000 10999 10996 ] final  151.24 input  -57.11 | X-H torsion

> <Gold.Protein.ActiveResidues>
 VAL166  LYS551  ARG553  GLY616  TRP617  ASP618  TYR619  PRO620  LYS621  CYS622 
 ASP623  PHE694  ASN695  SER759  ASP760  ASP761  ALA762  ILE779  LEU786  VAL792 
 PHE793  MET794  SER795  GLU796  ALA797  LYS798  CYS799  TRP800  GLU811  SER814 

> <Gold.Protein.RotatedAtoms>
  151.1139  133.5152  159.2604 H   0  0  0  0  0  0  0  0  0  0  0  0  # atno 6907 bound_to 6896
  151.1936  135.0412  159.8853 H   0  0  0  0  0  0  0  0  0  0  0  0  # atno 6908 bound_to 6896
  152.5452  134.0977  159.8357 H   0  0  0  0  0  0  0  0  0  0  0  0  # atno 6909 bound_to 6896
  144.9061  139.5356  143.5731 H   0  0  0  0  0  0  0  0  0  0  0  0  # atno 7974 bound_to 7965
  155.7742  140.3483  155.5263 H   0  0  0  0  0  0  0  0  0  0  0  0  # atno 8008 bound_to 7997
  155.8792  140.0999  157.1518 H   0  0  0  0  0  0  0  0  0  0  0  0  # atno 8009 bound_to 7997
  154.4023  140.1326  156.4162 H   0  0  0  0  0  0  0  0  0  0  0  0  # atno 8010 bound_to 7997
  139.8503  144.6597  150.9178 H   0  0  0  0  0  0  0  0  0  0  0  0  # atno 10167 bound_to 10162
  156.2638  130.7225  151.1169 H   0  0  0  0  0  0  0  0  0  0  0  0  # atno 10718 bound_to 10713
  154.7881  135.4784  153.9991 H   0  0  0  0  0  0  0  0  0  0  0  0  # atno 10763 bound_to 10752
  153.1590  135.6805  153.8777 H   0  0  0  0  0  0  0  0  0  0  0  0  # atno 10764 bound_to 10752
  153.8397  135.3181  155.3403 H   0  0  0  0  0  0  0  0  0  0  0  0  # atno 10765 bound_to 10752
  140.1202  134.8869  157.2061 H   0  0  0  0  0  0  0  0  0  0  0  0  # atno 11005 bound_to 11000
  146.3134  139.7830  142.9002 LP  0  0  0  0  0  0  0  0  0  0  0  0  # atno 17320 bound_to 7965
  145.3533  141.0312  143.3326 LP  0  0  0  0  0  0  0  0  0  0  0  0  # atno 17321 bound_to 7965
  140.7788  143.3833  151.1437 LP  0  0  0  0  0  0  0  0  0  0  0  0  # atno 17342 bound_to 10162
  139.7472  143.8834  152.3067 LP  0  0  0  0  0  0  0  0  0  0  0  0  # atno 17343 bound_to 10162
  157.7260  131.0649  150.5928 LP  0  0  0  0  0  0  0  0  0  0  0  0  # atno 17370 bound_to 10713
  156.6018  130.4356  149.5894 LP  0  0  0  0  0  0  0  0  0  0  0  0  # atno 17371 bound_to 10713
  140.2975  134.3169  155.7298 LP  0  0  0  0  0  0  0  0  0  0  0  0  # atno 17394 bound_to 11000
  141.2150  133.7572  156.9593 LP  0  0  0  0  0  0  0  0  0  0  0  0  # atno 17395 bound_to 11000

$$$$
