AV-unprocessed.smi:2855|AV-procd|sdf|10983|dock10
  -GOLD-   2272015433D 1   1.00000     0.00000
 Structure written by MMmdl.
 47 48  0  0  0  0  0  0  0  0  1 V2000
  153.0913  141.1971  160.4821 C   0  0  0  0  0  0  0  0  0  0  0  0
  152.8376  142.0353  159.2210 C   0  0  2  0  0  0  0  0  0  0  0  0
  153.3937  143.4669  159.3712 C   0  0  0  0  0  0  0  0  0  0  0  0
  153.0686  144.3441  158.1459 C   0  0  0  0  0  0  0  0  0  0  0  0
  151.5463  144.4102  157.8626 C   0  0  2  0  0  0  0  0  0  0  0  0
  150.7566  145.2148  158.9554 C   0  0  0  0  0  0  0  0  0  0  0  0
  151.6369  145.7929  160.0806 C   0  0  0  0  0  0  0  0  0  0  0  0
  149.6402  144.3724  159.6059 C   0  0  0  0  0  0  0  0  0  0  0  0
  151.0986  142.9393  157.6106 C   0  0  2  0  0  0  0  0  0  0  0  0
  149.7298  142.8011  157.1258 N   0  0  0  0  0  0  0  0  0  0  0  0
  149.0342  141.6540  157.0405 C   0  0  0  0  0  0  0  0  0  0  0  0
  149.4974  140.5669  157.3835 O   0  0  0  0  0  0  0  0  0  0  0  0
  147.6044  141.7112  156.4749 C   0  0  0  0  0  0  0  0  0  0  0  0
  147.3861  140.9093  155.2589 N   0  0  0  0  0  0  0  0  0  0  0  0
  146.4238  139.9095  155.2481 C   0  0  0  0  0  0  0  0  0  0  0  0
  146.1743  139.1253  154.1729 C   0  0  0  0  0  0  0  0  0  0  0  0
  146.9302  139.3033  152.9378 C   0  0  0  0  0  0  0  0  0  0  0  0
  146.7792  138.6433  151.9123 O   0  0  0  0  0  0  0  0  0  0  0  0
  147.8880  140.3197  152.9872 N   0  0  0  0  0  0  0  0  0  0  0  0
  148.1504  141.1310  154.0921 C   0  0  0  0  0  0  0  0  0  0  0  0
  149.0254  141.9936  154.0318 O   0  0  0  0  0  0  0  0  0  0  0  0
  151.3411  142.0547  158.8469 C   0  0  0  0  0  0  0  0  0  0  0  0
  148.4368  140.4791  152.1547 H   0  0  0  0  0  0  0  0  0  0  0  0
  152.5813  141.6202  161.3483 H   0  0  0  0  0  0  0  0  0  0  0  0
  154.1558  141.1479  160.7132 H   0  0  0  0  0  0  0  0  0  0  0  0
  152.7351  140.1748  160.3524 H   0  0  0  0  0  0  0  0  0  0  0  0
  153.3755  141.5591  158.3997 H   0  0  0  0  0  0  0  0  0  0  0  0
  152.9940  143.9289  160.2740 H   0  0  0  0  0  0  0  0  0  0  0  0
  154.4746  143.4268  159.5095 H   0  0  0  0  0  0  0  0  0  0  0  0
  153.5027  145.3355  158.2635 H   0  0  0  0  0  0  0  0  0  0  0  0
  153.5749  143.9257  157.2746 H   0  0  0  0  0  0  0  0  0  0  0  0
  151.4249  144.9535  156.9242 H   0  0  0  0  0  0  0  0  0  0  0  0
  150.2657  146.0652  158.4836 H   0  0  0  0  0  0  0  0  0  0  0  0
  152.3035  145.0373  160.4977 H   0  0  0  0  0  0  0  0  0  0  0  0
  151.0317  146.1848  160.8985 H   0  0  0  0  0  0  0  0  0  0  0  0
  152.2374  146.6310  159.7313 H   0  0  0  0  0  0  0  0  0  0  0  0
  150.0321  143.4390  160.0112 H   0  0  0  0  0  0  0  0  0  0  0  0
  148.8458  144.1302  158.9009 H   0  0  0  0  0  0  0  0  0  0  0  0
  149.1616  144.9112  160.4240 H   0  0  0  0  0  0  0  0  0  0  0  0
  151.7332  142.5325  156.8202 H   0  0  0  0  0  0  0  0  0  0  0  0
  149.2721  143.6482  156.8217 H   0  0  0  0  0  0  0  0  0  0  0  0
  146.9194  141.3855  157.2592 H   0  0  0  0  0  0  0  0  0  0  0  0
  147.3463  142.7559  156.2921 H   0  0  0  0  0  0  0  0  0  0  0  0
  145.8429  139.7383  156.1434 H   0  0  0  0  0  0  0  0  0  0  0  0
  145.4123  138.3612  154.2272 H   0  0  0  0  0  0  0  0  0  0  0  0
  151.0096  141.0362  158.6394 H   0  0  0  0  0  0  0  0  0  0  0  0
  150.7414  142.4032  159.6880 H   0  0  0  0  0  0  0  0  0  0  0  0
  1  2  1  0  0  0  0
  1 24  1  0  0  0  0
  1 25  1  0  0  0  0
  1 26  1  0  0  0  0
  2 22  1  0  0  0  0
  2  3  1  0  0  0  0
  2 27  1  0  0  0  0
  3  4  1  0  0  0  0
  3 28  1  0  0  0  0
  3 29  1  0  0  0  0
  4  5  1  0  0  0  0
  4 30  1  0  0  0  0
  4 31  1  0  0  0  0
  5  6  1  0  0  0  0
  5  9  1  0  0  0  0
  5 32  1  0  0  0  0
  6  7  1  0  0  0  0
  6  8  1  0  0  0  0
  6 33  1  0  0  0  0
  7 34  1  0  0  0  0
  7 35  1  0  0  0  0
  7 36  1  0  0  0  0
  8 37  1  0  0  0  0
  8 38  1  0  0  0  0
  8 39  1  0  0  0  0
  9 10  1  0  0  0  0
  9 22  1  0  0  0  0
  9 40  1  0  0  0  0
 10 11  1  0  0  0  0
 10 41  1  0  0  0  0
 11 12  2  0  0  0  0
 11 13  1  0  0  0  0
 13 14  1  0  0  0  0
 13 42  1  0  0  0  0
 13 43  1  0  0  0  0
 14 20  1  0  0  0  0
 14 15  1  0  0  0  0
 15 16  2  0  0  0  0
 15 44  1  0  0  0  0
 16 17  1  0  0  0  0
 16 45  1  0  0  0  0
 17 18  2  0  0  0  0
 17 19  1  0  0  0  0
 19 23  1  0  0  0  0
 19 20  1  0  0  0  0
 20 21  2  0  0  0  0
 22 46  1  0  0  0  0
 22 47  1  0  0  0  0
M  END
> <s_m_source_file>
AV-unprocessed.smi

> <i_m_source_file_index>
2855

> <i_lp_mmshare_version>
43012

> <i_f3d_flags>
0

> <s_epik_input>
W0NIM11bQ0BASF0xW0NIMl1bQ0gyXVtDQEBIXShbQ0hdKFtDSDNdKVtDSDNdKVtDQEhdKFtDSDJdMSlbTkhdQyg9TylbQ0gyXW4yW2NIXVtjSF1jKD1PKVtuSF1jMj1P

> <s_epik_cmdline>
J2VwaWtfcHl0aG9uJywgJy1waCcsICc3LjAnLCAnLXRuJywgJzgnLCAnLW1hJywgJzIwMCcsICctbWV0YWxfYmluZGluZycsICctaW1hZScsICc8aW5maWxlLm1hZT4nLCAnLW9tYWUnLCAnPG91dGZpbGUubWFlPic=

> <r_lp_tautomer_probability>
0.999537

> <r_epik_Ionization_Penalty>
0.00306256

> <r_epik_Ionization_Penalty_Charging>
0.00306254

> <r_epik_Ionization_Penalty_Neutral>
2.0223e-08

> <r_epik_State_Penalty>
0.0021533

> <r_epik_Charging_Adjusted_Penalty>
0.00521583

> <i_epik_Tot_Q>
0

> <i_epik_Tot_abs_Q>
0

> <r_epik_Metal_State_Penalty>
0.362116

> <b_epik_Metal_Only>
0

> <s_lp_Force_Field>
OPLS_2005

> <r_lp_Energy>
18.1406

> <b_lp_Chiralities_Consistent>
1

> <s_lp_Variant>
AV-unprocessed.smi:2855-7

> <Gold.Version>
5.8.1

> <Gold.Id.Protein>
6NUR|6NUR_protein|mol2

> <Gold.PLP.Fitness>
45.6543

> <Gold.PLP.PLP>
-44.7011

> <Gold.PLP.part.hbond>
-3.0146

> <Gold.PLP.part.metal>
0.0000

> <Gold.PLP.part.buried>
-8.2962

> <Gold.PLP.part.nonpolar>
-35.8442

> <Gold.PLP.part.repulsive>
0.7392

> <Gold.PLP.ligand.clash>
2.9563

> <Gold.PLP.ligand.torsion>
1.6896

> <Gold.PLP.Chemscore.Hbond>
2.4160

> <Gold.PLP.Chemscore.CHOScore>
0.0000

> <Gold.PLP.Chemscore.Metal>
0.0000

> <Gold.Chemscore.Hbonds>
donor molecule, donor type, donor heavy atom, donor atom, acceptor molecule, acceptor atom, score
      L1  H    10    41       P1  8028  1.00
      L1  H    19    23       P1  7957  1.00
      P1  H  8011  8017       L1    21  0.42

> <Gold.PLP.Chemscore.Internal.Correction>
0.0407

> <Gold.Rescore>
     Score         DG    S(hbond)    S(metal)    S(lipo)     H(rot)  DE(clash)    DE(int)     intcor
     13.52     -21.57       2.31        0.00     112.16       1.85       0.33       7.72       ----

> <Gold.Chemscore.Fitness>
13.5181

> <Gold.Chemscore.DG>
-21.5676

> <Gold.Chemscore.ZeroCoef>
-5.4800

> <Gold.Chemscore.Hbond>
2.3086

> <Gold.Chemscore.Metal>
0.0000

> <Gold.Chemscore.Lipo>
112.1615

> <Gold.Chemscore.Internal_Hbond>
0.0000

> <Gold.Chemscore.DEClash>
0.3271

> <Gold.Chemscore.DEInternal>
7.7224

> <Gold.Chemscore.Rot>
1.8539

> <Gold.Chemscore.Internal.Correction>
   9.000000E+99

> <Gold.Chemscore.Hbonds>
donor molecule, donor type, donor heavy atom, donor atom, acceptor molecule, acceptor atom, score
      L1  H    10    41       P1  8028  0.84
      L1  H    19    23       P1  7957  0.94
      P1  H  8011  8017       L1    21  0.41

> <Gold.Chemscore.Hbond.Weighted>
-7.7107

> <Gold.Chemscore.Metal.Weighted>
-0.0000

> <Gold.Chemscore.Lipo.Weighted>
-13.1229

> <Gold.Chemscore.Internal_Hbond.Weighted>
0.0000

> <Gold.Chemscore.DEClash.Weighted>
0.3271

> <Gold.Chemscore.DEInternal.Weighted>
7.7224

> <Gold.Chemscore.Rot.Weighted>
4.7460

> <Gold.Chemscore.Internal.Correction.Weighted>
   9.000000E+99

> <Gold.Protein.RotatedTorsions>
[ 6907 6896 6895 6894 ] final   90.90 input  -60.11 | X-H torsion
[ 7974 7965 7964 7962 ] final -170.87 input  175.53 | X-H torsion
[ 8008 7997 7996 7995 ] final  -47.43 input   59.86 | X-H torsion
[ 10167 10162 10161 10158 ] final  -78.30 input  -65.29 | X-H torsion
[ 10718 10713 10712 10709 ] final  178.50 input   66.30 | X-H torsion
[ 10763 10752 10751 10750 ] final   43.47 input  -60.55 | X-H torsion
[ 11005 11000 10999 10996 ] final -127.32 input  -57.11 | X-H torsion

> <Gold.Protein.ActiveResidues>
 VAL166  LYS551  ARG553  GLY616  TRP617  ASP618  TYR619  PRO620  LYS621  CYS622 
 ASP623  PHE694  ASN695  SER759  ASP760  ASP761  ALA762  ILE779  LEU786  VAL792 
 PHE793  MET794  SER795  GLU796  ALA797  LYS798  CYS799  TRP800  GLU811  SER814 

> <Gold.Protein.RotatedAtoms>
  152.5447  134.1741  159.8608 H   0  0  0  0  0  0  0  0  0  0  0  0  # atno 6907 bound_to 6896
  151.1748  133.4754  159.2601 H   0  0  0  0  0  0  0  0  0  0  0  0  # atno 6908 bound_to 6896
  151.1238  135.0105  159.8606 H   0  0  0  0  0  0  0  0  0  0  0  0  # atno 6909 bound_to 6896
  144.7164  140.2007  143.6338 H   0  0  0  0  0  0  0  0  0  0  0  0  # atno 7974 bound_to 7965
  154.4017  140.1346  156.4174 H   0  0  0  0  0  0  0  0  0  0  0  0  # atno 8008 bound_to 7997
  155.7675  140.3484  155.5209 H   0  0  0  0  0  0  0  0  0  0  0  0  # atno 8009 bound_to 7997
  155.8799  140.0985  157.1483 H   0  0  0  0  0  0  0  0  0  0  0  0  # atno 8010 bound_to 7997
  140.4694  143.2431  151.8228 H   0  0  0  0  0  0  0  0  0  0  0  0  # atno 10167 bound_to 10162
  156.8897  130.9843  151.3051 H   0  0  0  0  0  0  0  0  0  0  0  0  # atno 10718 bound_to 10713
  152.9860  135.6100  154.3116 H   0  0  0  0  0  0  0  0  0  0  0  0  # atno 10763 bound_to 10752
  154.2831  135.2776  155.2690 H   0  0  0  0  0  0  0  0  0  0  0  0  # atno 10764 bound_to 10752
  154.5019  135.5864  153.6594 H   0  0  0  0  0  0  0  0  0  0  0  0  # atno 10765 bound_to 10752
  140.9609  134.0938  157.3969 H   0  0  0  0  0  0  0  0  0  0  0  0  # atno 11005 bound_to 11000
  145.8682  139.2258  143.1676 LP  0  0  0  0  0  0  0  0  0  0  0  0  # atno 17320 bound_to 7965
  146.0109  140.8436  142.9971 LP  0  0  0  0  0  0  0  0  0  0  0  0  # atno 17321 bound_to 7965
  139.4816  144.4910  151.9184 LP  0  0  0  0  0  0  0  0  0  0  0  0  # atno 17342 bound_to 10162
  140.3996  144.2511  150.5894 LP  0  0  0  0  0  0  0  0  0  0  0  0  # atno 17343 bound_to 10162
  157.6091  130.8569  149.8923 LP  0  0  0  0  0  0  0  0  0  0  0  0  # atno 17370 bound_to 10713
  156.0635  130.3696  150.0929 LP  0  0  0  0  0  0  0  0  0  0  0  0  # atno 17371 bound_to 10713
  139.8878  135.0092  156.6580 LP  0  0  0  0  0  0  0  0  0  0  0  0  # atno 17394 bound_to 11000
  140.7469  133.8930  155.8318 LP  0  0  0  0  0  0  0  0  0  0  0  0  # atno 17395 bound_to 11000

$$$$
