AV-unprocessed.smi:331|AV-procd|sdf|2351|dock1
  -GOLD-   2262022263D 1   1.00000     0.00000
 Structure written by MMmdl.
 37 38  0  0  0  0  0  0  0  0  2 V2000
  151.3819  141.0323  156.2461 O   0  0  0  0  0  0  0  0  0  0  0  0
  150.6346  142.0076  156.2143 C   0  0  0  0  0  0  0  0  0  0  0  0
  149.5773  142.1024  155.3909 N   0  0  0  0  0  0  0  0  0  0  0  0
  149.1969  141.1069  154.3938 C   0  0  0  0  0  0  0  0  0  0  0  0
  147.7454  140.6167  154.5662 C   0  0  0  0  0  0  0  0  0  0  0  0
  146.7384  141.7465  154.7017 C   0  0  0  0  0  0  0  0  0  0  0  0
  146.5322  142.6588  153.6426 C   0  0  0  0  0  0  0  0  0  0  0  0
  145.6019  143.7065  153.8031 C   0  0  0  0  0  0  0  0  0  0  0  0
  144.8950  143.8162  155.0180 C   0  0  0  0  0  0  0  0  0  0  0  0
  145.1165  142.9233  156.0078 N   0  3  0  0  0  0  0  0  0  0  0  0
  146.0003  141.9077  155.8941 C   0  0  0  0  0  0  0  0  0  0  0  0
  150.8214  143.0741  157.0120 N   0  0  0  0  0  0  0  0  0  0  0  0
  151.8731  143.2791  158.0112 C   0  0  0  0  0  0  0  0  0  0  0  0
  151.3115  143.1050  159.4355 C   0  0  0  0  0  0  0  0  0  0  0  0
  151.8073  144.3090  160.2375 C   0  0  0  0  0  0  0  0  0  0  0  0
  151.9352  145.4221  159.2032 C   0  0  0  0  0  0  0  0  0  0  0  0
  152.4453  144.7102  157.9501 C   0  0  0  0  0  0  0  0  0  0  0  0
  149.0075  142.9339  155.4471 H   0  0  0  0  0  0  0  0  0  0  0  0
  149.3500  141.5011  153.3879 H   0  0  0  0  0  0  0  0  0  0  0  0
  149.8798  140.2639  154.5007 H   0  0  0  0  0  0  0  0  0  0  0  0
  147.4639  139.9924  153.7172 H   0  0  0  0  0  0  0  0  0  0  0  0
  147.6777  139.9742  155.4448 H   0  0  0  0  0  0  0  0  0  0  0  0
  147.0859  142.5631  152.7196 H   0  0  0  0  0  0  0  0  0  0  0  0
  145.4341  144.4156  153.0057 H   0  0  0  0  0  0  0  0  0  0  0  0
  144.1657  144.5852  155.2263 H   0  0  0  0  0  0  0  0  0  0  0  0
  146.0919  141.2619  156.7554 H   0  0  0  0  0  0  0  0  0  0  0  0
  150.1317  143.8089  156.9470 H   0  0  0  0  0  0  0  0  0  0  0  0
  152.6770  142.5564  157.8596 H   0  0  0  0  0  0  0  0  0  0  0  0
  150.2203  143.1139  159.4238 H   0  0  0  0  0  0  0  0  0  0  0  0
  151.6194  142.1613  159.8867 H   0  0  0  0  0  0  0  0  0  0  0  0
  151.1391  144.5715  161.0581 H   0  0  0  0  0  0  0  0  0  0  0  0
  152.7874  144.0902  160.6632 H   0  0  0  0  0  0  0  0  0  0  0  0
  150.9535  145.8548  159.0064 H   0  0  0  0  0  0  0  0  0  0  0  0
  152.5958  146.2261  159.5281 H   0  0  0  0  0  0  0  0  0  0  0  0
  153.5344  144.6620  157.9831 H   0  0  0  0  0  0  0  0  0  0  0  0
  152.1778  145.2490  157.0400 H   0  0  0  0  0  0  0  0  0  0  0  0
  144.5944  143.0206  156.8790 H   0  0  0  0  0  0  0  0  0  0  0  0
  1  2  2  0  0  0  0
  2  3  1  0  0  0  0
  2 12  1  0  0  0  0
  3  4  1  0  0  0  0
  3 18  1  0  0  0  0
  4  5  1  0  0  0  0
  4 19  1  0  0  0  0
  4 20  1  0  0  0  0
  5  6  1  0  0  0  0
  5 21  1  0  0  0  0
  5 22  1  0  0  0  0
  6 11  1  0  0  0  0
  6  7  2  0  0  0  0
  7  8  1  0  0  0  0
  7 23  1  0  0  0  0
  8  9  2  0  0  0  0
  8 24  1  0  0  0  0
  9 10  1  0  0  0  0
  9 25  1  0  0  0  0
 10 11  2  0  0  0  0
 10 37  1  0  0  0  0
 11 26  1  0  0  0  0
 12 13  1  0  0  0  0
 12 27  1  0  0  0  0
 13 17  1  0  0  0  0
 13 14  1  0  0  0  0
 13 28  1  0  0  0  0
 14 15  1  0  0  0  0
 14 29  1  0  0  0  0
 14 30  1  0  0  0  0
 15 16  1  0  0  0  0
 15 31  1  0  0  0  0
 15 32  1  0  0  0  0
 16 17  1  0  0  0  0
 16 33  1  0  0  0  0
 16 34  1  0  0  0  0
 17 35  1  0  0  0  0
 17 36  1  0  0  0  0
M  CHG  1  10   1
M  END
> <s_m_source_file>
AV-unprocessed.smi

> <i_m_source_file_index>
331

> <i_lp_mmshare_version>
43012

> <i_f3d_flags>
0

> <s_epik_input>
W0NIMl0xW0NIMl1bQ0gyXVtDSDJdW0NIXTFbTkhdQyg9TylbTkhdW0NIMl1bQ0gyXWMyW2NIXVtjSF1bY0hdbltjSF0y

> <s_epik_cmdline>
J2VwaWtfcHl0aG9uJywgJy1waCcsICc3LjAnLCAnLXRuJywgJzgnLCAnLW1hJywgJzIwMCcsICctbWV0YWxfYmluZGluZycsICctaW1hZScsICc8aW5maWxlLm1hZT4nLCAnLW9tYWUnLCAnPG91dGZpbGUubWFlPic=

> <r_epik_Ionization_Penalty>
2.21063

> <r_epik_Ionization_Penalty_Charging>
2.21057

> <r_epik_Ionization_Penalty_Neutral>
5.76468e-05

> <r_epik_State_Penalty>
2.35476

> <r_epik_Charging_Adjusted_Penalty>
4.56533

> <i_epik_Tot_Q>
1

> <i_epik_Tot_abs_Q>
1

> <r_epik_Metal_State_Penalty>
2.36886

> <b_epik_Metal_Only>
0

> <s_lp_Force_Field>
OPLS_2005

> <r_lp_Energy>
33.3407

> <b_lp_Chiralities_Consistent>
1

> <s_lp_Variant>
AV-unprocessed.smi:331-2

> <Gold.Version>
5.8.1

> <Gold.Id.Protein>
6NUR|6NUR_protein|mol2

> <Gold.PLP.Fitness>
46.2099

> <Gold.PLP.PLP>
-41.0713

> <Gold.PLP.part.hbond>
-2.0000

> <Gold.PLP.part.metal>
0.0000

> <Gold.PLP.part.buried>
-6.6541

> <Gold.PLP.part.nonpolar>
-31.9687

> <Gold.PLP.part.repulsive>
0.2271

> <Gold.PLP.ligand.clash>
0.0000

> <Gold.PLP.ligand.torsion>
0.2574

> <Gold.PLP.Chemscore.Hbond>
1.8800

> <Gold.PLP.Chemscore.CHOScore>
0.0000

> <Gold.PLP.Chemscore.Metal>
0.0000

> <Gold.Chemscore.Hbonds>
donor molecule, donor type, donor heavy atom, donor atom, acceptor molecule, acceptor atom, score
      L1  H     3    18       P1  8028  1.00
      L1  H    12    27       P1  8028  0.86

> <Gold.PLP.Chemscore.Internal.Correction>
0.0134

> <Gold.Rescore>
     Score         DG    S(hbond)    S(metal)    S(lipo)     H(rot)  DE(clash)    DE(int)     intcor
     19.07     -19.40       1.80        0.00     102.31       1.59       0.10       0.23       ----

> <Gold.Chemscore.Fitness>
19.0651

> <Gold.Chemscore.DG>
-19.4003

> <Gold.Chemscore.ZeroCoef>
-5.4800

> <Gold.Chemscore.Hbond>
1.8048

> <Gold.Chemscore.Metal>
0.0000

> <Gold.Chemscore.Lipo>
102.3137

> <Gold.Chemscore.Internal_Hbond>
0.0000

> <Gold.Chemscore.DEClash>
0.1049

> <Gold.Chemscore.DEInternal>
0.2303

> <Gold.Chemscore.Rot>
1.5932

> <Gold.Chemscore.Internal.Correction>
   9.000000E+99

> <Gold.Chemscore.Hbonds>
donor molecule, donor type, donor heavy atom, donor atom, acceptor molecule, acceptor atom, score
      L1  H     3    18       P1  8028  0.94
      L1  H    12    27       P1  8028  0.83

> <Gold.Chemscore.Hbond.Weighted>
-6.0281

> <Gold.Chemscore.Metal.Weighted>
-0.0000

> <Gold.Chemscore.Lipo.Weighted>
-11.9707

> <Gold.Chemscore.Internal_Hbond.Weighted>
0.0000

> <Gold.Chemscore.DEClash.Weighted>
0.1049

> <Gold.Chemscore.DEInternal.Weighted>
0.2303

> <Gold.Chemscore.Rot.Weighted>
4.0785

> <Gold.Chemscore.Internal.Correction.Weighted>
   9.000000E+99

> <Gold.Protein.RotatedTorsions>
[ 6907 6896 6895 6894 ] final   44.52 input  -60.11 | X-H torsion
[ 7974 7965 7964 7962 ] final  -46.40 input  175.53 | X-H torsion
[ 8008 7997 7996 7995 ] final  128.59 input   59.86 | X-H torsion
[ 10167 10162 10161 10158 ] final  143.63 input  -65.29 | X-H torsion
[ 10718 10713 10712 10709 ] final   19.21 input   66.30 | X-H torsion
[ 10763 10752 10751 10750 ] final    8.98 input  -60.55 | X-H torsion
[ 11005 11000 10999 10996 ] final -159.09 input  -57.11 | X-H torsion

> <Gold.Protein.ActiveResidues>
 VAL166  LYS551  ARG553  GLY616  TRP617  ASP618  TYR619  PRO620  LYS621  CYS622 
 ASP623  PHE694  ASN695  SER759  ASP760  ASP761  ALA762  ILE779  LEU786  VAL792 
 PHE793  MET794  SER795  GLU796  ALA797  LYS798  CYS799  TRP800  GLU811  SER814 

> <Gold.Protein.RotatedAtoms>
  152.2335  134.8299  160.0470 H   0  0  0  0  0  0  0  0  0  0  0  0  # atno 6907 bound_to 6896
  151.9039  133.3539  159.3848 H   0  0  0  0  0  0  0  0  0  0  0  0  # atno 6908 bound_to 6896
  150.7032  134.4726  159.5476 H   0  0  0  0  0  0  0  0  0  0  0  0  # atno 6909 bound_to 6896
  145.9722  140.7371  142.9404 H   0  0  0  0  0  0  0  0  0  0  0  0  # atno 7974 bound_to 7965
  156.2918  140.2641  156.2461 H   0  0  0  0  0  0  0  0  0  0  0  0  # atno 8008 bound_to 7997
  154.9929  140.0388  157.2346 H   0  0  0  0  0  0  0  0  0  0  0  0  # atno 8009 bound_to 7997
  154.7670  140.2771  155.6173 H   0  0  0  0  0  0  0  0  0  0  0  0  # atno 8010 bound_to 7997
  139.4965  144.6027  151.6445 H   0  0  0  0  0  0  0  0  0  0  0  0  # atno 10167 bound_to 10162
  157.1072  130.6493  149.5888 H   0  0  0  0  0  0  0  0  0  0  0  0  # atno 10718 bound_to 10713
  153.2190  135.6879  153.8023 H   0  0  0  0  0  0  0  0  0  0  0  0  # atno 10763 bound_to 10752
  153.7228  135.3264  155.3271 H   0  0  0  0  0  0  0  0  0  0  0  0  # atno 10764 bound_to 10752
  154.8260  135.4617  154.1029 H   0  0  0  0  0  0  0  0  0  0  0  0  # atno 10765 bound_to 10752
  140.6465  134.4496  157.5234 H   0  0  0  0  0  0  0  0  0  0  0  0  # atno 11005 bound_to 11000
  144.6840  140.2768  143.7298 LP  0  0  0  0  0  0  0  0  0  0  0  0  # atno 17320 bound_to 7965
  145.7889  139.1919  143.2114 LP  0  0  0  0  0  0  0  0  0  0  0  0  # atno 17321 bound_to 7965
  140.5681  144.0155  150.6203 LP  0  0  0  0  0  0  0  0  0  0  0  0  # atno 17342 bound_to 10162
  140.3263  143.3105  152.0733 LP  0  0  0  0  0  0  0  0  0  0  0  0  # atno 17343 bound_to 10162
  155.9859  130.4891  150.7054 LP  0  0  0  0  0  0  0  0  0  0  0  0  # atno 17370 bound_to 10713
  157.4590  131.0881  151.0765 LP  0  0  0  0  0  0  0  0  0  0  0  0  # atno 17371 bound_to 10713
  139.9061  134.8446  156.1701 LP  0  0  0  0  0  0  0  0  0  0  0  0  # atno 17394 bound_to 11000
  141.0569  133.6861  156.1877 LP  0  0  0  0  0  0  0  0  0  0  0  0  # atno 17395 bound_to 11000

$$$$
