AV-unprocessed.smi:246|AV-procd|sdf|1887|dock4
  -GOLD-   2262020543D 1   1.00000     0.00000
 Structure written by MMmdl.
 57 60  0  0  0  0  0  0  0  0  1 V2000
  146.0907  132.0525  151.4925 C   0  0  0  0  0  0  0  0  0  0  0  0
  146.7065  132.6436  152.7680 C   0  0  0  0  0  0  0  0  0  0  0  0
  145.8428  132.5051  153.8877 O   0  0  0  0  0  0  0  0  0  0  0  0
  146.1941  133.3143  155.0007 C   0  0  0  0  0  0  0  0  0  0  0  0
  147.2700  132.5956  155.8193 C   0  0  0  0  0  0  0  0  0  0  0  0
  148.3541  132.2584  154.9663 O   0  0  0  0  0  0  0  0  0  0  0  0
  149.5350  133.0005  155.2322 C   0  0  2  0  0  0  0  0  0  0  0  0
  150.0604  132.7106  156.6368 C   0  0  0  0  0  0  0  0  0  0  0  0
  150.9024  133.9489  156.9381 C   0  0  0  0  0  0  0  0  0  0  0  0
  150.2033  135.0417  156.2751 N   0  0  0  0  0  0  0  0  0  0  0  0
  150.7633  136.2714  156.1416 C   0  0  0  0  0  0  0  0  0  0  0  0
  151.5529  136.5233  155.0638 N   0  0  0  0  0  0  0  0  0  0  0  0
  152.1113  137.7256  154.8980 C   0  0  0  0  0  0  0  0  0  0  0  0
  152.0188  138.8031  155.6787 N   0  0  0  0  0  0  0  0  0  0  0  0
  151.2399  138.5562  156.7704 C   0  0  0  0  0  0  0  0  0  0  0  0
  150.5868  137.3289  157.0816 C   0  0  0  0  0  0  0  0  0  0  0  0
  149.9096  137.4527  158.2900 N   0  0  0  0  0  0  0  0  0  0  0  0
  150.1395  138.6809  158.6637 C   0  0  0  0  0  0  0  0  0  0  0  0
  150.9144  139.4214  157.8005 N   0  0  0  0  0  0  0  0  0  0  0  0
  151.3110  140.8108  157.9641 C   0  0  0  0  0  0  0  0  0  0  0  0
  152.1697  141.0871  159.2204 C   0  0  1  0  0  0  0  0  0  0  0  0
  153.4553  140.5104  159.0964 O   0  0  0  0  0  0  0  0  0  0  0  0
  152.2869  142.5734  159.6304 C   0  0  1  0  0  0  0  0  0  0  0  0
  152.7064  143.5398  158.5169 C   0  0  0  0  0  0  0  0  0  0  0  0
  152.1003  144.8409  158.9937 C   0  0  0  0  0  0  0  0  0  0  0  0
  150.7827  144.3600  159.5902 C   0  0  0  0  0  0  0  0  0  0  0  0
  151.0772  143.0975  160.1759 O   0  0  0  0  0  0  0  0  0  0  0  0
  149.3102  134.5195  155.2485 C   0  0  0  0  0  0  0  0  0  0  0  0
  150.3179  132.7498  154.5137 H   0  0  0  0  0  0  0  0  0  0  0  0
  146.7238  132.2582  150.6294 H   0  0  0  0  0  0  0  0  0  0  0  0
  145.1098  132.4854  151.2957 H   0  0  0  0  0  0  0  0  0  0  0  0
  145.9743  130.9714  151.5596 H   0  0  0  0  0  0  0  0  0  0  0  0
  147.6844  132.2049  152.9723 H   0  0  0  0  0  0  0  0  0  0  0  0
  146.8729  133.7100  152.6145 H   0  0  0  0  0  0  0  0  0  0  0  0
  146.5523  134.2961  154.6907 H   0  0  0  0  0  0  0  0  0  0  0  0
  145.3120  133.4694  155.6237 H   0  0  0  0  0  0  0  0  0  0  0  0
  147.6275  133.2613  156.6063 H   0  0  0  0  0  0  0  0  0  0  0  0
  146.8518  131.7120  156.3032 H   0  0  0  0  0  0  0  0  0  0  0  0
  149.2295  132.6498  157.3413 H   0  0  0  0  0  0  0  0  0  0  0  0
  150.6278  131.7818  156.6997 H   0  0  0  0  0  0  0  0  0  0  0  0
  150.9961  134.1243  158.0102 H   0  0  0  0  0  0  0  0  0  0  0  0
  151.9024  133.8367  156.5165 H   0  0  0  0  0  0  0  0  0  0  0  0
  152.7177  137.8407  154.0118 H   0  0  0  0  0  0  0  0  0  0  0  0
  149.7337  139.0888  159.5781 H   0  0  0  0  0  0  0  0  0  0  0  0
  151.8570  141.1171  157.0712 H   0  0  0  0  0  0  0  0  0  0  0  0
  150.4074  141.4210  157.9899 H   0  0  0  0  0  0  0  0  0  0  0  0
  151.6907  140.5639  160.0487 H   0  0  0  0  0  0  0  0  0  0  0  0
  153.9722  140.7630  159.8462 H   0  0  0  0  0  0  0  0  0  0  0  0
  153.0275  142.6488  160.4280 H   0  0  0  0  0  0  0  0  0  0  0  0
  153.7876  143.5942  158.3878 H   0  0  0  0  0  0  0  0  0  0  0  0
  152.2650  143.2628  157.5590 H   0  0  0  0  0  0  0  0  0  0  0  0
  152.7254  145.2864  159.7688 H   0  0  0  0  0  0  0  0  0  0  0  0
  151.9667  145.5714  158.1956 H   0  0  0  0  0  0  0  0  0  0  0  0
  150.3703  145.0551  160.3216 H   0  0  0  0  0  0  0  0  0  0  0  0
  150.0409  144.2126  158.8041 H   0  0  0  0  0  0  0  0  0  0  0  0
  149.5042  134.9523  154.2663 H   0  0  0  0  0  0  0  0  0  0  0  0
  148.2838  134.7559  155.5315 H   0  0  0  0  0  0  0  0  0  0  0  0
  1  2  1  0  0  0  0
  1 30  1  0  0  0  0
  1 31  1  0  0  0  0
  1 32  1  0  0  0  0
  2  3  1  0  0  0  0
  2 33  1  0  0  0  0
  2 34  1  0  0  0  0
  3  4  1  0  0  0  0
  4  5  1  0  0  0  0
  4 35  1  0  0  0  0
  4 36  1  0  0  0  0
  5  6  1  0  0  0  0
  5 37  1  0  0  0  0
  5 38  1  0  0  0  0
  6  7  1  0  0  0  0
  7 29  1  0  0  0  0
  7 28  1  0  0  0  0
  7  8  1  0  0  0  0
  8  9  1  0  0  0  0
  8 39  1  0  0  0  0
  8 40  1  0  0  0  0
  9 10  1  0  0  0  0
  9 41  1  0  0  0  0
  9 42  1  0  0  0  0
 10 11  1  0  0  0  0
 10 28  1  0  0  0  0
 11 16  1  0  0  0  0
 11 12  2  0  0  0  0
 12 13  1  0  0  0  0
 13 14  2  0  0  0  0
 13 43  1  0  0  0  0
 14 15  1  0  0  0  0
 15 19  1  0  0  0  0
 15 16  2  0  0  0  0
 16 17  1  0  0  0  0
 17 18  2  0  0  0  0
 18 19  1  0  0  0  0
 18 44  1  0  0  0  0
 19 20  1  0  0  0  0
 20 21  1  0  0  0  0
 20 45  1  0  0  0  0
 20 46  1  0  0  0  0
 21 22  1  0  0  0  0
 21 23  1  0  0  0  0
 21 47  1  0  0  0  0
 22 48  1  0  0  0  0
 23 27  1  0  0  0  0
 23 24  1  0  0  0  0
 23 49  1  0  0  0  0
 24 25  1  0  0  0  0
 24 50  1  0  0  0  0
 24 51  1  0  0  0  0
 25 26  1  0  0  0  0
 25 52  1  0  0  0  0
 25 53  1  0  0  0  0
 26 27  1  0  0  0  0
 26 54  1  0  0  0  0
 26 55  1  0  0  0  0
 28 56  1  0  0  0  0
 28 57  1  0  0  0  0
M  END
> <s_m_source_file>
AV-unprocessed.smi

> <i_m_source_file_index>
246

> <i_lp_mmshare_version>
43012

> <i_f3d_flags>
0

> <s_epik_input>
W0NIM11bQ0gyXU9bQ0gyXVtDSDJdT1tDQEhdMVtDSDJdW0NIMl1OKFtDSDJdMSljKG5bY0hdbjIpYyhjMjMpbltjSF1uM1tDSDJdW0NASF0oW09IXSlbQ0BASF00W0NIMl1bQ0gyXVtDSDJdTzQ=

> <s_epik_cmdline>
J2VwaWtfcHl0aG9uJywgJy1waCcsICc3LjAnLCAnLXRuJywgJzgnLCAnLW1hJywgJzIwMCcsICctbWV0YWxfYmluZGluZycsICctaW1hZScsICc8aW5maWxlLm1hZT4nLCAnLW9tYWUnLCAnPG91dGZpbGUubWFlPic=

> <r_lp_tautomer_probability>
1

> <r_epik_Ionization_Penalty>
0.0024631

> <r_epik_Ionization_Penalty_Charging>
0

> <r_epik_Ionization_Penalty_Neutral>
0.0024631

> <r_epik_State_Penalty>
0.00162428

> <r_epik_Charging_Adjusted_Penalty>
0.00162428

> <i_epik_Tot_Q>
0

> <i_epik_Tot_abs_Q>
0

> <r_epik_Metal_State_Penalty>
-0

> <b_epik_Metal_Only>
0

> <s_lp_Force_Field>
OPLS_2005

> <r_lp_Energy>
52.7235

> <b_lp_Chiralities_Consistent>
1

> <s_lp_Variant>
AV-unprocessed.smi:246-8

> <Gold.Version>
5.8.1

> <Gold.Id.Protein>
6NUR|6NUR_protein|mol2

> <Gold.PLP.Fitness>
47.6201

> <Gold.PLP.PLP>
-46.5309

> <Gold.PLP.part.hbond>
-3.0000

> <Gold.PLP.part.metal>
0.0000

> <Gold.PLP.part.buried>
-6.5333

> <Gold.PLP.part.nonpolar>
-36.6611

> <Gold.PLP.part.repulsive>
0.3835

> <Gold.PLP.ligand.clash>
0.0000

> <Gold.PLP.ligand.torsion>
2.1429

> <Gold.PLP.Chemscore.Hbond>
1.6063

> <Gold.PLP.Chemscore.CHOScore>
0.0000

> <Gold.PLP.Chemscore.Metal>
0.0000

> <Gold.Chemscore.Hbonds>
donor molecule, donor type, donor heavy atom, donor atom, acceptor molecule, acceptor atom, score
      P1  H  7997  8010       L1    22  0.14
      P1  H 10752 10763       L1    12  0.70

> <Gold.PLP.Chemscore.Internal.Correction>
0.5561

> <Gold.Rescore>
     Score         DG    S(hbond)    S(metal)    S(lipo)     H(rot)  DE(clash)    DE(int)     intcor
      9.97     -14.27       1.25        0.00     107.42       3.10       0.60       3.70       ----

> <Gold.Chemscore.Fitness>
9.9689

> <Gold.Chemscore.DG>
-14.2738

> <Gold.Chemscore.ZeroCoef>
-5.4800

> <Gold.Chemscore.Hbond>
1.2481

> <Gold.Chemscore.Metal>
0.0000

> <Gold.Chemscore.Lipo>
107.4180

> <Gold.Chemscore.Internal_Hbond>
0.0000

> <Gold.Chemscore.DEClash>
0.6003

> <Gold.Chemscore.DEInternal>
3.7046

> <Gold.Chemscore.Rot>
3.1026

> <Gold.Chemscore.Internal.Correction>
   9.000000E+99

> <Gold.Chemscore.Hbonds>
donor molecule, donor type, donor heavy atom, donor atom, acceptor molecule, acceptor atom, score
      P1  H  7997  8010       L1    22  0.13
      P1  H 10752 10763       L1    12  0.07

> <Gold.Chemscore.Hbond.Weighted>
-4.1685

> <Gold.Chemscore.Metal.Weighted>
-0.0000

> <Gold.Chemscore.Lipo.Weighted>
-12.5679

> <Gold.Chemscore.Internal_Hbond.Weighted>
0.0000

> <Gold.Chemscore.DEClash.Weighted>
0.6003

> <Gold.Chemscore.DEInternal.Weighted>
3.7046

> <Gold.Chemscore.Rot.Weighted>
7.9426

> <Gold.Chemscore.Internal.Correction.Weighted>
   9.000000E+99

> <Gold.Protein.RotatedTorsions>
[ 6907 6896 6895 6894 ] final  -34.02 input  -60.11 | X-H torsion
[ 7974 7965 7964 7962 ] final  150.58 input  175.53 | X-H torsion
[ 8008 7997 7996 7995 ] final   20.15 input   59.86 | X-H torsion
[ 10167 10162 10161 10158 ] final  101.29 input  -65.29 | X-H torsion
[ 10718 10713 10712 10709 ] final   52.11 input   66.30 | X-H torsion
[ 10763 10752 10751 10750 ] final   46.17 input  -60.55 | X-H torsion
[ 11005 11000 10999 10996 ] final  -93.83 input  -57.11 | X-H torsion

> <Gold.Protein.ActiveResidues>
 VAL166  LYS551  ARG553  GLY616  TRP617  ASP618  TYR619  PRO620  LYS621  CYS622 
 ASP623  PHE694  ASN695  SER759  ASP760  ASP761  ALA762  ILE779  LEU786  VAL792 
 PHE793  MET794  SER795  GLU796  ALA797  LYS798  CYS799  TRP800  GLU811  SER814 

> <Gold.Protein.RotatedAtoms>
  151.0580  134.9717  159.8245 H   0  0  0  0  0  0  0  0  0  0  0  0  # atno 6907 bound_to 6896
  152.5391  134.2453  159.8888 H   0  0  0  0  0  0  0  0  0  0  0  0  # atno 6908 bound_to 6896
  151.2472  133.4326  159.2643 H   0  0  0  0  0  0  0  0  0  0  0  0  # atno 6909 bound_to 6896
  144.8354  139.6427  143.6040 H   0  0  0  0  0  0  0  0  0  0  0  0  # atno 7974 bound_to 7965
  154.9313  140.3040  155.5166 H   0  0  0  0  0  0  0  0  0  0  0  0  # atno 8008 bound_to 7997
  156.3003  140.2353  156.4310 H   0  0  0  0  0  0  0  0  0  0  0  0  # atno 8009 bound_to 7997
  154.8235  140.0422  157.1416 H   0  0  0  0  0  0  0  0  0  0  0  0  # atno 8010 bound_to 7997
  139.7451  144.7000  151.0517 H   0  0  0  0  0  0  0  0  0  0  0  0  # atno 10167 bound_to 10162
  157.5044  130.8459  149.8356 H   0  0  0  0  0  0  0  0  0  0  0  0  # atno 10718 bound_to 10713
  152.9814  135.6016  154.3556 H   0  0  0  0  0  0  0  0  0  0  0  0  # atno 10763 bound_to 10752
  154.3241  135.2769  155.2506 H   0  0  0  0  0  0  0  0  0  0  0  0  # atno 10764 bound_to 10752
  154.4660  135.5954  153.6344 H   0  0  0  0  0  0  0  0  0  0  0  0  # atno 10765 bound_to 10752
  141.1487  133.7915  157.0214 H   0  0  0  0  0  0  0  0  0  0  0  0  # atno 11005 bound_to 11000
  146.2653  139.6505  142.9334 LP  0  0  0  0  0  0  0  0  0  0  0  0  # atno 17320 bound_to 7965
  145.4807  141.0438  143.2647 LP  0  0  0  0  0  0  0  0  0  0  0  0  # atno 17321 bound_to 7965
  140.7791  143.4877  150.9934 LP  0  0  0  0  0  0  0  0  0  0  0  0  # atno 17342 bound_to 10162
  139.8565  143.7370  152.3175 LP  0  0  0  0  0  0  0  0  0  0  0  0  # atno 17343 bound_to 10162
  156.0249  130.3783  150.1852 LP  0  0  0  0  0  0  0  0  0  0  0  0  # atno 17370 bound_to 10713
  157.0042  130.9931  151.3383 LP  0  0  0  0  0  0  0  0  0  0  0  0  # atno 17371 bound_to 10713
  140.0813  134.9646  157.1628 LP  0  0  0  0  0  0  0  0  0  0  0  0  # atno 17394 bound_to 11000
  140.3573  134.2533  155.7191 LP  0  0  0  0  0  0  0  0  0  0  0  0  # atno 17395 bound_to 11000

$$$$
