AV-unprocessed.smi:2072|AV-procd|sdf|8449|dock3
  -GOLD-   2272011143D 1   1.00000     0.00000
 Structure written by MMmdl.
 40 42  0  0  0  0  0  0  0  0  2 V2000
  145.6604  138.0845  154.1321 O   0  0  0  0  0  0  0  0  0  0  0  0
  146.6254  137.5777  153.5621 C   0  0  0  0  0  0  0  0  0  0  0  0
  147.8538  138.1162  153.4701 N   0  0  0  0  0  0  0  0  0  0  0  0
  148.3384  139.3533  153.9790 C   0  0  0  0  0  0  0  0  0  0  0  0
  147.5701  140.5374  154.1049 C   0  0  0  0  0  0  0  0  0  0  0  0
  148.1840  141.6953  154.6203 C   0  0  0  0  0  0  0  0  0  0  0  0
  149.5419  141.6315  154.9872 C   0  0  0  0  0  0  0  0  0  0  0  0
  150.2882  140.5139  154.8667 N   0  0  0  0  0  0  0  0  0  0  0  0
  149.6930  139.4080  154.3719 C   0  0  0  0  0  0  0  0  0  0  0  0
  146.5748  136.3852  152.9519 N   0  0  0  0  0  0  0  0  0  0  0  0
  145.3897  135.5370  152.8607 C   0  0  1  0  0  0  0  0  0  0  0  0
  144.0980  136.3300  152.7023 C   0  0  0  0  0  0  0  0  0  0  0  0
  143.1355  135.2763  152.1507 C   0  0  0  0  0  0  0  0  0  0  0  0
  143.9564  134.3670  151.3173 N   0  3  2  0  0  0  0  0  0  0  0  0
  143.5500  132.9417  151.3814 C   0  0  0  0  0  0  0  0  0  0  0  0
  144.4345  132.0767  150.4635 C   0  0  0  0  0  0  0  0  0  0  0  0
  145.9428  132.3500  150.6410 C   0  0  0  0  0  0  0  0  0  0  0  0
  146.2259  133.3437  151.7774 C   0  0  0  0  0  0  0  0  0  0  0  0
  145.3925  134.6357  151.6141 C   0  0  2  0  0  0  0  0  0  0  0  0
  148.5444  137.5545  152.9940 H   0  0  0  0  0  0  0  0  0  0  0  0
  146.5334  140.5933  153.8146 H   0  0  0  0  0  0  0  0  0  0  0  0
  147.6260  142.6133  154.7298 H   0  0  0  0  0  0  0  0  0  0  0  0
  150.0421  142.5019  155.3854 H   0  0  0  0  0  0  0  0  0  0  0  0
  150.3224  138.5340  154.2884 H   0  0  0  0  0  0  0  0  0  0  0  0
  147.4157  136.0426  152.5104 H   0  0  0  0  0  0  0  0  0  0  0  0
  145.2950  134.9237  153.7598 H   0  0  0  0  0  0  0  0  0  0  0  0
  143.7512  136.7712  153.6373 H   0  0  0  0  0  0  0  0  0  0  0  0
  144.2283  137.1330  151.9750 H   0  0  0  0  0  0  0  0  0  0  0  0
  142.6933  134.7239  152.9815 H   0  0  0  0  0  0  0  0  0  0  0  0
  142.3216  135.7166  151.5744 H   0  0  0  0  0  0  0  0  0  0  0  0
  143.6199  132.5872  152.4111 H   0  0  0  0  0  0  0  0  0  0  0  0
  142.5040  132.8464  151.0884 H   0  0  0  0  0  0  0  0  0  0  0  0
  144.2238  131.0232  150.6502 H   0  0  0  0  0  0  0  0  0  0  0  0
  144.1611  132.2565  149.4230 H   0  0  0  0  0  0  0  0  0  0  0  0
  146.4762  131.4162  150.8212 H   0  0  0  0  0  0  0  0  0  0  0  0
  146.3450  132.7524  149.7105 H   0  0  0  0  0  0  0  0  0  0  0  0
  146.0021  132.8692  152.7340 H   0  0  0  0  0  0  0  0  0  0  0  0
  147.2891  133.5833  151.8010 H   0  0  0  0  0  0  0  0  0  0  0  0
  145.7746  135.1997  150.7614 H   0  0  0  0  0  0  0  0  0  0  0  0
  143.8211  134.6544  150.3584 H   0  0  0  0  0  0  0  0  0  0  0  0
  1  2  2  0  0  0  0
  2  3  1  0  0  0  0
  2 10  1  0  0  0  0
  3  4  1  0  0  0  0
  3 20  1  0  0  0  0
  4  9  1  0  0  0  0
  4  5  2  0  0  0  0
  5  6  1  0  0  0  0
  5 21  1  0  0  0  0
  6  7  2  0  0  0  0
  6 22  1  0  0  0  0
  7  8  1  0  0  0  0
  7 23  1  0  0  0  0
  8  9  2  0  0  0  0
  9 24  1  0  0  0  0
 10 11  1  0  0  0  0
 10 25  1  0  0  0  0
 11 19  1  0  0  0  0
 11 12  1  0  0  0  0
 11 26  1  0  0  0  0
 12 13  1  0  0  0  0
 12 27  1  0  0  0  0
 12 28  1  0  0  0  0
 13 14  1  0  0  0  0
 13 29  1  0  0  0  0
 13 30  1  0  0  0  0
 14 19  1  0  0  0  0
 14 15  1  0  0  0  0
 14 40  1  0  0  0  0
 15 16  1  0  0  0  0
 15 31  1  0  0  0  0
 15 32  1  0  0  0  0
 16 17  1  0  0  0  0
 16 33  1  0  0  0  0
 16 34  1  0  0  0  0
 17 18  1  0  0  0  0
 17 35  1  0  0  0  0
 17 36  1  0  0  0  0
 18 19  1  0  0  0  0
 18 37  1  0  0  0  0
 18 38  1  0  0  0  0
 19 39  1  0  0  0  0
M  CHG  1  14   1
M  END
> <s_m_source_file>
AV-unprocessed.smi

> <i_m_source_file_index>
2072

> <i_lp_mmshare_version>
43012

> <i_f3d_flags>
0

> <s_epik_input>
W0NIMl0xW0NIMl1bQ0gyXVtDSDJdW0NASF0oTjEyKVtDQEBIXShbQ0gyXVtDSDJdMilbTkhdQyg9TylbTkhdYzNbY0hdW2NIXVtjSF1uW2NIXTM=

> <s_epik_cmdline>
J2VwaWtfcHl0aG9uJywgJy1waCcsICc3LjAnLCAnLXRuJywgJzgnLCAnLW1hJywgJzIwMCcsICctbWV0YWxfYmluZGluZycsICctaW1hZScsICc8aW5maWxlLm1hZT4nLCAnLW9tYWUnLCAnPG91dGZpbGUubWFlPic=

> <r_lp_tautomer_probability>
1

> <r_epik_Ionization_Penalty>
0.00482425

> <r_epik_Ionization_Penalty_Charging>
0.000974069

> <r_epik_Ionization_Penalty_Neutral>
0.00385018

> <r_epik_State_Penalty>
-0

> <r_epik_Charging_Adjusted_Penalty>
0.000974069

> <i_epik_Tot_Q>
1

> <i_epik_Tot_abs_Q>
1

> <r_epik_Metal_State_Penalty>
-0

> <b_epik_Metal_Only>
0

> <s_lp_Force_Field>
OPLS_2005

> <r_lp_Energy>
43.341

> <b_lp_Chiralities_Consistent>
1

> <s_lp_Variant>
AV-unprocessed.smi:2072-8

> <Gold.Version>
5.8.1

> <Gold.Id.Protein>
6NUR|6NUR_protein|mol2

> <Gold.PLP.Fitness>
42.9710

> <Gold.PLP.PLP>
-32.6287

> <Gold.PLP.part.hbond>
-3.0000

> <Gold.PLP.part.metal>
0.0000

> <Gold.PLP.part.buried>
-4.3667

> <Gold.PLP.part.nonpolar>
-25.9547

> <Gold.PLP.part.repulsive>
0.2460

> <Gold.PLP.ligand.clash>
0.0000

> <Gold.PLP.ligand.torsion>
0.5722

> <Gold.PLP.Chemscore.Hbond>
2.9760

> <Gold.PLP.Chemscore.CHOScore>
0.8504

> <Gold.PLP.Chemscore.Metal>
0.0000

> <Gold.Chemscore.Hbonds>
donor molecule, donor type, donor heavy atom, donor atom, acceptor molecule, acceptor atom, score
      L1  H     3    20       P1  7948  1.00
      L1  H    10    25       P1  7948  1.00
      P1  H  7989  7998       L1     8  0.96
      L1  C     7    23       P1  8028  0.85

> <Gold.PLP.Chemscore.Internal.Correction>
0.0074

> <Gold.Rescore>
     Score         DG    S(hbond)    S(metal)    S(lipo)     H(rot)  DE(clash)    DE(int)     intcor
     18.33     -20.65       2.32        0.00      85.44       1.00       0.29       2.03       ----

> <Gold.Chemscore.Fitness>
18.3307

> <Gold.Chemscore.DG>
-20.6506

> <Gold.Chemscore.ZeroCoef>
-5.4800

> <Gold.Chemscore.Hbond>
2.3157

> <Gold.Chemscore.Metal>
0.0000

> <Gold.Chemscore.Lipo>
85.4364

> <Gold.Chemscore.Internal_Hbond>
0.0000

> <Gold.Chemscore.DEClash>
0.2926

> <Gold.Chemscore.DEInternal>
2.0273

> <Gold.Chemscore.Rot>
1.0000

> <Gold.Chemscore.Internal.Correction>
   9.000000E+99

> <Gold.Chemscore.Hbonds>
donor molecule, donor type, donor heavy atom, donor atom, acceptor molecule, acceptor atom, score
      L1  H     3    20       P1  7948  0.95
      L1  H    10    25       P1  7948  0.97
      P1  H  7989  7998       L1     8  0.18

> <Gold.Chemscore.Hbond.Weighted>
-7.7346

> <Gold.Chemscore.Metal.Weighted>
-0.0000

> <Gold.Chemscore.Lipo.Weighted>
-9.9961

> <Gold.Chemscore.Internal_Hbond.Weighted>
0.0000

> <Gold.Chemscore.DEClash.Weighted>
0.2926

> <Gold.Chemscore.DEInternal.Weighted>
2.0273

> <Gold.Chemscore.Rot.Weighted>
2.5600

> <Gold.Chemscore.Internal.Correction.Weighted>
   9.000000E+99

> <Gold.Protein.RotatedTorsions>
[ 6907 6896 6895 6894 ] final   34.63 input  -60.11 | X-H torsion
[ 7974 7965 7964 7962 ] final  153.19 input  175.53 | X-H torsion
[ 8008 7997 7996 7995 ] final -104.64 input   59.86 | X-H torsion
[ 10167 10162 10161 10158 ] final  -20.03 input  -65.29 | X-H torsion
[ 10718 10713 10712 10709 ] final -167.20 input   66.30 | X-H torsion
[ 10763 10752 10751 10750 ] final  -12.82 input  -60.55 | X-H torsion
[ 11005 11000 10999 10996 ] final  152.32 input  -57.11 | X-H torsion

> <Gold.Protein.ActiveResidues>
 VAL166  LYS551  ARG553  GLY616  TRP617  ASP618  TYR619  PRO620  LYS621  CYS622 
 ASP623  PHE694  ASN695  SER759  ASP760  ASP761  ALA762  ILE779  LEU786  VAL792 
 PHE793  MET794  SER795  GLU796  ALA797  LYS798  CYS799  TRP800  GLU811  SER814 

> <Gold.Protein.RotatedAtoms>
  152.1050  134.9315  160.0568 H   0  0  0  0  0  0  0  0  0  0  0  0  # atno 6907 bound_to 6896
  152.0515  133.4016  159.4387 H   0  0  0  0  0  0  0  0  0  0  0  0  # atno 6908 bound_to 6896
  150.6841  134.3223  159.4835 H   0  0  0  0  0  0  0  0  0  0  0  0  # atno 6909 bound_to 6896
  144.8171  139.6767  143.6116 H   0  0  0  0  0  0  0  0  0  0  0  0  # atno 7974 bound_to 7965
  154.8882  140.0417  157.1823 H   0  0  0  0  0  0  0  0  0  0  0  0  # atno 8008 bound_to 7997
  154.8568  140.2938  155.5543 H   0  0  0  0  0  0  0  0  0  0  0  0  # atno 8009 bound_to 7997
  156.2997  140.2454  156.3536 H   0  0  0  0  0  0  0  0  0  0  0  0  # atno 8010 bound_to 7997
  140.7273  143.4761  151.0180 H   0  0  0  0  0  0  0  0  0  0  0  0  # atno 10167 bound_to 10162
  156.6789  130.9114  151.3054 H   0  0  0  0  0  0  0  0  0  0  0  0  # atno 10718 bound_to 10713
  153.5041  135.7017  153.5816 H   0  0  0  0  0  0  0  0  0  0  0  0  # atno 10763 bound_to 10752
  153.3934  135.3890  155.1939 H   0  0  0  0  0  0  0  0  0  0  0  0  # atno 10764 bound_to 10752
  154.8708  135.3864  154.4515 H   0  0  0  0  0  0  0  0  0  0  0  0  # atno 10765 bound_to 10752
  140.1297  134.8810  157.2187 H   0  0  0  0  0  0  0  0  0  0  0  0  # atno 11005 bound_to 11000
  146.2475  139.6129  142.9449 LP  0  0  0  0  0  0  0  0  0  0  0  0  # atno 17320 bound_to 7965
  145.5188  141.0433  143.2447 LP  0  0  0  0  0  0  0  0  0  0  0  0  # atno 17321 bound_to 7965
  139.8457  143.7505  152.3179 LP  0  0  0  0  0  0  0  0  0  0  0  0  # atno 17342 bound_to 10162
  139.7669  144.7489  151.0281 LP  0  0  0  0  0  0  0  0  0  0  0  0  # atno 17343 bound_to 10162
  157.7051  130.9376  150.0905 LP  0  0  0  0  0  0  0  0  0  0  0  0  # atno 17370 bound_to 10713
  156.1883  130.3653  149.8944 LP  0  0  0  0  0  0  0  0  0  0  0  0  # atno 17371 bound_to 10713
  140.2858  134.3298  155.7329 LP  0  0  0  0  0  0  0  0  0  0  0  0  # atno 17394 bound_to 11000
  141.2168  133.7505  156.9430 LP  0  0  0  0  0  0  0  0  0  0  0  0  # atno 17395 bound_to 11000

$$$$
