AV-unprocessed.smi:38|AV-procd|sdf|348|dock3
  -GOLD-   2262016183D 1   1.00000     0.00000
 Structure written by MMmdl.
 27 28  0  0  0  0  0  0  0  0  2 V2000
  153.3986  143.3791  159.8394 O   0  0  0  0  0  0  0  0  0  0  0  0
  152.5953  142.7361  159.1651 C   0  0  0  0  0  0  0  0  0  0  0  0
  152.6260  141.3741  159.0801 N   0  5  0  0  0  0  0  0  0  0  0  0
  151.7316  140.6613  158.3338 C   0  0  0  0  0  0  0  0  0  0  0  0
  151.7671  139.4350  158.2319 O   0  0  0  0  0  0  0  0  0  0  0  0
  150.7137  141.3613  157.6314 N   0  0  0  0  0  0  0  0  0  0  0  0
  149.7242  140.5911  156.7911 C   0  0  2  0  0  0  0  0  0  0  0  0
  150.3508  140.1434  155.4749 C   0  0  0  0  0  0  0  0  0  0  0  0
  149.1595  140.1689  154.5223 C   0  0  2  0  0  0  0  0  0  0  0  0
  149.5056  140.8534  153.3322 O   0  0  0  0  0  0  0  0  0  0  0  0
  148.0168  140.8351  155.3256 C   0  0  2  0  0  0  0  0  0  0  0  0
  147.1865  141.8951  154.5778 C   0  0  0  0  0  0  0  0  0  0  0  0
  148.0335  142.8928  154.0485 O   0  0  0  0  0  0  0  0  0  0  0  0
  148.6714  141.4260  156.4407 O   0  0  0  0  0  0  0  0  0  0  0  0
  150.6698  142.7441  157.6821 C   0  0  0  0  0  0  0  0  0  0  0  0
  151.5602  143.4445  158.4141 C   0  0  0  0  0  0  0  0  0  0  0  0
  151.4945  144.7869  158.4436 F   0  0  0  0  0  0  0  0  0  0  0  0
  149.3381  139.7713  157.4001 H   0  0  0  0  0  0  0  0  0  0  0  0
  148.8694  139.1530  154.2522 H   0  0  0  0  0  0  0  0  0  0  0  0
  147.3620  140.0440  155.6970 H   0  0  0  0  0  0  0  0  0  0  0  0
  151.1162  140.8624  155.1762 H   0  0  0  0  0  0  0  0  0  0  0  0
  150.8103  139.1601  155.5802 H   0  0  0  0  0  0  0  0  0  0  0  0
  149.3373  140.2833  152.5976 H   0  0  0  0  0  0  0  0  0  0  0  0
  146.5889  141.4437  153.7852 H   0  0  0  0  0  0  0  0  0  0  0  0
  146.5006  142.3945  155.2622 H   0  0  0  0  0  0  0  0  0  0  0  0
  148.4583  143.3375  154.7659 H   0  0  0  0  0  0  0  0  0  0  0  0
  149.9168  143.2804  157.1238 H   0  0  0  0  0  0  0  0  0  0  0  0
  1  2  2  0  0  0  0
  2 16  1  0  0  0  0
  2  3  1  0  0  0  0
  3  4  1  0  0  0  0
  4  5  2  0  0  0  0
  4  6  1  0  0  0  0
  6  7  1  0  0  0  0
  6 15  1  0  0  0  0
  7 18  1  0  0  0  0
  7 14  1  0  0  0  0
  7  8  1  0  0  0  0
  8  9  1  0  0  0  0
  8 21  1  0  0  0  0
  8 22  1  0  0  0  0
  9 19  1  0  0  0  0
  9 10  1  0  0  0  0
  9 11  1  0  0  0  0
 10 23  1  0  0  0  0
 11 20  1  0  0  0  0
 11 12  1  0  0  0  0
 11 14  1  0  0  0  0
 12 13  1  0  0  0  0
 12 24  1  0  0  0  0
 12 25  1  0  0  0  0
 13 26  1  0  0  0  0
 15 16  2  0  0  0  0
 15 27  1  0  0  0  0
 16 17  1  0  0  0  0
M  CHG  1   3  -1
M  END
> <s_m_source_file>
AV-unprocessed.smi

> <i_m_source_file_index>
38

> <i_lp_mmshare_version>
43012

> <i_f3d_flags>
0

> <s_epik_input>
Tz1jMVtuSF1jKD1PKW4oW2NIXWMxRilbQ0BIXTJbQ0gyXVtDQEhdKFtPSF0pW0NASF0oTzIpW0NIMl1bT0hd

> <s_epik_cmdline>
J2VwaWtfcHl0aG9uJywgJy1waCcsICc3LjAnLCAnLXRuJywgJzgnLCAnLW1hJywgJzIwMCcsICctbWV0YWxfYmluZGluZycsICctaW1hZScsICc8aW5maWxlLm1hZT4nLCAnLW9tYWUnLCAnPG91dGZpbGUubWFlPic=

> <r_epik_Ionization_Penalty>
1.68146

> <r_epik_Ionization_Penalty_Charging>
3.4211e-08

> <r_epik_Ionization_Penalty_Neutral>
1.68146

> <r_epik_State_Penalty>
1.78593

> <r_epik_Charging_Adjusted_Penalty>
1.78593

> <i_epik_Tot_Q>
-1

> <i_epik_Tot_abs_Q>
1

> <r_epik_Metal_State_Penalty>
0.0113696

> <b_epik_Metal_Only>
0

> <s_epik_Chemistry_Notes>
This compound contains an acetal/aminal-like group ( X-CH(R)-Y where X, Y are N, S, or O) that may be acid/base labile, releasing an aldehyde.

> <s_lp_Force_Field>
OPLS_2005

> <r_lp_Energy>
42.0277

> <b_lp_Chiralities_Consistent>
1

> <s_lp_Variant>
AV-unprocessed.smi:38-14

> <Gold.Version>
5.8.1

> <Gold.Id.Protein>
6NUR|6NUR_protein|mol2

> <Gold.PLP.Fitness>
43.5929

> <Gold.PLP.PLP>
-33.0456

> <Gold.PLP.part.hbond>
-5.2871

> <Gold.PLP.part.metal>
0.0000

> <Gold.PLP.part.buried>
-4.4275

> <Gold.PLP.part.nonpolar>
-24.0041

> <Gold.PLP.part.repulsive>
0.0996

> <Gold.PLP.ligand.clash>
0.0000

> <Gold.PLP.ligand.torsion>
0.4124

> <Gold.PLP.Chemscore.Hbond>
2.7835

> <Gold.PLP.Chemscore.CHOScore>
1.0000

> <Gold.PLP.Chemscore.Metal>
0.0000

> <Gold.Chemscore.Hbonds>
donor molecule, donor type, donor heavy atom, donor atom, acceptor molecule, acceptor atom, score
      L1  H    10    23       P1  7957  0.79
      L1  H    13    26       P1  8028  1.00
      P1  H  7989  7998       L1    10  0.22
      P1  H  8011  8017       L1    10  0.80
      L1  C    15    27       P1  8028  1.00

> <Gold.PLP.Chemscore.Internal.Correction>
0.0216

> <Gold.Rescore>
     Score         DG    S(hbond)    S(metal)    S(lipo)     H(rot)  DE(clash)    DE(int)     intcor
      8.90      -9.31       1.88        0.00      42.04       2.88       0.01       0.39       ----

> <Gold.Chemscore.Fitness>
8.9047

> <Gold.Chemscore.DG>
-9.3067

> <Gold.Chemscore.ZeroCoef>
-5.4800

> <Gold.Chemscore.Hbond>
1.8815

> <Gold.Chemscore.Metal>
0.0000

> <Gold.Chemscore.Lipo>
42.0435

> <Gold.Chemscore.Internal_Hbond>
0.0000

> <Gold.Chemscore.DEClash>
0.0073

> <Gold.Chemscore.DEInternal>
0.3947

> <Gold.Chemscore.Rot>
2.8815

> <Gold.Chemscore.Internal.Correction>
   9.000000E+99

> <Gold.Chemscore.Hbonds>
donor molecule, donor type, donor heavy atom, donor atom, acceptor molecule, acceptor atom, score
      L1  H    10    23       P1  7957  0.75
      L1  H    13    26       P1  8028  0.96
      P1  H  7989  7998       L1    10  0.03
      P1  H  8011  8017       L1    10  0.12

> <Gold.Chemscore.Hbond.Weighted>
-6.2841

> <Gold.Chemscore.Metal.Weighted>
-0.0000

> <Gold.Chemscore.Lipo.Weighted>
-4.9191

> <Gold.Chemscore.Internal_Hbond.Weighted>
0.0000

> <Gold.Chemscore.DEClash.Weighted>
0.0073

> <Gold.Chemscore.DEInternal.Weighted>
0.3947

> <Gold.Chemscore.Rot.Weighted>
7.3765

> <Gold.Chemscore.Internal.Correction.Weighted>
   9.000000E+99

> <Gold.Protein.RotatedTorsions>
[ 6907 6896 6895 6894 ] final -141.03 input  -60.11 | X-H torsion
[ 7974 7965 7964 7962 ] final  145.80 input  175.53 | X-H torsion
[ 8008 7997 7996 7995 ] final  -80.07 input   59.86 | X-H torsion
[ 10167 10162 10161 10158 ] final  -22.39 input  -65.29 | X-H torsion
[ 10718 10713 10712 10709 ] final  134.96 input   66.30 | X-H torsion
[ 10763 10752 10751 10750 ] final -170.72 input  -60.55 | X-H torsion
[ 11005 11000 10999 10996 ] final  -75.69 input  -57.11 | X-H torsion

> <Gold.Protein.ActiveResidues>
 VAL166  LYS551  ARG553  GLY616  TRP617  ASP618  TYR619  PRO620  LYS621  CYS622 
 ASP623  PHE694  ASN695  SER759  ASP760  ASP761  ALA762  ILE779  LEU786  VAL792 
 PHE793  MET794  SER795  GLU796  ALA797  LYS798  CYS799  TRP800  GLU811  SER814 

> <Gold.Protein.RotatedAtoms>
  151.0685  133.5485  159.2628 H   0  0  0  0  0  0  0  0  0  0  0  0  # atno 6907 bound_to 6896
  151.2434  135.0596  159.9044 H   0  0  0  0  0  0  0  0  0  0  0  0  # atno 6908 bound_to 6896
  152.5408  134.0456  159.8141 H   0  0  0  0  0  0  0  0  0  0  0  0  # atno 6909 bound_to 6896
  144.8723  139.5827  143.5881 H   0  0  0  0  0  0  0  0  0  0  0  0  # atno 7974 bound_to 7965
  154.5847  140.0668  156.9154 H   0  0  0  0  0  0  0  0  0  0  0  0  # atno 8008 bound_to 7997
  155.2400  140.3344  155.4275 H   0  0  0  0  0  0  0  0  0  0  0  0  # atno 8009 bound_to 7997
  156.2214  140.1800  156.7452 H   0  0  0  0  0  0  0  0  0  0  0  0  # atno 8010 bound_to 7997
  140.7286  143.4539  151.0476 H   0  0  0  0  0  0  0  0  0  0  0  0  # atno 10167 bound_to 10162
  157.4620  131.1074  150.9909 H   0  0  0  0  0  0  0  0  0  0  0  0  # atno 10718 bound_to 10713
  154.6384  135.2895  155.0133 H   0  0  0  0  0  0  0  0  0  0  0  0  # atno 10763 bound_to 10752
  154.1268  135.6539  153.4918 H   0  0  0  0  0  0  0  0  0  0  0  0  # atno 10764 bound_to 10752
  153.0314  135.5301  154.7241 H   0  0  0  0  0  0  0  0  0  0  0  0  # atno 10765 bound_to 10752
  141.1648  133.6956  156.7556 H   0  0  0  0  0  0  0  0  0  0  0  0  # atno 11005 bound_to 11000
  146.2939  139.7219  142.9141 LP  0  0  0  0  0  0  0  0  0  0  0  0  # atno 17320 bound_to 7965
  145.4107  141.0396  143.3018 LP  0  0  0  0  0  0  0  0  0  0  0  0  # atno 17321 bound_to 7965
  139.8218  143.7810  152.3177 LP  0  0  0  0  0  0  0  0  0  0  0  0  # atno 17342 bound_to 10162
  139.7895  144.7415  150.9975 LP  0  0  0  0  0  0  0  0  0  0  0  0  # atno 17343 bound_to 10162
  157.0703  130.5861  149.5401 LP  0  0  0  0  0  0  0  0  0  0  0  0  # atno 17370 bound_to 10713
  156.0033  130.5115  150.7740 LP  0  0  0  0  0  0  0  0  0  0  0  0  # atno 17371 bound_to 10713
  140.2572  134.8495  157.3724 LP  0  0  0  0  0  0  0  0  0  0  0  0  # atno 17394 bound_to 11000
  140.1646  134.4685  155.7872 LP  0  0  0  0  0  0  0  0  0  0  0  0  # atno 17395 bound_to 11000

$$$$
