AV-unprocessed.smi:104|AV-procd|sdf|998|dock7
  -GOLD-   2262017583D 1   1.00000     0.00000
 Structure written by MMmdl.
 47 49  0  0  0  0  0  0  0  0  1 V2000
  151.9657  141.4909  159.0132 C   0  0  0  0  0  0  0  0  0  0  0  0
  151.9354  140.0964  158.4016 C   0  0  0  0  0  0  0  0  0  0  0  0
  152.8543  139.6898  157.6915 O   0  0  0  0  0  0  0  0  0  0  0  0
  150.8229  139.4167  158.7318 O   0  0  0  0  0  0  0  0  0  0  0  0
  150.6036  138.0976  158.2489 C   0  0  0  0  0  0  0  0  0  0  0  0
  149.3022  137.5150  158.8288 C   0  0  1  0  0  0  0  0  0  0  0  0
  148.1607  138.1270  158.2542 O   0  0  0  0  0  0  0  0  0  0  0  0
  147.0598  137.3510  158.5989 C   0  0  1  0  0  0  0  0  0  0  0  0
  146.0247  137.4991  157.5343 N   0  0  0  0  0  0  0  0  0  0  0  0
  144.6995  137.8535  157.6470 C   0  0  0  0  0  0  0  0  0  0  0  0
  143.8840  138.2395  159.3243 Br  0  0  0  0  0  0  0  0  0  0  0  0
  144.0025  137.9043  156.5461 N   0  0  0  0  0  0  0  0  0  0  0  0
  144.9333  137.5483  155.5775 C   0  0  0  0  0  0  0  0  0  0  0  0
  144.8804  137.3910  154.1697 C   0  0  0  0  0  0  0  0  0  0  0  0
  143.7663  137.5925  153.4530 N   0  0  0  0  0  0  0  0  0  0  0  0
  146.0067  137.0186  153.5171 N   0  0  0  0  0  0  0  0  0  0  0  0
  147.1320  136.8109  154.2087 C   0  0  0  0  0  0  0  0  0  0  0  0
  147.3359  136.9196  155.5240 N   0  0  0  0  0  0  0  0  0  0  0  0
  146.1993  137.2945  156.1812 C   0  0  0  0  0  0  0  0  0  0  0  0
  147.5346  135.8916  158.6895 C   0  0  2  0  0  0  0  0  0  0  0  0
  147.1444  135.3037  159.9229 O   0  0  0  0  0  0  0  0  0  0  0  0
  147.3826  135.9460  161.0798 C   0  0  0  0  0  0  0  0  0  0  0  0
  146.9364  135.1414  162.2930 C   0  0  0  0  0  0  0  0  0  0  0  0
  147.9069  137.0533  161.1998 O   0  0  0  0  0  0  0  0  0  0  0  0
  149.0560  136.0144  158.6248 C   0  0  1  0  0  0  0  0  0  0  0  0
  149.5205  135.5800  157.3518 O   0  0  0  0  0  0  0  0  0  0  0  0
  149.8083  134.2852  157.1359 C   0  0  0  0  0  0  0  0  0  0  0  0
  150.2333  134.0204  155.6982 C   0  0  0  0  0  0  0  0  0  0  0  0
  149.7465  133.3805  157.9683 O   0  0  0  0  0  0  0  0  0  0  0  0
  152.3611  141.4483  160.0278 H   0  0  0  0  0  0  0  0  0  0  0  0
  150.9626  141.9164  159.0486 H   0  0  0  0  0  0  0  0  0  0  0  0
  152.5990  142.1527  158.4218 H   0  0  0  0  0  0  0  0  0  0  0  0
  150.4956  138.1787  157.1673 H   0  0  0  0  0  0  0  0  0  0  0  0
  151.4576  137.4398  158.4159 H   0  0  0  0  0  0  0  0  0  0  0  0
  149.2630  137.7366  159.8973 H   0  0  0  0  0  0  0  0  0  0  0  0
  146.6106  137.7253  159.5188 H   0  0  0  0  0  0  0  0  0  0  0  0
  142.9133  137.8698  153.9172 H   0  0  0  0  0  0  0  0  0  0  0  0
  143.7810  137.4653  152.4514 H   0  0  0  0  0  0  0  0  0  0  0  0
  147.9917  136.5151  153.6258 H   0  0  0  0  0  0  0  0  0  0  0  0
  147.1594  135.3129  157.8433 H   0  0  0  0  0  0  0  0  0  0  0  0
  147.5409  134.2396  162.3908 H   0  0  0  0  0  0  0  0  0  0  0  0
  145.8908  134.8502  162.1921 H   0  0  0  0  0  0  0  0  0  0  0  0
  147.0446  135.7304  163.2039 H   0  0  0  0  0  0  0  0  0  0  0  0
  149.5519  135.4424  159.4111 H   0  0  0  0  0  0  0  0  0  0  0  0
  151.1648  134.5421  155.4784 H   0  0  0  0  0  0  0  0  0  0  0  0
  149.4669  134.3714  155.0068 H   0  0  0  0  0  0  0  0  0  0  0  0
  150.3862  132.9537  155.5331 H   0  0  0  0  0  0  0  0  0  0  0  0
  1  2  1  0  0  0  0
  1 30  1  0  0  0  0
  1 31  1  0  0  0  0
  1 32  1  0  0  0  0
  2  3  2  0  0  0  0
  2  4  1  0  0  0  0
  4  5  1  0  0  0  0
  5  6  1  0  0  0  0
  5 33  1  0  0  0  0
  5 34  1  0  0  0  0
  6 25  1  0  0  0  0
  6  7  1  0  0  0  0
  6 35  1  0  0  0  0
  7  8  1  0  0  0  0
  8  9  1  0  0  0  0
  8 20  1  0  0  0  0
  8 36  1  0  0  0  0
  9 19  1  0  0  0  0
  9 10  1  0  0  0  0
 10 11  1  0  0  0  0
 10 12  2  0  0  0  0
 12 13  1  0  0  0  0
 13 19  2  0  0  0  0
 13 14  1  0  0  0  0
 14 15  1  0  0  0  0
 14 16  2  0  0  0  0
 15 37  1  0  0  0  0
 15 38  1  0  0  0  0
 16 17  1  0  0  0  0
 17 18  2  0  0  0  0
 17 39  1  0  0  0  0
 18 19  1  0  0  0  0
 20 21  1  0  0  0  0
 20 25  1  0  0  0  0
 20 40  1  0  0  0  0
 21 22  1  0  0  0  0
 22 23  1  0  0  0  0
 22 24  2  0  0  0  0
 23 41  1  0  0  0  0
 23 42  1  0  0  0  0
 23 43  1  0  0  0  0
 25 26  1  0  0  0  0
 25 44  1  0  0  0  0
 26 27  1  0  0  0  0
 27 28  1  0  0  0  0
 27 29  2  0  0  0  0
 28 45  1  0  0  0  0
 28 46  1  0  0  0  0
 28 47  1  0  0  0  0
M  END
> <s_m_source_file>
AV-unprocessed.smi

> <i_m_source_file_index>
104

> <i_lp_mmshare_version>
43012

> <i_f3d_flags>
0

> <s_epik_input>
W0NIM11DKD1PKU9bQ0gyXVtDQEBIXTFPW0NASF0oW0NAQEhdKE9DKD1PKVtDSDNdKVtDQEhdMU9DKD1PKVtDSDNdKW4oYyhCciluMiljKGMyMyluW2NIXW5jM1tOSDJd

> <s_epik_cmdline>
J2VwaWtfcHl0aG9uJywgJy1waCcsICc3LjAnLCAnLXRuJywgJzgnLCAnLW1hJywgJzIwMCcsICctbWV0YWxfYmluZGluZycsICctaW1hZScsICc8aW5maWxlLm1hZT4nLCAnLW9tYWUnLCAnPG91dGZpbGUubWFlPic=

> <r_lp_tautomer_probability>
1

> <r_epik_Ionization_Penalty>
7.36622e-05

> <r_epik_Ionization_Penalty_Charging>
0

> <r_epik_Ionization_Penalty_Neutral>
7.36622e-05

> <r_epik_State_Penalty>
-0

> <r_epik_Charging_Adjusted_Penalty>
0

> <i_epik_Tot_Q>
0

> <i_epik_Tot_abs_Q>
0

> <r_epik_Metal_State_Penalty>
-0

> <b_epik_Metal_Only>
0

> <s_epik_Chemistry_Notes>
This compound has an ester and may undergo hydrolysis at high or low pH. This compound contains an acetal/aminal-like group ( X-CH(R)-Y where X, Y are N, S, or O) that may be acid/base labile, releasing an aldehyde.

> <s_lp_Force_Field>
OPLS_2005

> <r_lp_Energy>
14.1863

> <b_lp_Chiralities_Consistent>
1

> <s_lp_Variant>
AV-unprocessed.smi:104-6

> <Gold.Version>
5.8.1

> <Gold.Id.Protein>
6NUR|6NUR_protein|mol2

> <Gold.PLP.Fitness>
39.4357

> <Gold.PLP.PLP>
-25.9988

> <Gold.PLP.part.hbond>
-5.6344

> <Gold.PLP.part.metal>
0.0000

> <Gold.PLP.part.buried>
-4.7700

> <Gold.PLP.part.nonpolar>
-15.6992

> <Gold.PLP.part.repulsive>
0.1726

> <Gold.PLP.ligand.clash>
0.0000

> <Gold.PLP.ligand.torsion>
0.4503

> <Gold.PLP.Chemscore.Hbond>
3.7296

> <Gold.PLP.Chemscore.CHOScore>
1.0000

> <Gold.PLP.Chemscore.Metal>
0.0000

> <Gold.Chemscore.Hbonds>
donor molecule, donor type, donor heavy atom, donor atom, acceptor molecule, acceptor atom, score
      P1  H  6896  6907       L1    29  1.00
      P1  H  6931  6943       L1    24  1.00
      P1  H  6934  6947       L1    24  0.61
      P1  H  7997  8009       L1     3  1.00
      L1  C    17    39       P1  7948  0.99

> <Gold.PLP.Chemscore.Internal.Correction>
0.1488

> <Gold.Rescore>
     Score         DG    S(hbond)    S(metal)    S(lipo)     H(rot)  DE(clash)    DE(int)     intcor
      7.53     -10.99       3.74        0.00      34.50       4.31       0.00       3.46       ----

> <Gold.Chemscore.Fitness>
7.5299

> <Gold.Chemscore.DG>
-10.9889

> <Gold.Chemscore.ZeroCoef>
-5.4800

> <Gold.Chemscore.Hbond>
3.7419

> <Gold.Chemscore.Metal>
0.0000

> <Gold.Chemscore.Lipo>
34.5033

> <Gold.Chemscore.Internal_Hbond>
0.0000

> <Gold.Chemscore.DEClash>
0.0009

> <Gold.Chemscore.DEInternal>
3.4581

> <Gold.Chemscore.Rot>
4.3070

> <Gold.Chemscore.Internal.Correction>
   9.000000E+99

> <Gold.Chemscore.Hbonds>
donor molecule, donor type, donor heavy atom, donor atom, acceptor molecule, acceptor atom, score
      P1  H  6896  6907       L1    29  0.70
      P1  H  6931  6943       L1    24  0.97
      P1  H  6934  6947       L1    24  0.61
      P1  H  7997  8009       L1     3  0.97

> <Gold.Chemscore.Hbond.Weighted>
-12.4979

> <Gold.Chemscore.Metal.Weighted>
-0.0000

> <Gold.Chemscore.Lipo.Weighted>
-4.0369

> <Gold.Chemscore.Internal_Hbond.Weighted>
0.0000

> <Gold.Chemscore.DEClash.Weighted>
0.0009

> <Gold.Chemscore.DEInternal.Weighted>
3.4581

> <Gold.Chemscore.Rot.Weighted>
11.0259

> <Gold.Chemscore.Internal.Correction.Weighted>
   9.000000E+99

> <Gold.Protein.RotatedTorsions>
[ 6907 6896 6895 6894 ] final -125.80 input  -60.11 | X-H torsion
[ 7974 7965 7964 7962 ] final -117.00 input  175.53 | X-H torsion
[ 8008 7997 7996 7995 ] final -177.78 input   59.86 | X-H torsion
[ 10167 10162 10161 10158 ] final  -33.49 input  -65.29 | X-H torsion
[ 10718 10713 10712 10709 ] final -132.28 input   66.30 | X-H torsion
[ 10763 10752 10751 10750 ] final  -17.74 input  -60.55 | X-H torsion
[ 11005 11000 10999 10996 ] final -166.09 input  -57.11 | X-H torsion

> <Gold.Protein.ActiveResidues>
 VAL166  LYS551  ARG553  GLY616  TRP617  ASP618  TYR619  PRO620  LYS621  CYS622 
 ASP623  PHE694  ASN695  SER759  ASP760  ASP761  ALA762  ILE779  LEU786  VAL792 
 PHE793  MET794  SER795  GLU796  ALA797  LYS798  CYS799  TRP800  GLU811  SER814 

> <Gold.Protein.RotatedAtoms>
  150.8904  133.7251  159.2906 H   0  0  0  0  0  0  0  0  0  0  0  0  # atno 6907 bound_to 6896
  151.4803  135.1050  159.9785 H   0  0  0  0  0  0  0  0  0  0  0  0  # atno 6908 bound_to 6896
  152.4816  133.8222  159.7115 H   0  0  0  0  0  0  0  0  0  0  0  0  # atno 6909 bound_to 6896
  145.0903  140.8485  143.3987 H   0  0  0  0  0  0  0  0  0  0  0  0  # atno 7974 bound_to 7965
  156.0111  140.1241  157.0453 H   0  0  0  0  0  0  0  0  0  0  0  0  # atno 8008 bound_to 7997
  154.4276  140.1087  156.5900 H   0  0  0  0  0  0  0  0  0  0  0  0  # atno 8009 bound_to 7997
  155.6079  140.3471  155.4615 H   0  0  0  0  0  0  0  0  0  0  0  0  # atno 8010 bound_to 7997
  140.7203  143.3617  151.1950 H   0  0  0  0  0  0  0  0  0  0  0  0  # atno 10167 bound_to 10162
  156.2330  130.7049  151.0878 H   0  0  0  0  0  0  0  0  0  0  0  0  # atno 10718 bound_to 10713
  153.5785  135.7005  153.5473 H   0  0  0  0  0  0  0  0  0  0  0  0  # atno 10763 bound_to 10752
  153.3281  135.4055  155.1472 H   0  0  0  0  0  0  0  0  0  0  0  0  # atno 10764 bound_to 10752
  154.8621  135.3712  154.5312 H   0  0  0  0  0  0  0  0  0  0  0  0  # atno 10765 bound_to 10752
  140.5683  134.5263  157.5157 H   0  0  0  0  0  0  0  0  0  0  0  0  # atno 11005 bound_to 11000
  145.1074  139.2780  143.5655 LP  0  0  0  0  0  0  0  0  0  0  0  0  # atno 17320 bound_to 7965
  146.3531  140.0660  142.8626 LP  0  0  0  0  0  0  0  0  0  0  0  0  # atno 17321 bound_to 7965
  139.7170  143.9284  152.2970 LP  0  0  0  0  0  0  0  0  0  0  0  0  # atno 17342 bound_to 10162
  139.9028  144.6901  150.8646 LP  0  0  0  0  0  0  0  0  0  0  0  0  # atno 17343 bound_to 10162
  157.7142  131.0719  150.6390 LP  0  0  0  0  0  0  0  0  0  0  0  0  # atno 17370 bound_to 10713
  156.6459  130.4471  149.5736 LP  0  0  0  0  0  0  0  0  0  0  0  0  # atno 17371 bound_to 10713
  139.9374  134.7850  156.0767 LP  0  0  0  0  0  0  0  0  0  0  0  0  # atno 17394 bound_to 11000
  141.1072  133.6656  156.2891 LP  0  0  0  0  0  0  0  0  0  0  0  0  # atno 17395 bound_to 11000

$$$$
