AV-unprocessed.smi:2928|AV-procd|sdf|11234|dock1
  -GOLD-   2272016123D 1   1.00000     0.00000
 Structure written by MMmdl.
 55 58  0  0  0  0  0  0  0  0  2 V2000
  150.9606  141.0065  156.4472 C   0  0  0  0  0  0  0  0  0  0  0  0
  149.7655  140.2862  155.9466 N   0  3  2  0  0  0  0  0  0  0  0  0
  149.4112  139.0642  156.7070 C   0  0  1  0  0  0  0  0  0  0  0  0
  147.9540  138.6679  156.3757 C   0  0  0  0  0  0  0  0  0  0  0  0
  147.6687  138.5356  154.8673 C   0  0  0  0  0  0  0  0  0  0  0  0
  148.3387  139.6486  154.0377 C   0  0  0  0  0  0  0  0  0  0  0  0
  149.7753  139.9958  154.4931 C   0  0  2  0  0  0  0  0  0  0  0  0
  150.8552  138.9449  154.1314 C   0  0  0  0  0  0  0  0  0  0  0  0
  150.9075  137.6895  155.0371 C   0  0  2  0  0  0  0  0  0  0  0  0
  150.2213  136.5570  154.4204 N   0  0  0  0  0  0  0  0  0  0  0  0
  150.4059  135.2644  154.7246 C   0  0  0  0  0  0  0  0  0  0  0  0
  151.2128  134.8721  155.5671 O   0  0  0  0  0  0  0  0  0  0  0  0
  149.5811  134.4810  154.0109 N   0  0  0  0  0  0  0  0  0  0  0  0
  149.4020  133.0718  154.1015 C   0  0  0  0  0  0  0  0  0  0  0  0
  150.2026  132.2463  154.9274 C   0  0  0  0  0  0  0  0  0  0  0  0
  149.9702  130.8588  154.9400 C   0  0  0  0  0  0  0  0  0  0  0  0
  148.9510  130.3437  154.1191 C   0  0  0  0  0  0  0  0  0  0  0  0
  148.1900  131.1143  153.3155 N   0  0  0  0  0  0  0  0  0  0  0  0
  148.4100  132.4516  153.2995 C   0  0  0  0  0  0  0  0  0  0  0  0
  147.6039  133.2366  152.4557 N   0  0  0  0  0  0  0  0  0  0  0  0
  146.7652  132.5014  151.5242 C   0  0  0  0  0  0  0  0  0  0  0  0
  145.7454  133.5191  151.0067 C   0  0  0  0  0  0  0  0  0  0  0  0
  145.7179  134.6252  152.0691 C   0  0  0  0  0  0  0  0  0  0  0  0
  146.7246  134.1756  153.1312 C   0  0  0  0  0  0  0  0  0  0  0  0
  150.4614  137.9438  156.5025 C   0  0  0  0  0  0  0  0  0  0  0  0
  151.8703  140.4137  156.3521 H   0  0  0  0  0  0  0  0  0  0  0  0
  150.8349  141.2655  157.4988 H   0  0  0  0  0  0  0  0  0  0  0  0
  151.1039  141.9354  155.8943 H   0  0  0  0  0  0  0  0  0  0  0  0
  149.4208  139.3210  157.7674 H   0  0  0  0  0  0  0  0  0  0  0  0
  147.6832  137.7451  156.8900 H   0  0  0  0  0  0  0  0  0  0  0  0
  147.2936  139.4373  156.7784 H   0  0  0  0  0  0  0  0  0  0  0  0
  147.9756  137.5586  154.5100 H   0  0  0  0  0  0  0  0  0  0  0  0
  146.5915  138.5567  154.6990 H   0  0  0  0  0  0  0  0  0  0  0  0
  148.3267  139.3859  152.9793 H   0  0  0  0  0  0  0  0  0  0  0  0
  147.7289  140.5490  154.1270 H   0  0  0  0  0  0  0  0  0  0  0  0
  150.0415  140.9183  153.9750 H   0  0  0  0  0  0  0  0  0  0  0  0
  150.7692  138.6613  153.0815 H   0  0  0  0  0  0  0  0  0  0  0  0
  151.8259  139.4372  154.2016 H   0  0  0  0  0  0  0  0  0  0  0  0
  151.9568  137.3895  155.0734 H   0  0  0  0  0  0  0  0  0  0  0  0
  149.5351  136.7760  153.7131 H   0  0  0  0  0  0  0  0  0  0  0  0
  148.9217  134.9580  153.4134 H   0  0  0  0  0  0  0  0  0  0  0  0
  150.9970  132.6482  155.5373 H   0  0  0  0  0  0  0  0  0  0  0  0
  150.5640  130.2046  155.5610 H   0  0  0  0  0  0  0  0  0  0  0  0
  148.7451  129.2837  154.1018 H   0  0  0  0  0  0  0  0  0  0  0  0
  147.3575  132.0769  150.7130 H   0  0  0  0  0  0  0  0  0  0  0  0
  146.2529  131.6829  152.0322 H   0  0  0  0  0  0  0  0  0  0  0  0
  146.0719  133.9309  150.0509 H   0  0  0  0  0  0  0  0  0  0  0  0
  144.7666  133.0631  150.8554 H   0  0  0  0  0  0  0  0  0  0  0  0
  146.0297  135.5725  151.6275 H   0  0  0  0  0  0  0  0  0  0  0  0
  144.7242  134.7678  152.4947 H   0  0  0  0  0  0  0  0  0  0  0  0
  146.2050  133.6875  153.9571 H   0  0  0  0  0  0  0  0  0  0  0  0
  147.2853  135.0183  153.5367 H   0  0  0  0  0  0  0  0  0  0  0  0
  151.3516  138.2232  157.0670 H   0  0  0  0  0  0  0  0  0  0  0  0
  150.1189  137.0236  156.9768 H   0  0  0  0  0  0  0  0  0  0  0  0
  148.9992  140.9283  156.0910 H   0  0  0  0  0  0  0  0  0  0  0  0
  1  2  1  0  0  0  0
  1 26  1  0  0  0  0
  1 27  1  0  0  0  0
  1 28  1  0  0  0  0
  2  7  1  0  0  0  0
  2  3  1  0  0  0  0
  2 55  1  0  0  0  0
  3 25  1  0  0  0  0
  3  4  1  0  0  0  0
  3 29  1  0  0  0  0
  4  5  1  0  0  0  0
  4 30  1  0  0  0  0
  4 31  1  0  0  0  0
  5  6  1  0  0  0  0
  5 32  1  0  0  0  0
  5 33  1  0  0  0  0
  6  7  1  0  0  0  0
  6 34  1  0  0  0  0
  6 35  1  0  0  0  0
  7  8  1  0  0  0  0
  7 36  1  0  0  0  0
  8  9  1  0  0  0  0
  8 37  1  0  0  0  0
  8 38  1  0  0  0  0
  9 10  1  0  0  0  0
  9 25  1  0  0  0  0
  9 39  1  0  0  0  0
 10 11  1  0  0  0  0
 10 40  1  0  0  0  0
 11 12  2  0  0  0  0
 11 13  1  0  0  0  0
 13 14  1  0  0  0  0
 13 41  1  0  0  0  0
 14 19  1  0  0  0  0
 14 15  2  0  0  0  0
 15 16  1  0  0  0  0
 15 42  1  0  0  0  0
 16 17  2  0  0  0  0
 16 43  1  0  0  0  0
 17 18  1  0  0  0  0
 17 44  1  0  0  0  0
 18 19  2  0  0  0  0
 19 20  1  0  0  0  0
 20 24  1  0  0  0  0
 20 21  1  0  0  0  0
 21 22  1  0  0  0  0
 21 45  1  0  0  0  0
 21 46  1  0  0  0  0
 22 23  1  0  0  0  0
 22 47  1  0  0  0  0
 22 48  1  0  0  0  0
 23 24  1  0  0  0  0
 23 49  1  0  0  0  0
 23 50  1  0  0  0  0
 24 51  1  0  0  0  0
 24 52  1  0  0  0  0
 25 53  1  0  0  0  0
 25 54  1  0  0  0  0
M  CHG  1   2   1
M  END
> <s_m_source_file>
AV-unprocessed.smi

> <i_m_source_file_index>
2928

> <i_lp_mmshare_version>
43012

> <i_f3d_flags>
0

> <s_epik_input>
W0NIMl0xW0NIMl1bQ0gyXVtDQEhdKE4oW0NIM10pW0NIXTEyKVtDSDJdW0NASF0oW0NIMl0yKVtOSF1DKD1PKVtOSF1jM1tjSF1bY0hdW2NIXW5jM040W0NIMl1bQ0gyXVtDSDJdW0NIMl00

> <s_epik_cmdline>
J2VwaWtfcHl0aG9uJywgJy1waCcsICc3LjAnLCAnLXRuJywgJzgnLCAnLW1hJywgJzIwMCcsICctbWV0YWxfYmluZGluZycsICctaW1hZScsICc8aW5maWxlLm1hZT4nLCAnLW9tYWUnLCAnPG91dGZpbGUubWFlPic=

> <r_lp_tautomer_probability>
1

> <r_epik_Ionization_Penalty>
0.07954

> <r_epik_Ionization_Penalty_Charging>
0.00089841

> <r_epik_Ionization_Penalty_Neutral>
0.0786416

> <r_epik_State_Penalty>
0.0689917

> <r_epik_Charging_Adjusted_Penalty>
0.0698901

> <i_epik_Tot_Q>
1

> <i_epik_Tot_abs_Q>
1

> <r_epik_Metal_State_Penalty>
0.0608947

> <b_epik_Metal_Only>
0

> <s_lp_Force_Field>
OPLS_2005

> <r_lp_Energy>
66.3718

> <b_lp_Chiralities_Consistent>
1

> <s_lp_Variant>
AV-unprocessed.smi:2928-4

> <Gold.Version>
5.8.1

> <Gold.Id.Protein>
6NUR|6NUR_protein|mol2

> <Gold.PLP.Fitness>
41.8309

> <Gold.PLP.PLP>
-35.4394

> <Gold.PLP.part.hbond>
-3.5210

> <Gold.PLP.part.metal>
0.0000

> <Gold.PLP.part.buried>
-0.9976

> <Gold.PLP.part.nonpolar>
-30.1922

> <Gold.PLP.part.repulsive>
0.4838

> <Gold.PLP.ligand.clash>
0.0000

> <Gold.PLP.ligand.torsion>
0.3178

> <Gold.PLP.Chemscore.Hbond>
2.3132

> <Gold.PLP.Chemscore.CHOScore>
0.0000

> <Gold.PLP.Chemscore.Metal>
0.0000

> <Gold.Chemscore.Hbonds>
donor molecule, donor type, donor heavy atom, donor atom, acceptor molecule, acceptor atom, score
      L1  H    10    40       P1  7948  0.80
      L1  H    13    41       P1  7948  0.74
      P1  H 10752 10765       L1    12  0.82

> <Gold.PLP.Chemscore.Internal.Correction>
0.0876

> <Gold.Rescore>
     Score         DG    S(hbond)    S(metal)    S(lipo)     H(rot)  DE(clash)    DE(int)     intcor
     14.49     -17.66       1.63        0.00      83.37       1.18       0.46       2.71       ----

> <Gold.Chemscore.Fitness>
14.4948

> <Gold.Chemscore.DG>
-17.6626

> <Gold.Chemscore.ZeroCoef>
-5.4800

> <Gold.Chemscore.Hbond>
1.6297

> <Gold.Chemscore.Metal>
0.0000

> <Gold.Chemscore.Lipo>
83.3691

> <Gold.Chemscore.Internal_Hbond>
0.0000

> <Gold.Chemscore.DEClash>
0.4568

> <Gold.Chemscore.DEInternal>
2.7110

> <Gold.Chemscore.Rot>
1.1776

> <Gold.Chemscore.Internal.Correction>
   9.000000E+99

> <Gold.Chemscore.Hbonds>
donor molecule, donor type, donor heavy atom, donor atom, acceptor molecule, acceptor atom, score
      L1  H    10    40       P1  7948  0.64
      L1  H    13    41       P1  7948  0.25
      P1  H 10752 10765       L1    12  0.38

> <Gold.Chemscore.Hbond.Weighted>
-5.4432

> <Gold.Chemscore.Metal.Weighted>
-0.0000

> <Gold.Chemscore.Lipo.Weighted>
-9.7542

> <Gold.Chemscore.Internal_Hbond.Weighted>
0.0000

> <Gold.Chemscore.DEClash.Weighted>
0.4568

> <Gold.Chemscore.DEInternal.Weighted>
2.7110

> <Gold.Chemscore.Rot.Weighted>
3.0147

> <Gold.Chemscore.Internal.Correction.Weighted>
   9.000000E+99

> <Gold.Protein.RotatedTorsions>
[ 6907 6896 6895 6894 ] final  -84.47 input  -60.11 | X-H torsion
[ 7974 7965 7964 7962 ] final  -35.18 input  175.53 | X-H torsion
[ 8008 7997 7996 7995 ] final  162.13 input   59.86 | X-H torsion
[ 10167 10162 10161 10158 ] final   44.53 input  -65.29 | X-H torsion
[ 10718 10713 10712 10709 ] final  159.34 input   66.30 | X-H torsion
[ 10763 10752 10751 10750 ] final -160.78 input  -60.55 | X-H torsion
[ 11005 11000 10999 10996 ] final -174.56 input  -57.11 | X-H torsion

> <Gold.Protein.ActiveResidues>
 VAL166  LYS551  ARG553  GLY616  TRP617  ASP618  TYR619  PRO620  LYS621  CYS622 
 ASP623  PHE694  ASN695  SER759  ASP760  ASP761  ALA762  ILE779  LEU786  VAL792 
 PHE793  MET794  SER795  GLU796  ALA797  LYS798  CYS799  TRP800  GLU811  SER814 

> <Gold.Protein.RotatedAtoms>
  150.6876  134.3354  159.4844 H   0  0  0  0  0  0  0  0  0  0  0  0  # atno 6907 bound_to 6896
  152.1214  134.9200  160.0572 H   0  0  0  0  0  0  0  0  0  0  0  0  # atno 6908 bound_to 6896
  152.0405  133.3941  159.4372 H   0  0  0  0  0  0  0  0  0  0  0  0  # atno 6909 bound_to 6896
  146.0768  140.6128  142.8927 H   0  0  0  0  0  0  0  0  0  0  0  0  # atno 7974 bound_to 7965
  156.2053  140.1758  156.7812 H   0  0  0  0  0  0  0  0  0  0  0  0  # atno 8008 bound_to 7997
  154.5647  140.0693  156.8903 H   0  0  0  0  0  0  0  0  0  0  0  0  # atno 8009 bound_to 7997
  155.2783  140.3347  155.4262 H   0  0  0  0  0  0  0  0  0  0  0  0  # atno 8010 bound_to 7997
  140.3333  144.2561  150.6165 H   0  0  0  0  0  0  0  0  0  0  0  0  # atno 10167 bound_to 10162
  157.1655  131.0597  151.2210 H   0  0  0  0  0  0  0  0  0  0  0  0  # atno 10718 bound_to 10713
  154.7361  135.3057  154.8809 H   0  0  0  0  0  0  0  0  0  0  0  0  # atno 10763 bound_to 10752
  153.9637  135.6750  153.4749 H   0  0  0  0  0  0  0  0  0  0  0  0  # atno 10764 bound_to 10752
  153.0964  135.4934  154.8709 H   0  0  0  0  0  0  0  0  0  0  0  0  # atno 10765 bound_to 10752
  140.4731  134.6146  157.4890 H   0  0  0  0  0  0  0  0  0  0  0  0  # atno 11005 bound_to 11000
  144.7267  140.4546  143.6968 LP  0  0  0  0  0  0  0  0  0  0  0  0  # atno 17320 bound_to 7965
  145.6291  139.1534  143.2979 LP  0  0  0  0  0  0  0  0  0  0  0  0  # atno 17321 bound_to 7965
  140.5377  143.2230  151.8136 LP  0  0  0  0  0  0  0  0  0  0  0  0  # atno 17342 bound_to 10162
  139.4852  144.4641  151.9506 LP  0  0  0  0  0  0  0  0  0  0  0  0  # atno 17343 bound_to 10162
  157.4093  130.7376  149.6826 LP  0  0  0  0  0  0  0  0  0  0  0  0  # atno 17370 bound_to 10713
  155.9747  130.4100  150.3906 LP  0  0  0  0  0  0  0  0  0  0  0  0  # atno 17371 bound_to 10713
  139.9873  134.7042  155.9752 LP  0  0  0  0  0  0  0  0  0  0  0  0  # atno 17394 bound_to 11000
  141.1567  133.6542  156.4185 LP  0  0  0  0  0  0  0  0  0  0  0  0  # atno 17395 bound_to 11000

$$$$
