AV-unprocessed.smi:2554|AV-procd|sdf|10020|dock6
  -GOLD-   2272014 63D 1   1.00000     0.00000
 Structure written by MMmdl.
 21 21  0  0  0  0  0  0  0  0  2 V2000
  149.1597  141.8457  154.6785 C   0  0  0  0  0  0  0  0  0  0  0  0
  149.3683  140.3989  154.3536 C   0  0  0  0  0  0  0  0  0  0  0  0
  150.5772  139.7648  154.6501 N   0  0  0  0  0  0  0  0  0  0  0  0
  150.4002  138.5162  154.2369 C   0  0  0  0  0  0  0  0  0  0  0  0
  149.1918  138.3028  153.7101 N   0  0  0  0  0  0  0  0  0  0  0  0
  148.4991  139.5013  153.7670 C   0  0  0  0  0  0  0  0  0  0  0  0
  147.0969  139.6567  153.2769 C   0  0  0  0  0  0  0  0  0  0  0  0
  146.6523  138.5018  152.3701 C   0  0  0  0  0  0  0  0  0  0  0  0
  145.1848  138.4194  152.2856 N   0  3  0  0  0  0  0  0  0  0  0  0
  148.8520  137.4286  153.3356 H   0  0  0  0  0  0  0  0  0  0  0  0
  148.1656  142.1854  154.3881 H   0  0  0  0  0  0  0  0  0  0  0  0
  149.8859  142.4728  154.1609 H   0  0  0  0  0  0  0  0  0  0  0  0
  149.2694  142.0273  155.7476 H   0  0  0  0  0  0  0  0  0  0  0  0
  151.1568  137.7497  154.3202 H   0  0  0  0  0  0  0  0  0  0  0  0
  147.0075  140.6004  152.7368 H   0  0  0  0  0  0  0  0  0  0  0  0
  146.4228  139.7352  154.1308 H   0  0  0  0  0  0  0  0  0  0  0  0
  147.0549  138.6313  151.3649 H   0  0  0  0  0  0  0  0  0  0  0  0
  147.0339  137.5535  152.7498 H   0  0  0  0  0  0  0  0  0  0  0  0
  144.8561  137.6607  152.8661 H   0  0  0  0  0  0  0  0  0  0  0  0
  144.9102  138.2532  151.3278 H   0  0  0  0  0  0  0  0  0  0  0  0
  144.7794  139.2870  152.6062 H   0  0  0  0  0  0  0  0  0  0  0  0
  1 11  1  0  0  0  0
  1 12  1  0  0  0  0
  1 13  1  0  0  0  0
  1  2  1  0  0  0  0
  2  6  2  0  0  0  0
  2  3  1  0  0  0  0
  3  4  2  0  0  0  0
  4  5  1  0  0  0  0
  4 14  1  0  0  0  0
  5  6  1  0  0  0  0
  5 10  1  0  0  0  0
  6  7  1  0  0  0  0
  7  8  1  0  0  0  0
  7 15  1  0  0  0  0
  7 16  1  0  0  0  0
  8  9  1  0  0  0  0
  8 17  1  0  0  0  0
  8 18  1  0  0  0  0
  9 19  1  0  0  0  0
  9 20  1  0  0  0  0
  9 21  1  0  0  0  0
M  CHG  1   9   1
M  END
> <s_m_source_file>
AV-unprocessed.smi

> <i_m_source_file_index>
2554

> <i_lp_mmshare_version>
43012

> <i_f3d_flags>
0

> <s_epik_input>
W0NIM11jMVtuSF1bY0hdbmMxW0NIMl1bQ0gyXVtOSDJd

> <s_epik_cmdline>
J2VwaWtfcHl0aG9uJywgJy1waCcsICc3LjAnLCAnLXRuJywgJzgnLCAnLW1hJywgJzIwMCcsICctbWV0YWxfYmluZGluZycsICctaW1hZScsICc8aW5maWxlLm1hZT4nLCAnLW9tYWUnLCAnPG91dGZpbGUubWFlPic=

> <r_lp_tautomer_probability>
0.5

> <r_epik_Ionization_Penalty>
0.309087

> <r_epik_Ionization_Penalty_Charging>
0.309086

> <r_epik_Ionization_Penalty_Neutral>
3.24025e-07

> <r_epik_State_Penalty>
0.652852

> <r_epik_Charging_Adjusted_Penalty>
0.961938

> <i_epik_Tot_Q>
1

> <i_epik_Tot_abs_Q>
1

> <r_epik_Metal_State_Penalty>
0.386365

> <b_epik_Metal_Only>
0

> <s_lp_Force_Field>
OPLS_2005

> <r_lp_Energy>
3.85871

> <b_lp_Chiralities_Consistent>
1

> <s_lp_Variant>
AV-unprocessed.smi:2554-2

> <Gold.Version>
5.8.1

> <Gold.Id.Protein>
6NUR|6NUR_protein|mol2

> <Gold.PLP.Fitness>
34.6818

> <Gold.PLP.PLP>
-20.2663

> <Gold.PLP.part.hbond>
-5.0000

> <Gold.PLP.part.metal>
0.0000

> <Gold.PLP.part.buried>
1.7361

> <Gold.PLP.part.nonpolar>
-17.2548

> <Gold.PLP.part.repulsive>
0.1862

> <Gold.PLP.ligand.clash>
0.0000

> <Gold.PLP.ligand.torsion>
0.2924

> <Gold.PLP.Chemscore.Hbond>
5.0000

> <Gold.PLP.Chemscore.CHOScore>
0.0000

> <Gold.PLP.Chemscore.Metal>
0.0000

> <Gold.Chemscore.Hbonds>
donor molecule, donor type, donor heavy atom, donor atom, acceptor molecule, acceptor atom, score
      L1  H     5    10       P1  7948  0.86
      L1  H     9    20       P1 10171  1.00
      L1  H     9    21       P1 10175  1.98
      P1  H  7989  7998       L1     3  0.75

> <Gold.PLP.Chemscore.Internal.Correction>
0.0004

> <Gold.Rescore>
     Score         DG    S(hbond)    S(metal)    S(lipo)     H(rot)  DE(clash)    DE(int)     intcor
     15.54     -16.93       3.22        0.00      37.54       1.45       1.31       0.09       ----

> <Gold.Chemscore.Fitness>
15.5377

> <Gold.Chemscore.DG>
-16.9344

> <Gold.Chemscore.ZeroCoef>
-5.4800

> <Gold.Chemscore.Hbond>
3.2225

> <Gold.Chemscore.Metal>
0.0000

> <Gold.Chemscore.Lipo>
37.5414

> <Gold.Chemscore.Internal_Hbond>
0.0000

> <Gold.Chemscore.DEClash>
1.3062

> <Gold.Chemscore.DEInternal>
0.0905

> <Gold.Chemscore.Rot>
1.4458

> <Gold.Chemscore.Internal.Correction>
   9.000000E+99

> <Gold.Chemscore.Hbonds>
donor molecule, donor type, donor heavy atom, donor atom, acceptor molecule, acceptor atom, score
      L1  H     5    10       P1  7948  0.85
      L1  H     9    20       P1 10171  0.97
      L1  H     9    21       P1 10175  0.93
      P1  H  7989  7998       L1     3  0.08

> <Gold.Chemscore.Hbond.Weighted>
-10.7633

> <Gold.Chemscore.Metal.Weighted>
-0.0000

> <Gold.Chemscore.Lipo.Weighted>
-4.3923

> <Gold.Chemscore.Internal_Hbond.Weighted>
0.0000

> <Gold.Chemscore.DEClash.Weighted>
1.3062

> <Gold.Chemscore.DEInternal.Weighted>
0.0905

> <Gold.Chemscore.Rot.Weighted>
3.7012

> <Gold.Chemscore.Internal.Correction.Weighted>
   9.000000E+99

> <Gold.Protein.RotatedTorsions>
[ 6907 6896 6895 6894 ] final -168.52 input  -60.11 | X-H torsion
[ 7974 7965 7964 7962 ] final  166.03 input  175.53 | X-H torsion
[ 8008 7997 7996 7995 ] final  -23.98 input   59.86 | X-H torsion
[ 10167 10162 10161 10158 ] final -131.02 input  -65.29 | X-H torsion
[ 10718 10713 10712 10709 ] final -152.08 input   66.30 | X-H torsion
[ 10763 10752 10751 10750 ] final   77.81 input  -60.55 | X-H torsion
[ 11005 11000 10999 10996 ] final   10.91 input  -57.11 | X-H torsion

> <Gold.Protein.ActiveResidues>
 VAL166  LYS551  ARG553  GLY616  TRP617  ASP618  TYR619  PRO620  LYS621  CYS622 
 ASP623  PHE694  ASN695  SER759  ASP760  ASP761  ALA762  ILE779  LEU786  VAL792 
 PHE793  MET794  SER795  GLU796  ALA797  LYS798  CYS799  TRP800  GLU811  SER814 

> <Gold.Protein.RotatedAtoms>
  151.4769  133.3555  159.2831 H   0  0  0  0  0  0  0  0  0  0  0  0  # atno 6907 bound_to 6896
  150.8923  134.8330  159.7313 H   0  0  0  0  0  0  0  0  0  0  0  0  # atno 6908 bound_to 6896
  152.4830  134.4680  159.9678 H   0  0  0  0  0  0  0  0  0  0  0  0  # atno 6909 bound_to 6896
  144.7478  139.8556  143.6376 H   0  0  0  0  0  0  0  0  0  0  0  0  # atno 7974 bound_to 7965
  154.4555  140.1966  156.0394 H   0  0  0  0  0  0  0  0  0  0  0  0  # atno 8008 bound_to 7997
  156.0736  140.3281  155.7578 H   0  0  0  0  0  0  0  0  0  0  0  0  # atno 8009 bound_to 7997
  155.5224  140.0571  157.2895 H   0  0  0  0  0  0  0  0  0  0  0  0  # atno 8010 bound_to 7997
  139.9233  143.6357  152.2548 H   0  0  0  0  0  0  0  0  0  0  0  0  # atno 10167 bound_to 10162
  156.4677  130.8243  151.2473 H   0  0  0  0  0  0  0  0  0  0  0  0  # atno 10718 bound_to 10713
  153.0826  135.4900  154.8534 H   0  0  0  0  0  0  0  0  0  0  0  0  # atno 10763 bound_to 10752
  154.7170  135.3031  154.9109 H   0  0  0  0  0  0  0  0  0  0  0  0  # atno 10764 bound_to 10752
  153.9785  135.6792  153.4802 H   0  0  0  0  0  0  0  0  0  0  0  0  # atno 10765 bound_to 10752
  140.5091  134.0670  155.7813 H   0  0  0  0  0  0  0  0  0  0  0  0  # atno 11005 bound_to 11000
  146.1385  139.4436  143.0124 LP  0  0  0  0  0  0  0  0  0  0  0  0  # atno 17320 bound_to 7965
  145.7055  141.0123  143.1481 LP  0  0  0  0  0  0  0  0  0  0  0  0  # atno 17321 bound_to 7965
  139.6843  144.7653  151.1551 LP  0  0  0  0  0  0  0  0  0  0  0  0  # atno 17342 bound_to 10162
  140.7657  143.5679  150.9027 LP  0  0  0  0  0  0  0  0  0  0  0  0  # atno 17343 bound_to 10162
  157.7493  131.0086  150.3236 LP  0  0  0  0  0  0  0  0  0  0  0  0  # atno 17370 bound_to 10713
  156.3650  130.3853  149.7220 LP  0  0  0  0  0  0  0  0  0  0  0  0  # atno 17371 bound_to 10713
  141.1395  133.9163  157.2358 LP  0  0  0  0  0  0  0  0  0  0  0  0  # atno 17394 bound_to 11000
  139.9669  135.0139  156.9410 LP  0  0  0  0  0  0  0  0  0  0  0  0  # atno 17395 bound_to 11000

$$$$
