AV-unprocessed.smi:204|AV-procd|sdf|1599|dock3
  -GOLD-   2262019503D 1   1.00000     0.00000
 Structure written by MMmdl.
 53 56  0  0  0  0  0  0  0  0  1 V2000
  145.9076  143.7553  159.7086 C   0  0  0  0  0  0  0  0  0  0  0  0
  147.1887  143.8837  160.5257 C   0  0  0  0  0  0  0  0  0  0  0  0
  147.2846  143.3241  161.6176 O   0  0  0  0  0  0  0  0  0  0  0  0
  148.1663  144.6240  159.9852 N   0  0  0  0  0  0  0  0  0  0  0  0
  149.4624  144.8586  160.6097 C   0  0  0  0  0  0  0  0  0  0  0  0
  150.6232  144.4709  159.6750 C   0  0  1  0  0  0  0  0  0  0  0  0
  151.9551  144.2716  160.4300 C   0  0  0  0  0  0  0  0  0  0  0  0
  153.0693  143.8512  159.4598 C   0  0  0  0  0  0  0  0  0  0  0  0
  152.6639  142.6038  158.6597 C   0  0  0  0  0  0  0  0  0  0  0  0
  151.3780  142.8111  157.9923 N   0  0  0  0  0  0  0  0  0  0  0  0
  151.0360  141.9548  156.9953 C   0  0  0  0  0  0  0  0  0  0  0  0
  150.0683  142.3029  156.1052 N   0  0  0  0  0  0  0  0  0  0  0  0
  149.7302  141.4727  155.1146 C   0  0  0  0  0  0  0  0  0  0  0  0
  150.2197  140.2633  154.8367 N   0  0  0  0  0  0  0  0  0  0  0  0
  151.1836  139.9013  155.7305 C   0  0  0  0  0  0  0  0  0  0  0  0
  151.6510  140.6813  156.8264 C   0  0  0  0  0  0  0  0  0  0  0  0
  152.6365  139.9836  157.5150 N   0  0  0  0  0  0  0  0  0  0  0  0
  152.7562  138.8646  156.8548 C   0  0  0  0  0  0  0  0  0  0  0  0
  151.9101  138.7237  155.7777 N   0  0  0  0  0  0  0  0  0  0  0  0
  151.8288  137.5804  154.8810 C   0  0  0  0  0  0  0  0  0  0  0  0
  151.3283  136.2846  155.5532 C   0  0  0  0  0  0  0  0  0  0  0  0
  150.7113  135.3316  154.5143 C   0  0  0  0  0  0  0  0  0  0  0  0
  149.3470  135.6248  154.2876 O   0  0  0  0  0  0  0  0  0  0  0  0
  152.3064  135.6081  156.5245 C   0  0  0  0  0  0  0  0  0  0  0  0
  151.3075  135.5313  157.5632 O   0  0  0  0  0  0  0  0  0  0  0  0
  150.4950  136.4713  156.8288 C   0  0  0  0  0  0  0  0  0  0  0  0
  150.2788  143.1975  158.8771 C   0  0  0  0  0  0  0  0  0  0  0  0
  146.1290  143.3878  158.7060 H   0  0  0  0  0  0  0  0  0  0  0  0
  145.4138  144.7234  159.6219 H   0  0  0  0  0  0  0  0  0  0  0  0
  145.2141  143.0585  160.1808 H   0  0  0  0  0  0  0  0  0  0  0  0
  148.0038  145.0518  159.0853 H   0  0  0  0  0  0  0  0  0  0  0  0
  149.5422  145.9095  160.8929 H   0  0  0  0  0  0  0  0  0  0  0  0
  149.5210  144.2756  161.5305 H   0  0  0  0  0  0  0  0  0  0  0  0
  150.7585  145.2827  158.9581 H   0  0  0  0  0  0  0  0  0  0  0  0
  152.2500  145.1871  160.9433 H   0  0  0  0  0  0  0  0  0  0  0  0
  151.8331  143.5082  161.1997 H   0  0  0  0  0  0  0  0  0  0  0  0
  153.2822  144.6708  158.7722 H   0  0  0  0  0  0  0  0  0  0  0  0
  153.9918  143.6593  160.0084 H   0  0  0  0  0  0  0  0  0  0  0  0
  153.4382  142.3791  157.9248 H   0  0  0  0  0  0  0  0  0  0  0  0
  152.5894  141.7427  159.3258 H   0  0  0  0  0  0  0  0  0  0  0  0
  148.9567  141.8281  154.4498 H   0  0  0  0  0  0  0  0  0  0  0  0
  153.4624  138.0998  157.1440 H   0  0  0  0  0  0  0  0  0  0  0  0
  151.1766  137.8550  154.0510 H   0  0  0  0  0  0  0  0  0  0  0  0
  152.8125  137.4272  154.4356 H   0  0  0  0  0  0  0  0  0  0  0  0
  151.2487  135.3648  153.5667 H   0  0  0  0  0  0  0  0  0  0  0  0
  150.7756  134.2988  154.8586 H   0  0  0  0  0  0  0  0  0  0  0  0
  149.2696  136.0717  153.4584 H   0  0  0  0  0  0  0  0  0  0  0  0
  152.6524  134.6269  156.1977 H   0  0  0  0  0  0  0  0  0  0  0  0
  153.1451  136.2357  156.8271 H   0  0  0  0  0  0  0  0  0  0  0  0
  150.5529  137.4747  157.2540 H   0  0  0  0  0  0  0  0  0  0  0  0
  149.4575  136.1479  156.7362 H   0  0  0  0  0  0  0  0  0  0  0  0
  150.0800  142.3718  159.5618 H   0  0  0  0  0  0  0  0  0  0  0  0
  149.3583  143.3615  158.3180 H   0  0  0  0  0  0  0  0  0  0  0  0
  1  2  1  0  0  0  0
  1 28  1  0  0  0  0
  1 29  1  0  0  0  0
  1 30  1  0  0  0  0
  2  3  2  0  0  0  0
  2  4  1  0  0  0  0
  4  5  1  0  0  0  0
  4 31  1  0  0  0  0
  5  6  1  0  0  0  0
  5 32  1  0  0  0  0
  5 33  1  0  0  0  0
  6 27  1  0  0  0  0
  6  7  1  0  0  0  0
  6 34  1  0  0  0  0
  7  8  1  0  0  0  0
  7 35  1  0  0  0  0
  7 36  1  0  0  0  0
  8  9  1  0  0  0  0
  8 37  1  0  0  0  0
  8 38  1  0  0  0  0
  9 10  1  0  0  0  0
  9 39  1  0  0  0  0
  9 40  1  0  0  0  0
 10 11  1  0  0  0  0
 10 27  1  0  0  0  0
 11 16  1  0  0  0  0
 11 12  2  0  0  0  0
 12 13  1  0  0  0  0
 13 14  2  0  0  0  0
 13 41  1  0  0  0  0
 14 15  1  0  0  0  0
 15 19  1  0  0  0  0
 15 16  2  0  0  0  0
 16 17  1  0  0  0  0
 17 18  2  0  0  0  0
 18 19  1  0  0  0  0
 18 42  1  0  0  0  0
 19 20  1  0  0  0  0
 20 21  1  0  0  0  0
 20 43  1  0  0  0  0
 20 44  1  0  0  0  0
 21 26  1  0  0  0  0
 21 22  1  0  0  0  0
 21 24  1  0  0  0  0
 22 23  1  0  0  0  0
 22 45  1  0  0  0  0
 22 46  1  0  0  0  0
 23 47  1  0  0  0  0
 24 25  1  0  0  0  0
 24 48  1  0  0  0  0
 24 49  1  0  0  0  0
 25 26  1  0  0  0  0
 26 50  1  0  0  0  0
 26 51  1  0  0  0  0
 27 52  1  0  0  0  0
 27 53  1  0  0  0  0
M  END
> <s_m_source_file>
AV-unprocessed.smi

> <i_m_source_file_index>
204

> <i_lp_mmshare_version>
43012

> <i_f3d_flags>
0

> <s_epik_input>
W0NIM11DKD1PKVtOSF1bQ0gyXVtDQEBIXTFbQ0gyXVtDSDJdW0NIMl1OKFtDSDJdMSljKG5bY0hdbjIpYyhjMjMpbltjSF1uM1tDSDJdQzQoW0NIMl1bT0hdKVtDSDJdT1tDSDJdNA==

> <s_epik_cmdline>
J2VwaWtfcHl0aG9uJywgJy1waCcsICc3LjAnLCAnLXRuJywgJzgnLCAnLW1hJywgJzIwMCcsICctbWV0YWxfYmluZGluZycsICctaW1hZScsICc8aW5maWxlLm1hZT4nLCAnLW9tYWUnLCAnPG91dGZpbGUubWFlPic=

> <r_lp_tautomer_probability>
1

> <r_epik_Ionization_Penalty>
0.00166599

> <r_epik_Ionization_Penalty_Charging>
0

> <r_epik_Ionization_Penalty_Neutral>
0.00166599

> <r_epik_State_Penalty>
0.000989951

> <r_epik_Charging_Adjusted_Penalty>
0.000989951

> <i_epik_Tot_Q>
0

> <i_epik_Tot_abs_Q>
0

> <r_epik_Metal_State_Penalty>
-0

> <b_epik_Metal_Only>
0

> <s_lp_Force_Field>
OPLS_2005

> <r_lp_Energy>
35.563

> <b_lp_Chiralities_Consistent>
1

> <s_lp_Variant>
AV-unprocessed.smi:204-2

> <Gold.Version>
5.8.1

> <Gold.Id.Protein>
6NUR|6NUR_protein|mol2

> <Gold.PLP.Fitness>
51.7201

> <Gold.PLP.PLP>
-41.8285

> <Gold.PLP.part.hbond>
-5.6377

> <Gold.PLP.part.metal>
0.0000

> <Gold.PLP.part.buried>
-6.1403

> <Gold.PLP.part.nonpolar>
-32.6376

> <Gold.PLP.part.repulsive>
3.0800

> <Gold.PLP.ligand.clash>
0.0000

> <Gold.PLP.ligand.torsion>
1.3751

> <Gold.PLP.Chemscore.Hbond>
3.9367

> <Gold.PLP.Chemscore.CHOScore>
0.0000

> <Gold.PLP.Chemscore.Metal>
0.0000

> <Gold.Chemscore.Hbonds>
donor molecule, donor type, donor heavy atom, donor atom, acceptor molecule, acceptor atom, score
      L1  H     4    31       P1  8029  1.00
      L1  H    23    47       P1  7948  1.00
      P1  H  6896  6908       L1    25  0.07
      P1  H  6933  6944       L1     3  1.00
      P1  H  7989  7998       L1    14  0.51
      P1  H  7997  8009       L1    17  0.02

> <Gold.PLP.Chemscore.Internal.Correction>
0.8317

> <Gold.Rescore>
     Score         DG    S(hbond)    S(metal)    S(lipo)     H(rot)  DE(clash)    DE(int)     intcor
     15.87     -19.32       3.54        0.00      89.92       3.33       0.94       2.50       ----

> <Gold.Chemscore.Fitness>
15.8718

> <Gold.Chemscore.DG>
-19.3175

> <Gold.Chemscore.ZeroCoef>
-5.4800

> <Gold.Chemscore.Hbond>
3.5425

> <Gold.Chemscore.Metal>
0.0000

> <Gold.Chemscore.Lipo>
89.9183

> <Gold.Chemscore.Internal_Hbond>
0.0000

> <Gold.Chemscore.DEClash>
0.9410

> <Gold.Chemscore.DEInternal>
2.5047

> <Gold.Chemscore.Rot>
3.3261

> <Gold.Chemscore.Internal.Correction>
   9.000000E+99

> <Gold.Chemscore.Hbonds>
donor molecule, donor type, donor heavy atom, donor atom, acceptor molecule, acceptor atom, score
      L1  H     4    31       P1  8029  0.94
      L1  H    23    47       P1  7948  0.76
      P1  H  6896  6908       L1    25  0.07
      P1  H  6933  6944       L1     3  0.46
      P1  H  7989  7998       L1    14  0.01

> <Gold.Chemscore.Hbond.Weighted>
-11.8319

> <Gold.Chemscore.Metal.Weighted>
-0.0000

> <Gold.Chemscore.Lipo.Weighted>
-10.5204

> <Gold.Chemscore.Internal_Hbond.Weighted>
0.0000

> <Gold.Chemscore.DEClash.Weighted>
0.9410

> <Gold.Chemscore.DEInternal.Weighted>
2.5047

> <Gold.Chemscore.Rot.Weighted>
8.5149

> <Gold.Chemscore.Internal.Correction.Weighted>
   9.000000E+99

> <Gold.Protein.RotatedTorsions>
[ 6907 6896 6895 6894 ] final  165.47 input  -60.11 | X-H torsion
[ 7974 7965 7964 7962 ] final  143.61 input  175.53 | X-H torsion
[ 8008 7997 7996 7995 ] final  140.81 input   59.86 | X-H torsion
[ 10167 10162 10161 10158 ] final  -55.47 input  -65.29 | X-H torsion
[ 10718 10713 10712 10709 ] final  -19.93 input   66.30 | X-H torsion
[ 10763 10752 10751 10750 ] final  -59.04 input  -60.55 | X-H torsion
[ 11005 11000 10999 10996 ] final   76.54 input  -57.11 | X-H torsion

> <Gold.Protein.ActiveResidues>
 VAL166  LYS551  ARG553  GLY616  TRP617  ASP618  TYR619  PRO620  LYS621  CYS622 
 ASP623  PHE694  ASN695  SER759  ASP760  ASP761  ALA762  ILE779  LEU786  VAL792 
 PHE793  MET794  SER795  GLU796  ALA797  LYS798  CYS799  TRP800  GLU811  SER814 

> <Gold.Protein.RotatedAtoms>
  151.8938  133.3522  159.3807 H   0  0  0  0  0  0  0  0  0  0  0  0  # atno 6907 bound_to 6896
  150.7096  134.4897  159.5519 H   0  0  0  0  0  0  0  0  0  0  0  0  # atno 6908 bound_to 6896
  152.2472  134.8170  160.0502 H   0  0  0  0  0  0  0  0  0  0  0  0  # atno 6909 bound_to 6896
  144.8906  139.5564  143.5800 H   0  0  0  0  0  0  0  0  0  0  0  0  # atno 7974 bound_to 7965
  156.2974  140.2331  156.4462 H   0  0  0  0  0  0  0  0  0  0  0  0  # atno 8008 bound_to 7997
  154.8142  140.0441  157.1385 H   0  0  0  0  0  0  0  0  0  0  0  0  # atno 8009 bound_to 7997
  154.9389  140.3026  155.5134 H   0  0  0  0  0  0  0  0  0  0  0  0  # atno 8010 bound_to 7997
  140.6373  143.2489  151.5084 H   0  0  0  0  0  0  0  0  0  0  0  0  # atno 10167 bound_to 10162
  156.5388  130.4673  149.6509 H   0  0  0  0  0  0  0  0  0  0  0  0  # atno 10718 bound_to 10713
  154.2476  135.6332  153.5229 H   0  0  0  0  0  0  0  0  0  0  0  0  # atno 10763 bound_to 10752
  152.9918  135.5557  154.5843 H   0  0  0  0  0  0  0  0  0  0  0  0  # atno 10764 bound_to 10752
  154.5363  135.2891  155.1110 H   0  0  0  0  0  0  0  0  0  0  0  0  # atno 10765 bound_to 10752
  139.9294  134.7609  156.1408 H   0  0  0  0  0  0  0  0  0  0  0  0  # atno 11005 bound_to 11000
  146.3051  139.7554  142.9062 LP  0  0  0  0  0  0  0  0  0  0  0  0  # atno 17320 bound_to 7965
  145.3790  141.0355  143.3188 LP  0  0  0  0  0  0  0  0  0  0  0  0  # atno 17321 bound_to 7965
  139.5583  144.2221  152.1649 LP  0  0  0  0  0  0  0  0  0  0  0  0  # atno 17342 bound_to 10162
  140.1481  144.5140  150.6704 LP  0  0  0  0  0  0  0  0  0  0  0  0  # atno 17343 bound_to 10162
  156.2991  130.7167  151.2034 LP  0  0  0  0  0  0  0  0  0  0  0  0  # atno 17370 bound_to 10713
  157.7409  131.0511  150.5135 LP  0  0  0  0  0  0  0  0  0  0  0  0  # atno 17371 bound_to 10713
  141.0873  133.6729  156.2463 LP  0  0  0  0  0  0  0  0  0  0  0  0  # atno 17394 bound_to 11000
  140.6245  134.5328  157.5552 LP  0  0  0  0  0  0  0  0  0  0  0  0  # atno 17395 bound_to 11000

$$$$
