AV-unprocessed.smi:3143|AV-procd|sdf|11976|dock2
  -GOLD-   2272017373D 1   1.00000     0.00000
 Structure written by MMmdl.
 37 38  0  0  0  0  0  0  0  0  1 V2000
  152.0938  144.5196  156.7559 C   0  0  0  0  0  0  0  0  0  0  0  0
  151.5147  143.4287  157.6698 C   0  0  2  0  0  0  0  0  0  0  0  0
  150.2005  143.0013  157.1552 N   0  0  0  0  0  0  0  0  0  0  0  0
  150.2882  142.0333  156.0672 C   0  0  0  0  0  0  0  0  0  0  0  0
  151.3933  141.0151  156.3828 C   0  0  0  0  0  0  0  0  0  0  0  0
  151.5202  140.0189  155.3363 N   0  0  0  0  0  0  0  0  0  0  0  0
  152.3269  138.9005  155.3098 C   0  0  0  0  0  0  0  0  0  0  0  0
  152.1063  138.2687  154.1196 C   0  0  0  0  0  0  0  0  0  0  0  0
  151.1353  139.0872  153.4773 C   0  0  0  0  0  0  0  0  0  0  0  0
  150.7874  140.1344  154.2076 N   0  0  0  0  0  0  0  0  0  0  0  0
  151.4685  143.9397  159.1282 C   0  0  0  0  0  0  0  0  0  0  0  0
  150.7916  144.9366  159.3860 O   0  0  0  0  0  0  0  0  0  0  0  0
  152.1667  143.2895  160.0848 N   0  0  0  0  0  0  0  0  0  0  0  0
  153.0345  142.1277  159.8910 C   0  0  0  0  0  0  0  0  0  0  0  0
  153.7887  141.9467  161.2085 C   0  0  0  0  0  0  0  0  0  0  0  0
  152.8727  142.5737  162.2492 C   0  0  0  0  0  0  0  0  0  0  0  0
  152.1587  143.6920  161.4905 C   0  0  0  0  0  0  0  0  0  0  0  0
  153.0822  144.8361  157.0912 H   0  0  0  0  0  0  0  0  0  0  0  0
  151.4533  145.4024  156.7307 H   0  0  0  0  0  0  0  0  0  0  0  0
  152.1990  144.1578  155.7327 H   0  0  0  0  0  0  0  0  0  0  0  0
  152.1727  142.5637  157.5981 H   0  0  0  0  0  0  0  0  0  0  0  0
  149.6500  143.7923  156.8532 H   0  0  0  0  0  0  0  0  0  0  0  0
  149.3315  141.5209  155.9558 H   0  0  0  0  0  0  0  0  0  0  0  0
  150.5063  142.5280  155.1202 H   0  0  0  0  0  0  0  0  0  0  0  0
  152.3548  141.5174  156.5017 H   0  0  0  0  0  0  0  0  0  0  0  0
  151.1846  140.5033  157.3233 H   0  0  0  0  0  0  0  0  0  0  0  0
  152.9829  138.6502  156.1305 H   0  0  0  0  0  0  0  0  0  0  0  0
  152.5679  137.3604  153.7619 H   0  0  0  0  0  0  0  0  0  0  0  0
  150.6775  138.9536  152.5084 H   0  0  0  0  0  0  0  0  0  0  0  0
  152.4167  141.2526  159.6846 H   0  0  0  0  0  0  0  0  0  0  0  0
  153.7286  142.2631  159.0604 H   0  0  0  0  0  0  0  0  0  0  0  0
  154.0222  140.9036  161.4229 H   0  0  0  0  0  0  0  0  0  0  0  0
  154.7288  142.4988  161.1703 H   0  0  0  0  0  0  0  0  0  0  0  0
  152.1430  141.8356  162.5846 H   0  0  0  0  0  0  0  0  0  0  0  0
  153.4105  142.9344  163.1265 H   0  0  0  0  0  0  0  0  0  0  0  0
  152.7025  144.6324  161.5933 H   0  0  0  0  0  0  0  0  0  0  0  0
  151.1461  143.8426  161.8684 H   0  0  0  0  0  0  0  0  0  0  0  0
  1  2  1  0  0  0  0
  1 18  1  0  0  0  0
  1 19  1  0  0  0  0
  1 20  1  0  0  0  0
  2  3  1  0  0  0  0
  2 11  1  0  0  0  0
  2 21  1  0  0  0  0
  3  4  1  0  0  0  0
  3 22  1  0  0  0  0
  4  5  1  0  0  0  0
  4 23  1  0  0  0  0
  4 24  1  0  0  0  0
  5  6  1  0  0  0  0
  5 25  1  0  0  0  0
  5 26  1  0  0  0  0
  6 10  1  0  0  0  0
  6  7  1  0  0  0  0
  7  8  2  0  0  0  0
  7 27  1  0  0  0  0
  8  9  1  0  0  0  0
  8 28  1  0  0  0  0
  9 10  2  0  0  0  0
  9 29  1  0  0  0  0
 11 12  2  0  0  0  0
 11 13  1  0  0  0  0
 13 17  1  0  0  0  0
 13 14  1  0  0  0  0
 14 15  1  0  0  0  0
 14 30  1  0  0  0  0
 14 31  1  0  0  0  0
 15 16  1  0  0  0  0
 15 32  1  0  0  0  0
 15 33  1  0  0  0  0
 16 17  1  0  0  0  0
 16 34  1  0  0  0  0
 16 35  1  0  0  0  0
 17 36  1  0  0  0  0
 17 37  1  0  0  0  0
M  END
> <s_m_source_file>
AV-unprocessed.smi

> <i_m_source_file_index>
3143

> <i_lp_mmshare_version>
43012

> <i_f3d_flags>
0

> <s_epik_input>
W0NIMl0xW0NIMl1bQ0gyXVtDSDJdTjFDKD1PKVtDQEhdKFtDSDNdKVtOSF1bQ0gyXVtDSDJdbjJbY0hdW2NIXVtjSF1uMg==

> <s_epik_cmdline>
J2VwaWtfcHl0aG9uJywgJy1waCcsICc3LjAnLCAnLXRuJywgJzgnLCAnLW1hJywgJzIwMCcsICctbWV0YWxfYmluZGluZycsICctaW1hZScsICc8aW5maWxlLm1hZT4nLCAnLW9tYWUnLCAnPG91dGZpbGUubWFlPic=

> <r_lp_tautomer_probability>
1

> <r_epik_Ionization_Penalty>
0.733724

> <r_epik_Ionization_Penalty_Charging>
0

> <r_epik_Ionization_Penalty_Neutral>
0.733724

> <r_epik_State_Penalty>
0.75825

> <r_epik_Charging_Adjusted_Penalty>
0.75825

> <i_epik_Tot_Q>
0

> <i_epik_Tot_abs_Q>
0

> <r_epik_Metal_State_Penalty>
0.757598

> <b_epik_Metal_Only>
0

> <s_lp_Force_Field>
OPLS_2005

> <r_lp_Energy>
31.3447

> <b_lp_Chiralities_Consistent>
1

> <s_lp_Variant>
AV-unprocessed.smi:3143-3

> <Gold.Version>
5.8.1

> <Gold.Id.Protein>
6NUR|6NUR_protein|mol2

> <Gold.PLP.Fitness>
52.8365

> <Gold.PLP.PLP>
-43.2943

> <Gold.PLP.part.hbond>
-2.0000

> <Gold.PLP.part.metal>
0.0000

> <Gold.PLP.part.buried>
-6.6117

> <Gold.PLP.part.nonpolar>
-36.3006

> <Gold.PLP.part.repulsive>
0.2457

> <Gold.PLP.ligand.clash>
0.4370

> <Gold.PLP.ligand.torsion>
0.3577

> <Gold.PLP.Chemscore.Hbond>
1.9500

> <Gold.PLP.Chemscore.CHOScore>
1.5971

> <Gold.PLP.Chemscore.Metal>
0.0000

> <Gold.Chemscore.Hbonds>
donor molecule, donor type, donor heavy atom, donor atom, acceptor molecule, acceptor atom, score
      L1  H     3    22       P1  8028  1.00
      P1  H  7989  7998       L1    10  0.19
      L1  C     9    29       P1  7957  0.66

> <Gold.PLP.Chemscore.Internal.Correction>
0.0534

> <Gold.Rescore>
     Score         DG    S(hbond)    S(metal)    S(lipo)     H(rot)  DE(clash)    DE(int)     intcor
     17.19     -19.62       1.94        0.00     104.34       1.77       1.81       0.62       ----

> <Gold.Chemscore.Fitness>
17.1942

> <Gold.Chemscore.DG>
-19.6165

> <Gold.Chemscore.ZeroCoef>
-5.4800

> <Gold.Chemscore.Hbond>
1.9360

> <Gold.Chemscore.Metal>
0.0000

> <Gold.Chemscore.Lipo>
104.3416

> <Gold.Chemscore.Internal_Hbond>
0.0000

> <Gold.Chemscore.DEClash>
1.8056

> <Gold.Chemscore.DEInternal>
0.6166

> <Gold.Chemscore.Rot>
1.7726

> <Gold.Chemscore.Internal.Correction>
   9.000000E+99

> <Gold.Chemscore.Hbonds>
donor molecule, donor type, donor heavy atom, donor atom, acceptor molecule, acceptor atom, score
      L1  H     3    22       P1  8028  0.93

> <Gold.Chemscore.Hbond.Weighted>
-6.4663

> <Gold.Chemscore.Metal.Weighted>
-0.0000

> <Gold.Chemscore.Lipo.Weighted>
-12.2080

> <Gold.Chemscore.Internal_Hbond.Weighted>
0.0000

> <Gold.Chemscore.DEClash.Weighted>
1.8056

> <Gold.Chemscore.DEInternal.Weighted>
0.6166

> <Gold.Chemscore.Rot.Weighted>
4.5378

> <Gold.Chemscore.Internal.Correction.Weighted>
   9.000000E+99

> <Gold.Protein.RotatedTorsions>
[ 6907 6896 6895 6894 ] final  -92.59 input  -60.11 | X-H torsion
[ 7974 7965 7964 7962 ] final  150.90 input  175.53 | X-H torsion
[ 8008 7997 7996 7995 ] final  -21.61 input   59.86 | X-H torsion
[ 10167 10162 10161 10158 ] final  111.08 input  -65.29 | X-H torsion
[ 10718 10713 10712 10709 ] final   -0.00 input   66.30 | X-H torsion
[ 10763 10752 10751 10750 ] final  -40.53 input  -60.55 | X-H torsion
[ 11005 11000 10999 10996 ] final -173.42 input  -57.11 | X-H torsion

> <Gold.Protein.ActiveResidues>
 VAL166  LYS551  ARG553  GLY616  TRP617  ASP618  TYR619  PRO620  LYS621  CYS622 
 ASP623  PHE694  ASN695  SER759  ASP760  ASP761  ALA762  ILE779  LEU786  VAL792 
 PHE793  MET794  SER795  GLU796  ALA797  LYS798  CYS799  TRP800  GLU811  SER814 

> <Gold.Protein.RotatedAtoms>
  150.6908  134.2099  159.4354 H   0  0  0  0  0  0  0  0  0  0  0  0  # atno 6907 bound_to 6896
  152.0061  134.9899  160.0576 H   0  0  0  0  0  0  0  0  0  0  0  0  # atno 6908 bound_to 6896
  152.1533  133.4500  159.4861 H   0  0  0  0  0  0  0  0  0  0  0  0  # atno 6909 bound_to 6896
  144.8331  139.6468  143.6050 H   0  0  0  0  0  0  0  0  0  0  0  0  # atno 7974 bound_to 7965
  154.4695  140.2030  156.0032 H   0  0  0  0  0  0  0  0  0  0  0  0  # atno 8008 bound_to 7997
  156.0985  140.3247  155.7881 H   0  0  0  0  0  0  0  0  0  0  0  0  # atno 8009 bound_to 7997
  155.4837  140.0540  157.2954 H   0  0  0  0  0  0  0  0  0  0  0  0  # atno 8010 bound_to 7997
  139.6638  144.7128  151.1814 H   0  0  0  0  0  0  0  0  0  0  0  0  # atno 10167 bound_to 10162
  156.8269  130.5475  149.5691 H   0  0  0  0  0  0  0  0  0  0  0  0  # atno 10718 bound_to 10713
  153.9475  135.6754  153.4744 H   0  0  0  0  0  0  0  0  0  0  0  0  # atno 10763 bound_to 10752
  153.0901  135.4879  154.8669 H   0  0  0  0  0  0  0  0  0  0  0  0  # atno 10764 bound_to 10752
  154.7343  135.3145  154.8796 H   0  0  0  0  0  0  0  0  0  0  0  0  # atno 10765 bound_to 10752
  140.4860  134.6030  157.4937 H   0  0  0  0  0  0  0  0  0  0  0  0  # atno 11005 bound_to 11000
  146.2632  139.6459  142.9347 LP  0  0  0  0  0  0  0  0  0  0  0  0  # atno 17320 bound_to 7965
  145.4853  141.0438  143.2623 LP  0  0  0  0  0  0  0  0  0  0  0  0  # atno 17321 bound_to 7965
  140.7591  143.5951  150.8756 LP  0  0  0  0  0  0  0  0  0  0  0  0  # atno 17342 bound_to 10162
  139.9611  143.6163  152.3002 LP  0  0  0  0  0  0  0  0  0  0  0  0  # atno 17343 bound_to 10162
  156.0956  130.5930  150.9808 LP  0  0  0  0  0  0  0  0  0  0  0  0  # atno 17370 bound_to 10713
  157.6427  131.0908  150.8217 LP  0  0  0  0  0  0  0  0  0  0  0  0  # atno 17371 bound_to 10713
  139.9798  134.7156  155.9881 LP  0  0  0  0  0  0  0  0  0  0  0  0  # atno 17394 bound_to 11000
  141.1508  133.6549  156.4007 LP  0  0  0  0  0  0  0  0  0  0  0  0  # atno 17395 bound_to 11000

$$$$
