AV-unprocessed.smi:1381|AV-procd|sdf|5619|dock3
  -GOLD-   22720 5233D 1   1.00000     0.00000
 Structure written by MMmdl.
 42 43  0  0  0  0  0  0  0  0  3 V2000
  153.8642  141.6641  161.0086 C   0  0  0  0  0  0  0  0  0  0  0  0
  152.9251  141.6509  159.8517 C   0  0  0  0  0  0  0  0  0  0  0  0
  152.7598  140.7980  158.7969 C   0  0  0  0  0  0  0  0  0  0  0  0
  151.6878  141.3857  158.0735 C   0  0  0  0  0  0  0  0  0  0  0  0
  151.2040  140.7843  156.8817 N   0  0  0  0  0  0  0  0  0  0  0  0
  151.8119  139.8889  156.0817 C   0  0  0  0  0  0  0  0  0  0  0  0
  152.9468  139.4786  156.3519 O   0  0  0  0  0  0  0  0  0  0  0  0
  151.0363  139.5411  155.0187 N   0  5  0  0  0  0  0  0  0  0  0  0
  150.9912  138.2052  154.4223 C   0  0  0  0  0  0  0  0  0  0  0  0
  149.6976  137.4875  154.8489 C   0  0  0  0  0  0  0  0  0  0  0  0
  149.6308  136.1037  154.3011 N   0  3  1  0  0  0  0  0  0  0  0  0
  150.9248  135.3740  154.2996 C   0  0  0  0  0  0  0  0  0  0  0  0
  151.2642  134.8301  155.7045 C   0  0  2  0  0  0  0  0  0  0  0  0
  152.5345  133.9725  155.6984 C   0  0  0  0  0  0  0  0  0  0  0  0
  150.1861  134.0238  156.1691 O   0  0  0  0  0  0  0  0  0  0  0  0
  148.9650  134.7475  156.2854 C   0  0  2  0  0  0  0  0  0  0  0  0
  147.9089  133.8100  156.8810 C   0  0  0  0  0  0  0  0  0  0  0  0
  148.5590  135.2660  154.8918 C   0  0  0  0  0  0  0  0  0  0  0  0
  151.2375  142.4959  158.6393 N   0  0  0  0  0  0  0  0  0  0  0  0
  152.0285  142.6718  159.7809 O   0  0  0  0  0  0  0  0  0  0  0  0
  154.5137  140.7887  160.9941 H   0  0  0  0  0  0  0  0  0  0  0  0
  153.3159  141.6628  161.9507 H   0  0  0  0  0  0  0  0  0  0  0  0
  154.4943  142.5531  160.9836 H   0  0  0  0  0  0  0  0  0  0  0  0
  153.3181  139.9000  158.5784 H   0  0  0  0  0  0  0  0  0  0  0  0
  150.2751  141.0614  156.6016 H   0  0  0  0  0  0  0  0  0  0  0  0
  151.0307  138.2347  153.3327 H   0  0  0  0  0  0  0  0  0  0  0  0
  151.8445  137.6034  154.7352 H   0  0  0  0  0  0  0  0  0  0  0  0
  149.6330  137.4718  155.9370 H   0  0  0  0  0  0  0  0  0  0  0  0
  148.8417  138.0760  154.5139 H   0  0  0  0  0  0  0  0  0  0  0  0
  150.8446  134.5441  153.5961 H   0  0  0  0  0  0  0  0  0  0  0  0
  151.7232  136.0174  153.9269 H   0  0  0  0  0  0  0  0  0  0  0  0
  151.4153  135.6555  156.4018 H   0  0  0  0  0  0  0  0  0  0  0  0
  153.3954  134.5490  155.3585 H   0  0  0  0  0  0  0  0  0  0  0  0
  152.4272  133.1106  155.0389 H   0  0  0  0  0  0  0  0  0  0  0  0
  152.7584  133.6007  156.6987 H   0  0  0  0  0  0  0  0  0  0  0  0
  149.1068  135.5855  156.9700 H   0  0  0  0  0  0  0  0  0  0  0  0
  146.9532  134.3211  157.0003 H   0  0  0  0  0  0  0  0  0  0  0  0
  148.2170  133.4487  157.8626 H   0  0  0  0  0  0  0  0  0  0  0  0
  147.7467  132.9408  156.2428 H   0  0  0  0  0  0  0  0  0  0  0  0
  147.6228  135.8246  154.9349 H   0  0  0  0  0  0  0  0  0  0  0  0
  148.3804  134.4219  154.2243 H   0  0  0  0  0  0  0  0  0  0  0  0
  149.3706  136.2404  153.3336 H   0  0  0  0  0  0  0  0  0  0  0  0
  1  2  1  0  0  0  0
  1 21  1  0  0  0  0
  1 22  1  0  0  0  0
  1 23  1  0  0  0  0
  2 20  1  0  0  0  0
  2  3  2  0  0  0  0
  3  4  1  0  0  0  0
  3 24  1  0  0  0  0
  4  5  1  0  0  0  0
  4 19  2  0  0  0  0
  5  6  1  0  0  0  0
  5 25  1  0  0  0  0
  6  7  2  0  0  0  0
  6  8  1  0  0  0  0
  8  9  1  0  0  0  0
  9 10  1  0  0  0  0
  9 26  1  0  0  0  0
  9 27  1  0  0  0  0
 10 11  1  0  0  0  0
 10 28  1  0  0  0  0
 10 29  1  0  0  0  0
 11 18  1  0  0  0  0
 11 12  1  0  0  0  0
 11 42  1  0  0  0  0
 12 13  1  0  0  0  0
 12 30  1  0  0  0  0
 12 31  1  0  0  0  0
 13 14  1  0  0  0  0
 13 15  1  0  0  0  0
 13 32  1  0  0  0  0
 14 33  1  0  0  0  0
 14 34  1  0  0  0  0
 14 35  1  0  0  0  0
 15 16  1  0  0  0  0
 16 17  1  0  0  0  0
 16 18  1  0  0  0  0
 16 36  1  0  0  0  0
 17 37  1  0  0  0  0
 17 38  1  0  0  0  0
 17 39  1  0  0  0  0
 18 40  1  0  0  0  0
 18 41  1  0  0  0  0
 19 20  1  0  0  0  0
M  CHG  1   8  -1
M  CHG  1  11   1
M  END
> <s_m_source_file>
AV-unprocessed.smi

> <i_m_source_file_index>
1381

> <i_lp_mmshare_version>
43012

> <i_f3d_flags>
0

> <s_epik_input>
W0NIM11jMVtjSF1jKG5vMSlbTkhdQyg9TylbTkhdW0NIMl1bQ0gyXU4yW0NIMl1bQ0BASF0oW0NIM10pT1tDQEBIXShbQ0gzXSlbQ0gyXTI=

> <s_epik_cmdline>
J2VwaWtfcHl0aG9uJywgJy1waCcsICc3LjAnLCAnLXRuJywgJzgnLCAnLW1hJywgJzIwMCcsICctbWV0YWxfYmluZGluZycsICctaW1hZScsICc8aW5maWxlLm1hZT4nLCAnLW9tYWUnLCAnPG91dGZpbGUubWFlPic=

> <r_epik_Ionization_Penalty>
6.8073

> <r_epik_Ionization_Penalty_Charging>
6.80729

> <r_epik_Ionization_Penalty_Neutral>
5.65391e-06

> <r_epik_State_Penalty>
7.47323

> <r_epik_Charging_Adjusted_Penalty>
14.2805

> <i_epik_Tot_Q>
0

> <i_epik_Tot_abs_Q>
2

> <r_epik_Metal_State_Penalty>
3.40035

> <b_epik_Metal_Only>
1

> <s_lp_Force_Field>
OPLS_2005

> <r_lp_Energy>
13.1386

> <b_lp_Chiralities_Consistent>
1

> <s_lp_Variant>
AV-unprocessed.smi:1381-18

> <Gold.Version>
5.8.1

> <Gold.Id.Protein>
6NUR|6NUR_protein|mol2

> <Gold.PLP.Fitness>
39.3129

> <Gold.PLP.PLP>
-28.4241

> <Gold.PLP.part.hbond>
-3.0000

> <Gold.PLP.part.metal>
0.0000

> <Gold.PLP.part.buried>
-5.1243

> <Gold.PLP.part.nonpolar>
-20.2156

> <Gold.PLP.part.repulsive>
0.2696

> <Gold.PLP.ligand.clash>
0.0000

> <Gold.PLP.ligand.torsion>
0.5745

> <Gold.PLP.Chemscore.Hbond>
4.0000

> <Gold.PLP.Chemscore.CHOScore>
0.0000

> <Gold.PLP.Chemscore.Metal>
0.0000

> <Gold.Chemscore.Hbonds>
donor molecule, donor type, donor heavy atom, donor atom, acceptor molecule, acceptor atom, score
      L1  H    11    42       P1  7948  1.85
      P1  H  7989  7998       L1     8  0.81
      P1  H  7997  8010       L1     7  1.00

> <Gold.PLP.Chemscore.Internal.Correction>
0.0379

> <Gold.Rescore>
     Score         DG    S(hbond)    S(metal)    S(lipo)     H(rot)  DE(clash)    DE(int)     intcor
     15.65     -17.70       2.75        0.00      60.41       1.58       0.02       2.02       ----

> <Gold.Chemscore.Fitness>
15.6537

> <Gold.Chemscore.DG>
-17.6962

> <Gold.Chemscore.ZeroCoef>
-5.4800

> <Gold.Chemscore.Hbond>
2.7519

> <Gold.Chemscore.Metal>
0.0000

> <Gold.Chemscore.Lipo>
60.4071

> <Gold.Chemscore.Internal_Hbond>
0.0000

> <Gold.Chemscore.DEClash>
0.0201

> <Gold.Chemscore.DEInternal>
2.0224

> <Gold.Chemscore.Rot>
1.5792

> <Gold.Chemscore.Internal.Correction>
   9.000000E+99

> <Gold.Chemscore.Hbonds>
donor molecule, donor type, donor heavy atom, donor atom, acceptor molecule, acceptor atom, score
      L1  H    11    42       P1  7948  0.62
      P1  H  7989  7998       L1     8  0.22
      P1  H  7997  8010       L1     7  0.96

> <Gold.Chemscore.Hbond.Weighted>
-9.1914

> <Gold.Chemscore.Metal.Weighted>
-0.0000

> <Gold.Chemscore.Lipo.Weighted>
-7.0676

> <Gold.Chemscore.Internal_Hbond.Weighted>
0.0000

> <Gold.Chemscore.DEClash.Weighted>
0.0201

> <Gold.Chemscore.DEInternal.Weighted>
2.0224

> <Gold.Chemscore.Rot.Weighted>
4.0428

> <Gold.Chemscore.Internal.Correction.Weighted>
   9.000000E+99

> <Gold.Protein.RotatedTorsions>
[ 6907 6896 6895 6894 ] final    1.15 input  -60.11 | X-H torsion
[ 7974 7965 7964 7962 ] final  -98.55 input  175.53 | X-H torsion
[ 8008 7997 7996 7995 ] final   58.54 input   59.86 | X-H torsion
[ 10167 10162 10161 10158 ] final  -60.31 input  -65.29 | X-H torsion
[ 10718 10713 10712 10709 ] final   94.16 input   66.30 | X-H torsion
[ 10763 10752 10751 10750 ] final   65.99 input  -60.55 | X-H torsion
[ 11005 11000 10999 10996 ] final -161.75 input  -57.11 | X-H torsion

> <Gold.Protein.ActiveResidues>
 VAL166  LYS551  ARG553  GLY616  TRP617  ASP618  TYR619  PRO620  LYS621  CYS622 
 ASP623  PHE694  ASN695  SER759  ASP760  ASP761  ALA762  ILE779  LEU786  VAL792 
 PHE793  MET794  SER795  GLU796  ALA797  LYS798  CYS799  TRP800  GLU811  SER814 

> <Gold.Protein.RotatedAtoms>
  151.5880  135.1055  160.0032 H   0  0  0  0  0  0  0  0  0  0  0  0  # atno 6907 bound_to 6896
  152.4321  133.7291  159.6588 H   0  0  0  0  0  0  0  0  0  0  0  0  # atno 6908 bound_to 6896
  150.8214  133.8176  159.3160 H   0  0  0  0  0  0  0  0  0  0  0  0  # atno 6909 bound_to 6896
  145.3191  140.9417  143.2726 H   0  0  0  0  0  0  0  0  0  0  0  0  # atno 7974 bound_to 7965
  155.5517  140.3486  155.4470 H   0  0  0  0  0  0  0  0  0  0  0  0  # atno 8008 bound_to 7997
  156.0578  140.1333  157.0002 H   0  0  0  0  0  0  0  0  0  0  0  0  # atno 8009 bound_to 7997
  154.4465  140.0991  156.6457 H   0  0  0  0  0  0  0  0  0  0  0  0  # atno 8010 bound_to 7997
  140.6079  143.2379  151.5778 H   0  0  0  0  0  0  0  0  0  0  0  0  # atno 10167 bound_to 10162
  157.6950  131.0503  150.4144 H   0  0  0  0  0  0  0  0  0  0  0  0  # atno 10718 bound_to 10713
  153.0120  135.5337  154.6753 H   0  0  0  0  0  0  0  0  0  0  0  0  # atno 10763 bound_to 10752
  154.5927  135.2860  155.0621 H   0  0  0  0  0  0  0  0  0  0  0  0  # atno 10764 bound_to 10752
  154.1707  135.6532  153.5061 H   0  0  0  0  0  0  0  0  0  0  0  0  # atno 10765 bound_to 10752
  140.6169  134.4791  157.5220 H   0  0  0  0  0  0  0  0  0  0  0  0  # atno 11005 bound_to 11000
  144.8954  139.4719  143.6658 LP  0  0  0  0  0  0  0  0  0  0  0  0  # atno 17320 bound_to 7965
  146.3089  139.7676  142.9035 LP  0  0  0  0  0  0  0  0  0  0  0  0  # atno 17321 bound_to 7965
  139.5339  144.2837  152.1208 LP  0  0  0  0  0  0  0  0  0  0  0  0  # atno 17342 bound_to 10162
  140.2030  144.4639  150.6422 LP  0  0  0  0  0  0  0  0  0  0  0  0  # atno 17343 bound_to 10162
  156.4525  130.4014  149.6627 LP  0  0  0  0  0  0  0  0  0  0  0  0  # atno 17370 bound_to 10713
  156.3771  130.7560  151.2549 LP  0  0  0  0  0  0  0  0  0  0  0  0  # atno 17371 bound_to 10713
  139.9169  134.8228  156.1337 LP  0  0  0  0  0  0  0  0  0  0  0  0  # atno 17394 bound_to 11000
  141.0769  133.6771  156.2255 LP  0  0  0  0  0  0  0  0  0  0  0  0  # atno 17395 bound_to 11000

$$$$
