AV-unprocessed.smi:1131|AV-procd|sdf|4850|dock3
  -GOLD-   22720 3423D 1   1.00000     0.00000
 Structure written by MMmdl.
 33 34  0  0  0  0  0  0  0  0  1 V2000
  150.7569  140.4491  155.0778 O   0  0  0  0  0  0  0  0  0  0  0  0
  150.0732  141.4550  155.2738 C   0  0  0  0  0  0  0  0  0  0  0  0
  148.9379  141.8358  154.3125 C   0  0  0  0  0  0  0  0  0  0  0  0
  147.9067  140.7943  154.1954 N   0  0  0  0  0  0  0  0  0  0  0  0
  147.5993  140.2495  152.9565 C   0  0  0  0  0  0  0  0  0  0  0  0
  146.6534  139.2976  152.7743 C   0  0  0  0  0  0  0  0  0  0  0  0
  145.8907  138.7877  153.9086 C   0  0  0  0  0  0  0  0  0  0  0  0
  145.0158  137.9269  153.8456 O   0  0  0  0  0  0  0  0  0  0  0  0
  146.2267  139.3625  155.1373 N   0  0  0  0  0  0  0  0  0  0  0  0
  147.1996  140.3443  155.3318 C   0  0  0  0  0  0  0  0  0  0  0  0
  147.4144  140.7868  156.4597 O   0  0  0  0  0  0  0  0  0  0  0  0
  150.2479  142.2652  156.3286 N   0  0  0  0  0  0  0  0  0  0  0  0
  151.2563  142.0846  157.3675 C   0  0  0  0  0  0  0  0  0  0  0  0
  151.0727  143.0755  158.5329 C   0  0  2  0  0  0  0  0  0  0  0  0
  151.6179  144.4668  158.2775 C   0  0  0  0  0  0  0  0  0  0  0  0
  151.7378  145.0204  159.6937 C   0  0  0  0  0  0  0  0  0  0  0  0
  152.0244  143.9001  160.5259 O   0  0  0  0  0  0  0  0  0  0  0  0
  151.8325  142.6884  159.8011 C   0  0  0  0  0  0  0  0  0  0  0  0
  145.7222  139.0429  155.9513 H   0  0  0  0  0  0  0  0  0  0  0  0
  148.4942  142.7686  154.6642 H   0  0  0  0  0  0  0  0  0  0  0  0
  149.3515  142.0673  153.3286 H   0  0  0  0  0  0  0  0  0  0  0  0
  148.1362  140.6007  152.0868 H   0  0  0  0  0  0  0  0  0  0  0  0
  146.4589  138.9127  151.7836 H   0  0  0  0  0  0  0  0  0  0  0  0
  149.6405  143.0670  156.4169 H   0  0  0  0  0  0  0  0  0  0  0  0
  151.2292  141.0576  157.7363 H   0  0  0  0  0  0  0  0  0  0  0  0
  152.2371  142.2205  156.9108 H   0  0  0  0  0  0  0  0  0  0  0  0
  150.0132  143.1582  158.7815 H   0  0  0  0  0  0  0  0  0  0  0  0
  152.6032  144.4110  157.8126 H   0  0  0  0  0  0  0  0  0  0  0  0
  150.9724  145.0724  157.6408 H   0  0  0  0  0  0  0  0  0  0  0  0
  152.5077  145.7875  159.7777 H   0  0  0  0  0  0  0  0  0  0  0  0
  150.7901  145.4554  160.0130 H   0  0  0  0  0  0  0  0  0  0  0  0
  151.2981  141.9489  160.3978 H   0  0  0  0  0  0  0  0  0  0  0  0
  152.8130  142.2782  159.5559 H   0  0  0  0  0  0  0  0  0  0  0  0
  1  2  2  0  0  0  0
  2  3  1  0  0  0  0
  2 12  1  0  0  0  0
  3  4  1  0  0  0  0
  3 20  1  0  0  0  0
  3 21  1  0  0  0  0
  4 10  1  0  0  0  0
  4  5  1  0  0  0  0
  5  6  2  0  0  0  0
  5 22  1  0  0  0  0
  6  7  1  0  0  0  0
  6 23  1  0  0  0  0
  7  8  2  0  0  0  0
  7  9  1  0  0  0  0
  9 19  1  0  0  0  0
  9 10  1  0  0  0  0
 10 11  2  0  0  0  0
 12 13  1  0  0  0  0
 12 24  1  0  0  0  0
 13 14  1  0  0  0  0
 13 25  1  0  0  0  0
 13 26  1  0  0  0  0
 14 18  1  0  0  0  0
 14 15  1  0  0  0  0
 14 27  1  0  0  0  0
 15 16  1  0  0  0  0
 15 28  1  0  0  0  0
 15 29  1  0  0  0  0
 16 17  1  0  0  0  0
 16 30  1  0  0  0  0
 16 31  1  0  0  0  0
 17 18  1  0  0  0  0
 18 32  1  0  0  0  0
 18 33  1  0  0  0  0
M  END
> <s_m_source_file>
AV-unprocessed.smi

> <i_m_source_file_index>
1131

> <i_lp_mmshare_version>
43012

> <i_f3d_flags>
0

> <s_epik_input>
W0NIMl0xT1tDSDJdW0NIMl1bQ0BIXTFbQ0gyXVtOSF1DKD1PKVtDSDJdbjJbY0hdW2NIXWMoPU8pW25IXWMyPU8=

> <s_epik_cmdline>
J2VwaWtfcHl0aG9uJywgJy1waCcsICc3LjAnLCAnLXRuJywgJzgnLCAnLW1hJywgJzIwMCcsICctbWV0YWxfYmluZGluZycsICctaW1hZScsICc8aW5maWxlLm1hZT4nLCAnLW9tYWUnLCAnPG91dGZpbGUubWFlPic=

> <r_lp_tautomer_probability>
0.999537

> <r_epik_Ionization_Penalty>
0.00329016

> <r_epik_Ionization_Penalty_Charging>
0.00329014

> <r_epik_Ionization_Penalty_Neutral>
1.87063e-08

> <r_epik_State_Penalty>
0.00232461

> <r_epik_Charging_Adjusted_Penalty>
0.00561475

> <i_epik_Tot_Q>
0

> <i_epik_Tot_abs_Q>
0

> <r_epik_Metal_State_Penalty>
0.365289

> <b_epik_Metal_Only>
0

> <s_lp_Force_Field>
OPLS_2005

> <r_lp_Energy>
17.5195

> <b_lp_Chiralities_Consistent>
1

> <s_lp_Variant>
AV-unprocessed.smi:1131-1

> <Gold.Version>
5.8.1

> <Gold.Id.Protein>
6NUR|6NUR_protein|mol2

> <Gold.PLP.Fitness>
39.5864

> <Gold.PLP.PLP>
-30.9887

> <Gold.PLP.part.hbond>
-2.0000

> <Gold.PLP.part.metal>
0.0000

> <Gold.PLP.part.buried>
-2.6463

> <Gold.PLP.part.nonpolar>
-25.1754

> <Gold.PLP.part.repulsive>
0.2861

> <Gold.PLP.ligand.clash>
0.0000

> <Gold.PLP.ligand.torsion>
0.1939

> <Gold.PLP.Chemscore.Hbond>
1.9920

> <Gold.PLP.Chemscore.CHOScore>
1.0000

> <Gold.PLP.Chemscore.Metal>
0.0000

> <Gold.Chemscore.Hbonds>
donor molecule, donor type, donor heavy atom, donor atom, acceptor molecule, acceptor atom, score
      L1  H    12    24       P1  8028  0.99
      P1  H  7989  7998       L1     1  1.00
      L1  C     5    22       P1  7957  0.44

> <Gold.PLP.Chemscore.Internal.Correction>
0.0096

> <Gold.Rescore>
     Score         DG    S(hbond)    S(metal)    S(lipo)     H(rot)  DE(clash)    DE(int)     intcor
     13.84     -14.35       1.60        0.00      75.91       2.09       0.27       0.24       ----

> <Gold.Chemscore.Fitness>
13.8377

> <Gold.Chemscore.DG>
-14.3477

> <Gold.Chemscore.ZeroCoef>
-5.4800

> <Gold.Chemscore.Hbond>
1.5992

> <Gold.Chemscore.Metal>
0.0000

> <Gold.Chemscore.Lipo>
75.9101

> <Gold.Chemscore.Internal_Hbond>
0.0000

> <Gold.Chemscore.DEClash>
0.2680

> <Gold.Chemscore.DEInternal>
0.2420

> <Gold.Chemscore.Rot>
2.0919

> <Gold.Chemscore.Internal.Correction>
   9.000000E+99

> <Gold.Chemscore.Hbonds>
donor molecule, donor type, donor heavy atom, donor atom, acceptor molecule, acceptor atom, score
      L1  H    12    24       P1  8028  0.93
      P1  H  7989  7998       L1     1  0.33

> <Gold.Chemscore.Hbond.Weighted>
-5.3414

> <Gold.Chemscore.Metal.Weighted>
-0.0000

> <Gold.Chemscore.Lipo.Weighted>
-8.8815

> <Gold.Chemscore.Internal_Hbond.Weighted>
0.0000

> <Gold.Chemscore.DEClash.Weighted>
0.2680

> <Gold.Chemscore.DEInternal.Weighted>
0.2420

> <Gold.Chemscore.Rot.Weighted>
5.3552

> <Gold.Chemscore.Internal.Correction.Weighted>
   9.000000E+99

> <Gold.Protein.RotatedTorsions>
[ 6907 6896 6895 6894 ] final   42.10 input  -60.11 | X-H torsion
[ 7974 7965 7964 7962 ] final   71.73 input  175.53 | X-H torsion
[ 8008 7997 7996 7995 ] final  -89.66 input   59.86 | X-H torsion
[ 10167 10162 10161 10158 ] final  150.37 input  -65.29 | X-H torsion
[ 10718 10713 10712 10709 ] final   49.51 input   66.30 | X-H torsion
[ 10763 10752 10751 10750 ] final  128.16 input  -60.55 | X-H torsion
[ 11005 11000 10999 10996 ] final -135.78 input  -57.11 | X-H torsion

> <Gold.Protein.ActiveResidues>
 VAL166  LYS551  ARG553  GLY616  TRP617  ASP618  TYR619  PRO620  LYS621  CYS622 
 ASP623  PHE694  ASN695  SER759  ASP760  ASP761  ALA762  ILE779  LEU786  VAL792 
 PHE793  MET794  SER795  GLU796  ALA797  LYS798  CYS799  TRP800  GLU811  SER814 

> <Gold.Protein.RotatedAtoms>
  152.2036  134.8565  160.0504 H   0  0  0  0  0  0  0  0  0  0  0  0  # atno 6907 bound_to 6896
  151.9410  133.3633  159.3973 H   0  0  0  0  0  0  0  0  0  0  0  0  # atno 6908 bound_to 6896
  150.6960  134.4364  159.5316 H   0  0  0  0  0  0  0  0  0  0  0  0  # atno 6909 bound_to 6896
  145.7622  139.2805  143.1370 H   0  0  0  0  0  0  0  0  0  0  0  0  # atno 7974 bound_to 7965
  154.6892  140.0539  157.0346 H   0  0  0  0  0  0  0  0  0  0  0  0  # atno 8008 bound_to 7997
  155.0841  140.3212  155.4574 H   0  0  0  0  0  0  0  0  0  0  0  0  # atno 8009 bound_to 7997
  156.2722  140.2059  156.5969 H   0  0  0  0  0  0  0  0  0  0  0  0  # atno 8010 bound_to 7997
  139.4851  144.5528  151.7371 H   0  0  0  0  0  0  0  0  0  0  0  0  # atno 10167 bound_to 10162
  157.4794  130.8305  149.8076 H   0  0  0  0  0  0  0  0  0  0  0  0  # atno 10718 bound_to 10713
  153.7211  135.3253  155.3267 H   0  0  0  0  0  0  0  0  0  0  0  0  # atno 10763 bound_to 10752
  154.8355  135.4499  154.1216 H   0  0  0  0  0  0  0  0  0  0  0  0  # atno 10764 bound_to 10752
  153.2337  135.6963  153.7941 H   0  0  0  0  0  0  0  0  0  0  0  0  # atno 10765 bound_to 10752
  140.8866  134.1864  157.4556 H   0  0  0  0  0  0  0  0  0  0  0  0  # atno 11005 bound_to 11000
  146.0253  140.8309  142.9903 LP  0  0  0  0  0  0  0  0  0  0  0  0  # atno 17320 bound_to 7965
  144.6828  140.2689  143.7308 LP  0  0  0  0  0  0  0  0  0  0  0  0  # atno 17321 bound_to 7965
  140.5084  144.1062  150.5988 LP  0  0  0  0  0  0  0  0  0  0  0  0  # atno 17342 bound_to 10162
  140.3979  143.2718  151.9982 LP  0  0  0  0  0  0  0  0  0  0  0  0  # atno 17343 bound_to 10162
  156.0113  130.3832  150.2254 LP  0  0  0  0  0  0  0  0  0  0  0  0  # atno 17370 bound_to 10713
  157.0440  131.0043  151.3275 LP  0  0  0  0  0  0  0  0  0  0  0  0  # atno 17371 bound_to 10713
  139.8725  134.9840  156.5223 LP  0  0  0  0  0  0  0  0  0  0  0  0  # atno 17394 bound_to 11000
  140.8397  133.8215  155.9063 LP  0  0  0  0  0  0  0  0  0  0  0  0  # atno 17395 bound_to 11000

$$$$
