AV-unprocessed.smi:711|AV-procd|sdf|3466|dock3
  -GOLD-   22720 0453D 1   1.00000     0.00000
 Structure written by MMmdl.
 28 29  0  0  0  0  0  0  0  0  2 V2000
  146.8789  140.2439  153.6312 O   0  0  0  0  0  0  0  0  0  0  0  0
  147.8548  140.5650  154.3078 C   0  0  0  0  0  0  0  0  0  0  0  0
  149.0995  140.0451  154.0984 N   0  5  0  0  0  0  0  0  0  0  0  0
  150.1966  140.3873  154.8415 C   0  0  0  0  0  0  0  0  0  0  0  0
  151.3061  139.8951  154.6363 O   0  0  0  0  0  0  0  0  0  0  0  0
  150.0506  141.2998  155.8490 N   0  0  0  0  0  0  0  0  0  0  0  0
  151.1595  141.7215  156.7199 C   0  0  0  0  0  0  0  0  0  0  0  0
  150.7788  142.9140  157.6260 C   0  0  2  0  0  0  0  0  0  0  0  0
  151.0832  144.1103  156.9373 O   0  0  0  0  0  0  0  0  0  0  0  0
  151.4346  142.8534  159.0013 C   0  0  0  0  0  0  0  0  0  0  0  0
  152.2140  141.7329  159.3662 C   0  0  0  0  0  0  0  0  0  0  0  0
  152.8015  141.6591  160.6436 C   0  0  0  0  0  0  0  0  0  0  0  0
  152.6128  142.7047  161.5666 C   0  0  0  0  0  0  0  0  0  0  0  0
  153.1777  142.6341  162.7953 F   0  0  0  0  0  0  0  0  0  0  0  0
  151.8357  143.8233  161.2114 C   0  0  0  0  0  0  0  0  0  0  0  0
  151.2468  143.8994  159.9342 C   0  0  0  0  0  0  0  0  0  0  0  0
  150.4935  144.9794  159.6146 F   0  0  0  0  0  0  0  0  0  0  0  0
  148.7906  141.8670  156.1033 C   0  0  0  0  0  0  0  0  0  0  0  0
  147.6994  141.5407  155.3844 C   0  0  0  0  0  0  0  0  0  0  0  0
  146.1620  142.2507  155.7266 Cl  0  0  0  0  0  0  0  0  0  0  0  0
  151.5216  140.8929  157.3306 H   0  0  0  0  0  0  0  0  0  0  0  0
  152.0093  141.9966  156.0930 H   0  0  0  0  0  0  0  0  0  0  0  0
  149.6966  142.9174  157.7575 H   0  0  0  0  0  0  0  0  0  0  0  0
  150.2807  144.4637  156.5852 H   0  0  0  0  0  0  0  0  0  0  0  0
  152.3546  140.9196  158.6694 H   0  0  0  0  0  0  0  0  0  0  0  0
  153.3929  140.7976  160.9164 H   0  0  0  0  0  0  0  0  0  0  0  0
  151.6871  144.6234  161.9214 H   0  0  0  0  0  0  0  0  0  0  0  0
  148.7677  142.5745  156.9194 H   0  0  0  0  0  0  0  0  0  0  0  0
  1  2  2  0  0  0  0
  2 19  1  0  0  0  0
  2  3  1  0  0  0  0
  3  4  1  0  0  0  0
  4  5  2  0  0  0  0
  4  6  1  0  0  0  0
  6  7  1  0  0  0  0
  6 18  1  0  0  0  0
  7  8  1  0  0  0  0
  7 21  1  0  0  0  0
  7 22  1  0  0  0  0
  8  9  1  0  0  0  0
  8 10  1  0  0  0  0
  8 23  1  0  0  0  0
  9 24  1  0  0  0  0
 10 16  1  0  0  0  0
 10 11  2  0  0  0  0
 11 12  1  0  0  0  0
 11 25  1  0  0  0  0
 12 13  2  0  0  0  0
 12 26  1  0  0  0  0
 13 14  1  0  0  0  0
 13 15  1  0  0  0  0
 15 16  2  0  0  0  0
 15 27  1  0  0  0  0
 16 17  1  0  0  0  0
 18 19  2  0  0  0  0
 18 28  1  0  0  0  0
 19 20  1  0  0  0  0
M  CHG  1   3  -1
M  END
> <s_m_source_file>
AV-unprocessed.smi

> <i_m_source_file_index>
711

> <i_lp_mmshare_version>
43012

> <i_f3d_flags>
0

> <s_epik_input>
Tz1jMVtuSF1jKD1PKW4oW2NIXWMxQ2wpW0NIMl1bQ0BIXShbT0hdKWMyW2NIXVtjSF1jKEYpW2NIXWMyRg==

> <s_epik_cmdline>
J2VwaWtfcHl0aG9uJywgJy1waCcsICc3LjAnLCAnLXRuJywgJzgnLCAnLW1hJywgJzIwMCcsICctbWV0YWxfYmluZGluZycsICctaW1hZScsICc8aW5maWxlLm1hZT4nLCAnLW9tYWUnLCAnPG91dGZpbGUubWFlPic=

> <r_epik_Ionization_Penalty>
1.7979

> <r_epik_Ionization_Penalty_Charging>
3.23819e-08

> <r_epik_Ionization_Penalty_Neutral>
1.7979

> <r_epik_State_Penalty>
1.91135

> <r_epik_Charging_Adjusted_Penalty>
1.91135

> <i_epik_Tot_Q>
-1

> <i_epik_Tot_abs_Q>
1

> <r_epik_Metal_State_Penalty>
0.014155

> <b_epik_Metal_Only>
0

> <s_lp_Force_Field>
OPLS_2005

> <r_lp_Energy>
19.2938

> <b_lp_Chiralities_Consistent>
1

> <s_lp_Variant>
AV-unprocessed.smi:711-3

> <Gold.Version>
5.8.1

> <Gold.Id.Protein>
6NUR|6NUR_protein|mol2

> <Gold.PLP.Fitness>
47.9353

> <Gold.PLP.PLP>
-44.2293

> <Gold.PLP.part.hbond>
-2.0000

> <Gold.PLP.part.metal>
0.0000

> <Gold.PLP.part.buried>
-3.9008

> <Gold.PLP.part.nonpolar>
-38.3501

> <Gold.PLP.part.repulsive>
0.7248

> <Gold.PLP.ligand.clash>
1.2855

> <Gold.PLP.ligand.torsion>
0.5668

> <Gold.PLP.Chemscore.Hbond>
1.5500

> <Gold.PLP.Chemscore.CHOScore>
0.4841

> <Gold.PLP.Chemscore.Metal>
0.0000

> <Gold.Chemscore.Hbonds>
donor molecule, donor type, donor heavy atom, donor atom, acceptor molecule, acceptor atom, score
      L1  H     9    24       P1  8028  1.00
      P1  H  7989  7998       L1     5  0.70
      L1  C    18    28       P1  8028  0.42

> <Gold.PLP.Chemscore.Internal.Correction>
0.0229

> <Gold.Rescore>
     Score         DG    S(hbond)    S(metal)    S(lipo)     H(rot)  DE(clash)    DE(int)     intcor
     14.19     -15.93       1.94        0.00      84.63       2.32       0.03       1.70       ----

> <Gold.Chemscore.Fitness>
14.1917

> <Gold.Chemscore.DG>
-15.9255

> <Gold.Chemscore.ZeroCoef>
-5.4800

> <Gold.Chemscore.Hbond>
1.9384

> <Gold.Chemscore.Metal>
0.0000

> <Gold.Chemscore.Lipo>
84.6277

> <Gold.Chemscore.Internal_Hbond>
0.0000

> <Gold.Chemscore.DEClash>
0.0350

> <Gold.Chemscore.DEInternal>
1.6988

> <Gold.Chemscore.Rot>
2.3164

> <Gold.Chemscore.Internal.Correction>
   9.000000E+99

> <Gold.Chemscore.Hbonds>
donor molecule, donor type, donor heavy atom, donor atom, acceptor molecule, acceptor atom, score
      L1  H     9    24       P1  8028  0.97
      P1  H  7989  7998       L1     5  0.07

> <Gold.Chemscore.Hbond.Weighted>
-6.4741

> <Gold.Chemscore.Metal.Weighted>
-0.0000

> <Gold.Chemscore.Lipo.Weighted>
-9.9014

> <Gold.Chemscore.Internal_Hbond.Weighted>
0.0000

> <Gold.Chemscore.DEClash.Weighted>
0.0350

> <Gold.Chemscore.DEInternal.Weighted>
1.6988

> <Gold.Chemscore.Rot.Weighted>
5.9301

> <Gold.Chemscore.Internal.Correction.Weighted>
   9.000000E+99

> <Gold.Protein.RotatedTorsions>
[ 6907 6896 6895 6894 ] final   43.03 input  -60.11 | X-H torsion
[ 7974 7965 7964 7962 ] final  -41.31 input  175.53 | X-H torsion
[ 8008 7997 7996 7995 ] final  178.46 input   59.86 | X-H torsion
[ 10167 10162 10161 10158 ] final  -67.78 input  -65.29 | X-H torsion
[ 10718 10713 10712 10709 ] final   29.64 input   66.30 | X-H torsion
[ 10763 10752 10751 10750 ] final -116.75 input  -60.55 | X-H torsion
[ 11005 11000 10999 10996 ] final  -52.40 input  -57.11 | X-H torsion

> <Gold.Protein.ActiveResidues>
 VAL166  LYS551  ARG553  GLY616  TRP617  ASP618  TYR619  PRO620  LYS621  CYS622 
 ASP623  PHE694  ASN695  SER759  ASP760  ASP761  ALA762  ILE779  LEU786  VAL792 
 PHE793  MET794  SER795  GLU796  ALA797  LYS798  CYS799  TRP800  GLU811  SER814 

> <Gold.Protein.RotatedAtoms>
  152.2153  134.8464  160.0492 H   0  0  0  0  0  0  0  0  0  0  0  0  # atno 6907 bound_to 6896
  151.9267  133.3595  159.3924 H   0  0  0  0  0  0  0  0  0  0  0  0  # atno 6908 bound_to 6896
  150.6986  134.4504  159.5378 H   0  0  0  0  0  0  0  0  0  0  0  0  # atno 6909 bound_to 6896
  146.0223  140.6834  142.9172 H   0  0  0  0  0  0  0  0  0  0  0  0  # atno 7974 bound_to 7965
  156.0544  140.1333  157.0014 H   0  0  0  0  0  0  0  0  0  0  0  0  # atno 8008 bound_to 7997
  154.4450  140.1004  156.6494 H   0  0  0  0  0  0  0  0  0  0  0  0  # atno 8009 bound_to 7997
  155.5474  140.3462  155.4463 H   0  0  0  0  0  0  0  0  0  0  0  0  # atno 8010 bound_to 7997
  140.5557  143.2312  151.6826 H   0  0  0  0  0  0  0  0  0  0  0  0  # atno 10167 bound_to 10162
  157.2492  130.7107  149.6397 H   0  0  0  0  0  0  0  0  0  0  0  0  # atno 10718 bound_to 10713
  154.8531  135.4334  154.1871 H   0  0  0  0  0  0  0  0  0  0  0  0  # atno 10763 bound_to 10752
  153.2948  135.6964  153.7264 H   0  0  0  0  0  0  0  0  0  0  0  0  # atno 10764 bound_to 10752
  153.6417  135.3467  155.3048 H   0  0  0  0  0  0  0  0  0  0  0  0  # atno 10765 bound_to 10752
  141.0922  133.6630  156.4019 H   0  0  0  0  0  0  0  0  0  0  0  0  # atno 11005 bound_to 11000
  144.6995  140.3588  143.7168 LP  0  0  0  0  0  0  0  0  0  0  0  0  # atno 17320 bound_to 7965
  145.7173  139.1700  143.2505 LP  0  0  0  0  0  0  0  0  0  0  0  0  # atno 17321 bound_to 7965
  139.5047  144.3745  152.0437 LP  0  0  0  0  0  0  0  0  0  0  0  0  # atno 17342 bound_to 10162
  140.2866  144.3800  150.6101 LP  0  0  0  0  0  0  0  0  0  0  0  0  # atno 17343 bound_to 10162
  155.9667  130.4433  150.5415 LP  0  0  0  0  0  0  0  0  0  0  0  0  # atno 17370 bound_to 10713
  157.3296  131.0697  151.1871 LP  0  0  0  0  0  0  0  0  0  0  0  0  # atno 17371 bound_to 10713
  140.5225  134.6291  157.5323 LP  0  0  0  0  0  0  0  0  0  0  0  0  # atno 17394 bound_to 11000
  139.9751  134.7229  155.9966 LP  0  0  0  0  0  0  0  0  0  0  0  0  # atno 17395 bound_to 11000

$$$$
