AV-unprocessed.smi:1692|AV-procd|sdf|6783|dock2
  -GOLD-   22720 7543D 1   1.00000     0.00000
 Structure written by MMmdl.
 45 46  0  0  0  0  0  0  0  0  1 V2000
  144.1854  142.9716  158.2429 C   0  0  0  0  0  0  0  0  0  0  0  0
  144.1050  142.9892  156.7128 C   0  0  2  0  0  0  0  0  0  0  0  0
  145.4766  142.7423  156.0549 C   0  0  0  0  0  0  0  0  0  0  0  0
  145.4110  142.8420  154.5986 N   0  0  0  0  0  0  0  0  0  0  0  0
  146.7107  142.6327  153.9618 C   0  0  0  0  0  0  0  0  0  0  0  0
  147.1859  141.1703  153.9199 C   0  0  0  0  0  0  0  0  0  0  0  0
  148.7079  141.0492  154.0972 C   0  0  0  0  0  0  0  0  0  0  0  0
  149.2130  142.0060  155.0753 N   0  0  0  0  0  0  0  0  0  0  0  0
  150.1461  141.7407  156.0015 C   0  0  0  0  0  0  0  0  0  0  0  0
  150.6848  140.6402  156.1257 O   0  0  0  0  0  0  0  0  0  0  0  0
  150.4040  142.8234  156.7564 N   0  0  0  0  0  0  0  0  0  0  0  0
  151.3207  142.9452  157.8346 C   0  0  0  0  0  0  0  0  0  0  0  0
  151.5164  144.2627  158.3080 C   0  0  0  0  0  0  0  0  0  0  0  0
  152.4047  144.4903  159.3769 C   0  0  0  0  0  0  0  0  0  0  0  0
  153.0756  143.3933  159.9460 C   0  0  0  0  0  0  0  0  0  0  0  0
  152.8247  142.1146  159.4152 C   0  0  0  0  0  0  0  0  0  0  0  0
  151.9738  141.8942  158.3908 N   0  0  0  0  0  0  0  0  0  0  0  0
  144.8574  144.1428  154.2391 C   0  0  0  0  0  0  0  0  0  0  0  0
  143.4829  144.3874  154.8904 C   0  0  2  0  0  0  0  0  0  0  0  0
  142.9330  145.7832  154.5776 C   0  0  0  0  0  0  0  0  0  0  0  0
  143.6119  144.2621  156.3039 O   0  0  0  0  0  0  0  0  0  0  0  0
  144.5471  142.0090  158.6051 H   0  0  0  0  0  0  0  0  0  0  0  0
  143.2048  143.1466  158.6861 H   0  0  0  0  0  0  0  0  0  0  0  0
  144.8606  143.7445  158.6110 H   0  0  0  0  0  0  0  0  0  0  0  0
  143.4022  142.2190  156.3906 H   0  0  0  0  0  0  0  0  0  0  0  0
  146.2004  143.4619  156.4413 H   0  0  0  0  0  0  0  0  0  0  0  0
  145.8298  141.7547  156.3500 H   0  0  0  0  0  0  0  0  0  0  0  0
  146.6546  142.9891  152.9324 H   0  0  0  0  0  0  0  0  0  0  0  0
  147.4665  143.2495  154.4508 H   0  0  0  0  0  0  0  0  0  0  0  0
  146.6896  140.5925  154.6997 H   0  0  0  0  0  0  0  0  0  0  0  0
  146.8957  140.7234  152.9683 H   0  0  0  0  0  0  0  0  0  0  0  0
  148.9627  140.0478  154.4445 H   0  0  0  0  0  0  0  0  0  0  0  0
  149.2172  141.1849  153.1415 H   0  0  0  0  0  0  0  0  0  0  0  0
  148.8235  142.9368  155.0434 H   0  0  0  0  0  0  0  0  0  0  0  0
  149.8821  143.6584  156.5349 H   0  0  0  0  0  0  0  0  0  0  0  0
  150.9925  145.0945  157.8600 H   0  0  0  0  0  0  0  0  0  0  0  0
  152.5670  145.4894  159.7535 H   0  0  0  0  0  0  0  0  0  0  0  0
  153.7640  143.5280  160.7672 H   0  0  0  0  0  0  0  0  0  0  0  0
  153.3192  141.2458  159.8233 H   0  0  0  0  0  0  0  0  0  0  0  0
  145.5472  144.9327  154.5412 H   0  0  0  0  0  0  0  0  0  0  0  0
  144.7586  144.2135  153.1553 H   0  0  0  0  0  0  0  0  0  0  0  0
  142.7703  143.6421  154.5325 H   0  0  0  0  0  0  0  0  0  0  0  0
  142.7974  145.9195  153.5045 H   0  0  0  0  0  0  0  0  0  0  0  0
  143.6084  146.5626  154.9317 H   0  0  0  0  0  0  0  0  0  0  0  0
  141.9660  145.9370  155.0569 H   0  0  0  0  0  0  0  0  0  0  0  0
  1  2  1  0  0  0  0
  1 22  1  0  0  0  0
  1 23  1  0  0  0  0
  1 24  1  0  0  0  0
  2 21  1  0  0  0  0
  2  3  1  0  0  0  0
  2 25  1  0  0  0  0
  3  4  1  0  0  0  0
  3 26  1  0  0  0  0
  3 27  1  0  0  0  0
  4  5  1  0  0  0  0
  4 18  1  0  0  0  0
  5  6  1  0  0  0  0
  5 28  1  0  0  0  0
  5 29  1  0  0  0  0
  6  7  1  0  0  0  0
  6 30  1  0  0  0  0
  6 31  1  0  0  0  0
  7  8  1  0  0  0  0
  7 32  1  0  0  0  0
  7 33  1  0  0  0  0
  8  9  1  0  0  0  0
  8 34  1  0  0  0  0
  9 10  2  0  0  0  0
  9 11  1  0  0  0  0
 11 12  1  0  0  0  0
 11 35  1  0  0  0  0
 12 17  1  0  0  0  0
 12 13  2  0  0  0  0
 13 14  1  0  0  0  0
 13 36  1  0  0  0  0
 14 15  2  0  0  0  0
 14 37  1  0  0  0  0
 15 16  1  0  0  0  0
 15 38  1  0  0  0  0
 16 17  2  0  0  0  0
 16 39  1  0  0  0  0
 18 19  1  0  0  0  0
 18 40  1  0  0  0  0
 18 41  1  0  0  0  0
 19 20  1  0  0  0  0
 19 21  1  0  0  0  0
 19 42  1  0  0  0  0
 20 43  1  0  0  0  0
 20 44  1  0  0  0  0
 20 45  1  0  0  0  0
M  END
> <s_m_source_file>
AV-unprocessed.smi

> <i_m_source_file_index>
1692

> <i_lp_mmshare_version>
43012

> <i_f3d_flags>
0

> <s_epik_input>
W0NIM11bQ0BASF0xW0NIMl1OKFtDSDJdW0NASF0oTzEpW0NIM10pW0NIMl1bQ0gyXVtDSDJdW05IXUMoPU8pW05IXWMyW2NIXVtjSF1bY0hdW2NIXW4y

> <s_epik_cmdline>
J2VwaWtfcHl0aG9uJywgJy1waCcsICc3LjAnLCAnLXRuJywgJzgnLCAnLW1hJywgJzIwMCcsICctbWV0YWxfYmluZGluZycsICctaW1hZScsICc8aW5maWxlLm1hZT4nLCAnLW9tYWUnLCAnPG91dGZpbGUubWFlPic=

> <r_epik_Ionization_Penalty>
0.594711

> <r_epik_Ionization_Penalty_Charging>
0

> <r_epik_Ionization_Penalty_Neutral>
0.594711

> <r_epik_State_Penalty>
0.608529

> <r_epik_Charging_Adjusted_Penalty>
0.608529

> <i_epik_Tot_Q>
0

> <i_epik_Tot_abs_Q>
0

> <r_epik_Metal_State_Penalty>
0.608528

> <b_epik_Metal_Only>
0

> <s_lp_Force_Field>
OPLS_2005

> <r_lp_Energy>
22.8086

> <b_lp_Chiralities_Consistent>
1

> <s_lp_Variant>
AV-unprocessed.smi:1692-6

> <Gold.Version>
5.8.1

> <Gold.Id.Protein>
6NUR|6NUR_protein|mol2

> <Gold.PLP.Fitness>
48.5238

> <Gold.PLP.PLP>
-43.8748

> <Gold.PLP.part.hbond>
-2.0000

> <Gold.PLP.part.metal>
0.0000

> <Gold.PLP.part.buried>
-7.8762

> <Gold.PLP.part.nonpolar>
-34.8202

> <Gold.PLP.part.repulsive>
0.5464

> <Gold.PLP.ligand.clash>
0.0000

> <Gold.PLP.ligand.torsion>
0.6281

> <Gold.PLP.Chemscore.Hbond>
1.9600

> <Gold.PLP.Chemscore.CHOScore>
0.0000

> <Gold.PLP.Chemscore.Metal>
0.0000

> <Gold.Chemscore.Hbonds>
donor molecule, donor type, donor heavy atom, donor atom, acceptor molecule, acceptor atom, score
      L1  H     8    34       P1  8028  0.99
      L1  H    11    35       P1  8028  1.00

> <Gold.PLP.Chemscore.Internal.Correction>
0.0253

> <Gold.Rescore>
     Score         DG    S(hbond)    S(metal)    S(lipo)     H(rot)  DE(clash)    DE(int)     intcor
     17.13     -18.96       1.92        0.00      98.13       1.73       0.04       1.79       ----

> <Gold.Chemscore.Fitness>
17.1327

> <Gold.Chemscore.DG>
-18.9644

> <Gold.Chemscore.ZeroCoef>
-5.4800

> <Gold.Chemscore.Hbond>
1.9230

> <Gold.Chemscore.Metal>
0.0000

> <Gold.Chemscore.Lipo>
98.1322

> <Gold.Chemscore.Internal_Hbond>
0.0000

> <Gold.Chemscore.DEClash>
0.0367

> <Gold.Chemscore.DEInternal>
1.7950

> <Gold.Chemscore.Rot>
1.7266

> <Gold.Chemscore.Internal.Correction>
   9.000000E+99

> <Gold.Chemscore.Hbonds>
donor molecule, donor type, donor heavy atom, donor atom, acceptor molecule, acceptor atom, score
      L1  H     8    34       P1  8028  0.93
      L1  H    11    35       P1  8028  1.00

> <Gold.Chemscore.Hbond.Weighted>
-6.4229

> <Gold.Chemscore.Metal.Weighted>
-0.0000

> <Gold.Chemscore.Lipo.Weighted>
-11.4815

> <Gold.Chemscore.Internal_Hbond.Weighted>
0.0000

> <Gold.Chemscore.DEClash.Weighted>
0.0367

> <Gold.Chemscore.DEInternal.Weighted>
1.7950

> <Gold.Chemscore.Rot.Weighted>
4.4200

> <Gold.Chemscore.Internal.Correction.Weighted>
   9.000000E+99

> <Gold.Protein.RotatedTorsions>
[ 6907 6896 6895 6894 ] final   46.64 input  -60.11 | X-H torsion
[ 7974 7965 7964 7962 ] final -166.01 input  175.53 | X-H torsion
[ 8008 7997 7996 7995 ] final  -42.72 input   59.86 | X-H torsion
[ 10167 10162 10161 10158 ] final  104.70 input  -65.29 | X-H torsion
[ 10718 10713 10712 10709 ] final    0.15 input   66.30 | X-H torsion
[ 10763 10752 10751 10750 ] final -124.71 input  -60.55 | X-H torsion
[ 11005 11000 10999 10996 ] final  -12.51 input  -57.11 | X-H torsion

> <Gold.Protein.ActiveResidues>
 VAL166  LYS551  ARG553  GLY616  TRP617  ASP618  TYR619  PRO620  LYS621  CYS622 
 ASP623  PHE694  ASN695  SER759  ASP760  ASP761  ALA762  ILE779  LEU786  VAL792 
 PHE793  MET794  SER795  GLU796  ALA797  LYS798  CYS799  TRP800  GLU811  SER814 

> <Gold.Protein.RotatedAtoms>
  152.2588  134.8056  160.0433 H   0  0  0  0  0  0  0  0  0  0  0  0  # atno 6907 bound_to 6896
  151.8709  133.3470  159.3743 H   0  0  0  0  0  0  0  0  0  0  0  0  # atno 6908 bound_to 6896
  150.7109  134.5040  159.5619 H   0  0  0  0  0  0  0  0  0  0  0  0  # atno 6909 bound_to 6896
  144.7255  140.2729  143.6248 H   0  0  0  0  0  0  0  0  0  0  0  0  # atno 7974 bound_to 7965
  154.3998  140.1466  156.3400 H   0  0  0  0  0  0  0  0  0  0  0  0  # atno 8008 bound_to 7997
  155.8365  140.3463  155.5583 H   0  0  0  0  0  0  0  0  0  0  0  0  # atno 8009 bound_to 7997
  155.8133  140.0887  157.1882 H   0  0  0  0  0  0  0  0  0  0  0  0  # atno 8010 bound_to 7997
  139.7155  144.7069  151.0957 H   0  0  0  0  0  0  0  0  0  0  0  0  # atno 10167 bound_to 10162
  156.8292  130.5482  149.5688 H   0  0  0  0  0  0  0  0  0  0  0  0  # atno 10718 bound_to 10713
  154.8727  135.4054  154.3149 H   0  0  0  0  0  0  0  0  0  0  0  0  # atno 10763 bound_to 10752
  153.3987  135.7017  153.6447 H   0  0  0  0  0  0  0  0  0  0  0  0  # atno 10764 bound_to 10752
  153.5199  135.3689  155.2598 H   0  0  0  0  0  0  0  0  0  0  0  0  # atno 10765 bound_to 10752
  140.7665  133.8473  155.9169 H   0  0  0  0  0  0  0  0  0  0  0  0  # atno 11005 bound_to 11000
  145.8025  139.1970  143.2040 LP  0  0  0  0  0  0  0  0  0  0  0  0  # atno 17320 bound_to 7965
  146.0664  140.7916  142.9709 LP  0  0  0  0  0  0  0  0  0  0  0  0  # atno 17321 bound_to 7965
  140.7743  143.5235  150.9508 LP  0  0  0  0  0  0  0  0  0  0  0  0  # atno 17342 bound_to 10162
  139.8921  143.6940  152.3144 LP  0  0  0  0  0  0  0  0  0  0  0  0  # atno 17343 bound_to 10162
  156.0944  130.5921  150.9788 LP  0  0  0  0  0  0  0  0  0  0  0  0  # atno 17370 bound_to 10713
  157.6416  131.0909  150.8240 LP  0  0  0  0  0  0  0  0  0  0  0  0  # atno 17371 bound_to 10713
  140.9614  134.1650  157.4650 LP  0  0  0  0  0  0  0  0  0  0  0  0  # atno 17394 bound_to 11000
  139.8762  134.9946  156.5702 LP  0  0  0  0  0  0  0  0  0  0  0  0  # atno 17395 bound_to 11000

$$$$
