AV-unprocessed.smi:213|AV-procd|sdf|1641|dock6
  -GOLD-   2262020 13D 1   1.00000     0.00000
 Structure written by MMmdl.
 58 61  0  0  0  0  0  0  0  0  1 V2000
  151.1251  140.4967  155.8759 C   0  0  0  0  0  0  0  0  0  0  0  0
  151.1854  139.7067  157.1952 C   0  0  2  0  0  0  0  0  0  0  0  0
  152.2743  140.2377  158.1544 C   0  0  0  0  0  0  0  0  0  0  0  0
  151.9231  141.4426  158.9074 N   0  0  0  0  0  0  0  0  0  0  0  0
  151.6292  142.5519  158.0062 C   0  0  0  0  0  0  0  0  0  0  0  0
  151.2492  143.8311  158.7716 C   0  0  0  0  0  0  0  0  0  0  0  0
  152.2991  144.1773  159.6687 O   0  0  0  0  0  0  0  0  0  0  0  0
  152.5884  143.1391  160.5988 C   0  0  0  0  0  0  0  0  0  0  0  0
  152.9695  141.8550  159.8414 C   0  0  0  0  0  0  0  0  0  0  0  0
  151.3685  138.2752  156.9391 N   0  0  0  0  0  0  0  0  0  0  0  0
  152.4817  137.5401  157.5364 C   0  0  0  0  0  0  0  0  0  0  0  0
  150.4361  137.5744  156.2400 C   0  0  0  0  0  0  0  0  0  0  0  0
  149.3345  138.2365  155.7949 N   0  0  0  0  0  0  0  0  0  0  0  0
  148.3894  137.5961  155.1013 C   0  0  0  0  0  0  0  0  0  0  0  0
  148.3402  136.3109  154.7496 N   0  0  0  0  0  0  0  0  0  0  0  0
  149.4335  135.6345  155.2030 C   0  0  0  0  0  0  0  0  0  0  0  0
  150.5183  136.1794  155.9489 C   0  0  0  0  0  0  0  0  0  0  0  0
  151.4301  135.1704  156.2451 N   0  0  0  0  0  0  0  0  0  0  0  0
  150.9231  134.1013  155.6954 C   0  0  0  0  0  0  0  0  0  0  0  0
  149.7233  134.2911  155.0505 N   0  0  0  0  0  0  0  0  0  0  0  0
  148.9299  133.2857  154.3671 C   0  0  0  0  0  0  0  0  0  0  0  0
  147.8201  133.9112  153.5004 C   0  0  2  0  0  0  0  0  0  0  0  0
  146.6580  134.1422  154.2737 O   0  0  0  0  0  0  0  0  0  0  0  0
  147.4848  133.0656  152.2558 C   0  0  2  0  0  0  0  0  0  0  0  0
  146.4777  133.6661  151.2720 C   0  0  0  0  0  0  0  0  0  0  0  0
  146.0042  132.4253  150.5486 C   0  0  0  0  0  0  0  0  0  0  0  0
  145.9605  131.3975  151.6781 C   0  0  0  0  0  0  0  0  0  0  0  0
  146.9750  131.7808  152.6038 O   0  0  0  0  0  0  0  0  0  0  0  0
  150.8942  141.5465  156.0569 H   0  0  0  0  0  0  0  0  0  0  0  0
  150.3488  140.1024  155.2196 H   0  0  0  0  0  0  0  0  0  0  0  0
  152.0705  140.4571  155.3352 H   0  0  0  0  0  0  0  0  0  0  0  0
  150.2343  139.8393  157.7037 H   0  0  0  0  0  0  0  0  0  0  0  0
  152.5504  139.4470  158.8539 H   0  0  0  0  0  0  0  0  0  0  0  0
  153.1721  140.4424  157.5700 H   0  0  0  0  0  0  0  0  0  0  0  0
  152.4955  142.7550  157.3743 H   0  0  0  0  0  0  0  0  0  0  0  0
  150.8125  142.2791  157.3368 H   0  0  0  0  0  0  0  0  0  0  0  0
  151.0866  144.6549  158.0769 H   0  0  0  0  0  0  0  0  0  0  0  0
  150.3197  143.6888  159.3251 H   0  0  0  0  0  0  0  0  0  0  0  0
  153.4072  143.4563  161.2445 H   0  0  0  0  0  0  0  0  0  0  0  0
  151.7230  142.9656  161.2402 H   0  0  0  0  0  0  0  0  0  0  0  0
  153.1595  141.0706  160.5728 H   0  0  0  0  0  0  0  0  0  0  0  0
  153.9047  142.0162  159.3030 H   0  0  0  0  0  0  0  0  0  0  0  0
  152.8959  136.8223  156.8274 H   0  0  0  0  0  0  0  0  0  0  0  0
  152.1491  136.9985  158.4224 H   0  0  0  0  0  0  0  0  0  0  0  0
  153.2868  138.2104  157.8358 H   0  0  0  0  0  0  0  0  0  0  0  0
  147.5523  138.2002  154.7838 H   0  0  0  0  0  0  0  0  0  0  0  0
  151.4087  133.1379  155.7534 H   0  0  0  0  0  0  0  0  0  0  0  0
  149.5992  132.6865  153.7487 H   0  0  0  0  0  0  0  0  0  0  0  0
  148.5047  132.6110  155.1112 H   0  0  0  0  0  0  0  0  0  0  0  0
  148.1612  134.8880  153.1550 H   0  0  0  0  0  0  0  0  0  0  0  0
  145.9293  134.2641  153.6845 H   0  0  0  0  0  0  0  0  0  0  0  0
  148.4115  132.8811  151.7097 H   0  0  0  0  0  0  0  0  0  0  0  0
  145.6367  134.1309  151.7876 H   0  0  0  0  0  0  0  0  0  0  0  0
  146.9221  134.4067  150.6068 H   0  0  0  0  0  0  0  0  0  0  0  0
  145.0417  132.5567  150.0535 H   0  0  0  0  0  0  0  0  0  0  0  0
  146.7376  132.1280  149.7976 H   0  0  0  0  0  0  0  0  0  0  0  0
  144.9974  131.4349  152.1886 H   0  0  0  0  0  0  0  0  0  0  0  0
  146.1138  130.3796  151.3188 H   0  0  0  0  0  0  0  0  0  0  0  0
  1  2  1  0  0  0  0
  1 29  1  0  0  0  0
  1 30  1  0  0  0  0
  1 31  1  0  0  0  0
  2  3  1  0  0  0  0
  2 10  1  0  0  0  0
  2 32  1  0  0  0  0
  3  4  1  0  0  0  0
  3 33  1  0  0  0  0
  3 34  1  0  0  0  0
  4  9  1  0  0  0  0
  4  5  1  0  0  0  0
  5  6  1  0  0  0  0
  5 35  1  0  0  0  0
  5 36  1  0  0  0  0
  6  7  1  0  0  0  0
  6 37  1  0  0  0  0
  6 38  1  0  0  0  0
  7  8  1  0  0  0  0
  8  9  1  0  0  0  0
  8 39  1  0  0  0  0
  8 40  1  0  0  0  0
  9 41  1  0  0  0  0
  9 42  1  0  0  0  0
 10 11  1  0  0  0  0
 10 12  1  0  0  0  0
 11 43  1  0  0  0  0
 11 44  1  0  0  0  0
 11 45  1  0  0  0  0
 12 17  1  0  0  0  0
 12 13  2  0  0  0  0
 13 14  1  0  0  0  0
 14 15  2  0  0  0  0
 14 46  1  0  0  0  0
 15 16  1  0  0  0  0
 16 20  1  0  0  0  0
 16 17  2  0  0  0  0
 17 18  1  0  0  0  0
 18 19  2  0  0  0  0
 19 20  1  0  0  0  0
 19 47  1  0  0  0  0
 20 21  1  0  0  0  0
 21 22  1  0  0  0  0
 21 48  1  0  0  0  0
 21 49  1  0  0  0  0
 22 23  1  0  0  0  0
 22 24  1  0  0  0  0
 22 50  1  0  0  0  0
 23 51  1  0  0  0  0
 24 28  1  0  0  0  0
 24 25  1  0  0  0  0
 24 52  1  0  0  0  0
 25 26  1  0  0  0  0
 25 53  1  0  0  0  0
 25 54  1  0  0  0  0
 26 27  1  0  0  0  0
 26 55  1  0  0  0  0
 26 56  1  0  0  0  0
 27 28  1  0  0  0  0
 27 57  1  0  0  0  0
 27 58  1  0  0  0  0
M  END
> <s_m_source_file>
AV-unprocessed.smi

> <i_m_source_file_index>
213

> <i_lp_mmshare_version>
43012

> <i_f3d_flags>
0

> <s_epik_input>
W0NIMl0xW0NIMl1PW0NIMl1bQ0gyXU4xW0NIMl1bQ0BASF0oW0NIM10pTihbQ0gzXSljKG5bY0hdbjIpYyhjMjMpbltjSF1uM1tDSDJdW0NASF0oW09IXSlbQ0BASF00W0NIMl1bQ0gyXVtDSDJdTzQ=

> <s_epik_cmdline>
J2VwaWtfcHl0aG9uJywgJy1waCcsICc3LjAnLCAnLXRuJywgJzgnLCAnLW1hJywgJzIwMCcsICctbWV0YWxfYmluZGluZycsICctaW1hZScsICc8aW5maWxlLm1hZT4nLCAnLW9tYWUnLCAnPG91dGZpbGUubWFlPic=

> <r_lp_tautomer_probability>
1

> <r_epik_Ionization_Penalty>
0.423322

> <r_epik_Ionization_Penalty_Charging>
0

> <r_epik_Ionization_Penalty_Neutral>
0.423322

> <r_epik_State_Penalty>
0.569486

> <r_epik_Charging_Adjusted_Penalty>
0.569486

> <i_epik_Tot_Q>
0

> <i_epik_Tot_abs_Q>
0

> <r_epik_Metal_State_Penalty>
0.568671

> <b_epik_Metal_Only>
0

> <s_lp_Force_Field>
OPLS_2005

> <r_lp_Energy>
51.8913

> <b_lp_Chiralities_Consistent>
1

> <s_lp_Variant>
AV-unprocessed.smi:213-9

> <Gold.Version>
5.8.1

> <Gold.Id.Protein>
6NUR|6NUR_protein|mol2

> <Gold.PLP.Fitness>
42.5932

> <Gold.PLP.PLP>
-40.7793

> <Gold.PLP.part.hbond>
-1.0000

> <Gold.PLP.part.metal>
0.0000

> <Gold.PLP.part.buried>
-7.1486

> <Gold.PLP.part.nonpolar>
-33.2863

> <Gold.PLP.part.repulsive>
0.7469

> <Gold.PLP.ligand.clash>
0.0000

> <Gold.PLP.ligand.torsion>
0.7720

> <Gold.PLP.Chemscore.Hbond>
1.0000

> <Gold.PLP.Chemscore.CHOScore>
0.0000

> <Gold.PLP.Chemscore.Metal>
0.0000

> <Gold.Chemscore.Hbonds>
donor molecule, donor type, donor heavy atom, donor atom, acceptor molecule, acceptor atom, score
      P1  H 10752 10763       L1    18  0.83

> <Gold.PLP.Chemscore.Internal.Correction>
0.3579

> <Gold.Rescore>
     Score         DG    S(hbond)    S(metal)    S(lipo)     H(rot)  DE(clash)    DE(int)     intcor
      7.70     -11.76       0.29        0.00     105.30       2.74       0.06       3.99       ----

> <Gold.Chemscore.Fitness>
7.7025

> <Gold.Chemscore.DG>
-11.7555

> <Gold.Chemscore.ZeroCoef>
-5.4800

> <Gold.Chemscore.Hbond>
0.2888

> <Gold.Chemscore.Metal>
0.0000

> <Gold.Chemscore.Lipo>
105.2955

> <Gold.Chemscore.Internal_Hbond>
0.0000

> <Gold.Chemscore.DEClash>
0.0638

> <Gold.Chemscore.DEInternal>
3.9893

> <Gold.Chemscore.Rot>
2.7378

> <Gold.Chemscore.Internal.Correction>
   9.000000E+99

> <Gold.Chemscore.Hbonds>
donor molecule, donor type, donor heavy atom, donor atom, acceptor molecule, acceptor atom, score
      P1  H 10752 10763       L1    18  0.17

> <Gold.Chemscore.Hbond.Weighted>
-0.9646

> <Gold.Chemscore.Metal.Weighted>
-0.0000

> <Gold.Chemscore.Lipo.Weighted>
-12.3196

> <Gold.Chemscore.Internal_Hbond.Weighted>
0.0000

> <Gold.Chemscore.DEClash.Weighted>
0.0638

> <Gold.Chemscore.DEInternal.Weighted>
3.9893

> <Gold.Chemscore.Rot.Weighted>
7.0087

> <Gold.Chemscore.Internal.Correction.Weighted>
   9.000000E+99

> <Gold.Protein.RotatedTorsions>
[ 6907 6896 6895 6894 ] final  155.69 input  -60.11 | X-H torsion
[ 7974 7965 7964 7962 ] final   87.02 input  175.53 | X-H torsion
[ 8008 7997 7996 7995 ] final   13.28 input   59.86 | X-H torsion
[ 10167 10162 10161 10158 ] final  100.82 input  -65.29 | X-H torsion
[ 10718 10713 10712 10709 ] final  146.16 input   66.30 | X-H torsion
[ 10763 10752 10751 10750 ] final   91.44 input  -60.55 | X-H torsion
[ 11005 11000 10999 10996 ] final   69.01 input  -57.11 | X-H torsion

> <Gold.Protein.ActiveResidues>
 VAL166  LYS551  ARG553  GLY616  TRP617  ASP618  TYR619  PRO620  LYS621  CYS622 
 ASP623  PHE694  ASN695  SER759  ASP760  ASP761  ALA762  ILE779  LEU786  VAL792 
 PHE793  MET794  SER795  GLU796  ALA797  LYS798  CYS799  TRP800  GLU811  SER814 

> <Gold.Protein.RotatedAtoms>
  152.0405  133.3975  159.4334 H   0  0  0  0  0  0  0  0  0  0  0  0  # atno 6907 bound_to 6896
  150.6876  134.3420  159.4881 H   0  0  0  0  0  0  0  0  0  0  0  0  # atno 6908 bound_to 6896
  152.1218  134.9199  160.0613 H   0  0  0  0  0  0  0  0  0  0  0  0  # atno 6909 bound_to 6896
  145.5646  139.2307  143.2440 H   0  0  0  0  0  0  0  0  0  0  0  0  # atno 7974 bound_to 7965
  154.8323  140.2901  155.5714 H   0  0  0  0  0  0  0  0  0  0  0  0  # atno 8008 bound_to 7997
  156.3006  140.2529  156.3182 H   0  0  0  0  0  0  0  0  0  0  0  0  # atno 8009 bound_to 7997
  154.9217  140.0386  157.1990 H   0  0  0  0  0  0  0  0  0  0  0  0  # atno 8010 bound_to 7997
  139.7493  144.6989  151.0456 H   0  0  0  0  0  0  0  0  0  0  0  0  # atno 10167 bound_to 10162
  157.3366  131.0929  151.1118 H   0  0  0  0  0  0  0  0  0  0  0  0  # atno 10718 bound_to 10713
  153.2083  135.4397  155.0349 H   0  0  0  0  0  0  0  0  0  0  0  0  # atno 10763 bound_to 10752
  154.8186  135.3327  154.7107 H   0  0  0  0  0  0  0  0  0  0  0  0  # atno 10764 bound_to 10752
  153.7547  135.6996  153.4994 H   0  0  0  0  0  0  0  0  0  0  0  0  # atno 10765 bound_to 10752
  139.9678  134.6951  156.0509 H   0  0  0  0  0  0  0  0  0  0  0  0  # atno 11005 bound_to 11000
  146.1827  140.6471  142.9182 LP  0  0  0  0  0  0  0  0  0  0  0  0  # atno 17320 bound_to 7965
  144.7466  140.5085  143.6831 LP  0  0  0  0  0  0  0  0  0  0  0  0  # atno 17321 bound_to 7965
  140.7796  143.4829  150.9995 LP  0  0  0  0  0  0  0  0  0  0  0  0  # atno 17342 bound_to 10162
  139.8516  143.7430  152.3177 LP  0  0  0  0  0  0  0  0  0  0  0  0  # atno 17343 bound_to 10162
  157.2346  130.6541  149.5864 LP  0  0  0  0  0  0  0  0  0  0  0  0  # atno 17370 bound_to 10713
  155.9702  130.4588  150.6011 LP  0  0  0  0  0  0  0  0  0  0  0  0  # atno 17371 bound_to 10713
  141.1358  133.6575  156.3589 LP  0  0  0  0  0  0  0  0  0  0  0  0  # atno 17394 bound_to 11000
  140.5358  134.6168  157.5364 LP  0  0  0  0  0  0  0  0  0  0  0  0  # atno 17395 bound_to 11000

$$$$
