AV-unprocessed.smi:1644|AV-procd|sdf|6589|dock7
  -GOLD-   22720 7283D 1   1.00000     0.00000
 Structure written by MMmdl.
 50 52  0  0  0  0  0  0  0  0  2 V2000
  147.9894  135.9803  161.9246 C   0  0  0  0  0  0  0  0  0  0  0  0
  148.4633  135.6029  160.5171 C   0  0  0  0  0  0  0  0  0  0  0  0
  148.1901  136.7188  159.4880 C   0  0  0  0  0  0  0  0  0  0  0  0
  148.4770  136.3597  158.0119 C   0  0  1  0  0  0  0  0  0  0  0  0
  148.0232  137.3705  157.0774 N   0  0  0  0  0  0  0  0  0  0  0  0
  149.0149  137.8387  156.3079 C   0  0  0  0  0  0  0  0  0  0  0  0
  148.8882  138.6848  155.4238 O   0  0  0  0  0  0  0  0  0  0  0  0
  150.1568  137.2214  156.6637 N   0  0  0  0  0  0  0  0  0  0  0  0
  151.4590  137.4700  156.0381 C   0  0  0  0  0  0  0  0  0  0  0  0
  151.7321  138.9781  155.8694 C   0  0  2  0  0  0  0  0  0  0  0  0
  152.9512  139.1483  155.1728 O   0  0  0  0  0  0  0  0  0  0  0  0
  151.8521  139.6915  157.2300 C   0  0  0  0  0  0  0  0  0  0  0  0
  151.3554  141.0723  157.1900 N   0  0  0  0  0  0  0  0  0  0  0  0
  150.6835  141.7357  156.2108 C   0  0  0  0  0  0  0  0  0  0  0  0
  150.4445  142.9988  156.6616 N   0  3  0  0  0  0  0  0  0  0  0  0
  150.9713  143.1419  157.9477 C   0  0  0  0  0  0  0  0  0  0  0  0
  150.9789  144.2278  158.8153 C   0  0  0  0  0  0  0  0  0  0  0  0
  151.6030  144.0465  160.0705 C   0  0  0  0  0  0  0  0  0  0  0  0
  151.6291  145.2136  161.0430 C   0  0  0  0  0  0  0  0  0  0  0  0
  152.1932  142.8040  160.4204 C   0  0  0  0  0  0  0  0  0  0  0  0
  152.8587  142.6185  161.7734 C   0  0  0  0  0  0  0  0  0  0  0  0
  152.1771  141.7123  159.5234 C   0  0  0  0  0  0  0  0  0  0  0  0
  151.5577  141.9090  158.2918 C   0  0  0  0  0  0  0  0  0  0  0  0
  149.9506  136.3375  157.6482 C   0  0  0  0  0  0  0  0  0  0  0  0
  150.7842  135.6100  158.1868 O   0  0  0  0  0  0  0  0  0  0  0  0
  148.1944  135.1768  162.6321 H   0  0  0  0  0  0  0  0  0  0  0  0
  146.9160  136.1712  161.9399 H   0  0  0  0  0  0  0  0  0  0  0  0
  148.4953  136.8768  162.2838 H   0  0  0  0  0  0  0  0  0  0  0  0
  149.5300  135.3803  160.5517 H   0  0  0  0  0  0  0  0  0  0  0  0
  147.9656  134.6812  160.2150 H   0  0  0  0  0  0  0  0  0  0  0  0
  147.1514  137.0402  159.5768 H   0  0  0  0  0  0  0  0  0  0  0  0
  148.7898  137.5909  159.7512 H   0  0  0  0  0  0  0  0  0  0  0  0
  148.0278  135.3992  157.7566 H   0  0  0  0  0  0  0  0  0  0  0  0
  147.0597  137.6661  157.0127 H   0  0  0  0  0  0  0  0  0  0  0  0
  152.2236  137.0291  156.6799 H   0  0  0  0  0  0  0  0  0  0  0  0
  151.5534  136.9447  155.0856 H   0  0  0  0  0  0  0  0  0  0  0  0
  150.9327  139.4441  155.2921 H   0  0  0  0  0  0  0  0  0  0  0  0
  152.8385  138.8347  154.2881 H   0  0  0  0  0  0  0  0  0  0  0  0
  151.2993  139.1554  158.0026 H   0  0  0  0  0  0  0  0  0  0  0  0
  152.8927  139.7213  157.5569 H   0  0  0  0  0  0  0  0  0  0  0  0
  150.3898  141.3315  155.2526 H   0  0  0  0  0  0  0  0  0  0  0  0
  150.5263  145.1702  158.5429 H   0  0  0  0  0  0  0  0  0  0  0  0
  152.6561  145.4820  161.2921 H   0  0  0  0  0  0  0  0  0  0  0  0
  151.1052  144.9558  161.9637 H   0  0  0  0  0  0  0  0  0  0  0  0
  151.1476  146.0963  160.6212 H   0  0  0  0  0  0  0  0  0  0  0  0
  153.2545  141.6088  161.8883 H   0  0  0  0  0  0  0  0  0  0  0  0
  152.1439  142.7890  162.5788 H   0  0  0  0  0  0  0  0  0  0  0  0
  153.6877  143.3168  161.8911 H   0  0  0  0  0  0  0  0  0  0  0  0
  152.6253  140.7657  159.7883 H   0  0  0  0  0  0  0  0  0  0  0  0
  149.9561  143.7074  156.1293 H   0  0  0  0  0  0  0  0  0  0  0  0
  1  2  1  0  0  0  0
  1 26  1  0  0  0  0
  1 27  1  0  0  0  0
  1 28  1  0  0  0  0
  2  3  1  0  0  0  0
  2 29  1  0  0  0  0
  2 30  1  0  0  0  0
  3  4  1  0  0  0  0
  3 31  1  0  0  0  0
  3 32  1  0  0  0  0
  4 24  1  0  0  0  0
  4  5  1  0  0  0  0
  4 33  1  0  0  0  0
  5  6  1  0  0  0  0
  5 34  1  0  0  0  0
  6  7  2  0  0  0  0
  6  8  1  0  0  0  0
  8  9  1  0  0  0  0
  8 24  1  0  0  0  0
  9 10  1  0  0  0  0
  9 35  1  0  0  0  0
  9 36  1  0  0  0  0
 10 11  1  0  0  0  0
 10 12  1  0  0  0  0
 10 37  1  0  0  0  0
 11 38  1  0  0  0  0
 12 13  1  0  0  0  0
 12 39  1  0  0  0  0
 12 40  1  0  0  0  0
 13 23  1  0  0  0  0
 13 14  1  0  0  0  0
 14 15  2  0  0  0  0
 14 41  1  0  0  0  0
 15 16  1  0  0  0  0
 15 50  1  0  0  0  0
 16 23  2  0  0  0  0
 16 17  1  0  0  0  0
 17 18  2  0  0  0  0
 17 42  1  0  0  0  0
 18 19  1  0  0  0  0
 18 20  1  0  0  0  0
 19 43  1  0  0  0  0
 19 44  1  0  0  0  0
 19 45  1  0  0  0  0
 20 21  1  0  0  0  0
 20 22  2  0  0  0  0
 21 46  1  0  0  0  0
 21 47  1  0  0  0  0
 21 48  1  0  0  0  0
 22 23  1  0  0  0  0
 22 49  1  0  0  0  0
 24 25  2  0  0  0  0
M  CHG  1  15   1
M  END
> <s_m_source_file>
AV-unprocessed.smi

> <i_m_source_file_index>
1644

> <i_lp_mmshare_version>
43012

> <i_f3d_flags>
0

> <s_epik_input>
W0NIM11bQ0gyXVtDSDJdW0NAQEhdMVtOSF1DKD1PKU4oQzE9TylbQ0gyXVtDQEhdKFtPSF0pW0NIMl1uKFtjSF1uMiljKGMyMylbY0hdYyhbQ0gzXSljKFtjSF0zKVtDSDNd

> <s_epik_cmdline>
J2VwaWtfcHl0aG9uJywgJy1waCcsICc3LjAnLCAnLXRuJywgJzgnLCAnLW1hJywgJzIwMCcsICctbWV0YWxfYmluZGluZycsICctaW1hZScsICc8aW5maWxlLm1hZT4nLCAnLW9tYWUnLCAnPG91dGZpbGUubWFlPic=

> <r_lp_tautomer_probability>
1

> <r_epik_Ionization_Penalty>
1.06742

> <r_epik_Ionization_Penalty_Charging>
1.06736

> <r_epik_Ionization_Penalty_Neutral>
5.56132e-05

> <r_epik_State_Penalty>
1.12163

> <r_epik_Charging_Adjusted_Penalty>
2.18899

> <i_epik_Tot_Q>
1

> <i_epik_Tot_abs_Q>
1

> <r_epik_Metal_State_Penalty>
1.26636

> <b_epik_Metal_Only>
0

> <s_lp_Force_Field>
OPLS_2005

> <r_lp_Energy>
29.5638

> <b_lp_Chiralities_Consistent>
1

> <s_lp_Variant>
AV-unprocessed.smi:1644-6

> <Gold.Version>
5.8.1

> <Gold.Id.Protein>
6NUR|6NUR_protein|mol2

> <Gold.PLP.Fitness>
54.3370

> <Gold.PLP.PLP>
-44.9156

> <Gold.PLP.part.hbond>
-3.0000

> <Gold.PLP.part.metal>
0.0000

> <Gold.PLP.part.buried>
-6.0057

> <Gold.PLP.part.nonpolar>
-36.8847

> <Gold.PLP.part.repulsive>
0.1390

> <Gold.PLP.ligand.clash>
0.0000

> <Gold.PLP.ligand.torsion>
0.7825

> <Gold.PLP.Chemscore.Hbond>
3.6400

> <Gold.PLP.Chemscore.CHOScore>
0.0000

> <Gold.PLP.Chemscore.Metal>
0.0000

> <Gold.Chemscore.Hbonds>
donor molecule, donor type, donor heavy atom, donor atom, acceptor molecule, acceptor atom, score
      L1  H    15    50       P1  8028  2.00
      P1  H  6896  6907       L1    25  0.51
      P1  H  7997  8009       L1    11  1.00

> <Gold.PLP.Chemscore.Internal.Correction>
0.0664

> <Gold.Rescore>
     Score         DG    S(hbond)    S(metal)    S(lipo)     H(rot)  DE(clash)    DE(int)     intcor
     18.48     -21.57       2.72        0.00     121.13       2.80       1.09       2.00       ----

> <Gold.Chemscore.Fitness>
18.4813

> <Gold.Chemscore.DG>
-21.5720

> <Gold.Chemscore.ZeroCoef>
-5.4800

> <Gold.Chemscore.Hbond>
2.7179

> <Gold.Chemscore.Metal>
0.0000

> <Gold.Chemscore.Lipo>
121.1293

> <Gold.Chemscore.Internal_Hbond>
0.0000

> <Gold.Chemscore.DEClash>
1.0877

> <Gold.Chemscore.DEInternal>
2.0030

> <Gold.Chemscore.Rot>
2.7961

> <Gold.Chemscore.Internal.Correction>
   9.000000E+99

> <Gold.Chemscore.Hbonds>
donor molecule, donor type, donor heavy atom, donor atom, acceptor molecule, acceptor atom, score
      L1  H    15    50       P1  8028  0.94
      P1  H  6896  6907       L1    25  0.52
      P1  H  7997  8009       L1    11  0.97

> <Gold.Chemscore.Hbond.Weighted>
-9.0779

> <Gold.Chemscore.Metal.Weighted>
-0.0000

> <Gold.Chemscore.Lipo.Weighted>
-14.1721

> <Gold.Chemscore.Internal_Hbond.Weighted>
0.0000

> <Gold.Chemscore.DEClash.Weighted>
1.0877

> <Gold.Chemscore.DEInternal.Weighted>
2.0030

> <Gold.Chemscore.Rot.Weighted>
7.1580

> <Gold.Chemscore.Internal.Correction.Weighted>
   9.000000E+99

> <Gold.Protein.RotatedTorsions>
[ 6907 6896 6895 6894 ] final  -58.17 input  -60.11 | X-H torsion
[ 7974 7965 7964 7962 ] final   21.55 input  175.53 | X-H torsion
[ 8008 7997 7996 7995 ] final -131.57 input   59.86 | X-H torsion
[ 10167 10162 10161 10158 ] final  -49.89 input  -65.29 | X-H torsion
[ 10718 10713 10712 10709 ] final  -59.13 input   66.30 | X-H torsion
[ 10763 10752 10751 10750 ] final  103.06 input  -60.55 | X-H torsion
[ 11005 11000 10999 10996 ] final  178.85 input  -57.11 | X-H torsion

> <Gold.Protein.ActiveResidues>
 VAL166  LYS551  ARG553  GLY616  TRP617  ASP618  TYR619  PRO620  LYS621  CYS622 
 ASP623  PHE694  ASN695  SER759  ASP760  ASP761  ALA762  ILE779  LEU786  VAL792 
 PHE793  MET794  SER795  GLU796  ALA797  LYS798  CYS799  TRP800  GLU811  SER814 

> <Gold.Protein.RotatedAtoms>
  150.8028  134.7133  159.6616 H   0  0  0  0  0  0  0  0  0  0  0  0  # atno 6907 bound_to 6896
  152.4146  134.6061  160.0023 H   0  0  0  0  0  0  0  0  0  0  0  0  # atno 6908 bound_to 6896
  151.6294  133.3296  159.3141 H   0  0  0  0  0  0  0  0  0  0  0  0  # atno 6909 bound_to 6896
  146.2067  139.8012  142.8721 H   0  0  0  0  0  0  0  0  0  0  0  0  # atno 7974 bound_to 7965
  155.3144  140.0459  157.3036 H   0  0  0  0  0  0  0  0  0  0  0  0  # atno 8008 bound_to 7997
  154.5415  140.2289  155.8600 H   0  0  0  0  0  0  0  0  0  0  0  0  # atno 8009 bound_to 7997
  156.1885  140.3056  155.9291 H   0  0  0  0  0  0  0  0  0  0  0  0  # atno 8010 bound_to 7997
  140.6664  143.2679  151.4281 H   0  0  0  0  0  0  0  0  0  0  0  0  # atno 10167 bound_to 10162
  156.1084  130.4178  150.0672 H   0  0  0  0  0  0  0  0  0  0  0  0  # atno 10718 bound_to 10713
  153.3477  135.3989  155.1621 H   0  0  0  0  0  0  0  0  0  0  0  0  # atno 10763 bound_to 10752
  154.8656  135.3649  154.5263 H   0  0  0  0  0  0  0  0  0  0  0  0  # atno 10764 bound_to 10752
  153.5712  135.7079  153.5563 H   0  0  0  0  0  0  0  0  0  0  0  0  # atno 10765 bound_to 10752
  140.3997  134.6788  157.4555 H   0  0  0  0  0  0  0  0  0  0  0  0  # atno 11005 bound_to 11000
  145.3295  141.0263  143.3455 LP  0  0  0  0  0  0  0  0  0  0  0  0  # atno 17320 bound_to 7965
  144.8809  139.4905  143.6723 LP  0  0  0  0  0  0  0  0  0  0  0  0  # atno 17321 bound_to 7965
  139.5914  144.1491  152.2092 LP  0  0  0  0  0  0  0  0  0  0  0  0  # atno 17342 bound_to 10162
  140.0847  144.5671  150.7097 LP  0  0  0  0  0  0  0  0  0  0  0  0  # atno 17343 bound_to 10162
  156.8642  130.9502  151.3615 LP  0  0  0  0  0  0  0  0  0  0  0  0  # atno 17370 bound_to 10713
  157.6263  130.8694  149.9195 LP  0  0  0  0  0  0  0  0  0  0  0  0  # atno 17371 bound_to 10713
  140.0345  134.6357  155.9061 LP  0  0  0  0  0  0  0  0  0  0  0  0  # atno 17394 bound_to 11000
  141.1861  133.6556  156.5226 LP  0  0  0  0  0  0  0  0  0  0  0  0  # atno 17395 bound_to 11000

$$$$
