AV-unprocessed.smi:36|AV-procd|sdf|280|dock9
  -GOLD-   2262016 53D 1   1.00000     0.00000
 Structure written by MMmdl.
 64 67  0  0  0  0  0  0  0  0  1 V2000
  145.5621  134.7047  162.8222 C   0  0  0  0  0  0  0  0  0  0  0  0
  146.8215  134.7193  161.9394 C   0  0  0  0  0  0  0  0  0  0  0  0
  147.7852  135.8097  162.4375 C   0  0  0  0  0  0  0  0  0  0  0  0
  147.5140  133.3479  162.0026 C   0  0  0  0  0  0  0  0  0  0  0  0
  146.3118  135.0816  160.1296 Si  0  0  0  0  0  0  0  0  0  0  0  0
  145.1008  133.7577  159.5053 C   0  0  0  0  0  0  0  0  0  0  0  0
  145.5172  136.8032  159.9802 C   0  0  0  0  0  0  0  0  0  0  0  0
  147.6862  135.0261  159.1410 O   0  0  0  0  0  0  0  0  0  0  0  0
  148.4841  133.8706  158.9838 C   0  0  0  0  0  0  0  0  0  0  0  0
  148.6794  133.5496  157.4899 C   0  0  1  0  0  0  0  0  0  0  0  0
  148.6329  134.7867  156.7779 O   0  0  0  0  0  0  0  0  0  0  0  0
  149.9028  135.1306  156.3061 C   0  0  1  0  0  0  0  0  0  0  0  0
  150.1933  136.5344  156.7166 N   0  0  0  0  0  0  0  0  0  0  0  0
  150.3176  137.0553  157.9865 C   0  0  0  0  0  0  0  0  0  0  0  0
  150.5742  138.3349  158.0420 N   0  0  0  0  0  0  0  0  0  0  0  0
  150.6350  138.7232  156.7096 C   0  0  0  0  0  0  0  0  0  0  0  0
  150.8701  139.9601  156.0559 C   0  0  0  0  0  0  0  0  0  0  0  0
  151.0882  141.0801  156.7836 N   0  0  0  0  0  0  0  0  0  0  0  0
  151.8494  141.2178  158.0126 C   0  0  0  0  0  0  0  0  0  0  0  0
  152.3215  140.2463  158.6038 O   0  0  0  0  0  0  0  0  0  0  0  0
  151.9558  142.6080  158.5685 C   0  0  0  0  0  0  0  0  0  0  0  0
  151.5477  143.7146  157.7901 C   0  0  0  0  0  0  0  0  0  0  0  0
  151.6224  145.0204  158.3128 C   0  0  0  0  0  0  0  0  0  0  0  0
  152.0981  145.2300  159.6209 C   0  0  0  0  0  0  0  0  0  0  0  0
  152.4965  144.1326  160.4072 C   0  0  0  0  0  0  0  0  0  0  0  0
  152.4238  142.8265  159.8851 C   0  0  0  0  0  0  0  0  0  0  0  0
  150.8563  139.9618  154.6966 N   0  0  0  0  0  0  0  0  0  0  0  0
  150.6291  138.8290  154.0244 C   0  0  0  0  0  0  0  0  0  0  0  0
  150.3927  137.6062  154.5054 N   0  0  0  0  0  0  0  0  0  0  0  0
  150.4025  137.5997  155.8694 C   0  0  0  0  0  0  0  0  0  0  0  0
  150.9022  134.1710  156.9464 C   0  0  0  0  0  0  0  0  0  0  0  0
  150.0373  132.9409  157.1059 C   0  0  1  0  0  0  0  0  0  0  0  0
  150.5683  132.0406  158.0559 O   0  0  0  0  0  0  0  0  0  0  0  0
  145.8098  134.4901  163.8622 H   0  0  0  0  0  0  0  0  0  0  0  0
  144.8528  133.9456  162.4918 H   0  0  0  0  0  0  0  0  0  0  0  0
  145.0496  135.6668  162.7993 H   0  0  0  0  0  0  0  0  0  0  0  0
  147.3334  136.7998  162.3770 H   0  0  0  0  0  0  0  0  0  0  0  0
  148.7038  135.8289  161.8527 H   0  0  0  0  0  0  0  0  0  0  0  0
  148.0687  135.6409  163.4770 H   0  0  0  0  0  0  0  0  0  0  0  0
  147.8365  133.1129  163.0175 H   0  0  0  0  0  0  0  0  0  0  0  0
  148.3953  133.3183  161.3620 H   0  0  0  0  0  0  0  0  0  0  0  0
  146.8459  132.5495  161.6791 H   0  0  0  0  0  0  0  0  0  0  0  0
  144.1947  133.7243  160.1099 H   0  0  0  0  0  0  0  0  0  0  0  0
  145.5448  132.7628  159.5293 H   0  0  0  0  0  0  0  0  0  0  0  0
  144.7966  133.9512  158.4769 H   0  0  0  0  0  0  0  0  0  0  0  0
  144.6134  136.8804  160.5841 H   0  0  0  0  0  0  0  0  0  0  0  0
  145.2375  137.0249  158.9505 H   0  0  0  0  0  0  0  0  0  0  0  0
  146.1948  137.5909  160.3091 H   0  0  0  0  0  0  0  0  0  0  0  0
  149.4532  134.0773  159.4390 H   0  0  0  0  0  0  0  0  0  0  0  0
  148.0554  133.0278  159.5245 H   0  0  0  0  0  0  0  0  0  0  0  0
  147.8599  132.9160  157.1489 H   0  0  0  0  0  0  0  0  0  0  0  0
  149.9168  135.1207  155.2155 H   0  0  0  0  0  0  0  0  0  0  0  0
  150.2083  136.4561  158.8779 H   0  0  0  0  0  0  0  0  0  0  0  0
  150.6985  141.9321  156.4071 H   0  0  0  0  0  0  0  0  0  0  0  0
  151.1775  143.5702  156.7851 H   0  0  0  0  0  0  0  0  0  0  0  0
  151.3121  145.8610  157.7099 H   0  0  0  0  0  0  0  0  0  0  0  0
  152.1533  146.2310  160.0224 H   0  0  0  0  0  0  0  0  0  0  0  0
  152.8552  144.2918  161.4136 H   0  0  0  0  0  0  0  0  0  0  0  0
  152.7261  141.9982  160.5093 H   0  0  0  0  0  0  0  0  0  0  0  0
  150.6355  138.9158  152.9480 H   0  0  0  0  0  0  0  0  0  0  0  0
  151.7747  134.0235  156.3092 H   0  0  0  0  0  0  0  0  0  0  0  0
  151.2247  134.5565  157.9152 H   0  0  0  0  0  0  0  0  0  0  0  0
  149.9501  132.4326  156.1446 H   0  0  0  0  0  0  0  0  0  0  0  0
  150.0453  131.2532  158.0487 H   0  0  0  0  0  0  0  0  0  0  0  0
  1  2  1  0  0  0  0
  1 34  1  0  0  0  0
  1 35  1  0  0  0  0
  1 36  1  0  0  0  0
  2  3  1  0  0  0  0
  2  4  1  0  0  0  0
  2  5  1  0  0  0  0
  3 37  1  0  0  0  0
  3 38  1  0  0  0  0
  3 39  1  0  0  0  0
  4 40  1  0  0  0  0
  4 41  1  0  0  0  0
  4 42  1  0  0  0  0
  5  6  1  0  0  0  0
  5  7  1  0  0  0  0
  5  8  1  0  0  0  0
  6 43  1  0  0  0  0
  6 44  1  0  0  0  0
  6 45  1  0  0  0  0
  7 46  1  0  0  0  0
  7 47  1  0  0  0  0
  7 48  1  0  0  0  0
  8  9  1  0  0  0  0
  9 10  1  0  0  0  0
  9 49  1  0  0  0  0
  9 50  1  0  0  0  0
 10 32  1  0  0  0  0
 10 11  1  0  0  0  0
 10 51  1  0  0  0  0
 11 12  1  0  0  0  0
 12 13  1  0  0  0  0
 12 31  1  0  0  0  0
 12 52  1  0  0  0  0
 13 30  1  0  0  0  0
 13 14  1  0  0  0  0
 14 15  2  0  0  0  0
 14 53  1  0  0  0  0
 15 16  1  0  0  0  0
 16 30  2  0  0  0  0
 16 17  1  0  0  0  0
 17 18  1  0  0  0  0
 17 27  2  0  0  0  0
 18 19  1  0  0  0  0
 18 54  1  0  0  0  0
 19 20  2  0  0  0  0
 19 21  1  0  0  0  0
 21 26  1  0  0  0  0
 21 22  2  0  0  0  0
 22 23  1  0  0  0  0
 22 55  1  0  0  0  0
 23 24  2  0  0  0  0
 23 56  1  0  0  0  0
 24 25  1  0  0  0  0
 24 57  1  0  0  0  0
 25 26  2  0  0  0  0
 25 58  1  0  0  0  0
 26 59  1  0  0  0  0
 27 28  1  0  0  0  0
 28 29  2  0  0  0  0
 28 60  1  0  0  0  0
 29 30  1  0  0  0  0
 31 32  1  0  0  0  0
 31 61  1  0  0  0  0
 31 62  1  0  0  0  0
 32 33  1  0  0  0  0
 32 63  1  0  0  0  0
 33 64  1  0  0  0  0
M  END
> <s_m_source_file>
AV-unprocessed.smi

> <i_m_source_file_index>
36

> <i_lp_mmshare_version>
43012

> <i_f3d_flags>
0

> <s_epik_input>
W0NIM11DKFtDSDNdKShbQ0gzXSlbU2ldKFtDSDNdKShbQ0gzXSlPW0NIMl1bQ0BASF0xT1tDQEhdKFtDSDJdW0NASF0xW09IXSluKFtjSF1uMiljKGMyMyluW2NIXW5jM1tOSF1DKD1PKWM0W2NIXVtjSF1bY0hdW2NIXVtjSF00

> <s_epik_cmdline>
J2VwaWtfcHl0aG9uJywgJy1waCcsICc3LjAnLCAnLXRuJywgJzgnLCAnLW1hJywgJzIwMCcsICctbWV0YWxfYmluZGluZycsICctaW1hZScsICc8aW5maWxlLm1hZT4nLCAnLW9tYWUnLCAnPG91dGZpbGUubWFlPic=

> <r_lp_tautomer_probability>
1

> <r_epik_Ionization_Penalty>
0.00150433

> <r_epik_Ionization_Penalty_Charging>
0

> <r_epik_Ionization_Penalty_Neutral>
0.00150433

> <r_epik_State_Penalty>
0.00724046

> <r_epik_Charging_Adjusted_Penalty>
0.00724046

> <i_epik_Tot_Q>
0

> <i_epik_Tot_abs_Q>
0

> <r_epik_Metal_State_Penalty>
0.323355

> <b_epik_Metal_Only>
0

> <s_epik_Chemistry_Notes>
This compound contains an acetal/aminal-like group ( X-CH(R)-Y where X, Y are N, S, or O) that may be acid/base labile, releasing an aldehyde.

> <s_lp_Force_Field>
OPLS_2005

> <r_lp_Energy>
33.9603

> <b_lp_Chiralities_Consistent>
1

> <s_lp_Variant>
AV-unprocessed.smi:36-2

> <Gold.Version>
5.8.1

> <Gold.Id.Protein>
6NUR|6NUR_protein|mol2

> <Gold.PLP.Fitness>
55.7017

> <Gold.PLP.PLP>
-48.9618

> <Gold.PLP.part.hbond>
-2.0000

> <Gold.PLP.part.metal>
0.0000

> <Gold.PLP.part.buried>
-6.7310

> <Gold.PLP.part.nonpolar>
-40.1682

> <Gold.PLP.part.repulsive>
0.3770

> <Gold.PLP.ligand.clash>
0.0000

> <Gold.PLP.ligand.torsion>
1.1717

> <Gold.PLP.Chemscore.Hbond>
2.0000

> <Gold.PLP.Chemscore.CHOScore>
1.0000

> <Gold.PLP.Chemscore.Metal>
0.0000

> <Gold.Chemscore.Hbonds>
donor molecule, donor type, donor heavy atom, donor atom, acceptor molecule, acceptor atom, score
      P1  H  6896  6908       L1    33  0.85
      P1  H  7989  7998       L1    27  1.00
      L1  C    28    60       P1  7957  1.00

> <Gold.PLP.Chemscore.Internal.Correction>
0.0834

> <Gold.Rescore>
     Score         DG    S(hbond)    S(metal)    S(lipo)     H(rot)  DE(clash)    DE(int)     intcor
     11.70     -16.41       0.85        0.00     128.35       2.70       0.84       3.87       ----

> <Gold.Chemscore.Fitness>
11.7001

> <Gold.Chemscore.DG>
-16.4120

> <Gold.Chemscore.ZeroCoef>
-5.4800

> <Gold.Chemscore.Hbond>
0.8497

> <Gold.Chemscore.Metal>
0.0000

> <Gold.Chemscore.Lipo>
128.3477

> <Gold.Chemscore.Internal_Hbond>
0.0000

> <Gold.Chemscore.DEClash>
0.8435

> <Gold.Chemscore.DEInternal>
3.8683

> <Gold.Chemscore.Rot>
2.7041

> <Gold.Chemscore.Internal.Correction>
   9.000000E+99

> <Gold.Chemscore.Hbonds>
donor molecule, donor type, donor heavy atom, donor atom, acceptor molecule, acceptor atom, score
      P1  H  6896  6908       L1    33  0.15
      P1  H  7989  7998       L1    27  0.26

> <Gold.Chemscore.Hbond.Weighted>
-2.8378

> <Gold.Chemscore.Metal.Weighted>
-0.0000

> <Gold.Chemscore.Lipo.Weighted>
-15.0167

> <Gold.Chemscore.Internal_Hbond.Weighted>
0.0000

> <Gold.Chemscore.DEClash.Weighted>
0.8435

> <Gold.Chemscore.DEInternal.Weighted>
3.8683

> <Gold.Chemscore.Rot.Weighted>
6.9225

> <Gold.Chemscore.Internal.Correction.Weighted>
   9.000000E+99

> <Gold.Protein.RotatedTorsions>
[ 6907 6896 6895 6894 ] final   78.92 input  -60.11 | X-H torsion
[ 7974 7965 7964 7962 ] final  129.64 input  175.53 | X-H torsion
[ 8008 7997 7996 7995 ] final -143.57 input   59.86 | X-H torsion
[ 10167 10162 10161 10158 ] final   12.26 input  -65.29 | X-H torsion
[ 10718 10713 10712 10709 ] final -108.43 input   66.30 | X-H torsion
[ 10763 10752 10751 10750 ] final   57.29 input  -60.55 | X-H torsion
[ 11005 11000 10999 10996 ] final   67.49 input  -57.11 | X-H torsion

> <Gold.Protein.ActiveResidues>
 VAL166  LYS551  ARG553  GLY616  TRP617  ASP618  TYR619  PRO620  LYS621  CYS622 
 ASP623  PHE694  ASN695  SER759  ASP760  ASP761  ALA762  ILE779  LEU786  VAL792 
 PHE793  MET794  SER795  GLU796  ALA797  LYS798  CYS799  TRP800  GLU811  SER814 

> <Gold.Protein.RotatedAtoms>
  152.5179  134.3590  159.9277 H   0  0  0  0  0  0  0  0  0  0  0  0  # atno 6907 bound_to 6896
  151.3542  133.3907  159.2691 H   0  0  0  0  0  0  0  0  0  0  0  0  # atno 6908 bound_to 6896
  150.9703  134.9096  159.7842 H   0  0  0  0  0  0  0  0  0  0  0  0  # atno 6909 bound_to 6896
  145.0264  139.4085  143.5171 H   0  0  0  0  0  0  0  0  0  0  0  0  # atno 7974 bound_to 7965
  155.5128  140.0585  157.2920 H   0  0  0  0  0  0  0  0  0  0  0  0  # atno 8008 bound_to 7997
  154.4546  140.1966  156.0366 H   0  0  0  0  0  0  0  0  0  0  0  0  # atno 8009 bound_to 7997
  156.0773  140.3252  155.7653 H   0  0  0  0  0  0  0  0  0  0  0  0  # atno 8010 bound_to 7997
  140.6079  143.8469  150.7034 H   0  0  0  0  0  0  0  0  0  0  0  0  # atno 10167 bound_to 10162
  156.0485  130.5712  150.7960 H   0  0  0  0  0  0  0  0  0  0  0  0  # atno 10718 bound_to 10713
  152.9847  135.5646  154.5367 H   0  0  0  0  0  0  0  0  0  0  0  0  # atno 10763 bound_to 10752
  154.4829  135.2789  155.1559 H   0  0  0  0  0  0  0  0  0  0  0  0  # atno 10764 bound_to 10752
  154.3060  135.6298  153.5498 H   0  0  0  0  0  0  0  0  0  0  0  0  # atno 10765 bound_to 10752
  139.9768  134.6809  156.0339 H   0  0  0  0  0  0  0  0  0  0  0  0  # atno 11005 bound_to 11000
  146.3493  139.9791  142.8698 LP  0  0  0  0  0  0  0  0  0  0  0  0  # atno 17320 bound_to 7965
  145.1827  140.9775  143.4257 LP  0  0  0  0  0  0  0  0  0  0  0  0  # atno 17321 bound_to 7965
  140.2030  143.3944  152.1777 LP  0  0  0  0  0  0  0  0  0  0  0  0  # atno 17342 bound_to 10162
  139.5339  144.7189  151.4960 LP  0  0  0  0  0  0  0  0  0  0  0  0  # atno 17343 bound_to 10162
  157.5387  131.0940  150.9857 LP  0  0  0  0  0  0  0  0  0  0  0  0  # atno 17370 bound_to 10713
  157.0146  130.5650  149.5324 LP  0  0  0  0  0  0  0  0  0  0  0  0  # atno 17371 bound_to 10713
  141.1444  133.6558  156.3824 LP  0  0  0  0  0  0  0  0  0  0  0  0  # atno 17394 bound_to 11000
  140.5179  134.6333  157.5307 LP  0  0  0  0  0  0  0  0  0  0  0  0  # atno 17395 bound_to 11000

$$$$
