AV-unprocessed.smi:915|AV-procd|sdf|4156|dock8
  -GOLD-   22720 2 63D 1   1.00000     0.00000
 Structure written by MMmdl.
 33 34  0  0  0  0  0  0  0  0  2 V2000
  152.1521  144.9018  158.4391 C   0  0  0  0  0  0  0  0  0  0  0  0
  151.5632  144.0893  159.5980 C   0  0  0  0  0  0  0  0  0  0  0  0
  152.3044  142.8078  159.8302 C   0  0  0  0  0  0  0  0  0  0  0  0
  152.9106  142.4054  160.9919 C   0  0  0  0  0  0  0  0  0  0  0  0
  153.6629  140.8456  160.8179 S   0  0  0  0  0  0  0  0  0  0  0  0
  153.1135  140.7801  159.1418 C   0  0  0  0  0  0  0  0  0  0  0  0
  153.3505  139.7657  158.2943 N   0  5  0  0  0  0  0  0  0  0  0  0
  152.3500  139.2839  157.5222 C   0  0  0  0  0  0  0  0  0  0  0  0
  151.3220  138.7307  157.9197 O   0  0  0  0  0  0  0  0  0  0  0  0
  152.5550  139.4482  156.2077 N   0  0  0  0  0  0  0  0  0  0  0  0
  151.6575  139.0112  155.1426 C   0  0  0  0  0  0  0  0  0  0  0  0
  150.2380  139.5873  155.3034 C   0  0  2  0  0  0  0  0  0  0  0  0
  149.3173  139.3223  154.1033 C   0  0  0  0  0  0  0  0  0  0  0  0
  148.1922  140.3551  154.1750 C   0  0  0  0  0  0  0  0  0  0  0  0
  148.8581  141.7007  154.4666 C   0  0  0  0  0  0  0  0  0  0  0  0
  150.2661  141.3832  155.5613 S   0  0  0  0  0  0  0  0  0  0  0  0
  152.4357  141.8796  158.7939 N   0  0  0  0  0  0  0  0  0  0  0  0
  151.5980  145.8291  158.2933 H   0  0  0  0  0  0  0  0  0  0  0  0
  152.1138  144.3403  157.5049 H   0  0  0  0  0  0  0  0  0  0  0  0
  153.1935  145.1614  158.6316 H   0  0  0  0  0  0  0  0  0  0  0  0
  151.5749  144.6966  160.5036 H   0  0  0  0  0  0  0  0  0  0  0  0
  150.5127  143.8795  159.3929 H   0  0  0  0  0  0  0  0  0  0  0  0
  152.9620  142.9288  161.9345 H   0  0  0  0  0  0  0  0  0  0  0  0
  153.4080  139.9086  155.9264 H   0  0  0  0  0  0  0  0  0  0  0  0
  152.0730  139.2897  154.1731 H   0  0  0  0  0  0  0  0  0  0  0  0
  151.6211  137.9216  155.1593 H   0  0  0  0  0  0  0  0  0  0  0  0
  149.7705  139.1615  156.1922 H   0  0  0  0  0  0  0  0  0  0  0  0
  149.8698  139.4549  153.1719 H   0  0  0  0  0  0  0  0  0  0  0  0
  148.9306  138.3026  154.1081 H   0  0  0  0  0  0  0  0  0  0  0  0
  147.6046  140.3835  153.2571 H   0  0  0  0  0  0  0  0  0  0  0  0
  147.5134  140.0967  154.9887 H   0  0  0  0  0  0  0  0  0  0  0  0
  149.2377  142.1383  153.5429 H   0  0  0  0  0  0  0  0  0  0  0  0
  148.1660  142.4145  154.9143 H   0  0  0  0  0  0  0  0  0  0  0  0
  1  2  1  0  0  0  0
  1 18  1  0  0  0  0
  1 19  1  0  0  0  0
  1 20  1  0  0  0  0
  2  3  1  0  0  0  0
  2 21  1  0  0  0  0
  2 22  1  0  0  0  0
  3 17  1  0  0  0  0
  3  4  2  0  0  0  0
  4  5  1  0  0  0  0
  4 23  1  0  0  0  0
  5  6  1  0  0  0  0
  6  7  1  0  0  0  0
  6 17  2  0  0  0  0
  7  8  1  0  0  0  0
  8  9  2  0  0  0  0
  8 10  1  0  0  0  0
 10 11  1  0  0  0  0
 10 24  1  0  0  0  0
 11 12  1  0  0  0  0
 11 25  1  0  0  0  0
 11 26  1  0  0  0  0
 12 16  1  0  0  0  0
 12 13  1  0  0  0  0
 12 27  1  0  0  0  0
 13 14  1  0  0  0  0
 13 28  1  0  0  0  0
 13 29  1  0  0  0  0
 14 15  1  0  0  0  0
 14 30  1  0  0  0  0
 14 31  1  0  0  0  0
 15 16  1  0  0  0  0
 15 32  1  0  0  0  0
 15 33  1  0  0  0  0
M  CHG  1   7  -1
M  END
> <s_m_source_file>
AV-unprocessed.smi

> <i_m_source_file_index>
915

> <i_lp_mmshare_version>
43012

> <i_f3d_flags>
0

> <s_epik_input>
W0NIM11bQ0gyXWMxW2NIXXNjKG4xKVtOSF1DKD1PKVtOSF1bQ0gyXVtDQEBIXTJbQ0gyXVtDSDJdW0NIMl1TMg==

> <s_epik_cmdline>
J2VwaWtfcHl0aG9uJywgJy1waCcsICc3LjAnLCAnLXRuJywgJzgnLCAnLW1hJywgJzIwMCcsICctbWV0YWxfYmluZGluZycsICctaW1hZScsICc8aW5maWxlLm1hZT4nLCAnLW9tYWUnLCAnPG91dGZpbGUubWFlPic=

> <r_lp_tautomer_probability>
0.999

> <r_epik_Ionization_Penalty>
8.73043

> <r_epik_Ionization_Penalty_Charging>
6.79141

> <r_epik_Ionization_Penalty_Neutral>
1.93902

> <r_epik_State_Penalty>
6.79158

> <r_epik_Charging_Adjusted_Penalty>
13.583

> <i_epik_Tot_Q>
-1

> <i_epik_Tot_abs_Q>
1

> <r_epik_Metal_State_Penalty>
2.71141

> <b_epik_Metal_Only>
1

> <s_lp_Force_Field>
OPLS_2005

> <r_lp_Energy>
4.53782

> <b_lp_Chiralities_Consistent>
1

> <s_lp_Variant>
AV-unprocessed.smi:915-3

> <Gold.Version>
5.8.1

> <Gold.Id.Protein>
6NUR|6NUR_protein|mol2

> <Gold.PLP.Fitness>
42.6733

> <Gold.PLP.PLP>
-38.7340

> <Gold.PLP.part.hbond>
-1.0000

> <Gold.PLP.part.metal>
0.0000

> <Gold.PLP.part.buried>
-2.4208

> <Gold.PLP.part.nonpolar>
-35.3776

> <Gold.PLP.part.repulsive>
1.1585

> <Gold.PLP.ligand.clash>
0.0000

> <Gold.PLP.ligand.torsion>
1.0445

> <Gold.PLP.Chemscore.Hbond>
2.0000

> <Gold.PLP.Chemscore.CHOScore>
0.0000

> <Gold.PLP.Chemscore.Metal>
0.0000

> <Gold.Chemscore.Hbonds>
donor molecule, donor type, donor heavy atom, donor atom, acceptor molecule, acceptor atom, score
      P1  H  7997  8010       L1     7  2.00

> <Gold.PLP.Chemscore.Internal.Correction>
0.0284

> <Gold.Rescore>
     Score         DG    S(hbond)    S(metal)    S(lipo)     H(rot)  DE(clash)    DE(int)     intcor
     13.09     -15.09       0.53        0.00      96.21       1.33       0.04       1.96       ----

> <Gold.Chemscore.Fitness>
13.0888

> <Gold.Chemscore.DG>
-15.0881

> <Gold.Chemscore.ZeroCoef>
-5.4800

> <Gold.Chemscore.Hbond>
0.5263

> <Gold.Chemscore.Metal>
0.0000

> <Gold.Chemscore.Lipo>
96.2078

> <Gold.Chemscore.Internal_Hbond>
0.0000

> <Gold.Chemscore.DEClash>
0.0354

> <Gold.Chemscore.DEInternal>
1.9639

> <Gold.Chemscore.Rot>
1.3305

> <Gold.Chemscore.Internal.Correction>
   9.000000E+99

> <Gold.Chemscore.Hbonds>
donor molecule, donor type, donor heavy atom, donor atom, acceptor molecule, acceptor atom, score
      P1  H  7997  8010       L1     7  0.51

> <Gold.Chemscore.Hbond.Weighted>
-1.7578

> <Gold.Chemscore.Metal.Weighted>
-0.0000

> <Gold.Chemscore.Lipo.Weighted>
-11.2563

> <Gold.Chemscore.Internal_Hbond.Weighted>
0.0000

> <Gold.Chemscore.DEClash.Weighted>
0.0354

> <Gold.Chemscore.DEInternal.Weighted>
1.9639

> <Gold.Chemscore.Rot.Weighted>
3.4060

> <Gold.Chemscore.Internal.Correction.Weighted>
   9.000000E+99

> <Gold.Protein.RotatedTorsions>
[ 6907 6896 6895 6894 ] final -147.06 input  -60.11 | X-H torsion
[ 7974 7965 7964 7962 ] final  -36.27 input  175.53 | X-H torsion
[ 8008 7997 7996 7995 ] final   17.85 input   59.86 | X-H torsion
[ 10167 10162 10161 10158 ] final  115.25 input  -65.29 | X-H torsion
[ 10718 10713 10712 10709 ] final  -43.07 input   66.30 | X-H torsion
[ 10763 10752 10751 10750 ] final -155.82 input  -60.55 | X-H torsion
[ 11005 11000 10999 10996 ] final  140.00 input  -57.11 | X-H torsion

> <Gold.Protein.ActiveResidues>
 VAL166  LYS551  ARG553  GLY616  TRP617  ASP618  TYR619  PRO620  LYS621  CYS622 
 ASP623  PHE694  ASN695  SER759  ASP760  ASP761  ALA762  ILE779  LEU786  VAL792 
 PHE793  MET794  SER795  GLU796  ALA797  LYS798  CYS799  TRP800  GLU811  SER814 

> <Gold.Protein.RotatedAtoms>
  151.1504  133.4911  159.2595 H   0  0  0  0  0  0  0  0  0  0  0  0  # atno 6907 bound_to 6896
  151.1560  135.0250  159.8699 H   0  0  0  0  0  0  0  0  0  0  0  0  # atno 6908 bound_to 6896
  152.5463  134.1383  159.8521 H   0  0  0  0  0  0  0  0  0  0  0  0  # atno 6909 bound_to 6896
  146.0676  140.6259  142.8968 H   0  0  0  0  0  0  0  0  0  0  0  0  # atno 7974 bound_to 7965
  154.8974  140.2995  155.5337 H   0  0  0  0  0  0  0  0  0  0  0  0  # atno 8008 bound_to 7997
  156.3019  140.2413  156.3932 H   0  0  0  0  0  0  0  0  0  0  0  0  # atno 8009 bound_to 7997
  154.8556  140.0407  157.1621 H   0  0  0  0  0  0  0  0  0  0  0  0  # atno 8010 bound_to 7997
  139.6330  144.7117  151.2392 H   0  0  0  0  0  0  0  0  0  0  0  0  # atno 10167 bound_to 10162
  156.2529  130.4189  149.8629 H   0  0  0  0  0  0  0  0  0  0  0  0  # atno 10718 bound_to 10713
  154.7759  135.3159  154.8093 H   0  0  0  0  0  0  0  0  0  0  0  0  # atno 10763 bound_to 10752
  153.8817  135.6834  153.4771 H   0  0  0  0  0  0  0  0  0  0  0  0  # atno 10764 bound_to 10752
  153.1382  135.4750  154.9391 H   0  0  0  0  0  0  0  0  0  0  0  0  # atno 10765 bound_to 10752
  140.0295  134.9358  157.0634 H   0  0  0  0  0  0  0  0  0  0  0  0  # atno 11005 bound_to 11000
  144.7211  140.4377  143.7007 LP  0  0  0  0  0  0  0  0  0  0  0  0  # atno 17320 bound_to 7965
  145.6450  139.1556  143.2894 LP  0  0  0  0  0  0  0  0  0  0  0  0  # atno 17321 bound_to 7965
  140.7450  143.6446  150.8304 LP  0  0  0  0  0  0  0  0  0  0  0  0  # atno 17342 bound_to 10162
  140.0073  143.5680  152.2852 LP  0  0  0  0  0  0  0  0  0  0  0  0  # atno 17343 bound_to 10162
  156.6172  130.8611  151.3467 LP  0  0  0  0  0  0  0  0  0  0  0  0  # atno 17370 bound_to 10713
  157.7221  130.9573  150.1482 LP  0  0  0  0  0  0  0  0  0  0  0  0  # atno 17371 bound_to 10713
  140.4249  134.1841  155.7166 LP  0  0  0  0  0  0  0  0  0  0  0  0  # atno 17394 bound_to 11000
  141.1823  133.8388  157.1215 LP  0  0  0  0  0  0  0  0  0  0  0  0  # atno 17395 bound_to 11000

$$$$
