AV-unprocessed.smi:1525|AV-procd|sdf|6144|dock2
  -GOLD-   22720 6293D 1   1.00000     0.00000
 Structure written by MMmdl.
 50 52  0  0  0  0  0  0  0  0  3 V2000
  150.3377  134.0656  155.6110 O   0  0  0  0  0  0  0  0  0  0  0  0
  149.8462  134.6488  154.6451 C   0  0  0  0  0  0  0  0  0  0  0  0
  150.0329  135.9529  154.3969 N   0  0  0  0  0  0  0  0  0  0  0  0
  150.8325  136.8517  155.2216 C   0  0  0  0  0  0  0  0  0  0  0  0
  151.5785  137.8925  154.3641 C   0  0  0  0  0  0  0  0  0  0  0  0
  151.2006  139.2874  154.7027 N   0  3  0  0  0  0  0  0  0  0  0  0
  149.7575  139.5781  154.5128 C   0  0  0  0  0  0  0  0  0  0  0  0
  149.4545  141.0470  154.8554 C   0  0  0  0  0  0  0  0  0  0  0  0
  149.8665  141.3233  156.1880 O   0  0  0  0  0  0  0  0  0  0  0  0
  151.2653  141.1355  156.3608 C   0  0  0  0  0  0  0  0  0  0  0  0
  151.6272  139.6692  156.0706 C   0  0  0  0  0  0  0  0  0  0  0  0
  149.0779  134.0755  153.7034 N   0  0  0  0  0  0  0  0  0  0  0  0
  148.6833  132.7103  153.6059 C   0  0  0  0  0  0  0  0  0  0  0  0
  149.4091  131.6720  154.2441 C   0  0  0  0  0  0  0  0  0  0  0  0
  148.9557  130.3420  154.1538 C   0  0  0  0  0  0  0  0  0  0  0  0
  147.7782  130.0702  153.4353 C   0  0  0  0  0  0  0  0  0  0  0  0
  147.1021  131.0817  152.8522 N   0  3  0  0  0  0  0  0  0  0  0  0
  147.4892  132.3801  152.9071 C   0  0  0  0  0  0  0  0  0  0  0  0
  146.7129  133.3516  152.2399 N   0  0  0  0  0  0  0  0  0  0  0  0
  146.5393  133.1038  150.8109 C   0  0  0  0  0  0  0  0  0  0  0  0
  145.1298  133.5825  150.4568 C   0  0  0  0  0  0  0  0  0  0  0  0
  144.3727  133.4265  151.7697 C   0  0  0  0  0  0  0  0  0  0  0  0
  145.4356  133.7805  152.8083 C   0  0  0  0  0  0  0  0  0  0  0  0
  149.5967  136.3526  153.5786 H   0  0  0  0  0  0  0  0  0  0  0  0
  150.1981  137.3463  155.9594 H   0  0  0  0  0  0  0  0  0  0  0  0
  151.5350  136.2341  155.7802 H   0  0  0  0  0  0  0  0  0  0  0  0
  152.6587  137.7687  154.4578 H   0  0  0  0  0  0  0  0  0  0  0  0
  151.3375  137.7125  153.3152 H   0  0  0  0  0  0  0  0  0  0  0  0
  149.4596  139.3852  153.4831 H   0  0  0  0  0  0  0  0  0  0  0  0
  149.1636  138.9184  155.1475 H   0  0  0  0  0  0  0  0  0  0  0  0
  149.9560  141.7209  154.1589 H   0  0  0  0  0  0  0  0  0  0  0  0
  148.3848  141.2393  154.7695 H   0  0  0  0  0  0  0  0  0  0  0  0
  151.8197  141.8112  155.7076 H   0  0  0  0  0  0  0  0  0  0  0  0
  151.5326  141.3930  157.3859 H   0  0  0  0  0  0  0  0  0  0  0  0
  151.1469  139.0146  156.7999 H   0  0  0  0  0  0  0  0  0  0  0  0
  152.7041  139.5320  156.1764 H   0  0  0  0  0  0  0  0  0  0  0  0
  148.8232  134.6588  152.9197 H   0  0  0  0  0  0  0  0  0  0  0  0
  150.3000  131.8750  154.8186 H   0  0  0  0  0  0  0  0  0  0  0  0
  149.5009  129.5433  154.6354 H   0  0  0  0  0  0  0  0  0  0  0  0
  147.3568  129.0828  153.3133 H   0  0  0  0  0  0  0  0  0  0  0  0
  147.2926  133.6287  150.2234 H   0  0  0  0  0  0  0  0  0  0  0  0
  146.6348  132.0371  150.6011 H   0  0  0  0  0  0  0  0  0  0  0  0
  145.1561  134.6349  150.1708 H   0  0  0  0  0  0  0  0  0  0  0  0
  144.6840  133.0208  149.6355 H   0  0  0  0  0  0  0  0  0  0  0  0
  143.4886  134.0613  151.8327 H   0  0  0  0  0  0  0  0  0  0  0  0
  144.0574  132.3899  151.8965 H   0  0  0  0  0  0  0  0  0  0  0  0
  145.2022  133.3549  153.7838 H   0  0  0  0  0  0  0  0  0  0  0  0
  145.4794  134.8621  152.9393 H   0  0  0  0  0  0  0  0  0  0  0  0
  151.7100  139.8880  154.0702 H   0  0  0  0  0  0  0  0  0  0  0  0
  146.2513  130.8547  152.3369 H   0  0  0  0  0  0  0  0  0  0  0  0
  1  2  2  0  0  0  0
  2  3  1  0  0  0  0
  2 12  1  0  0  0  0
  3  4  1  0  0  0  0
  3 24  1  0  0  0  0
  4  5  1  0  0  0  0
  4 25  1  0  0  0  0
  4 26  1  0  0  0  0
  5  6  1  0  0  0  0
  5 27  1  0  0  0  0
  5 28  1  0  0  0  0
  6 11  1  0  0  0  0
  6  7  1  0  0  0  0
  6 49  1  0  0  0  0
  7  8  1  0  0  0  0
  7 29  1  0  0  0  0
  7 30  1  0  0  0  0
  8  9  1  0  0  0  0
  8 31  1  0  0  0  0
  8 32  1  0  0  0  0
  9 10  1  0  0  0  0
 10 11  1  0  0  0  0
 10 33  1  0  0  0  0
 10 34  1  0  0  0  0
 11 35  1  0  0  0  0
 11 36  1  0  0  0  0
 12 13  1  0  0  0  0
 12 37  1  0  0  0  0
 13 18  1  0  0  0  0
 13 14  2  0  0  0  0
 14 15  1  0  0  0  0
 14 38  1  0  0  0  0
 15 16  2  0  0  0  0
 15 39  1  0  0  0  0
 16 17  1  0  0  0  0
 16 40  1  0  0  0  0
 17 18  2  0  0  0  0
 17 50  1  0  0  0  0
 18 19  1  0  0  0  0
 19 23  1  0  0  0  0
 19 20  1  0  0  0  0
 20 21  1  0  0  0  0
 20 41  1  0  0  0  0
 20 42  1  0  0  0  0
 21 22  1  0  0  0  0
 21 43  1  0  0  0  0
 21 44  1  0  0  0  0
 22 23  1  0  0  0  0
 22 45  1  0  0  0  0
 22 46  1  0  0  0  0
 23 47  1  0  0  0  0
 23 48  1  0  0  0  0
M  CHG  1   6   1
M  CHG  1  17   1
M  END
> <s_m_source_file>
AV-unprocessed.smi

> <i_m_source_file_index>
1525

> <i_lp_mmshare_version>
43012

> <i_f3d_flags>
0

> <s_epik_input>
W0NIMl0xW0NIMl1PW0NIMl1bQ0gyXU4xW0NIMl1bQ0gyXVtOSF1DKD1PKVtOSF1jMltjSF1bY0hdW2NIXW5jMk4zW0NIMl1bQ0gyXVtDSDJdW0NIMl0z

> <s_epik_cmdline>
J2VwaWtfcHl0aG9uJywgJy1waCcsICc3LjAnLCAnLXRuJywgJzgnLCAnLW1hJywgJzIwMCcsICctbWV0YWxfYmluZGluZycsICctaW1hZScsICc8aW5maWxlLm1hZT4nLCAnLW9tYWUnLCAnPG91dGZpbGUubWFlPic=

> <r_lp_tautomer_probability>
0.999994

> <r_epik_Ionization_Penalty>
1.81601

> <r_epik_Ionization_Penalty_Charging>
1.81599

> <r_epik_Ionization_Penalty_Neutral>
2.02981e-05

> <r_epik_State_Penalty>
1.85672

> <r_epik_Charging_Adjusted_Penalty>
3.6727

> <i_epik_Tot_Q>
2

> <i_epik_Tot_abs_Q>
2

> <r_epik_Metal_State_Penalty>
1.93796

> <b_epik_Metal_Only>
0

> <s_lp_Force_Field>
OPLS_2005

> <r_lp_Energy>
52.6706

> <b_lp_Chiralities_Consistent>
1

> <s_lp_Variant>
AV-unprocessed.smi:1525-4

> <Gold.Version>
5.8.1

> <Gold.Id.Protein>
6NUR|6NUR_protein|mol2

> <Gold.PLP.Fitness>
44.2042

> <Gold.PLP.PLP>
-40.4589

> <Gold.PLP.part.hbond>
-3.1678

> <Gold.PLP.part.metal>
0.0000

> <Gold.PLP.part.buried>
-5.3288

> <Gold.PLP.part.nonpolar>
-33.4867

> <Gold.PLP.part.repulsive>
1.1265

> <Gold.PLP.ligand.clash>
0.0000

> <Gold.PLP.ligand.torsion>
0.8532

> <Gold.PLP.Chemscore.Hbond>
1.7500

> <Gold.PLP.Chemscore.CHOScore>
0.0000

> <Gold.PLP.Chemscore.Metal>
0.0000

> <Gold.Chemscore.Hbonds>
donor molecule, donor type, donor heavy atom, donor atom, acceptor molecule, acceptor atom, score
      L1  H     3    24       P1  7948  1.00
      L1  H    12    37       P1  7948  0.70

> <Gold.PLP.Chemscore.Internal.Correction>
0.2017

> <Gold.Rescore>
     Score         DG    S(hbond)    S(metal)    S(lipo)     H(rot)  DE(clash)    DE(int)     intcor
     12.61     -14.78       1.09        0.00      85.41       1.70       0.08       2.09       ----

> <Gold.Chemscore.Fitness>
12.6099

> <Gold.Chemscore.DG>
-14.7756

> <Gold.Chemscore.ZeroCoef>
-5.4800

> <Gold.Chemscore.Hbond>
1.0904

> <Gold.Chemscore.Metal>
0.0000

> <Gold.Chemscore.Lipo>
85.4142

> <Gold.Chemscore.Internal_Hbond>
0.0000

> <Gold.Chemscore.DEClash>
0.0795

> <Gold.Chemscore.DEInternal>
2.0863

> <Gold.Chemscore.Rot>
1.6952

> <Gold.Chemscore.Internal.Correction>
   9.000000E+99

> <Gold.Chemscore.Hbonds>
donor molecule, donor type, donor heavy atom, donor atom, acceptor molecule, acceptor atom, score
      L1  H     3    24       P1  7948  0.53
      L1  H    12    37       P1  7948  0.07

> <Gold.Chemscore.Hbond.Weighted>
-3.6418

> <Gold.Chemscore.Metal.Weighted>
-0.0000

> <Gold.Chemscore.Lipo.Weighted>
-9.9935

> <Gold.Chemscore.Internal_Hbond.Weighted>
0.0000

> <Gold.Chemscore.DEClash.Weighted>
0.0795

> <Gold.Chemscore.DEInternal.Weighted>
2.0863

> <Gold.Chemscore.Rot.Weighted>
4.3397

> <Gold.Chemscore.Internal.Correction.Weighted>
   9.000000E+99

> <Gold.Protein.RotatedTorsions>
[ 6907 6896 6895 6894 ] final  -38.12 input  -60.11 | X-H torsion
[ 7974 7965 7964 7962 ] final   77.31 input  175.53 | X-H torsion
[ 8008 7997 7996 7995 ] final  -41.98 input   59.86 | X-H torsion
[ 10167 10162 10161 10158 ] final  127.90 input  -65.29 | X-H torsion
[ 10718 10713 10712 10709 ] final   26.23 input   66.30 | X-H torsion
[ 10763 10752 10751 10750 ] final  -36.26 input  -60.55 | X-H torsion
[ 11005 11000 10999 10996 ] final -168.14 input  -57.11 | X-H torsion

> <Gold.Protein.ActiveResidues>
 VAL166  LYS551  ARG553  GLY616  TRP617  ASP618  TYR619  PRO620  LYS621  CYS622 
 ASP623  PHE694  ASN695  SER759  ASP760  ASP761  ALA762  ILE779  LEU786  VAL792 
 PHE793  MET794  SER795  GLU796  ALA797  LYS798  CYS799  TRP800  GLU811  SER814 

> <Gold.Protein.RotatedAtoms>
  151.0063  134.9362  159.7981 H   0  0  0  0  0  0  0  0  0  0  0  0  # atno 6907 bound_to 6896
  152.5291  134.3087  159.9115 H   0  0  0  0  0  0  0  0  0  0  0  0  # atno 6908 bound_to 6896
  151.3093  133.4046  159.2680 H   0  0  0  0  0  0  0  0  0  0  0  0  # atno 6909 bound_to 6896
  145.6916  139.2554  143.1756 H   0  0  0  0  0  0  0  0  0  0  0  0  # atno 7974 bound_to 7965
  154.4001  140.1485  156.3280 H   0  0  0  0  0  0  0  0  0  0  0  0  # atno 8008 bound_to 7997
  155.8469  140.3459  155.5647 H   0  0  0  0  0  0  0  0  0  0  0  0  # atno 8009 bound_to 7997
  155.8026  140.0872  157.1939 H   0  0  0  0  0  0  0  0  0  0  0  0  # atno 8010 bound_to 7997
  139.5554  144.6845  151.4198 H   0  0  0  0  0  0  0  0  0  0  0  0  # atno 10167 bound_to 10162
  157.2040  130.6903  149.6200 H   0  0  0  0  0  0  0  0  0  0  0  0  # atno 10718 bound_to 10713
  153.8768  135.6825  153.4770 H   0  0  0  0  0  0  0  0  0  0  0  0  # atno 10763 bound_to 10752
  153.1256  135.4720  154.9264 H   0  0  0  0  0  0  0  0  0  0  0  0  # atno 10764 bound_to 10752
  154.7688  135.3232  154.8183 H   0  0  0  0  0  0  0  0  0  0  0  0  # atno 10765 bound_to 10752
  140.5453  134.5482  157.5109 H   0  0  0  0  0  0  0  0  0  0  0  0  # atno 11005 bound_to 11000
  146.0876  140.7692  142.9611 LP  0  0  0  0  0  0  0  0  0  0  0  0  # atno 17320 bound_to 7965
  144.6995  140.3587  143.7168 LP  0  0  0  0  0  0  0  0  0  0  0  0  # atno 17321 bound_to 7965
  140.6826  143.8047  150.7142 LP  0  0  0  0  0  0  0  0  0  0  0  0  # atno 17342 bound_to 10162
  140.1505  143.4361  152.2134 LP  0  0  0  0  0  0  0  0  0  0  0  0  # atno 17343 bound_to 10162
  155.9697  130.4573  150.5957 LP  0  0  0  0  0  0  0  0  0  0  0  0  # atno 17370 bound_to 10713
  157.3738  131.0770  151.1535 LP  0  0  0  0  0  0  0  0  0  0  0  0  # atno 17371 bound_to 10713
  139.9483  134.7663  156.0509 LP  0  0  0  0  0  0  0  0  0  0  0  0  # atno 17394 bound_to 11000
  141.1203  133.6615  156.3198 LP  0  0  0  0  0  0  0  0  0  0  0  0  # atno 17395 bound_to 11000

$$$$
