AV-unprocessed.smi:158|AV-procd|sdf|1327|dock8
  -GOLD-   2262019 23D 1   1.00000     0.00000
 Structure written by MMmdl.
 31 33  0  0  0  0  0  0  0  0  1 V2000
  153.2634  143.5845  160.8716 N   0  0  0  0  0  0  0  0  0  0  0  0
  153.4299  142.4894  160.1163 C   0  0  0  0  0  0  0  0  0  0  0  0
  154.4257  141.6318  160.4376 N   0  0  0  0  0  0  0  0  0  0  0  0
  154.6222  140.5253  159.7114 C   0  0  0  0  0  0  0  0  0  0  0  0
  155.9187  139.5008  160.2037 Cl  0  0  0  0  0  0  0  0  0  0  0  0
  153.9261  140.1234  158.6441 N   0  0  0  0  0  0  0  0  0  0  0  0
  152.9236  140.9865  158.3077 C   0  0  0  0  0  0  0  0  0  0  0  0
  152.6120  142.1888  158.9996 C   0  0  0  0  0  0  0  0  0  0  0  0
  151.5312  142.8170  158.3987 N   0  0  0  0  0  0  0  0  0  0  0  0
  151.2252  142.0271  157.4054 C   0  0  0  0  0  0  0  0  0  0  0  0
  152.0145  140.9052  157.2671 N   0  0  0  0  0  0  0  0  0  0  0  0
  151.8762  139.8411  156.2136 C   0  0  2  0  0  0  0  0  0  0  0  0
  151.1324  140.3463  155.1420 O   0  0  0  0  0  0  0  0  0  0  0  0
  149.9474  139.5723  154.9431 C   0  0  2  0  0  0  0  0  0  0  0  0
  148.7970  140.4221  154.3734 C   0  0  0  0  0  0  0  0  0  0  0  0
  149.1622  140.9601  153.1200 O   0  0  0  0  0  0  0  0  0  0  0  0
  149.6930  138.8542  156.2771 C   0  0  2  0  0  0  0  0  0  0  0  0
  148.9630  139.6597  157.1846 O   0  0  0  0  0  0  0  0  0  0  0  0
  151.1168  138.6148  156.7442 C   0  0  2  0  0  0  0  0  0  0  0  0
  151.2448  138.4408  158.0620 F   0  0  0  0  0  0  0  0  0  0  0  0
  152.9034  139.6234  155.9193 H   0  0  0  0  0  0  0  0  0  0  0  0
  150.2161  138.8165  154.2027 H   0  0  0  0  0  0  0  0  0  0  0  0
  149.1497  137.9192  156.1363 H   0  0  0  0  0  0  0  0  0  0  0  0
  151.5242  137.7287  156.2561 H   0  0  0  0  0  0  0  0  0  0  0  0
  152.5263  144.2390  160.6515 H   0  0  0  0  0  0  0  0  0  0  0  0
  153.8753  143.7541  161.6568 H   0  0  0  0  0  0  0  0  0  0  0  0
  150.4091  142.2459  156.7321 H   0  0  0  0  0  0  0  0  0  0  0  0
  147.8761  139.8487  154.2716 H   0  0  0  0  0  0  0  0  0  0  0  0
  148.5801  141.2500  155.0486 H   0  0  0  0  0  0  0  0  0  0  0  0
  149.3924  140.2472  152.5435 H   0  0  0  0  0  0  0  0  0  0  0  0
  149.2871  139.4967  158.0572 H   0  0  0  0  0  0  0  0  0  0  0  0
  1  2  1  0  0  0  0
  1 25  1  0  0  0  0
  1 26  1  0  0  0  0
  2  8  1  0  0  0  0
  2  3  2  0  0  0  0
  3  4  1  0  0  0  0
  4  5  1  0  0  0  0
  4  6  2  0  0  0  0
  6  7  1  0  0  0  0
  7 11  1  0  0  0  0
  7  8  2  0  0  0  0
  8  9  1  0  0  0  0
  9 10  2  0  0  0  0
 10 11  1  0  0  0  0
 10 27  1  0  0  0  0
 11 12  1  0  0  0  0
 12 21  1  0  0  0  0
 12 19  1  0  0  0  0
 12 13  1  0  0  0  0
 13 14  1  0  0  0  0
 14 22  1  0  0  0  0
 14 15  1  0  0  0  0
 14 17  1  0  0  0  0
 15 16  1  0  0  0  0
 15 28  1  0  0  0  0
 15 29  1  0  0  0  0
 16 30  1  0  0  0  0
 17 23  1  0  0  0  0
 17 18  1  0  0  0  0
 17 19  1  0  0  0  0
 18 31  1  0  0  0  0
 19 24  1  0  0  0  0
 19 20  1  0  0  0  0
M  END
> <s_m_source_file>
AV-unprocessed.smi

> <i_m_source_file_index>
158

> <i_lp_mmshare_version>
43012

> <i_f3d_flags>
0

> <s_epik_input>
Q2xjKG4xKW5jKFtOSDJdKWMoYzEyKW5bY0hdbjJbQ0BASF0zT1tDQEhdKFtDSDJdW09IXSlbQ0BASF0oW09IXSlbQ0BASF0zRg==

> <s_epik_cmdline>
J2VwaWtfcHl0aG9uJywgJy1waCcsICc3LjAnLCAnLXRuJywgJzgnLCAnLW1hJywgJzIwMCcsICctbWV0YWxfYmluZGluZycsICctaW1hZScsICc8aW5maWxlLm1hZT4nLCAnLW9tYWUnLCAnPG91dGZpbGUubWFlPic=

> <r_lp_tautomer_probability>
1

> <r_epik_Ionization_Penalty>
6.51543e-05

> <r_epik_Ionization_Penalty_Charging>
0

> <r_epik_Ionization_Penalty_Neutral>
6.51543e-05

> <r_epik_State_Penalty>
-0

> <r_epik_Charging_Adjusted_Penalty>
0

> <i_epik_Tot_Q>
0

> <i_epik_Tot_abs_Q>
0

> <r_epik_Metal_State_Penalty>
-0

> <b_epik_Metal_Only>
0

> <s_epik_Chemistry_Notes>
This compound contains an acetal/aminal-like group ( X-CH(R)-Y where X, Y are N, S, or O) that may be acid/base labile, releasing an aldehyde.

> <s_lp_Force_Field>
OPLS_2005

> <r_lp_Energy>
41.2985

> <b_lp_Chiralities_Consistent>
1

> <s_lp_Variant>
AV-unprocessed.smi:158-5

> <Gold.Version>
5.8.1

> <Gold.Id.Protein>
6NUR|6NUR_protein|mol2

> <Gold.PLP.Fitness>
42.3352

> <Gold.PLP.PLP>
-31.8191

> <Gold.PLP.part.hbond>
-4.3132

> <Gold.PLP.part.metal>
0.0000

> <Gold.PLP.part.buried>
-6.4829

> <Gold.PLP.part.nonpolar>
-21.4190

> <Gold.PLP.part.repulsive>
0.1193

> <Gold.PLP.ligand.clash>
0.0000

> <Gold.PLP.ligand.torsion>
0.5608

> <Gold.PLP.Chemscore.Hbond>
3.6143

> <Gold.PLP.Chemscore.CHOScore>
0.0000

> <Gold.PLP.Chemscore.Metal>
0.0000

> <Gold.Chemscore.Hbonds>
donor molecule, donor type, donor heavy atom, donor atom, acceptor molecule, acceptor atom, score
      L1  H    16    30       P1  7957  0.54
      P1  H  7989  7998       L1    13  1.00
      P1  H  7997  8008       L1     6  0.98
      P1  H  8011  8017       L1    16  1.00

> <Gold.PLP.Chemscore.Internal.Correction>
0.7947

> <Gold.Rescore>
     Score         DG    S(hbond)    S(metal)    S(lipo)     H(rot)  DE(clash)    DE(int)     intcor
      8.42      -9.28       2.33        0.00      34.18       3.12       0.15       0.70       ----

> <Gold.Chemscore.Fitness>
8.4246

> <Gold.Chemscore.DG>
-9.2793

> <Gold.Chemscore.ZeroCoef>
-5.4800

> <Gold.Chemscore.Hbond>
2.3338

> <Gold.Chemscore.Metal>
0.0000

> <Gold.Chemscore.Lipo>
34.1816

> <Gold.Chemscore.Internal_Hbond>
0.0000

> <Gold.Chemscore.DEClash>
0.1509

> <Gold.Chemscore.DEInternal>
0.7038

> <Gold.Chemscore.Rot>
3.1230

> <Gold.Chemscore.Internal.Correction>
   9.000000E+99

> <Gold.Chemscore.Hbonds>
donor molecule, donor type, donor heavy atom, donor atom, acceptor molecule, acceptor atom, score
      L1  H    16    30       P1  7957  0.54
      P1  H  7989  7998       L1    13  0.54
      P1  H  7997  8008       L1     6  0.29
      P1  H  8011  8017       L1    16  0.50

> <Gold.Chemscore.Hbond.Weighted>
-7.7950

> <Gold.Chemscore.Metal.Weighted>
-0.0000

> <Gold.Chemscore.Lipo.Weighted>
-3.9992

> <Gold.Chemscore.Internal_Hbond.Weighted>
0.0000

> <Gold.Chemscore.DEClash.Weighted>
0.1509

> <Gold.Chemscore.DEInternal.Weighted>
0.7038

> <Gold.Chemscore.Rot.Weighted>
7.9950

> <Gold.Chemscore.Internal.Correction.Weighted>
   9.000000E+99

> <Gold.Protein.RotatedTorsions>
[ 6907 6896 6895 6894 ] final   -1.17 input  -60.11 | X-H torsion
[ 7974 7965 7964 7962 ] final  101.91 input  175.53 | X-H torsion
[ 8008 7997 7996 7995 ] final -103.09 input   59.86 | X-H torsion
[ 10167 10162 10161 10158 ] final  -56.70 input  -65.29 | X-H torsion
[ 10718 10713 10712 10709 ] final  -86.51 input   66.30 | X-H torsion
[ 10763 10752 10751 10750 ] final   52.42 input  -60.55 | X-H torsion
[ 11005 11000 10999 10996 ] final   75.87 input  -57.11 | X-H torsion

> <Gold.Protein.ActiveResidues>
 VAL166  LYS551  ARG553  GLY616  TRP617  ASP618  TYR619  PRO620  LYS621  CYS622 
 ASP623  PHE694  ASN695  SER759  ASP760  ASP761  ALA762  ILE779  LEU786  VAL792 
 PHE793  MET794  SER795  GLU796  ALA797  LYS798  CYS799  TRP800  GLU811  SER814 

> <Gold.Protein.RotatedAtoms>
  151.5504  135.1067  159.9948 H   0  0  0  0  0  0  0  0  0  0  0  0  # atno 6907 bound_to 6896
  152.4494  133.7595  159.6749 H   0  0  0  0  0  0  0  0  0  0  0  0  # atno 6908 bound_to 6896
  150.8418  133.7857  159.3082 H   0  0  0  0  0  0  0  0  0  0  0  0  # atno 6909 bound_to 6896
  145.3661  139.2407  143.3480 H   0  0  0  0  0  0  0  0  0  0  0  0  # atno 7974 bound_to 7965
  154.8659  140.0425  157.1694 H   0  0  0  0  0  0  0  0  0  0  0  0  # atno 8008 bound_to 7997
  154.8790  140.2970  155.5415 H   0  0  0  0  0  0  0  0  0  0  0  0  # atno 8009 bound_to 7997
  156.2999  140.2415  156.3790 H   0  0  0  0  0  0  0  0  0  0  0  0  # atno 8010 bound_to 7997
  140.6301  143.2456  151.5262 H   0  0  0  0  0  0  0  0  0  0  0  0  # atno 10167 bound_to 10162
  155.9989  130.4767  150.4725 H   0  0  0  0  0  0  0  0  0  0  0  0  # atno 10718 bound_to 10713
  152.9789  135.5813  154.4575 H   0  0  0  0  0  0  0  0  0  0  0  0  # atno 10763 bound_to 10752
  154.4155  135.2770  155.2011 H   0  0  0  0  0  0  0  0  0  0  0  0  # atno 10764 bound_to 10752
  154.3782  135.6152  153.5830 H   0  0  0  0  0  0  0  0  0  0  0  0  # atno 10765 bound_to 10752
  139.9324  134.7554  156.1325 H   0  0  0  0  0  0  0  0  0  0  0  0  # atno 11005 bound_to 11000
  146.2906  140.4304  142.8741 LP  0  0  0  0  0  0  0  0  0  0  0  0  # atno 17320 bound_to 7965
  144.8610  140.7140  143.6107 LP  0  0  0  0  0  0  0  0  0  0  0  0  # atno 17321 bound_to 7965
  139.5516  144.2380  152.1541 LP  0  0  0  0  0  0  0  0  0  0  0  0  # atno 17342 bound_to 10162
  140.1621  144.5015  150.6626 LP  0  0  0  0  0  0  0  0  0  0  0  0  # atno 17343 bound_to 10162
  157.2739  131.0593  151.2242 LP  0  0  0  0  0  0  0  0  0  0  0  0  # atno 17370 bound_to 10713
  157.3313  130.6986  149.6326 LP  0  0  0  0  0  0  0  0  0  0  0  0  # atno 17371 bound_to 10713
  141.0919  133.6711  156.2560 LP  0  0  0  0  0  0  0  0  0  0  0  0  # atno 17394 bound_to 11000
  140.6167  134.5403  157.5541 LP  0  0  0  0  0  0  0  0  0  0  0  0  # atno 17395 bound_to 11000

$$$$
