AV-unprocessed.smi:1030|AV-procd|sdf|4478|dock3
  -GOLD-   22720 2453D 1   1.00000     0.00000
 Structure written by MMmdl.
 29 30  0  0  0  0  0  0  0  0  1 V2000
  153.2843  138.9033  160.5843 N   0  0  0  0  0  0  0  0  0  0  0  0
  152.4796  139.0714  159.0719 S   0  0  0  0  0  0  0  0  0  0  0  0
  153.4115  138.6031  158.0344 O   0  0  0  0  0  0  0  0  0  0  0  0
  151.1456  138.4650  159.2030 O   0  0  0  0  0  0  0  0  0  0  0  0
  152.3039  140.8549  158.9162 C   0  0  0  0  0  0  0  0  0  0  0  0
  152.8169  141.6871  159.9330 C   0  0  0  0  0  0  0  0  0  0  0  0
  152.6737  143.0812  159.8039 C   0  0  0  0  0  0  0  0  0  0  0  0
  152.0217  143.5843  158.6620 C   0  0  0  0  0  0  0  0  0  0  0  0
  151.5262  142.7965  157.6842 N   0  0  0  0  0  0  0  0  0  0  0  0
  151.6612  141.4526  157.8019 C   0  0  0  0  0  0  0  0  0  0  0  0
  151.1395  140.6616  156.7673 N   0  0  0  0  0  0  0  0  0  0  0  0
  152.1526  139.9536  155.9964 C   0  0  0  0  0  0  0  0  0  0  0  0
  151.4746  138.9843  155.0130 C   0  0  0  0  0  0  0  0  0  0  0  0
  150.5608  139.7020  154.1873 O   0  0  0  0  0  0  0  0  0  0  0  0
  149.5340  140.3352  154.9464 C   0  0  0  0  0  0  0  0  0  0  0  0
  150.1626  141.3404  155.9264 C   0  0  0  0  0  0  0  0  0  0  0  0
  154.2387  139.2590  160.5368 H   0  0  0  0  0  0  0  0  0  0  0  0
  153.2675  137.9354  160.9047 H   0  0  0  0  0  0  0  0  0  0  0  0
  153.3131  141.2750  160.7988 H   0  0  0  0  0  0  0  0  0  0  0  0
  153.0550  143.7490  160.5620 H   0  0  0  0  0  0  0  0  0  0  0  0
  151.8945  144.6487  158.5301 H   0  0  0  0  0  0  0  0  0  0  0  0
  152.7665  140.6698  155.4484 H   0  0  0  0  0  0  0  0  0  0  0  0
  152.8149  139.4056  156.6676 H   0  0  0  0  0  0  0  0  0  0  0  0
  152.2221  138.5031  154.3825 H   0  0  0  0  0  0  0  0  0  0  0  0
  150.9504  138.1916  155.5494 H   0  0  0  0  0  0  0  0  0  0  0  0
  148.8528  140.8474  154.2670 H   0  0  0  0  0  0  0  0  0  0  0  0
  148.9486  139.5856  155.4816 H   0  0  0  0  0  0  0  0  0  0  0  0
  149.3894  141.7927  156.5485 H   0  0  0  0  0  0  0  0  0  0  0  0
  150.6467  142.1460  155.3728 H   0  0  0  0  0  0  0  0  0  0  0  0
  1  2  1  0  0  0  0
  1 17  1  0  0  0  0
  1 18  1  0  0  0  0
  2  3  2  0  0  0  0
  2  4  2  0  0  0  0
  2  5  1  0  0  0  0
  5 10  1  0  0  0  0
  5  6  2  0  0  0  0
  6  7  1  0  0  0  0
  6 19  1  0  0  0  0
  7  8  2  0  0  0  0
  7 20  1  0  0  0  0
  8  9  1  0  0  0  0
  8 21  1  0  0  0  0
  9 10  2  0  0  0  0
 10 11  1  0  0  0  0
 11 16  1  0  0  0  0
 11 12  1  0  0  0  0
 12 13  1  0  0  0  0
 12 22  1  0  0  0  0
 12 23  1  0  0  0  0
 13 14  1  0  0  0  0
 13 24  1  0  0  0  0
 13 25  1  0  0  0  0
 14 15  1  0  0  0  0
 15 16  1  0  0  0  0
 15 26  1  0  0  0  0
 15 27  1  0  0  0  0
 16 28  1  0  0  0  0
 16 29  1  0  0  0  0
M  END
> <s_m_source_file>
AV-unprocessed.smi

> <i_m_source_file_index>
1030

> <i_lp_mmshare_version>
43012

> <i_f3d_flags>
0

> <s_epik_input>
W05IMl1TKD1PKSg9TyljMVtjSF1bY0hdW2NIXW5jMU4yW0NIMl1bQ0gyXU9bQ0gyXVtDSDJdMg==

> <s_epik_cmdline>
J2VwaWtfcHl0aG9uJywgJy1waCcsICc3LjAnLCAnLXRuJywgJzgnLCAnLW1hJywgJzIwMCcsICctbWV0YWxfYmluZGluZycsICctaW1hZScsICc8aW5maWxlLm1hZT4nLCAnLW9tYWUnLCAnPG91dGZpbGUubWFlPic=

> <r_lp_tautomer_probability>
1

> <r_epik_Ionization_Penalty>
0.00223263

> <r_epik_Ionization_Penalty_Charging>
0

> <r_epik_Ionization_Penalty_Neutral>
0.00223263

> <r_epik_State_Penalty>
-0

> <r_epik_Charging_Adjusted_Penalty>
0

> <i_epik_Tot_Q>
0

> <i_epik_Tot_abs_Q>
0

> <r_epik_Metal_State_Penalty>
0.346078

> <b_epik_Metal_Only>
0

> <s_lp_Force_Field>
OPLS_2005

> <r_lp_Energy>
28.1978

> <b_lp_Chiralities_Consistent>
1

> <s_lp_Variant>
AV-unprocessed.smi:1030-1

> <Gold.Version>
5.8.1

> <Gold.Id.Protein>
6NUR|6NUR_protein|mol2

> <Gold.PLP.Fitness>
34.3360

> <Gold.PLP.PLP>
-29.3414

> <Gold.PLP.part.hbond>
-2.0000

> <Gold.PLP.part.metal>
0.0000

> <Gold.PLP.part.buried>
-2.5167

> <Gold.PLP.part.nonpolar>
-24.1637

> <Gold.PLP.part.repulsive>
0.2205

> <Gold.PLP.ligand.clash>
0.0027

> <Gold.PLP.ligand.torsion>
1.5605

> <Gold.PLP.Chemscore.Hbond>
2.0000

> <Gold.PLP.Chemscore.CHOScore>
0.0000

> <Gold.PLP.Chemscore.Metal>
0.0000

> <Gold.Chemscore.Hbonds>
donor molecule, donor type, donor heavy atom, donor atom, acceptor molecule, acceptor atom, score
      P1  H  7989  7998       L1    14  1.00
      P1  H  7997  8010       L1     3  0.81

> <Gold.PLP.Chemscore.Internal.Correction>
2.1183

> <Gold.Rescore>
     Score         DG    S(hbond)    S(metal)    S(lipo)     H(rot)  DE(clash)    DE(int)     intcor
     12.34     -16.53       1.69        0.00      68.15       1.00       1.12       3.07       ----

> <Gold.Chemscore.Fitness>
12.3365

> <Gold.Chemscore.DG>
-16.5320

> <Gold.Chemscore.ZeroCoef>
-5.4800

> <Gold.Chemscore.Hbond>
1.6881

> <Gold.Chemscore.Metal>
0.0000

> <Gold.Chemscore.Lipo>
68.1522

> <Gold.Chemscore.Internal_Hbond>
0.0000

> <Gold.Chemscore.DEClash>
1.1210

> <Gold.Chemscore.DEInternal>
3.0745

> <Gold.Chemscore.Rot>
1.0000

> <Gold.Chemscore.Internal.Correction>
   9.000000E+99

> <Gold.Chemscore.Hbonds>
donor molecule, donor type, donor heavy atom, donor atom, acceptor molecule, acceptor atom, score
      P1  H  7989  7998       L1    14  0.23
      P1  H  7997  8010       L1     3  0.78

> <Gold.Chemscore.Hbond.Weighted>
-5.6382

> <Gold.Chemscore.Metal.Weighted>
-0.0000

> <Gold.Chemscore.Lipo.Weighted>
-7.9738

> <Gold.Chemscore.Internal_Hbond.Weighted>
0.0000

> <Gold.Chemscore.DEClash.Weighted>
1.1210

> <Gold.Chemscore.DEInternal.Weighted>
3.0745

> <Gold.Chemscore.Rot.Weighted>
2.5600

> <Gold.Chemscore.Internal.Correction.Weighted>
   9.000000E+99

> <Gold.Protein.RotatedTorsions>
[ 6907 6896 6895 6894 ] final -127.18 input  -60.11 | X-H torsion
[ 7974 7965 7964 7962 ] final   -3.94 input  175.53 | X-H torsion
[ 8008 7997 7996 7995 ] final   29.30 input   59.86 | X-H torsion
[ 10167 10162 10161 10158 ] final -151.75 input  -65.29 | X-H torsion
[ 10718 10713 10712 10709 ] final  -69.41 input   66.30 | X-H torsion
[ 10763 10752 10751 10750 ] final -109.50 input  -60.55 | X-H torsion
[ 11005 11000 10999 10996 ] final  151.27 input  -57.11 | X-H torsion

> <Gold.Protein.ActiveResidues>
 VAL166  LYS551  ARG553  GLY616  TRP617  ASP618  TYR619  PRO620  LYS621  CYS622 
 ASP623  PHE694  ASN695  SER759  ASP760  ASP761  ALA762  ILE779  LEU786  VAL792 
 PHE793  MET794  SER795  GLU796  ALA797  LYS798  CYS799  TRP800  GLU811  SER814 

> <Gold.Protein.RotatedAtoms>
  150.9046  133.7075  159.2870 H   0  0  0  0  0  0  0  0  0  0  0  0  # atno 6907 bound_to 6896
  151.4582  135.1034  159.9727 H   0  0  0  0  0  0  0  0  0  0  0  0  # atno 6908 bound_to 6896
  152.4896  133.8415  159.7210 H   0  0  0  0  0  0  0  0  0  0  0  0  # atno 6909 bound_to 6896
  146.2381  140.1796  142.8332 H   0  0  0  0  0  0  0  0  0  0  0  0  # atno 7974 bound_to 7965
  155.0722  140.3201  155.4627 H   0  0  0  0  0  0  0  0  0  0  0  0  # atno 8008 bound_to 7997
  156.2788  140.2110  156.5795 H   0  0  0  0  0  0  0  0  0  0  0  0  # atno 8009 bound_to 7997
  154.7045  140.0504  157.0478 H   0  0  0  0  0  0  0  0  0  0  0  0  # atno 8010 bound_to 7997
  139.7241  143.8911  152.2513 H   0  0  0  0  0  0  0  0  0  0  0  0  # atno 10167 bound_to 10162
  156.0456  130.4312  150.2144 H   0  0  0  0  0  0  0  0  0  0  0  0  # atno 10718 bound_to 10713
  154.8196  135.4599  154.0742 H   0  0  0  0  0  0  0  0  0  0  0  0  # atno 10763 bound_to 10752
  153.2106  135.6881  153.8125 H   0  0  0  0  0  0  0  0  0  0  0  0  # atno 10764 bound_to 10752
  153.7578  135.3288  155.3309 H   0  0  0  0  0  0  0  0  0  0  0  0  # atno 10765 bound_to 10752
  140.1204  134.8867  157.2063 H   0  0  0  0  0  0  0  0  0  0  0  0  # atno 11005 bound_to 11000
  144.9945  140.8577  143.5319 LP  0  0  0  0  0  0  0  0  0  0  0  0  # atno 17320 bound_to 7965
  145.1807  139.2353  143.5294 LP  0  0  0  0  0  0  0  0  0  0  0  0  # atno 17321 bound_to 7965
  139.8816  144.7015  150.8872 LP  0  0  0  0  0  0  0  0  0  0  0  0  # atno 17342 bound_to 10162
  140.7759  143.3657  151.1744 LP  0  0  0  0  0  0  0  0  0  0  0  0  # atno 17343 bound_to 10162
  157.0234  130.9986  151.3333 LP  0  0  0  0  0  0  0  0  0  0  0  0  # atno 17370 bound_to 10713
  157.5328  130.8069  149.7937 LP  0  0  0  0  0  0  0  0  0  0  0  0  # atno 17371 bound_to 10713
  140.2973  134.3172  155.7299 LP  0  0  0  0  0  0  0  0  0  0  0  0  # atno 17394 bound_to 11000
  141.2150  133.7570  156.9590 LP  0  0  0  0  0  0  0  0  0  0  0  0  # atno 17395 bound_to 11000

$$$$
