AV-unprocessed.smi:2987|AV-procd|sdf|11385|dock2
  -GOLD-   2272016313D 1   1.00000     0.00000
 Structure written by MMmdl.
 25 26  0  0  0  0  0  0  0  0  1 V2000
  153.5542  142.2779  163.4158 C   0  0  0  0  0  0  0  0  0  0  0  0
  153.0740  142.9052  162.1458 C   0  0  0  0  0  0  0  0  0  0  0  0
  152.4997  144.1080  162.1170 N   0  0  0  0  0  0  0  0  0  0  0  0
  152.2210  144.2779  160.7741 C   0  0  0  0  0  0  0  0  0  0  0  0
  151.6077  145.3528  160.0915 C   0  0  0  0  0  0  0  0  0  0  0  0
  151.4242  145.2992  158.6940 C   0  0  0  0  0  0  0  0  0  0  0  0
  151.8495  144.1726  157.9605 C   0  0  0  0  0  0  0  0  0  0  0  0
  152.4633  143.0909  158.6207 C   0  0  0  0  0  0  0  0  0  0  0  0
  152.6450  143.1500  160.0153 C   0  0  0  0  0  0  0  0  0  0  0  0
  153.1974  142.2802  160.9495 N   0  0  0  0  0  0  0  0  0  0  0  0
  153.7724  140.9736  160.6753 C   0  0  0  0  0  0  0  0  0  0  0  0
  155.1002  141.0926  159.9149 C   0  0  0  0  0  0  0  0  0  0  0  0
  155.3489  139.9019  159.2006 O   0  0  0  0  0  0  0  0  0  0  0  0
  153.2724  142.8883  164.2745 H   0  0  0  0  0  0  0  0  0  0  0  0
  154.6404  142.1848  163.4016 H   0  0  0  0  0  0  0  0  0  0  0  0
  153.1157  141.2876  163.5405 H   0  0  0  0  0  0  0  0  0  0  0  0
  151.2770  146.2195  160.6443 H   0  0  0  0  0  0  0  0  0  0  0  0
  150.9549  146.1268  158.1824 H   0  0  0  0  0  0  0  0  0  0  0  0
  151.7045  144.1395  156.8907 H   0  0  0  0  0  0  0  0  0  0  0  0
  152.7901  142.2265  158.0621 H   0  0  0  0  0  0  0  0  0  0  0  0
  153.9254  140.4583  161.6245 H   0  0  0  0  0  0  0  0  0  0  0  0
  153.0565  140.3741  160.1125 H   0  0  0  0  0  0  0  0  0  0  0  0
  155.0735  141.9283  159.2150 H   0  0  0  0  0  0  0  0  0  0  0  0
  155.9251  141.2711  160.6055 H   0  0  0  0  0  0  0  0  0  0  0  0
  155.5833  139.2251  159.8173 H   0  0  0  0  0  0  0  0  0  0  0  0
  1  2  1  0  0  0  0
  1 14  1  0  0  0  0
  1 15  1  0  0  0  0
  1 16  1  0  0  0  0
  2 10  1  0  0  0  0
  2  3  2  0  0  0  0
  3  4  1  0  0  0  0
  4  9  2  0  0  0  0
  4  5  1  0  0  0  0
  5  6  2  0  0  0  0
  5 17  1  0  0  0  0
  6  7  1  0  0  0  0
  6 18  1  0  0  0  0
  7  8  2  0  0  0  0
  7 19  1  0  0  0  0
  8  9  1  0  0  0  0
  8 20  1  0  0  0  0
  9 10  1  0  0  0  0
 10 11  1  0  0  0  0
 11 12  1  0  0  0  0
 11 21  1  0  0  0  0
 11 22  1  0  0  0  0
 12 13  1  0  0  0  0
 12 23  1  0  0  0  0
 12 24  1  0  0  0  0
 13 25  1  0  0  0  0
M  END
> <s_m_source_file>
AV-unprocessed.smi

> <i_m_source_file_index>
2987

> <i_lp_mmshare_version>
43012

> <i_f3d_flags>
0

> <s_epik_input>
W09IXVtDSDJdW0NIMl1uKGMobjEpW0NIM10pYyhjMTIpW2NIXVtjSF1bY0hdW2NIXTI=

> <s_epik_cmdline>
J2VwaWtfcHl0aG9uJywgJy1waCcsICc3LjAnLCAnLXRuJywgJzgnLCAnLW1hJywgJzIwMCcsICctbWV0YWxfYmluZGluZycsICctaW1hZScsICc8aW5maWxlLm1hZT4nLCAnLW9tYWUnLCAnPG91dGZpbGUubWFlPic=

> <r_epik_Ionization_Penalty>
0.129663

> <r_epik_Ionization_Penalty_Charging>
0

> <r_epik_Ionization_Penalty_Neutral>
0.129663

> <r_epik_State_Penalty>
0.119073

> <r_epik_Charging_Adjusted_Penalty>
0.119073

> <i_epik_Tot_Q>
0

> <i_epik_Tot_abs_Q>
0

> <r_epik_Metal_State_Penalty>
0.000131867

> <b_epik_Metal_Only>
0

> <s_lp_Force_Field>
OPLS_2005

> <r_lp_Energy>
7.88102

> <b_lp_Chiralities_Consistent>
1

> <s_lp_Variant>
AV-unprocessed.smi:2987-1

> <Gold.Version>
5.8.1

> <Gold.Id.Protein>
6NUR|6NUR_protein|mol2

> <Gold.PLP.Fitness>
44.3211

> <Gold.PLP.PLP>
-41.7608

> <Gold.PLP.part.hbond>
-1.0000

> <Gold.PLP.part.metal>
0.0000

> <Gold.PLP.part.buried>
-3.0042

> <Gold.PLP.part.nonpolar>
-35.5618

> <Gold.PLP.part.repulsive>
0.1792

> <Gold.PLP.ligand.clash>
0.0000

> <Gold.PLP.ligand.torsion>
0.2200

> <Gold.PLP.Chemscore.Hbond>
1.0000

> <Gold.PLP.Chemscore.CHOScore>
0.0000

> <Gold.PLP.Chemscore.Metal>
0.0000

> <Gold.Chemscore.Hbonds>
donor molecule, donor type, donor heavy atom, donor atom, acceptor molecule, acceptor atom, score
      P1  H  7997  8008       L1    13  1.00

> <Gold.PLP.Chemscore.Internal.Correction>
0.0003

> <Gold.Rescore>
     Score         DG    S(hbond)    S(metal)    S(lipo)     H(rot)  DE(clash)    DE(int)     intcor
     15.82     -16.19       0.97        0.00     101.14       1.70       0.05       0.32       ----

> <Gold.Chemscore.Fitness>
15.8213

> <Gold.Chemscore.DG>
-16.1879

> <Gold.Chemscore.ZeroCoef>
-5.4800

> <Gold.Chemscore.Hbond>
0.9679

> <Gold.Chemscore.Metal>
0.0000

> <Gold.Chemscore.Lipo>
101.1382

> <Gold.Chemscore.Internal_Hbond>
0.0000

> <Gold.Chemscore.DEClash>
0.0462

> <Gold.Chemscore.DEInternal>
0.3205

> <Gold.Chemscore.Rot>
1.7023

> <Gold.Chemscore.Internal.Correction>
   9.000000E+99

> <Gold.Chemscore.Hbonds>
donor molecule, donor type, donor heavy atom, donor atom, acceptor molecule, acceptor atom, score
      P1  H  7997  8008       L1    13  0.87

> <Gold.Chemscore.Hbond.Weighted>
-3.2327

> <Gold.Chemscore.Metal.Weighted>
-0.0000

> <Gold.Chemscore.Lipo.Weighted>
-11.8332

> <Gold.Chemscore.Internal_Hbond.Weighted>
0.0000

> <Gold.Chemscore.DEClash.Weighted>
0.0462

> <Gold.Chemscore.DEInternal.Weighted>
0.3205

> <Gold.Chemscore.Rot.Weighted>
4.3579

> <Gold.Chemscore.Internal.Correction.Weighted>
   9.000000E+99

> <Gold.Protein.RotatedTorsions>
[ 6907 6896 6895 6894 ] final   96.49 input  -60.11 | X-H torsion
[ 7974 7965 7964 7962 ] final -166.62 input  175.53 | X-H torsion
[ 8008 7997 7996 7995 ] final -123.97 input   59.86 | X-H torsion
[ 10167 10162 10161 10158 ] final  112.59 input  -65.29 | X-H torsion
[ 10718 10713 10712 10709 ] final  124.63 input   66.30 | X-H torsion
[ 10763 10752 10751 10750 ] final  -31.15 input  -60.55 | X-H torsion
[ 11005 11000 10999 10996 ] final -136.34 input  -57.11 | X-H torsion

> <Gold.Protein.ActiveResidues>
 VAL166  LYS551  ARG553  GLY616  TRP617  ASP618  TYR619  PRO620  LYS621  CYS622 
 ASP623  PHE694  ASN695  SER759  ASP760  ASP761  ALA762  ILE779  LEU786  VAL792 
 PHE793  MET794  SER795  GLU796  ALA797  LYS798  CYS799  TRP800  GLU811  SER814 

> <Gold.Protein.RotatedAtoms>
  152.5434  134.0879  159.8263 H   0  0  0  0  0  0  0  0  0  0  0  0  # atno 6907 bound_to 6896
  151.0972  133.5263  159.2619 H   0  0  0  0  0  0  0  0  0  0  0  0  # atno 6908 bound_to 6896
  151.2032  135.0460  159.8935 H   0  0  0  0  0  0  0  0  0  0  0  0  # atno 6909 bound_to 6896
  144.7241  140.2640  143.6260 H   0  0  0  0  0  0  0  0  0  0  0  0  # atno 7974 bound_to 7965
  155.1892  140.0412  157.2897 H   0  0  0  0  0  0  0  0  0  0  0  0  # atno 8008 bound_to 7997
  154.6150  140.2486  155.7593 H   0  0  0  0  0  0  0  0  0  0  0  0  # atno 8009 bound_to 7997
  156.2401  140.2907  156.0431 H   0  0  0  0  0  0  0  0  0  0  0  0  # atno 8010 bound_to 7997
  139.6524  144.7128  151.2022 H   0  0  0  0  0  0  0  0  0  0  0  0  # atno 10167 bound_to 10162
  157.5569  131.1091  150.8606 H   0  0  0  0  0  0  0  0  0  0  0  0  # atno 10718 bound_to 10713
  153.7927  135.6896  153.4869 H   0  0  0  0  0  0  0  0  0  0  0  0  # atno 10763 bound_to 10752
  153.1739  135.4532  154.9937 H   0  0  0  0  0  0  0  0  0  0  0  0  # atno 10764 bound_to 10752
  154.8038  135.3348  154.7422 H   0  0  0  0  0  0  0  0  0  0  0  0  # atno 10765 bound_to 10752
  140.8814  134.1927  157.4588 H   0  0  0  0  0  0  0  0  0  0  0  0  # atno 11005 bound_to 11000
  145.8108  139.2002  143.1994 LP  0  0  0  0  0  0  0  0  0  0  0  0  # atno 17320 bound_to 7965
  146.0597  140.7983  142.9741 LP  0  0  0  0  0  0  0  0  0  0  0  0  # atno 17321 bound_to 7965
  140.7544  143.6128  150.8589 LP  0  0  0  0  0  0  0  0  0  0  0  0  # atno 17342 bound_to 10162
  139.9777  143.5986  152.2953 LP  0  0  0  0  0  0  0  0  0  0  0  0  # atno 17343 bound_to 10162
  156.9114  130.5282  149.5280 LP  0  0  0  0  0  0  0  0  0  0  0  0  # atno 17370 bound_to 10713
  156.0627  130.5676  150.9225 LP  0  0  0  0  0  0  0  0  0  0  0  0  # atno 17371 bound_to 10713
  139.8720  134.9819  156.5134 LP  0  0  0  0  0  0  0  0  0  0  0  0  # atno 17394 bound_to 11000
  140.8456  133.8171  155.9118 LP  0  0  0  0  0  0  0  0  0  0  0  0  # atno 17395 bound_to 11000

$$$$
