AV-unprocessed.smi:2351|AV-procd|sdf|9376|dock3
  -GOLD-   2272013 03D 1   1.00000     0.00000
 Structure written by MMmdl.
 47 49  0  0  0  0  0  0  0  0  2 V2000
  149.9087  140.2640  155.8316 O   0  0  0  0  0  0  0  0  0  0  0  0
  149.6989  141.4757  155.8689 C   0  0  0  0  0  0  0  0  0  0  0  0
  150.2714  142.3429  156.7214 N   0  0  0  0  0  0  0  0  0  0  0  0
  151.2026  142.0880  157.7660 C   0  0  0  0  0  0  0  0  0  0  0  0
  151.5031  140.8002  158.2725 C   0  0  0  0  0  0  0  0  0  0  0  0
  152.4580  140.6864  159.3030 C   0  0  0  0  0  0  0  0  0  0  0  0
  153.1111  141.7421  159.8329 N   0  0  0  0  0  0  0  0  0  0  0  0
  152.8317  142.9666  159.3389 C   0  0  0  0  0  0  0  0  0  0  0  0
  151.8952  143.1907  158.3097 C   0  0  0  0  0  0  0  0  0  0  0  0
  151.6645  144.4468  157.8565 F   0  0  0  0  0  0  0  0  0  0  0  0
  148.8339  142.0982  155.0544 N   0  0  0  0  0  0  0  0  0  0  0  0
  148.0338  141.4506  154.0147 C   0  0  2  0  0  0  0  0  0  0  0  0
  147.0345  142.4484  153.4048 C   0  0  0  0  0  0  0  0  0  0  0  0
  145.8953  142.7961  154.3812 C   0  0  0  0  0  0  0  0  0  0  0  0
  145.1940  141.5746  154.8548 N   0  3  2  0  0  0  0  0  0  0  0  0
  144.0083  141.8989  155.6890 C   0  0  0  0  0  0  0  0  0  0  0  0
  143.3165  143.2089  155.2625 C   0  0  2  0  0  0  0  0  0  0  0  0
  143.8930  144.4600  155.8967 C   0  0  0  0  0  0  0  0  0  0  0  0
  142.7572  145.4630  155.7159 C   0  0  0  0  0  0  0  0  0  0  0  0
  141.5550  144.6979  155.7253 O   0  0  0  0  0  0  0  0  0  0  0  0
  141.8596  143.3072  155.7140 C   0  0  0  0  0  0  0  0  0  0  0  0
  146.1330  140.6239  155.5074 C   0  0  0  0  0  0  0  0  0  0  0  0
  147.2704  140.2233  154.5520 C   0  0  0  0  0  0  0  0  0  0  0  0
  149.9509  143.2983  156.6629 H   0  0  0  0  0  0  0  0  0  0  0  0
  151.0377  139.9047  157.8916 H   0  0  0  0  0  0  0  0  0  0  0  0
  152.7074  139.7174  159.7097 H   0  0  0  0  0  0  0  0  0  0  0  0
  153.3714  143.7938  159.7761 H   0  0  0  0  0  0  0  0  0  0  0  0
  148.7285  143.0973  155.1540 H   0  0  0  0  0  0  0  0  0  0  0  0
  148.7142  141.1259  153.2252 H   0  0  0  0  0  0  0  0  0  0  0  0
  147.5494  143.3569  153.0895 H   0  0  0  0  0  0  0  0  0  0  0  0
  146.6056  142.0156  152.4999 H   0  0  0  0  0  0  0  0  0  0  0  0
  146.2836  143.3493  155.2376 H   0  0  0  0  0  0  0  0  0  0  0  0
  145.1870  143.4542  153.8765 H   0  0  0  0  0  0  0  0  0  0  0  0
  143.3021  141.0678  155.6594 H   0  0  0  0  0  0  0  0  0  0  0  0
  144.3168  141.9985  156.7308 H   0  0  0  0  0  0  0  0  0  0  0  0
  143.3362  143.3205  154.1781 H   0  0  0  0  0  0  0  0  0  0  0  0
  144.0818  144.2980  156.9590 H   0  0  0  0  0  0  0  0  0  0  0  0
  144.8230  144.7878  155.4314 H   0  0  0  0  0  0  0  0  0  0  0  0
  142.7501  146.2265  156.4941 H   0  0  0  0  0  0  0  0  0  0  0  0
  142.8406  145.9639  154.7506 H   0  0  0  0  0  0  0  0  0  0  0  0
  141.1810  142.7561  155.0623 H   0  0  0  0  0  0  0  0  0  0  0  0
  141.7396  142.9229  156.7282 H   0  0  0  0  0  0  0  0  0  0  0  0
  146.5409  141.0739  156.4136 H   0  0  0  0  0  0  0  0  0  0  0  0
  145.6073  139.7213  155.8159 H   0  0  0  0  0  0  0  0  0  0  0  0
  146.8485  139.6709  153.7113 H   0  0  0  0  0  0  0  0  0  0  0  0
  147.9501  139.5315  155.0504 H   0  0  0  0  0  0  0  0  0  0  0  0
  144.8410  141.1163  154.0268 H   0  0  0  0  0  0  0  0  0  0  0  0
  1  2  2  0  0  0  0
  2  3  1  0  0  0  0
  2 11  1  0  0  0  0
  3  4  1  0  0  0  0
  3 24  1  0  0  0  0
  4  9  1  0  0  0  0
  4  5  2  0  0  0  0
  5  6  1  0  0  0  0
  5 25  1  0  0  0  0
  6  7  2  0  0  0  0
  6 26  1  0  0  0  0
  7  8  1  0  0  0  0
  8  9  2  0  0  0  0
  8 27  1  0  0  0  0
  9 10  1  0  0  0  0
 11 12  1  0  0  0  0
 11 28  1  0  0  0  0
 12 23  1  0  0  0  0
 12 13  1  0  0  0  0
 12 29  1  0  0  0  0
 13 14  1  0  0  0  0
 13 30  1  0  0  0  0
 13 31  1  0  0  0  0
 14 15  1  0  0  0  0
 14 32  1  0  0  0  0
 14 33  1  0  0  0  0
 15 16  1  0  0  0  0
 15 22  1  0  0  0  0
 15 47  1  0  0  0  0
 16 17  1  0  0  0  0
 16 34  1  0  0  0  0
 16 35  1  0  0  0  0
 17 21  1  0  0  0  0
 17 18  1  0  0  0  0
 17 36  1  0  0  0  0
 18 19  1  0  0  0  0
 18 37  1  0  0  0  0
 18 38  1  0  0  0  0
 19 20  1  0  0  0  0
 19 39  1  0  0  0  0
 19 40  1  0  0  0  0
 20 21  1  0  0  0  0
 21 41  1  0  0  0  0
 21 42  1  0  0  0  0
 22 23  1  0  0  0  0
 22 43  1  0  0  0  0
 22 44  1  0  0  0  0
 23 45  1  0  0  0  0
 23 46  1  0  0  0  0
M  CHG  1  15   1
M  END
> <s_m_source_file>
AV-unprocessed.smi

> <i_m_source_file_index>
2351

> <i_lp_mmshare_version>
43012

> <i_f3d_flags>
0

> <s_epik_input>
RmMxW2NIXW5bY0hdW2NIXWMxW05IXUMoPU8pW05IXVtDSF0yW0NIMl1bQ0gyXU4oW0NIMl1bQ0gyXTIpW0NIMl1bQ0BASF0zW0NIMl1bQ0gyXU9bQ0gyXTM=

> <s_epik_cmdline>
J2VwaWtfcHl0aG9uJywgJy1waCcsICc3LjAnLCAnLXRuJywgJzgnLCAnLW1hJywgJzIwMCcsICctbWV0YWxfYmluZGluZycsICctaW1hZScsICc8aW5maWxlLm1hZT4nLCAnLW9tYWUnLCAnPG91dGZpbGUubWFlPic=

> <r_epik_Ionization_Penalty>
0.0102464

> <r_epik_Ionization_Penalty_Charging>
0.00747775

> <r_epik_Ionization_Penalty_Neutral>
0.00276864

> <r_epik_State_Penalty>
0.00558817

> <r_epik_Charging_Adjusted_Penalty>
0.0130659

> <i_epik_Tot_Q>
1

> <i_epik_Tot_abs_Q>
1

> <r_epik_Metal_State_Penalty>
-0

> <b_epik_Metal_Only>
0

> <s_lp_Force_Field>
OPLS_2005

> <r_lp_Energy>
39.3269

> <b_lp_Chiralities_Consistent>
1

> <s_lp_Variant>
AV-unprocessed.smi:2351-3

> <Gold.Version>
5.8.1

> <Gold.Id.Protein>
6NUR|6NUR_protein|mol2

> <Gold.PLP.Fitness>
48.2432

> <Gold.PLP.PLP>
-37.5290

> <Gold.PLP.part.hbond>
-3.0000

> <Gold.PLP.part.metal>
0.0000

> <Gold.PLP.part.buried>
-8.3085

> <Gold.PLP.part.nonpolar>
-27.9113

> <Gold.PLP.part.repulsive>
0.3060

> <Gold.PLP.ligand.clash>
0.0000

> <Gold.PLP.ligand.torsion>
0.6311

> <Gold.PLP.Chemscore.Hbond>
3.9833

> <Gold.PLP.Chemscore.CHOScore>
0.0000

> <Gold.PLP.Chemscore.Metal>
0.0000

> <Gold.Chemscore.Hbonds>
donor molecule, donor type, donor heavy atom, donor atom, acceptor molecule, acceptor atom, score
      L1  H     3    24       P1  8028  0.98
      L1  H    11    28       P1  8028  1.00
      L1  H    15    47       P1 10175  2.00

> <Gold.PLP.Chemscore.Internal.Correction>
0.0264

> <Gold.Rescore>
     Score         DG    S(hbond)    S(metal)    S(lipo)     H(rot)  DE(clash)    DE(int)     intcor
     17.69     -21.88       2.83        0.00      91.05       1.45       1.50       2.69       ----

> <Gold.Chemscore.Fitness>
17.6932

> <Gold.Chemscore.DG>
-21.8810

> <Gold.Chemscore.ZeroCoef>
-5.4800

> <Gold.Chemscore.Hbond>
2.8312

> <Gold.Chemscore.Metal>
0.0000

> <Gold.Chemscore.Lipo>
91.0458

> <Gold.Chemscore.Internal_Hbond>
0.0000

> <Gold.Chemscore.DEClash>
1.4990

> <Gold.Chemscore.DEInternal>
2.6887

> <Gold.Chemscore.Rot>
1.4483

> <Gold.Chemscore.Internal.Correction>
   9.000000E+99

> <Gold.Chemscore.Hbonds>
donor molecule, donor type, donor heavy atom, donor atom, acceptor molecule, acceptor atom, score
      L1  H     3    24       P1  8028  0.86
      L1  H    11    28       P1  8028  1.00
      L1  H    15    47       P1 10175  0.70

> <Gold.Chemscore.Hbond.Weighted>
-9.4564

> <Gold.Chemscore.Metal.Weighted>
-0.0000

> <Gold.Chemscore.Lipo.Weighted>
-10.6524

> <Gold.Chemscore.Internal_Hbond.Weighted>
0.0000

> <Gold.Chemscore.DEClash.Weighted>
1.4990

> <Gold.Chemscore.DEInternal.Weighted>
2.6887

> <Gold.Chemscore.Rot.Weighted>
3.7077

> <Gold.Chemscore.Internal.Correction.Weighted>
   9.000000E+99

> <Gold.Protein.RotatedTorsions>
[ 6907 6896 6895 6894 ] final -111.39 input  -60.11 | X-H torsion
[ 7974 7965 7964 7962 ] final -103.81 input  175.53 | X-H torsion
[ 8008 7997 7996 7995 ] final   90.41 input   59.86 | X-H torsion
[ 10167 10162 10161 10158 ] final  170.23 input  -65.29 | X-H torsion
[ 10718 10713 10712 10709 ] final   54.31 input   66.30 | X-H torsion
[ 10763 10752 10751 10750 ] final   -8.45 input  -60.55 | X-H torsion
[ 11005 11000 10999 10996 ] final  133.68 input  -57.11 | X-H torsion

> <Gold.Protein.ActiveResidues>
 VAL166  LYS551  ARG553  GLY616  TRP617  ASP618  TYR619  PRO620  LYS621  CYS622 
 ASP623  PHE694  ASN695  SER759  ASP760  ASP761  ALA762  ILE779  LEU786  VAL792 
 PHE793  MET794  SER795  GLU796  ALA797  LYS798  CYS799  TRP800  GLU811  SER814 

> <Gold.Protein.RotatedAtoms>
  150.7687  133.9242  159.3406 H   0  0  0  0  0  0  0  0  0  0  0  0  # atno 6907 bound_to 6896
  151.7133  135.0906  160.0281 H   0  0  0  0  0  0  0  0  0  0  0  0  # atno 6908 bound_to 6896
  152.3695  133.6363  159.6112 H   0  0  0  0  0  0  0  0  0  0  0  0  # atno 6909 bound_to 6896
  145.2512  140.9238  143.3094 H   0  0  0  0  0  0  0  0  0  0  0  0  # atno 7974 bound_to 7965
  156.0116  140.3349  155.6947 H   0  0  0  0  0  0  0  0  0  0  0  0  # atno 8008 bound_to 7997
  155.6149  140.0669  157.2713 H   0  0  0  0  0  0  0  0  0  0  0  0  # atno 8009 bound_to 7997
  154.4283  140.1787  156.1299 H   0  0  0  0  0  0  0  0  0  0  0  0  # atno 8010 bound_to 7997
  139.5013  144.3619  151.9816 H   0  0  0  0  0  0  0  0  0  0  0  0  # atno 10167 bound_to 10162
  157.5245  130.8588  149.8603 H   0  0  0  0  0  0  0  0  0  0  0  0  # atno 10718 bound_to 10713
  153.4406  135.7013  153.6171 H   0  0  0  0  0  0  0  0  0  0  0  0  # atno 10763 bound_to 10752
  153.4548  135.3750  155.2305 H   0  0  0  0  0  0  0  0  0  0  0  0  # atno 10764 bound_to 10752
  154.8727  135.4005  154.3804 H   0  0  0  0  0  0  0  0  0  0  0  0  # atno 10765 bound_to 10752
  139.9867  134.9530  156.9759 H   0  0  0  0  0  0  0  0  0  0  0  0  # atno 11005 bound_to 11000
  144.9501  139.4092  143.6406 LP  0  0  0  0  0  0  0  0  0  0  0  0  # atno 17320 bound_to 7965
  146.3302  139.8504  142.8874 LP  0  0  0  0  0  0  0  0  0  0  0  0  # atno 17321 bound_to 7965
  140.3055  144.3597  150.6048 LP  0  0  0  0  0  0  0  0  0  0  0  0  # atno 17342 bound_to 10162
  140.5840  143.2171  151.7377 LP  0  0  0  0  0  0  0  0  0  0  0  0  # atno 17343 bound_to 10162
  156.0377  130.3747  150.1517 LP  0  0  0  0  0  0  0  0  0  0  0  0  # atno 17370 bound_to 10713
  156.9704  130.9833  151.3460 LP  0  0  0  0  0  0  0  0  0  0  0  0  # atno 17371 bound_to 10713
  140.4989  134.1117  155.7246 LP  0  0  0  0  0  0  0  0  0  0  0  0  # atno 17394 bound_to 11000
  141.1530  133.8933  157.2049 LP  0  0  0  0  0  0  0  0  0  0  0  0  # atno 17395 bound_to 11000

$$$$
