AV-unprocessed.smi:1426|AV-procd|sdf|5807|dock8
  -GOLD-   22720 5463D 1   1.00000     0.00000
 Structure written by MMmdl.
 44 46  0  0  0  0  0  0  0  0  2 V2000
  154.0498  141.3115  160.8938 O   0  0  0  0  0  0  0  0  0  0  0  0
  153.3832  140.6121  160.1312 C   0  0  0  0  0  0  0  0  0  0  0  0
  153.5145  139.2816  160.0391 N   0  0  0  0  0  0  0  0  0  0  0  0
  154.4572  138.4772  160.8101 C   0  0  0  0  0  0  0  0  0  0  0  0
  153.8061  137.1997  161.3839 C   0  0  2  0  0  0  0  0  0  0  0  0
  153.6569  137.2158  162.8990 C   0  0  0  0  0  0  0  0  0  0  0  0
  154.9629  136.5978  163.4080 C   0  0  0  0  0  0  0  0  0  0  0  0
  155.6135  136.0397  162.2707 O   0  0  0  0  0  0  0  0  0  0  0  0
  154.6906  135.9697  161.1947 C   0  0  0  0  0  0  0  0  0  0  0  0
  152.4554  141.0700  159.2742 N   0  0  0  0  0  0  0  0  0  0  0  0
  152.0548  142.4179  159.0494 C   0  0  0  0  0  0  0  0  0  0  0  0
  152.5887  143.4839  159.8187 C   0  0  0  0  0  0  0  0  0  0  0  0
  152.1884  144.8081  159.5589 C   0  0  0  0  0  0  0  0  0  0  0  0
  151.2556  145.0481  158.5358 C   0  0  0  0  0  0  0  0  0  0  0  0
  150.7506  144.0119  157.8355 N   0  3  0  0  0  0  0  0  0  0  0  0
  151.0846  142.7142  158.0477 C   0  0  0  0  0  0  0  0  0  0  0  0
  150.4611  141.7332  157.2433 N   0  0  0  0  0  0  0  0  0  0  0  0
  150.9790  141.4314  155.9139 C   0  0  0  0  0  0  0  0  0  0  0  0
  149.8818  140.6132  155.2393 C   0  0  0  0  0  0  0  0  0  0  0  0
  148.6110  141.2443  155.8006 C   0  0  0  0  0  0  0  0  0  0  0  0
  149.0037  141.6554  157.2241 C   0  0  0  0  0  0  0  0  0  0  0  0
  152.9265  138.7861  159.3849 H   0  0  0  0  0  0  0  0  0  0  0  0
  155.3123  138.2166  160.1841 H   0  0  0  0  0  0  0  0  0  0  0  0
  154.8489  139.0970  161.6174 H   0  0  0  0  0  0  0  0  0  0  0  0
  152.8400  137.0437  160.9019 H   0  0  0  0  0  0  0  0  0  0  0  0
  153.4707  138.2067  163.3137 H   0  0  0  0  0  0  0  0  0  0  0  0
  152.8191  136.5797  163.1877 H   0  0  0  0  0  0  0  0  0  0  0  0
  155.6121  137.3494  163.8580 H   0  0  0  0  0  0  0  0  0  0  0  0
  154.7700  135.8265  164.1541 H   0  0  0  0  0  0  0  0  0  0  0  0
  154.1019  135.0560  161.2902 H   0  0  0  0  0  0  0  0  0  0  0  0
  155.1971  135.9460  160.2292 H   0  0  0  0  0  0  0  0  0  0  0  0
  152.0636  140.3881  158.6415 H   0  0  0  0  0  0  0  0  0  0  0  0
  153.2982  143.3064  160.6125 H   0  0  0  0  0  0  0  0  0  0  0  0
  152.5933  145.6265  160.1362 H   0  0  0  0  0  0  0  0  0  0  0  0
  150.8931  146.0289  158.2635 H   0  0  0  0  0  0  0  0  0  0  0  0
  151.1468  142.3511  155.3518 H   0  0  0  0  0  0  0  0  0  0  0  0
  151.9195  140.8824  155.9671 H   0  0  0  0  0  0  0  0  0  0  0  0
  149.9327  140.6485  154.1507 H   0  0  0  0  0  0  0  0  0  0  0  0
  149.9491  139.5694  155.5498 H   0  0  0  0  0  0  0  0  0  0  0  0
  148.3572  142.1317  155.2189 H   0  0  0  0  0  0  0  0  0  0  0  0
  147.7540  140.5707  155.7754 H   0  0  0  0  0  0  0  0  0  0  0  0
  148.6823  140.8919  157.9334 H   0  0  0  0  0  0  0  0  0  0  0  0
  148.5383  142.6014  157.5058 H   0  0  0  0  0  0  0  0  0  0  0  0
  150.0678  144.2176  157.1061 H   0  0  0  0  0  0  0  0  0  0  0  0
  1  2  2  0  0  0  0
  2  3  1  0  0  0  0
  2 10  1  0  0  0  0
  3  4  1  0  0  0  0
  3 22  1  0  0  0  0
  4  5  1  0  0  0  0
  4 23  1  0  0  0  0
  4 24  1  0  0  0  0
  5  9  1  0  0  0  0
  5  6  1  0  0  0  0
  5 25  1  0  0  0  0
  6  7  1  0  0  0  0
  6 26  1  0  0  0  0
  6 27  1  0  0  0  0
  7  8  1  0  0  0  0
  7 28  1  0  0  0  0
  7 29  1  0  0  0  0
  8  9  1  0  0  0  0
  9 30  1  0  0  0  0
  9 31  1  0  0  0  0
 10 11  1  0  0  0  0
 10 32  1  0  0  0  0
 11 16  1  0  0  0  0
 11 12  2  0  0  0  0
 12 13  1  0  0  0  0
 12 33  1  0  0  0  0
 13 14  2  0  0  0  0
 13 34  1  0  0  0  0
 14 15  1  0  0  0  0
 14 35  1  0  0  0  0
 15 16  2  0  0  0  0
 15 44  1  0  0  0  0
 16 17  1  0  0  0  0
 17 21  1  0  0  0  0
 17 18  1  0  0  0  0
 18 19  1  0  0  0  0
 18 36  1  0  0  0  0
 18 37  1  0  0  0  0
 19 20  1  0  0  0  0
 19 38  1  0  0  0  0
 19 39  1  0  0  0  0
 20 21  1  0  0  0  0
 20 40  1  0  0  0  0
 20 41  1  0  0  0  0
 21 42  1  0  0  0  0
 21 43  1  0  0  0  0
M  CHG  1  15   1
M  END
> <s_m_source_file>
AV-unprocessed.smi

> <i_m_source_file_index>
1426

> <i_lp_mmshare_version>
43012

> <i_f3d_flags>
0

> <s_epik_input>
W0NIMl0xT1tDSDJdW0NIMl1bQ0BIXTFbQ0gyXVtOSF1DKD1PKVtOSF1jMltjSF1bY0hdW2NIXW5jMk4zW0NIMl1bQ0gyXVtDSDJdW0NIMl0z

> <s_epik_cmdline>
J2VwaWtfcHl0aG9uJywgJy1waCcsICc3LjAnLCAnLXRuJywgJzgnLCAnLW1hJywgJzIwMCcsICctbWV0YWxfYmluZGluZycsICctaW1hZScsICc8aW5maWxlLm1hZT4nLCAnLW9tYWUnLCAnPG91dGZpbGUubWFlPic=

> <r_lp_tautomer_probability>
0.999994

> <r_epik_Ionization_Penalty>
1.10677

> <r_epik_Ionization_Penalty_Charging>
1.10675

> <r_epik_Ionization_Penalty_Neutral>
2.02663e-05

> <r_epik_State_Penalty>
1.16438

> <r_epik_Charging_Adjusted_Penalty>
2.27113

> <i_epik_Tot_Q>
1

> <i_epik_Tot_abs_Q>
1

> <r_epik_Metal_State_Penalty>
1.25078

> <b_epik_Metal_Only>
0

> <s_lp_Force_Field>
OPLS_2005

> <r_lp_Energy>
54.6113

> <b_lp_Chiralities_Consistent>
1

> <s_lp_Variant>
AV-unprocessed.smi:1426-3

> <Gold.Version>
5.8.1

> <Gold.Id.Protein>
6NUR|6NUR_protein|mol2

> <Gold.PLP.Fitness>
44.8438

> <Gold.PLP.PLP>
-40.6891

> <Gold.PLP.part.hbond>
-1.0000

> <Gold.PLP.part.metal>
0.0000

> <Gold.PLP.part.buried>
-6.4963

> <Gold.PLP.part.nonpolar>
-32.1808

> <Gold.PLP.part.repulsive>
0.2849

> <Gold.PLP.ligand.clash>
0.0000

> <Gold.PLP.ligand.torsion>
1.1148

> <Gold.PLP.Chemscore.Hbond>
2.0000

> <Gold.PLP.Chemscore.CHOScore>
0.0000

> <Gold.PLP.Chemscore.Metal>
0.0000

> <Gold.Chemscore.Hbonds>
donor molecule, donor type, donor heavy atom, donor atom, acceptor molecule, acceptor atom, score
      L1  H    15    44       P1  8028  2.00

> <Gold.PLP.Chemscore.Internal.Correction>
0.3844

> <Gold.Rescore>
     Score         DG    S(hbond)    S(metal)    S(lipo)     H(rot)  DE(clash)    DE(int)     intcor
     14.51     -17.40       0.93        0.00     106.08       1.40       0.48       2.40       ----

> <Gold.Chemscore.Fitness>
14.5103

> <Gold.Chemscore.DG>
-17.3975

> <Gold.Chemscore.ZeroCoef>
-5.4800

> <Gold.Chemscore.Hbond>
0.9268

> <Gold.Chemscore.Metal>
0.0000

> <Gold.Chemscore.Lipo>
106.0845

> <Gold.Chemscore.Internal_Hbond>
0.0000

> <Gold.Chemscore.DEClash>
0.4827

> <Gold.Chemscore.DEInternal>
2.4046

> <Gold.Chemscore.Rot>
1.4023

> <Gold.Chemscore.Internal.Correction>
   9.000000E+99

> <Gold.Chemscore.Hbonds>
donor molecule, donor type, donor heavy atom, donor atom, acceptor molecule, acceptor atom, score
      L1  H    15    44       P1  8028  0.78

> <Gold.Chemscore.Hbond.Weighted>
-3.0955

> <Gold.Chemscore.Metal.Weighted>
-0.0000

> <Gold.Chemscore.Lipo.Weighted>
-12.4119

> <Gold.Chemscore.Internal_Hbond.Weighted>
0.0000

> <Gold.Chemscore.DEClash.Weighted>
0.4827

> <Gold.Chemscore.DEInternal.Weighted>
2.4046

> <Gold.Chemscore.Rot.Weighted>
3.5898

> <Gold.Chemscore.Internal.Correction.Weighted>
   9.000000E+99

> <Gold.Protein.RotatedTorsions>
[ 6907 6896 6895 6894 ] final   89.30 input  -60.11 | X-H torsion
[ 7974 7965 7964 7962 ] final   89.97 input  175.53 | X-H torsion
[ 8008 7997 7996 7995 ] final  161.63 input   59.86 | X-H torsion
[ 10167 10162 10161 10158 ] final -129.39 input  -65.29 | X-H torsion
[ 10718 10713 10712 10709 ] final  -16.48 input   66.30 | X-H torsion
[ 10763 10752 10751 10750 ] final -118.54 input  -60.55 | X-H torsion
[ 11005 11000 10999 10996 ] final   -8.53 input  -57.11 | X-H torsion

> <Gold.Protein.ActiveResidues>
 VAL166  LYS551  ARG553  GLY616  TRP617  ASP618  TYR619  PRO620  LYS621  CYS622 
 ASP623  PHE694  ASN695  SER759  ASP760  ASP761  ALA762  ILE779  LEU786  VAL792 
 PHE793  MET794  SER795  GLU796  ALA797  LYS798  CYS799  TRP800  GLU811  SER814 

> <Gold.Protein.RotatedAtoms>
  152.5435  134.1988  159.8703 H   0  0  0  0  0  0  0  0  0  0  0  0  # atno 6907 bound_to 6896
  151.1978  133.4622  159.2603 H   0  0  0  0  0  0  0  0  0  0  0  0  # atno 6908 bound_to 6896
  151.1019  134.9989  159.8508 H   0  0  0  0  0  0  0  0  0  0  0  0  # atno 6909 bound_to 6896
  145.5252  139.2281  143.2649 H   0  0  0  0  0  0  0  0  0  0  0  0  # atno 7974 bound_to 7965
  156.2089  140.1772  156.7738 H   0  0  0  0  0  0  0  0  0  0  0  0  # atno 8008 bound_to 7997
  154.5695  140.0685  156.8972 H   0  0  0  0  0  0  0  0  0  0  0  0  # atno 8009 bound_to 7997
  155.2700  140.3342  155.4268 H   0  0  0  0  0  0  0  0  0  0  0  0  # atno 8010 bound_to 7997
  139.9403  143.6171  152.2505 H   0  0  0  0  0  0  0  0  0  0  0  0  # atno 10167 bound_to 10162
  156.5870  130.4789  149.6295 H   0  0  0  0  0  0  0  0  0  0  0  0  # atno 10718 bound_to 10713
  154.8590  135.4270  154.2155 H   0  0  0  0  0  0  0  0  0  0  0  0  # atno 10763 bound_to 10752
  153.3171  135.6979  153.7069 H   0  0  0  0  0  0  0  0  0  0  0  0  # atno 10764 bound_to 10752
  153.6138  135.3514  155.2961 H   0  0  0  0  0  0  0  0  0  0  0  0  # atno 10765 bound_to 10752
  140.7244  133.8801  155.8845 H   0  0  0  0  0  0  0  0  0  0  0  0  # atno 11005 bound_to 11000
  146.2080  140.6066  142.9072 LP  0  0  0  0  0  0  0  0  0  0  0  0  # atno 17320 bound_to 7965
  144.7655  140.5520  143.6706 LP  0  0  0  0  0  0  0  0  0  0  0  0  # atno 17321 bound_to 7965
  139.6710  144.7661  151.1783 LP  0  0  0  0  0  0  0  0  0  0  0  0  # atno 17342 bound_to 10162
  140.7613  143.5865  150.8840 LP  0  0  0  0  0  0  0  0  0  0  0  0  # atno 17343 bound_to 10162
  156.2582  130.6947  151.1707 LP  0  0  0  0  0  0  0  0  0  0  0  0  # atno 17370 bound_to 10713
  157.7313  131.0609  150.5685 LP  0  0  0  0  0  0  0  0  0  0  0  0  # atno 17371 bound_to 10713
  140.9975  134.1195  157.4349 LP  0  0  0  0  0  0  0  0  0  0  0  0  # atno 17394 bound_to 11000
  139.8840  135.0059  156.6342 LP  0  0  0  0  0  0  0  0  0  0  0  0  # atno 17395 bound_to 11000

$$$$
