AV-unprocessed.smi:2908|AV-procd|sdf|11169|dock3
  -GOLD-   2272016 63D 1   1.00000     0.00000
 Structure written by MMmdl.
 44 45  0  0  0  0  0  0  0  0  2 V2000
  148.8551  138.7570  155.3325 O   0  0  0  0  0  0  0  0  0  0  0  0
  150.0493  138.8342  155.6261 C   0  0  0  0  0  0  0  0  0  0  0  0
  150.7654  137.7571  155.9944 N   0  0  0  0  0  0  0  0  0  0  0  0
  150.2679  136.3858  156.0790 C   0  0  0  0  0  0  0  0  0  0  0  0
  150.3266  135.6498  154.7259 C   0  0  0  0  0  0  0  0  0  0  0  0
  149.6670  134.2821  154.7441 C   0  0  0  0  0  0  0  0  0  0  0  0
  149.9965  133.2997  155.7036 C   0  0  0  0  0  0  0  0  0  0  0  0
  149.3240  132.0604  155.6789 C   0  0  0  0  0  0  0  0  0  0  0  0
  148.3400  131.8283  154.6957 C   0  0  0  0  0  0  0  0  0  0  0  0
  148.0535  132.8429  153.7600 C   0  0  0  0  0  0  0  0  0  0  0  0
  148.7195  134.0168  153.8160 N   0  3  0  0  0  0  0  0  0  0  0  0
  150.7295  140.0071  155.6667 N   0  0  0  0  0  0  0  0  0  0  0  0
  150.2319  141.3165  155.2188 C   0  0  0  0  0  0  0  0  0  0  0  0
  149.8641  142.1521  156.4570 C   0  0  0  0  0  0  0  0  0  0  0  0
  151.0658  142.3190  157.4232 C   0  0  0  0  0  0  0  0  0  0  0  0
  150.6540  143.0839  158.7108 C   0  0  2  0  0  0  0  0  0  0  0  0
  149.8362  144.1787  158.3401 O   0  0  0  0  0  0  0  0  0  0  0  0
  151.8182  143.6446  159.5610 C   0  0  0  0  0  0  0  0  0  0  0  0
  151.3298  144.3215  160.6015 F   0  0  0  0  0  0  0  0  0  0  0  0
  152.5608  142.6543  160.0543 F   0  0  0  0  0  0  0  0  0  0  0  0
  152.5956  144.4505  158.8371 F   0  0  0  0  0  0  0  0  0  0  0  0
  151.7099  140.9393  157.7075 C   0  0  0  0  0  0  0  0  0  0  0  0
  151.9832  140.1533  156.4121 C   0  0  0  0  0  0  0  0  0  0  0  0
  151.7356  137.9021  156.2341 H   0  0  0  0  0  0  0  0  0  0  0  0
  150.8156  135.8251  156.8383 H   0  0  0  0  0  0  0  0  0  0  0  0
  149.2343  136.4268  156.4230 H   0  0  0  0  0  0  0  0  0  0  0  0
  149.8466  136.2584  153.9588 H   0  0  0  0  0  0  0  0  0  0  0  0
  151.3661  135.5381  154.4149 H   0  0  0  0  0  0  0  0  0  0  0  0
  150.7468  133.4952  156.4558 H   0  0  0  0  0  0  0  0  0  0  0  0
  149.5579  131.2978  156.4072 H   0  0  0  0  0  0  0  0  0  0  0  0
  147.8114  130.8868  154.6613 H   0  0  0  0  0  0  0  0  0  0  0  0
  147.3148  132.7533  152.9770 H   0  0  0  0  0  0  0  0  0  0  0  0
  151.0114  141.8221  154.6475 H   0  0  0  0  0  0  0  0  0  0  0  0
  149.3754  141.2585  154.5474 H   0  0  0  0  0  0  0  0  0  0  0  0
  149.5003  143.1267  156.1312 H   0  0  0  0  0  0  0  0  0  0  0  0
  149.0343  141.6741  156.9795 H   0  0  0  0  0  0  0  0  0  0  0  0
  151.8160  142.9181  156.9048 H   0  0  0  0  0  0  0  0  0  0  0  0
  150.0500  142.4290  159.3402 H   0  0  0  0  0  0  0  0  0  0  0  0
  149.5922  144.0750  157.4329 H   0  0  0  0  0  0  0  0  0  0  0  0
  152.6542  141.0638  158.2359 H   0  0  0  0  0  0  0  0  0  0  0  0
  151.0596  140.3531  158.3585 H   0  0  0  0  0  0  0  0  0  0  0  0
  152.4457  139.1936  156.6474 H   0  0  0  0  0  0  0  0  0  0  0  0
  152.7107  140.6855  155.7975 H   0  0  0  0  0  0  0  0  0  0  0  0
  148.4895  134.7399  153.1338 H   0  0  0  0  0  0  0  0  0  0  0  0
  1  2  2  0  0  0  0
  2  3  1  0  0  0  0
  2 12  1  0  0  0  0
  3  4  1  0  0  0  0
  3 24  1  0  0  0  0
  4  5  1  0  0  0  0
  4 25  1  0  0  0  0
  4 26  1  0  0  0  0
  5  6  1  0  0  0  0
  5 27  1  0  0  0  0
  5 28  1  0  0  0  0
  6 11  1  0  0  0  0
  6  7  2  0  0  0  0
  7  8  1  0  0  0  0
  7 29  1  0  0  0  0
  8  9  2  0  0  0  0
  8 30  1  0  0  0  0
  9 10  1  0  0  0  0
  9 31  1  0  0  0  0
 10 11  2  0  0  0  0
 10 32  1  0  0  0  0
 11 44  1  0  0  0  0
 12 23  1  0  0  0  0
 12 13  1  0  0  0  0
 13 14  1  0  0  0  0
 13 33  1  0  0  0  0
 13 34  1  0  0  0  0
 14 15  1  0  0  0  0
 14 35  1  0  0  0  0
 14 36  1  0  0  0  0
 15 16  1  0  0  0  0
 15 22  1  0  0  0  0
 15 37  1  0  0  0  0
 16 17  1  0  0  0  0
 16 18  1  0  0  0  0
 16 38  1  0  0  0  0
 17 39  1  0  0  0  0
 18 19  1  0  0  0  0
 18 20  1  0  0  0  0
 18 21  1  0  0  0  0
 22 23  1  0  0  0  0
 22 40  1  0  0  0  0
 22 41  1  0  0  0  0
 23 42  1  0  0  0  0
 23 43  1  0  0  0  0
M  CHG  1  11   1
M  END
> <s_m_source_file>
AV-unprocessed.smi

> <i_m_source_file_index>
2908

> <i_lp_mmshare_version>
43012

> <i_f3d_flags>
0

> <s_epik_input>
RkMoRikoRilbQ0BASF0oW09IXSlbQ0hdKFtDSDJdW0NIMl0xKVtDSDJdW0NIMl1OMUMoPU8pW05IXVtDSDJdW0NIMl1jMltjSF1bY0hdW2NIXVtjSF1uMg==

> <s_epik_cmdline>
J2VwaWtfcHl0aG9uJywgJy1waCcsICc3LjAnLCAnLXRuJywgJzgnLCAnLW1hJywgJzIwMCcsICctbWV0YWxfYmluZGluZycsICctaW1hZScsICc8aW5maWxlLm1hZT4nLCAnLW9tYWUnLCAnPG91dGZpbGUubWFlPic=

> <r_epik_Ionization_Penalty>
1.55054

> <r_epik_Ionization_Penalty_Charging>
1.55036

> <r_epik_Ionization_Penalty_Neutral>
0.00017404

> <r_epik_State_Penalty>
1.64453

> <r_epik_Charging_Adjusted_Penalty>
3.19489

> <i_epik_Tot_Q>
1

> <i_epik_Tot_abs_Q>
1

> <r_epik_Metal_State_Penalty>
1.68672

> <b_epik_Metal_Only>
0

> <s_lp_Force_Field>
OPLS_2005

> <r_lp_Energy>
42.7125

> <b_lp_Chiralities_Consistent>
1

> <s_lp_Variant>
AV-unprocessed.smi:2908-3

> <Gold.Version>
5.8.1

> <Gold.Id.Protein>
6NUR|6NUR_protein|mol2

> <Gold.PLP.Fitness>
50.7217

> <Gold.PLP.PLP>
-43.3926

> <Gold.PLP.part.hbond>
-3.0000

> <Gold.PLP.part.metal>
0.0000

> <Gold.PLP.part.buried>
0.0202

> <Gold.PLP.part.nonpolar>
-40.4437

> <Gold.PLP.part.repulsive>
0.1046

> <Gold.PLP.ligand.clash>
1.0803

> <Gold.PLP.ligand.torsion>
0.5476

> <Gold.PLP.Chemscore.Hbond>
2.9913

> <Gold.PLP.Chemscore.CHOScore>
0.0000

> <Gold.PLP.Chemscore.Metal>
0.0000

> <Gold.Chemscore.Hbonds>
donor molecule, donor type, donor heavy atom, donor atom, acceptor molecule, acceptor atom, score
      L1  H    11    44       P1  7948  2.00
      L1  H    17    39       P1  8028  1.00

> <Gold.PLP.Chemscore.Internal.Correction>
0.5309

> <Gold.Rescore>
     Score         DG    S(hbond)    S(metal)    S(lipo)     H(rot)  DE(clash)    DE(int)     intcor
     11.07     -12.74       0.92        0.00      88.36       2.40       0.95       0.72       ----

> <Gold.Chemscore.Fitness>
11.0741

> <Gold.Chemscore.DG>
-12.7370

> <Gold.Chemscore.ZeroCoef>
-5.4800

> <Gold.Chemscore.Hbond>
0.9189

> <Gold.Chemscore.Metal>
0.0000

> <Gold.Chemscore.Lipo>
88.3639

> <Gold.Chemscore.Internal_Hbond>
0.0000

> <Gold.Chemscore.DEClash>
0.9475

> <Gold.Chemscore.DEInternal>
0.7154

> <Gold.Chemscore.Rot>
2.4026

> <Gold.Chemscore.Internal.Correction>
   9.000000E+99

> <Gold.Chemscore.Hbonds>
donor molecule, donor type, donor heavy atom, donor atom, acceptor molecule, acceptor atom, score
      L1  H    11    44       P1  7948  0.47
      L1  H    17    39       P1  8028  0.28

> <Gold.Chemscore.Hbond.Weighted>
-3.0692

> <Gold.Chemscore.Metal.Weighted>
-0.0000

> <Gold.Chemscore.Lipo.Weighted>
-10.3386

> <Gold.Chemscore.Internal_Hbond.Weighted>
0.0000

> <Gold.Chemscore.DEClash.Weighted>
0.9475

> <Gold.Chemscore.DEInternal.Weighted>
0.7154

> <Gold.Chemscore.Rot.Weighted>
6.1508

> <Gold.Chemscore.Internal.Correction.Weighted>
   9.000000E+99

> <Gold.Protein.RotatedTorsions>
[ 6907 6896 6895 6894 ] final -134.48 input  -60.11 | X-H torsion
[ 7974 7965 7964 7962 ] final  -39.25 input  175.53 | X-H torsion
[ 8008 7997 7996 7995 ] final   89.30 input   59.86 | X-H torsion
[ 10167 10162 10161 10158 ] final  121.03 input  -65.29 | X-H torsion
[ 10718 10713 10712 10709 ] final   72.07 input   66.30 | X-H torsion
[ 10763 10752 10751 10750 ] final   76.76 input  -60.55 | X-H torsion
[ 11005 11000 10999 10996 ] final   87.17 input  -57.11 | X-H torsion

> <Gold.Protein.ActiveResidues>
 VAL166  LYS551  ARG553  GLY616  TRP617  ASP618  TYR619  PRO620  LYS621  CYS622 
 ASP623  PHE694  ASN695  SER759  ASP760  ASP761  ALA762  ILE779  LEU786  VAL792 
 PHE793  MET794  SER795  GLU796  ALA797  LYS798  CYS799  TRP800  GLU811  SER814 

> <Gold.Protein.RotatedAtoms>
  150.9863  133.6194  159.2714 H   0  0  0  0  0  0  0  0  0  0  0  0  # atno 6907 bound_to 6896
  151.3431  135.0867  159.9387 H   0  0  0  0  0  0  0  0  0  0  0  0  # atno 6908 bound_to 6896
  152.5232  133.9471  159.7708 H   0  0  0  0  0  0  0  0  0  0  0  0  # atno 6909 bound_to 6896
  146.0413  140.6605  142.9086 H   0  0  0  0  0  0  0  0  0  0  0  0  # atno 7974 bound_to 7965
  155.9983  140.3362  155.6820 H   0  0  0  0  0  0  0  0  0  0  0  0  # atno 8008 bound_to 7997
  155.6325  140.0686  157.2662 H   0  0  0  0  0  0  0  0  0  0  0  0  # atno 8009 bound_to 7997
  154.4241  140.1757  156.1475 H   0  0  0  0  0  0  0  0  0  0  0  0  # atno 8010 bound_to 7997
  139.5945  144.7037  151.3210 H   0  0  0  0  0  0  0  0  0  0  0  0  # atno 10167 bound_to 10162
  157.6483  130.9560  150.0877 H   0  0  0  0  0  0  0  0  0  0  0  0  # atno 10718 bound_to 10713
  153.0749  135.4939  154.8383 H   0  0  0  0  0  0  0  0  0  0  0  0  # atno 10763 bound_to 10752
  154.7074  135.3013  154.9252 H   0  0  0  0  0  0  0  0  0  0  0  0  # atno 10764 bound_to 10752
  153.9957  135.6772  153.4809 H   0  0  0  0  0  0  0  0  0  0  0  0  # atno 10765 bound_to 10752
  139.8926  134.8404  156.2823 H   0  0  0  0  0  0  0  0  0  0  0  0  # atno 11005 bound_to 11000
  144.7076  140.3913  143.7106 LP  0  0  0  0  0  0  0  0  0  0  0  0  # atno 17320 bound_to 7965
  145.6880  139.1633  143.2663 LP  0  0  0  0  0  0  0  0  0  0  0  0  # atno 17321 bound_to 7965
  140.7200  143.7161  150.7732 LP  0  0  0  0  0  0  0  0  0  0  0  0  # atno 17342 bound_to 10162
  140.0724  143.5048  152.2573 LP  0  0  0  0  0  0  0  0  0  0  0  0  # atno 17343 bound_to 10162
  156.1835  130.3651  149.9004 LP  0  0  0  0  0  0  0  0  0  0  0  0  # atno 17370 bound_to 10713
  156.6950  130.8911  151.3593 LP  0  0  0  0  0  0  0  0  0  0  0  0  # atno 17371 bound_to 10713
  141.0031  133.7140  156.0991 LP  0  0  0  0  0  0  0  0  0  0  0  0  # atno 17394 bound_to 11000
  140.7471  134.4086  157.5547 LP  0  0  0  0  0  0  0  0  0  0  0  0  # atno 17395 bound_to 11000

$$$$
