AV-unprocessed.smi:1055|AV-procd|sdf|4629|dock1
  -GOLD-   22720 3133D 1   1.00000     0.00000
 Structure written by MMmdl.
 50 51  0  0  0  0  0  0  0  0  1 V2000
  145.2260  131.2600  151.0076 C   0  0  0  0  0  0  0  0  0  0  0  0
  145.7400  131.2817  152.2483 C   0  0  0  0  0  0  0  0  0  0  0  0
  145.7999  130.0382  153.1155 C   0  0  0  0  0  0  0  0  0  0  0  0
  146.3180  132.5513  152.8565 C   0  0  0  0  0  0  0  0  0  0  0  0
  145.3745  133.6693  152.8832 N   0  0  0  0  0  0  0  0  0  0  0  0
  145.3018  134.3440  151.5823 C   0  0  0  0  0  0  0  0  0  0  0  0
  144.2572  135.4728  151.6199 C   0  0  0  0  0  0  0  0  0  0  0  0
  144.5844  136.4961  152.7208 C   0  0  0  0  0  0  0  0  0  0  0  0
  143.5196  137.4868  152.8464 N   0  0  0  0  0  0  0  0  0  0  0  0
  142.2403  137.2130  153.1387 C   0  0  0  0  0  0  0  0  0  0  0  0
  141.8160  136.0731  153.3272 O   0  0  0  0  0  0  0  0  0  0  0  0
  141.5013  138.3350  153.1775 N   0  0  0  0  0  0  0  0  0  0  0  0
  140.1187  138.4743  153.4742 C   0  0  0  0  0  0  0  0  0  0  0  0
  139.4455  137.3688  154.0275 C   0  0  0  0  0  0  0  0  0  0  0  0
  138.0715  137.4702  154.3160 C   0  0  0  0  0  0  0  0  0  0  0  0
  137.3929  138.6818  154.0343 C   0  0  0  0  0  0  0  0  0  0  0  0
  136.0144  138.8365  154.3074 N   0  0  0  0  0  0  0  0  0  0  0  0
  135.3228  140.0607  153.9226 C   0  0  0  0  0  0  0  0  0  0  0  0
  135.2693  137.7433  154.9235 C   0  0  0  0  0  0  0  0  0  0  0  0
  138.0412  139.7389  153.4865 N   0  0  0  0  0  0  0  0  0  0  0  0
  139.3589  139.6385  153.2132 C   0  0  0  0  0  0  0  0  0  0  0  0
  144.7699  135.7555  154.0531 C   0  0  0  0  0  0  0  0  0  0  0  0
  145.7973  134.6188  153.9145 C   0  0  0  0  0  0  0  0  0  0  0  0
  144.8259  130.3516  150.5820 H   0  0  0  0  0  0  0  0  0  0  0  0
  145.1968  132.1514  150.3984 H   0  0  0  0  0  0  0  0  0  0  0  0
  146.8311  129.8234  153.3957 H   0  0  0  0  0  0  0  0  0  0  0  0
  145.4022  129.1684  152.5918 H   0  0  0  0  0  0  0  0  0  0  0  0
  145.2182  130.1775  154.0270 H   0  0  0  0  0  0  0  0  0  0  0  0
  146.6290  132.3184  153.8758 H   0  0  0  0  0  0  0  0  0  0  0  0
  147.2172  132.8425  152.3109 H   0  0  0  0  0  0  0  0  0  0  0  0
  146.2810  134.7427  151.3129 H   0  0  0  0  0  0  0  0  0  0  0  0
  145.0202  133.6370  150.8021 H   0  0  0  0  0  0  0  0  0  0  0  0
  144.2174  135.9650  150.6475 H   0  0  0  0  0  0  0  0  0  0  0  0
  143.2682  135.0440  151.7895 H   0  0  0  0  0  0  0  0  0  0  0  0
  145.5211  137.0006  152.4747 H   0  0  0  0  0  0  0  0  0  0  0  0
  143.7789  138.4520  152.7036 H   0  0  0  0  0  0  0  0  0  0  0  0
  141.9759  139.1875  152.9187 H   0  0  0  0  0  0  0  0  0  0  0  0
  139.9745  136.4500  154.2348 H   0  0  0  0  0  0  0  0  0  0  0  0
  137.5675  136.6176  154.7452 H   0  0  0  0  0  0  0  0  0  0  0  0
  135.7455  140.9194  154.4451 H   0  0  0  0  0  0  0  0  0  0  0  0
  134.2617  140.0120  154.1683 H   0  0  0  0  0  0  0  0  0  0  0  0
  135.4071  140.2280  152.8483 H   0  0  0  0  0  0  0  0  0  0  0  0
  135.6987  137.4851  155.8922 H   0  0  0  0  0  0  0  0  0  0  0  0
  135.2919  136.8581  154.2871 H   0  0  0  0  0  0  0  0  0  0  0  0
  134.2255  138.0130  155.0840 H   0  0  0  0  0  0  0  0  0  0  0  0
  139.7905  140.5149  152.7559 H   0  0  0  0  0  0  0  0  0  0  0  0
  145.0948  136.4525  154.8262 H   0  0  0  0  0  0  0  0  0  0  0  0
  143.8172  135.3422  154.3886 H   0  0  0  0  0  0  0  0  0  0  0  0
  145.8906  134.1026  154.8708 H   0  0  0  0  0  0  0  0  0  0  0  0
  146.7811  135.0244  153.6727 H   0  0  0  0  0  0  0  0  0  0  0  0
  1  2  2  0  0  0  0
  1 24  1  0  0  0  0
  1 25  1  0  0  0  0
  2  3  1  0  0  0  0
  2  4  1  0  0  0  0
  3 26  1  0  0  0  0
  3 27  1  0  0  0  0
  3 28  1  0  0  0  0
  4  5  1  0  0  0  0
  4 29  1  0  0  0  0
  4 30  1  0  0  0  0
  5 23  1  0  0  0  0
  5  6  1  0  0  0  0
  6  7  1  0  0  0  0
  6 31  1  0  0  0  0
  6 32  1  0  0  0  0
  7  8  1  0  0  0  0
  7 33  1  0  0  0  0
  7 34  1  0  0  0  0
  8  9  1  0  0  0  0
  8 22  1  0  0  0  0
  8 35  1  0  0  0  0
  9 10  1  0  0  0  0
  9 36  1  0  0  0  0
 10 11  2  0  0  0  0
 10 12  1  0  0  0  0
 12 13  1  0  0  0  0
 12 37  1  0  0  0  0
 13 21  1  0  0  0  0
 13 14  2  0  0  0  0
 14 15  1  0  0  0  0
 14 38  1  0  0  0  0
 15 16  2  0  0  0  0
 15 39  1  0  0  0  0
 16 17  1  0  0  0  0
 16 20  1  0  0  0  0
 17 18  1  0  0  0  0
 17 19  1  0  0  0  0
 18 40  1  0  0  0  0
 18 41  1  0  0  0  0
 18 42  1  0  0  0  0
 19 43  1  0  0  0  0
 19 44  1  0  0  0  0
 19 45  1  0  0  0  0
 20 21  2  0  0  0  0
 21 46  1  0  0  0  0
 22 23  1  0  0  0  0
 22 47  1  0  0  0  0
 22 48  1  0  0  0  0
 23 49  1  0  0  0  0
 23 50  1  0  0  0  0
M  END
> <s_m_source_file>
AV-unprocessed.smi

> <i_m_source_file_index>
1055

> <i_lp_mmshare_version>
43012

> <i_f3d_flags>
0

> <s_epik_input>
W0NIMl09QyhbQ0gzXSlbQ0gyXU4xW0NIMl1bQ0gyXVtDSF0oW0NIMl1bQ0gyXTEpW05IXUMoPU8pW05IXWMyW2NIXVtjSF1jKE4oW0NIM10pW0NIM10pbltjSF0y

> <s_epik_cmdline>
J2VwaWtfcHl0aG9uJywgJy1waCcsICc3LjAnLCAnLXRuJywgJzgnLCAnLW1hJywgJzIwMCcsICctbWV0YWxfYmluZGluZycsICctaW1hZScsICc8aW5maWxlLm1hZT4nLCAnLW9tYWUnLCAnPG91dGZpbGUubWFlPic=

> <r_epik_Ionization_Penalty>
2.66572

> <r_epik_Ionization_Penalty_Charging>
0

> <r_epik_Ionization_Penalty_Neutral>
2.66572

> <r_epik_State_Penalty>
2.75204

> <r_epik_Charging_Adjusted_Penalty>
2.75204

> <i_epik_Tot_Q>
0

> <i_epik_Tot_abs_Q>
0

> <r_epik_Metal_State_Penalty>
2.38689

> <b_epik_Metal_Only>
1

> <s_lp_Force_Field>
OPLS_2005

> <r_lp_Energy>
18.8719

> <b_lp_Chiralities_Consistent>
1

> <s_lp_Variant>
AV-unprocessed.smi:1055-6

> <Gold.Version>
5.8.1

> <Gold.Id.Protein>
6NUR|6NUR_protein|mol2

> <Gold.PLP.Fitness>
47.2633

> <Gold.PLP.PLP>
-39.1390

> <Gold.PLP.part.hbond>
-3.0000

> <Gold.PLP.part.metal>
0.0000

> <Gold.PLP.part.buried>
-3.6160

> <Gold.PLP.part.nonpolar>
-33.4359

> <Gold.PLP.part.repulsive>
0.3911

> <Gold.PLP.ligand.clash>
0.0000

> <Gold.PLP.ligand.torsion>
0.2733

> <Gold.PLP.Chemscore.Hbond>
2.0000

> <Gold.PLP.Chemscore.CHOScore>
0.8748

> <Gold.PLP.Chemscore.Metal>
0.0000

> <Gold.Chemscore.Hbonds>
donor molecule, donor type, donor heavy atom, donor atom, acceptor molecule, acceptor atom, score
      L1  H     9    36       P1 10175  1.00
      L1  H    12    37       P1 10175  0.84
      L1  C    21    46       P1 10160  0.79

> <Gold.PLP.Chemscore.Internal.Correction>
0.0466

> <Gold.Rescore>
     Score         DG    S(hbond)    S(metal)    S(lipo)     H(rot)  DE(clash)    DE(int)     intcor
     15.80     -19.21       1.93        0.00      90.70       1.30       0.04       3.38       ----

> <Gold.Chemscore.Fitness>
15.7965

> <Gold.Chemscore.DG>
-19.2127

> <Gold.Chemscore.ZeroCoef>
-5.4800

> <Gold.Chemscore.Hbond>
1.9330

> <Gold.Chemscore.Metal>
0.0000

> <Gold.Chemscore.Lipo>
90.6956

> <Gold.Chemscore.Internal_Hbond>
0.0000

> <Gold.Chemscore.DEClash>
0.0364

> <Gold.Chemscore.DEInternal>
3.3797

> <Gold.Chemscore.Rot>
1.3027

> <Gold.Chemscore.Internal.Correction>
   9.000000E+99

> <Gold.Chemscore.Hbonds>
donor molecule, donor type, donor heavy atom, donor atom, acceptor molecule, acceptor atom, score
      L1  H     9    36       P1 10175  0.96
      L1  H    12    37       P1 10175  0.74

> <Gold.Chemscore.Hbond.Weighted>
-6.4561

> <Gold.Chemscore.Metal.Weighted>
-0.0000

> <Gold.Chemscore.Lipo.Weighted>
-10.6114

> <Gold.Chemscore.Internal_Hbond.Weighted>
0.0000

> <Gold.Chemscore.DEClash.Weighted>
0.0364

> <Gold.Chemscore.DEInternal.Weighted>
3.3797

> <Gold.Chemscore.Rot.Weighted>
3.3348

> <Gold.Chemscore.Internal.Correction.Weighted>
   9.000000E+99

> <Gold.Protein.RotatedTorsions>
[ 6907 6896 6895 6894 ] final  -88.85 input  -60.11 | X-H torsion
[ 7974 7965 7964 7962 ] final  178.22 input  175.53 | X-H torsion
[ 8008 7997 7996 7995 ] final  112.84 input   59.86 | X-H torsion
[ 10167 10162 10161 10158 ] final -132.39 input  -65.29 | X-H torsion
[ 10718 10713 10712 10709 ] final   40.13 input   66.30 | X-H torsion
[ 10763 10752 10751 10750 ] final  101.24 input  -60.55 | X-H torsion
[ 11005 11000 10999 10996 ] final  -21.85 input  -57.11 | X-H torsion

> <Gold.Protein.ActiveResidues>
 VAL166  LYS551  ARG553  GLY616  TRP617  ASP618  TYR619  PRO620  LYS621  CYS622 
 ASP623  PHE694  ASN695  SER759  ASP760  ASP761  ALA762  ILE779  LEU786  VAL792 
 PHE793  MET794  SER795  GLU796  ALA797  LYS798  CYS799  TRP800  GLU811  SER814 

> <Gold.Protein.RotatedAtoms>
  150.6870  134.2678  159.4575 H   0  0  0  0  0  0  0  0  0  0  0  0  # atno 6907 bound_to 6896
  152.0603  134.9596  160.0584 H   0  0  0  0  0  0  0  0  0  0  0  0  # atno 6908 bound_to 6896
  152.1026  133.4223  159.4631 H   0  0  0  0  0  0  0  0  0  0  0  0  # atno 6909 bound_to 6896
  144.7159  140.0365  143.6438 H   0  0  0  0  0  0  0  0  0  0  0  0  # atno 7974 bound_to 7965
  156.2219  140.2991  155.9973 H   0  0  0  0  0  0  0  0  0  0  0  0  # atno 8008 bound_to 7997
  155.2459  140.0424  157.2998 H   0  0  0  0  0  0  0  0  0  0  0  0  # atno 8009 bound_to 7997
  154.5854  140.2387  155.8003 H   0  0  0  0  0  0  0  0  0  0  0  0  # atno 8010 bound_to 7997
  139.9090  143.6516  152.2579 H   0  0  0  0  0  0  0  0  0  0  0  0  # atno 10167 bound_to 10162
  157.3787  130.7741  149.7175 H   0  0  0  0  0  0  0  0  0  0  0  0  # atno 10718 bound_to 10713
  153.3241  135.4051  155.1441 H   0  0  0  0  0  0  0  0  0  0  0  0  # atno 10763 bound_to 10752
  154.8607  135.3594  154.5557 H   0  0  0  0  0  0  0  0  0  0  0  0  # atno 10764 bound_to 10752
  153.5992  135.7071  153.5450 H   0  0  0  0  0  0  0  0  0  0  0  0  # atno 10765 bound_to 10752
  140.8600  133.7795  156.0064 H   0  0  0  0  0  0  0  0  0  0  0  0  # atno 11005 bound_to 11000
  146.0059  139.3129  143.0899 LP  0  0  0  0  0  0  0  0  0  0  0  0  # atno 17320 bound_to 7965
  145.8739  140.9403  143.0636 LP  0  0  0  0  0  0  0  0  0  0  0  0  # atno 17321 bound_to 7965
  139.6959  144.7641  151.1358 LP  0  0  0  0  0  0  0  0  0  0  0  0  # atno 17342 bound_to 10162
  140.7689  143.5525  150.9189 LP  0  0  0  0  0  0  0  0  0  0  0  0  # atno 17343 bound_to 10162
  155.9771  130.4067  150.3736 LP  0  0  0  0  0  0  0  0  0  0  0  0  # atno 17370 bound_to 10713
  157.1837  131.0398  151.2735 LP  0  0  0  0  0  0  0  0  0  0  0  0  # atno 17371 bound_to 10713
  140.8693  134.2746  157.5198 LP  0  0  0  0  0  0  0  0  0  0  0  0  # atno 17394 bound_to 11000
  139.8706  134.9559  156.4221 LP  0  0  0  0  0  0  0  0  0  0  0  0  # atno 17395 bound_to 11000

$$$$
