AV-unprocessed.smi:79|AV-procd|sdf|782|dock4
  -GOLD-   2262017143D 1   1.00000     0.00000
 Structure written by MMmdl.
 56 59  0  0  0  0  0  0  0  0  2 V2000
  146.0593  132.0658  149.4826 C   0  0  0  0  0  0  0  0  0  0  0  0
  144.9076  131.7903  150.4576 C   0  0  1  0  0  0  0  0  0  0  0  0
  143.7650  131.4392  149.7036 O   0  0  0  0  0  0  0  0  0  0  0  0
  145.2378  130.6465  151.4364 C   0  0  0  0  0  0  0  0  0  0  0  0
  146.5269  130.8550  152.1446 N   0  3  2  0  0  0  0  0  0  0  0  0
  147.0286  129.6331  152.8304 C   0  0  0  0  0  0  0  0  0  0  0  0
  148.3915  129.8869  153.5018 C   0  0  0  0  0  0  0  0  0  0  0  0
  148.3204  131.0302  154.4056 N   0  0  0  0  0  0  0  0  0  0  0  0
  147.8995  130.6890  155.6511 C   0  0  0  0  0  0  0  0  0  0  0  0
  148.7864  130.2824  156.5972 N   0  0  0  0  0  0  0  0  0  0  0  0
  148.3656  129.9759  157.8280 C   0  0  0  0  0  0  0  0  0  0  0  0
  147.1256  130.0150  158.3190 N   0  0  0  0  0  0  0  0  0  0  0  0
  146.2326  130.4315  157.3761 C   0  0  0  0  0  0  0  0  0  0  0  0
  146.5336  130.7872  156.0319 C   0  0  0  0  0  0  0  0  0  0  0  0
  145.3731  131.1653  155.3689 N   0  0  0  0  0  0  0  0  0  0  0  0
  144.4375  131.0394  156.2705 C   0  0  0  0  0  0  0  0  0  0  0  0
  144.8639  130.5961  157.5028 N   0  0  0  0  0  0  0  0  0  0  0  0
  144.0425  130.3712  158.6827 C   0  0  0  0  0  0  0  0  0  0  0  0
  142.5382  130.6051  158.4496 C   0  0  0  0  0  0  0  0  0  0  0  0
  142.3150  132.0985  158.1358 C   0  0  0  0  0  0  0  0  0  0  0  0
  140.9543  132.4061  157.9064 O   0  0  0  0  0  0  0  0  0  0  0  0
  141.8685  129.6034  157.4978 C   0  0  0  0  0  0  0  0  0  0  0  0
  140.8466  129.2763  158.4651 O   0  0  0  0  0  0  0  0  0  0  0  0
  141.5879  129.9838  159.4833 C   0  0  0  0  0  0  0  0  0  0  0  0
  147.8450  132.2549  153.7502 C   0  0  2  0  0  0  0  0  0  0  0  0
  147.8745  133.5036  154.6525 C   0  0  0  0  0  0  0  0  0  0  0  0
  146.4859  132.0342  153.0495 C   0  0  0  0  0  0  0  0  0  0  0  0
  146.9639  132.3544  150.0187 H   0  0  0  0  0  0  0  0  0  0  0  0
  145.8102  132.8789  148.7998 H   0  0  0  0  0  0  0  0  0  0  0  0
  146.2953  131.1862  148.8826 H   0  0  0  0  0  0  0  0  0  0  0  0
  144.6906  132.7112  150.9978 H   0  0  0  0  0  0  0  0  0  0  0  0
  143.1194  132.1241  149.7935 H   0  0  0  0  0  0  0  0  0  0  0  0
  144.4262  130.5665  152.1616 H   0  0  0  0  0  0  0  0  0  0  0  0
  145.2684  129.6899  150.9121 H   0  0  0  0  0  0  0  0  0  0  0  0
  146.3003  129.3121  153.5769 H   0  0  0  0  0  0  0  0  0  0  0  0
  147.1329  128.8127  152.1218 H   0  0  0  0  0  0  0  0  0  0  0  0
  148.7234  128.9895  154.0257 H   0  0  0  0  0  0  0  0  0  0  0  0
  149.1471  130.0927  152.7428 H   0  0  0  0  0  0  0  0  0  0  0  0
  149.1320  129.6563  158.5187 H   0  0  0  0  0  0  0  0  0  0  0  0
  143.4040  131.2696  156.0577 H   0  0  0  0  0  0  0  0  0  0  0  0
  144.2195  129.3559  159.0395 H   0  0  0  0  0  0  0  0  0  0  0  0
  144.4136  131.0275  159.4709 H   0  0  0  0  0  0  0  0  0  0  0  0
  142.6520  132.7287  158.9589 H   0  0  0  0  0  0  0  0  0  0  0  0
  142.8825  132.3985  157.2544 H   0  0  0  0  0  0  0  0  0  0  0  0
  140.5721  132.7033  158.7181 H   0  0  0  0  0  0  0  0  0  0  0  0
  141.4607  130.0466  156.5886 H   0  0  0  0  0  0  0  0  0  0  0  0
  142.4873  128.7374  157.2582 H   0  0  0  0  0  0  0  0  0  0  0  0
  142.0706  129.2935  160.1758 H   0  0  0  0  0  0  0  0  0  0  0  0
  140.9764  130.7082  160.0220 H   0  0  0  0  0  0  0  0  0  0  0  0
  148.5732  132.4491  152.9613 H   0  0  0  0  0  0  0  0  0  0  0  0
  147.6763  134.4030  154.0691 H   0  0  0  0  0  0  0  0  0  0  0  0
  148.8525  133.6265  155.1186 H   0  0  0  0  0  0  0  0  0  0  0  0
  147.1279  133.4667  155.4450 H   0  0  0  0  0  0  0  0  0  0  0  0
  146.2341  132.9222  152.4681 H   0  0  0  0  0  0  0  0  0  0  0  0
  145.6851  131.9040  153.7778 H   0  0  0  0  0  0  0  0  0  0  0  0
  147.2050  131.0820  151.4309 H   0  0  0  0  0  0  0  0  0  0  0  0
  1  2  1  0  0  0  0
  1 28  1  0  0  0  0
  1 29  1  0  0  0  0
  1 30  1  0  0  0  0
  2  3  1  0  0  0  0
  2  4  1  0  0  0  0
  2 31  1  0  0  0  0
  3 32  1  0  0  0  0
  4  5  1  0  0  0  0
  4 33  1  0  0  0  0
  4 34  1  0  0  0  0
  5 27  1  0  0  0  0
  5  6  1  0  0  0  0
  5 56  1  0  0  0  0
  6  7  1  0  0  0  0
  6 35  1  0  0  0  0
  6 36  1  0  0  0  0
  7  8  1  0  0  0  0
  7 37  1  0  0  0  0
  7 38  1  0  0  0  0
  8  9  1  0  0  0  0
  8 25  1  0  0  0  0
  9 14  1  0  0  0  0
  9 10  2  0  0  0  0
 10 11  1  0  0  0  0
 11 12  2  0  0  0  0
 11 39  1  0  0  0  0
 12 13  1  0  0  0  0
 13 17  1  0  0  0  0
 13 14  2  0  0  0  0
 14 15  1  0  0  0  0
 15 16  2  0  0  0  0
 16 17  1  0  0  0  0
 16 40  1  0  0  0  0
 17 18  1  0  0  0  0
 18 19  1  0  0  0  0
 18 41  1  0  0  0  0
 18 42  1  0  0  0  0
 19 24  1  0  0  0  0
 19 20  1  0  0  0  0
 19 22  1  0  0  0  0
 20 21  1  0  0  0  0
 20 43  1  0  0  0  0
 20 44  1  0  0  0  0
 21 45  1  0  0  0  0
 22 23  1  0  0  0  0
 22 46  1  0  0  0  0
 22 47  1  0  0  0  0
 23 24  1  0  0  0  0
 24 48  1  0  0  0  0
 24 49  1  0  0  0  0
 25 26  1  0  0  0  0
 25 27  1  0  0  0  0
 25 50  1  0  0  0  0
 26 51  1  0  0  0  0
 26 52  1  0  0  0  0
 26 53  1  0  0  0  0
 27 54  1  0  0  0  0
 27 55  1  0  0  0  0
M  CHG  1   5   1
M  END
> <s_m_source_file>
AV-unprocessed.smi

> <i_m_source_file_index>
79

> <i_lp_mmshare_version>
43012

> <i_f3d_flags>
0

> <s_epik_input>
W0NIM11bQ0BIXShbT0hdKVtDSDJdTjFbQ0gyXVtDSDJdTihbQ0BASF0oW0NIM10pW0NIMl0xKWMobltjSF1uMiljKGMyMyluW2NIXW4zW0NIMl1DNChbQ0gyXVtPSF0pW0NIMl1PW0NIMl00

> <s_epik_cmdline>
J2VwaWtfcHl0aG9uJywgJy1waCcsICc3LjAnLCAnLXRuJywgJzgnLCAnLW1hJywgJzIwMCcsICctbWV0YWxfYmluZGluZycsICctaW1hZScsICc8aW5maWxlLm1hZT4nLCAnLW9tYWUnLCAnPG91dGZpbGUubWFlPic=

> <r_lp_tautomer_probability>
1

> <r_epik_Ionization_Penalty>
0.00515943

> <r_epik_Ionization_Penalty_Charging>
0.00509693

> <r_epik_Ionization_Penalty_Neutral>
6.25007e-05

> <r_epik_State_Penalty>
-0

> <r_epik_Charging_Adjusted_Penalty>
0.00509693

> <i_epik_Tot_Q>
1

> <i_epik_Tot_abs_Q>
1

> <r_epik_Metal_State_Penalty>
-0

> <b_epik_Metal_Only>
0

> <s_lp_Force_Field>
OPLS_2005

> <r_lp_Energy>
48.9332

> <b_lp_Chiralities_Consistent>
1

> <s_lp_Variant>
AV-unprocessed.smi:79-6

> <Gold.Version>
5.8.1

> <Gold.Id.Protein>
6NUR|6NUR_protein|mol2

> <Gold.PLP.Fitness>
40.9235

> <Gold.PLP.PLP>
-31.2170

> <Gold.PLP.part.hbond>
-3.6944

> <Gold.PLP.part.metal>
0.0000

> <Gold.PLP.part.buried>
-4.3501

> <Gold.PLP.part.nonpolar>
-23.7071

> <Gold.PLP.part.repulsive>
0.2935

> <Gold.PLP.ligand.clash>
1.2549

> <Gold.PLP.ligand.torsion>
0.8076

> <Gold.PLP.Chemscore.Hbond>
2.9280

> <Gold.PLP.Chemscore.CHOScore>
1.0000

> <Gold.PLP.Chemscore.Metal>
0.0000

> <Gold.Chemscore.Hbonds>
donor molecule, donor type, donor heavy atom, donor atom, acceptor molecule, acceptor atom, score
      L1  H     5    56       P1 10747  0.76
      P1  H 10785 10796       L1     3  0.80
      P1  H 11000 11005       L1    21  0.01

> <Gold.PLP.Chemscore.Internal.Correction>
0.7926

> <Gold.Rescore>
     Score         DG    S(hbond)    S(metal)    S(lipo)     H(rot)  DE(clash)    DE(int)     intcor
     11.61     -14.19       2.76        0.00      77.06       3.72       0.08       2.50       ----

> <Gold.Chemscore.Fitness>
11.6096

> <Gold.Chemscore.DG>
-14.1945

> <Gold.Chemscore.ZeroCoef>
-5.4800

> <Gold.Chemscore.Hbond>
2.7631

> <Gold.Chemscore.Metal>
0.0000

> <Gold.Chemscore.Lipo>
77.0552

> <Gold.Chemscore.Internal_Hbond>
0.0000

> <Gold.Chemscore.DEClash>
0.0842

> <Gold.Chemscore.DEInternal>
2.5006

> <Gold.Chemscore.Rot>
3.7226

> <Gold.Chemscore.Internal.Correction>
   9.000000E+99

> <Gold.Chemscore.Hbonds>
donor molecule, donor type, donor heavy atom, donor atom, acceptor molecule, acceptor atom, score
      L1  H     5    56       P1 10747  0.74
      P1  H 10785 10796       L1     3  0.68

> <Gold.Chemscore.Hbond.Weighted>
-9.2288

> <Gold.Chemscore.Metal.Weighted>
-0.0000

> <Gold.Chemscore.Lipo.Weighted>
-9.0155

> <Gold.Chemscore.Internal_Hbond.Weighted>
0.0000

> <Gold.Chemscore.DEClash.Weighted>
0.0842

> <Gold.Chemscore.DEInternal.Weighted>
2.5006

> <Gold.Chemscore.Rot.Weighted>
9.5298

> <Gold.Chemscore.Internal.Correction.Weighted>
   9.000000E+99

> <Gold.Protein.RotatedTorsions>
[ 6907 6896 6895 6894 ] final   26.01 input  -60.11 | X-H torsion
[ 7974 7965 7964 7962 ] final  173.44 input  175.53 | X-H torsion
[ 8008 7997 7996 7995 ] final  -13.58 input   59.86 | X-H torsion
[ 10167 10162 10161 10158 ] final   40.24 input  -65.29 | X-H torsion
[ 10718 10713 10712 10709 ] final  -50.63 input   66.30 | X-H torsion
[ 10763 10752 10751 10750 ] final  -72.23 input  -60.55 | X-H torsion
[ 11005 11000 10999 10996 ] final -129.10 input  -57.11 | X-H torsion

> <Gold.Protein.ActiveResidues>
 VAL166  LYS551  ARG553  GLY616  TRP617  ASP618  TYR619  PRO620  LYS621  CYS622 
 ASP623  PHE694  ASN695  SER759  ASP760  ASP761  ALA762  ILE779  LEU786  VAL792 
 PHE793  MET794  SER795  GLU796  ALA797  LYS798  CYS799  TRP800  GLU811  SER814 

> <Gold.Protein.RotatedAtoms>
  151.9810  135.0028  160.0557 H   0  0  0  0  0  0  0  0  0  0  0  0  # atno 6907 bound_to 6896
  152.1696  133.4630  159.4910 H   0  0  0  0  0  0  0  0  0  0  0  0  # atno 6908 bound_to 6896
  150.6899  134.1887  159.4320 H   0  0  0  0  0  0  0  0  0  0  0  0  # atno 6909 bound_to 6896
  144.7243  139.9648  143.6435 H   0  0  0  0  0  0  0  0  0  0  0  0  # atno 7974 bound_to 7965
  154.5281  140.2246  155.8854 H   0  0  0  0  0  0  0  0  0  0  0  0  # atno 8008 bound_to 7997
  156.1735  140.3116  155.8980 H   0  0  0  0  0  0  0  0  0  0  0  0  # atno 8009 bound_to 7997
  155.3509  140.0455  157.3036 H   0  0  0  0  0  0  0  0  0  0  0  0  # atno 8010 bound_to 7997
  140.3761  144.2041  150.6131 H   0  0  0  0  0  0  0  0  0  0  0  0  # atno 10167 bound_to 10162
  156.1783  130.4150  149.9545 H   0  0  0  0  0  0  0  0  0  0  0  0  # atno 10718 bound_to 10713
  154.4428  135.5936  153.6140 H   0  0  0  0  0  0  0  0  0  0  0  0  # atno 10763 bound_to 10752
  152.9807  135.6002  154.3701 H   0  0  0  0  0  0  0  0  0  0  0  0  # atno 10764 bound_to 10752
  154.3553  135.2841  155.2328 H   0  0  0  0  0  0  0  0  0  0  0  0  # atno 10765 bound_to 10752
  140.9460  134.1129  157.4107 H   0  0  0  0  0  0  0  0  0  0  0  0  # atno 11005 bound_to 11000
  146.0609  139.3602  143.0582 LP  0  0  0  0  0  0  0  0  0  0  0  0  # atno 17320 bound_to 7965
  145.8094  140.9733  143.0957 LP  0  0  0  0  0  0  0  0  0  0  0  0  # atno 17321 bound_to 7965
  140.4985  143.2325  151.8714 LP  0  0  0  0  0  0  0  0  0  0  0  0  # atno 17342 bound_to 10162
  139.4799  144.5087  151.8963 LP  0  0  0  0  0  0  0  0  0  0  0  0  # atno 17343 bound_to 10162
  156.7323  130.9048  151.3626 LP  0  0  0  0  0  0  0  0  0  0  0  0  # atno 17370 bound_to 10713
  157.6851  130.9177  150.0365 LP  0  0  0  0  0  0  0  0  0  0  0  0  # atno 17371 bound_to 10713
  139.8833  135.0051  156.6294 LP  0  0  0  0  0  0  0  0  0  0  0  0  # atno 17394 bound_to 11000
  140.7668  133.8771  155.8461 LP  0  0  0  0  0  0  0  0  0  0  0  0  # atno 17395 bound_to 11000

$$$$
