AV-unprocessed.smi:1533|AV-procd|sdf|6164|dock4
  -GOLD-   22720 6313D 1   1.00000     0.00000
 Structure written by MMmdl.
 37 39  0  0  0  0  0  0  0  0  1 V2000
  153.3570  138.4620  158.0304 C   0  0  0  0  0  0  0  0  0  0  0  0
  152.7033  139.1323  156.8703 C   0  0  0  0  0  0  0  0  0  0  0  0
  153.3805  139.4192  155.7650 N   0  0  0  0  0  0  0  0  0  0  0  0
  152.4171  140.0211  154.9426 O   0  0  0  0  0  0  0  0  0  0  0  0
  151.2727  140.0403  155.6676 C   0  0  0  0  0  0  0  0  0  0  0  0
  150.0333  140.5859  155.0418 C   0  0  0  0  0  0  0  0  0  0  0  0
  149.0151  141.0711  156.0859 C   0  0  0  0  0  0  0  0  0  0  0  0
  149.4585  142.2956  156.7422 N   0  0  0  0  0  0  0  0  0  0  0  0
  150.1633  142.3484  157.8828 C   0  0  0  0  0  0  0  0  0  0  0  0
  150.5209  141.3420  158.4962 O   0  0  0  0  0  0  0  0  0  0  0  0
  150.5364  143.7562  158.3806 C   0  0  2  0  0  0  0  0  0  0  0  0
  151.7491  144.3975  157.6617 C   0  0  0  0  0  0  0  0  0  0  0  0
  152.6693  144.8014  158.8290 C   0  0  2  0  0  0  0  0  0  0  0  0
  153.3136  143.5410  159.4363 C   0  0  0  0  0  0  0  0  0  0  0  0
  152.1450  142.9015  160.2080 C   0  0  0  0  0  0  0  0  0  0  0  0
  150.9622  143.8364  159.8711 C   0  0  1  0  0  0  0  0  0  0  0  0
  151.6603  145.1929  159.9029 C   0  0  0  0  0  0  0  0  0  0  0  0
  151.3880  139.4831  156.8707 N   0  0  0  0  0  0  0  0  0  0  0  0
  154.3935  138.2100  157.8029 H   0  0  0  0  0  0  0  0  0  0  0  0
  152.8268  137.5433  158.2820 H   0  0  0  0  0  0  0  0  0  0  0  0
  153.3444  139.1189  158.9003 H   0  0  0  0  0  0  0  0  0  0  0  0
  150.3138  141.4021  154.3747 H   0  0  0  0  0  0  0  0  0  0  0  0
  149.5903  139.8097  154.4166 H   0  0  0  0  0  0  0  0  0  0  0  0
  148.0587  141.2757  155.6035 H   0  0  0  0  0  0  0  0  0  0  0  0
  148.8280  140.2932  156.8285 H   0  0  0  0  0  0  0  0  0  0  0  0
  149.2109  143.1679  156.2974 H   0  0  0  0  0  0  0  0  0  0  0  0
  149.6727  144.4077  158.2333 H   0  0  0  0  0  0  0  0  0  0  0  0
  152.2555  143.7388  156.9547 H   0  0  0  0  0  0  0  0  0  0  0  0
  151.4309  145.2802  157.1055 H   0  0  0  0  0  0  0  0  0  0  0  0
  153.3896  145.5771  158.5677 H   0  0  0  0  0  0  0  0  0  0  0  0
  153.7183  142.8770  158.6715 H   0  0  0  0  0  0  0  0  0  0  0  0
  154.1248  143.8031  160.1166 H   0  0  0  0  0  0  0  0  0  0  0  0
  151.9772  141.8590  159.9404 H   0  0  0  0  0  0  0  0  0  0  0  0
  152.3481  142.9245  161.2796 H   0  0  0  0  0  0  0  0  0  0  0  0
  150.1262  143.7488  160.5656 H   0  0  0  0  0  0  0  0  0  0  0  0
  152.1208  145.4239  160.8653 H   0  0  0  0  0  0  0  0  0  0  0  0
  151.0144  146.0225  159.6093 H   0  0  0  0  0  0  0  0  0  0  0  0
  1  2  1  0  0  0  0
  1 19  1  0  0  0  0
  1 20  1  0  0  0  0
  1 21  1  0  0  0  0
  2 18  1  0  0  0  0
  2  3  2  0  0  0  0
  3  4  1  0  0  0  0
  4  5  1  0  0  0  0
  5  6  1  0  0  0  0
  5 18  2  0  0  0  0
  6  7  1  0  0  0  0
  6 22  1  0  0  0  0
  6 23  1  0  0  0  0
  7  8  1  0  0  0  0
  7 24  1  0  0  0  0
  7 25  1  0  0  0  0
  8  9  1  0  0  0  0
  8 26  1  0  0  0  0
  9 10  2  0  0  0  0
  9 11  1  0  0  0  0
 11 16  1  0  0  0  0
 11 12  1  0  0  0  0
 11 27  1  0  0  0  0
 12 13  1  0  0  0  0
 12 28  1  0  0  0  0
 12 29  1  0  0  0  0
 13 17  1  0  0  0  0
 13 14  1  0  0  0  0
 13 30  1  0  0  0  0
 14 15  1  0  0  0  0
 14 31  1  0  0  0  0
 14 32  1  0  0  0  0
 15 16  1  0  0  0  0
 15 33  1  0  0  0  0
 15 34  1  0  0  0  0
 16 17  1  0  0  0  0
 16 35  1  0  0  0  0
 17 36  1  0  0  0  0
 17 37  1  0  0  0  0
M  END
> <s_m_source_file>
AV-unprocessed.smi

> <i_m_source_file_index>
1533

> <i_lp_mmshare_version>
43012

> <i_f3d_flags>
0

> <s_epik_input>
W0NIM11jMW5vYyhuMSlbQ0gyXVtDSDJdW05IXUMoPU8pW0NASF0oW0NIMl1bQ0BASF0yMylbQ0BASF0oW0NIMl0zKVtDSDJdW0NIMl0y

> <s_epik_cmdline>
J2VwaWtfcHl0aG9uJywgJy1waCcsICc3LjAnLCAnLXRuJywgJzgnLCAnLW1hJywgJzIwMCcsICctbWV0YWxfYmluZGluZycsICctaW1hZScsICc8aW5maWxlLm1hZT4nLCAnLW9tYWUnLCAnPG91dGZpbGUubWFlPic=

> <r_lp_tautomer_probability>
1

> <r_epik_Ionization_Penalty>
1.90116e-08

> <r_epik_Ionization_Penalty_Charging>
0

> <r_epik_Ionization_Penalty_Neutral>
1.90116e-08

> <r_epik_State_Penalty>
-0

> <r_epik_Charging_Adjusted_Penalty>
0

> <i_epik_Tot_Q>
0

> <i_epik_Tot_abs_Q>
0

> <r_epik_Metal_State_Penalty>
-0

> <b_epik_Metal_Only>
0

> <s_lp_Force_Field>
OPLS_2005

> <r_lp_Energy>
42.9891

> <b_lp_Chiralities_Consistent>
1

> <s_lp_Variant>
AV-unprocessed.smi:1533-3

> <Gold.Version>
5.8.1

> <Gold.Id.Protein>
6NUR|6NUR_protein|mol2

> <Gold.PLP.Fitness>
45.6566

> <Gold.PLP.PLP>
-39.3804

> <Gold.PLP.part.hbond>
-3.0000

> <Gold.PLP.part.metal>
0.0000

> <Gold.PLP.part.buried>
-5.3729

> <Gold.PLP.part.nonpolar>
-31.1513

> <Gold.PLP.part.repulsive>
0.0838

> <Gold.PLP.ligand.clash>
0.0000

> <Gold.PLP.ligand.torsion>
1.0964

> <Gold.PLP.Chemscore.Hbond>
2.8160

> <Gold.PLP.Chemscore.CHOScore>
0.0000

> <Gold.PLP.Chemscore.Metal>
0.0000

> <Gold.Chemscore.Hbonds>
donor molecule, donor type, donor heavy atom, donor atom, acceptor molecule, acceptor atom, score
      L1  H     8    26       P1  8028  1.00
      P1  H  7989  7998       L1     4  0.46
      P1  H  7997  8010       L1     3  0.44

> <Gold.PLP.Chemscore.Internal.Correction>
0.0210

> <Gold.Rescore>
     Score         DG    S(hbond)    S(metal)    S(lipo)     H(rot)  DE(clash)    DE(int)     intcor
     17.08     -21.51       2.84        0.00      96.37       1.85       0.06       4.37       ----

> <Gold.Chemscore.Fitness>
17.0754

> <Gold.Chemscore.DG>
-21.5085

> <Gold.Chemscore.ZeroCoef>
-5.4800

> <Gold.Chemscore.Hbond>
2.8402

> <Gold.Chemscore.Metal>
0.0000

> <Gold.Chemscore.Lipo>
96.3724

> <Gold.Chemscore.Internal_Hbond>
0.0000

> <Gold.Chemscore.DEClash>
0.0613

> <Gold.Chemscore.DEInternal>
4.3718

> <Gold.Chemscore.Rot>
1.8490

> <Gold.Chemscore.Internal.Correction>
   9.000000E+99

> <Gold.Chemscore.Hbonds>
donor molecule, donor type, donor heavy atom, donor atom, acceptor molecule, acceptor atom, score
      L1  H     8    26       P1  8028  1.00
      P1  H  7989  7998       L1     4  0.06
      P1  H  7997  8010       L1     3  0.33

> <Gold.Chemscore.Hbond.Weighted>
-9.4863

> <Gold.Chemscore.Metal.Weighted>
-0.0000

> <Gold.Chemscore.Lipo.Weighted>
-11.2756

> <Gold.Chemscore.Internal_Hbond.Weighted>
0.0000

> <Gold.Chemscore.DEClash.Weighted>
0.0613

> <Gold.Chemscore.DEInternal.Weighted>
4.3718

> <Gold.Chemscore.Rot.Weighted>
4.7334

> <Gold.Chemscore.Internal.Correction.Weighted>
   9.000000E+99

> <Gold.Protein.RotatedTorsions>
[ 6907 6896 6895 6894 ] final  168.45 input  -60.11 | X-H torsion
[ 7974 7965 7964 7962 ] final -117.68 input  175.53 | X-H torsion
[ 8008 7997 7996 7995 ] final  101.49 input   59.86 | X-H torsion
[ 10167 10162 10161 10158 ] final   31.96 input  -65.29 | X-H torsion
[ 10718 10713 10712 10709 ] final  -58.46 input   66.30 | X-H torsion
[ 10763 10752 10751 10750 ] final  -98.32 input  -60.55 | X-H torsion
[ 11005 11000 10999 10996 ] final  -22.34 input  -57.11 | X-H torsion

> <Gold.Protein.ActiveResidues>
 VAL166  LYS551  ARG553  GLY616  TRP617  ASP618  TYR619  PRO620  LYS621  CYS622 
 ASP623  PHE694  ASN695  SER759  ASP760  ASP761  ALA762  ILE779  LEU786  VAL792 
 PHE793  MET794  SER795  GLU796  ALA797  LYS798  CYS799  TRP800  GLU811  SER814 

> <Gold.Protein.RotatedAtoms>
  151.8474  133.3434  159.3661 H   0  0  0  0  0  0  0  0  0  0  0  0  # atno 6907 bound_to 6896
  150.7216  134.5332  159.5720 H   0  0  0  0  0  0  0  0  0  0  0  0  # atno 6908 bound_to 6896
  152.2819  134.7820  160.0446 H   0  0  0  0  0  0  0  0  0  0  0  0  # atno 6909 bound_to 6896
  145.0825  140.8435  143.4030 H   0  0  0  0  0  0  0  0  0  0  0  0  # atno 7974 bound_to 7965
  156.1304  140.3196  155.8340 H   0  0  0  0  0  0  0  0  0  0  0  0  # atno 8008 bound_to 7997
  155.4342  140.0521  157.3033 H   0  0  0  0  0  0  0  0  0  0  0  0  # atno 8009 bound_to 7997
  154.4895  140.2086  155.9593 H   0  0  0  0  0  0  0  0  0  0  0  0  # atno 8010 bound_to 7997
  140.4542  144.1003  150.6198 H   0  0  0  0  0  0  0  0  0  0  0  0  # atno 10167 bound_to 10162
  156.1133  130.4173  150.0581 H   0  0  0  0  0  0  0  0  0  0  0  0  # atno 10718 bound_to 10713
  154.7404  135.5013  153.9113 H   0  0  0  0  0  0  0  0  0  0  0  0  # atno 10763 bound_to 10752
  153.1038  135.6692  153.9633 H   0  0  0  0  0  0  0  0  0  0  0  0  # atno 10764 bound_to 10752
  153.9411  135.3067  155.3422 H   0  0  0  0  0  0  0  0  0  0  0  0  # atno 10765 bound_to 10752
  140.8648  133.7762  156.0116 H   0  0  0  0  0  0  0  0  0  0  0  0  # atno 11005 bound_to 11000
  145.1161  139.2724  143.5612 LP  0  0  0  0  0  0  0  0  0  0  0  0  # atno 17320 bound_to 7965
  146.3531  140.0772  142.8620 LP  0  0  0  0  0  0  0  0  0  0  0  0  # atno 17321 bound_to 7965
  140.4171  143.2629  151.9761 LP  0  0  0  0  0  0  0  0  0  0  0  0  # atno 17342 bound_to 10162
  139.4799  144.5864  151.7846 LP  0  0  0  0  0  0  0  0  0  0  0  0  # atno 17343 bound_to 10162
  156.8538  130.9468  151.3623 LP  0  0  0  0  0  0  0  0  0  0  0  0  # atno 17370 bound_to 10713
  157.6315  130.8733  149.9283 LP  0  0  0  0  0  0  0  0  0  0  0  0  # atno 17371 bound_to 10713
  140.8642  134.2804  157.5221 LP  0  0  0  0  0  0  0  0  0  0  0  0  # atno 17394 bound_to 11000
  139.8708  134.9534  156.4143 LP  0  0  0  0  0  0  0  0  0  0  0  0  # atno 17395 bound_to 11000

$$$$
