AV-unprocessed.smi:1487|AV-procd|sdf|6015|dock7
  -GOLD-   22720 6113D 1   1.00000     0.00000
 Structure written by MMmdl.
 49 51  0  0  0  0  0  0  0  0  3 V2000
  152.3918  142.9019  160.6011 C   0  0  0  0  0  0  0  0  0  0  0  0
  152.0263  142.2164  159.2953 C   0  0  0  0  0  0  0  0  0  0  0  0
  151.0653  142.8273  158.4585 C   0  0  0  0  0  0  0  0  0  0  0  0
  150.7539  142.1772  157.2703 C   0  0  0  0  0  0  0  0  0  0  0  0
  149.8648  142.5183  156.2493 N   0  3  0  0  0  0  0  0  0  0  0  0
  149.9001  141.5648  155.2780 C   0  0  0  0  0  0  0  0  0  0  0  0
  150.8026  140.6207  155.6609 N   0  0  0  0  0  0  0  0  0  0  0  0
  151.2036  139.3815  154.9792 C   0  0  0  0  0  0  0  0  0  0  0  0
  150.0448  138.3781  154.8104 C   0  0  2  0  0  0  0  0  0  0  0  0
  150.5486  137.2834  154.0717 O   0  0  0  0  0  0  0  0  0  0  0  0
  148.8187  138.9680  154.0763 C   0  0  0  0  0  0  0  0  0  0  0  0
  147.8115  137.9447  153.6924 N   0  3  1  0  0  0  0  0  0  0  0  0
  147.4211  137.0447  154.8119 C   0  0  0  0  0  0  0  0  0  0  0  0
  146.4740  135.9335  154.3274 C   0  0  0  0  0  0  0  0  0  0  0  0
  145.2315  136.5253  153.6508 C   0  0  0  0  0  0  0  0  0  0  0  0
  145.6580  137.4718  152.5197 C   0  0  1  0  0  0  0  0  0  0  0  0
  144.5164  138.0910  151.9677 O   0  0  0  0  0  0  0  0  0  0  0  0
  146.6210  138.5531  153.0427 C   0  0  0  0  0  0  0  0  0  0  0  0
  151.3581  140.9588  156.9020 C   0  0  0  0  0  0  0  0  0  0  0  0
  152.3054  140.3429  157.7175 C   0  0  0  0  0  0  0  0  0  0  0  0
  152.6384  140.9902  158.9289 C   0  0  0  0  0  0  0  0  0  0  0  0
  153.6720  140.3432  159.8354 C   0  0  0  0  0  0  0  0  0  0  0  0
  151.8490  143.8393  160.7260 H   0  0  0  0  0  0  0  0  0  0  0  0
  153.4579  143.1290  160.6299 H   0  0  0  0  0  0  0  0  0  0  0  0
  152.1506  142.2617  161.4500 H   0  0  0  0  0  0  0  0  0  0  0  0
  150.5937  143.7600  158.7320 H   0  0  0  0  0  0  0  0  0  0  0  0
  149.3138  141.5571  154.3702 H   0  0  0  0  0  0  0  0  0  0  0  0
  151.6581  139.6266  154.0192 H   0  0  0  0  0  0  0  0  0  0  0  0
  151.9954  138.9329  155.5809 H   0  0  0  0  0  0  0  0  0  0  0  0
  149.7643  138.0177  155.7995 H   0  0  0  0  0  0  0  0  0  0  0  0
  150.1127  137.2489  153.2338 H   0  0  0  0  0  0  0  0  0  0  0  0
  148.3272  139.7260  154.6869 H   0  0  0  0  0  0  0  0  0  0  0  0
  149.1740  139.4806  153.1808 H   0  0  0  0  0  0  0  0  0  0  0  0
  148.3011  136.5817  155.2555 H   0  0  0  0  0  0  0  0  0  0  0  0
  146.9412  137.6282  155.5992 H   0  0  0  0  0  0  0  0  0  0  0  0
  146.9992  135.2834  153.6263 H   0  0  0  0  0  0  0  0  0  0  0  0
  146.1756  135.3054  155.1673 H   0  0  0  0  0  0  0  0  0  0  0  0
  144.5988  135.7261  153.2623 H   0  0  0  0  0  0  0  0  0  0  0  0
  144.6366  137.0658  154.3890 H   0  0  0  0  0  0  0  0  0  0  0  0
  146.1476  136.9000  151.7300 H   0  0  0  0  0  0  0  0  0  0  0  0
  144.4089  138.9406  152.3682 H   0  0  0  0  0  0  0  0  0  0  0  0
  146.1127  139.2033  153.7572 H   0  0  0  0  0  0  0  0  0  0  0  0
  146.9386  139.1831  152.2104 H   0  0  0  0  0  0  0  0  0  0  0  0
  152.7738  139.4090  157.4447 H   0  0  0  0  0  0  0  0  0  0  0  0
  154.0381  139.4046  159.4182 H   0  0  0  0  0  0  0  0  0  0  0  0
  153.2425  140.1269  160.8139 H   0  0  0  0  0  0  0  0  0  0  0  0
  154.5287  141.0036  159.9711 H   0  0  0  0  0  0  0  0  0  0  0  0
  148.2472  137.3681  152.9871 H   0  0  0  0  0  0  0  0  0  0  0  0
  149.2715  143.3379  156.2182 H   0  0  0  0  0  0  0  0  0  0  0  0
  1  2  1  0  0  0  0
  1 23  1  0  0  0  0
  1 24  1  0  0  0  0
  1 25  1  0  0  0  0
  2 21  1  0  0  0  0
  2  3  2  0  0  0  0
  3  4  1  0  0  0  0
  3 26  1  0  0  0  0
  4 19  2  0  0  0  0
  4  5  1  0  0  0  0
  5  6  2  0  0  0  0
  5 49  1  0  0  0  0
  6  7  1  0  0  0  0
  6 27  1  0  0  0  0
  7  8  1  0  0  0  0
  7 19  1  0  0  0  0
  8  9  1  0  0  0  0
  8 28  1  0  0  0  0
  8 29  1  0  0  0  0
  9 10  1  0  0  0  0
  9 11  1  0  0  0  0
  9 30  1  0  0  0  0
 10 31  1  0  0  0  0
 11 12  1  0  0  0  0
 11 32  1  0  0  0  0
 11 33  1  0  0  0  0
 12 18  1  0  0  0  0
 12 13  1  0  0  0  0
 12 48  1  0  0  0  0
 13 14  1  0  0  0  0
 13 34  1  0  0  0  0
 13 35  1  0  0  0  0
 14 15  1  0  0  0  0
 14 36  1  0  0  0  0
 14 37  1  0  0  0  0
 15 16  1  0  0  0  0
 15 38  1  0  0  0  0
 15 39  1  0  0  0  0
 16 17  1  0  0  0  0
 16 18  1  0  0  0  0
 16 40  1  0  0  0  0
 17 41  1  0  0  0  0
 18 42  1  0  0  0  0
 18 43  1  0  0  0  0
 19 20  1  0  0  0  0
 20 21  2  0  0  0  0
 20 44  1  0  0  0  0
 21 22  1  0  0  0  0
 22 45  1  0  0  0  0
 22 46  1  0  0  0  0
 22 47  1  0  0  0  0
M  CHG  1   5   1
M  CHG  1  12   1
M  END
> <s_m_source_file>
AV-unprocessed.smi

> <i_m_source_file_index>
1487

> <i_lp_mmshare_version>
43012

> <i_f3d_flags>
0

> <s_epik_input>
W0NIM11jKFtjSF0xKWMoW0NIM10pW2NIXWMoYzEyKW4oW2NIXW4yKVtDSDJdW0NASF0oW09IXSlbQ0gyXU4zW0NIMl1bQ0gyXVtDSDJdW0NAQEhdKFtPSF0pW0NIMl0z

> <s_epik_cmdline>
J2VwaWtfcHl0aG9uJywgJy1waCcsICc3LjAnLCAnLXRuJywgJzgnLCAnLW1hJywgJzIwMCcsICctbWV0YWxfYmluZGluZycsICctaW1hZScsICc8aW5maWxlLm1hZT4nLCAnLW9tYWUnLCAnPG91dGZpbGUubWFlPic=

> <r_epik_Ionization_Penalty>
1.1857

> <r_epik_Ionization_Penalty_Charging>
1.1857

> <r_epik_Ionization_Penalty_Neutral>
1.75578e-06

> <r_epik_State_Penalty>
1.26953

> <r_epik_Charging_Adjusted_Penalty>
2.45524

> <i_epik_Tot_Q>
2

> <i_epik_Tot_abs_Q>
2

> <r_epik_Metal_State_Penalty>
5.28243

> <b_epik_Metal_Only>
0

> <s_lp_Force_Field>
OPLS_2005

> <r_lp_Energy>
33.096

> <b_lp_Chiralities_Consistent>
1

> <s_lp_Variant>
AV-unprocessed.smi:1487-9

> <Gold.Version>
5.8.1

> <Gold.Id.Protein>
6NUR|6NUR_protein|mol2

> <Gold.PLP.Fitness>
58.8089

> <Gold.PLP.PLP>
-41.4183

> <Gold.PLP.part.hbond>
-5.3091

> <Gold.PLP.part.metal>
0.0000

> <Gold.PLP.part.buried>
-3.6321

> <Gold.PLP.part.nonpolar>
-32.3099

> <Gold.PLP.part.repulsive>
0.1094

> <Gold.PLP.ligand.clash>
0.0000

> <Gold.PLP.ligand.torsion>
0.0984

> <Gold.PLP.Chemscore.Hbond>
5.8500

> <Gold.PLP.Chemscore.CHOScore>
0.0000

> <Gold.PLP.Chemscore.Metal>
0.0000

> <Gold.Chemscore.Hbonds>
donor molecule, donor type, donor heavy atom, donor atom, acceptor molecule, acceptor atom, score
      L1  H     5    49       P1  8028  2.00
      L1  H    10    31       P1  7948  0.85
      L1  H    12    48       P1  7948  2.00
      L1  H    17    41       P1 10175  1.00

> <Gold.PLP.Chemscore.Internal.Correction>
0.0374

> <Gold.Rescore>
     Score         DG    S(hbond)    S(metal)    S(lipo)     H(rot)  DE(clash)    DE(int)     intcor
     20.85     -21.12       3.33        0.00      98.64       2.74       0.17       0.11       ----

> <Gold.Chemscore.Fitness>
20.8509

> <Gold.Chemscore.DG>
-21.1239

> <Gold.Chemscore.ZeroCoef>
-5.4800

> <Gold.Chemscore.Hbond>
3.3272

> <Gold.Chemscore.Metal>
0.0000

> <Gold.Chemscore.Lipo>
98.6442

> <Gold.Chemscore.Internal_Hbond>
0.0000

> <Gold.Chemscore.DEClash>
0.1669

> <Gold.Chemscore.DEInternal>
0.1061

> <Gold.Chemscore.Rot>
2.7384

> <Gold.Chemscore.Internal.Correction>
   9.000000E+99

> <Gold.Chemscore.Hbonds>
donor molecule, donor type, donor heavy atom, donor atom, acceptor molecule, acceptor atom, score
      L1  H     5    49       P1  8028  0.92
      L1  H    10    31       P1  7948  0.13
      L1  H    12    48       P1  7948  1.00
      L1  H    17    41       P1 10175  0.95

> <Gold.Chemscore.Hbond.Weighted>
-11.1129

> <Gold.Chemscore.Metal.Weighted>
-0.0000

> <Gold.Chemscore.Lipo.Weighted>
-11.5414

> <Gold.Chemscore.Internal_Hbond.Weighted>
0.0000

> <Gold.Chemscore.DEClash.Weighted>
0.1669

> <Gold.Chemscore.DEInternal.Weighted>
0.1061

> <Gold.Chemscore.Rot.Weighted>
7.0103

> <Gold.Chemscore.Internal.Correction.Weighted>
   9.000000E+99

> <Gold.Protein.RotatedTorsions>
[ 6907 6896 6895 6894 ] final   80.70 input  -60.11 | X-H torsion
[ 7974 7965 7964 7962 ] final  -94.26 input  175.53 | X-H torsion
[ 8008 7997 7996 7995 ] final   90.43 input   59.86 | X-H torsion
[ 10167 10162 10161 10158 ] final -166.38 input  -65.29 | X-H torsion
[ 10718 10713 10712 10709 ] final -162.87 input   66.30 | X-H torsion
[ 10763 10752 10751 10750 ] final   32.53 input  -60.55 | X-H torsion
[ 11005 11000 10999 10996 ] final  159.39 input  -57.11 | X-H torsion

> <Gold.Protein.ActiveResidues>
 VAL166  LYS551  ARG553  GLY616  TRP617  ASP618  TYR619  PRO620  LYS621  CYS622 
 ASP623  PHE694  ASN695  SER759  ASP760  ASP761  ALA762  ILE779  LEU786  VAL792 
 PHE793  MET794  SER795  GLU796  ALA797  LYS798  CYS799  TRP800  GLU811  SER814 

> <Gold.Protein.RotatedAtoms>
  152.5244  134.3318  159.9185 H   0  0  0  0  0  0  0  0  0  0  0  0  # atno 6907 bound_to 6896
  151.3267  133.4011  159.2667 H   0  0  0  0  0  0  0  0  0  0  0  0  # atno 6908 bound_to 6896
  150.9914  134.9265  159.7959 H   0  0  0  0  0  0  0  0  0  0  0  0  # atno 6909 bound_to 6896
  145.3756  140.9511  143.2422 H   0  0  0  0  0  0  0  0  0  0  0  0  # atno 7974 bound_to 7965
  156.0119  140.3349  155.6949 H   0  0  0  0  0  0  0  0  0  0  0  0  # atno 8008 bound_to 7997
  155.6146  140.0669  157.2714 H   0  0  0  0  0  0  0  0  0  0  0  0  # atno 8009 bound_to 7997
  154.4284  140.1787  156.1295 H   0  0  0  0  0  0  0  0  0  0  0  0  # atno 8010 bound_to 7997
  139.6119  144.0798  152.1850 H   0  0  0  0  0  0  0  0  0  0  0  0  # atno 10167 bound_to 10162
  156.6166  130.8872  151.2948 H   0  0  0  0  0  0  0  0  0  0  0  0  # atno 10718 bound_to 10713
  153.0257  135.6410  154.1370 H   0  0  0  0  0  0  0  0  0  0  0  0  # atno 10763 bound_to 10752
  154.1099  135.2853  155.3234 H   0  0  0  0  0  0  0  0  0  0  0  0  # atno 10764 bound_to 10752
  154.6339  135.5483  153.7774 H   0  0  0  0  0  0  0  0  0  0  0  0  # atno 10765 bound_to 10752
  140.1957  134.8374  157.2962 H   0  0  0  0  0  0  0  0  0  0  0  0  # atno 11005 bound_to 11000
  144.8545  139.5271  143.6841 LP  0  0  0  0  0  0  0  0  0  0  0  0  # atno 17320 bound_to 7965
  146.2865  139.7020  142.9191 LP  0  0  0  0  0  0  0  0  0  0  0  0  # atno 17321 bound_to 7965
  140.0418  144.6001  150.7405 LP  0  0  0  0  0  0  0  0  0  0  0  0  # atno 17342 bound_to 10162
  140.7325  143.2706  151.3901 LP  0  0  0  0  0  0  0  0  0  0  0  0  # atno 17343 bound_to 10162
  157.7239  130.9596  150.1554 LP  0  0  0  0  0  0  0  0  0  0  0  0  # atno 17370 bound_to 10713
  156.2346  130.3685  149.8406 LP  0  0  0  0  0  0  0  0  0  0  0  0  # atno 17371 bound_to 10713
  140.2109  134.4139  155.7613 LP  0  0  0  0  0  0  0  0  0  0  0  0  # atno 17394 bound_to 11000
  141.2227  133.7118  156.8337 LP  0  0  0  0  0  0  0  0  0  0  0  0  # atno 17395 bound_to 11000

$$$$
