AV-unprocessed.smi:1159|AV-procd|sdf|4914|dock1
  -GOLD-   22720 3493D 1   1.00000     0.00000
 Structure written by MMmdl.
 41 42  0  0  0  0  0  0  0  0  1 V2000
  146.2273  137.7288  154.9905 O   0  0  0  0  0  0  0  0  0  0  0  0
  147.0604  137.3970  154.1481 C   0  0  0  0  0  0  0  0  0  0  0  0
  148.2883  137.9271  154.0100 N   0  0  0  0  0  0  0  0  0  0  0  0
  148.9008  138.9831  154.7402 C   0  0  0  0  0  0  0  0  0  0  0  0
  148.3701  139.5665  155.9164 C   0  0  0  0  0  0  0  0  0  0  0  0
  149.0749  140.6188  156.5321 C   0  0  0  0  0  0  0  0  0  0  0  0
  150.2813  141.0623  155.9557 C   0  0  0  0  0  0  0  0  0  0  0  0
  150.9626  142.0955  156.5650 O   0  0  0  0  0  0  0  0  0  0  0  0
  150.5699  142.4897  157.8772 C   0  0  0  0  0  0  0  0  0  0  0  0
  151.5579  143.5358  158.4073 C   0  0  0  0  0  0  0  0  0  0  0  0
  151.8246  144.4174  157.4444 F   0  0  0  0  0  0  0  0  0  0  0  0
  151.0299  144.1839  159.4453 F   0  0  0  0  0  0  0  0  0  0  0  0
  152.6958  142.9494  158.7777 F   0  0  0  0  0  0  0  0  0  0  0  0
  150.7916  140.5151  154.8252 N   0  0  0  0  0  0  0  0  0  0  0  0
  150.1115  139.5064  154.2404 C   0  0  0  0  0  0  0  0  0  0  0  0
  146.8490  136.4301  153.2424 N   0  0  0  0  0  0  0  0  0  0  0  0
  145.6087  135.6653  153.0893 C   0  0  2  0  0  0  0  0  0  0  0  0
  145.7987  134.7036  151.8938 C   0  0  0  0  0  0  0  0  0  0  0  0
  144.8519  133.4911  151.9147 C   0  0  0  0  0  0  0  0  0  0  0  0
  143.3617  133.8297  151.7578 C   0  0  0  0  0  0  0  0  0  0  0  0
  142.8023  134.6984  152.8969 C   0  0  0  0  0  0  0  0  0  0  0  0
  143.1785  136.0988  152.7541 N   0  0  0  0  0  0  0  0  0  0  0  0
  144.4185  136.6097  152.7987 C   0  0  0  0  0  0  0  0  0  0  0  0
  144.6019  137.8117  152.6058 O   0  0  0  0  0  0  0  0  0  0  0  0
  148.8710  137.5035  153.3028 H   0  0  0  0  0  0  0  0  0  0  0  0
  147.4394  139.2444  156.3549 H   0  0  0  0  0  0  0  0  0  0  0  0
  148.6924  141.0814  157.4301 H   0  0  0  0  0  0  0  0  0  0  0  0
  149.5634  142.9112  157.8599 H   0  0  0  0  0  0  0  0  0  0  0  0
  150.5593  141.6256  158.5438 H   0  0  0  0  0  0  0  0  0  0  0  0
  150.5524  139.1027  153.3405 H   0  0  0  0  0  0  0  0  0  0  0  0
  147.5891  136.2241  152.5879 H   0  0  0  0  0  0  0  0  0  0  0  0
  145.4231  135.0973  154.0027 H   0  0  0  0  0  0  0  0  0  0  0  0
  145.7098  135.2358  150.9451 H   0  0  0  0  0  0  0  0  0  0  0  0
  146.8170  134.3113  151.9128 H   0  0  0  0  0  0  0  0  0  0  0  0
  145.1382  132.8140  151.1094 H   0  0  0  0  0  0  0  0  0  0  0  0
  145.0012  132.9309  152.8384 H   0  0  0  0  0  0  0  0  0  0  0  0
  143.1834  134.3101  150.7949 H   0  0  0  0  0  0  0  0  0  0  0  0
  142.8029  132.8936  151.7320 H   0  0  0  0  0  0  0  0  0  0  0  0
  141.7132  134.6565  152.8773 H   0  0  0  0  0  0  0  0  0  0  0  0
  143.1065  134.3172  153.8727 H   0  0  0  0  0  0  0  0  0  0  0  0
  142.4239  136.7451  152.5729 H   0  0  0  0  0  0  0  0  0  0  0  0
  1  2  2  0  0  0  0
  2  3  1  0  0  0  0
  2 16  1  0  0  0  0
  3  4  1  0  0  0  0
  3 25  1  0  0  0  0
  4 15  1  0  0  0  0
  4  5  2  0  0  0  0
  5  6  1  0  0  0  0
  5 26  1  0  0  0  0
  6  7  2  0  0  0  0
  6 27  1  0  0  0  0
  7  8  1  0  0  0  0
  7 14  1  0  0  0  0
  8  9  1  0  0  0  0
  9 10  1  0  0  0  0
  9 28  1  0  0  0  0
  9 29  1  0  0  0  0
 10 11  1  0  0  0  0
 10 12  1  0  0  0  0
 10 13  1  0  0  0  0
 14 15  2  0  0  0  0
 15 30  1  0  0  0  0
 16 17  1  0  0  0  0
 16 31  1  0  0  0  0
 17 23  1  0  0  0  0
 17 18  1  0  0  0  0
 17 32  1  0  0  0  0
 18 19  1  0  0  0  0
 18 33  1  0  0  0  0
 18 34  1  0  0  0  0
 19 20  1  0  0  0  0
 19 35  1  0  0  0  0
 19 36  1  0  0  0  0
 20 21  1  0  0  0  0
 20 37  1  0  0  0  0
 20 38  1  0  0  0  0
 21 22  1  0  0  0  0
 21 39  1  0  0  0  0
 21 40  1  0  0  0  0
 22 23  1  0  0  0  0
 22 41  1  0  0  0  0
 23 24  2  0  0  0  0
M  END
> <s_m_source_file>
AV-unprocessed.smi

> <i_m_source_file_index>
1159

> <i_lp_mmshare_version>
43012

> <i_f3d_flags>
0

> <s_epik_input>
Tz1DMVtOSF1bQ0gyXVtDSDJdW0NIMl1bQ0gyXVtDQEhdMVtOSF1DKD1PKVtOSF1jMltjSF1bY0hdYyhuW2NIXTIpT1tDSDJdQyhGKShGKUY=

> <s_epik_cmdline>
J2VwaWtfcHl0aG9uJywgJy1waCcsICc3LjAnLCAnLXRuJywgJzgnLCAnLW1hJywgJzIwMCcsICctbWV0YWxfYmluZGluZycsICctaW1hZScsICc8aW5maWxlLm1hZT4nLCAnLW9tYWUnLCAnPG91dGZpbGUubWFlPic=

> <r_lp_tautomer_probability>
1

> <r_epik_Ionization_Penalty>
3.53205e-05

> <r_epik_Ionization_Penalty_Charging>
0

> <r_epik_Ionization_Penalty_Neutral>
3.53205e-05

> <r_epik_State_Penalty>
-0

> <r_epik_Charging_Adjusted_Penalty>
0

> <i_epik_Tot_Q>
0

> <i_epik_Tot_abs_Q>
0

> <r_epik_Metal_State_Penalty>
-0

> <b_epik_Metal_Only>
0

> <s_lp_Force_Field>
OPLS_2005

> <r_lp_Energy>
13.2476

> <b_lp_Chiralities_Consistent>
1

> <s_lp_Variant>
AV-unprocessed.smi:1159-1

> <Gold.Version>
5.8.1

> <Gold.Id.Protein>
6NUR|6NUR_protein|mol2

> <Gold.PLP.Fitness>
43.1524

> <Gold.PLP.PLP>
-33.8168

> <Gold.PLP.part.hbond>
-2.9508

> <Gold.PLP.part.metal>
0.0000

> <Gold.PLP.part.buried>
-3.9233

> <Gold.PLP.part.nonpolar>
-29.0718

> <Gold.PLP.part.repulsive>
3.2723

> <Gold.PLP.ligand.clash>
0.1168

> <Gold.PLP.ligand.torsion>
0.3667

> <Gold.PLP.Chemscore.Hbond>
2.6940

> <Gold.PLP.Chemscore.CHOScore>
0.6813

> <Gold.PLP.Chemscore.Metal>
0.0000

> <Gold.Chemscore.Hbonds>
donor molecule, donor type, donor heavy atom, donor atom, acceptor molecule, acceptor atom, score
      L1  H     3    25       P1  7948  0.94
      L1  H    16    31       P1  7948  1.00
      P1  H  7989  7998       L1    14  0.75
      L1  C    15    30       P1  7957  0.71

> <Gold.PLP.Chemscore.Internal.Correction>
0.0598

> <Gold.Rescore>
     Score         DG    S(hbond)    S(metal)    S(lipo)     H(rot)  DE(clash)    DE(int)     intcor
     12.93     -16.46       2.68        0.00      56.93       1.81       1.31       2.22       ----

> <Gold.Chemscore.Fitness>
12.9320

> <Gold.Chemscore.DG>
-16.4594

> <Gold.Chemscore.ZeroCoef>
-5.4800

> <Gold.Chemscore.Hbond>
2.6772

> <Gold.Chemscore.Metal>
0.0000

> <Gold.Chemscore.Lipo>
56.9339

> <Gold.Chemscore.Internal_Hbond>
0.0000

> <Gold.Chemscore.DEClash>
1.3053

> <Gold.Chemscore.DEInternal>
2.2221

> <Gold.Chemscore.Rot>
1.8062

> <Gold.Chemscore.Internal.Correction>
   9.000000E+99

> <Gold.Chemscore.Hbonds>
donor molecule, donor type, donor heavy atom, donor atom, acceptor molecule, acceptor atom, score
      L1  H     3    25       P1  7948  0.91
      L1  H    16    31       P1  7948  0.94
      P1  H  7989  7998       L1    14  0.09

> <Gold.Chemscore.Hbond.Weighted>
-8.9419

> <Gold.Chemscore.Metal.Weighted>
-0.0000

> <Gold.Chemscore.Lipo.Weighted>
-6.6613

> <Gold.Chemscore.Internal_Hbond.Weighted>
0.0000

> <Gold.Chemscore.DEClash.Weighted>
1.3053

> <Gold.Chemscore.DEInternal.Weighted>
2.2221

> <Gold.Chemscore.Rot.Weighted>
4.6238

> <Gold.Chemscore.Internal.Correction.Weighted>
   9.000000E+99

> <Gold.Protein.RotatedTorsions>
[ 6907 6896 6895 6894 ] final   77.36 input  -60.11 | X-H torsion
[ 7974 7965 7964 7962 ] final   84.82 input  175.53 | X-H torsion
[ 8008 7997 7996 7995 ] final  -60.72 input   59.86 | X-H torsion
[ 10167 10162 10161 10158 ] final   52.91 input  -65.29 | X-H torsion
[ 10718 10713 10712 10709 ] final  -27.31 input   66.30 | X-H torsion
[ 10763 10752 10751 10750 ] final   97.15 input  -60.55 | X-H torsion
[ 11005 11000 10999 10996 ] final  -77.75 input  -57.11 | X-H torsion

> <Gold.Protein.ActiveResidues>
 VAL166  LYS551  ARG553  GLY616  TRP617  ASP618  TYR619  PRO620  LYS621  CYS622 
 ASP623  PHE694  ASN695  SER759  ASP760  ASP761  ALA762  ILE779  LEU786  VAL792 
 PHE793  MET794  SER795  GLU796  ALA797  LYS798  CYS799  TRP800  GLU811  SER814 

> <Gold.Protein.RotatedAtoms>
  152.5114  134.3828  159.9356 H   0  0  0  0  0  0  0  0  0  0  0  0  # atno 6907 bound_to 6896
  151.3786  133.3823  159.2715 H   0  0  0  0  0  0  0  0  0  0  0  0  # atno 6908 bound_to 6896
  150.9522  134.8941  159.7738 H   0  0  0  0  0  0  0  0  0  0  0  0  # atno 6909 bound_to 6896
  145.5936  139.2341  143.2285 H   0  0  0  0  0  0  0  0  0  0  0  0  # atno 7974 bound_to 7965
  154.4412  140.1033  156.6317 H   0  0  0  0  0  0  0  0  0  0  0  0  # atno 8008 bound_to 7997
  155.5597  140.3487  155.4470 H   0  0  0  0  0  0  0  0  0  0  0  0  # atno 8009 bound_to 7997
  156.0468  140.1295  157.0083 H   0  0  0  0  0  0  0  0  0  0  0  0  # atno 8010 bound_to 7997
  140.2464  144.3527  150.6363 H   0  0  0  0  0  0  0  0  0  0  0  0  # atno 10167 bound_to 10162
  156.4398  130.4462  149.7060 H   0  0  0  0  0  0  0  0  0  0  0  0  # atno 10718 bound_to 10713
  153.2734  135.4193  155.1010 H   0  0  0  0  0  0  0  0  0  0  0  0  # atno 10763 bound_to 10752
  154.8464  135.3477  154.6212 H   0  0  0  0  0  0  0  0  0  0  0  0  # atno 10764 bound_to 10752
  153.6632  135.7047  153.5228 H   0  0  0  0  0  0  0  0  0  0  0  0  # atno 10765 bound_to 10752
  141.1662  133.7035  156.7867 H   0  0  0  0  0  0  0  0  0  0  0  0  # atno 11005 bound_to 11000
  146.1628  140.6762  142.9269 LP  0  0  0  0  0  0  0  0  0  0  0  0  # atno 17320 bound_to 7965
  144.7340  140.4755  143.6917 LP  0  0  0  0  0  0  0  0  0  0  0  0  # atno 17321 bound_to 7965
  140.6074  143.2168  151.6953 LP  0  0  0  0  0  0  0  0  0  0  0  0  # atno 17342 bound_to 10162
  139.5060  144.3696  152.0483 LP  0  0  0  0  0  0  0  0  0  0  0  0  # atno 17343 bound_to 10162
  156.3929  130.7636  151.2639 LP  0  0  0  0  0  0  0  0  0  0  0  0  # atno 17370 bound_to 10713
  157.7506  131.0262  150.3953 LP  0  0  0  0  0  0  0  0  0  0  0  0  # atno 17371 bound_to 10713
  140.2355  134.8653  157.3520 LP  0  0  0  0  0  0  0  0  0  0  0  0  # atno 17394 bound_to 11000
  140.1848  134.4444  155.7750 LP  0  0  0  0  0  0  0  0  0  0  0  0  # atno 17395 bound_to 11000

$$$$
