AV-unprocessed.smi:73|AV-procd|sdf|760|dock7
  -GOLD-   2262017 93D 1   1.00000     0.00000
 Structure written by MMmdl.
 35 36  0  0  0  0  0  0  0  0  2 V2000
  150.8042  138.0593  154.3753 C   0  0  0  0  0  0  0  0  0  0  0  0
  149.5934  138.4334  155.2439 C   0  0  0  0  0  0  0  0  0  0  0  0
  149.3433  139.8730  155.4562 N   0  0  0  0  0  0  0  0  0  0  0  0
  150.6023  140.6427  155.4416 C   0  0  0  0  0  0  0  0  0  0  0  0
  151.5557  140.3176  156.5457 C   0  0  0  0  0  0  0  0  0  0  0  0
  152.5403  139.4162  156.5251 N   0  0  0  0  0  0  0  0  0  0  0  0
  153.1378  139.4862  157.7640 N   0  0  0  0  0  0  0  0  0  0  0  0
  152.4739  140.4306  158.4348 C   0  0  0  0  0  0  0  0  0  0  0  0
  152.7221  140.8984  159.8274 C   0  0  0  0  0  0  0  0  0  0  0  0
  151.4696  140.9983  157.7186 O   0  0  0  0  0  0  0  0  0  0  0  0
  148.4013  140.3901  154.4408 C   0  0  1  0  0  0  0  0  0  0  0  0
  146.9889  139.7549  154.4567 C   0  0  0  0  0  0  0  0  0  0  0  0
  146.0074  140.8078  154.1329 N   0  3  0  0  0  0  0  0  0  0  0  0
  146.7429  142.0391  153.8144 C   0  0  0  0  0  0  0  0  0  0  0  0
  148.0812  141.8994  154.5340 C   0  0  1  0  0  0  0  0  0  0  0  0
  147.9063  142.3189  155.8764 O   0  0  0  0  0  0  0  0  0  0  0  0
  148.8440  142.5201  154.0627 H   0  0  0  0  0  0  0  0  0  0  0  0
  151.0302  136.9980  154.4795 H   0  0  0  0  0  0  0  0  0  0  0  0
  151.6939  138.6153  154.6727 H   0  0  0  0  0  0  0  0  0  0  0  0
  150.6240  138.2350  153.3159 H   0  0  0  0  0  0  0  0  0  0  0  0
  148.6979  137.9558  154.8432 H   0  0  0  0  0  0  0  0  0  0  0  0
  149.7739  137.9487  156.2017 H   0  0  0  0  0  0  0  0  0  0  0  0
  151.1086  140.5199  154.4829 H   0  0  0  0  0  0  0  0  0  0  0  0
  150.4092  141.7086  155.5392 H   0  0  0  0  0  0  0  0  0  0  0  0
  153.4591  140.2610  160.3164 H   0  0  0  0  0  0  0  0  0  0  0  0
  151.7966  140.8684  160.4028 H   0  0  0  0  0  0  0  0  0  0  0  0
  153.0968  141.9221  159.8154 H   0  0  0  0  0  0  0  0  0  0  0  0
  148.8222  140.2127  153.4494 H   0  0  0  0  0  0  0  0  0  0  0  0
  146.9126  138.9320  153.7454 H   0  0  0  0  0  0  0  0  0  0  0  0
  146.7368  139.3686  155.4450 H   0  0  0  0  0  0  0  0  0  0  0  0
  145.4123  140.5338  153.3643 H   0  0  0  0  0  0  0  0  0  0  0  0
  146.9054  142.0685  152.7361 H   0  0  0  0  0  0  0  0  0  0  0  0
  146.1852  142.9340  154.0939 H   0  0  0  0  0  0  0  0  0  0  0  0
  148.2520  143.1946  155.9657 H   0  0  0  0  0  0  0  0  0  0  0  0
  145.4459  140.9755  154.9557 H   0  0  0  0  0  0  0  0  0  0  0  0
  1  2  1  0  0  0  0
  1 18  1  0  0  0  0
  1 19  1  0  0  0  0
  1 20  1  0  0  0  0
  2  3  1  0  0  0  0
  2 21  1  0  0  0  0
  2 22  1  0  0  0  0
  3  4  1  0  0  0  0
  3 11  1  0  0  0  0
  4  5  1  0  0  0  0
  4 23  1  0  0  0  0
  4 24  1  0  0  0  0
  5 10  1  0  0  0  0
  5  6  2  0  0  0  0
  6  7  1  0  0  0  0
  7  8  2  0  0  0  0
  8  9  1  0  0  0  0
  8 10  1  0  0  0  0
  9 25  1  0  0  0  0
  9 26  1  0  0  0  0
  9 27  1  0  0  0  0
 11 15  1  0  0  0  0
 11 12  1  0  0  0  0
 11 28  1  0  0  0  0
 12 13  1  0  0  0  0
 12 29  1  0  0  0  0
 12 30  1  0  0  0  0
 13 14  1  0  0  0  0
 13 31  1  0  0  0  0
 13 35  1  0  0  0  0
 14 15  1  0  0  0  0
 14 32  1  0  0  0  0
 14 33  1  0  0  0  0
 15 17  1  0  0  0  0
 15 16  1  0  0  0  0
 16 34  1  0  0  0  0
M  CHG  1  13   1
M  END
> <s_m_source_file>
AV-unprocessed.smi

> <i_m_source_file_index>
73

> <i_lp_mmshare_version>
43012

> <i_f3d_flags>
0

> <s_epik_input>
W09IXVtDQEBIXTFbQ0gyXVtOSF1bQ0gyXVtDQEhdMU4oW0NIMl1bQ0gzXSlbQ0gyXWMybm5jKG8yKVtDSDNd

> <s_epik_cmdline>
J2VwaWtfcHl0aG9uJywgJy1waCcsICc3LjAnLCAnLXRuJywgJzgnLCAnLW1hJywgJzIwMCcsICctbWV0YWxfYmluZGluZycsICctaW1hZScsICc8aW5maWxlLm1hZT4nLCAnLW9tYWUnLCAnPG91dGZpbGUubWFlPic=

> <r_lp_tautomer_probability>
1

> <r_epik_Ionization_Penalty>
0.00160433

> <r_epik_Ionization_Penalty_Charging>
0.000122314

> <r_epik_Ionization_Penalty_Neutral>
0.00148202

> <r_epik_State_Penalty>
-0

> <r_epik_Charging_Adjusted_Penalty>
0.000122314

> <i_epik_Tot_Q>
1

> <i_epik_Tot_abs_Q>
1

> <r_epik_Metal_State_Penalty>
-0

> <b_epik_Metal_Only>
0

> <s_lp_Force_Field>
OPLS_2005

> <r_lp_Energy>
44.8836

> <b_lp_Chiralities_Consistent>
1

> <s_lp_Variant>
AV-unprocessed.smi:73-2

> <Gold.Version>
5.8.1

> <Gold.Id.Protein>
6NUR|6NUR_protein|mol2

> <Gold.PLP.Fitness>
37.1618

> <Gold.PLP.PLP>
-26.7532

> <Gold.PLP.part.hbond>
-4.0000

> <Gold.PLP.part.metal>
0.0000

> <Gold.PLP.part.buried>
-2.3278

> <Gold.PLP.part.nonpolar>
-20.6074

> <Gold.PLP.part.repulsive>
0.0461

> <Gold.PLP.ligand.clash>
0.0000

> <Gold.PLP.ligand.torsion>
0.8064

> <Gold.PLP.Chemscore.Hbond>
4.0000

> <Gold.PLP.Chemscore.CHOScore>
0.0000

> <Gold.PLP.Chemscore.Metal>
0.0000

> <Gold.Chemscore.Hbonds>
donor molecule, donor type, donor heavy atom, donor atom, acceptor molecule, acceptor atom, score
      L1  H    13    31       P1 10175  2.00
      L1  H    16    34       P1  8028  1.00
      P1  H  7997  8010       L1     7  0.50

> <Gold.PLP.Chemscore.Internal.Correction>
0.0214

> <Gold.Rescore>
     Score         DG    S(hbond)    S(metal)    S(lipo)     H(rot)  DE(clash)    DE(int)     intcor
     10.56     -11.50       1.89        0.00      52.40       2.51       0.31       0.63       ----

> <Gold.Chemscore.Fitness>
10.5622

> <Gold.Chemscore.DG>
-11.4973

> <Gold.Chemscore.ZeroCoef>
-5.4800

> <Gold.Chemscore.Hbond>
1.8861

> <Gold.Chemscore.Metal>
0.0000

> <Gold.Chemscore.Lipo>
52.3999

> <Gold.Chemscore.Internal_Hbond>
0.0000

> <Gold.Chemscore.DEClash>
0.3088

> <Gold.Chemscore.DEInternal>
0.6263

> <Gold.Chemscore.Rot>
2.5051

> <Gold.Chemscore.Internal.Correction>
   9.000000E+99

> <Gold.Chemscore.Hbonds>
donor molecule, donor type, donor heavy atom, donor atom, acceptor molecule, acceptor atom, score
      L1  H    13    31       P1 10175  0.91
      L1  H    16    34       P1  8028  0.78
      P1  H  7997  8010       L1     7  0.02

> <Gold.Chemscore.Hbond.Weighted>
-6.2995

> <Gold.Chemscore.Metal.Weighted>
-0.0000

> <Gold.Chemscore.Lipo.Weighted>
-6.1308

> <Gold.Chemscore.Internal_Hbond.Weighted>
0.0000

> <Gold.Chemscore.DEClash.Weighted>
0.3088

> <Gold.Chemscore.DEInternal.Weighted>
0.6263

> <Gold.Chemscore.Rot.Weighted>
6.4131

> <Gold.Chemscore.Internal.Correction.Weighted>
   9.000000E+99

> <Gold.Protein.RotatedTorsions>
[ 6907 6896 6895 6894 ] final  -98.51 input  -60.11 | X-H torsion
[ 7974 7965 7964 7962 ] final  -32.43 input  175.53 | X-H torsion
[ 8008 7997 7996 7995 ] final   32.84 input   59.86 | X-H torsion
[ 10167 10162 10161 10158 ] final    8.06 input  -65.29 | X-H torsion
[ 10718 10713 10712 10709 ] final -136.78 input   66.30 | X-H torsion
[ 10763 10752 10751 10750 ] final   73.30 input  -60.55 | X-H torsion
[ 11005 11000 10999 10996 ] final  -77.02 input  -57.11 | X-H torsion

> <Gold.Protein.ActiveResidues>
 VAL166  LYS551  ARG553  GLY616  TRP617  ASP618  TYR619  PRO620  LYS621  CYS622 
 ASP623  PHE694  ASN695  SER759  ASP760  ASP761  ALA762  ILE779  LEU786  VAL792 
 PHE793  MET794  SER795  GLU796  ALA797  LYS798  CYS799  TRP800  GLU811  SER814 

> <Gold.Protein.RotatedAtoms>
  150.7049  134.1183  159.4025 H   0  0  0  0  0  0  0  0  0  0  0  0  # atno 6907 bound_to 6896
  151.9170  135.0312  160.0528 H   0  0  0  0  0  0  0  0  0  0  0  0  # atno 6908 bound_to 6896
  152.2288  133.5006  159.5241 H   0  0  0  0  0  0  0  0  0  0  0  0  # atno 6909 bound_to 6896
  146.0990  140.5791  142.8829 H   0  0  0  0  0  0  0  0  0  0  0  0  # atno 7974 bound_to 7965
  155.1290  140.3255  155.4478 H   0  0  0  0  0  0  0  0  0  0  0  0  # atno 8008 bound_to 7997
  156.2640  140.2014  156.6359 H   0  0  0  0  0  0  0  0  0  0  0  0  # atno 8009 bound_to 7997
  154.6626  140.0545  157.0066 H   0  0  0  0  0  0  0  0  0  0  0  0  # atno 8010 bound_to 7997
  140.6336  143.7937  150.7329 H   0  0  0  0  0  0  0  0  0  0  0  0  # atno 10167 bound_to 10162
  156.2808  130.7319  151.1316 H   0  0  0  0  0  0  0  0  0  0  0  0  # atno 10718 bound_to 10713
  153.0513  135.5068  154.7873 H   0  0  0  0  0  0  0  0  0  0  0  0  # atno 10763 bound_to 10752
  154.6733  135.2956  154.9714 H   0  0  0  0  0  0  0  0  0  0  0  0  # atno 10764 bound_to 10752
  154.0525  135.6702  153.4854 H   0  0  0  0  0  0  0  0  0  0  0  0  # atno 10765 bound_to 10752
  141.1658  133.7006  156.7757 H   0  0  0  0  0  0  0  0  0  0  0  0  # atno 11005 bound_to 11000
  144.7418  140.4962  143.6864 LP  0  0  0  0  0  0  0  0  0  0  0  0  # atno 17320 bound_to 7965
  145.5891  139.1494  143.3192 LP  0  0  0  0  0  0  0  0  0  0  0  0  # atno 17321 bound_to 7965
  140.1553  143.4322  152.2103 LP  0  0  0  0  0  0  0  0  0  0  0  0  # atno 17342 bound_to 10162
  139.5548  144.7365  151.4326 LP  0  0  0  0  0  0  0  0  0  0  0  0  # atno 17343 bound_to 10162
  157.7314  131.0609  150.5681 LP  0  0  0  0  0  0  0  0  0  0  0  0  # atno 17370 bound_to 10713
  156.5787  130.4298  149.5987 LP  0  0  0  0  0  0  0  0  0  0  0  0  # atno 17371 bound_to 10713
  140.2431  134.8598  157.3593 LP  0  0  0  0  0  0  0  0  0  0  0  0  # atno 17394 bound_to 11000
  140.1776  134.4530  155.7792 LP  0  0  0  0  0  0  0  0  0  0  0  0  # atno 17395 bound_to 11000

$$$$
