AV-unprocessed.smi:2226|AV-procd|sdf|9001|dock7
  -GOLD-   2272012213D 1   1.00000     0.00000
 Structure written by MMmdl.
 40 42  0  0  0  0  0  0  0  0  2 V2000
  143.0041  137.0714  153.6919 C   0  0  0  0  0  0  0  0  0  0  0  0
  144.2573  137.7693  153.3180 N   0  3  2  0  0  0  0  0  0  0  0  0
  145.0852  137.0643  152.3104 C   0  0  2  0  0  0  0  0  0  0  0  0
  145.7354  135.7890  152.9032 C   0  0  0  0  0  0  0  0  0  0  0  0
  146.4901  136.0215  154.2249 C   0  0  0  0  0  0  0  0  0  0  0  0
  145.7449  136.9781  155.1724 C   0  0  0  0  0  0  0  0  0  0  0  0
  145.0994  138.1936  154.4619 C   0  0  1  0  0  0  0  0  0  0  0  0
  146.0931  139.2778  153.9843 C   0  0  0  0  0  0  0  0  0  0  0  0
  146.8574  138.9640  152.6674 C   0  0  1  0  0  0  0  0  0  0  0  0
  148.2088  138.4547  152.8901 N   0  0  0  0  0  0  0  0  0  0  0  0
  149.0870  138.9280  153.7869 C   0  0  0  0  0  0  0  0  0  0  0  0
  148.8410  139.8617  154.5508 O   0  0  0  0  0  0  0  0  0  0  0  0
  150.2475  138.2534  153.7351 N   0  0  0  0  0  0  0  0  0  0  0  0
  151.3962  138.4511  154.5415 C   0  0  0  0  0  0  0  0  0  0  0  0
  151.8861  139.6215  154.9530 N   0  0  0  0  0  0  0  0  0  0  0  0
  153.0010  139.2872  155.7078 C   0  0  0  0  0  0  0  0  0  0  0  0
  153.1221  137.9213  155.7101 C   0  0  0  0  0  0  0  0  0  0  0  0
  152.1064  137.3754  154.9723 O   0  0  0  0  0  0  0  0  0  0  0  0
  146.0704  138.0720  151.6735 C   0  0  0  0  0  0  0  0  0  0  0  0
  143.1916  136.1179  154.1847 H   0  0  0  0  0  0  0  0  0  0  0  0
  142.3982  136.8799  152.8060 H   0  0  0  0  0  0  0  0  0  0  0  0
  142.4119  137.6896  154.3671 H   0  0  0  0  0  0  0  0  0  0  0  0
  144.4232  136.7381  151.5069 H   0  0  0  0  0  0  0  0  0  0  0  0
  144.9543  135.0496  153.0814 H   0  0  0  0  0  0  0  0  0  0  0  0
  146.4029  135.3323  152.1718 H   0  0  0  0  0  0  0  0  0  0  0  0
  146.6487  135.0656  154.7252 H   0  0  0  0  0  0  0  0  0  0  0  0
  147.4906  136.3914  154.0296 H   0  0  0  0  0  0  0  0  0  0  0  0
  144.9636  136.4156  155.6843 H   0  0  0  0  0  0  0  0  0  0  0  0
  146.4189  137.3176  155.9595 H   0  0  0  0  0  0  0  0  0  0  0  0
  144.4481  138.6779  155.1912 H   0  0  0  0  0  0  0  0  0  0  0  0
  145.5102  140.1822  153.8040 H   0  0  0  0  0  0  0  0  0  0  0  0
  146.7775  139.5451  154.7901 H   0  0  0  0  0  0  0  0  0  0  0  0
  147.0067  139.9177  152.1566 H   0  0  0  0  0  0  0  0  0  0  0  0
  148.5030  137.6855  152.3062 H   0  0  0  0  0  0  0  0  0  0  0  0
  150.3183  137.5170  153.0486 H   0  0  0  0  0  0  0  0  0  0  0  0
  153.6152  140.0397  156.1800 H   0  0  0  0  0  0  0  0  0  0  0  0
  153.8233  137.2319  156.1561 H   0  0  0  0  0  0  0  0  0  0  0  0
  146.7468  137.5639  150.9845 H   0  0  0  0  0  0  0  0  0  0  0  0
  145.4778  138.7389  151.0451 H   0  0  0  0  0  0  0  0  0  0  0  0
  143.9511  138.6227  152.8728 H   0  0  0  0  0  0  0  0  0  0  0  0
  1  2  1  0  0  0  0
  1 20  1  0  0  0  0
  1 21  1  0  0  0  0
  1 22  1  0  0  0  0
  2  7  1  0  0  0  0
  2  3  1  0  0  0  0
  2 40  1  0  0  0  0
  3 19  1  0  0  0  0
  3  4  1  0  0  0  0
  3 23  1  0  0  0  0
  4  5  1  0  0  0  0
  4 24  1  0  0  0  0
  4 25  1  0  0  0  0
  5  6  1  0  0  0  0
  5 26  1  0  0  0  0
  5 27  1  0  0  0  0
  6  7  1  0  0  0  0
  6 28  1  0  0  0  0
  6 29  1  0  0  0  0
  7  8  1  0  0  0  0
  7 30  1  0  0  0  0
  8  9  1  0  0  0  0
  8 31  1  0  0  0  0
  8 32  1  0  0  0  0
  9 10  1  0  0  0  0
  9 19  1  0  0  0  0
  9 33  1  0  0  0  0
 10 11  1  0  0  0  0
 10 34  1  0  0  0  0
 11 12  2  0  0  0  0
 11 13  1  0  0  0  0
 13 14  1  0  0  0  0
 13 35  1  0  0  0  0
 14 18  1  0  0  0  0
 14 15  2  0  0  0  0
 15 16  1  0  0  0  0
 16 17  2  0  0  0  0
 16 36  1  0  0  0  0
 17 18  1  0  0  0  0
 17 37  1  0  0  0  0
 19 38  1  0  0  0  0
 19 39  1  0  0  0  0
M  CHG  1   2   1
M  END
> <s_m_source_file>
AV-unprocessed.smi

> <i_m_source_file_index>
2226

> <i_lp_mmshare_version>
43012

> <i_f3d_flags>
0

> <s_epik_input>
W0NIMl0xW0NIMl1bQ0gyXVtDQEhdKE4oW0NIM10pW0NIXTEyKVtDSDJdW0NASF0oW0NIMl0yKVtOSF1DKD1PKVtOSF1jM25bY0hdW2NIXW8z

> <s_epik_cmdline>
J2VwaWtfcHl0aG9uJywgJy1waCcsICc3LjAnLCAnLXRuJywgJzgnLCAnLW1hJywgJzIwMCcsICctbWV0YWxfYmluZGluZycsICctaW1hZScsICc8aW5maWxlLm1hZT4nLCAnLW9tYWUnLCAnPG91dGZpbGUubWFlPic=

> <r_lp_tautomer_probability>
0.785861

> <r_epik_Ionization_Penalty>
0.000929358

> <r_epik_Ionization_Penalty_Charging>
0.000890041

> <r_epik_Ionization_Penalty_Neutral>
3.93161e-05

> <r_epik_State_Penalty>
0.0312137

> <r_epik_Charging_Adjusted_Penalty>
0.0321037

> <i_epik_Tot_Q>
1

> <i_epik_Tot_abs_Q>
1

> <r_epik_Metal_State_Penalty>
0.0605703

> <b_epik_Metal_Only>
0

> <s_lp_Force_Field>
OPLS_2005

> <r_lp_Energy>
36.0435

> <b_lp_Chiralities_Consistent>
1

> <s_lp_Variant>
AV-unprocessed.smi:2226-1

> <Gold.Version>
5.8.1

> <Gold.Id.Protein>
6NUR|6NUR_protein|mol2

> <Gold.PLP.Fitness>
36.6011

> <Gold.PLP.PLP>
-22.0260

> <Gold.PLP.part.hbond>
-6.5007

> <Gold.PLP.part.metal>
0.0000

> <Gold.PLP.part.buried>
5.5422

> <Gold.PLP.part.nonpolar>
-22.5453

> <Gold.PLP.part.repulsive>
0.3512

> <Gold.PLP.ligand.clash>
0.0000

> <Gold.PLP.ligand.torsion>
0.4337

> <Gold.PLP.Chemscore.Hbond>
5.1291

> <Gold.PLP.Chemscore.CHOScore>
0.0000

> <Gold.PLP.Chemscore.Metal>
0.0000

> <Gold.Chemscore.Hbonds>
donor molecule, donor type, donor heavy atom, donor atom, acceptor molecule, acceptor atom, score
      L1  H     2    40       P1 10175  2.00
      L1  H    10    34       P1  7948  1.00
      L1  H    13    35       P1  7948  0.32
      P1  H  7989  7998       L1    15  0.98
      P1  H 10752 10765       L1    18  0.82

> <Gold.PLP.Chemscore.Internal.Correction>
0.0553

> <Gold.Rescore>
     Score         DG    S(hbond)    S(metal)    S(lipo)     H(rot)  DE(clash)    DE(int)     intcor
     13.17     -17.20       2.56        0.00      49.00       1.00       2.15       1.88       ----

> <Gold.Chemscore.Fitness>
13.1672

> <Gold.Chemscore.DG>
-17.1969

> <Gold.Chemscore.ZeroCoef>
-5.4800

> <Gold.Chemscore.Hbond>
2.5580

> <Gold.Chemscore.Metal>
0.0000

> <Gold.Chemscore.Lipo>
49.0006

> <Gold.Chemscore.Internal_Hbond>
0.0000

> <Gold.Chemscore.DEClash>
2.1521

> <Gold.Chemscore.DEInternal>
1.8775

> <Gold.Chemscore.Rot>
1.0000

> <Gold.Chemscore.Internal.Correction>
   9.000000E+99

> <Gold.Chemscore.Hbonds>
donor molecule, donor type, donor heavy atom, donor atom, acceptor molecule, acceptor atom, score
      L1  H     2    40       P1 10175  1.00
      L1  H    10    34       P1  7948  0.96
      L1  H    13    35       P1  7948  0.02
      P1  H  7989  7998       L1    15  0.56
      P1  H 10752 10765       L1    18  0.20

> <Gold.Chemscore.Hbond.Weighted>
-8.5438

> <Gold.Chemscore.Metal.Weighted>
-0.0000

> <Gold.Chemscore.Lipo.Weighted>
-5.7331

> <Gold.Chemscore.Internal_Hbond.Weighted>
0.0000

> <Gold.Chemscore.DEClash.Weighted>
2.1521

> <Gold.Chemscore.DEInternal.Weighted>
1.8775

> <Gold.Chemscore.Rot.Weighted>
2.5600

> <Gold.Chemscore.Internal.Correction.Weighted>
   9.000000E+99

> <Gold.Protein.RotatedTorsions>
[ 6907 6896 6895 6894 ] final   33.98 input  -60.11 | X-H torsion
[ 7974 7965 7964 7962 ] final  -30.93 input  175.53 | X-H torsion
[ 8008 7997 7996 7995 ] final   11.85 input   59.86 | X-H torsion
[ 10167 10162 10161 10158 ] final   17.31 input  -65.29 | X-H torsion
[ 10718 10713 10712 10709 ] final  -94.48 input   66.30 | X-H torsion
[ 10763 10752 10751 10750 ] final  169.89 input  -60.55 | X-H torsion
[ 11005 11000 10999 10996 ] final  -32.39 input  -57.11 | X-H torsion

> <Gold.Protein.ActiveResidues>
 VAL166  LYS551  ARG553  GLY616  TRP617  ASP618  TYR619  PRO620  LYS621  CYS622 
 ASP623  PHE694  ASN695  SER759  ASP760  ASP761  ALA762  ILE779  LEU786  VAL792 
 PHE793  MET794  SER795  GLU796  ALA797  LYS798  CYS799  TRP800  GLU811  SER814 

> <Gold.Protein.RotatedAtoms>
  152.0961  134.9374  160.0570 H   0  0  0  0  0  0  0  0  0  0  0  0  # atno 6907 bound_to 6896
  152.0607  133.4056  159.4424 H   0  0  0  0  0  0  0  0  0  0  0  0  # atno 6908 bound_to 6896
  150.6838  134.3124  159.4795 H   0  0  0  0  0  0  0  0  0  0  0  0  # atno 6909 bound_to 6896
  146.1106  140.5603  142.8780 H   0  0  0  0  0  0  0  0  0  0  0  0  # atno 7974 bound_to 7965
  154.8125  140.2870  155.5843 H   0  0  0  0  0  0  0  0  0  0  0  0  # atno 8008 bound_to 7997
  156.2989  140.2565  156.2946 H   0  0  0  0  0  0  0  0  0  0  0  0  # atno 8009 bound_to 7997
  154.9431  140.0381  157.2096 H   0  0  0  0  0  0  0  0  0  0  0  0  # atno 8010 bound_to 7997
  140.5735  143.9116  150.6731 H   0  0  0  0  0  0  0  0  0  0  0  0  # atno 10167 bound_to 10162
  156.0028  130.5069  150.5933 H   0  0  0  0  0  0  0  0  0  0  0  0  # atno 10718 bound_to 10713
  154.3897  135.2754  155.2162 H   0  0  0  0  0  0  0  0  0  0  0  0  # atno 10763 bound_to 10752
  154.4234  135.5994  153.6027 H   0  0  0  0  0  0  0  0  0  0  0  0  # atno 10764 bound_to 10752
  152.9832  135.5978  154.4150 H   0  0  0  0  0  0  0  0  0  0  0  0  # atno 10765 bound_to 10752
  140.9548  133.7199  156.1276 H   0  0  0  0  0  0  0  0  0  0  0  0  # atno 11005 bound_to 11000
  144.7508  140.5186  143.6803 LP  0  0  0  0  0  0  0  0  0  0  0  0  # atno 17320 bound_to 7965
  145.5671  139.1482  143.3309 LP  0  0  0  0  0  0  0  0  0  0  0  0  # atno 17321 bound_to 7965
  140.2597  143.3532  152.1333 LP  0  0  0  0  0  0  0  0  0  0  0  0  # atno 17342 bound_to 10162
  139.5130  144.6926  151.5719 LP  0  0  0  0  0  0  0  0  0  0  0  0  # atno 17343 bound_to 10162
  157.3795  131.0778  151.1489 LP  0  0  0  0  0  0  0  0  0  0  0  0  # atno 17370 bound_to 10713
  157.2217  130.6484  149.5813 LP  0  0  0  0  0  0  0  0  0  0  0  0  # atno 17371 bound_to 10713
  140.7551  134.4001  157.5535 LP  0  0  0  0  0  0  0  0  0  0  0  0  # atno 17394 bound_to 11000
  139.8859  134.8925  156.2617 LP  0  0  0  0  0  0  0  0  0  0  0  0  # atno 17395 bound_to 11000

$$$$
