AV-unprocessed.smi:2580|AV-procd|sdf|10129|dock1
  -GOLD-   2272014143D 1   1.00000     0.00000
 Structure written by MMmdl.
 29 30  0  0  0  0  0  0  0  0  1 V2000
  148.6539  140.7841  157.1924 C   0  0  0  0  0  0  0  0  0  0  0  0
  149.4831  140.4314  155.9441 C   0  0  2  0  0  0  0  0  0  0  0  0
  149.6776  138.9463  155.7160 C   0  0  0  0  0  0  0  0  0  0  0  0
  150.8038  138.9524  154.6890 C   0  0  0  0  0  0  0  0  0  0  0  0
  151.6280  140.0640  155.0310 O   0  0  0  0  0  0  0  0  0  0  0  0
  150.9252  140.9795  155.8735 C   0  0  2  0  0  0  0  0  0  0  0  0
  151.6746  141.0445  157.2151 C   0  0  0  0  0  0  0  0  0  0  0  0
  152.5204  140.1917  157.4886 O   0  0  0  0  0  0  0  0  0  0  0  0
  151.3476  142.0783  158.0124 N   0  0  0  0  0  0  0  0  0  0  0  0
  151.8492  142.3960  159.3046 C   0  0  0  0  0  0  0  0  0  0  0  0
  152.4266  141.4772  160.1198 N   0  0  0  0  0  0  0  0  0  0  0  0
  152.8773  141.8570  161.3334 C   0  0  0  0  0  0  0  0  0  0  0  0
  152.7803  143.1757  161.8113 C   0  0  0  0  0  0  0  0  0  0  0  0
  152.1837  144.1387  160.9787 C   0  0  0  0  0  0  0  0  0  0  0  0
  151.7110  143.7481  159.7099 C   0  0  0  0  0  0  0  0  0  0  0  0
  150.9751  144.9316  158.6842 Cl  0  0  0  0  0  0  0  0  0  0  0  0
  149.0698  140.3457  158.0998 H   0  0  0  0  0  0  0  0  0  0  0  0
  147.6330  140.4147  157.0934 H   0  0  0  0  0  0  0  0  0  0  0  0
  148.6016  141.8639  157.3339 H   0  0  0  0  0  0  0  0  0  0  0  0
  148.9479  140.8297  155.0803 H   0  0  0  0  0  0  0  0  0  0  0  0
  149.9997  138.4493  156.6319 H   0  0  0  0  0  0  0  0  0  0  0  0
  148.7785  138.4466  155.3544 H   0  0  0  0  0  0  0  0  0  0  0  0
  151.3706  138.0213  154.6823 H   0  0  0  0  0  0  0  0  0  0  0  0
  150.4025  139.1126  153.6876 H   0  0  0  0  0  0  0  0  0  0  0  0
  150.9256  141.9662  155.4070 H   0  0  0  0  0  0  0  0  0  0  0  0
  150.6481  142.7121  157.6541 H   0  0  0  0  0  0  0  0  0  0  0  0
  153.3283  141.0862  161.9407 H   0  0  0  0  0  0  0  0  0  0  0  0
  153.1532  143.4407  162.7895 H   0  0  0  0  0  0  0  0  0  0  0  0
  152.0901  145.1627  161.3089 H   0  0  0  0  0  0  0  0  0  0  0  0
  1  2  1  0  0  0  0
  1 17  1  0  0  0  0
  1 18  1  0  0  0  0
  1 19  1  0  0  0  0
  2  6  1  0  0  0  0
  2  3  1  0  0  0  0
  2 20  1  0  0  0  0
  3  4  1  0  0  0  0
  3 21  1  0  0  0  0
  3 22  1  0  0  0  0
  4  5  1  0  0  0  0
  4 23  1  0  0  0  0
  4 24  1  0  0  0  0
  5  6  1  0  0  0  0
  6  7  1  0  0  0  0
  6 25  1  0  0  0  0
  7  8  2  0  0  0  0
  7  9  1  0  0  0  0
  9 10  1  0  0  0  0
  9 26  1  0  0  0  0
 10 15  1  0  0  0  0
 10 11  2  0  0  0  0
 11 12  1  0  0  0  0
 12 13  2  0  0  0  0
 12 27  1  0  0  0  0
 13 14  1  0  0  0  0
 13 28  1  0  0  0  0
 14 15  2  0  0  0  0
 14 29  1  0  0  0  0
 15 16  1  0  0  0  0
M  END
> <s_m_source_file>
AV-unprocessed.smi

> <i_m_source_file_index>
2580

> <i_lp_mmshare_version>
43012

> <i_f3d_flags>
0

> <s_epik_input>
W0NIM11bQ0BASF0xW0NIMl1bQ0gyXU9bQ0BIXTFDKD1PKVtOSF1jMm5bY0hdW2NIXVtjSF1jMkNs

> <s_epik_cmdline>
J2VwaWtfcHl0aG9uJywgJy1waCcsICc3LjAnLCAnLXRuJywgJzgnLCAnLW1hJywgJzIwMCcsICctbWV0YWxfYmluZGluZycsICctaW1hZScsICc8aW5maWxlLm1hZT4nLCAnLW9tYWUnLCAnPG91dGZpbGUubWFlPic=

> <r_lp_tautomer_probability>
1

> <r_epik_Ionization_Penalty>
4.32497e-05

> <r_epik_Ionization_Penalty_Charging>
0

> <r_epik_Ionization_Penalty_Neutral>
4.32497e-05

> <r_epik_State_Penalty>
-0

> <r_epik_Charging_Adjusted_Penalty>
0

> <i_epik_Tot_Q>
0

> <i_epik_Tot_abs_Q>
0

> <r_epik_Metal_State_Penalty>
-0

> <b_epik_Metal_Only>
0

> <s_lp_Force_Field>
OPLS_2005

> <r_lp_Energy>
21.8439

> <b_lp_Chiralities_Consistent>
1

> <s_lp_Variant>
AV-unprocessed.smi:2580-3

> <Gold.Version>
5.8.1

> <Gold.Id.Protein>
6NUR|6NUR_protein|mol2

> <Gold.PLP.Fitness>
38.2942

> <Gold.PLP.PLP>
-33.3402

> <Gold.PLP.part.hbond>
-2.0000

> <Gold.PLP.part.metal>
0.0000

> <Gold.PLP.part.buried>
-6.0376

> <Gold.PLP.part.nonpolar>
-25.6068

> <Gold.PLP.part.repulsive>
0.0989

> <Gold.PLP.ligand.clash>
0.0000

> <Gold.PLP.ligand.torsion>
0.5291

> <Gold.PLP.Chemscore.Hbond>
2.0000

> <Gold.PLP.Chemscore.CHOScore>
0.0000

> <Gold.PLP.Chemscore.Metal>
0.0000

> <Gold.Chemscore.Hbonds>
donor molecule, donor type, donor heavy atom, donor atom, acceptor molecule, acceptor atom, score
      P1  H  7989  7998       L1     5  0.95
      P1  H  7997  8009       L1     8  1.00

> <Gold.PLP.Chemscore.Internal.Correction>
0.0121

> <Gold.Rescore>
     Score         DG    S(hbond)    S(metal)    S(lipo)     H(rot)  DE(clash)    DE(int)     intcor
     15.58     -18.01       1.76        0.00      78.83       1.00       0.04       2.40       ----

> <Gold.Chemscore.Fitness>
15.5775

> <Gold.Chemscore.DG>
-18.0113

> <Gold.Chemscore.ZeroCoef>
-5.4800

> <Gold.Chemscore.Hbond>
1.7570

> <Gold.Chemscore.Metal>
0.0000

> <Gold.Chemscore.Lipo>
78.8287

> <Gold.Chemscore.Internal_Hbond>
0.0000

> <Gold.Chemscore.DEClash>
0.0362

> <Gold.Chemscore.DEInternal>
2.3975

> <Gold.Chemscore.Rot>
1.0000

> <Gold.Chemscore.Internal.Correction>
   9.000000E+99

> <Gold.Chemscore.Hbonds>
donor molecule, donor type, donor heavy atom, donor atom, acceptor molecule, acceptor atom, score
      P1  H  7989  7998       L1     5  0.08
      P1  H  7997  8009       L1     8  0.90

> <Gold.Chemscore.Hbond.Weighted>
-5.8683

> <Gold.Chemscore.Metal.Weighted>
-0.0000

> <Gold.Chemscore.Lipo.Weighted>
-9.2230

> <Gold.Chemscore.Internal_Hbond.Weighted>
0.0000

> <Gold.Chemscore.DEClash.Weighted>
0.0362

> <Gold.Chemscore.DEInternal.Weighted>
2.3975

> <Gold.Chemscore.Rot.Weighted>
2.5600

> <Gold.Chemscore.Internal.Correction.Weighted>
   9.000000E+99

> <Gold.Protein.RotatedTorsions>
[ 6907 6896 6895 6894 ] final  -57.99 input  -60.11 | X-H torsion
[ 7974 7965 7964 7962 ] final -120.79 input  175.53 | X-H torsion
[ 8008 7997 7996 7995 ] final  173.71 input   59.86 | X-H torsion
[ 10167 10162 10161 10158 ] final  107.21 input  -65.29 | X-H torsion
[ 10718 10713 10712 10709 ] final -147.22 input   66.30 | X-H torsion
[ 10763 10752 10751 10750 ] final  146.40 input  -60.55 | X-H torsion
[ 11005 11000 10999 10996 ] final  -79.11 input  -57.11 | X-H torsion

> <Gold.Protein.ActiveResidues>
 VAL166  LYS551  ARG553  GLY616  TRP617  ASP618  TYR619  PRO620  LYS621  CYS622 
 ASP623  PHE694  ASN695  SER759  ASP760  ASP761  ALA762  ILE779  LEU786  VAL792 
 PHE793  MET794  SER795  GLU796  ALA797  LYS798  CYS799  TRP800  GLU811  SER814 

> <Gold.Protein.RotatedAtoms>
  150.8042  134.7156  159.6628 H   0  0  0  0  0  0  0  0  0  0  0  0  # atno 6907 bound_to 6896
  152.4161  134.6036  160.0016 H   0  0  0  0  0  0  0  0  0  0  0  0  # atno 6908 bound_to 6896
  151.6265  133.3298  159.3135 H   0  0  0  0  0  0  0  0  0  0  0  0  # atno 6909 bound_to 6896
  145.0475  140.8192  143.4229 H   0  0  0  0  0  0  0  0  0  0  0  0  # atno 7974 bound_to 7965
  156.1047  140.1453  156.9420 H   0  0  0  0  0  0  0  0  0  0  0  0  # atno 8008 bound_to 7997
  154.4726  140.0905  156.7227 H   0  0  0  0  0  0  0  0  0  0  0  0  # atno 8009 bound_to 7997
  155.4699  140.3441  155.4326 H   0  0  0  0  0  0  0  0  0  0  0  0  # atno 8010 bound_to 7997
  139.6946  144.7103  151.1290 H   0  0  0  0  0  0  0  0  0  0  0  0  # atno 10167 bound_to 10162
  156.4048  130.7952  151.2165 H   0  0  0  0  0  0  0  0  0  0  0  0  # atno 10718 bound_to 10713
  154.0213  135.2905  155.3380 H   0  0  0  0  0  0  0  0  0  0  0  0  # atno 10763 bound_to 10752
  154.7044  135.5175  153.8577 H   0  0  0  0  0  0  0  0  0  0  0  0  # atno 10764 bound_to 10752
  153.0680  135.6637  154.0435 H   0  0  0  0  0  0  0  0  0  0  0  0  # atno 10765 bound_to 10752
  141.1666  133.7092  156.8073 H   0  0  0  0  0  0  0  0  0  0  0  0  # atno 11005 bound_to 11000
  145.1570  139.2481  143.5411 LP  0  0  0  0  0  0  0  0  0  0  0  0  # atno 17320 bound_to 7965
  146.3515  140.1287  142.8598 LP  0  0  0  0  0  0  0  0  0  0  0  0  # atno 17321 bound_to 7965
  140.7692  143.5511  150.9204 LP  0  0  0  0  0  0  0  0  0  0  0  0  # atno 17342 bound_to 10162
  139.9190  143.6629  152.3100 LP  0  0  0  0  0  0  0  0  0  0  0  0  # atno 17343 bound_to 10162
  157.7505  131.0276  150.4011 LP  0  0  0  0  0  0  0  0  0  0  0  0  # atno 17370 bound_to 10713
  156.4298  130.3969  149.6768 LP  0  0  0  0  0  0  0  0  0  0  0  0  # atno 17371 bound_to 10713
  140.2213  134.8755  157.3380 LP  0  0  0  0  0  0  0  0  0  0  0  0  # atno 17394 bound_to 11000
  140.1985  134.4284  155.7676 LP  0  0  0  0  0  0  0  0  0  0  0  0  # atno 17395 bound_to 11000

$$$$
