AV-unprocessed.smi:3056|AV-procd|sdf|11655|dock2
  -GOLD-   2272017 53D 1   1.00000     0.00000
 Structure written by MMmdl.
 47 48  0  0  0  0  0  0  0  0  1 V2000
  145.2894  131.4102  149.8781 C   0  0  0  0  0  0  0  0  0  0  0  0
  145.4211  132.4577  150.9455 C   0  0  0  0  0  0  0  0  0  0  0  0
  145.4863  133.8696  150.7813 C   0  0  0  0  0  0  0  0  0  0  0  0
  145.5949  134.5154  151.9301 N   0  0  0  0  0  0  0  0  0  0  0  0
  145.6190  133.5455  152.8705 N   0  0  0  0  0  0  0  0  0  0  0  0
  145.7025  133.9225  154.2785 C   0  0  2  0  0  0  0  0  0  0  0  0
  144.6042  133.2264  155.1100 C   0  0  0  0  0  0  0  0  0  0  0  0
  145.7447  135.4651  154.4507 C   0  0  1  0  0  0  0  0  0  0  0  0
  145.4950  135.9389  155.8984 C   0  0  0  0  0  0  0  0  0  0  0  0
  147.0129  135.9534  153.9054 N   0  0  0  0  0  0  0  0  0  0  0  0
  147.3849  137.3300  154.2760 C   0  0  0  0  0  0  0  0  0  0  0  0
  148.4406  137.4257  155.3940 C   0  0  0  0  0  0  0  0  0  0  0  0
  148.0789  137.3054  156.5662 O   0  0  0  0  0  0  0  0  0  0  0  0
  149.7364  137.6346  155.0601 N   0  0  0  0  0  0  0  0  0  0  0  0
  150.7927  137.8642  156.0482 C   0  0  0  0  0  0  0  0  0  0  0  0
  151.3062  139.3041  155.8681 C   0  0  0  0  0  0  0  0  0  0  0  0
  151.7672  139.4894  154.5307 O   0  0  0  0  0  0  0  0  0  0  0  0
  150.7702  139.2327  153.5416 C   0  0  1  0  0  0  0  0  0  0  0  0
  151.3878  139.4829  152.1617 C   0  0  0  0  0  0  0  0  0  0  0  0
  150.2694  137.7837  153.7032 C   0  0  0  0  0  0  0  0  0  0  0  0
  145.5020  132.2924  152.2989 C   0  0  0  0  0  0  0  0  0  0  0  0
  144.8342  131.8109  148.9722 H   0  0  0  0  0  0  0  0  0  0  0  0
  144.6698  130.5753  150.2059 H   0  0  0  0  0  0  0  0  0  0  0  0
  146.2596  131.0006  149.5968 H   0  0  0  0  0  0  0  0  0  0  0  0
  145.4530  134.4420  149.8659 H   0  0  0  0  0  0  0  0  0  0  0  0
  146.6545  133.5286  154.6410 H   0  0  0  0  0  0  0  0  0  0  0  0
  144.7350  133.4110  156.1762 H   0  0  0  0  0  0  0  0  0  0  0  0
  144.6345  132.1460  154.9658 H   0  0  0  0  0  0  0  0  0  0  0  0
  143.6049  133.5669  154.8394 H   0  0  0  0  0  0  0  0  0  0  0  0
  144.9488  135.8747  153.8265 H   0  0  0  0  0  0  0  0  0  0  0  0
  144.5724  135.5234  156.3015 H   0  0  0  0  0  0  0  0  0  0  0  0
  145.3892  137.0221  155.9524 H   0  0  0  0  0  0  0  0  0  0  0  0
  146.3075  135.6508  156.5652 H   0  0  0  0  0  0  0  0  0  0  0  0
  147.7643  135.2977  154.0670 H   0  0  0  0  0  0  0  0  0  0  0  0
  147.8068  137.8116  153.3937 H   0  0  0  0  0  0  0  0  0  0  0  0
  146.4865  137.8884  154.5412 H   0  0  0  0  0  0  0  0  0  0  0  0
  150.4565  137.7189  157.0756 H   0  0  0  0  0  0  0  0  0  0  0  0
  151.6025  137.1506  155.8906 H   0  0  0  0  0  0  0  0  0  0  0  0
  150.5208  140.0272  156.0935 H   0  0  0  0  0  0  0  0  0  0  0  0
  152.1288  139.5009  156.5557 H   0  0  0  0  0  0  0  0  0  0  0  0
  149.9402  139.9273  153.6842 H   0  0  0  0  0  0  0  0  0  0  0  0
  150.6589  139.3126  151.3692 H   0  0  0  0  0  0  0  0  0  0  0  0
  152.2371  138.8228  151.9838 H   0  0  0  0  0  0  0  0  0  0  0  0
  151.7401  140.5107  152.0736 H   0  0  0  0  0  0  0  0  0  0  0  0
  151.0960  137.0850  153.5668 H   0  0  0  0  0  0  0  0  0  0  0  0
  149.5536  137.5385  152.9206 H   0  0  0  0  0  0  0  0  0  0  0  0
  145.4831  131.3906  152.8930 H   0  0  0  0  0  0  0  0  0  0  0  0
  1  2  1  0  0  0  0
  1 22  1  0  0  0  0
  1 23  1  0  0  0  0
  1 24  1  0  0  0  0
  2 21  2  0  0  0  0
  2  3  1  0  0  0  0
  3  4  2  0  0  0  0
  3 25  1  0  0  0  0
  4  5  1  0  0  0  0
  5  6  1  0  0  0  0
  5 21  1  0  0  0  0
  6  7  1  0  0  0  0
  6  8  1  0  0  0  0
  6 26  1  0  0  0  0
  7 27  1  0  0  0  0
  7 28  1  0  0  0  0
  7 29  1  0  0  0  0
  8  9  1  0  0  0  0
  8 10  1  0  0  0  0
  8 30  1  0  0  0  0
  9 31  1  0  0  0  0
  9 32  1  0  0  0  0
  9 33  1  0  0  0  0
 10 11  1  0  0  0  0
 10 34  1  0  0  0  0
 11 12  1  0  0  0  0
 11 35  1  0  0  0  0
 11 36  1  0  0  0  0
 12 13  2  0  0  0  0
 12 14  1  0  0  0  0
 14 20  1  0  0  0  0
 14 15  1  0  0  0  0
 15 16  1  0  0  0  0
 15 37  1  0  0  0  0
 15 38  1  0  0  0  0
 16 17  1  0  0  0  0
 16 39  1  0  0  0  0
 16 40  1  0  0  0  0
 17 18  1  0  0  0  0
 18 19  1  0  0  0  0
 18 20  1  0  0  0  0
 18 41  1  0  0  0  0
 19 42  1  0  0  0  0
 19 43  1  0  0  0  0
 19 44  1  0  0  0  0
 20 45  1  0  0  0  0
 20 46  1  0  0  0  0
 21 47  1  0  0  0  0
M  END
> <s_m_source_file>
AV-unprocessed.smi

> <i_m_source_file_index>
3056

> <i_lp_mmshare_version>
43012

> <i_f3d_flags>
0

> <s_epik_input>
W0NIM11jMVtjSF1ubihbY0hdMSlbQ0BIXShbQ0gzXSlbQ0BIXShbQ0gzXSlbTkhdW0NIMl1DKD1PKU4yW0NIMl1bQ0gyXU9bQ0BASF0oW0NIM10pW0NIMl0y

> <s_epik_cmdline>
J2VwaWtfcHl0aG9uJywgJy1waCcsICc3LjAnLCAnLXRuJywgJzgnLCAnLW1hJywgJzIwMCcsICctbWV0YWxfYmluZGluZycsICctaW1hZScsICc8aW5maWxlLm1hZT4nLCAnLW9tYWUnLCAnPG91dGZpbGUubWFlPic=

> <r_lp_tautomer_probability>
1

> <r_epik_Ionization_Penalty>
0.667689

> <r_epik_Ionization_Penalty_Charging>
0

> <r_epik_Ionization_Penalty_Neutral>
0.667689

> <r_epik_State_Penalty>
0.684601

> <r_epik_Charging_Adjusted_Penalty>
0.684601

> <i_epik_Tot_Q>
0

> <i_epik_Tot_abs_Q>
0

> <r_epik_Metal_State_Penalty>
0.681448

> <b_epik_Metal_Only>
0

> <s_lp_Force_Field>
OPLS_2005

> <r_lp_Energy>
33.6961

> <b_lp_Chiralities_Consistent>
1

> <s_lp_Variant>
AV-unprocessed.smi:3056-11

> <Gold.Version>
5.8.1

> <Gold.Id.Protein>
6NUR|6NUR_protein|mol2

> <Gold.PLP.Fitness>
51.2991

> <Gold.PLP.PLP>
-41.9135

> <Gold.PLP.part.hbond>
-3.0000

> <Gold.PLP.part.metal>
0.0000

> <Gold.PLP.part.buried>
-4.4778

> <Gold.PLP.part.nonpolar>
-35.5463

> <Gold.PLP.part.repulsive>
0.2113

> <Gold.PLP.ligand.clash>
0.0000

> <Gold.PLP.ligand.torsion>
1.0804

> <Gold.PLP.Chemscore.Hbond>
2.7760

> <Gold.PLP.Chemscore.CHOScore>
1.0000

> <Gold.PLP.Chemscore.Metal>
0.0000

> <Gold.Chemscore.Hbonds>
donor molecule, donor type, donor heavy atom, donor atom, acceptor molecule, acceptor atom, score
      L1  C     3    25       P1  7921  1.00

> <Gold.PLP.Chemscore.Internal.Correction>
0.2183

> <Gold.Rescore>
     Score         DG    S(hbond)    S(metal)    S(lipo)     H(rot)  DE(clash)    DE(int)     intcor
     15.21     -18.10       2.12        0.00      84.16       1.68       0.00       2.88       ----

> <Gold.Chemscore.Fitness>
15.2110

> <Gold.Chemscore.DG>
-18.0996

> <Gold.Chemscore.ZeroCoef>
-5.4800

> <Gold.Chemscore.Hbond>
2.1175

> <Gold.Chemscore.Metal>
0.0000

> <Gold.Chemscore.Lipo>
84.1550

> <Gold.Chemscore.Internal_Hbond>
0.0000

> <Gold.Chemscore.DEClash>
0.0043

> <Gold.Chemscore.DEInternal>
2.8843

> <Gold.Chemscore.Rot>
1.6793

> <Gold.Chemscore.Internal.Correction>
   9.000000E+99

> <Gold.Chemscore.Hbond.Weighted>
-7.0725

> <Gold.Chemscore.Metal.Weighted>
-0.0000

> <Gold.Chemscore.Lipo.Weighted>
-9.8461

> <Gold.Chemscore.Internal_Hbond.Weighted>
0.0000

> <Gold.Chemscore.DEClash.Weighted>
0.0043

> <Gold.Chemscore.DEInternal.Weighted>
2.8843

> <Gold.Chemscore.Rot.Weighted>
4.2990

> <Gold.Chemscore.Internal.Correction.Weighted>
   9.000000E+99

> <Gold.Protein.RotatedTorsions>
[ 6907 6896 6895 6894 ] final  -57.78 input  -60.11 | X-H torsion
[ 7974 7965 7964 7962 ] final   -6.08 input  175.53 | X-H torsion
[ 8008 7997 7996 7995 ] final   51.31 input   59.86 | X-H torsion
[ 10167 10162 10161 10158 ] final    6.44 input  -65.29 | X-H torsion
[ 10718 10713 10712 10709 ] final   47.24 input   66.30 | X-H torsion
[ 10763 10752 10751 10750 ] final   66.59 input  -60.55 | X-H torsion
[ 11005 11000 10999 10996 ] final -134.75 input  -57.11 | X-H torsion

> <Gold.Protein.ActiveResidues>
 VAL166  LYS551  ARG553  GLY616  TRP617  ASP618  TYR619  PRO620  LYS621  CYS622 
 ASP623  PHE694  ASN695  SER759  ASP760  ASP761  ALA762  ILE779  LEU786  VAL792 
 PHE793  MET794  SER795  GLU796  ALA797  LYS798  CYS799  TRP800  GLU811  SER814 

> <Gold.Protein.RotatedAtoms>
  150.8059  134.7183  159.6643 H   0  0  0  0  0  0  0  0  0  0  0  0  # atno 6907 bound_to 6896
  152.4178  134.6007  160.0009 H   0  0  0  0  0  0  0  0  0  0  0  0  # atno 6908 bound_to 6896
  151.6231  133.3300  159.3128 H   0  0  0  0  0  0  0  0  0  0  0  0  # atno 6909 bound_to 6896
  146.2339  140.2117  142.8335 H   0  0  0  0  0  0  0  0  0  0  0  0  # atno 7974 bound_to 7965
  155.4331  140.3451  155.4282 H   0  0  0  0  0  0  0  0  0  0  0  0  # atno 8008 bound_to 7997
  156.1324  140.1518  156.9076 H   0  0  0  0  0  0  0  0  0  0  0  0  # atno 8009 bound_to 7997
  154.4905  140.0842  156.7564 H   0  0  0  0  0  0  0  0  0  0  0  0  # atno 8010 bound_to 7997
  140.6427  143.7735  150.7453 H   0  0  0  0  0  0  0  0  0  0  0  0  # atno 10167 bound_to 10162
  157.4564  130.8170  149.7841 H   0  0  0  0  0  0  0  0  0  0  0  0  # atno 10718 bound_to 10713
  153.0147  135.5315  154.6847 H   0  0  0  0  0  0  0  0  0  0  0  0  # atno 10763 bound_to 10752
  154.5998  135.2867  155.0550 H   0  0  0  0  0  0  0  0  0  0  0  0  # atno 10764 bound_to 10752
  154.1611  135.6547  153.5038 H   0  0  0  0  0  0  0  0  0  0  0  0  # atno 10765 bound_to 10752
  140.8961  134.1749  157.4493 H   0  0  0  0  0  0  0  0  0  0  0  0  # atno 11005 bound_to 11000
  144.9701  140.8360  143.5460 LP  0  0  0  0  0  0  0  0  0  0  0  0  # atno 17320 bound_to 7965
  145.2098  139.2210  143.5149 LP  0  0  0  0  0  0  0  0  0  0  0  0  # atno 17321 bound_to 7965
  140.1370  143.4475  152.2218 LP  0  0  0  0  0  0  0  0  0  0  0  0  # atno 17342 bound_to 10162
  139.5637  144.7422  151.4083 LP  0  0  0  0  0  0  0  0  0  0  0  0  # atno 17343 bound_to 10162
  156.0009  130.3881  150.2609 LP  0  0  0  0  0  0  0  0  0  0  0  0  # atno 17370 bound_to 10713
  157.0784  131.0136  151.3165 LP  0  0  0  0  0  0  0  0  0  0  0  0  # atno 17371 bound_to 10713
  139.8736  134.9879  156.5388 LP  0  0  0  0  0  0  0  0  0  0  0  0  # atno 17394 bound_to 11000
  140.8287  133.8296  155.8963 LP  0  0  0  0  0  0  0  0  0  0  0  0  # atno 17395 bound_to 11000

$$$$
