AV-unprocessed.smi:2514|AV-procd|sdf|9895|dock1
  -GOLD-   2272013533D 1   1.00000     0.00000
 Structure written by MMmdl.
 24 25  0  0  0  0  0  0  0  0  1 V2000
  150.2287  138.5355  154.3408 C   0  0  0  0  0  0  0  0  0  0  0  0
  149.6601  139.9286  154.6379 C   0  0  2  0  0  0  0  0  0  0  0  0
  149.7907  140.7488  153.4945 O   0  0  0  0  0  0  0  0  0  0  0  0
  150.3786  140.6194  155.7631 C   0  0  0  0  0  0  0  0  0  0  0  0
  150.0772  141.8086  156.3645 C   0  0  0  0  0  0  0  0  0  0  0  0
  151.0497  141.9336  157.3342 N   0  0  0  0  0  0  0  0  0  0  0  0
  151.2611  143.0368  158.2242 C   0  0  0  0  0  0  0  0  0  0  0  0
  151.7334  144.3972  157.7040 C   0  0  0  0  0  0  0  0  0  0  0  0
  152.4935  144.5150  158.9367 N   0  0  0  0  0  0  0  0  0  0  0  0
  152.4935  143.0747  159.1293 C   0  0  0  0  0  0  0  0  0  0  0  0
  151.9264  140.9030  157.2975 N   0  0  0  0  0  0  0  0  0  0  0  0
  151.5210  140.0923  156.3713 N   0  0  0  0  0  0  0  0  0  0  0  0
  150.1364  137.8835  155.2095 H   0  0  0  0  0  0  0  0  0  0  0  0
  151.2845  138.5848  154.0722 H   0  0  0  0  0  0  0  0  0  0  0  0
  149.6965  138.0629  153.5147 H   0  0  0  0  0  0  0  0  0  0  0  0
  148.5979  139.8406  154.8686 H   0  0  0  0  0  0  0  0  0  0  0  0
  149.6418  140.2177  152.7273 H   0  0  0  0  0  0  0  0  0  0  0  0
  149.2968  142.5362  156.1979 H   0  0  0  0  0  0  0  0  0  0  0  0
  150.3429  143.1384  158.8073 H   0  0  0  0  0  0  0  0  0  0  0  0
  152.3803  144.3477  156.8269 H   0  0  0  0  0  0  0  0  0  0  0  0
  150.9403  145.1380  157.5994 H   0  0  0  0  0  0  0  0  0  0  0  0
  153.4215  144.8832  158.7828 H   0  0  0  0  0  0  0  0  0  0  0  0
  152.3051  142.7638  160.1571 H   0  0  0  0  0  0  0  0  0  0  0  0
  153.3807  142.6031  158.7040 H   0  0  0  0  0  0  0  0  0  0  0  0
  1  2  1  0  0  0  0
  1 13  1  0  0  0  0
  1 14  1  0  0  0  0
  1 15  1  0  0  0  0
  2  3  1  0  0  0  0
  2  4  1  0  0  0  0
  2 16  1  0  0  0  0
  3 17  1  0  0  0  0
  4 12  1  0  0  0  0
  4  5  2  0  0  0  0
  5  6  1  0  0  0  0
  5 18  1  0  0  0  0
  6  7  1  0  0  0  0
  6 11  1  0  0  0  0
  7 10  1  0  0  0  0
  7  8  1  0  0  0  0
  7 19  1  0  0  0  0
  8  9  1  0  0  0  0
  8 20  1  0  0  0  0
  8 21  1  0  0  0  0
  9 10  1  0  0  0  0
  9 22  1  0  0  0  0
 10 23  1  0  0  0  0
 10 24  1  0  0  0  0
 11 12  2  0  0  0  0
M  END
> <s_m_source_file>
AV-unprocessed.smi

> <i_m_source_file_index>
2514

> <i_lp_mmshare_version>
43012

> <i_f3d_flags>
0

> <s_epik_input>
W0NIM11bQ0BIXShbT0hdKWMxW2NIXW4obm4xKVtDSF0yW0NIMl1bTkhdW0NIMl0y

> <s_epik_cmdline>
J2VwaWtfcHl0aG9uJywgJy1waCcsICc3LjAnLCAnLXRuJywgJzgnLCAnLW1hJywgJzIwMCcsICctbWV0YWxfYmluZGluZycsICctaW1hZScsICc8aW5maWxlLm1hZT4nLCAnLW9tYWUnLCAnPG91dGZpbGUubWFlPic=

> <r_lp_tautomer_probability>
1

> <r_epik_Ionization_Penalty>
0.704859

> <r_epik_Ionization_Penalty_Charging>
0

> <r_epik_Ionization_Penalty_Neutral>
0.704859

> <r_epik_State_Penalty>
0.727806

> <r_epik_Charging_Adjusted_Penalty>
0.727806

> <i_epik_Tot_Q>
0

> <i_epik_Tot_abs_Q>
0

> <r_epik_Metal_State_Penalty>
0.727738

> <b_epik_Metal_Only>
0

> <s_lp_Force_Field>
OPLS_2005

> <r_lp_Energy>
11.6004

> <b_lp_Chiralities_Consistent>
1

> <s_lp_Variant>
AV-unprocessed.smi:2514-3

> <Gold.Version>
5.8.1

> <Gold.Id.Protein>
6NUR|6NUR_protein|mol2

> <Gold.PLP.Fitness>
35.7661

> <Gold.PLP.PLP>
-27.2870

> <Gold.PLP.part.hbond>
-2.4647

> <Gold.PLP.part.metal>
0.0000

> <Gold.PLP.part.buried>
-2.7556

> <Gold.PLP.part.nonpolar>
-21.4641

> <Gold.PLP.part.repulsive>
0.0000

> <Gold.PLP.ligand.clash>
0.0000

> <Gold.PLP.ligand.torsion>
0.2023

> <Gold.PLP.Chemscore.Hbond>
1.8796

> <Gold.PLP.Chemscore.CHOScore>
1.0000

> <Gold.PLP.Chemscore.Metal>
0.0000

> <Gold.Chemscore.Hbonds>
donor molecule, donor type, donor heavy atom, donor atom, acceptor molecule, acceptor atom, score
      L1  H     3    17       P1  7957  1.00
      P1  H  7989  7998       L1     3  0.35
      P1  H  8011  8017       L1     3  0.50
      L1  C     5    18       P1  8028  1.00

> <Gold.PLP.Chemscore.Internal.Correction>
0.2448

> <Gold.Rescore>
     Score         DG    S(hbond)    S(metal)    S(lipo)     H(rot)  DE(clash)    DE(int)     intcor
     11.56     -11.71       1.00        0.00      63.80       1.78       0.03       0.12       ----

> <Gold.Chemscore.Fitness>
11.5567

> <Gold.Chemscore.DG>
-11.7121

> <Gold.Chemscore.ZeroCoef>
-5.4800

> <Gold.Chemscore.Hbond>
0.9971

> <Gold.Chemscore.Metal>
0.0000

> <Gold.Chemscore.Lipo>
63.7974

> <Gold.Chemscore.Internal_Hbond>
0.0000

> <Gold.Chemscore.DEClash>
0.0310

> <Gold.Chemscore.DEInternal>
0.1244

> <Gold.Chemscore.Rot>
1.7823

> <Gold.Chemscore.Internal.Correction>
   9.000000E+99

> <Gold.Chemscore.Hbonds>
donor molecule, donor type, donor heavy atom, donor atom, acceptor molecule, acceptor atom, score
      L1  H     3    17       P1  7957  0.92
      P1  H  7989  7998       L1     3  0.02
      P1  H  8011  8017       L1     3  0.02

> <Gold.Chemscore.Hbond.Weighted>
-3.3305

> <Gold.Chemscore.Metal.Weighted>
-0.0000

> <Gold.Chemscore.Lipo.Weighted>
-7.4643

> <Gold.Chemscore.Internal_Hbond.Weighted>
0.0000

> <Gold.Chemscore.DEClash.Weighted>
0.0310

> <Gold.Chemscore.DEInternal.Weighted>
0.1244

> <Gold.Chemscore.Rot.Weighted>
4.5627

> <Gold.Chemscore.Internal.Correction.Weighted>
   9.000000E+99

> <Gold.Protein.RotatedTorsions>
[ 6907 6896 6895 6894 ] final -179.07 input  -60.11 | X-H torsion
[ 7974 7965 7964 7962 ] final  -60.21 input  175.53 | X-H torsion
[ 8008 7997 7996 7995 ] final   53.94 input   59.86 | X-H torsion
[ 10167 10162 10161 10158 ] final   76.25 input  -65.29 | X-H torsion
[ 10718 10713 10712 10709 ] final   48.13 input   66.30 | X-H torsion
[ 10763 10752 10751 10750 ] final  110.42 input  -60.55 | X-H torsion
[ 11005 11000 10999 10996 ] final -108.26 input  -57.11 | X-H torsion

> <Gold.Protein.ActiveResidues>
 VAL166  LYS551  ARG553  GLY616  TRP617  ASP618  TYR619  PRO620  LYS621  CYS622 
 ASP623  PHE694  ASN695  SER759  ASP760  ASP761  ALA762  ILE779  LEU786  VAL792 
 PHE793  MET794  SER795  GLU796  ALA797  LYS798  CYS799  TRP800  GLU811  SER814 

> <Gold.Protein.RotatedAtoms>
  151.6475  133.3322  159.3144 H   0  0  0  0  0  0  0  0  0  0  0  0  # atno 6907 bound_to 6896
  150.7977  134.7052  159.6582 H   0  0  0  0  0  0  0  0  0  0  0  0  # atno 6908 bound_to 6896
  152.4065  134.6201  160.0100 H   0  0  0  0  0  0  0  0  0  0  0  0  # atno 6909 bound_to 6896
  145.8182  140.8556  143.0146 H   0  0  0  0  0  0  0  0  0  0  0  0  # atno 7974 bound_to 7965
  155.4765  140.3467  155.4333 H   0  0  0  0  0  0  0  0  0  0  0  0  # atno 8008 bound_to 7997
  156.1067  140.1450  156.9423 H   0  0  0  0  0  0  0  0  0  0  0  0  # atno 8009 bound_to 7997
  154.4729  140.0895  156.7168 H   0  0  0  0  0  0  0  0  0  0  0  0  # atno 8010 bound_to 7997
  139.9942  144.5734  150.7792 H   0  0  0  0  0  0  0  0  0  0  0  0  # atno 10167 bound_to 10162
  157.4655  130.8223  149.7932 H   0  0  0  0  0  0  0  0  0  0  0  0  # atno 10718 bound_to 10713
  153.4487  135.3749  155.2271 H   0  0  0  0  0  0  0  0  0  0  0  0  # atno 10763 bound_to 10752
  154.8756  135.3880  154.4064 H   0  0  0  0  0  0  0  0  0  0  0  0  # atno 10764 bound_to 10752
  153.4620  135.7087  153.6108 H   0  0  0  0  0  0  0  0  0  0  0  0  # atno 10765 bound_to 10752
  141.0911  133.9054  157.2074 H   0  0  0  0  0  0  0  0  0  0  0  0  # atno 11005 bound_to 11000
  144.6750  140.0495  143.7479 LP  0  0  0  0  0  0  0  0  0  0  0  0  # atno 17320 bound_to 7965
  145.9703  139.2865  143.1102 LP  0  0  0  0  0  0  0  0  0  0  0  0  # atno 17321 bound_to 7965
  140.7443  143.2859  151.3465 LP  0  0  0  0  0  0  0  0  0  0  0  0  # atno 17342 bound_to 10162
  139.6318  144.0706  152.2482 LP  0  0  0  0  0  0  0  0  0  0  0  0  # atno 17343 bound_to 10162
  156.0048  130.3861  150.2470 LP  0  0  0  0  0  0  0  0  0  0  0  0  # atno 17370 bound_to 10713
  157.0650  131.0100  151.3210 LP  0  0  0  0  0  0  0  0  0  0  0  0  # atno 17371 bound_to 10713
  139.9737  135.0120  156.9576 LP  0  0  0  0  0  0  0  0  0  0  0  0  # atno 17394 bound_to 11000
  140.5250  134.0869  155.7301 LP  0  0  0  0  0  0  0  0  0  0  0  0  # atno 17395 bound_to 11000

$$$$
