AV-unprocessed.smi:3335|AV-procd|sdf|12838|dock2
  -GOLD-   2272019223D 1   1.00000     0.00000
 Structure written by MMmdl.
 47 48  0  0  0  0  0  0  0  0  2 V2000
  153.0857  142.5979  162.7554 C   0  0  0  0  0  0  0  0  0  0  0  0
  152.4656  143.2938  161.5782 C   0  0  0  0  0  0  0  0  0  0  0  0
  151.8926  144.5958  161.5331 C   0  0  0  0  0  0  0  0  0  0  0  0
  151.4358  144.9133  160.3331 N   0  0  0  0  0  0  0  0  0  0  0  0
  151.6841  143.8240  159.5706 N   0  0  0  0  0  0  0  0  0  0  0  0
  151.3447  143.8010  158.1509 C   0  0  1  0  0  0  0  0  0  0  0  0
  152.4899  144.3452  157.2693 C   0  0  0  0  0  0  0  0  0  0  0  0
  150.8201  142.4092  157.7116 C   0  0  2  0  0  0  0  0  0  0  0  0
  151.8785  141.2882  157.7689 C   0  0  0  0  0  0  0  0  0  0  0  0
  150.2120  142.5083  156.3612 N   0  3  0  0  0  0  0  0  0  0  0  0
  149.3425  141.3844  155.9354 C   0  0  2  0  0  0  0  0  0  0  0  0
  149.0549  141.5115  154.4306 C   0  0  0  0  0  0  0  0  0  0  0  0
  148.0148  141.3633  156.7200 C   0  0  0  0  0  0  0  0  0  0  0  0
  147.8016  142.2502  157.5486 O   0  0  0  0  0  0  0  0  0  0  0  0
  147.1167  140.3846  156.4756 N   0  0  0  0  0  0  0  0  0  0  0  0
  145.8351  140.2836  157.1725 C   0  0  0  0  0  0  0  0  0  0  0  0
  145.2531  138.9250  156.7822 C   0  0  0  0  0  0  0  0  0  0  0  0
  145.8909  138.6222  155.4341 C   0  0  0  0  0  0  0  0  0  0  0  0
  147.2616  139.2946  155.5102 C   0  0  0  0  0  0  0  0  0  0  0  0
  152.3189  142.8389  160.2988 C   0  0  0  0  0  0  0  0  0  0  0  0
  152.8656  143.1102  163.6922 H   0  0  0  0  0  0  0  0  0  0  0  0
  154.1706  142.5455  162.6650 H   0  0  0  0  0  0  0  0  0  0  0  0
  152.7208  141.5756  162.8564 H   0  0  0  0  0  0  0  0  0  0  0  0
  151.8001  145.3169  162.3319 H   0  0  0  0  0  0  0  0  0  0  0  0
  150.5153  144.5017  158.0394 H   0  0  0  0  0  0  0  0  0  0  0  0
  152.1872  144.4211  156.2250 H   0  0  0  0  0  0  0  0  0  0  0  0
  153.3773  143.7133  157.3089 H   0  0  0  0  0  0  0  0  0  0  0  0
  152.7853  145.3442  157.5915 H   0  0  0  0  0  0  0  0  0  0  0  0
  150.0285  142.1437  158.4133 H   0  0  0  0  0  0  0  0  0  0  0  0
  152.3219  141.2057  158.7605 H   0  0  0  0  0  0  0  0  0  0  0  0
  152.6851  141.4590  157.0561 H   0  0  0  0  0  0  0  0  0  0  0  0
  151.4462  140.3140  157.5436 H   0  0  0  0  0  0  0  0  0  0  0  0
  149.6443  143.3436  156.3351 H   0  0  0  0  0  0  0  0  0  0  0  0
  149.8925  140.4589  156.0952 H   0  0  0  0  0  0  0  0  0  0  0  0
  148.4276  140.6957  154.0702 H   0  0  0  0  0  0  0  0  0  0  0  0
  149.9796  141.4881  153.8533 H   0  0  0  0  0  0  0  0  0  0  0  0
  148.5440  142.4471  154.1980 H   0  0  0  0  0  0  0  0  0  0  0  0
  145.9469  140.3685  158.2548 H   0  0  0  0  0  0  0  0  0  0  0  0
  145.1833  141.0907  156.8346 H   0  0  0  0  0  0  0  0  0  0  0  0
  145.5619  138.1721  157.5090 H   0  0  0  0  0  0  0  0  0  0  0  0
  144.1633  138.9266  156.7449 H   0  0  0  0  0  0  0  0  0  0  0  0
  145.9538  137.5539  155.2253 H   0  0  0  0  0  0  0  0  0  0  0  0
  145.3011  139.0832  154.6407 H   0  0  0  0  0  0  0  0  0  0  0  0
  147.5772  139.6443  154.5269 H   0  0  0  0  0  0  0  0  0  0  0  0
  148.0084  138.5895  155.8786 H   0  0  0  0  0  0  0  0  0  0  0  0
  152.6103  141.9007  159.8500 H   0  0  0  0  0  0  0  0  0  0  0  0
  150.9611  142.6126  155.6922 H   0  0  0  0  0  0  0  0  0  0  0  0
  1  2  1  0  0  0  0
  1 21  1  0  0  0  0
  1 22  1  0  0  0  0
  1 23  1  0  0  0  0
  2 20  2  0  0  0  0
  2  3  1  0  0  0  0
  3  4  2  0  0  0  0
  3 24  1  0  0  0  0
  4  5  1  0  0  0  0
  5  6  1  0  0  0  0
  5 20  1  0  0  0  0
  6  7  1  0  0  0  0
  6  8  1  0  0  0  0
  6 25  1  0  0  0  0
  7 26  1  0  0  0  0
  7 27  1  0  0  0  0
  7 28  1  0  0  0  0
  8  9  1  0  0  0  0
  8 10  1  0  0  0  0
  8 29  1  0  0  0  0
  9 30  1  0  0  0  0
  9 31  1  0  0  0  0
  9 32  1  0  0  0  0
 10 11  1  0  0  0  0
 10 33  1  0  0  0  0
 10 47  1  0  0  0  0
 11 12  1  0  0  0  0
 11 13  1  0  0  0  0
 11 34  1  0  0  0  0
 12 35  1  0  0  0  0
 12 36  1  0  0  0  0
 12 37  1  0  0  0  0
 13 14  2  0  0  0  0
 13 15  1  0  0  0  0
 15 19  1  0  0  0  0
 15 16  1  0  0  0  0
 16 17  1  0  0  0  0
 16 38  1  0  0  0  0
 16 39  1  0  0  0  0
 17 18  1  0  0  0  0
 17 40  1  0  0  0  0
 17 41  1  0  0  0  0
 18 19  1  0  0  0  0
 18 42  1  0  0  0  0
 18 43  1  0  0  0  0
 19 44  1  0  0  0  0
 19 45  1  0  0  0  0
 20 46  1  0  0  0  0
M  CHG  1  10   1
M  END
> <s_m_source_file>
AV-unprocessed.smi

> <i_m_source_file_index>
3335

> <i_lp_mmshare_version>
43012

> <i_f3d_flags>
0

> <s_epik_input>
W0NIM11jMVtjSF1ubihbY0hdMSlbQ0BIXShbQ0gzXSlbQ0BIXShbQ0gzXSlbTkhdW0NASF0oW0NIM10pQyg9TylOMltDSDJdW0NIMl1bQ0gyXVtDSDJdMg==

> <s_epik_cmdline>
J2VwaWtfcHl0aG9uJywgJy1waCcsICc3LjAnLCAnLXRuJywgJzgnLCAnLW1hJywgJzIwMCcsICctbWV0YWxfYmluZGluZycsICctaW1hZScsICc8aW5maWxlLm1hZT4nLCAnLW9tYWUnLCAnPG91dGZpbGUubWFlPic=

> <r_lp_tautomer_probability>
1

> <r_epik_Ionization_Penalty>
0.14175

> <r_epik_Ionization_Penalty_Charging>
0.141731

> <r_epik_Ionization_Penalty_Neutral>
1.91261e-05

> <r_epik_State_Penalty>
0.131043

> <r_epik_Charging_Adjusted_Penalty>
0.272773

> <i_epik_Tot_Q>
1

> <i_epik_Tot_abs_Q>
1

> <r_epik_Metal_State_Penalty>
0.131408

> <b_epik_Metal_Only>
0

> <s_lp_Force_Field>
OPLS_2005

> <r_lp_Energy>
39.0238

> <b_lp_Chiralities_Consistent>
1

> <s_lp_Variant>
AV-unprocessed.smi:3335-2

> <Gold.Version>
5.8.1

> <Gold.Id.Protein>
6NUR|6NUR_protein|mol2

> <Gold.PLP.Fitness>
40.4303

> <Gold.PLP.PLP>
-35.8755

> <Gold.PLP.part.hbond>
-1.0000

> <Gold.PLP.part.metal>
0.0000

> <Gold.PLP.part.buried>
-3.5914

> <Gold.PLP.part.nonpolar>
-31.4795

> <Gold.PLP.part.repulsive>
0.3960

> <Gold.PLP.ligand.clash>
0.0034

> <Gold.PLP.ligand.torsion>
0.8680

> <Gold.PLP.Chemscore.Hbond>
2.0000

> <Gold.PLP.Chemscore.CHOScore>
0.0000

> <Gold.PLP.Chemscore.Metal>
0.0000

> <Gold.Chemscore.Hbonds>
donor molecule, donor type, donor heavy atom, donor atom, acceptor molecule, acceptor atom, score
      L1  H    10    33       P1  8028  2.00

> <Gold.PLP.Chemscore.Internal.Correction>
0.2942

> <Gold.Rescore>
     Score         DG    S(hbond)    S(metal)    S(lipo)     H(rot)  DE(clash)    DE(int)     intcor
     13.32     -16.48       0.95        0.00     103.60       1.68       1.04       2.12       ----

> <Gold.Chemscore.Fitness>
13.3240

> <Gold.Chemscore.DG>
-16.4839

> <Gold.Chemscore.ZeroCoef>
-5.4800

> <Gold.Chemscore.Hbond>
0.9514

> <Gold.Chemscore.Metal>
0.0000

> <Gold.Chemscore.Lipo>
103.6025

> <Gold.Chemscore.Internal_Hbond>
0.0000

> <Gold.Chemscore.DEClash>
1.0376

> <Gold.Chemscore.DEInternal>
2.1223

> <Gold.Chemscore.Rot>
1.6778

> <Gold.Chemscore.Internal.Correction>
   9.000000E+99

> <Gold.Chemscore.Hbonds>
donor molecule, donor type, donor heavy atom, donor atom, acceptor molecule, acceptor atom, score
      L1  H    10    33       P1  8028  0.99

> <Gold.Chemscore.Hbond.Weighted>
-3.1776

> <Gold.Chemscore.Metal.Weighted>
-0.0000

> <Gold.Chemscore.Lipo.Weighted>
-12.1215

> <Gold.Chemscore.Internal_Hbond.Weighted>
0.0000

> <Gold.Chemscore.DEClash.Weighted>
1.0376

> <Gold.Chemscore.DEInternal.Weighted>
2.1223

> <Gold.Chemscore.Rot.Weighted>
4.2952

> <Gold.Chemscore.Internal.Correction.Weighted>
   9.000000E+99

> <Gold.Protein.RotatedTorsions>
[ 6907 6896 6895 6894 ] final  -97.70 input  -60.11 | X-H torsion
[ 7974 7965 7964 7962 ] final    9.56 input  175.53 | X-H torsion
[ 8008 7997 7996 7995 ] final   87.82 input   59.86 | X-H torsion
[ 10167 10162 10161 10158 ] final  -28.26 input  -65.29 | X-H torsion
[ 10718 10713 10712 10709 ] final  155.19 input   66.30 | X-H torsion
[ 10763 10752 10751 10750 ] final   82.30 input  -60.55 | X-H torsion
[ 11005 11000 10999 10996 ] final  -94.96 input  -57.11 | X-H torsion

> <Gold.Protein.ActiveResidues>
 VAL166  LYS551  ARG553  GLY616  TRP617  ASP618  TYR619  PRO620  LYS621  CYS622 
 ASP623  PHE694  ASN695  SER759  ASP760  ASP761  ALA762  ILE779  LEU786  VAL792 
 PHE793  MET794  SER795  GLU796  ALA797  LYS798  CYS799  TRP800  GLU811  SER814 

> <Gold.Protein.RotatedAtoms>
  150.7024  134.1307  159.4068 H   0  0  0  0  0  0  0  0  0  0  0  0  # atno 6907 bound_to 6896
  151.9293  135.0261  160.0537 H   0  0  0  0  0  0  0  0  0  0  0  0  # atno 6908 bound_to 6896
  152.2189  133.4933  159.5188 H   0  0  0  0  0  0  0  0  0  0  0  0  # atno 6909 bound_to 6896
  146.2401  139.9765  142.8441 H   0  0  0  0  0  0  0  0  0  0  0  0  # atno 7974 bound_to 7965
  155.9801  140.3378  155.6655 H   0  0  0  0  0  0  0  0  0  0  0  0  # atno 8008 bound_to 7997
  155.6560  140.0711  157.2589 H   0  0  0  0  0  0  0  0  0  0  0  0  # atno 8009 bound_to 7997
  154.4189  140.1717  156.1713 H   0  0  0  0  0  0  0  0  0  0  0  0  # atno 8010 bound_to 7997
  140.7271  143.4025  151.1241 H   0  0  0  0  0  0  0  0  0  0  0  0  # atno 10167 bound_to 10162
  157.2216  131.0719  151.1909 H   0  0  0  0  0  0  0  0  0  0  0  0  # atno 10718 bound_to 10713
  153.1191  135.4733  154.9165 H   0  0  0  0  0  0  0  0  0  0  0  0  # atno 10763 bound_to 10752
  154.7557  135.3118  154.8476 H   0  0  0  0  0  0  0  0  0  0  0  0  # atno 10764 bound_to 10752
  153.9045  135.6871  153.4807 H   0  0  0  0  0  0  0  0  0  0  0  0  # atno 10765 bound_to 10752
  141.1455  133.7993  157.0370 H   0  0  0  0  0  0  0  0  0  0  0  0  # atno 11005 bound_to 11000
  145.1632  140.9683  143.4365 LP  0  0  0  0  0  0  0  0  0  0  0  0  # atno 17320 bound_to 7965
  145.0097  139.3522  143.6126 LP  0  0  0  0  0  0  0  0  0  0  0  0  # atno 17321 bound_to 7965
  139.7647  143.8583  152.3108 LP  0  0  0  0  0  0  0  0  0  0  0  0  # atno 17342 bound_to 10162
  139.8481  144.7178  150.9248 LP  0  0  0  0  0  0  0  0  0  0  0  0  # atno 17343 bound_to 10162
  157.3570  130.7112  149.6477 LP  0  0  0  0  0  0  0  0  0  0  0  0  # atno 17370 bound_to 10713
  155.9682  130.4236  150.4571 LP  0  0  0  0  0  0  0  0  0  0  0  0  # atno 17371 bound_to 10713
  140.0717  134.9698  157.1478 LP  0  0  0  0  0  0  0  0  0  0  0  0  # atno 17394 bound_to 11000
  140.3701  134.2399  155.7179 LP  0  0  0  0  0  0  0  0  0  0  0  0  # atno 17395 bound_to 11000

$$$$
