AV-unprocessed.smi:2088|AV-procd|sdf|8527|dock7
  -GOLD-   2272011243D 1   1.00000     0.00000
 Structure written by MMmdl.
 33 34  0  0  0  0  0  0  0  0  1 V2000
  152.8904  139.4456  156.2749 O   0  0  0  0  0  0  0  0  0  0  0  0
  152.1789  139.9433  157.1470 C   0  0  0  0  0  0  0  0  0  0  0  0
  152.5338  139.7555  158.6212 C   0  0  0  0  0  0  0  0  0  0  0  0
  152.6410  141.0436  159.2822 N   0  0  0  0  0  0  0  0  0  0  0  0
  153.2860  141.3496  160.4611 C   0  0  0  0  0  0  0  0  0  0  0  0
  153.1417  142.6917  160.6652 C   0  0  0  0  0  0  0  0  0  0  0  0
  152.3841  143.1346  159.5420 C   0  0  0  0  0  0  0  0  0  0  0  0
  151.9245  144.5311  159.2161 C   0  0  0  0  0  0  0  0  0  0  0  0
  150.6258  144.5328  158.9156 F   0  0  0  0  0  0  0  0  0  0  0  0
  152.1229  145.3300  160.2646 F   0  0  0  0  0  0  0  0  0  0  0  0
  152.6070  145.0040  158.1733 F   0  0  0  0  0  0  0  0  0  0  0  0
  152.0853  142.1382  158.7190 N   0  0  0  0  0  0  0  0  0  0  0  0
  151.0969  140.6939  156.8885 N   0  0  0  0  0  0  0  0  0  0  0  0
  150.6658  141.1306  155.5654 C   0  0  0  0  0  0  0  0  0  0  0  0
  149.2172  140.6962  155.2861 C   0  0  1  0  0  0  0  0  0  0  0  0
  148.5339  141.4215  154.1253 C   0  0  0  0  0  0  0  0  0  0  0  0
  147.4712  140.4230  153.7300 C   0  0  0  0  0  0  0  0  0  0  0  0
  148.2094  139.0989  153.9059 C   0  0  0  0  0  0  0  0  0  0  0  0
  149.1708  139.3157  154.9362 O   0  0  0  0  0  0  0  0  0  0  0  0
  151.7793  139.1477  159.1232 H   0  0  0  0  0  0  0  0  0  0  0  0
  153.4858  139.2310  158.7126 H   0  0  0  0  0  0  0  0  0  0  0  0
  153.7936  140.5963  161.0457 H   0  0  0  0  0  0  0  0  0  0  0  0
  153.5248  143.2725  161.4908 H   0  0  0  0  0  0  0  0  0  0  0  0
  150.5766  141.0543  157.6755 H   0  0  0  0  0  0  0  0  0  0  0  0
  150.7684  142.2107  155.4501 H   0  0  0  0  0  0  0  0  0  0  0  0
  151.3306  140.6803  154.8280 H   0  0  0  0  0  0  0  0  0  0  0  0
  148.6135  140.8234  156.1865 H   0  0  0  0  0  0  0  0  0  0  0  0
  148.1257  142.3923  154.4094 H   0  0  0  0  0  0  0  0  0  0  0  0
  149.2314  141.5705  153.2997 H   0  0  0  0  0  0  0  0  0  0  0  0
  146.6293  140.4801  154.4212 H   0  0  0  0  0  0  0  0  0  0  0  0
  147.0948  140.5718  152.7175 H   0  0  0  0  0  0  0  0  0  0  0  0
  147.5361  138.2789  154.1558 H   0  0  0  0  0  0  0  0  0  0  0  0
  148.7396  138.8344  152.9905 H   0  0  0  0  0  0  0  0  0  0  0  0
  1  2  2  0  0  0  0
  2  3  1  0  0  0  0
  2 13  1  0  0  0  0
  3  4  1  0  0  0  0
  3 20  1  0  0  0  0
  3 21  1  0  0  0  0
  4 12  1  0  0  0  0
  4  5  1  0  0  0  0
  5  6  2  0  0  0  0
  5 22  1  0  0  0  0
  6  7  1  0  0  0  0
  6 23  1  0  0  0  0
  7  8  1  0  0  0  0
  7 12  2  0  0  0  0
  8  9  1  0  0  0  0
  8 10  1  0  0  0  0
  8 11  1  0  0  0  0
 13 14  1  0  0  0  0
 13 24  1  0  0  0  0
 14 15  1  0  0  0  0
 14 25  1  0  0  0  0
 14 26  1  0  0  0  0
 15 19  1  0  0  0  0
 15 16  1  0  0  0  0
 15 27  1  0  0  0  0
 16 17  1  0  0  0  0
 16 28  1  0  0  0  0
 16 29  1  0  0  0  0
 17 18  1  0  0  0  0
 17 30  1  0  0  0  0
 17 31  1  0  0  0  0
 18 19  1  0  0  0  0
 18 32  1  0  0  0  0
 18 33  1  0  0  0  0
M  END
> <s_m_source_file>
AV-unprocessed.smi

> <i_m_source_file_index>
2088

> <i_lp_mmshare_version>
43012

> <i_f3d_flags>
0

> <s_epik_input>
TzFbQ0gyXVtDSDJdW0NIMl1bQ0BIXTFbQ0gyXVtOSF1DKD1PKVtDSDJdbjJbY0hdW2NIXWMobjIpQyhGKShGKUY=

> <s_epik_cmdline>
J2VwaWtfcHl0aG9uJywgJy1waCcsICc3LjAnLCAnLXRuJywgJzgnLCAnLW1hJywgJzIwMCcsICctbWV0YWxfYmluZGluZycsICctaW1hZScsICc8aW5maWxlLm1hZT4nLCAnLW9tYWUnLCAnPG91dGZpbGUubWFlPic=

> <r_lp_tautomer_probability>
1

> <r_epik_Ionization_Penalty>
2.25732e-07

> <r_epik_Ionization_Penalty_Charging>
0

> <r_epik_Ionization_Penalty_Neutral>
2.25732e-07

> <r_epik_State_Penalty>
-0

> <r_epik_Charging_Adjusted_Penalty>
0

> <i_epik_Tot_Q>
0

> <i_epik_Tot_abs_Q>
0

> <r_epik_Metal_State_Penalty>
-0

> <b_epik_Metal_Only>
0

> <s_lp_Force_Field>
OPLS_2005

> <r_lp_Energy>
19.1857

> <b_lp_Chiralities_Consistent>
1

> <s_lp_Variant>
AV-unprocessed.smi:2088-2

> <Gold.Version>
5.8.1

> <Gold.Id.Protein>
6NUR|6NUR_protein|mol2

> <Gold.PLP.Fitness>
46.6121

> <Gold.PLP.PLP>
-45.1312

> <Gold.PLP.part.hbond>
-1.0000

> <Gold.PLP.part.metal>
0.0000

> <Gold.PLP.part.buried>
-4.1315

> <Gold.PLP.part.nonpolar>
-39.4122

> <Gold.PLP.part.repulsive>
0.1634

> <Gold.PLP.ligand.clash>
0.0000

> <Gold.PLP.ligand.torsion>
0.7709

> <Gold.PLP.Chemscore.Hbond>
1.0000

> <Gold.PLP.Chemscore.CHOScore>
0.0000

> <Gold.PLP.Chemscore.Metal>
0.0000

> <Gold.Chemscore.Hbonds>
donor molecule, donor type, donor heavy atom, donor atom, acceptor molecule, acceptor atom, score
      P1  H  7997  8008       L1     1  0.93

> <Gold.PLP.Chemscore.Internal.Correction>
0.0226

> <Gold.Rescore>
     Score         DG    S(hbond)    S(metal)    S(lipo)     H(rot)  DE(clash)    DE(int)     intcor
     12.76     -13.98       0.96        0.00      86.53       1.89       0.69       0.53       ----

> <Gold.Chemscore.Fitness>
12.7588

> <Gold.Chemscore.DG>
-13.9787

> <Gold.Chemscore.ZeroCoef>
-5.4800

> <Gold.Chemscore.Hbond>
0.9642

> <Gold.Chemscore.Metal>
0.0000

> <Gold.Chemscore.Lipo>
86.5281

> <Gold.Chemscore.Internal_Hbond>
0.0000

> <Gold.Chemscore.DEClash>
0.6932

> <Gold.Chemscore.DEInternal>
0.5267

> <Gold.Chemscore.Rot>
1.8928

> <Gold.Chemscore.Internal.Correction>
   9.000000E+99

> <Gold.Chemscore.Hbonds>
donor molecule, donor type, donor heavy atom, donor atom, acceptor molecule, acceptor atom, score
      P1  H  7997  8008       L1     1  0.27

> <Gold.Chemscore.Hbond.Weighted>
-3.2204

> <Gold.Chemscore.Metal.Weighted>
-0.0000

> <Gold.Chemscore.Lipo.Weighted>
-10.1238

> <Gold.Chemscore.Internal_Hbond.Weighted>
0.0000

> <Gold.Chemscore.DEClash.Weighted>
0.6932

> <Gold.Chemscore.DEInternal.Weighted>
0.5267

> <Gold.Chemscore.Rot.Weighted>
4.8455

> <Gold.Chemscore.Internal.Correction.Weighted>
   9.000000E+99

> <Gold.Protein.RotatedTorsions>
[ 6907 6896 6895 6894 ] final  -69.58 input  -60.11 | X-H torsion
[ 7974 7965 7964 7962 ] final -136.89 input  175.53 | X-H torsion
[ 8008 7997 7996 7995 ] final  -67.32 input   59.86 | X-H torsion
[ 10167 10162 10161 10158 ] final  -54.18 input  -65.29 | X-H torsion
[ 10718 10713 10712 10709 ] final  -78.42 input   66.30 | X-H torsion
[ 10763 10752 10751 10750 ] final  -65.31 input  -60.55 | X-H torsion
[ 11005 11000 10999 10996 ] final   93.63 input  -57.11 | X-H torsion

> <Gold.Protein.ActiveResidues>
 VAL166  LYS551  ARG553  GLY616  TRP617  ASP618  TYR619  PRO620  LYS621  CYS622 
 ASP623  PHE694  ASN695  SER759  ASP760  ASP761  ALA762  ILE779  LEU786  VAL792 
 PHE793  MET794  SER795  GLU796  ALA797  LYS798  CYS799  TRP800  GLU811  SER814 

> <Gold.Protein.RotatedAtoms>
  150.7298  134.5576  159.5825 H   0  0  0  0  0  0  0  0  0  0  0  0  # atno 6907 bound_to 6896
  152.3047  134.7566  160.0359 H   0  0  0  0  0  0  0  0  0  0  0  0  # atno 6908 bound_to 6896
  151.8134  133.3349  159.3599 H   0  0  0  0  0  0  0  0  0  0  0  0  # atno 6909 bound_to 6896
  144.8888  140.6613  143.5158 H   0  0  0  0  0  0  0  0  0  0  0  0  # atno 7974 bound_to 7965
  154.4792  140.0895  156.7337 H   0  0  0  0  0  0  0  0  0  0  0  0  # atno 8008 bound_to 7997
  155.4515  140.3457  155.4283 H   0  0  0  0  0  0  0  0  0  0  0  0  # atno 8009 bound_to 7997
  156.1165  140.1462  156.9253 H   0  0  0  0  0  0  0  0  0  0  0  0  # atno 8010 bound_to 7997
  140.6445  143.2527  151.4899 H   0  0  0  0  0  0  0  0  0  0  0  0  # atno 10167 bound_to 10162
  156.0118  130.4517  150.3494 H   0  0  0  0  0  0  0  0  0  0  0  0  # atno 10718 bound_to 10713
  154.3431  135.6152  153.5606 H   0  0  0  0  0  0  0  0  0  0  0  0  # atno 10763 bound_to 10752
  152.9803  135.5774  154.4830 H   0  0  0  0  0  0  0  0  0  0  0  0  # atno 10764 bound_to 10752
  154.4538  135.2853  155.1739 H   0  0  0  0  0  0  0  0  0  0  0  0  # atno 10765 bound_to 10752
  139.8808  134.8801  156.3746 H   0  0  0  0  0  0  0  0  0  0  0  0  # atno 11005 bound_to 11000
  145.3820  139.1635  143.4275 LP  0  0  0  0  0  0  0  0  0  0  0  0  # atno 17320 bound_to 7965
  146.3041  140.3902  142.8693 LP  0  0  0  0  0  0  0  0  0  0  0  0  # atno 17321 bound_to 7965
  139.5655  144.2054  152.1757 LP  0  0  0  0  0  0  0  0  0  0  0  0  # atno 17342 bound_to 10162
  140.1334  144.5268  150.6788 LP  0  0  0  0  0  0  0  0  0  0  0  0  # atno 17343 bound_to 10162
  157.1587  131.0339  151.2851 LP  0  0  0  0  0  0  0  0  0  0  0  0  # atno 17370 bound_to 10713
  157.4330  130.7501  149.7005 LP  0  0  0  0  0  0  0  0  0  0  0  0  # atno 17371 bound_to 10713
  140.9440  133.7495  156.0184 LP  0  0  0  0  0  0  0  0  0  0  0  0  # atno 17394 bound_to 11000
  140.8185  134.3317  157.5389 LP  0  0  0  0  0  0  0  0  0  0  0  0  # atno 17395 bound_to 11000

$$$$
