AV-unprocessed.smi:1509|AV-procd|sdf|6090|dock4
  -GOLD-   22720 6213D 1   1.00000     0.00000
 Structure written by MMmdl.
 42 43  0  0  0  0  0  0  0  0  2 V2000
  144.1582  132.5558  150.7681 C   0  0  0  0  0  0  0  0  0  0  0  0
  145.4916  131.8275  150.9896 C   0  0  2  0  0  0  0  0  0  0  0  0
  145.2696  130.3828  151.4673 C   0  0  0  0  0  0  0  0  0  0  0  0
  146.6169  129.6896  151.7042 C   0  0  0  0  0  0  0  0  0  0  0  0
  147.4876  130.4986  152.6785 C   0  0  0  0  0  0  0  0  0  0  0  0
  147.6890  131.8881  152.1920 N   0  3  2  0  0  0  0  0  0  0  0  0
  148.6337  132.6489  153.0492 C   0  0  0  0  0  0  0  0  0  0  0  0
  148.0621  132.9375  154.4482 C   0  0  0  0  0  0  0  0  0  0  0  0
  149.1463  133.4078  155.4324 C   0  0  0  0  0  0  0  0  0  0  0  0
  149.4348  134.8295  155.2832 N   0  0  0  0  0  0  0  0  0  0  0  0
  150.0910  135.5796  156.1824 C   0  0  0  0  0  0  0  0  0  0  0  0
  150.5062  135.1404  157.2546 O   0  0  0  0  0  0  0  0  0  0  0  0
  150.3201  137.0466  155.8164 C   0  0  0  0  0  0  0  0  0  0  0  0
  151.6927  137.4384  156.0771 N   0  0  0  0  0  0  0  0  0  0  0  0
  152.2990  138.6240  155.9864 C   0  0  0  0  0  0  0  0  0  0  0  0
  153.5794  138.5453  156.3149 N   0  0  0  0  0  0  0  0  0  0  0  0
  153.7423  137.2056  156.6257 N   0  0  0  0  0  0  0  0  0  0  0  0
  152.6261  136.5439  156.4869 N   0  0  0  0  0  0  0  0  0  0  0  0
  146.3913  132.5871  151.9856 C   0  0  0  0  0  0  0  0  0  0  0  0
  143.5881  132.6313  151.6946 H   0  0  0  0  0  0  0  0  0  0  0  0
  143.5404  132.0306  150.0392 H   0  0  0  0  0  0  0  0  0  0  0  0
  144.3197  133.5670  150.3933 H   0  0  0  0  0  0  0  0  0  0  0  0
  146.0082  131.7905  150.0292 H   0  0  0  0  0  0  0  0  0  0  0  0
  144.6877  130.3797  152.3903 H   0  0  0  0  0  0  0  0  0  0  0  0
  144.6900  129.8247  150.7312 H   0  0  0  0  0  0  0  0  0  0  0  0
  146.4544  128.6849  152.0954 H   0  0  0  0  0  0  0  0  0  0  0  0
  147.1408  129.5708  150.7548 H   0  0  0  0  0  0  0  0  0  0  0  0
  147.0268  130.5205  153.6675 H   0  0  0  0  0  0  0  0  0  0  0  0
  148.4521  130.0016  152.7883 H   0  0  0  0  0  0  0  0  0  0  0  0
  149.5830  132.1156  153.1198 H   0  0  0  0  0  0  0  0  0  0  0  0
  148.8545  133.6065  152.5755 H   0  0  0  0  0  0  0  0  0  0  0  0
  147.2860  133.7004  154.3734 H   0  0  0  0  0  0  0  0  0  0  0  0
  147.5809  132.0461  154.8490 H   0  0  0  0  0  0  0  0  0  0  0  0
  148.8475  133.1967  156.4606 H   0  0  0  0  0  0  0  0  0  0  0  0
  150.0707  132.8564  155.2591 H   0  0  0  0  0  0  0  0  0  0  0  0
  149.1286  135.2714  154.4281 H   0  0  0  0  0  0  0  0  0  0  0  0
  150.1005  137.2231  154.7624 H   0  0  0  0  0  0  0  0  0  0  0  0
  149.6451  137.6783  156.3959 H   0  0  0  0  0  0  0  0  0  0  0  0
  151.8075  139.5356  155.6797 H   0  0  0  0  0  0  0  0  0  0  0  0
  146.5643  133.5933  151.6057 H   0  0  0  0  0  0  0  0  0  0  0  0
  145.8825  132.6975  152.9448 H   0  0  0  0  0  0  0  0  0  0  0  0
  148.1267  131.8060  151.2855 H   0  0  0  0  0  0  0  0  0  0  0  0
  1  2  1  0  0  0  0
  1 20  1  0  0  0  0
  1 21  1  0  0  0  0
  1 22  1  0  0  0  0
  2 19  1  0  0  0  0
  2  3  1  0  0  0  0
  2 23  1  0  0  0  0
  3  4  1  0  0  0  0
  3 24  1  0  0  0  0
  3 25  1  0  0  0  0
  4  5  1  0  0  0  0
  4 26  1  0  0  0  0
  4 27  1  0  0  0  0
  5  6  1  0  0  0  0
  5 28  1  0  0  0  0
  5 29  1  0  0  0  0
  6  7  1  0  0  0  0
  6 19  1  0  0  0  0
  6 42  1  0  0  0  0
  7  8  1  0  0  0  0
  7 30  1  0  0  0  0
  7 31  1  0  0  0  0
  8  9  1  0  0  0  0
  8 32  1  0  0  0  0
  8 33  1  0  0  0  0
  9 10  1  0  0  0  0
  9 34  1  0  0  0  0
  9 35  1  0  0  0  0
 10 11  1  0  0  0  0
 10 36  1  0  0  0  0
 11 12  2  0  0  0  0
 11 13  1  0  0  0  0
 13 14  1  0  0  0  0
 13 37  1  0  0  0  0
 13 38  1  0  0  0  0
 14 18  1  0  0  0  0
 14 15  1  0  0  0  0
 15 16  2  0  0  0  0
 15 39  1  0  0  0  0
 16 17  1  0  0  0  0
 17 18  2  0  0  0  0
 19 40  1  0  0  0  0
 19 41  1  0  0  0  0
M  CHG  1   6   1
M  END
> <s_m_source_file>
AV-unprocessed.smi

> <i_m_source_file_index>
1509

> <i_lp_mmshare_version>
43012

> <i_f3d_flags>
0

> <s_epik_input>
W0NIM11bQ0BASF0xW0NIMl1bQ0gyXVtDSDJdTihbQ0gyXTEpW0NIMl1bQ0gyXVtDSDJdW05IXUMoPU8pW0NIMl1uMltjSF1ubm4y

> <s_epik_cmdline>
J2VwaWtfcHl0aG9uJywgJy1waCcsICc3LjAnLCAnLXRuJywgJzgnLCAnLW1hJywgJzIwMCcsICctbWV0YWxfYmluZGluZycsICctaW1hZScsICc8aW5maWxlLm1hZT4nLCAnLW9tYWUnLCAnPG91dGZpbGUubWFlPic=

> <r_lp_tautomer_probability>
1

> <r_epik_Ionization_Penalty>
0.00044216

> <r_epik_Ionization_Penalty_Charging>
0.000440775

> <r_epik_Ionization_Penalty_Neutral>
1.38512e-06

> <r_epik_State_Penalty>
0.000271914

> <r_epik_Charging_Adjusted_Penalty>
0.000712689

> <i_epik_Tot_Q>
1

> <i_epik_Tot_abs_Q>
1

> <r_epik_Metal_State_Penalty>
-0

> <b_epik_Metal_Only>
0

> <s_lp_Force_Field>
OPLS_2005

> <r_lp_Energy>
19.8667

> <b_lp_Chiralities_Consistent>
1

> <s_lp_Variant>
AV-unprocessed.smi:1509-1

> <Gold.Version>
5.8.1

> <Gold.Id.Protein>
6NUR|6NUR_protein|mol2

> <Gold.PLP.Fitness>
47.4838

> <Gold.PLP.PLP>
-37.1712

> <Gold.PLP.part.hbond>
-5.3652

> <Gold.PLP.part.metal>
0.0000

> <Gold.PLP.part.buried>
-5.2512

> <Gold.PLP.part.nonpolar>
-27.5379

> <Gold.PLP.part.repulsive>
0.0512

> <Gold.PLP.ligand.clash>
0.0000

> <Gold.PLP.ligand.torsion>
0.4612

> <Gold.PLP.Chemscore.Hbond>
3.7280

> <Gold.PLP.Chemscore.CHOScore>
0.0000

> <Gold.PLP.Chemscore.Metal>
0.0000

> <Gold.Chemscore.Hbonds>
donor molecule, donor type, donor heavy atom, donor atom, acceptor molecule, acceptor atom, score
      L1  H     6    42       P1 10747  0.93
      P1  H  6896  6908       L1    12  0.14
      P1  H  7997  8010       L1    16  0.42
      P1  H 10752 10764       L1    18  0.82

> <Gold.PLP.Chemscore.Internal.Correction>
0.0511

> <Gold.Rescore>
     Score         DG    S(hbond)    S(metal)    S(lipo)     H(rot)  DE(clash)    DE(int)     intcor
     14.08     -16.14       2.94        0.00      72.23       2.97       0.01       2.05       ----

> <Gold.Chemscore.Fitness>
14.0803

> <Gold.Chemscore.DG>
-16.1406

> <Gold.Chemscore.ZeroCoef>
-5.4800

> <Gold.Chemscore.Hbond>
2.9364

> <Gold.Chemscore.Metal>
0.0000

> <Gold.Chemscore.Lipo>
72.2305

> <Gold.Chemscore.Internal_Hbond>
0.0000

> <Gold.Chemscore.DEClash>
0.0126

> <Gold.Chemscore.DEInternal>
2.0477

> <Gold.Chemscore.Rot>
2.9680

> <Gold.Chemscore.Internal.Correction>
   9.000000E+99

> <Gold.Chemscore.Hbonds>
donor molecule, donor type, donor heavy atom, donor atom, acceptor molecule, acceptor atom, score
      L1  H     6    42       P1 10747  0.89
      P1  H  6896  6908       L1    12  0.13
      P1  H  7997  8010       L1    16  0.31
      P1  H 10752 10764       L1    18  0.10

> <Gold.Chemscore.Hbond.Weighted>
-9.8076

> <Gold.Chemscore.Metal.Weighted>
-0.0000

> <Gold.Chemscore.Lipo.Weighted>
-8.4510

> <Gold.Chemscore.Internal_Hbond.Weighted>
0.0000

> <Gold.Chemscore.DEClash.Weighted>
0.0126

> <Gold.Chemscore.DEInternal.Weighted>
2.0477

> <Gold.Chemscore.Rot.Weighted>
7.5980

> <Gold.Chemscore.Internal.Correction.Weighted>
   9.000000E+99

> <Gold.Protein.RotatedTorsions>
[ 6907 6896 6895 6894 ] final  164.09 input  -60.11 | X-H torsion
[ 7974 7965 7964 7962 ] final  171.04 input  175.53 | X-H torsion
[ 8008 7997 7996 7995 ] final  108.10 input   59.86 | X-H torsion
[ 10167 10162 10161 10158 ] final -161.76 input  -65.29 | X-H torsion
[ 10718 10713 10712 10709 ] final  -13.49 input   66.30 | X-H torsion
[ 10763 10752 10751 10750 ] final  -38.47 input  -60.55 | X-H torsion
[ 11005 11000 10999 10996 ] final  -86.90 input  -57.11 | X-H torsion

> <Gold.Protein.ActiveResidues>
 VAL166  LYS551  ARG553  GLY616  TRP617  ASP618  TYR619  PRO620  LYS621  CYS622 
 ASP623  PHE694  ASN695  SER759  ASP760  ASP761  ALA762  ILE779  LEU786  VAL792 
 PHE793  MET794  SER795  GLU796  ALA797  LYS798  CYS799  TRP800  GLU811  SER814 

> <Gold.Protein.RotatedAtoms>
  151.9151  133.3571  159.3877 H   0  0  0  0  0  0  0  0  0  0  0  0  # atno 6907 bound_to 6896
  150.7049  134.4692  159.5426 H   0  0  0  0  0  0  0  0  0  0  0  0  # atno 6908 bound_to 6896
  152.2305  134.8326  160.0525 H   0  0  0  0  0  0  0  0  0  0  0  0  # atno 6909 bound_to 6896
  144.7306  139.9291  143.6424 H   0  0  0  0  0  0  0  0  0  0  0  0  # atno 7974 bound_to 7965
  156.1876  140.3083  155.9269 H   0  0  0  0  0  0  0  0  0  0  0  0  # atno 8008 bound_to 7997
  155.3245  140.0457  157.3057 H   0  0  0  0  0  0  0  0  0  0  0  0  # atno 8009 bound_to 7997
  154.5414  140.2263  155.8644 H   0  0  0  0  0  0  0  0  0  0  0  0  # atno 8010 bound_to 7997
  139.6442  144.0204  152.2114 H   0  0  0  0  0  0  0  0  0  0  0  0  # atno 10167 bound_to 10162
  156.6296  130.4898  149.6134 H   0  0  0  0  0  0  0  0  0  0  0  0  # atno 10718 bound_to 10713
  153.9133  135.6790  153.4750 H   0  0  0  0  0  0  0  0  0  0  0  0  # atno 10763 bound_to 10752
  153.1067  135.4802  154.8960 H   0  0  0  0  0  0  0  0  0  0  0  0  # atno 10764 bound_to 10752
  154.7515  135.3186  154.8503 H   0  0  0  0  0  0  0  0  0  0  0  0  # atno 10765 bound_to 10752
  141.1624  133.7480  156.9228 H   0  0  0  0  0  0  0  0  0  0  0  0  # atno 11005 bound_to 11000
  146.0871  139.3860  143.0428 LP  0  0  0  0  0  0  0  0  0  0  0  0  # atno 17320 bound_to 7965
  145.7761  140.9876  143.1123 LP  0  0  0  0  0  0  0  0  0  0  0  0  # atno 17321 bound_to 7965
  139.9901  144.6367  150.7822 LP  0  0  0  0  0  0  0  0  0  0  0  0  # atno 17342 bound_to 10162
  140.7506  143.2958  151.3209 LP  0  0  0  0  0  0  0  0  0  0  0  0  # atno 17343 bound_to 10162
  156.2246  130.6757  151.1402 LP  0  0  0  0  0  0  0  0  0  0  0  0  # atno 17370 bound_to 10713
  157.7204  131.0685  150.6159 LP  0  0  0  0  0  0  0  0  0  0  0  0  # atno 17371 bound_to 10713
  140.1439  134.9275  157.2504 LP  0  0  0  0  0  0  0  0  0  0  0  0  # atno 17394 bound_to 11000
  140.2803  134.3358  155.7345 LP  0  0  0  0  0  0  0  0  0  0  0  0  # atno 17395 bound_to 11000

$$$$
