AV-unprocessed.smi:1988|AV-procd|sdf|8058|dock9
  -GOLD-   2272010263D 1   1.00000     0.00000
 Structure written by MMmdl.
 37 38  0  0  0  0  0  0  0  0  1 V2000
  144.4663  135.0326  150.2095 C   0  0  0  0  0  0  0  0  0  0  0  0
  144.5519  133.5406  150.3574 C   0  0  0  0  0  0  0  0  0  0  0  0
  143.5274  132.7923  149.9849 N   0  0  0  0  0  0  0  0  0  0  0  0
  143.8968  131.4720  150.2582 O   0  0  0  0  0  0  0  0  0  0  0  0
  145.1438  131.4777  150.7938 C   0  0  0  0  0  0  0  0  0  0  0  0
  145.7188  130.1550  151.1729 C   0  0  0  0  0  0  0  0  0  0  0  0
  145.6200  132.7566  150.8829 C   0  0  0  0  0  0  0  0  0  0  0  0
  146.9454  133.2261  151.4254 C   0  0  0  0  0  0  0  0  0  0  0  0
  146.8060  133.4767  152.9253 C   0  0  0  0  0  0  0  0  0  0  0  0
  146.1876  132.6769  153.6274 O   0  0  0  0  0  0  0  0  0  0  0  0
  147.3527  134.6101  153.3920 N   0  0  0  0  0  0  0  0  0  0  0  0
  147.2158  135.1191  154.7523 C   0  0  0  0  0  0  0  0  0  0  0  0
  148.3575  134.6138  155.6554 C   0  0  2  0  0  0  0  0  0  0  0  0
  149.7491  134.9806  155.1047 C   0  0  0  0  0  0  0  0  0  0  0  0
  150.8103  134.2295  155.9153 C   0  0  0  0  0  0  0  0  0  0  0  0
  150.0461  132.6268  156.3644 S   0  0  0  0  0  0  0  0  0  0  0  0
  150.5244  131.5804  155.4483 O   0  0  0  0  0  0  0  0  0  0  0  0
  150.1250  132.4517  157.8225 O   0  0  0  0  0  0  0  0  0  0  0  0
  148.3377  133.0934  155.8949 C   0  0  0  0  0  0  0  0  0  0  0  0
  145.4476  135.4685  150.0235 H   0  0  0  0  0  0  0  0  0  0  0  0
  144.0662  135.4896  151.1149 H   0  0  0  0  0  0  0  0  0  0  0  0
  143.8186  135.3160  149.3794 H   0  0  0  0  0  0  0  0  0  0  0  0
  145.8552  130.0914  152.2525 H   0  0  0  0  0  0  0  0  0  0  0  0
  146.6897  130.0068  150.7005 H   0  0  0  0  0  0  0  0  0  0  0  0
  145.0654  129.3380  150.8658 H   0  0  0  0  0  0  0  0  0  0  0  0
  147.7283  132.4843  151.2631 H   0  0  0  0  0  0  0  0  0  0  0  0
  147.2844  134.1364  150.9293 H   0  0  0  0  0  0  0  0  0  0  0  0
  147.8467  135.1981  152.7361 H   0  0  0  0  0  0  0  0  0  0  0  0
  147.1730  136.2096  154.7633 H   0  0  0  0  0  0  0  0  0  0  0  0
  146.2588  134.7734  155.1437 H   0  0  0  0  0  0  0  0  0  0  0  0
  148.2616  135.0960  156.6297 H   0  0  0  0  0  0  0  0  0  0  0  0
  149.8160  134.6672  154.0619 H   0  0  0  0  0  0  0  0  0  0  0  0
  149.9222  136.0571  155.1250 H   0  0  0  0  0  0  0  0  0  0  0  0
  151.7359  134.0663  155.3630 H   0  0  0  0  0  0  0  0  0  0  0  0
  151.0422  134.7626  156.8376 H   0  0  0  0  0  0  0  0  0  0  0  0
  147.6394  132.7914  156.6757 H   0  0  0  0  0  0  0  0  0  0  0  0
  148.0864  132.5555  154.9802 H   0  0  0  0  0  0  0  0  0  0  0  0
  1  2  1  0  0  0  0
  1 20  1  0  0  0  0
  1 21  1  0  0  0  0
  1 22  1  0  0  0  0
  2  7  1  0  0  0  0
  2  3  2  0  0  0  0
  3  4  1  0  0  0  0
  4  5  1  0  0  0  0
  5  6  1  0  0  0  0
  5  7  2  0  0  0  0
  6 23  1  0  0  0  0
  6 24  1  0  0  0  0
  6 25  1  0  0  0  0
  7  8  1  0  0  0  0
  8  9  1  0  0  0  0
  8 26  1  0  0  0  0
  8 27  1  0  0  0  0
  9 10  2  0  0  0  0
  9 11  1  0  0  0  0
 11 12  1  0  0  0  0
 11 28  1  0  0  0  0
 12 13  1  0  0  0  0
 12 29  1  0  0  0  0
 12 30  1  0  0  0  0
 13 19  1  0  0  0  0
 13 14  1  0  0  0  0
 13 31  1  0  0  0  0
 14 15  1  0  0  0  0
 14 32  1  0  0  0  0
 14 33  1  0  0  0  0
 15 16  1  0  0  0  0
 15 34  1  0  0  0  0
 15 35  1  0  0  0  0
 16 17  2  0  0  0  0
 16 18  2  0  0  0  0
 16 19  1  0  0  0  0
 19 36  1  0  0  0  0
 19 37  1  0  0  0  0
M  END
> <s_m_source_file>
AV-unprocessed.smi

> <i_m_source_file_index>
1988

> <i_lp_mmshare_version>
43012

> <i_f3d_flags>
0

> <s_epik_input>
W0NIM11jMW5vYyhbQ0gzXSljMVtDSDJdQyg9TylbTkhdW0NIMl1bQ0BASF0oW0NIMl0yKVtDSDJdW0NIMl1TMig9Tyk9Tw==

> <s_epik_cmdline>
J2VwaWtfcHl0aG9uJywgJy1waCcsICc3LjAnLCAnLXRuJywgJzgnLCAnLW1hJywgJzIwMCcsICctbWV0YWxfYmluZGluZycsICctaW1hZScsICc8aW5maWxlLm1hZT4nLCAnLW9tYWUnLCAnPG91dGZpbGUubWFlPic=

> <r_lp_tautomer_probability>
1

> <r_epik_Ionization_Penalty>
2.7503e-08

> <r_epik_Ionization_Penalty_Charging>
0

> <r_epik_Ionization_Penalty_Neutral>
2.7503e-08

> <r_epik_State_Penalty>
-0

> <r_epik_Charging_Adjusted_Penalty>
0

> <i_epik_Tot_Q>
0

> <i_epik_Tot_abs_Q>
0

> <r_epik_Metal_State_Penalty>
-0

> <b_epik_Metal_Only>
0

> <s_lp_Force_Field>
OPLS_2005

> <r_lp_Energy>
-3.10021

> <b_lp_Chiralities_Consistent>
1

> <s_lp_Variant>
AV-unprocessed.smi:1988-1

> <Gold.Version>
5.8.1

> <Gold.Id.Protein>
6NUR|6NUR_protein|mol2

> <Gold.PLP.Fitness>
32.4052

> <Gold.PLP.PLP>
-26.4206

> <Gold.PLP.part.hbond>
-3.0000

> <Gold.PLP.part.metal>
0.0000

> <Gold.PLP.part.buried>
-5.4838

> <Gold.PLP.part.nonpolar>
-19.5410

> <Gold.PLP.part.repulsive>
1.2117

> <Gold.PLP.ligand.clash>
0.0000

> <Gold.PLP.ligand.torsion>
0.7838

> <Gold.PLP.Chemscore.Hbond>
2.5143

> <Gold.PLP.Chemscore.CHOScore>
0.0000

> <Gold.PLP.Chemscore.Metal>
0.0000

> <Gold.Chemscore.Hbonds>
donor molecule, donor type, donor heavy atom, donor atom, acceptor molecule, acceptor atom, score
      L1  H    11    28       P1  7948  1.00
      P1  H  6896  6909       L1    18  1.00
      P1  H 10785 10796       L1     4  0.56

> <Gold.PLP.Chemscore.Internal.Correction>
0.0095

> <Gold.Rescore>
     Score         DG    S(hbond)    S(metal)    S(lipo)     H(rot)  DE(clash)    DE(int)     intcor
     16.14     -17.31       2.44        0.00      68.55       1.70       0.26       0.90       ----

> <Gold.Chemscore.Fitness>
16.1402

> <Gold.Chemscore.DG>
-17.3052

> <Gold.Chemscore.ZeroCoef>
-5.4800

> <Gold.Chemscore.Hbond>
2.4390

> <Gold.Chemscore.Metal>
0.0000

> <Gold.Chemscore.Lipo>
68.5477

> <Gold.Chemscore.Internal_Hbond>
0.0000

> <Gold.Chemscore.DEClash>
0.2608

> <Gold.Chemscore.DEInternal>
0.9043

> <Gold.Chemscore.Rot>
1.6958

> <Gold.Chemscore.Internal.Correction>
   9.000000E+99

> <Gold.Chemscore.Hbonds>
donor molecule, donor type, donor heavy atom, donor atom, acceptor molecule, acceptor atom, score
      L1  H    11    28       P1  7948  1.00
      P1  H  6896  6909       L1    18  0.98
      P1  H 10785 10796       L1     4  0.44

> <Gold.Chemscore.Hbond.Weighted>
-8.1464

> <Gold.Chemscore.Metal.Weighted>
-0.0000

> <Gold.Chemscore.Lipo.Weighted>
-8.0201

> <Gold.Chemscore.Internal_Hbond.Weighted>
0.0000

> <Gold.Chemscore.DEClash.Weighted>
0.2608

> <Gold.Chemscore.DEInternal.Weighted>
0.9043

> <Gold.Chemscore.Rot.Weighted>
4.3413

> <Gold.Chemscore.Internal.Correction.Weighted>
   9.000000E+99

> <Gold.Protein.RotatedTorsions>
[ 6907 6896 6895 6894 ] final  -21.36 input  -60.11 | X-H torsion
[ 7974 7965 7964 7962 ] final  172.39 input  175.53 | X-H torsion
[ 8008 7997 7996 7995 ] final   27.08 input   59.86 | X-H torsion
[ 10167 10162 10161 10158 ] final  -39.20 input  -65.29 | X-H torsion
[ 10718 10713 10712 10709 ] final  100.23 input   66.30 | X-H torsion
[ 10763 10752 10751 10750 ] final   98.52 input  -60.55 | X-H torsion
[ 11005 11000 10999 10996 ] final  -10.52 input  -57.11 | X-H torsion

> <Gold.Protein.ActiveResidues>
 VAL166  LYS551  ARG553  GLY616  TRP617  ASP618  TYR619  PRO620  LYS621  CYS622 
 ASP623  PHE694  ASN695  SER759  ASP760  ASP761  ALA762  ILE779  LEU786  VAL792 
 PHE793  MET794  SER795  GLU796  ALA797  LYS798  CYS799  TRP800  GLU811  SER814 

> <Gold.Protein.RotatedAtoms>
  151.2344  135.0566  159.9000 H   0  0  0  0  0  0  0  0  0  0  0  0  # atno 6907 bound_to 6896
  152.5401  134.0502  159.8116 H   0  0  0  0  0  0  0  0  0  0  0  0  # atno 6908 bound_to 6896
  151.0686  133.5436  159.2660 H   0  0  0  0  0  0  0  0  0  0  0  0  # atno 6909 bound_to 6896
  144.7269  139.9491  143.6431 H   0  0  0  0  0  0  0  0  0  0  0  0  # atno 7974 bound_to 7965
  155.0373  140.3165  155.4737 H   0  0  0  0  0  0  0  0  0  0  0  0  # atno 8008 bound_to 7997
  156.2862  140.2169  156.5439 H   0  0  0  0  0  0  0  0  0  0  0  0  # atno 8009 bound_to 7997
  154.7319  140.0480  157.0722 H   0  0  0  0  0  0  0  0  0  0  0  0  # atno 8010 bound_to 7997
  140.7071  143.3229  151.2749 H   0  0  0  0  0  0  0  0  0  0  0  0  # atno 10167 bound_to 10162
  157.6859  131.0692  150.5069 H   0  0  0  0  0  0  0  0  0  0  0  0  # atno 10718 bound_to 10713
  153.2901  135.4145  155.1159 H   0  0  0  0  0  0  0  0  0  0  0  0  # atno 10763 bound_to 10752
  154.8517  135.3516  154.5993 H   0  0  0  0  0  0  0  0  0  0  0  0  # atno 10764 bound_to 10752
  153.6415  135.7056  153.5298 H   0  0  0  0  0  0  0  0  0  0  0  0  # atno 10765 bound_to 10752
  140.7457  133.8634  155.9003 H   0  0  0  0  0  0  0  0  0  0  0  0  # atno 11005 bound_to 11000
  146.0725  139.3714  143.0514 LP  0  0  0  0  0  0  0  0  0  0  0  0  # atno 17320 bound_to 7965
  145.7949  140.9797  143.1029 LP  0  0  0  0  0  0  0  0  0  0  0  0  # atno 17321 bound_to 7965
  139.6688  144.0057  152.2740 LP  0  0  0  0  0  0  0  0  0  0  0  0  # atno 17342 bound_to 10162
  139.9648  144.6533  150.8044 LP  0  0  0  0  0  0  0  0  0  0  0  0  # atno 17343 bound_to 10162
  156.5388  130.4203  149.6164 LP  0  0  0  0  0  0  0  0  0  0  0  0  # atno 17370 bound_to 10713
  156.3004  130.7173  151.2044 LP  0  0  0  0  0  0  0  0  0  0  0  0  # atno 17371 bound_to 10713
  140.9797  134.1422  157.4505 LP  0  0  0  0  0  0  0  0  0  0  0  0  # atno 17394 bound_to 11000
  139.8797  135.0006  156.6021 LP  0  0  0  0  0  0  0  0  0  0  0  0  # atno 17395 bound_to 11000

$$$$
