AV-unprocessed.smi:1696|AV-procd|sdf|6802|dock6
  -GOLD-   22720 7573D 1   1.00000     0.00000
 Structure written by MMmdl.
 38 39  0  0  0  0  0  0  0  0  3 V2000
  152.5084  138.9561  155.2217 C   0  0  0  0  0  0  0  0  0  0  0  0
  151.4520  138.2291  154.3746 C   0  0  0  0  0  0  0  0  0  0  0  0
  150.3799  137.4601  155.1936 C   0  0  1  0  0  0  0  0  0  0  0  0
  150.1982  138.0305  156.6240 C   0  0  0  0  0  0  0  0  0  0  0  0
  149.9493  136.9765  157.6037 N   0  0  0  0  0  0  0  0  0  0  0  0
  149.5420  137.1413  158.8702 C   0  0  0  0  0  0  0  0  0  0  0  0
  149.3159  138.2716  159.3074 O   0  0  0  0  0  0  0  0  0  0  0  0
  149.4253  135.9803  159.5524 N   0  5  0  0  0  0  0  0  0  0  0  0
  148.6327  135.9138  160.6345 C   0  0  0  0  0  0  0  0  0  0  0  0
  148.1769  136.9974  161.2735 N   0  0  0  0  0  0  0  0  0  0  0  0
  147.3748  136.6951  162.3754 C   0  0  0  0  0  0  0  0  0  0  0  0
  147.2237  135.3500  162.5856 C   0  0  0  0  0  0  0  0  0  0  0  0
  148.0895  134.4172  161.3982 S   0  0  0  0  0  0  0  0  0  0  0  0
  149.0865  137.3944  154.4516 N   0  3  0  0  0  0  0  0  0  0  0  0
  148.0446  136.5329  155.0676 C   0  0  0  0  0  0  0  0  0  0  0  0
  146.6931  137.2291  154.8547 C   0  0  0  0  0  0  0  0  0  0  0  0
  146.9843  138.3485  153.8623 C   0  0  0  0  0  0  0  0  0  0  0  0
  148.4402  138.6912  154.1540 C   0  0  0  0  0  0  0  0  0  0  0  0
  153.2125  139.4872  154.5810 H   0  0  0  0  0  0  0  0  0  0  0  0
  153.0857  138.2612  155.8304 H   0  0  0  0  0  0  0  0  0  0  0  0
  152.0539  139.6893  155.8880 H   0  0  0  0  0  0  0  0  0  0  0  0
  150.9732  138.9549  153.7180 H   0  0  0  0  0  0  0  0  0  0  0  0
  151.9606  137.5429  153.6970 H   0  0  0  0  0  0  0  0  0  0  0  0
  150.7330  136.4334  155.3053 H   0  0  0  0  0  0  0  0  0  0  0  0
  151.0558  138.6468  156.8972 H   0  0  0  0  0  0  0  0  0  0  0  0
  149.3303  138.6879  156.6688 H   0  0  0  0  0  0  0  0  0  0  0  0
  150.1134  136.0278  157.2996 H   0  0  0  0  0  0  0  0  0  0  0  0
  146.9535  137.5019  162.9567 H   0  0  0  0  0  0  0  0  0  0  0  0
  146.6613  134.8533  163.3617 H   0  0  0  0  0  0  0  0  0  0  0  0
  148.0651  135.5521  154.5914 H   0  0  0  0  0  0  0  0  0  0  0  0
  148.2170  136.3878  156.1351 H   0  0  0  0  0  0  0  0  0  0  0  0
  145.9202  136.5470  154.4987 H   0  0  0  0  0  0  0  0  0  0  0  0
  146.3484  137.6560  155.7977 H   0  0  0  0  0  0  0  0  0  0  0  0
  146.8882  137.9753  152.8417 H   0  0  0  0  0  0  0  0  0  0  0  0
  146.3155  139.2024  153.9746 H   0  0  0  0  0  0  0  0  0  0  0  0
  148.4963  139.3409  155.0292 H   0  0  0  0  0  0  0  0  0  0  0  0
  148.9149  139.2018  153.3155 H   0  0  0  0  0  0  0  0  0  0  0  0
  149.2908  136.9825  153.5521 H   0  0  0  0  0  0  0  0  0  0  0  0
  1  2  1  0  0  0  0
  1 19  1  0  0  0  0
  1 20  1  0  0  0  0
  1 21  1  0  0  0  0
  2  3  1  0  0  0  0
  2 22  1  0  0  0  0
  2 23  1  0  0  0  0
  3  4  1  0  0  0  0
  3 14  1  0  0  0  0
  3 24  1  0  0  0  0
  4  5  1  0  0  0  0
  4 25  1  0  0  0  0
  4 26  1  0  0  0  0
  5  6  1  0  0  0  0
  5 27  1  0  0  0  0
  6  7  2  0  0  0  0
  6  8  1  0  0  0  0
  8  9  1  0  0  0  0
  9 13  1  0  0  0  0
  9 10  2  0  0  0  0
 10 11  1  0  0  0  0
 11 12  2  0  0  0  0
 11 28  1  0  0  0  0
 12 13  1  0  0  0  0
 12 29  1  0  0  0  0
 14 18  1  0  0  0  0
 14 15  1  0  0  0  0
 14 38  1  0  0  0  0
 15 16  1  0  0  0  0
 15 30  1  0  0  0  0
 15 31  1  0  0  0  0
 16 17  1  0  0  0  0
 16 32  1  0  0  0  0
 16 33  1  0  0  0  0
 17 18  1  0  0  0  0
 17 34  1  0  0  0  0
 17 35  1  0  0  0  0
 18 36  1  0  0  0  0
 18 37  1  0  0  0  0
M  CHG  1   8  -1
M  CHG  1  14   1
M  END
> <s_m_source_file>
AV-unprocessed.smi

> <i_m_source_file_index>
1696

> <i_lp_mmshare_version>
43012

> <i_f3d_flags>
0

> <s_epik_input>
W0NIMl0xW0NIMl1bQ0gyXVtDSDJdTjFbQ0BIXShbQ0gyXVtDSDNdKVtDSDJdW05IXUMoPU8pW05IXWMybltjSF1bY0hdczI=

> <s_epik_cmdline>
J2VwaWtfcHl0aG9uJywgJy1waCcsICc3LjAnLCAnLXRuJywgJzgnLCAnLW1hJywgJzIwMCcsICctbWV0YWxfYmluZGluZycsICctaW1hZScsICc8aW5maWxlLm1hZT4nLCAnLW9tYWUnLCAnPG91dGZpbGUubWFlPic=

> <r_lp_tautomer_probability>
1

> <r_epik_Ionization_Penalty>
7.71903

> <r_epik_Ionization_Penalty_Charging>
6.3282

> <r_epik_Ionization_Penalty_Neutral>
1.39083

> <r_epik_State_Penalty>
6.32705

> <r_epik_Charging_Adjusted_Penalty>
12.6552

> <i_epik_Tot_Q>
0

> <i_epik_Tot_abs_Q>
2

> <r_epik_Metal_State_Penalty>
2.26116

> <b_epik_Metal_Only>
1

> <s_lp_Force_Field>
OPLS_2005

> <r_lp_Energy>
23.2163

> <b_lp_Chiralities_Consistent>
1

> <s_lp_Variant>
AV-unprocessed.smi:1696-4

> <Gold.Version>
5.8.1

> <Gold.Id.Protein>
6NUR|6NUR_protein|mol2

> <Gold.PLP.Fitness>
44.3376

> <Gold.PLP.PLP>
-29.7276

> <Gold.PLP.part.hbond>
-6.0000

> <Gold.PLP.part.metal>
0.0000

> <Gold.PLP.part.buried>
-2.8543

> <Gold.PLP.part.nonpolar>
-21.2790

> <Gold.PLP.part.repulsive>
0.0498

> <Gold.PLP.ligand.clash>
0.0000

> <Gold.PLP.ligand.torsion>
1.1097

> <Gold.PLP.Chemscore.Hbond>
5.4805

> <Gold.PLP.Chemscore.CHOScore>
0.0000

> <Gold.PLP.Chemscore.Metal>
0.0000

> <Gold.Chemscore.Hbonds>
donor molecule, donor type, donor heavy atom, donor atom, acceptor molecule, acceptor atom, score
      L1  H    14    38       P1  7948  2.00
      P1  H  6896  6908       L1     8  2.00
      P1  H  6931  6943       L1    10  0.95
      P1  H  6934  6947       L1    10  0.18

> <Gold.PLP.Chemscore.Internal.Correction>
0.3880

> <Gold.Rescore>
     Score         DG    S(hbond)    S(metal)    S(lipo)     H(rot)  DE(clash)    DE(int)     intcor
     14.06     -16.88       2.70        0.00      58.19       1.73       0.07       2.75       ----

> <Gold.Chemscore.Fitness>
14.0583

> <Gold.Chemscore.DG>
-16.8837

> <Gold.Chemscore.ZeroCoef>
-5.4800

> <Gold.Chemscore.Hbond>
2.6996

> <Gold.Chemscore.Metal>
0.0000

> <Gold.Chemscore.Lipo>
58.1882

> <Gold.Chemscore.Internal_Hbond>
0.0000

> <Gold.Chemscore.DEClash>
0.0727

> <Gold.Chemscore.DEInternal>
2.7526

> <Gold.Chemscore.Rot>
1.7270

> <Gold.Chemscore.Internal.Correction>
   9.000000E+99

> <Gold.Chemscore.Hbonds>
donor molecule, donor type, donor heavy atom, donor atom, acceptor molecule, acceptor atom, score
      L1  H    14    38       P1  7948  0.97
      P1  H  6896  6908       L1     8  0.78
      P1  H  6931  6943       L1    10  0.21
      P1  H  6934  6947       L1    10  0.02

> <Gold.Chemscore.Hbond.Weighted>
-9.0168

> <Gold.Chemscore.Metal.Weighted>
-0.0000

> <Gold.Chemscore.Lipo.Weighted>
-6.8080

> <Gold.Chemscore.Internal_Hbond.Weighted>
0.0000

> <Gold.Chemscore.DEClash.Weighted>
0.0727

> <Gold.Chemscore.DEInternal.Weighted>
2.7526

> <Gold.Chemscore.Rot.Weighted>
4.4212

> <Gold.Chemscore.Internal.Correction.Weighted>
   9.000000E+99

> <Gold.Protein.RotatedTorsions>
[ 6907 6896 6895 6894 ] final -179.83 input  -60.11 | X-H torsion
[ 7974 7965 7964 7962 ] final  -96.61 input  175.53 | X-H torsion
[ 8008 7997 7996 7995 ] final  -22.22 input   59.86 | X-H torsion
[ 10167 10162 10161 10158 ] final  -19.13 input  -65.29 | X-H torsion
[ 10718 10713 10712 10709 ] final -107.81 input   66.30 | X-H torsion
[ 10763 10752 10751 10750 ] final  -99.61 input  -60.55 | X-H torsion
[ 11005 11000 10999 10996 ] final -177.89 input  -57.11 | X-H torsion

> <Gold.Protein.ActiveResidues>
 VAL166  LYS551  ARG553  GLY616  TRP617  ASP618  TYR619  PRO620  LYS621  CYS622 
 ASP623  PHE694  ASN695  SER759  ASP760  ASP761  ALA762  ILE779  LEU786  VAL792 
 PHE793  MET794  SER795  GLU796  ALA797  LYS798  CYS799  TRP800  GLU811  SER814 

> <Gold.Protein.RotatedAtoms>
  151.6598  133.3317  159.3170 H   0  0  0  0  0  0  0  0  0  0  0  0  # atno 6907 bound_to 6896
  150.7919  134.6953  159.6529 H   0  0  0  0  0  0  0  0  0  0  0  0  # atno 6908 bound_to 6896
  152.4000  134.6305  160.0126 H   0  0  0  0  0  0  0  0  0  0  0  0  # atno 6909 bound_to 6896
  145.3446  140.9466  143.2588 H   0  0  0  0  0  0  0  0  0  0  0  0  # atno 7974 bound_to 7965
  154.4657  140.2014  156.0124 H   0  0  0  0  0  0  0  0  0  0  0  0  # atno 8008 bound_to 7997
  156.0923  140.3256  155.7803 H   0  0  0  0  0  0  0  0  0  0  0  0  # atno 8009 bound_to 7997
  155.4936  140.0548  157.2941 H   0  0  0  0  0  0  0  0  0  0  0  0  # atno 8010 bound_to 7997
  140.7265  143.4848  151.0069 H   0  0  0  0  0  0  0  0  0  0  0  0  # atno 10167 bound_to 10162
  156.0455  130.5681  150.7874 H   0  0  0  0  0  0  0  0  0  0  0  0  # atno 10718 bound_to 10713
  154.7512  135.4966  153.9292 H   0  0  0  0  0  0  0  0  0  0  0  0  # atno 10763 bound_to 10752
  153.1145  135.6717  153.9450 H   0  0  0  0  0  0  0  0  0  0  0  0  # atno 10764 bound_to 10752
  153.9199  135.3089  155.3427 H   0  0  0  0  0  0  0  0  0  0  0  0  # atno 10765 bound_to 10752
  140.4358  134.6477  157.4734 H   0  0  0  0  0  0  0  0  0  0  0  0  # atno 11005 bound_to 11000
  144.8764  139.4966  143.6744 LP  0  0  0  0  0  0  0  0  0  0  0  0  # atno 17320 bound_to 7965
  146.2993  139.7376  142.9103 LP  0  0  0  0  0  0  0  0  0  0  0  0  # atno 17321 bound_to 7965
  139.8549  143.7389  152.3176 LP  0  0  0  0  0  0  0  0  0  0  0  0  # atno 17342 bound_to 10162
  139.7585  144.7513  151.0400 LP  0  0  0  0  0  0  0  0  0  0  0  0  # atno 17343 bound_to 10162
  157.5324  131.0937  150.9937 LP  0  0  0  0  0  0  0  0  0  0  0  0  # atno 17370 bound_to 10713
  157.0240  130.5685  149.5335 LP  0  0  0  0  0  0  0  0  0  0  0  0  # atno 17371 bound_to 10713
  140.0103  134.6701  155.9391 LP  0  0  0  0  0  0  0  0  0  0  0  0  # atno 17394 bound_to 11000
  141.1726  133.6538  156.4709 LP  0  0  0  0  0  0  0  0  0  0  0  0  # atno 17395 bound_to 11000

$$$$
