AV-unprocessed.smi:1978|AV-procd|sdf|8014|dock4
  -GOLD-   2272010203D 1   1.00000     0.00000
 Structure written by MMmdl.
 44 45  0  0  0  0  0  0  0  0  3 V2000
  147.7257  136.2841  162.7399 C   0  0  0  0  0  0  0  0  0  0  0  0
  147.7340  136.4104  161.2552 C   0  0  0  0  0  0  0  0  0  0  0  0
  148.3223  135.6786  160.2625 C   0  0  0  0  0  0  0  0  0  0  0  0
  147.9192  136.3567  159.0812 C   0  0  0  0  0  0  0  0  0  0  0  0
  148.3348  135.8941  157.8044 N   0  0  0  0  0  0  0  0  0  0  0  0
  148.8509  134.6978  157.4679 C   0  0  0  0  0  0  0  0  0  0  0  0
  149.0018  133.8193  158.3253 O   0  0  0  0  0  0  0  0  0  0  0  0
  149.1520  134.6222  156.1424 N   0  5  0  0  0  0  0  0  0  0  0  0
  148.2173  134.9368  155.0624 C   0  0  0  0  0  0  0  0  0  0  0  0
  148.0896  133.7306  154.0794 C   0  0  2  0  0  0  0  0  0  0  0  0
  149.5147  133.2059  153.7222 C   0  0  0  0  0  0  0  0  0  0  0  0
  147.2509  134.1079  152.8823 N   0  3  2  0  0  0  0  0  0  0  0  0
  146.1351  135.0675  153.1697 C   0  0  0  0  0  0  0  0  0  0  0  0
  145.6133  135.6999  151.8686 C   0  0  0  0  0  0  0  0  0  0  0  0
  145.1511  134.6315  150.8709 C   0  0  0  0  0  0  0  0  0  0  0  0
  146.2578  133.5866  150.6583 C   0  0  0  0  0  0  0  0  0  0  0  0
  146.7762  132.9995  151.9893 C   0  0  2  0  0  0  0  0  0  0  0  0
  145.7259  132.0736  152.6505 C   0  0  0  0  0  0  0  0  0  0  0  0
  147.1520  137.4073  159.3321 N   0  0  0  0  0  0  0  0  0  0  0  0
  147.0297  137.4472  160.7260 O   0  0  0  0  0  0  0  0  0  0  0  0
  148.3058  135.4188  163.0608 H   0  0  0  0  0  0  0  0  0  0  0  0
  146.7078  136.1657  163.1116 H   0  0  0  0  0  0  0  0  0  0  0  0
  148.1561  137.1712  163.2049 H   0  0  0  0  0  0  0  0  0  0  0  0
  148.9414  134.8002  160.3663 H   0  0  0  0  0  0  0  0  0  0  0  0
  148.2346  136.5549  157.0484 H   0  0  0  0  0  0  0  0  0  0  0  0
  147.2370  135.1824  155.4693 H   0  0  0  0  0  0  0  0  0  0  0  0
  148.5200  135.8217  154.5012 H   0  0  0  0  0  0  0  0  0  0  0  0
  147.5626  132.9168  154.5812 H   0  0  0  0  0  0  0  0  0  0  0  0
  150.0971  132.9384  154.6069 H   0  0  0  0  0  0  0  0  0  0  0  0
  150.0995  133.9401  153.1641 H   0  0  0  0  0  0  0  0  0  0  0  0
  149.4917  132.2960  153.1277 H   0  0  0  0  0  0  0  0  0  0  0  0
  145.3298  134.5646  153.7041 H   0  0  0  0  0  0  0  0  0  0  0  0
  146.4481  135.8786  153.8251 H   0  0  0  0  0  0  0  0  0  0  0  0
  144.7920  136.3827  152.0884 H   0  0  0  0  0  0  0  0  0  0  0  0
  146.4029  136.3027  151.4175 H   0  0  0  0  0  0  0  0  0  0  0  0
  144.2428  134.1525  151.2364 H   0  0  0  0  0  0  0  0  0  0  0  0
  144.8876  135.0963  149.9202 H   0  0  0  0  0  0  0  0  0  0  0  0
  145.8965  132.7891  150.0080 H   0  0  0  0  0  0  0  0  0  0  0  0
  147.0885  134.0549  150.1282 H   0  0  0  0  0  0  0  0  0  0  0  0
  147.6308  132.3857  151.7085 H   0  0  0  0  0  0  0  0  0  0  0  0
  145.5381  131.2021  152.0226 H   0  0  0  0  0  0  0  0  0  0  0  0
  144.7667  132.5668  152.8001 H   0  0  0  0  0  0  0  0  0  0  0  0
  146.0421  131.7063  153.6249 H   0  0  0  0  0  0  0  0  0  0  0  0
  147.8992  134.6249  152.3055 H   0  0  0  0  0  0  0  0  0  0  0  0
  1  2  1  0  0  0  0
  1 21  1  0  0  0  0
  1 22  1  0  0  0  0
  1 23  1  0  0  0  0
  2 20  1  0  0  0  0
  2  3  2  0  0  0  0
  3  4  1  0  0  0  0
  3 24  1  0  0  0  0
  4  5  1  0  0  0  0
  4 19  2  0  0  0  0
  5  6  1  0  0  0  0
  5 25  1  0  0  0  0
  6  7  2  0  0  0  0
  6  8  1  0  0  0  0
  8  9  1  0  0  0  0
  9 10  1  0  0  0  0
  9 26  1  0  0  0  0
  9 27  1  0  0  0  0
 10 11  1  0  0  0  0
 10 12  1  0  0  0  0
 10 28  1  0  0  0  0
 11 29  1  0  0  0  0
 11 30  1  0  0  0  0
 11 31  1  0  0  0  0
 12 17  1  0  0  0  0
 12 13  1  0  0  0  0
 12 44  1  0  0  0  0
 13 14  1  0  0  0  0
 13 32  1  0  0  0  0
 13 33  1  0  0  0  0
 14 15  1  0  0  0  0
 14 34  1  0  0  0  0
 14 35  1  0  0  0  0
 15 16  1  0  0  0  0
 15 36  1  0  0  0  0
 15 37  1  0  0  0  0
 16 17  1  0  0  0  0
 16 38  1  0  0  0  0
 16 39  1  0  0  0  0
 17 18  1  0  0  0  0
 17 40  1  0  0  0  0
 18 41  1  0  0  0  0
 18 42  1  0  0  0  0
 18 43  1  0  0  0  0
 19 20  1  0  0  0  0
M  CHG  1   8  -1
M  CHG  1  12   1
M  END
> <s_m_source_file>
AV-unprocessed.smi

> <i_m_source_file_index>
1978

> <i_lp_mmshare_version>
43012

> <i_f3d_flags>
0

> <s_epik_input>
W0NIM11jMVtjSF1jKG5vMSlbTkhdQyg9TylbTkhdW0NIMl1bQ0BIXShbQ0gzXSlOMltDSDJdW0NIMl1bQ0gyXVtDSDJdW0NASF0yW0NIM10=

> <s_epik_cmdline>
J2VwaWtfcHl0aG9uJywgJy1waCcsICc3LjAnLCAnLXRuJywgJzgnLCAnLW1hJywgJzIwMCcsICctbWV0YWxfYmluZGluZycsICctaW1hZScsICc8aW5maWxlLm1hZT4nLCAnLW9tYWUnLCAnPG91dGZpbGUubWFlPic=

> <r_epik_Ionization_Penalty>
6.7666

> <r_epik_Ionization_Penalty_Charging>
6.7666

> <r_epik_Ionization_Penalty_Neutral>
5.77131e-06

> <r_epik_State_Penalty>
6.79217

> <r_epik_Charging_Adjusted_Penalty>
13.5588

> <i_epik_Tot_Q>
0

> <i_epik_Tot_abs_Q>
2

> <r_epik_Metal_State_Penalty>
2.72569

> <b_epik_Metal_Only>
1

> <s_lp_Force_Field>
OPLS_2005

> <r_lp_Energy>
25.8045

> <b_lp_Chiralities_Consistent>
1

> <s_lp_Variant>
AV-unprocessed.smi:1978-23

> <Gold.Version>
5.8.1

> <Gold.Id.Protein>
6NUR|6NUR_protein|mol2

> <Gold.PLP.Fitness>
42.7888

> <Gold.PLP.PLP>
-32.4964

> <Gold.PLP.part.hbond>
-4.3019

> <Gold.PLP.part.metal>
0.0000

> <Gold.PLP.part.buried>
-4.0027

> <Gold.PLP.part.nonpolar>
-24.4763

> <Gold.PLP.part.repulsive>
0.0604

> <Gold.PLP.ligand.clash>
0.0000

> <Gold.PLP.ligand.torsion>
0.9134

> <Gold.PLP.Chemscore.Hbond>
4.0000

> <Gold.PLP.Chemscore.CHOScore>
0.0000

> <Gold.PLP.Chemscore.Metal>
0.0000

> <Gold.Chemscore.Hbonds>
donor molecule, donor type, donor heavy atom, donor atom, acceptor molecule, acceptor atom, score
      L1  H    12    44       P1  7948  2.00
      P1  H  6896  6908       L1     7  1.00
      P1  H  6934  6947       L1    20  0.90

> <Gold.PLP.Chemscore.Internal.Correction>
0.1191

> <Gold.Rescore>
     Score         DG    S(hbond)    S(metal)    S(lipo)     H(rot)  DE(clash)    DE(int)     intcor
     13.66     -16.03       1.97        0.00      67.28       1.52       0.10       2.27       ----

> <Gold.Chemscore.Fitness>
13.6625

> <Gold.Chemscore.DG>
-16.0347

> <Gold.Chemscore.ZeroCoef>
-5.4800

> <Gold.Chemscore.Hbond>
1.9674

> <Gold.Chemscore.Metal>
0.0000

> <Gold.Chemscore.Lipo>
67.2823

> <Gold.Chemscore.Internal_Hbond>
0.0000

> <Gold.Chemscore.DEClash>
0.0998

> <Gold.Chemscore.DEInternal>
2.2723

> <Gold.Chemscore.Rot>
1.5190

> <Gold.Chemscore.Internal.Correction>
   9.000000E+99

> <Gold.Chemscore.Hbonds>
donor molecule, donor type, donor heavy atom, donor atom, acceptor molecule, acceptor atom, score
      L1  H    12    44       P1  7948  0.49
      P1  H  6896  6908       L1     7  0.84
      P1  H  6934  6947       L1    20  0.18

> <Gold.Chemscore.Hbond.Weighted>
-6.5713

> <Gold.Chemscore.Metal.Weighted>
-0.0000

> <Gold.Chemscore.Lipo.Weighted>
-7.8720

> <Gold.Chemscore.Internal_Hbond.Weighted>
0.0000

> <Gold.Chemscore.DEClash.Weighted>
0.0998

> <Gold.Chemscore.DEInternal.Weighted>
2.2723

> <Gold.Chemscore.Rot.Weighted>
3.8886

> <Gold.Chemscore.Internal.Correction.Weighted>
   9.000000E+99

> <Gold.Protein.RotatedTorsions>
[ 6907 6896 6895 6894 ] final  134.18 input  -60.11 | X-H torsion
[ 7974 7965 7964 7962 ] final  -63.34 input  175.53 | X-H torsion
[ 8008 7997 7996 7995 ] final -174.80 input   59.86 | X-H torsion
[ 10167 10162 10161 10158 ] final  179.30 input  -65.29 | X-H torsion
[ 10718 10713 10712 10709 ] final -114.33 input   66.30 | X-H torsion
[ 10763 10752 10751 10750 ] final  -27.83 input  -60.55 | X-H torsion
[ 11005 11000 10999 10996 ] final   25.65 input  -57.11 | X-H torsion

> <Gold.Protein.ActiveResidues>
 VAL166  LYS551  ARG553  GLY616  TRP617  ASP618  TYR619  PRO620  LYS621  CYS622 
 ASP623  PHE694  ASN695  SER759  ASP760  ASP761  ALA762  ILE779  LEU786  VAL792 
 PHE793  MET794  SER795  GLU796  ALA797  LYS798  CYS799  TRP800  GLU811  SER814 

> <Gold.Protein.RotatedAtoms>
  152.3140  133.5783  159.5699 H   0  0  0  0  0  0  0  0  0  0  0  0  # atno 6907 bound_to 6896
  150.7337  134.0110  159.3678 H   0  0  0  0  0  0  0  0  0  0  0  0  # atno 6908 bound_to 6896
  151.8000  135.0712  160.0450 H   0  0  0  0  0  0  0  0  0  0  0  0  # atno 6909 bound_to 6896
  145.7803  140.8766  143.0334 H   0  0  0  0  0  0  0  0  0  0  0  0  # atno 7974 bound_to 7965
  155.9747  140.1170  157.0781 H   0  0  0  0  0  0  0  0  0  0  0  0  # atno 8008 bound_to 7997
  154.4166  140.1156  156.5421 H   0  0  0  0  0  0  0  0  0  0  0  0  # atno 8009 bound_to 7997
  155.6550  140.3473  155.4764 H   0  0  0  0  0  0  0  0  0  0  0  0  # atno 8010 bound_to 7997
  139.5330  144.2577  152.0733 H   0  0  0  0  0  0  0  0  0  0  0  0  # atno 10167 bound_to 10162
  156.0823  130.6021  150.8760 H   0  0  0  0  0  0  0  0  0  0  0  0  # atno 10718 bound_to 10713
  153.7385  135.6934  153.4972 H   0  0  0  0  0  0  0  0  0  0  0  0  # atno 10763 bound_to 10752
  153.2085  135.4411  155.0351 H   0  0  0  0  0  0  0  0  0  0  0  0  # atno 10764 bound_to 10752
  154.8229  135.3431  154.6912 H   0  0  0  0  0  0  0  0  0  0  0  0  # atno 10765 bound_to 10752
  140.3455  134.2286  155.7685 H   0  0  0  0  0  0  0  0  0  0  0  0  # atno 11005 bound_to 11000
  144.6797  139.9979  143.7484 LP  0  0  0  0  0  0  0  0  0  0  0  0  # atno 17320 bound_to 7965
  146.0081  139.3147  143.0887 LP  0  0  0  0  0  0  0  0  0  0  0  0  # atno 17321 bound_to 7965
  140.2043  144.4626  150.6416 LP  0  0  0  0  0  0  0  0  0  0  0  0  # atno 17342 bound_to 10162
  140.6521  143.2227  151.6054 LP  0  0  0  0  0  0  0  0  0  0  0  0  # atno 17343 bound_to 10162
  157.5944  131.0943  150.9065 LP  0  0  0  0  0  0  0  0  0  0  0  0  # atno 17370 bound_to 10713
  156.9234  130.5323  149.5279 LP  0  0  0  0  0  0  0  0  0  0  0  0  # atno 17371 bound_to 10713
  141.2027  133.7932  157.0379 LP  0  0  0  0  0  0  0  0  0  0  0  0  # atno 17394 bound_to 11000
  140.0745  134.9683  157.1523 LP  0  0  0  0  0  0  0  0  0  0  0  0  # atno 17395 bound_to 11000

$$$$
