AV-unprocessed.smi:2775|AV-procd|sdf|10693|dock9
  -GOLD-   2272015133D 1   1.00000     0.00000
 Structure written by MMmdl.
 42 45  0  0  0  0  0  0  0  0  1 V2000
  143.5848  132.8774  151.2111 C   0  0  0  0  0  0  0  0  0  0  0  0
  143.6880  134.2189  151.9121 C   0  0  0  0  0  0  0  0  0  0  0  0
  142.5187  134.7580  152.3200 N   0  0  0  0  0  0  0  0  0  0  0  0
  142.5557  135.9474  152.9548 C   0  0  0  0  0  0  0  0  0  0  0  0
  143.7464  136.6549  153.2078 C   0  0  0  0  0  0  0  0  0  0  0  0
  144.9723  136.0994  152.7693 C   0  0  0  0  0  0  0  0  0  0  0  0
  146.2402  136.7087  152.9766 N   0  0  0  0  0  0  0  0  0  0  0  0
  146.6543  137.5335  153.9578 C   0  0  0  0  0  0  0  0  0  0  0  0
  145.9596  137.9254  154.8925 O   0  0  0  0  0  0  0  0  0  0  0  0
  147.9346  137.9240  153.8298 N   0  0  0  0  0  0  0  0  0  0  0  0
  148.6838  138.8121  154.7206 C   0  0  1  0  0  0  0  0  0  0  0  0
  150.1644  138.9387  154.3158 C   0  0  2  0  0  0  0  0  0  0  0  0
  151.2386  138.4477  155.2482 C   0  0  0  0  0  0  0  0  0  0  0  0
  151.6704  139.7243  155.9756 C   0  0  0  0  0  0  0  0  0  0  0  0
  150.5609  140.6095  155.8411 O   0  0  0  0  0  0  0  0  0  0  0  0
  150.0356  140.4431  154.5277 C   0  0  2  0  0  0  0  0  0  0  0  0
  148.5100  140.3191  154.4346 C   0  0  0  0  0  0  0  0  0  0  0  0
  147.7684  140.8569  153.1958 C   0  0  0  0  0  0  0  0  0  0  0  0
  146.6157  141.2710  154.1146 C   0  0  0  0  0  0  0  0  0  0  0  0
  147.5886  141.1952  155.2950 C   0  0  0  0  0  0  0  0  0  0  0  0
  144.9397  134.8452  152.1154 C   0  0  0  0  0  0  0  0  0  0  0  0
  146.4028  134.0934  151.5706 Cl  0  0  0  0  0  0  0  0  0  0  0  0
  143.9914  132.9452  150.2019 H   0  0  0  0  0  0  0  0  0  0  0  0
  142.5498  132.5414  151.1356 H   0  0  0  0  0  0  0  0  0  0  0  0
  144.1458  132.1204  151.7594 H   0  0  0  0  0  0  0  0  0  0  0  0
  141.6054  136.3467  153.2771 H   0  0  0  0  0  0  0  0  0  0  0  0
  143.6907  137.5927  153.7371 H   0  0  0  0  0  0  0  0  0  0  0  0
  146.9182  136.5286  152.2505 H   0  0  0  0  0  0  0  0  0  0  0  0
  148.4411  137.5668  153.0324 H   0  0  0  0  0  0  0  0  0  0  0  0
  148.5827  138.5816  155.7835 H   0  0  0  0  0  0  0  0  0  0  0  0
  150.3322  138.7013  153.2634 H   0  0  0  0  0  0  0  0  0  0  0  0
  150.8396  137.7166  155.9520 H   0  0  0  0  0  0  0  0  0  0  0  0
  152.0728  137.9842  154.7211 H   0  0  0  0  0  0  0  0  0  0  0  0
  151.9193  139.5491  157.0224 H   0  0  0  0  0  0  0  0  0  0  0  0
  152.5390  140.1679  155.4869 H   0  0  0  0  0  0  0  0  0  0  0  0
  150.5260  141.0491  153.7646 H   0  0  0  0  0  0  0  0  0  0  0  0
  148.2691  141.7178  152.7502 H   0  0  0  0  0  0  0  0  0  0  0  0
  147.5030  140.1213  152.4369 H   0  0  0  0  0  0  0  0  0  0  0  0
  146.2142  142.2658  153.9197 H   0  0  0  0  0  0  0  0  0  0  0  0
  145.8254  140.5217  154.1668 H   0  0  0  0  0  0  0  0  0  0  0  0
  147.1873  140.7045  156.1820 H   0  0  0  0  0  0  0  0  0  0  0  0
  148.0337  142.1618  155.5361 H   0  0  0  0  0  0  0  0  0  0  0  0
  1  2  1  0  0  0  0
  1 23  1  0  0  0  0
  1 24  1  0  0  0  0
  1 25  1  0  0  0  0
  2 21  1  0  0  0  0
  2  3  2  0  0  0  0
  3  4  1  0  0  0  0
  4  5  2  0  0  0  0
  4 26  1  0  0  0  0
  5  6  1  0  0  0  0
  5 27  1  0  0  0  0
  6  7  1  0  0  0  0
  6 21  2  0  0  0  0
  7  8  1  0  0  0  0
  7 28  1  0  0  0  0
  8  9  2  0  0  0  0
  8 10  1  0  0  0  0
 10 11  1  0  0  0  0
 10 29  1  0  0  0  0
 11 17  1  0  0  0  0
 11 12  1  0  0  0  0
 11 30  1  0  0  0  0
 12 16  1  0  0  0  0
 12 13  1  0  0  0  0
 12 31  1  0  0  0  0
 13 14  1  0  0  0  0
 13 32  1  0  0  0  0
 13 33  1  0  0  0  0
 14 15  1  0  0  0  0
 14 34  1  0  0  0  0
 14 35  1  0  0  0  0
 15 16  1  0  0  0  0
 16 17  1  0  0  0  0
 16 36  1  0  0  0  0
 17 20  1  0  0  0  0
 17 18  1  0  0  0  0
 18 19  1  0  0  0  0
 18 37  1  0  0  0  0
 18 38  1  0  0  0  0
 19 20  1  0  0  0  0
 19 39  1  0  0  0  0
 19 40  1  0  0  0  0
 20 41  1  0  0  0  0
 20 42  1  0  0  0  0
 21 22  1  0  0  0  0
M  END
> <s_m_source_file>
AV-unprocessed.smi

> <i_m_source_file_index>
2775

> <i_lp_mmshare_version>
43012

> <i_f3d_flags>
0

> <s_epik_input>
W0NIM11jMW5bY0hdW2NIXWMoYzFDbClbTkhdQyg9TylbTkhdW0NAQEhdMltDQEhdKFtDSDJdW0NIMl1PMylbQ0BASF0zQzI0W0NIMl1bQ0gyXVtDSDJdNA==

> <s_epik_cmdline>
J2VwaWtfcHl0aG9uJywgJy1waCcsICc3LjAnLCAnLXRuJywgJzgnLCAnLW1hJywgJzIwMCcsICctbWV0YWxfYmluZGluZycsICctaW1hZScsICc8aW5maWxlLm1hZT4nLCAnLW9tYWUnLCAnPG91dGZpbGUubWFlPic=

> <r_epik_Ionization_Penalty>
0.01026

> <r_epik_Ionization_Penalty_Charging>
0

> <r_epik_Ionization_Penalty_Neutral>
0.01026

> <r_epik_State_Penalty>
0.00780685

> <r_epik_Charging_Adjusted_Penalty>
0.00780685

> <i_epik_Tot_Q>
0

> <i_epik_Tot_abs_Q>
0

> <r_epik_Metal_State_Penalty>
0.00767411

> <b_epik_Metal_Only>
0

> <s_lp_Force_Field>
OPLS_2005

> <r_lp_Energy>
55.7344

> <b_lp_Chiralities_Consistent>
1

> <s_lp_Variant>
AV-unprocessed.smi:2775-6

> <Gold.Version>
5.8.1

> <Gold.Id.Protein>
6NUR|6NUR_protein|mol2

> <Gold.PLP.Fitness>
37.2090

> <Gold.PLP.PLP>
-32.2039

> <Gold.PLP.part.hbond>
-2.0000

> <Gold.PLP.part.metal>
0.0000

> <Gold.PLP.part.buried>
-0.5399

> <Gold.PLP.part.nonpolar>
-30.2621

> <Gold.PLP.part.repulsive>
0.3564

> <Gold.PLP.ligand.clash>
0.0000

> <Gold.PLP.ligand.torsion>
0.3665

> <Gold.PLP.Chemscore.Hbond>
1.8480

> <Gold.PLP.Chemscore.CHOScore>
0.0000

> <Gold.PLP.Chemscore.Metal>
0.0000

> <Gold.Chemscore.Hbonds>
donor molecule, donor type, donor heavy atom, donor atom, acceptor molecule, acceptor atom, score
      L1  H     7    28       P1  7948  0.80
      L1  H    10    29       P1  7948  1.00

> <Gold.PLP.Chemscore.Internal.Correction>
0.1940

> <Gold.Rescore>
     Score         DG    S(hbond)    S(metal)    S(lipo)     H(rot)  DE(clash)    DE(int)     intcor
     16.37     -20.59       1.88        0.00      97.30       1.00       3.80       0.42       ----

> <Gold.Chemscore.Fitness>
16.3706

> <Gold.Chemscore.DG>
-20.5906

> <Gold.Chemscore.ZeroCoef>
-5.4800

> <Gold.Chemscore.Hbond>
1.8822

> <Gold.Chemscore.Metal>
0.0000

> <Gold.Chemscore.Lipo>
97.2999

> <Gold.Chemscore.Internal_Hbond>
0.0000

> <Gold.Chemscore.DEClash>
3.8018

> <Gold.Chemscore.DEInternal>
0.4182

> <Gold.Chemscore.Rot>
1.0000

> <Gold.Chemscore.Internal.Correction>
   9.000000E+99

> <Gold.Chemscore.Hbonds>
donor molecule, donor type, donor heavy atom, donor atom, acceptor molecule, acceptor atom, score
      L1  H     7    28       P1  7948  0.75
      L1  H    10    29       P1  7948  0.98

> <Gold.Chemscore.Hbond.Weighted>
-6.2865

> <Gold.Chemscore.Metal.Weighted>
-0.0000

> <Gold.Chemscore.Lipo.Weighted>
-11.3841

> <Gold.Chemscore.Internal_Hbond.Weighted>
0.0000

> <Gold.Chemscore.DEClash.Weighted>
3.8018

> <Gold.Chemscore.DEInternal.Weighted>
0.4182

> <Gold.Chemscore.Rot.Weighted>
2.5600

> <Gold.Chemscore.Internal.Correction.Weighted>
   9.000000E+99

> <Gold.Protein.RotatedTorsions>
[ 6907 6896 6895 6894 ] final  -17.51 input  -60.11 | X-H torsion
[ 7974 7965 7964 7962 ] final -176.44 input  175.53 | X-H torsion
[ 8008 7997 7996 7995 ] final   80.73 input   59.86 | X-H torsion
[ 10167 10162 10161 10158 ] final -132.41 input  -65.29 | X-H torsion
[ 10718 10713 10712 10709 ] final   88.81 input   66.30 | X-H torsion
[ 10763 10752 10751 10750 ] final -159.20 input  -60.55 | X-H torsion
[ 11005 11000 10999 10996 ] final  -18.95 input  -57.11 | X-H torsion

> <Gold.Protein.ActiveResidues>
 VAL166  LYS551  ARG553  GLY616  TRP617  ASP618  TYR619  PRO620  LYS621  CYS622 
 ASP623  PHE694  ASN695  SER759  ASP760  ASP761  ALA762  ILE779  LEU786  VAL792 
 PHE793  MET794  SER795  GLU796  ALA797  LYS798  CYS799  TRP800  GLU811  SER814 

> <Gold.Protein.RotatedAtoms>
  151.2922  135.0745  159.9207 H   0  0  0  0  0  0  0  0  0  0  0  0  # atno 6907 bound_to 6896
  152.5314  133.9920  159.7865 H   0  0  0  0  0  0  0  0  0  0  0  0  # atno 6908 bound_to 6896
  151.0192  133.5841  159.2704 H   0  0  0  0  0  0  0  0  0  0  0  0  # atno 6909 bound_to 6896
  144.7127  140.1170  143.6407 H   0  0  0  0  0  0  0  0  0  0  0  0  # atno 7974 bound_to 7965
  155.8875  140.3440  155.5932 H   0  0  0  0  0  0  0  0  0  0  0  0  # atno 8008 bound_to 7997
  155.7649  140.0837  157.2156 H   0  0  0  0  0  0  0  0  0  0  0  0  # atno 8009 bound_to 7997
  154.4030  140.1529  156.2862 H   0  0  0  0  0  0  0  0  0  0  0  0  # atno 8010 bound_to 7997
  139.9088  143.6519  152.2580 H   0  0  0  0  0  0  0  0  0  0  0  0  # atno 10167 bound_to 10162
  157.6951  131.0309  150.3330 H   0  0  0  0  0  0  0  0  0  0  0  0  # atno 10718 bound_to 10713
  154.7494  135.3088  154.8585 H   0  0  0  0  0  0  0  0  0  0  0  0  # atno 10763 bound_to 10752
  153.9377  135.6778  153.4749 H   0  0  0  0  0  0  0  0  0  0  0  0  # atno 10764 bound_to 10752
  153.1090  135.4875  154.8929 H   0  0  0  0  0  0  0  0  0  0  0  0  # atno 10765 bound_to 10752
  140.8319  133.7991  155.9767 H   0  0  0  0  0  0  0  0  0  0  0  0  # atno 11005 bound_to 11000
  145.9405  139.2665  143.1272 LP  0  0  0  0  0  0  0  0  0  0  0  0  # atno 17320 bound_to 7965
  145.9429  140.8966  143.0298 LP  0  0  0  0  0  0  0  0  0  0  0  0  # atno 17321 bound_to 7965
  139.6961  144.7641  151.1355 LP  0  0  0  0  0  0  0  0  0  0  0  0  # atno 17342 bound_to 10162
  140.7690  143.5522  150.9191 LP  0  0  0  0  0  0  0  0  0  0  0  0  # atno 17343 bound_to 10162
  156.3801  130.3879  149.7108 LP  0  0  0  0  0  0  0  0  0  0  0  0  # atno 17370 bound_to 10713
  156.4493  130.7899  151.2920 LP  0  0  0  0  0  0  0  0  0  0  0  0  # atno 17371 bound_to 10713
  140.8989  134.2403  157.5053 LP  0  0  0  0  0  0  0  0  0  0  0  0  # atno 17394 bound_to 11000
  139.8705  134.9697  156.4676 LP  0  0  0  0  0  0  0  0  0  0  0  0  # atno 17395 bound_to 11000

$$$$
