AV-unprocessed.smi:506|AV-procd|sdf|2750|dock3
  -GOLD-   2262023213D 1   1.00000     0.00000
 Structure written by MMmdl.
 40 42  0  0  0  0  0  0  0  0  1 V2000
  151.4578  144.0568  157.5771 C   0  0  0  0  0  0  0  0  0  0  0  0
  151.4194  144.4293  158.9469 O   0  0  0  0  0  0  0  0  0  0  0  0
  152.1497  143.6793  159.8436 C   0  0  0  0  0  0  0  0  0  0  0  0
  152.3002  144.2010  161.1434 C   0  0  0  0  0  0  0  0  0  0  0  0
  153.0305  143.4996  162.1210 C   0  0  0  0  0  0  0  0  0  0  0  0
  153.6293  142.2605  161.8220 C   0  0  0  0  0  0  0  0  0  0  0  0
  154.3270  141.6425  162.8364 O   0  0  0  0  0  0  0  0  0  0  0  0
  154.6149  140.2560  162.7132 C   0  0  0  0  0  0  0  0  0  0  0  0
  155.9855  139.9659  163.3415 C   0  0  0  0  0  0  0  0  0  0  0  0
  156.0103  140.2698  164.7652 N   0  0  0  0  0  0  0  0  0  0  0  0
  156.0518  139.4024  165.8077 C   0  0  0  0  0  0  0  0  0  0  0  0
  156.0732  137.9176  165.6114 C   0  0  0  0  0  0  0  0  0  0  0  0
  156.6202  137.2301  166.7162 O   0  0  0  0  0  0  0  0  0  0  0  0
  156.0707  139.9543  167.0216 N   0  0  0  0  0  0  0  0  0  0  0  0
  156.0424  141.3065  166.7409 C   0  0  0  0  0  0  0  0  0  0  0  0
  156.0483  142.4241  167.6060 C   0  0  0  0  0  0  0  0  0  0  0  0
  156.0196  143.7330  167.0816 C   0  0  0  0  0  0  0  0  0  0  0  0
  155.9842  143.9430  165.6879 C   0  0  0  0  0  0  0  0  0  0  0  0
  155.9757  142.8434  164.8084 C   0  0  0  0  0  0  0  0  0  0  0  0
  156.0047  141.5386  165.3368 C   0  0  0  0  0  0  0  0  0  0  0  0
  153.4801  141.7304  160.5172 C   0  0  0  0  0  0  0  0  0  0  0  0
  152.7486  142.4320  159.5389 C   0  0  0  0  0  0  0  0  0  0  0  0
  150.8343  144.7406  157.0010 H   0  0  0  0  0  0  0  0  0  0  0  0
  151.0680  143.0491  157.4268 H   0  0  0  0  0  0  0  0  0  0  0  0
  152.4704  144.1165  157.1756 H   0  0  0  0  0  0  0  0  0  0  0  0
  151.8507  145.1503  161.3947 H   0  0  0  0  0  0  0  0  0  0  0  0
  153.1337  143.9185  163.1115 H   0  0  0  0  0  0  0  0  0  0  0  0
  153.8506  139.6659  163.2208 H   0  0  0  0  0  0  0  0  0  0  0  0
  154.6230  139.9647  161.6619 H   0  0  0  0  0  0  0  0  0  0  0  0
  156.2410  138.9144  163.2073 H   0  0  0  0  0  0  0  0  0  0  0  0
  156.7649  140.5347  162.8350 H   0  0  0  0  0  0  0  0  0  0  0  0
  155.0639  137.5537  165.4209 H   0  0  0  0  0  0  0  0  0  0  0  0
  156.6636  137.6797  164.7259 H   0  0  0  0  0  0  0  0  0  0  0  0
  156.5795  137.7960  167.4716 H   0  0  0  0  0  0  0  0  0  0  0  0
  156.0764  142.2740  168.6750 H   0  0  0  0  0  0  0  0  0  0  0  0
  156.0260  144.5797  167.7521 H   0  0  0  0  0  0  0  0  0  0  0  0
  155.9648  144.9486  165.2941 H   0  0  0  0  0  0  0  0  0  0  0  0
  155.9525  143.0008  163.7403 H   0  0  0  0  0  0  0  0  0  0  0  0
  153.9170  140.7832  160.2401 H   0  0  0  0  0  0  0  0  0  0  0  0
  152.6616  141.9894  158.5583 H   0  0  0  0  0  0  0  0  0  0  0  0
  1  2  1  0  0  0  0
  1 23  1  0  0  0  0
  1 24  1  0  0  0  0
  1 25  1  0  0  0  0
  2  3  1  0  0  0  0
  3 22  1  0  0  0  0
  3  4  2  0  0  0  0
  4  5  1  0  0  0  0
  4 26  1  0  0  0  0
  5  6  2  0  0  0  0
  5 27  1  0  0  0  0
  6  7  1  0  0  0  0
  6 21  1  0  0  0  0
  7  8  1  0  0  0  0
  8  9  1  0  0  0  0
  8 28  1  0  0  0  0
  8 29  1  0  0  0  0
  9 10  1  0  0  0  0
  9 30  1  0  0  0  0
  9 31  1  0  0  0  0
 10 20  1  0  0  0  0
 10 11  1  0  0  0  0
 11 12  1  0  0  0  0
 11 14  2  0  0  0  0
 12 13  1  0  0  0  0
 12 32  1  0  0  0  0
 12 33  1  0  0  0  0
 13 34  1  0  0  0  0
 14 15  1  0  0  0  0
 15 20  2  0  0  0  0
 15 16  1  0  0  0  0
 16 17  2  0  0  0  0
 16 35  1  0  0  0  0
 17 18  1  0  0  0  0
 17 36  1  0  0  0  0
 18 19  2  0  0  0  0
 18 37  1  0  0  0  0
 19 20  1  0  0  0  0
 19 38  1  0  0  0  0
 21 22  2  0  0  0  0
 21 39  1  0  0  0  0
 22 40  1  0  0  0  0
M  END
> <s_m_source_file>
AV-unprocessed.smi

> <i_m_source_file_index>
506

> <i_lp_mmshare_version>
43012

> <i_f3d_flags>
0

> <s_epik_input>
W0NIM11PYzFbY0hdW2NIXWMoW2NIXVtjSF0xKU9bQ0gyXVtDSDJdbihjKG4yKVtDSDJdW09IXSljKGMyMylbY0hdW2NIXVtjSF1bY0hdMw==

> <s_epik_cmdline>
J2VwaWtfcHl0aG9uJywgJy1waCcsICc3LjAnLCAnLXRuJywgJzgnLCAnLW1hJywgJzIwMCcsICctbWV0YWxfYmluZGluZycsICctaW1hZScsICc8aW5maWxlLm1hZT4nLCAnLW9tYWUnLCAnPG91dGZpbGUubWFlPic=

> <r_lp_tautomer_probability>
1

> <r_epik_Ionization_Penalty>
0.0483634

> <r_epik_Ionization_Penalty_Charging>
0

> <r_epik_Ionization_Penalty_Neutral>
0.0483634

> <r_epik_State_Penalty>
0.0411758

> <r_epik_Charging_Adjusted_Penalty>
0.0411758

> <i_epik_Tot_Q>
0

> <i_epik_Tot_abs_Q>
0

> <r_epik_Metal_State_Penalty>
4.26388e-05

> <b_epik_Metal_Only>
0

> <s_lp_Force_Field>
OPLS_2005

> <r_lp_Energy>
17.7354

> <b_lp_Chiralities_Consistent>
1

> <s_lp_Variant>
AV-unprocessed.smi:506-1

> <Gold.Version>
5.8.1

> <Gold.Id.Protein>
6NUR|6NUR_protein|mol2

> <Gold.PLP.Fitness>
54.1660

> <Gold.PLP.PLP>
-56.1654

> <Gold.PLP.part.hbond>
-3.3319

> <Gold.PLP.part.metal>
0.0000

> <Gold.PLP.part.buried>
-6.3233

> <Gold.PLP.part.nonpolar>
-44.2193

> <Gold.PLP.part.repulsive>
0.1971

> <Gold.PLP.ligand.clash>
0.0000

> <Gold.PLP.ligand.torsion>
1.0463

> <Gold.PLP.Chemscore.Hbond>
0.0000

> <Gold.PLP.Chemscore.CHOScore>
0.0000

> <Gold.PLP.Chemscore.Metal>
0.0000

> <Gold.PLP.Chemscore.Internal.Correction>
0.0933

> <Gold.Rescore>
     Score         DG    S(hbond)    S(metal)    S(lipo)     H(rot)  DE(clash)    DE(int)     intcor
     12.11     -15.65       0.00        0.00     140.64       2.46       0.21       3.33       ----

> <Gold.Chemscore.Fitness>
12.1071

> <Gold.Chemscore.DG>
-15.6470

> <Gold.Chemscore.ZeroCoef>
-5.4800

> <Gold.Chemscore.Hbond>
0.0000

> <Gold.Chemscore.Metal>
0.0000

> <Gold.Chemscore.Lipo>
140.6412

> <Gold.Chemscore.Internal_Hbond>
0.0000

> <Gold.Chemscore.DEClash>
0.2055

> <Gold.Chemscore.DEInternal>
3.3345

> <Gold.Chemscore.Rot>
2.4562

> <Gold.Chemscore.Internal.Correction>
   9.000000E+99

> <Gold.Chemscore.Hbond.Weighted>
-0.0000

> <Gold.Chemscore.Metal.Weighted>
-0.0000

> <Gold.Chemscore.Lipo.Weighted>
-16.4550

> <Gold.Chemscore.Internal_Hbond.Weighted>
0.0000

> <Gold.Chemscore.DEClash.Weighted>
0.2055

> <Gold.Chemscore.DEInternal.Weighted>
3.3345

> <Gold.Chemscore.Rot.Weighted>
6.2880

> <Gold.Chemscore.Internal.Correction.Weighted>
   9.000000E+99

> <Gold.Protein.RotatedTorsions>
[ 6907 6896 6895 6894 ] final   61.37 input  -60.11 | X-H torsion
[ 7974 7965 7964 7962 ] final -139.73 input  175.53 | X-H torsion
[ 8008 7997 7996 7995 ] final  -94.94 input   59.86 | X-H torsion
[ 10167 10162 10161 10158 ] final  -24.97 input  -65.29 | X-H torsion
[ 10718 10713 10712 10709 ] final -161.41 input   66.30 | X-H torsion
[ 10763 10752 10751 10750 ] final  -89.10 input  -60.55 | X-H torsion
[ 11005 11000 10999 10996 ] final   92.03 input  -57.11 | X-H torsion

> <Gold.Protein.ActiveResidues>
 VAL166  LYS551  ARG553  GLY616  TRP617  ASP618  TYR619  PRO620  LYS621  CYS622 
 ASP623  PHE694  ASN695  SER759  ASP760  ASP761  ALA762  ILE779  LEU786  VAL792 
 PHE793  MET794  SER795  GLU796  ALA797  LYS798  CYS799  TRP800  GLU811  SER814 

> <Gold.Protein.RotatedAtoms>
  152.4083  134.6168  160.0040 H   0  0  0  0  0  0  0  0  0  0  0  0  # atno 6907 bound_to 6896
  151.6353  133.3324  159.3126 H   0  0  0  0  0  0  0  0  0  0  0  0  # atno 6908 bound_to 6896
  150.7976  134.7088  159.6637 H   0  0  0  0  0  0  0  0  0  0  0  0  # atno 6909 bound_to 6896
  144.8653  140.6283  143.5302 H   0  0  0  0  0  0  0  0  0  0  0  0  # atno 7974 bound_to 7965
  154.7549  140.0484  157.0925 H   0  0  0  0  0  0  0  0  0  0  0  0  # atno 8008 bound_to 7997
  155.0010  140.3124  155.4848 H   0  0  0  0  0  0  0  0  0  0  0  0  # atno 8009 bound_to 7997
  156.2893  140.2201  156.5120 H   0  0  0  0  0  0  0  0  0  0  0  0  # atno 8010 bound_to 7997
  140.7287  143.4306  151.0808 H   0  0  0  0  0  0  0  0  0  0  0  0  # atno 10167 bound_to 10162
  156.5959  130.8790  151.2901 H   0  0  0  0  0  0  0  0  0  0  0  0  # atno 10718 bound_to 10713
  154.6516  135.5353  153.7909 H   0  0  0  0  0  0  0  0  0  0  0  0  # atno 10763 bound_to 10752
  153.0390  135.6484  154.1007 H   0  0  0  0  0  0  0  0  0  0  0  0  # atno 10764 bound_to 10752
  154.0924  135.2939  155.3248 H   0  0  0  0  0  0  0  0  0  0  0  0  # atno 10765 bound_to 10752
  139.8829  134.8709  156.3513 H   0  0  0  0  0  0  0  0  0  0  0  0  # atno 11005 bound_to 11000
  145.4233  139.1560  143.4062 LP  0  0  0  0  0  0  0  0  0  0  0  0  # atno 17320 bound_to 7965
  146.2891  140.4345  142.8746 LP  0  0  0  0  0  0  0  0  0  0  0  0  # atno 17321 bound_to 7965
  139.7962  143.8148  152.3158 LP  0  0  0  0  0  0  0  0  0  0  0  0  # atno 17342 bound_to 10162
  139.8149  144.7320  150.9649 LP  0  0  0  0  0  0  0  0  0  0  0  0  # atno 17343 bound_to 10162
  157.7292  130.9667  150.1776 LP  0  0  0  0  0  0  0  0  0  0  0  0  # atno 17370 bound_to 10713
  156.2510  130.3700  149.8232 LP  0  0  0  0  0  0  0  0  0  0  0  0  # atno 17371 bound_to 10713
  140.9592  133.7400  156.0378 LP  0  0  0  0  0  0  0  0  0  0  0  0  # atno 17394 bound_to 11000
  140.8010  134.3508  157.5439 LP  0  0  0  0  0  0  0  0  0  0  0  0  # atno 17395 bound_to 11000

$$$$
