AV-unprocessed.smi:1503|AV-procd|sdf|6069|dock7
  -GOLD-   22720 6183D 1   1.00000     0.00000
 Structure written by MMmdl.
 44 45  0  0  0  0  0  0  0  0  1 V2000
  146.3447  134.6314  152.5111 C   0  0  0  0  0  0  0  0  0  0  0  0
  145.7574  135.2009  151.4481 C   0  0  0  0  0  0  0  0  0  0  0  0
  145.4146  136.6737  151.3449 C   0  0  0  0  0  0  0  0  0  0  0  0
  146.1073  137.4551  152.3615 N   0  0  0  0  0  0  0  0  0  0  0  0
  146.7959  138.5833  152.1299 C   0  0  0  0  0  0  0  0  0  0  0  0
  146.9076  139.0868  151.0114 O   0  0  0  0  0  0  0  0  0  0  0  0
  147.4472  139.2305  153.3564 C   0  0  0  0  0  0  0  0  0  0  0  0
  148.9635  139.4598  153.2047 C   0  0  0  0  0  0  0  0  0  0  0  0
  149.5402  140.2713  154.3612 C   0  0  0  0  0  0  0  0  0  0  0  0
  149.0910  141.5040  154.6969 C   0  0  0  0  0  0  0  0  0  0  0  0
  147.9543  142.2241  153.9929 C   0  0  0  0  0  0  0  0  0  0  0  0
  149.6519  142.2060  155.7477 N   0  0  0  0  0  0  0  0  0  0  0  0
  150.7070  141.6426  156.4550 C   0  0  0  0  0  0  0  0  0  0  0  0
  151.2016  142.4400  157.4864 N   0  0  0  0  0  0  0  0  0  0  0  0
  151.5118  143.8473  157.2334 C   0  0  0  0  0  0  0  0  0  0  0  0
  151.5546  144.6524  158.5431 C   0  0  0  0  0  0  0  0  0  0  0  0
  152.4871  144.0610  159.4381 O   0  0  0  0  0  0  0  0  0  0  0  0
  152.1160  142.7297  159.7706 C   0  0  0  0  0  0  0  0  0  0  0  0
  152.0889  141.8667  158.4981 C   0  0  0  0  0  0  0  0  0  0  0  0
  151.1885  140.4623  156.1892 N   0  0  0  0  0  0  0  0  0  0  0  0
  150.6533  139.6953  155.1437 C   0  0  0  0  0  0  0  0  0  0  0  0
  151.1013  138.5762  154.8982 O   0  0  0  0  0  0  0  0  0  0  0  0
  149.2739  143.1171  155.9630 H   0  0  0  0  0  0  0  0  0  0  0  0
  146.6113  135.2115  153.3824 H   0  0  0  0  0  0  0  0  0  0  0  0
  146.5659  133.5745  152.5228 H   0  0  0  0  0  0  0  0  0  0  0  0
  145.5068  134.5891  150.5937 H   0  0  0  0  0  0  0  0  0  0  0  0
  145.6407  137.0534  150.3467 H   0  0  0  0  0  0  0  0  0  0  0  0
  144.3411  136.7914  151.4931 H   0  0  0  0  0  0  0  0  0  0  0  0
  146.0648  137.1111  153.3099 H   0  0  0  0  0  0  0  0  0  0  0  0
  146.9477  140.1809  153.5474 H   0  0  0  0  0  0  0  0  0  0  0  0
  147.2567  138.5968  154.2236 H   0  0  0  0  0  0  0  0  0  0  0  0
  149.4870  138.5050  153.1330 H   0  0  0  0  0  0  0  0  0  0  0  0
  149.1680  139.9689  152.2629 H   0  0  0  0  0  0  0  0  0  0  0  0
  147.0557  141.6065  153.9905 H   0  0  0  0  0  0  0  0  0  0  0  0
  148.2255  142.4436  152.9601 H   0  0  0  0  0  0  0  0  0  0  0  0
  147.7108  143.1675  154.4829 H   0  0  0  0  0  0  0  0  0  0  0  0
  150.7813  144.2988  156.5615 H   0  0  0  0  0  0  0  0  0  0  0  0
  152.4779  143.9071  156.7304 H   0  0  0  0  0  0  0  0  0  0  0  0
  151.8597  145.6795  158.3423 H   0  0  0  0  0  0  0  0  0  0  0  0
  150.5664  144.6976  159.0039 H   0  0  0  0  0  0  0  0  0  0  0  0
  152.8380  142.3275  160.4812 H   0  0  0  0  0  0  0  0  0  0  0  0
  151.1437  142.7234  160.2658 H   0  0  0  0  0  0  0  0  0  0  0  0
  153.0940  141.7838  158.0825 H   0  0  0  0  0  0  0  0  0  0  0  0
  151.7664  140.8569  158.7558 H   0  0  0  0  0  0  0  0  0  0  0  0
  1  2  2  0  0  0  0
  1 24  1  0  0  0  0
  1 25  1  0  0  0  0
  2  3  1  0  0  0  0
  2 26  1  0  0  0  0
  3  4  1  0  0  0  0
  3 27  1  0  0  0  0
  3 28  1  0  0  0  0
  4  5  1  0  0  0  0
  4 29  1  0  0  0  0
  5  6  2  0  0  0  0
  5  7  1  0  0  0  0
  7  8  1  0  0  0  0
  7 30  1  0  0  0  0
  7 31  1  0  0  0  0
  8 32  1  0  0  0  0
  8 33  1  0  0  0  0
  8  9  1  0  0  0  0
  9 21  1  0  0  0  0
  9 10  2  0  0  0  0
 10 12  1  0  0  0  0
 10 11  1  0  0  0  0
 11 34  1  0  0  0  0
 11 35  1  0  0  0  0
 11 36  1  0  0  0  0
 12 23  1  0  0  0  0
 12 13  1  0  0  0  0
 13 14  1  0  0  0  0
 13 20  2  0  0  0  0
 14 19  1  0  0  0  0
 14 15  1  0  0  0  0
 15 16  1  0  0  0  0
 15 37  1  0  0  0  0
 15 38  1  0  0  0  0
 16 17  1  0  0  0  0
 16 39  1  0  0  0  0
 16 40  1  0  0  0  0
 17 18  1  0  0  0  0
 18 19  1  0  0  0  0
 18 41  1  0  0  0  0
 18 42  1  0  0  0  0
 19 43  1  0  0  0  0
 19 44  1  0  0  0  0
 20 21  1  0  0  0  0
 21 22  2  0  0  0  0
M  END
> <s_m_source_file>
AV-unprocessed.smi

> <i_m_source_file_index>
1503

> <i_lp_mmshare_version>
43012

> <i_f3d_flags>
0

> <s_epik_input>
W0NIMl09W0NIXVtDSDJdW05IXUMoPU8pW0NIMl1bQ0gyXWMxYyhbQ0gzXSluYyhbbkhdYzE9TylOMltDSDJdW0NIMl1PW0NIMl1bQ0gyXTI=

> <s_epik_cmdline>
J2VwaWtfcHl0aG9uJywgJy1waCcsICc3LjAnLCAnLXRuJywgJzgnLCAnLW1hJywgJzIwMCcsICctbWV0YWxfYmluZGluZycsICctaW1hZScsICc8aW5maWxlLm1hZT4nLCAnLW9tYWUnLCAnPG91dGZpbGUubWFlPic=

> <r_lp_tautomer_probability>
0.108306

> <r_epik_Ionization_Penalty>
0.0745381

> <r_epik_Ionization_Penalty_Charging>
0.0625831

> <r_epik_Ionization_Penalty_Neutral>
0.0119549

> <r_epik_State_Penalty>
1.70762

> <r_epik_Charging_Adjusted_Penalty>
1.7702

> <i_epik_Tot_Q>
0

> <i_epik_Tot_abs_Q>
0

> <r_epik_Metal_State_Penalty>
2.68249

> <b_epik_Metal_Only>
0

> <s_lp_Force_Field>
OPLS_2005

> <r_lp_Energy>
25.2683

> <b_lp_Chiralities_Consistent>
1

> <s_lp_Variant>
AV-unprocessed.smi:1503-2

> <Gold.Version>
5.8.1

> <Gold.Id.Protein>
6NUR|6NUR_protein|mol2

> <Gold.PLP.Fitness>
45.9091

> <Gold.PLP.PLP>
-40.9740

> <Gold.PLP.part.hbond>
-3.0000

> <Gold.PLP.part.metal>
0.0000

> <Gold.PLP.part.buried>
0.9783

> <Gold.PLP.part.nonpolar>
-41.0382

> <Gold.PLP.part.repulsive>
1.9054

> <Gold.PLP.ligand.clash>
0.0000

> <Gold.PLP.ligand.torsion>
0.6640

> <Gold.PLP.Chemscore.Hbond>
1.9760

> <Gold.PLP.Chemscore.CHOScore>
0.0000

> <Gold.PLP.Chemscore.Metal>
0.0000

> <Gold.Chemscore.Hbonds>
donor molecule, donor type, donor heavy atom, donor atom, acceptor molecule, acceptor atom, score
      L1  H    12    23       P1  8028  1.00
      P1  H  7954  7966       L1     6  0.70

> <Gold.PLP.Chemscore.Internal.Correction>
0.3352

> <Gold.Rescore>
     Score         DG    S(hbond)    S(metal)    S(lipo)     H(rot)  DE(clash)    DE(int)     intcor
     13.77     -18.08       1.85        0.00      96.84       1.92       3.78       0.53       ----

> <Gold.Chemscore.Fitness>
13.7660

> <Gold.Chemscore.DG>
-18.0792

> <Gold.Chemscore.ZeroCoef>
-5.4800

> <Gold.Chemscore.Hbond>
1.8507

> <Gold.Chemscore.Metal>
0.0000

> <Gold.Chemscore.Lipo>
96.8367

> <Gold.Chemscore.Internal_Hbond>
0.0000

> <Gold.Chemscore.DEClash>
3.7809

> <Gold.Chemscore.DEInternal>
0.5323

> <Gold.Chemscore.Rot>
1.9187

> <Gold.Chemscore.Internal.Correction>
   9.000000E+99

> <Gold.Chemscore.Hbonds>
donor molecule, donor type, donor heavy atom, donor atom, acceptor molecule, acceptor atom, score
      L1  H    12    23       P1  8028  0.98
      P1  H  7954  7966       L1     6  0.47

> <Gold.Chemscore.Hbond.Weighted>
-6.1812

> <Gold.Chemscore.Metal.Weighted>
-0.0000

> <Gold.Chemscore.Lipo.Weighted>
-11.3299

> <Gold.Chemscore.Internal_Hbond.Weighted>
0.0000

> <Gold.Chemscore.DEClash.Weighted>
3.7809

> <Gold.Chemscore.DEInternal.Weighted>
0.5323

> <Gold.Chemscore.Rot.Weighted>
4.9119

> <Gold.Chemscore.Internal.Correction.Weighted>
   9.000000E+99

> <Gold.Protein.RotatedTorsions>
[ 6907 6896 6895 6894 ] final  156.29 input  -60.11 | X-H torsion
[ 7974 7965 7964 7962 ] final    7.31 input  175.53 | X-H torsion
[ 8008 7997 7996 7995 ] final  110.72 input   59.86 | X-H torsion
[ 10167 10162 10161 10158 ] final   25.00 input  -65.29 | X-H torsion
[ 10718 10713 10712 10709 ] final -178.37 input   66.30 | X-H torsion
[ 10763 10752 10751 10750 ] final -127.79 input  -60.55 | X-H torsion
[ 11005 11000 10999 10996 ] final  -25.89 input  -57.11 | X-H torsion

> <Gold.Protein.ActiveResidues>
 VAL166  LYS551  ARG553  GLY616  TRP617  ASP618  TYR619  PRO620  LYS621  CYS622 
 ASP623  PHE694  ASN695  SER759  ASP760  ASP761  ALA762  ILE779  LEU786  VAL792 
 PHE793  MET794  SER795  GLU796  ALA797  LYS798  CYS799  TRP800  GLU811  SER814 

> <Gold.Protein.RotatedAtoms>
  152.0319  133.3941  159.4300 H   0  0  0  0  0  0  0  0  0  0  0  0  # atno 6907 bound_to 6896
  150.6881  134.3511  159.4919 H   0  0  0  0  0  0  0  0  0  0  0  0  # atno 6908 bound_to 6896
  152.1299  134.9142  160.0610 H   0  0  0  0  0  0  0  0  0  0  0  0  # atno 6909 bound_to 6896
  146.2428  140.0102  142.8407 H   0  0  0  0  0  0  0  0  0  0  0  0  # atno 7974 bound_to 7965
  156.2073  140.3033  155.9655 H   0  0  0  0  0  0  0  0  0  0  0  0  # atno 8008 bound_to 7997
  155.2810  140.0438  157.3032 H   0  0  0  0  0  0  0  0  0  0  0  0  # atno 8009 bound_to 7997
  154.5650  140.2331  155.8285 H   0  0  0  0  0  0  0  0  0  0  0  0  # atno 8010 bound_to 7997
  140.5142  144.0110  150.6386 H   0  0  0  0  0  0  0  0  0  0  0  0  # atno 10167 bound_to 10162
  156.8433  130.9694  151.3098 H   0  0  0  0  0  0  0  0  0  0  0  0  # atno 10718 bound_to 10713
  154.8754  135.3950  154.3652 H   0  0  0  0  0  0  0  0  0  0  0  0  # atno 10763 bound_to 10752
  153.4419  135.7027  153.6169 H   0  0  0  0  0  0  0  0  0  0  0  0  # atno 10764 bound_to 10752
  153.4746  135.3783  155.2379 H   0  0  0  0  0  0  0  0  0  0  0  0  # atno 10765 bound_to 10752
  140.8979  133.7544  156.0505 H   0  0  0  0  0  0  0  0  0  0  0  0  # atno 11005 bound_to 11000
  145.1335  140.9531  143.4530 LP  0  0  0  0  0  0  0  0  0  0  0  0  # atno 17320 bound_to 7965
  145.0365  139.3296  143.5998 LP  0  0  0  0  0  0  0  0  0  0  0  0  # atno 17321 bound_to 7965
  140.3441  143.3002  152.0557 LP  0  0  0  0  0  0  0  0  0  0  0  0  # atno 17342 bound_to 10162
  139.4904  144.6421  151.6855 LP  0  0  0  0  0  0  0  0  0  0  0  0  # atno 17343 bound_to 10162
  157.6343  130.8754  149.9331 LP  0  0  0  0  0  0  0  0  0  0  0  0  # atno 17370 bound_to 10713
  156.0868  130.3667  150.0472 LP  0  0  0  0  0  0  0  0  0  0  0  0  # atno 17371 bound_to 10713
  140.8266  134.3227  157.5363 LP  0  0  0  0  0  0  0  0  0  0  0  0  # atno 17394 bound_to 11000
  139.8738  134.9339  156.3594 LP  0  0  0  0  0  0  0  0  0  0  0  0  # atno 17395 bound_to 11000

$$$$
