AV-unprocessed.smi:3256|AV-procd|sdf|12465|dock2
  -GOLD-   2272018363D 1   1.00000     0.00000
 Structure written by MMmdl.
 36 37  0  0  0  0  0  0  0  0  1 V2000
  150.7832  140.5810  156.1614 O   0  0  0  0  0  0  0  0  0  0  0  0
  150.2961  141.7035  156.0341 C   0  0  0  0  0  0  0  0  0  0  0  0
  149.3992  142.0181  155.0885 N   0  0  0  0  0  0  0  0  0  0  0  0
  148.8796  141.1044  154.0761 C   0  0  0  0  0  0  0  0  0  0  0  0
  147.4341  140.6717  154.3902 C   0  0  0  0  0  0  0  0  0  0  0  0
  146.5523  141.7255  154.8926 N   0  0  0  0  0  0  0  0  0  0  0  0
  145.3334  141.1630  155.4629 C   0  0  0  0  0  0  0  0  0  0  0  0
  144.3952  142.2558  156.0037 C   0  0  0  0  0  0  0  0  0  0  0  0
  144.0860  143.1759  154.9624 O   0  0  0  0  0  0  0  0  0  0  0  0
  145.2466  143.7827  154.4038 C   0  0  0  0  0  0  0  0  0  0  0  0
  146.1886  142.6943  153.8606 C   0  0  0  0  0  0  0  0  0  0  0  0
  150.5834  142.7731  156.7963 N   0  0  0  0  0  0  0  0  0  0  0  0
  151.4622  142.8821  157.9096 C   0  0  0  0  0  0  0  0  0  0  0  0
  152.0852  141.7900  158.5626 C   0  0  0  0  0  0  0  0  0  0  0  0
  152.9261  142.0457  159.6632 C   0  0  0  0  0  0  0  0  0  0  0  0
  153.1105  143.3795  160.0750 C   0  0  0  0  0  0  0  0  0  0  0  0
  152.5194  144.4290  159.4670 N   0  0  0  0  0  0  0  0  0  0  0  0
  151.7158  144.1763  158.4122 C   0  0  0  0  0  0  0  0  0  0  0  0
  149.0574  142.9673  155.0577 H   0  0  0  0  0  0  0  0  0  0  0  0
  148.9734  141.5216  153.0732 H   0  0  0  0  0  0  0  0  0  0  0  0
  149.5185  140.2212  154.0857 H   0  0  0  0  0  0  0  0  0  0  0  0
  146.9933  140.2296  153.4956 H   0  0  0  0  0  0  0  0  0  0  0  0
  147.4813  139.8654  155.1235 H   0  0  0  0  0  0  0  0  0  0  0  0
  144.8072  140.5772  154.7076 H   0  0  0  0  0  0  0  0  0  0  0  0
  145.5862  140.4754  156.2708 H   0  0  0  0  0  0  0  0  0  0  0  0
  143.4709  141.8126  156.3747 H   0  0  0  0  0  0  0  0  0  0  0  0
  144.8575  142.7832  156.8396 H   0  0  0  0  0  0  0  0  0  0  0  0
  144.9453  144.4577  153.6027 H   0  0  0  0  0  0  0  0  0  0  0  0
  145.7505  144.3863  155.1602 H   0  0  0  0  0  0  0  0  0  0  0  0
  147.0789  143.1759  153.4583 H   0  0  0  0  0  0  0  0  0  0  0  0
  145.7057  142.1830  153.0264 H   0  0  0  0  0  0  0  0  0  0  0  0
  150.1263  143.6330  156.5307 H   0  0  0  0  0  0  0  0  0  0  0  0
  151.9361  140.7671  158.2575 H   0  0  0  0  0  0  0  0  0  0  0  0
  153.4165  141.2356  160.1825 H   0  0  0  0  0  0  0  0  0  0  0  0
  153.7466  143.6092  160.9167 H   0  0  0  0  0  0  0  0  0  0  0  0
  151.2590  145.0409  157.9527 H   0  0  0  0  0  0  0  0  0  0  0  0
  1  2  2  0  0  0  0
  2  3  1  0  0  0  0
  2 12  1  0  0  0  0
  3  4  1  0  0  0  0
  3 19  1  0  0  0  0
  4  5  1  0  0  0  0
  4 20  1  0  0  0  0
  4 21  1  0  0  0  0
  5  6  1  0  0  0  0
  5 22  1  0  0  0  0
  5 23  1  0  0  0  0
  6 11  1  0  0  0  0
  6  7  1  0  0  0  0
  7  8  1  0  0  0  0
  7 24  1  0  0  0  0
  7 25  1  0  0  0  0
  8  9  1  0  0  0  0
  8 26  1  0  0  0  0
  8 27  1  0  0  0  0
  9 10  1  0  0  0  0
 10 11  1  0  0  0  0
 10 28  1  0  0  0  0
 10 29  1  0  0  0  0
 11 30  1  0  0  0  0
 11 31  1  0  0  0  0
 12 13  1  0  0  0  0
 12 32  1  0  0  0  0
 13 18  1  0  0  0  0
 13 14  2  0  0  0  0
 14 15  1  0  0  0  0
 14 33  1  0  0  0  0
 15 16  2  0  0  0  0
 15 34  1  0  0  0  0
 16 17  1  0  0  0  0
 16 35  1  0  0  0  0
 17 18  2  0  0  0  0
 18 36  1  0  0  0  0
M  END
> <s_m_source_file>
AV-unprocessed.smi

> <i_m_source_file_index>
3256

> <i_lp_mmshare_version>
43012

> <i_f3d_flags>
0

> <s_epik_input>
W2NIXTFuW2NIXVtjSF1bY0hdYzFbTkhdQyg9TylbTkhdW0NIMl1bQ0gyXU4yW0NIMl1bQ0gyXU9bQ0gyXVtDSDJdMg==

> <s_epik_cmdline>
J2VwaWtfcHl0aG9uJywgJy1waCcsICc3LjAnLCAnLXRuJywgJzgnLCAnLW1hJywgJzIwMCcsICctbWV0YWxfYmluZGluZycsICctaW1hZScsICc8aW5maWxlLm1hZT4nLCAnLW9tYWUnLCAnPG91dGZpbGUubWFlPic=

> <r_epik_Ionization_Penalty>
0.270703

> <r_epik_Ionization_Penalty_Charging>
0

> <r_epik_Ionization_Penalty_Neutral>
0.270703

> <r_epik_State_Penalty>
0.268226

> <r_epik_Charging_Adjusted_Penalty>
0.268226

> <i_epik_Tot_Q>
0

> <i_epik_Tot_abs_Q>
0

> <r_epik_Metal_State_Penalty>
0.26483

> <b_epik_Metal_Only>
0

> <s_lp_Force_Field>
OPLS_2005

> <r_lp_Energy>
28.1533

> <b_lp_Chiralities_Consistent>
1

> <s_lp_Variant>
AV-unprocessed.smi:3256-1

> <Gold.Version>
5.8.1

> <Gold.Id.Protein>
6NUR|6NUR_protein|mol2

> <Gold.PLP.Fitness>
41.1462

> <Gold.PLP.PLP>
-35.6776

> <Gold.PLP.part.hbond>
-2.0000

> <Gold.PLP.part.metal>
0.0000

> <Gold.PLP.part.buried>
-6.7353

> <Gold.PLP.part.nonpolar>
-27.7379

> <Gold.PLP.part.repulsive>
0.5696

> <Gold.PLP.ligand.clash>
0.0000

> <Gold.PLP.ligand.torsion>
0.2747

> <Gold.PLP.Chemscore.Hbond>
2.0000

> <Gold.PLP.Chemscore.CHOScore>
0.0000

> <Gold.PLP.Chemscore.Metal>
0.0000

> <Gold.Chemscore.Hbonds>
donor molecule, donor type, donor heavy atom, donor atom, acceptor molecule, acceptor atom, score
      L1  H     3    19       P1  8028  1.00
      L1  H    12    32       P1  8028  1.00

> <Gold.PLP.Chemscore.Internal.Correction>
0.0180

> <Gold.Rescore>
     Score         DG    S(hbond)    S(metal)    S(lipo)     H(rot)  DE(clash)    DE(int)     intcor
     17.18     -18.50       1.97        0.00      87.74       1.49       0.01       1.31       ----

> <Gold.Chemscore.Fitness>
17.1823

> <Gold.Chemscore.DG>
-18.5026

> <Gold.Chemscore.ZeroCoef>
-5.4800

> <Gold.Chemscore.Hbond>
1.9712

> <Gold.Chemscore.Metal>
0.0000

> <Gold.Chemscore.Lipo>
87.7421

> <Gold.Chemscore.Internal_Hbond>
0.0000

> <Gold.Chemscore.DEClash>
0.0102

> <Gold.Chemscore.DEInternal>
1.3101

> <Gold.Chemscore.Rot>
1.4949

> <Gold.Chemscore.Internal.Correction>
   9.000000E+99

> <Gold.Chemscore.Hbonds>
donor molecule, donor type, donor heavy atom, donor atom, acceptor molecule, acceptor atom, score
      L1  H     3    19       P1  8028  0.98
      L1  H    12    32       P1  8028  0.99

> <Gold.Chemscore.Hbond.Weighted>
-6.5837

> <Gold.Chemscore.Metal.Weighted>
-0.0000

> <Gold.Chemscore.Lipo.Weighted>
-10.2658

> <Gold.Chemscore.Internal_Hbond.Weighted>
0.0000

> <Gold.Chemscore.DEClash.Weighted>
0.0102

> <Gold.Chemscore.DEInternal.Weighted>
1.3101

> <Gold.Chemscore.Rot.Weighted>
3.8269

> <Gold.Chemscore.Internal.Correction.Weighted>
   9.000000E+99

> <Gold.Protein.RotatedTorsions>
[ 6907 6896 6895 6894 ] final   96.15 input  -60.11 | X-H torsion
[ 7974 7965 7964 7962 ] final  166.99 input  175.53 | X-H torsion
[ 8008 7997 7996 7995 ] final  140.57 input   59.86 | X-H torsion
[ 10167 10162 10161 10158 ] final   36.19 input  -65.29 | X-H torsion
[ 10718 10713 10712 10709 ] final  102.64 input   66.30 | X-H torsion
[ 10763 10752 10751 10750 ] final   91.52 input  -60.55 | X-H torsion
[ 11005 11000 10999 10996 ] final   85.01 input  -57.11 | X-H torsion

> <Gold.Protein.ActiveResidues>
 VAL166  LYS551  ARG553  GLY616  TRP617  ASP618  TYR619  PRO620  LYS621  CYS622 
 ASP623  PHE694  ASN695  SER759  ASP760  ASP761  ALA762  ILE779  LEU786  VAL792 
 PHE793  MET794  SER795  GLU796  ALA797  LYS798  CYS799  TRP800  GLU811  SER814 

> <Gold.Protein.RotatedAtoms>
  152.5437  134.0930  159.8284 H   0  0  0  0  0  0  0  0  0  0  0  0  # atno 6907 bound_to 6896
  151.1017  133.5231  159.2617 H   0  0  0  0  0  0  0  0  0  0  0  0  # atno 6908 bound_to 6896
  151.1983  135.0441  159.8916 H   0  0  0  0  0  0  0  0  0  0  0  0  # atno 6909 bound_to 6896
  144.7441  139.8696  143.6388 H   0  0  0  0  0  0  0  0  0  0  0  0  # atno 7974 bound_to 7965
  156.2977  140.2338  156.4423 H   0  0  0  0  0  0  0  0  0  0  0  0  # atno 8008 bound_to 7997
  154.8175  140.0439  157.1407 H   0  0  0  0  0  0  0  0  0  0  0  0  # atno 8009 bound_to 7997
  154.9353  140.3022  155.5151 H   0  0  0  0  0  0  0  0  0  0  0  0  # atno 8010 bound_to 7997
  140.4151  144.1538  150.6142 H   0  0  0  0  0  0  0  0  0  0  0  0  # atno 10167 bound_to 10162
  157.6796  131.0758  150.5434 H   0  0  0  0  0  0  0  0  0  0  0  0  # atno 10718 bound_to 10713
  153.2091  135.4395  155.0358 H   0  0  0  0  0  0  0  0  0  0  0  0  # atno 10763 bound_to 10752
  154.8190  135.3328  154.7096 H   0  0  0  0  0  0  0  0  0  0  0  0  # atno 10764 bound_to 10752
  153.7535  135.6996  153.4996 H   0  0  0  0  0  0  0  0  0  0  0  0  # atno 10765 bound_to 10752
  139.8983  134.8257  156.2524 H   0  0  0  0  0  0  0  0  0  0  0  0  # atno 11005 bound_to 11000
  146.1289  139.4321  143.0181 LP  0  0  0  0  0  0  0  0  0  0  0  0  # atno 17320 bound_to 7965
  145.7192  141.0080  143.1411 LP  0  0  0  0  0  0  0  0  0  0  0  0  # atno 17321 bound_to 7965
  140.4595  143.2454  151.9239 LP  0  0  0  0  0  0  0  0  0  0  0  0  # atno 17342 bound_to 10162
  139.4782  144.5481  151.8427 LP  0  0  0  0  0  0  0  0  0  0  0  0  # atno 17343 bound_to 10162
  156.5741  130.4287  149.6006 LP  0  0  0  0  0  0  0  0  0  0  0  0  # atno 17370 bound_to 10713
  156.2716  130.7020  151.1819 LP  0  0  0  0  0  0  0  0  0  0  0  0  # atno 17371 bound_to 10713
  141.0215  133.7038  156.1277 LP  0  0  0  0  0  0  0  0  0  0  0  0  # atno 17394 bound_to 11000
  140.7226  134.4342  157.5573 LP  0  0  0  0  0  0  0  0  0  0  0  0  # atno 17395 bound_to 11000

$$$$
