AV-unprocessed.smi:3193|AV-procd|sdf|12206|dock7
  -GOLD-   2272018 43D 1   1.00000     0.00000
 Structure written by MMmdl.
 41 42  0  0  0  0  0  0  0  0  3 V2000
  149.7412  142.8021  158.3756 C   0  0  0  0  0  0  0  0  0  0  0  0
  151.1554  143.0289  157.8026 C   0  0  1  0  0  0  0  0  0  0  0  0
  151.7195  144.4064  158.2108 C   0  0  0  0  0  0  0  0  0  0  0  0
  152.1279  144.4563  159.6927 C   0  0  0  0  0  0  0  0  0  0  0  0
  153.1199  143.3349  160.0336 C   0  0  0  0  0  0  0  0  0  0  0  0
  152.5676  141.9548  159.6413 C   0  0  0  0  0  0  0  0  0  0  0  0
  152.1709  141.9067  158.1485 C   0  0  1  0  0  0  0  0  0  0  0  0
  151.6831  140.5100  157.7130 C   0  0  0  0  0  0  0  0  0  0  0  0
  151.3193  140.4810  156.2818 N   0  3  0  0  0  0  0  0  0  0  0  0
  149.8682  140.3683  156.0343 C   0  0  0  0  0  0  0  0  0  0  0  0
  149.5674  140.2619  154.5322 C   0  0  0  0  0  0  0  0  0  0  0  0
  148.2236  140.7476  154.2083 N   0  0  0  0  0  0  0  0  0  0  0  0
  147.7077  141.9938  154.4580 C   0  0  0  0  0  0  0  0  0  0  0  0
  146.4215  141.9870  153.9828 C   0  0  0  0  0  0  0  0  0  0  0  0
  146.2065  140.7380  153.4646 N   0  3  0  0  0  0  0  0  0  0  0  0
  147.3036  139.9857  153.6018 C   0  0  0  0  0  0  0  0  0  0  0  0
  149.7427  142.7307  159.4629 H   0  0  0  0  0  0  0  0  0  0  0  0
  149.2900  141.8905  157.9846 H   0  0  0  0  0  0  0  0  0  0  0  0
  149.0778  143.6236  158.1041 H   0  0  0  0  0  0  0  0  0  0  0  0
  151.0447  143.0448  156.7175 H   0  0  0  0  0  0  0  0  0  0  0  0
  152.5917  144.6325  157.5957 H   0  0  0  0  0  0  0  0  0  0  0  0
  150.9928  145.1911  157.9981 H   0  0  0  0  0  0  0  0  0  0  0  0
  152.5735  145.4252  159.9208 H   0  0  0  0  0  0  0  0  0  0  0  0
  151.2446  144.3719  160.3264 H   0  0  0  0  0  0  0  0  0  0  0  0
  154.0610  143.5120  159.5117 H   0  0  0  0  0  0  0  0  0  0  0  0
  153.3508  143.3551  161.0992 H   0  0  0  0  0  0  0  0  0  0  0  0
  153.3229  141.1988  159.8565 H   0  0  0  0  0  0  0  0  0  0  0  0
  151.7094  141.7112  160.2684 H   0  0  0  0  0  0  0  0  0  0  0  0
  153.0711  142.1207  157.5694 H   0  0  0  0  0  0  0  0  0  0  0  0
  152.4491  139.7575  157.9052 H   0  0  0  0  0  0  0  0  0  0  0  0
  150.8040  140.2294  158.2949 H   0  0  0  0  0  0  0  0  0  0  0  0
  151.6550  141.3314  155.8518 H   0  0  0  0  0  0  0  0  0  0  0  0
  149.4821  139.4918  156.5568 H   0  0  0  0  0  0  0  0  0  0  0  0
  149.3656  141.2411  156.4536 H   0  0  0  0  0  0  0  0  0  0  0  0
  150.2814  140.8496  153.9534 H   0  0  0  0  0  0  0  0  0  0  0  0
  149.6486  139.2289  154.1901 H   0  0  0  0  0  0  0  0  0  0  0  0
  148.2773  142.7745  154.9418 H   0  0  0  0  0  0  0  0  0  0  0  0
  145.6632  142.7569  153.9747 H   0  0  0  0  0  0  0  0  0  0  0  0
  147.4203  138.9644  153.2850 H   0  0  0  0  0  0  0  0  0  0  0  0
  151.7856  139.6958  155.8500 H   0  0  0  0  0  0  0  0  0  0  0  0
  145.3426  140.4275  153.0370 H   0  0  0  0  0  0  0  0  0  0  0  0
  1  2  1  0  0  0  0
  1 17  1  0  0  0  0
  1 18  1  0  0  0  0
  1 19  1  0  0  0  0
  2  7  1  0  0  0  0
  2  3  1  0  0  0  0
  2 20  1  0  0  0  0
  3  4  1  0  0  0  0
  3 21  1  0  0  0  0
  3 22  1  0  0  0  0
  4  5  1  0  0  0  0
  4 23  1  0  0  0  0
  4 24  1  0  0  0  0
  5  6  1  0  0  0  0
  5 25  1  0  0  0  0
  5 26  1  0  0  0  0
  6  7  1  0  0  0  0
  6 27  1  0  0  0  0
  6 28  1  0  0  0  0
  7  8  1  0  0  0  0
  7 29  1  0  0  0  0
  8  9  1  0  0  0  0
  8 30  1  0  0  0  0
  8 31  1  0  0  0  0
  9 10  1  0  0  0  0
  9 32  1  0  0  0  0
  9 40  1  0  0  0  0
 10 11  1  0  0  0  0
 10 33  1  0  0  0  0
 10 34  1  0  0  0  0
 11 12  1  0  0  0  0
 11 35  1  0  0  0  0
 11 36  1  0  0  0  0
 12 16  1  0  0  0  0
 12 13  1  0  0  0  0
 13 14  2  0  0  0  0
 13 37  1  0  0  0  0
 14 15  1  0  0  0  0
 14 38  1  0  0  0  0
 15 16  2  0  0  0  0
 15 41  1  0  0  0  0
 16 39  1  0  0  0  0
M  CHG  1   9   1
M  CHG  1  15   1
M  END
> <s_m_source_file>
AV-unprocessed.smi

> <i_m_source_file_index>
3193

> <i_lp_mmshare_version>
43012

> <i_f3d_flags>
0

> <s_epik_input>
W0NIM11bQ0BASF0xW0NIMl1bQ0gyXVtDSDJdW0NIMl1bQ0BIXTFbQ0gyXVtOSF1bQ0gyXVtDSDJdbjJbY0hdW2NIXW5bY0hdMg==

> <s_epik_cmdline>
J2VwaWtfcHl0aG9uJywgJy1waCcsICc3LjAnLCAnLXRuJywgJzgnLCAnLW1hJywgJzIwMCcsICctbWV0YWxfYmluZGluZycsICctaW1hZScsICc8aW5maWxlLm1hZT4nLCAnLW9tYWUnLCAnPG91dGZpbGUubWFlPic=

> <r_lp_tautomer_probability>
1

> <r_epik_Ionization_Penalty>
1.50262

> <r_epik_Ionization_Penalty_Charging>
0.00193432

> <r_epik_Ionization_Penalty_Neutral>
1.50068

> <r_epik_State_Penalty>
1.11854

> <r_epik_Charging_Adjusted_Penalty>
1.12048

> <i_epik_Tot_Q>
2

> <i_epik_Tot_abs_Q>
2

> <r_epik_Metal_State_Penalty>
5.11322

> <b_epik_Metal_Only>
0

> <s_lp_Force_Field>
OPLS_2005

> <r_lp_Energy>
27.2728

> <b_lp_Chiralities_Consistent>
1

> <s_lp_Variant>
AV-unprocessed.smi:3193-6

> <Gold.Version>
5.8.1

> <Gold.Id.Protein>
6NUR|6NUR_protein|mol2

> <Gold.PLP.Fitness>
47.1509

> <Gold.PLP.PLP>
-39.1434

> <Gold.PLP.part.hbond>
-1.0000

> <Gold.PLP.part.metal>
0.0000

> <Gold.PLP.part.buried>
-3.3737

> <Gold.PLP.part.nonpolar>
-34.7234

> <Gold.PLP.part.repulsive>
0.1405

> <Gold.PLP.ligand.clash>
0.0000

> <Gold.PLP.ligand.torsion>
0.5092

> <Gold.PLP.Chemscore.Hbond>
2.0000

> <Gold.PLP.Chemscore.CHOScore>
1.0000

> <Gold.PLP.Chemscore.Metal>
0.0000

> <Gold.Chemscore.Hbonds>
donor molecule, donor type, donor heavy atom, donor atom, acceptor molecule, acceptor atom, score
      L1  H    15    41       P1 10175  2.00
      L1  C    13    37       P1  8028  1.00

> <Gold.PLP.Chemscore.Internal.Correction>
0.0259

> <Gold.Rescore>
     Score         DG    S(hbond)    S(metal)    S(lipo)     H(rot)  DE(clash)    DE(int)     intcor
     15.21     -15.81       0.97        0.00     103.75       1.98       0.05       0.55       ----

> <Gold.Chemscore.Fitness>
15.2091

> <Gold.Chemscore.DG>
-15.8060

> <Gold.Chemscore.ZeroCoef>
-5.4800

> <Gold.Chemscore.Hbond>
0.9728

> <Gold.Chemscore.Metal>
0.0000

> <Gold.Chemscore.Lipo>
103.7525

> <Gold.Chemscore.Internal_Hbond>
0.0000

> <Gold.Chemscore.DEClash>
0.0508

> <Gold.Chemscore.DEInternal>
0.5461

> <Gold.Chemscore.Rot>
1.9774

> <Gold.Chemscore.Internal.Correction>
   9.000000E+99

> <Gold.Chemscore.Hbonds>
donor molecule, donor type, donor heavy atom, donor atom, acceptor molecule, acceptor atom, score
      L1  H    15    41       P1 10175  0.94

> <Gold.Chemscore.Hbond.Weighted>
-3.2492

> <Gold.Chemscore.Metal.Weighted>
-0.0000

> <Gold.Chemscore.Lipo.Weighted>
-12.1390

> <Gold.Chemscore.Internal_Hbond.Weighted>
0.0000

> <Gold.Chemscore.DEClash.Weighted>
0.0508

> <Gold.Chemscore.DEInternal.Weighted>
0.5461

> <Gold.Chemscore.Rot.Weighted>
5.0622

> <Gold.Chemscore.Internal.Correction.Weighted>
   9.000000E+99

> <Gold.Protein.RotatedTorsions>
[ 6907 6896 6895 6894 ] final -108.76 input  -60.11 | X-H torsion
[ 7974 7965 7964 7962 ] final -120.31 input  175.53 | X-H torsion
[ 8008 7997 7996 7995 ] final  -21.34 input   59.86 | X-H torsion
[ 10167 10162 10161 10158 ] final  -22.42 input  -65.29 | X-H torsion
[ 10718 10713 10712 10709 ] final   55.56 input   66.30 | X-H torsion
[ 10763 10752 10751 10750 ] final  134.28 input  -60.55 | X-H torsion
[ 11005 11000 10999 10996 ] final   66.79 input  -57.11 | X-H torsion

> <Gold.Protein.ActiveResidues>
 VAL166  LYS551  ARG553  GLY616  TRP617  ASP618  TYR619  PRO620  LYS621  CYS622 
 ASP623  PHE694  ASN695  SER759  ASP760  ASP761  ALA762  ILE779  LEU786  VAL792 
 PHE793  MET794  SER795  GLU796  ALA797  LYS798  CYS799  TRP800  GLU811  SER814 

> <Gold.Protein.RotatedAtoms>
  150.7521  133.9629  159.3521 H   0  0  0  0  0  0  0  0  0  0  0  0  # atno 6907 bound_to 6896
  151.7556  135.0820  160.0347 H   0  0  0  0  0  0  0  0  0  0  0  0  # atno 6908 bound_to 6896
  152.3437  133.6060  159.5931 H   0  0  0  0  0  0  0  0  0  0  0  0  # atno 6909 bound_to 6896
  145.0528  140.8231  143.4199 H   0  0  0  0  0  0  0  0  0  0  0  0  # atno 7974 bound_to 7965
  154.4712  140.2037  155.9990 H   0  0  0  0  0  0  0  0  0  0  0  0  # atno 8008 bound_to 7997
  156.1014  140.3243  155.7917 H   0  0  0  0  0  0  0  0  0  0  0  0  # atno 8009 bound_to 7997
  155.4792  140.0537  157.2960 H   0  0  0  0  0  0  0  0  0  0  0  0  # atno 8010 bound_to 7997
  140.7286  143.4536  151.0480 H   0  0  0  0  0  0  0  0  0  0  0  0  # atno 10167 bound_to 10162
  157.5355  130.8660  149.8748 H   0  0  0  0  0  0  0  0  0  0  0  0  # atno 10718 bound_to 10713
  153.8209  135.3116  155.3410 H   0  0  0  0  0  0  0  0  0  0  0  0  # atno 10763 bound_to 10752
  154.8013  135.4725  154.0285 H   0  0  0  0  0  0  0  0  0  0  0  0  # atno 10764 bound_to 10752
  153.1694  135.6875  153.8719 H   0  0  0  0  0  0  0  0  0  0  0  0  # atno 10765 bound_to 10752
  139.9810  134.6743  156.0262 H   0  0  0  0  0  0  0  0  0  0  0  0  # atno 11005 bound_to 11000
  145.1506  139.2517  143.5443 LP  0  0  0  0  0  0  0  0  0  0  0  0  # atno 17320 bound_to 7965
  146.3519  140.1207  142.8600 LP  0  0  0  0  0  0  0  0  0  0  0  0  # atno 17321 bound_to 7965
  139.8215  143.7814  152.3177 LP  0  0  0  0  0  0  0  0  0  0  0  0  # atno 17342 bound_to 10162
  139.7898  144.7414  150.9971 LP  0  0  0  0  0  0  0  0  0  0  0  0  # atno 17343 bound_to 10162
  156.0456  130.3729  150.1327 LP  0  0  0  0  0  0  0  0  0  0  0  0  # atno 17370 bound_to 10713
  156.9509  130.9774  151.3498 LP  0  0  0  0  0  0  0  0  0  0  0  0  # atno 17371 bound_to 10713
  141.1482  133.6552  156.3932 LP  0  0  0  0  0  0  0  0  0  0  0  0  # atno 17394 bound_to 11000
  140.5096  134.6408  157.5279 LP  0  0  0  0  0  0  0  0  0  0  0  0  # atno 17395 bound_to 11000

$$$$
