AV-unprocessed.smi:153|AV-procd|sdf|1253|dock1
  -GOLD-   2262018483D 1   1.00000     0.00000
 Structure written by MMmdl.
 60 63  0  0  0  0  0  0  0  0  2 V2000
  151.6106  144.3681  156.8968 C   0  0  0  0  0  0  0  0  0  0  0  0
  152.4400  144.4851  158.1857 C   0  0  1  0  0  0  0  0  0  0  0  0
  151.8556  145.5766  158.9002 O   0  0  0  0  0  0  0  0  0  0  0  0
  151.6321  145.2271  160.2567 C   0  0  0  0  0  0  0  0  0  0  0  0
  151.3987  143.7246  160.2074 C   0  0  0  0  0  0  0  0  0  0  0  0
  152.3970  143.2691  159.1529 C   0  0  2  0  0  0  0  0  0  0  0  0
  153.6607  143.1718  159.7880 O   0  0  0  0  0  0  0  0  0  0  0  0
  152.0456  141.8716  158.5696 C   0  0  0  0  0  0  0  0  0  0  0  0
  150.8078  141.7957  157.7979 N   0  0  0  0  0  0  0  0  0  0  0  0
  149.5972  142.3912  158.0772 C   0  0  0  0  0  0  0  0  0  0  0  0
  148.6568  142.1820  157.1984 N   0  0  0  0  0  0  0  0  0  0  0  0
  149.2601  141.3997  156.2209 C   0  0  0  0  0  0  0  0  0  0  0  0
  148.8291  140.8296  154.9840 C   0  0  0  0  0  0  0  0  0  0  0  0
  147.5742  140.9430  154.4687 N   0  0  0  0  0  0  0  0  0  0  0  0
  146.6683  141.9579  154.9917 C   0  0  0  0  0  0  0  0  0  0  0  0
  147.2545  140.3171  153.1837 C   0  0  0  0  0  0  0  0  0  0  0  0
  147.2171  138.7772  153.2625 C   0  0  2  0  0  0  0  0  0  0  0  0
  148.5359  138.3170  153.0455 O   0  0  0  0  0  0  0  0  0  0  0  0
  146.2973  138.1361  152.1991 C   0  0  0  0  0  0  0  0  0  0  0  0
  146.4377  136.6599  152.1304 N   0  3  0  0  0  0  0  0  0  0  0  0
  146.2233  135.9862  153.4359 C   0  0  0  0  0  0  0  0  0  0  0  0
  146.4145  134.4667  153.2942 C   0  0  0  0  0  0  0  0  0  0  0  0
  145.5281  133.9639  152.3026 O   0  0  0  0  0  0  0  0  0  0  0  0
  145.7798  134.5360  151.0254 C   0  0  0  0  0  0  0  0  0  0  0  0
  145.5688  136.0581  151.0912 C   0  0  0  0  0  0  0  0  0  0  0  0
  149.7560  140.1433  154.2652 N   0  0  0  0  0  0  0  0  0  0  0  0
  151.0053  140.0065  154.7160 C   0  0  0  0  0  0  0  0  0  0  0  0
  151.5385  140.4745  155.8441 N   0  0  0  0  0  0  0  0  0  0  0  0
  150.6218  141.1715  156.5744 C   0  0  0  0  0  0  0  0  0  0  0  0
  152.0578  143.6732  156.1900 H   0  0  0  0  0  0  0  0  0  0  0  0
  151.5523  145.3317  156.3900 H   0  0  0  0  0  0  0  0  0  0  0  0
  150.5907  144.0431  157.1034 H   0  0  0  0  0  0  0  0  0  0  0  0
  153.4675  144.7395  157.9208 H   0  0  0  0  0  0  0  0  0  0  0  0
  152.5207  145.4655  160.8431 H   0  0  0  0  0  0  0  0  0  0  0  0
  150.7876  145.7727  160.6775 H   0  0  0  0  0  0  0  0  0  0  0  0
  151.5288  143.2394  161.1756 H   0  0  0  0  0  0  0  0  0  0  0  0
  150.3789  143.5314  159.8715 H   0  0  0  0  0  0  0  0  0  0  0  0
  154.2524  142.7156  159.2096 H   0  0  0  0  0  0  0  0  0  0  0  0
  152.8564  141.5223  157.9290 H   0  0  0  0  0  0  0  0  0  0  0  0
  151.9845  141.1479  159.3826 H   0  0  0  0  0  0  0  0  0  0  0  0
  149.4200  142.9967  158.9531 H   0  0  0  0  0  0  0  0  0  0  0  0
  146.7056  141.9906  156.0812 H   0  0  0  0  0  0  0  0  0  0  0  0
  145.6396  141.7391  154.7044 H   0  0  0  0  0  0  0  0  0  0  0  0
  146.9234  142.9431  154.6006 H   0  0  0  0  0  0  0  0  0  0  0  0
  146.3249  140.6976  152.7597 H   0  0  0  0  0  0  0  0  0  0  0  0
  148.0321  140.6190  152.4806 H   0  0  0  0  0  0  0  0  0  0  0  0
  146.9248  138.4821  154.2696 H   0  0  0  0  0  0  0  0  0  0  0  0
  149.0450  139.0125  152.6590 H   0  0  0  0  0  0  0  0  0  0  0  0
  145.2497  138.3635  152.3928 H   0  0  0  0  0  0  0  0  0  0  0  0
  146.5237  138.5807  151.2283 H   0  0  0  0  0  0  0  0  0  0  0  0
  146.9170  136.3680  154.1839 H   0  0  0  0  0  0  0  0  0  0  0  0
  145.2165  136.1997  153.7985 H   0  0  0  0  0  0  0  0  0  0  0  0
  147.4466  134.2263  153.0342 H   0  0  0  0  0  0  0  0  0  0  0  0
  146.2015  133.9717  154.2417 H   0  0  0  0  0  0  0  0  0  0  0  0
  146.7929  134.2956  150.6985 H   0  0  0  0  0  0  0  0  0  0  0  0
  145.0977  134.0934  150.2992 H   0  0  0  0  0  0  0  0  0  0  0  0
  144.5240  136.2812  151.3132 H   0  0  0  0  0  0  0  0  0  0  0  0
  145.7927  136.5004  150.1197 H   0  0  0  0  0  0  0  0  0  0  0  0
  151.6724  139.4401  154.0828 H   0  0  0  0  0  0  0  0  0  0  0  0
  147.3883  136.4705  151.8471 H   0  0  0  0  0  0  0  0  0  0  0  0
  1  2  1  0  0  0  0
  1 30  1  0  0  0  0
  1 31  1  0  0  0  0
  1 32  1  0  0  0  0
  2  6  1  0  0  0  0
  2  3  1  0  0  0  0
  2 33  1  0  0  0  0
  3  4  1  0  0  0  0
  4  5  1  0  0  0  0
  4 34  1  0  0  0  0
  4 35  1  0  0  0  0
  5  6  1  0  0  0  0
  5 36  1  0  0  0  0
  5 37  1  0  0  0  0
  6  7  1  0  0  0  0
  6  8  1  0  0  0  0
  7 38  1  0  0  0  0
  8  9  1  0  0  0  0
  8 39  1  0  0  0  0
  8 40  1  0  0  0  0
  9 29  1  0  0  0  0
  9 10  1  0  0  0  0
 10 11  2  0  0  0  0
 10 41  1  0  0  0  0
 11 12  1  0  0  0  0
 12 29  2  0  0  0  0
 12 13  1  0  0  0  0
 13 14  1  0  0  0  0
 13 26  2  0  0  0  0
 14 15  1  0  0  0  0
 14 16  1  0  0  0  0
 15 42  1  0  0  0  0
 15 43  1  0  0  0  0
 15 44  1  0  0  0  0
 16 17  1  0  0  0  0
 16 45  1  0  0  0  0
 16 46  1  0  0  0  0
 17 18  1  0  0  0  0
 17 19  1  0  0  0  0
 17 47  1  0  0  0  0
 18 48  1  0  0  0  0
 19 20  1  0  0  0  0
 19 49  1  0  0  0  0
 19 50  1  0  0  0  0
 20 25  1  0  0  0  0
 20 21  1  0  0  0  0
 20 60  1  0  0  0  0
 21 22  1  0  0  0  0
 21 51  1  0  0  0  0
 21 52  1  0  0  0  0
 22 23  1  0  0  0  0
 22 53  1  0  0  0  0
 22 54  1  0  0  0  0
 23 24  1  0  0  0  0
 24 25  1  0  0  0  0
 24 55  1  0  0  0  0
 24 56  1  0  0  0  0
 25 57  1  0  0  0  0
 25 58  1  0  0  0  0
 26 27  1  0  0  0  0
 27 28  2  0  0  0  0
 27 59  1  0  0  0  0
 28 29  1  0  0  0  0
M  CHG  1  20   1
M  END
> <s_m_source_file>
AV-unprocessed.smi

> <i_m_source_file_index>
153

> <i_lp_mmshare_version>
43012

> <i_f3d_flags>
0

> <s_epik_input>
W0NIMl0xW0NIMl1PW0NAQEhdKFtDSDNdKVtDQEBdMShbT0hdKVtDSDJdbihbY0hdbjIpYyhjMjMpbltjSF1uYzNOKFtDSDNdKVtDSDJdW0NASF0oW09IXSlbQ0gyXU40W0NIMl1bQ0gyXU9bQ0gyXVtDSDJdNA==

> <s_epik_cmdline>
J2VwaWtfcHl0aG9uJywgJy1waCcsICc3LjAnLCAnLXRuJywgJzgnLCAnLW1hJywgJzIwMCcsICctbWV0YWxfYmluZGluZycsICctaW1hZScsICc8aW5maWxlLm1hZT4nLCAnLW9tYWUnLCAnPG91dGZpbGUubWFlPic=

> <r_lp_tautomer_probability>
1

> <r_epik_Ionization_Penalty>
0.403509

> <r_epik_Ionization_Penalty_Charging>
0.40072

> <r_epik_Ionization_Penalty_Neutral>
0.00278876

> <r_epik_State_Penalty>
0.400058

> <r_epik_Charging_Adjusted_Penalty>
0.800778

> <i_epik_Tot_Q>
1

> <i_epik_Tot_abs_Q>
1

> <r_epik_Metal_State_Penalty>
0.400321

> <b_epik_Metal_Only>
0

> <s_lp_Force_Field>
OPLS_2005

> <r_lp_Energy>
47.2205

> <b_lp_Chiralities_Consistent>
1

> <s_lp_Variant>
AV-unprocessed.smi:153-4

> <Gold.Version>
5.8.1

> <Gold.Id.Protein>
6NUR|6NUR_protein|mol2

> <Gold.PLP.Fitness>
60.1437

> <Gold.PLP.PLP>
-51.7768

> <Gold.PLP.part.hbond>
-5.0551

> <Gold.PLP.part.metal>
0.0000

> <Gold.PLP.part.buried>
-0.9125

> <Gold.PLP.part.nonpolar>
-48.5594

> <Gold.PLP.part.repulsive>
1.7331

> <Gold.PLP.ligand.clash>
0.0000

> <Gold.PLP.ligand.torsion>
0.7326

> <Gold.PLP.Chemscore.Hbond>
3.0000

> <Gold.PLP.Chemscore.CHOScore>
0.0000

> <Gold.PLP.Chemscore.Metal>
0.0000

> <Gold.Chemscore.Hbonds>
donor molecule, donor type, donor heavy atom, donor atom, acceptor molecule, acceptor atom, score
      L1  H    18    48       P1  7957  1.00
      L1  H    20    60       P1  7948  2.00

> <Gold.PLP.Chemscore.Internal.Correction>
0.8321

> <Gold.Rescore>
     Score         DG    S(hbond)    S(metal)    S(lipo)     H(rot)  DE(clash)    DE(int)     intcor
      8.91     -16.68       1.94        0.00     119.56       3.62       1.97       5.80       ----

> <Gold.Chemscore.Fitness>
8.9094

> <Gold.Chemscore.DG>
-16.6776

> <Gold.Chemscore.ZeroCoef>
-5.4800

> <Gold.Chemscore.Hbond>
1.9377

> <Gold.Chemscore.Metal>
0.0000

> <Gold.Chemscore.Lipo>
119.5560

> <Gold.Chemscore.Internal_Hbond>
0.0000

> <Gold.Chemscore.DEClash>
1.9712

> <Gold.Chemscore.DEInternal>
5.7969

> <Gold.Chemscore.Rot>
3.6182

> <Gold.Chemscore.Internal.Correction>
   9.000000E+99

> <Gold.Chemscore.Hbonds>
donor molecule, donor type, donor heavy atom, donor atom, acceptor molecule, acceptor atom, score
      L1  H    18    48       P1  7957  0.95
      L1  H    20    60       P1  7948  0.96

> <Gold.Chemscore.Hbond.Weighted>
-6.4720

> <Gold.Chemscore.Metal.Weighted>
-0.0000

> <Gold.Chemscore.Lipo.Weighted>
-13.9880

> <Gold.Chemscore.Internal_Hbond.Weighted>
0.0000

> <Gold.Chemscore.DEClash.Weighted>
1.9712

> <Gold.Chemscore.DEInternal.Weighted>
5.7969

> <Gold.Chemscore.Rot.Weighted>
9.2625

> <Gold.Chemscore.Internal.Correction.Weighted>
   9.000000E+99

> <Gold.Protein.RotatedTorsions>
[ 6907 6896 6895 6894 ] final -120.26 input  -60.11 | X-H torsion
[ 7974 7965 7964 7962 ] final -135.76 input  175.53 | X-H torsion
[ 8008 7997 7996 7995 ] final -179.99 input   59.86 | X-H torsion
[ 10167 10162 10161 10158 ] final  -19.01 input  -65.29 | X-H torsion
[ 10718 10713 10712 10709 ] final   53.34 input   66.30 | X-H torsion
[ 10763 10752 10751 10750 ] final  136.47 input  -60.55 | X-H torsion
[ 11005 11000 10999 10996 ] final   -2.81 input  -57.11 | X-H torsion

> <Gold.Protein.ActiveResidues>
 VAL166  LYS551  ARG553  GLY616  TRP617  ASP618  TYR619  PRO620  LYS621  CYS622 
 ASP623  PHE694  ASN695  SER759  ASP760  ASP761  ALA762  ILE779  LEU786  VAL792 
 PHE793  MET794  SER795  GLU796  ALA797  LYS798  CYS799  TRP800  GLU811  SER814 

> <Gold.Protein.RotatedAtoms>
  150.8377  133.7987  159.3072 H   0  0  0  0  0  0  0  0  0  0  0  0  # atno 6907 bound_to 6896
  151.5697  135.1061  160.0002 H   0  0  0  0  0  0  0  0  0  0  0  0  # atno 6908 bound_to 6896
  152.4446  133.7471  159.6729 H   0  0  0  0  0  0  0  0  0  0  0  0  # atno 6909 bound_to 6896
  144.8985  140.6740  143.5100 H   0  0  0  0  0  0  0  0  0  0  0  0  # atno 7974 bound_to 7965
  156.0368  140.1294  157.0198 H   0  0  0  0  0  0  0  0  0  0  0  0  # atno 8008 bound_to 7997
  154.4373  140.1038  156.6250 H   0  0  0  0  0  0  0  0  0  0  0  0  # atno 8009 bound_to 7997
  155.5725  140.3466  155.4521 H   0  0  0  0  0  0  0  0  0  0  0  0  # atno 8010 bound_to 7997
  140.7264  143.4860  151.0054 H   0  0  0  0  0  0  0  0  0  0  0  0  # atno 10167 bound_to 10162
  157.5158  130.8531  149.8494 H   0  0  0  0  0  0  0  0  0  0  0  0  # atno 10718 bound_to 10713
  153.8570  135.3072  155.3436 H   0  0  0  0  0  0  0  0  0  0  0  0  # atno 10763 bound_to 10752
  154.7866  135.4806  153.9962 H   0  0  0  0  0  0  0  0  0  0  0  0  # atno 10764 bound_to 10752
  153.1484  135.6838  153.9013 H   0  0  0  0  0  0  0  0  0  0  0  0  # atno 10765 bound_to 10752
  140.6624  133.9308  155.8444 H   0  0  0  0  0  0  0  0  0  0  0  0  # atno 11005 bound_to 11000
  145.3657  139.1671  143.4359 LP  0  0  0  0  0  0  0  0  0  0  0  0  # atno 17320 bound_to 7965
  146.3095  140.3724  142.8675 LP  0  0  0  0  0  0  0  0  0  0  0  0  # atno 17321 bound_to 7965
  139.8562  143.7374  152.3176 LP  0  0  0  0  0  0  0  0  0  0  0  0  # atno 17342 bound_to 10162
  139.7573  144.7517  151.0416 LP  0  0  0  0  0  0  0  0  0  0  0  0  # atno 17343 bound_to 10162
  156.0319  130.3762  150.1664 LP  0  0  0  0  0  0  0  0  0  0  0  0  # atno 17370 bound_to 10713
  156.9853  130.9876  151.3428 LP  0  0  0  0  0  0  0  0  0  0  0  0  # atno 17371 bound_to 10713
  141.0455  134.0560  157.3850 LP  0  0  0  0  0  0  0  0  0  0  0  0  # atno 17394 bound_to 11000
  139.9008  135.0164  156.7260 LP  0  0  0  0  0  0  0  0  0  0  0  0  # atno 17395 bound_to 11000

$$$$
