AV-unprocessed.smi:30|AV-procd|sdf|193|dock1
  -GOLD-   2262015463D 1   1.00000     0.00000
 Structure written by MMmdl.
 54 57  0  0  0  0  0  0  0  0  1 V2000
  146.6004  138.3360  154.6200 O   0  0  0  0  0  0  0  0  0  0  0  0
  147.0437  138.4572  153.4771 C   0  0  0  0  0  0  0  0  0  0  0  0
  146.1207  138.2859  152.2600 C   0  0  0  0  0  0  0  0  0  0  0  0
  145.1841  137.1468  152.3821 N   0  0  0  0  0  0  0  0  0  0  0  0
  144.2261  137.1702  153.4253 C   0  0  0  0  0  0  0  0  0  0  0  0
  144.1455  138.1268  154.1975 O   0  0  0  0  0  0  0  0  0  0  0  0
  143.3759  135.9904  153.5235 C   0  0  0  0  0  0  0  0  0  0  0  0
  142.4719  135.9023  154.5140 F   0  0  0  0  0  0  0  0  0  0  0  0
  143.4946  134.9737  152.6453 C   0  0  0  0  0  0  0  0  0  0  0  0
  144.3959  134.9854  151.5949 N   0  0  0  0  0  0  0  0  0  0  0  0
  144.5752  133.7858  150.6867 C   0  0  2  0  0  0  0  0  0  0  0  0
  143.5303  132.6755  150.8949 C   0  0  0  0  0  0  0  0  0  0  0  0
  144.3242  131.6187  151.6377 C   0  0  0  0  0  0  0  0  0  0  0  0
  145.7232  131.8338  151.0740 C   0  0  0  0  0  0  0  0  0  0  0  0
  145.8357  133.2454  150.9496 O   0  0  0  0  0  0  0  0  0  0  0  0
  145.3076  136.0602  151.4829 C   0  0  0  0  0  0  0  0  0  0  0  0
  146.1915  136.0524  150.6231 O   0  0  0  0  0  0  0  0  0  0  0  0
  148.3329  138.7076  153.1841 N   0  0  0  0  0  0  0  0  0  0  0  0
  149.4145  138.9429  154.0751 C   0  0  0  0  0  0  0  0  0  0  0  0
  149.1450  139.6895  155.2391 C   0  0  0  0  0  0  0  0  0  0  0  0
  150.1638  139.9410  156.1775 C   0  0  0  0  0  0  0  0  0  0  0  0
  151.4668  139.4425  155.9803 C   0  0  0  0  0  0  0  0  0  0  0  0
  152.4022  139.7331  156.9504 O   0  0  0  0  0  0  0  0  0  0  0  0
  151.9455  139.9874  158.2722 C   0  0  0  0  0  0  0  0  0  0  0  0
  152.1212  141.4463  158.6433 C   0  0  0  0  0  0  0  0  0  0  0  0
  152.7374  141.7906  159.8646 C   0  0  0  0  0  0  0  0  0  0  0  0
  152.8991  143.1441  160.2194 C   0  0  0  0  0  0  0  0  0  0  0  0
  152.4438  144.1582  159.3545 C   0  0  0  0  0  0  0  0  0  0  0  0
  151.8266  143.8181  158.1351 C   0  0  0  0  0  0  0  0  0  0  0  0
  151.6641  142.4647  157.7801 C   0  0  0  0  0  0  0  0  0  0  0  0
  151.7340  138.6780  154.8174 C   0  0  0  0  0  0  0  0  0  0  0  0
  150.7166  138.4265  153.8765 C   0  0  0  0  0  0  0  0  0  0  0  0
  145.5714  139.2159  152.1028 H   0  0  0  0  0  0  0  0  0  0  0  0
  146.7429  138.1948  151.3685 H   0  0  0  0  0  0  0  0  0  0  0  0
  142.8534  134.1196  152.7928 H   0  0  0  0  0  0  0  0  0  0  0  0
  144.5207  134.1662  149.6656 H   0  0  0  0  0  0  0  0  0  0  0  0
  142.6276  133.0161  151.4017 H   0  0  0  0  0  0  0  0  0  0  0  0
  143.2399  132.2962  149.9143 H   0  0  0  0  0  0  0  0  0  0  0  0
  144.3197  131.8128  152.7103 H   0  0  0  0  0  0  0  0  0  0  0  0
  143.9496  130.6085  151.4730 H   0  0  0  0  0  0  0  0  0  0  0  0
  146.5046  131.4237  151.7137 H   0  0  0  0  0  0  0  0  0  0  0  0
  145.8132  131.3786  150.0864 H   0  0  0  0  0  0  0  0  0  0  0  0
  148.5776  138.6747  152.2051 H   0  0  0  0  0  0  0  0  0  0  0  0
  148.1530  140.0790  155.4165 H   0  0  0  0  0  0  0  0  0  0  0  0
  149.9410  140.5208  157.0613 H   0  0  0  0  0  0  0  0  0  0  0  0
  150.8929  139.7139  158.3638 H   0  0  0  0  0  0  0  0  0  0  0  0
  152.5096  139.3864  158.9870 H   0  0  0  0  0  0  0  0  0  0  0  0
  153.0876  141.0160  160.5312 H   0  0  0  0  0  0  0  0  0  0  0  0
  153.3722  143.4043  161.1548 H   0  0  0  0  0  0  0  0  0  0  0  0
  152.5678  145.1960  159.6266 H   0  0  0  0  0  0  0  0  0  0  0  0
  151.4777  144.5955  157.4715 H   0  0  0  0  0  0  0  0  0  0  0  0
  151.1892  142.2133  156.8430 H   0  0  0  0  0  0  0  0  0  0  0  0
  152.7128  138.2663  154.6249 H   0  0  0  0  0  0  0  0  0  0  0  0
  150.9554  137.8199  153.0166 H   0  0  0  0  0  0  0  0  0  0  0  0
  1  2  2  0  0  0  0
  2  3  1  0  0  0  0
  2 18  1  0  0  0  0
  3  4  1  0  0  0  0
  3 33  1  0  0  0  0
  3 34  1  0  0  0  0
  4 16  1  0  0  0  0
  4  5  1  0  0  0  0
  5  6  2  0  0  0  0
  5  7  1  0  0  0  0
  7  8  1  0  0  0  0
  7  9  2  0  0  0  0
  9 10  1  0  0  0  0
  9 35  1  0  0  0  0
 10 11  1  0  0  0  0
 10 16  1  0  0  0  0
 11 15  1  0  0  0  0
 11 12  1  0  0  0  0
 11 36  1  0  0  0  0
 12 13  1  0  0  0  0
 12 37  1  0  0  0  0
 12 38  1  0  0  0  0
 13 14  1  0  0  0  0
 13 39  1  0  0  0  0
 13 40  1  0  0  0  0
 14 15  1  0  0  0  0
 14 41  1  0  0  0  0
 14 42  1  0  0  0  0
 16 17  2  0  0  0  0
 18 19  1  0  0  0  0
 18 43  1  0  0  0  0
 19 32  1  0  0  0  0
 19 20  2  0  0  0  0
 20 21  1  0  0  0  0
 20 44  1  0  0  0  0
 21 22  2  0  0  0  0
 21 45  1  0  0  0  0
 22 23  1  0  0  0  0
 22 31  1  0  0  0  0
 23 24  1  0  0  0  0
 24 25  1  0  0  0  0
 24 46  1  0  0  0  0
 24 47  1  0  0  0  0
 25 30  1  0  0  0  0
 25 26  2  0  0  0  0
 26 27  1  0  0  0  0
 26 48  1  0  0  0  0
 27 28  2  0  0  0  0
 27 49  1  0  0  0  0
 28 29  1  0  0  0  0
 28 50  1  0  0  0  0
 29 30  2  0  0  0  0
 29 51  1  0  0  0  0
 30 52  1  0  0  0  0
 31 32  2  0  0  0  0
 31 53  1  0  0  0  0
 32 54  1  0  0  0  0
M  END
> <s_m_source_file>
AV-unprocessed.smi

> <i_m_source_file_index>
30

> <i_lp_mmshare_version>
43012

> <i_f3d_flags>
0

> <s_epik_input>
TzFbQ0gyXVtDSDJdW0NIMl1bQ0BIXTFuKGMyPU8pW2NIXWMoRiljKD1PKW4yW0NIMl1DKD1PKVtOSF1jM1tjSF1bY0hdYyhbY0hdW2NIXTMpT1tDSDJdYzRbY0hdW2NIXVtjSF1bY0hdW2NIXTQ=

> <s_epik_cmdline>
J2VwaWtfcHl0aG9uJywgJy1waCcsICc3LjAnLCAnLXRuJywgJzgnLCAnLW1hJywgJzIwMCcsICctbWV0YWxfYmluZGluZycsICctaW1hZScsICc8aW5maWxlLm1hZT4nLCAnLW9tYWUnLCAnPG91dGZpbGUubWFlPic=

> <r_lp_tautomer_probability>
1

> <r_epik_Ionization_Penalty>
1.04818e-05

> <r_epik_Ionization_Penalty_Charging>
3.88729e-08

> <r_epik_Ionization_Penalty_Neutral>
1.04429e-05

> <r_epik_State_Penalty>
-0

> <r_epik_Charging_Adjusted_Penalty>
3.88729e-08

> <i_epik_Tot_Q>
0

> <i_epik_Tot_abs_Q>
0

> <r_epik_Metal_State_Penalty>
-0

> <b_epik_Metal_Only>
0

> <s_epik_Chemistry_Notes>
This compound contains an acetal/aminal-like group ( X-CH(R)-Y where X, Y are N, S, or O) that may be acid/base labile, releasing an aldehyde.

> <s_lp_Force_Field>
OPLS_2005

> <r_lp_Energy>
43.3432

> <b_lp_Chiralities_Consistent>
1

> <s_lp_Variant>
AV-unprocessed.smi:30-1

> <Gold.Version>
5.8.1

> <Gold.Id.Protein>
6NUR|6NUR_protein|mol2

> <Gold.PLP.Fitness>
61.0883

> <Gold.PLP.PLP>
-58.5399

> <Gold.PLP.part.hbond>
-3.0000

> <Gold.PLP.part.metal>
0.0000

> <Gold.PLP.part.buried>
-6.0756

> <Gold.PLP.part.nonpolar>
-52.9935

> <Gold.PLP.part.repulsive>
2.6426

> <Gold.PLP.ligand.clash>
0.0085

> <Gold.PLP.ligand.torsion>
1.4258

> <Gold.PLP.Chemscore.Hbond>
1.6720

> <Gold.PLP.Chemscore.CHOScore>
0.0000

> <Gold.PLP.Chemscore.Metal>
0.0000

> <Gold.Chemscore.Hbonds>
donor molecule, donor type, donor heavy atom, donor atom, acceptor molecule, acceptor atom, score
      L1  H    18    43       P1  7957  0.58
      P1  H  7997  8010       L1    23  1.00

> <Gold.PLP.Chemscore.Internal.Correction>
0.3926

> <Gold.Rescore>
     Score         DG    S(hbond)    S(metal)    S(lipo)     H(rot)  DE(clash)    DE(int)     intcor
     15.99     -25.26       2.25        0.00     152.77       2.20       3.49       5.78       ----

> <Gold.Chemscore.Fitness>
15.9930

> <Gold.Chemscore.DG>
-25.2641

> <Gold.Chemscore.ZeroCoef>
-5.4800

> <Gold.Chemscore.Hbond>
2.2542

> <Gold.Chemscore.Metal>
0.0000

> <Gold.Chemscore.Lipo>
152.7742

> <Gold.Chemscore.Internal_Hbond>
0.0000

> <Gold.Chemscore.DEClash>
3.4910

> <Gold.Chemscore.DEInternal>
5.7801

> <Gold.Chemscore.Rot>
2.1952

> <Gold.Chemscore.Internal.Correction>
   9.000000E+99

> <Gold.Chemscore.Hbonds>
donor molecule, donor type, donor heavy atom, donor atom, acceptor molecule, acceptor atom, score
      L1  H    18    43       P1  7957  0.50
      P1  H  7997  8010       L1    23  0.88

> <Gold.Chemscore.Hbond.Weighted>
-7.5291

> <Gold.Chemscore.Metal.Weighted>
-0.0000

> <Gold.Chemscore.Lipo.Weighted>
-17.8746

> <Gold.Chemscore.Internal_Hbond.Weighted>
0.0000

> <Gold.Chemscore.DEClash.Weighted>
3.4910

> <Gold.Chemscore.DEInternal.Weighted>
5.7801

> <Gold.Chemscore.Rot.Weighted>
5.6196

> <Gold.Chemscore.Internal.Correction.Weighted>
   9.000000E+99

> <Gold.Protein.RotatedTorsions>
[ 6907 6896 6895 6894 ] final  -49.11 input  -60.11 | X-H torsion
[ 7974 7965 7964 7962 ] final  -34.68 input  175.53 | X-H torsion
[ 8008 7997 7996 7995 ] final   65.49 input   59.86 | X-H torsion
[ 10167 10162 10161 10158 ] final  -38.10 input  -65.29 | X-H torsion
[ 10718 10713 10712 10709 ] final   21.90 input   66.30 | X-H torsion
[ 10763 10752 10751 10750 ] final   59.52 input  -60.55 | X-H torsion
[ 11005 11000 10999 10996 ] final -161.73 input  -57.11 | X-H torsion

> <Gold.Protein.ActiveResidues>
 VAL166  LYS551  ARG553  GLY616  TRP617  ASP618  TYR619  PRO620  LYS621  CYS622 
 ASP623  PHE694  ASN695  SER759  ASP760  ASP761  ALA762  ILE779  LEU786  VAL792 
 PHE793  MET794  SER795  GLU796  ALA797  LYS798  CYS799  TRP800  GLU811  SER814 

> <Gold.Protein.RotatedAtoms>
  150.8838  134.8233  159.7244 H   0  0  0  0  0  0  0  0  0  0  0  0  # atno 6907 bound_to 6896
  152.4795  134.4754  159.9658 H   0  0  0  0  0  0  0  0  0  0  0  0  # atno 6908 bound_to 6896
  151.4826  133.3504  159.2876 H   0  0  0  0  0  0  0  0  0  0  0  0  # atno 6909 bound_to 6896
  146.0809  140.6068  142.8908 H   0  0  0  0  0  0  0  0  0  0  0  0  # atno 7974 bound_to 7965
  155.6625  140.3497  155.4788 H   0  0  0  0  0  0  0  0  0  0  0  0  # atno 8008 bound_to 7997
  155.9756  140.1164  157.0796 H   0  0  0  0  0  0  0  0  0  0  0  0  # atno 8009 bound_to 7997
  154.4178  140.1148  156.5352 H   0  0  0  0  0  0  0  0  0  0  0  0  # atno 8010 bound_to 7997
  140.7101  143.3299  151.2593 H   0  0  0  0  0  0  0  0  0  0  0  0  # atno 10167 bound_to 10162
  157.1449  130.6649  149.5993 H   0  0  0  0  0  0  0  0  0  0  0  0  # atno 10718 bound_to 10713
  152.9896  135.5569  154.5726 H   0  0  0  0  0  0  0  0  0  0  0  0  # atno 10763 bound_to 10752
  154.5123  135.2803  155.1334 H   0  0  0  0  0  0  0  0  0  0  0  0  # atno 10764 bound_to 10752
  154.2721  135.6361  153.5367 H   0  0  0  0  0  0  0  0  0  0  0  0  # atno 10765 bound_to 10752
  140.6172  134.4788  157.5220 H   0  0  0  0  0  0  0  0  0  0  0  0  # atno 11005 bound_to 11000
  144.7293  140.4622  143.6950 LP  0  0  0  0  0  0  0  0  0  0  0  0  # atno 17320 bound_to 7965
  145.6219  139.1525  143.3018 LP  0  0  0  0  0  0  0  0  0  0  0  0  # atno 17321 bound_to 7965
  139.6778  143.9907  152.2791 LP  0  0  0  0  0  0  0  0  0  0  0  0  # atno 17342 bound_to 10162
  139.9527  144.6610  150.8156 LP  0  0  0  0  0  0  0  0  0  0  0  0  # atno 17343 bound_to 10162
  155.9781  130.4765  150.6637 LP  0  0  0  0  0  0  0  0  0  0  0  0  # atno 17370 bound_to 10713
  157.4274  131.0845  151.1072 LP  0  0  0  0  0  0  0  0  0  0  0  0  # atno 17371 bound_to 10713
  139.9168  134.8230  156.1340 LP  0  0  0  0  0  0  0  0  0  0  0  0  # atno 17394 bound_to 11000
  141.0768  133.6772  156.2252 LP  0  0  0  0  0  0  0  0  0  0  0  0  # atno 17395 bound_to 11000

$$$$
