AV-unprocessed.smi:3185|AV-procd|sdf|12172|dock4
  -GOLD-   2272018 13D 1   1.00000     0.00000
 Structure written by MMmdl.
 37 38  0  0  0  0  0  0  0  0  1 V2000
  154.0229  135.5265  160.5623 N   0  0  0  0  0  0  0  0  0  0  0  0
  153.8767  136.6340  160.8633 C   0  0  0  0  0  0  0  0  0  0  0  0
  153.6915  138.0418  161.2455 C   0  0  0  0  0  0  0  0  0  0  0  0
  153.7641  138.9912  160.0427 C   0  0  0  0  0  0  0  0  0  0  0  0
  152.6167  138.7860  159.0449 C   0  0  0  0  0  0  0  0  0  0  0  0
  152.7257  139.7582  157.9671 N   0  0  0  0  0  0  0  0  0  0  0  0
  152.1105  141.0363  158.3147 C   0  0  1  0  0  0  0  0  0  0  0  0
  153.0042  141.8054  159.3147 C   0  0  0  0  0  0  0  0  0  0  0  0
  152.4463  143.2054  159.6138 C   0  0  0  0  0  0  0  0  0  0  0  0
  152.2552  144.0162  158.3248 C   0  0  0  0  0  0  0  0  0  0  0  0
  151.3519  143.2670  157.3352 C   0  0  0  0  0  0  0  0  0  0  0  0
  151.9049  141.8621  157.0174 C   0  0  2  0  0  0  0  0  0  0  0  0
  151.0483  141.1767  156.0564 N   0  0  0  0  0  0  0  0  0  0  0  0
  149.8570  141.6159  155.5166 C   0  0  0  0  0  0  0  0  0  0  0  0
  149.4123  140.6473  154.6632 C   0  0  0  0  0  0  0  0  0  0  0  0
  150.4101  139.6372  154.7499 C   0  0  0  0  0  0  0  0  0  0  0  0
  151.3873  139.9560  155.5827 N   0  0  0  0  0  0  0  0  0  0  0  0
  152.7263  138.1294  161.7449 H   0  0  0  0  0  0  0  0  0  0  0  0
  154.4599  138.2881  161.9785 H   0  0  0  0  0  0  0  0  0  0  0  0
  153.7825  140.0273  160.3838 H   0  0  0  0  0  0  0  0  0  0  0  0
  154.7101  138.8266  159.5262 H   0  0  0  0  0  0  0  0  0  0  0  0
  152.6815  137.7803  158.6277 H   0  0  0  0  0  0  0  0  0  0  0  0
  151.6560  138.8678  159.5527 H   0  0  0  0  0  0  0  0  0  0  0  0
  152.2519  139.3871  157.1556 H   0  0  0  0  0  0  0  0  0  0  0  0
  151.1342  140.8559  158.7678 H   0  0  0  0  0  0  0  0  0  0  0  0
  153.0956  141.2587  160.2527 H   0  0  0  0  0  0  0  0  0  0  0  0
  154.0141  141.8995  158.9128 H   0  0  0  0  0  0  0  0  0  0  0  0
  151.4920  143.1143  160.1339 H   0  0  0  0  0  0  0  0  0  0  0  0
  153.1172  143.7360  160.2900 H   0  0  0  0  0  0  0  0  0  0  0  0
  151.8226  144.9895  158.5588 H   0  0  0  0  0  0  0  0  0  0  0  0
  153.2249  144.2098  157.8643 H   0  0  0  0  0  0  0  0  0  0  0  0
  150.3488  143.1889  157.7568 H   0  0  0  0  0  0  0  0  0  0  0  0
  151.2561  143.8465  156.4164 H   0  0  0  0  0  0  0  0  0  0  0  0
  152.8781  141.9933  156.5401 H   0  0  0  0  0  0  0  0  0  0  0  0
  149.4298  142.5724  155.7800 H   0  0  0  0  0  0  0  0  0  0  0  0
  148.5110  140.6586  154.0683 H   0  0  0  0  0  0  0  0  0  0  0  0
  150.4536  138.6886  154.2355 H   0  0  0  0  0  0  0  0  0  0  0  0
  1  2  3  0  0  0  0
  2  3  1  0  0  0  0
  3  4  1  0  0  0  0
  3 18  1  0  0  0  0
  3 19  1  0  0  0  0
  4  5  1  0  0  0  0
  4 20  1  0  0  0  0
  4 21  1  0  0  0  0
  5  6  1  0  0  0  0
  5 22  1  0  0  0  0
  5 23  1  0  0  0  0
  6  7  1  0  0  0  0
  6 24  1  0  0  0  0
  7 12  1  0  0  0  0
  7  8  1  0  0  0  0
  7 25  1  0  0  0  0
  8  9  1  0  0  0  0
  8 26  1  0  0  0  0
  8 27  1  0  0  0  0
  9 10  1  0  0  0  0
  9 28  1  0  0  0  0
  9 29  1  0  0  0  0
 10 11  1  0  0  0  0
 10 30  1  0  0  0  0
 10 31  1  0  0  0  0
 11 12  1  0  0  0  0
 11 32  1  0  0  0  0
 11 33  1  0  0  0  0
 12 13  1  0  0  0  0
 12 34  1  0  0  0  0
 13 17  1  0  0  0  0
 13 14  1  0  0  0  0
 14 15  2  0  0  0  0
 14 35  1  0  0  0  0
 15 16  1  0  0  0  0
 15 36  1  0  0  0  0
 16 17  2  0  0  0  0
 16 37  1  0  0  0  0
M  END
> <s_m_source_file>
AV-unprocessed.smi

> <i_m_source_file_index>
3185

> <i_lp_mmshare_version>
43012

> <i_f3d_flags>
0

> <s_epik_input>
TiNDW0NIMl1bQ0gyXVtDSDJdW05IXVtDQEBIXTFbQ0gyXVtDSDJdW0NIMl1bQ0gyXVtDQEhdMW4yW2NIXVtjSF1bY0hdbjI=

> <s_epik_cmdline>
J2VwaWtfcHl0aG9uJywgJy1waCcsICc3LjAnLCAnLXRuJywgJzgnLCAnLW1hJywgJzIwMCcsICctbWV0YWxfYmluZGluZycsICctaW1hZScsICc8aW5maWxlLm1hZT4nLCAnLW9tYWUnLCAnPG91dGZpbGUubWFlPic=

> <r_lp_tautomer_probability>
1

> <r_epik_Ionization_Penalty>
2.21326

> <r_epik_Ionization_Penalty_Charging>
0

> <r_epik_Ionization_Penalty_Neutral>
2.21326

> <r_epik_State_Penalty>
2.35651

> <r_epik_Charging_Adjusted_Penalty>
2.35651

> <i_epik_Tot_Q>
0

> <i_epik_Tot_abs_Q>
0

> <r_epik_Metal_State_Penalty>
2.3555

> <b_epik_Metal_Only>
0

> <s_lp_Force_Field>
OPLS_2005

> <r_lp_Energy>
16.6477

> <b_lp_Chiralities_Consistent>
1

> <s_lp_Variant>
AV-unprocessed.smi:3185-8

> <Gold.Version>
5.8.1

> <Gold.Id.Protein>
6NUR|6NUR_protein|mol2

> <Gold.PLP.Fitness>
43.0104

> <Gold.PLP.PLP>
-34.5329

> <Gold.PLP.part.hbond>
-2.5817

> <Gold.PLP.part.metal>
0.0000

> <Gold.PLP.part.buried>
-3.0721

> <Gold.PLP.part.nonpolar>
-28.1887

> <Gold.PLP.part.repulsive>
0.0132

> <Gold.PLP.ligand.clash>
0.0000

> <Gold.PLP.ligand.torsion>
0.2713

> <Gold.PLP.Chemscore.Hbond>
1.9913

> <Gold.PLP.Chemscore.CHOScore>
1.0000

> <Gold.PLP.Chemscore.Metal>
0.0000

> <Gold.Chemscore.Hbonds>
donor molecule, donor type, donor heavy atom, donor atom, acceptor molecule, acceptor atom, score
      P1  H  6896  6909       L1     1  1.00
      P1  H  7997  8009       L1     6  0.65
      L1  C    14    35       P1  8028  1.00

> <Gold.PLP.Chemscore.Internal.Correction>
0.0463

> <Gold.Rescore>
     Score         DG    S(hbond)    S(metal)    S(lipo)     H(rot)  DE(clash)    DE(int)     intcor
     13.17     -16.85       1.23        0.00     101.59       1.81       1.82       1.86       ----

> <Gold.Chemscore.Fitness>
13.1698

> <Gold.Chemscore.DG>
-16.8500

> <Gold.Chemscore.ZeroCoef>
-5.4800

> <Gold.Chemscore.Hbond>
1.2335

> <Gold.Chemscore.Metal>
0.0000

> <Gold.Chemscore.Lipo>
101.5910

> <Gold.Chemscore.Internal_Hbond>
0.0000

> <Gold.Chemscore.DEClash>
1.8189

> <Gold.Chemscore.DEInternal>
1.8614

> <Gold.Chemscore.Rot>
1.8110

> <Gold.Chemscore.Internal.Correction>
   9.000000E+99

> <Gold.Chemscore.Hbonds>
donor molecule, donor type, donor heavy atom, donor atom, acceptor molecule, acceptor atom, score
      P1  H  6896  6909       L1     1  0.78
      P1  H  7997  8009       L1     6  0.08

> <Gold.Chemscore.Hbond.Weighted>
-4.1201

> <Gold.Chemscore.Metal.Weighted>
-0.0000

> <Gold.Chemscore.Lipo.Weighted>
-11.8862

> <Gold.Chemscore.Internal_Hbond.Weighted>
0.0000

> <Gold.Chemscore.DEClash.Weighted>
1.8189

> <Gold.Chemscore.DEInternal.Weighted>
1.8614

> <Gold.Chemscore.Rot.Weighted>
4.6362

> <Gold.Chemscore.Internal.Correction.Weighted>
   9.000000E+99

> <Gold.Protein.RotatedTorsions>
[ 6907 6896 6895 6894 ] final  173.99 input  -60.11 | X-H torsion
[ 7974 7965 7964 7962 ] final   81.97 input  175.53 | X-H torsion
[ 8008 7997 7996 7995 ] final  150.39 input   59.86 | X-H torsion
[ 10167 10162 10161 10158 ] final   77.89 input  -65.29 | X-H torsion
[ 10718 10713 10712 10709 ] final -146.39 input   66.30 | X-H torsion
[ 10763 10752 10751 10750 ] final   64.08 input  -60.55 | X-H torsion
[ 11005 11000 10999 10996 ] final  -94.73 input  -57.11 | X-H torsion

> <Gold.Protein.ActiveResidues>
 VAL166  LYS551  ARG553  GLY616  TRP617  ASP618  TYR619  PRO620  LYS621  CYS622 
 ASP623  PHE694  ASN695  SER759  ASP760  ASP761  ALA762  ILE779  LEU786  VAL792 
 PHE793  MET794  SER795  GLU796  ALA797  LYS798  CYS799  TRP800  GLU811  SER814 

> <Gold.Protein.RotatedAtoms>
  151.7595  133.3332  159.3413 H   0  0  0  0  0  0  0  0  0  0  0  0  # atno 6907 bound_to 6896
  150.7503  134.6119  159.6100 H   0  0  0  0  0  0  0  0  0  0  0  0  # atno 6908 bound_to 6896
  152.3415  134.7130  160.0314 H   0  0  0  0  0  0  0  0  0  0  0  0  # atno 6909 bound_to 6896
  145.6312  139.2405  143.2083 H   0  0  0  0  0  0  0  0  0  0  0  0  # atno 7974 bound_to 7965
  156.2717  140.2076  156.6010 H   0  0  0  0  0  0  0  0  0  0  0  0  # atno 8008 bound_to 7997
  154.6907  140.0530  157.0384 H   0  0  0  0  0  0  0  0  0  0  0  0  # atno 8009 bound_to 7997
  155.0871  140.3192  155.4587 H   0  0  0  0  0  0  0  0  0  0  0  0  # atno 8010 bound_to 7997
  139.9767  144.5856  150.7937 H   0  0  0  0  0  0  0  0  0  0  0  0  # atno 10167 bound_to 10162
  156.3943  130.7901  151.2106 H   0  0  0  0  0  0  0  0  0  0  0  0  # atno 10718 bound_to 10713
  153.0042  135.5406  154.6453 H   0  0  0  0  0  0  0  0  0  0  0  0  # atno 10763 bound_to 10752
  154.5699  135.2841  155.0840 H   0  0  0  0  0  0  0  0  0  0  0  0  # atno 10764 bound_to 10752
  154.2010  135.6484  153.5139 H   0  0  0  0  0  0  0  0  0  0  0  0  # atno 10765 bound_to 10752
  141.1462  133.7977  157.0338 H   0  0  0  0  0  0  0  0  0  0  0  0  # atno 11005 bound_to 11000
  146.1355  140.7129  142.9392 LP  0  0  0  0  0  0  0  0  0  0  0  0  # atno 17320 bound_to 7965
  144.7193  140.4317  143.7020 LP  0  0  0  0  0  0  0  0  0  0  0  0  # atno 17321 bound_to 7965
  140.7503  143.2953  151.3220 LP  0  0  0  0  0  0  0  0  0  0  0  0  # atno 17342 bound_to 10162
  139.6440  144.0486  152.2576 LP  0  0  0  0  0  0  0  0  0  0  0  0  # atno 17343 bound_to 10162
  157.7501  131.0306  150.4145 LP  0  0  0  0  0  0  0  0  0  0  0  0  # atno 17370 bound_to 10713
  156.4412  130.3992  149.6696 LP  0  0  0  0  0  0  0  0  0  0  0  0  # atno 17371 bound_to 10713
  140.0736  134.9688  157.1509 LP  0  0  0  0  0  0  0  0  0  0  0  0  # atno 17394 bound_to 11000
  140.3675  134.2427  155.7181 LP  0  0  0  0  0  0  0  0  0  0  0  0  # atno 17395 bound_to 11000

$$$$
