AV-unprocessed.smi:2928|AV-procd|sdf|11231|dock5
  -GOLD-   2272016123D 1   1.00000     0.00000
 Structure written by MMmdl.
 55 58  0  0  0  0  0  0  0  0  2 V2000
  150.0321  140.2557  157.0199 C   0  0  0  0  0  0  0  0  0  0  0  0
  150.3428  138.8981  156.5120 N   0  3  2  0  0  0  0  0  0  0  0  0
  150.6006  138.8225  155.0542 C   0  0  2  0  0  0  0  0  0  0  0  0
  149.3047  139.0595  154.2370 C   0  0  0  0  0  0  0  0  0  0  0  0
  148.1089  138.1924  154.6740 C   0  0  0  0  0  0  0  0  0  0  0  0
  148.0113  138.0346  156.2022 C   0  0  0  0  0  0  0  0  0  0  0  0
  149.3758  137.8484  156.9121 C   0  0  1  0  0  0  0  0  0  0  0  0
  150.0317  136.4602  156.7275 C   0  0  0  0  0  0  0  0  0  0  0  0
  150.7383  136.2233  155.3639 C   0  0  1  0  0  0  0  0  0  0  0  0
  149.9011  135.5140  154.4015 N   0  0  0  0  0  0  0  0  0  0  0  0
  149.5735  134.2153  154.4454 C   0  0  0  0  0  0  0  0  0  0  0  0
  149.9816  133.4363  155.3063 O   0  0  0  0  0  0  0  0  0  0  0  0
  148.7298  133.9042  153.4491 N   0  0  0  0  0  0  0  0  0  0  0  0
  148.0559  132.6735  153.2179 C   0  0  0  0  0  0  0  0  0  0  0  0
  148.4941  131.4436  153.7648 C   0  0  0  0  0  0  0  0  0  0  0  0
  147.7797  130.2695  153.4649 C   0  0  0  0  0  0  0  0  0  0  0  0
  146.6569  130.3656  152.6232 C   0  0  0  0  0  0  0  0  0  0  0  0
  146.2360  131.5273  152.0824 N   0  0  0  0  0  0  0  0  0  0  0  0
  146.9218  132.6611  152.3666 C   0  0  0  0  0  0  0  0  0  0  0  0
  146.4665  133.8630  151.7953 N   0  0  0  0  0  0  0  0  0  0  0  0
  145.4390  133.7274  150.7772 C   0  0  0  0  0  0  0  0  0  0  0  0
  144.8682  135.1353  150.5889 C   0  0  0  0  0  0  0  0  0  0  0  0
  145.2189  135.8800  151.8835 C   0  0  0  0  0  0  0  0  0  0  0  0
  145.9726  134.8552  152.7351 C   0  0  0  0  0  0  0  0  0  0  0  0
  151.3493  137.5049  154.7428 C   0  0  0  0  0  0  0  0  0  0  0  0
  149.1041  140.6503  156.6077 H   0  0  0  0  0  0  0  0  0  0  0  0
  150.8349  140.9486  156.7674 H   0  0  0  0  0  0  0  0  0  0  0  0
  149.9395  140.2425  158.1061 H   0  0  0  0  0  0  0  0  0  0  0  0
  151.2886  139.6294  154.7970 H   0  0  0  0  0  0  0  0  0  0  0  0
  149.0189  140.1072  154.3347 H   0  0  0  0  0  0  0  0  0  0  0  0
  149.4977  138.9128  153.1738 H   0  0  0  0  0  0  0  0  0  0  0  0
  147.1857  138.6336  154.2971 H   0  0  0  0  0  0  0  0  0  0  0  0
  148.1497  137.2195  154.1963 H   0  0  0  0  0  0  0  0  0  0  0  0
  147.5262  138.9231  156.6072 H   0  0  0  0  0  0  0  0  0  0  0  0
  147.3446  137.2067  156.4458 H   0  0  0  0  0  0  0  0  0  0  0  0
  149.1933  137.9571  157.9823 H   0  0  0  0  0  0  0  0  0  0  0  0
  150.7956  136.3659  157.5008 H   0  0  0  0  0  0  0  0  0  0  0  0
  149.3130  135.6703  156.9486 H   0  0  0  0  0  0  0  0  0  0  0  0
  151.5756  135.5479  155.5514 H   0  0  0  0  0  0  0  0  0  0  0  0
  149.5137  136.0658  153.6499 H   0  0  0  0  0  0  0  0  0  0  0  0
  148.4286  134.6721  152.8667 H   0  0  0  0  0  0  0  0  0  0  0  0
  149.3693  131.3794  154.3933 H   0  0  0  0  0  0  0  0  0  0  0  0
  148.0886  129.3162  153.8676 H   0  0  0  0  0  0  0  0  0  0  0  0
  146.0848  129.4848  152.3717 H   0  0  0  0  0  0  0  0  0  0  0  0
  145.8551  133.3349  149.8488 H   0  0  0  0  0  0  0  0  0  0  0  0
  144.6555  133.0457  151.1113 H   0  0  0  0  0  0  0  0  0  0  0  0
  145.3433  135.6263  149.7388 H   0  0  0  0  0  0  0  0  0  0  0  0
  143.7945  135.1109  150.4010 H   0  0  0  0  0  0  0  0  0  0  0  0
  145.8613  136.7323  151.6591 H   0  0  0  0  0  0  0  0  0  0  0  0
  144.3350  136.2565  152.3988 H   0  0  0  0  0  0  0  0  0  0  0  0
  145.2946  134.3961  153.4560 H   0  0  0  0  0  0  0  0  0  0  0  0
  146.7918  135.3159  153.2879 H   0  0  0  0  0  0  0  0  0  0  0  0
  151.4899  137.3884  153.6671 H   0  0  0  0  0  0  0  0  0  0  0  0
  152.3568  137.6087  155.1489 H   0  0  0  0  0  0  0  0  0  0  0  0
  151.2150  138.6517  156.9580 H   0  0  0  0  0  0  0  0  0  0  0  0
  1  2  1  0  0  0  0
  1 26  1  0  0  0  0
  1 27  1  0  0  0  0
  1 28  1  0  0  0  0
  2  7  1  0  0  0  0
  2  3  1  0  0  0  0
  2 55  1  0  0  0  0
  3 25  1  0  0  0  0
  3  4  1  0  0  0  0
  3 29  1  0  0  0  0
  4  5  1  0  0  0  0
  4 30  1  0  0  0  0
  4 31  1  0  0  0  0
  5  6  1  0  0  0  0
  5 32  1  0  0  0  0
  5 33  1  0  0  0  0
  6  7  1  0  0  0  0
  6 34  1  0  0  0  0
  6 35  1  0  0  0  0
  7  8  1  0  0  0  0
  7 36  1  0  0  0  0
  8  9  1  0  0  0  0
  8 37  1  0  0  0  0
  8 38  1  0  0  0  0
  9 10  1  0  0  0  0
  9 25  1  0  0  0  0
  9 39  1  0  0  0  0
 10 11  1  0  0  0  0
 10 40  1  0  0  0  0
 11 12  2  0  0  0  0
 11 13  1  0  0  0  0
 13 14  1  0  0  0  0
 13 41  1  0  0  0  0
 14 19  1  0  0  0  0
 14 15  2  0  0  0  0
 15 16  1  0  0  0  0
 15 42  1  0  0  0  0
 16 17  2  0  0  0  0
 16 43  1  0  0  0  0
 17 18  1  0  0  0  0
 17 44  1  0  0  0  0
 18 19  2  0  0  0  0
 19 20  1  0  0  0  0
 20 24  1  0  0  0  0
 20 21  1  0  0  0  0
 21 22  1  0  0  0  0
 21 45  1  0  0  0  0
 21 46  1  0  0  0  0
 22 23  1  0  0  0  0
 22 47  1  0  0  0  0
 22 48  1  0  0  0  0
 23 24  1  0  0  0  0
 23 49  1  0  0  0  0
 23 50  1  0  0  0  0
 24 51  1  0  0  0  0
 24 52  1  0  0  0  0
 25 53  1  0  0  0  0
 25 54  1  0  0  0  0
M  CHG  1   2   1
M  END
> <s_m_source_file>
AV-unprocessed.smi

> <i_m_source_file_index>
2928

> <i_lp_mmshare_version>
43012

> <i_f3d_flags>
0

> <s_epik_input>
W0NIMl0xW0NIMl1bQ0gyXVtDQEhdKE4oW0NIM10pW0NIXTEyKVtDSDJdW0NASF0oW0NIMl0yKVtOSF1DKD1PKVtOSF1jM1tjSF1bY0hdW2NIXW5jM040W0NIMl1bQ0gyXVtDSDJdW0NIMl00

> <s_epik_cmdline>
J2VwaWtfcHl0aG9uJywgJy1waCcsICc3LjAnLCAnLXRuJywgJzgnLCAnLW1hJywgJzIwMCcsICctbWV0YWxfYmluZGluZycsICctaW1hZScsICc8aW5maWxlLm1hZT4nLCAnLW9tYWUnLCAnPG91dGZpbGUubWFlPic=

> <r_lp_tautomer_probability>
1

> <r_epik_Ionization_Penalty>
0.07954

> <r_epik_Ionization_Penalty_Charging>
0.00089841

> <r_epik_Ionization_Penalty_Neutral>
0.0786416

> <r_epik_State_Penalty>
0.0689917

> <r_epik_Charging_Adjusted_Penalty>
0.0698901

> <i_epik_Tot_Q>
1

> <i_epik_Tot_abs_Q>
1

> <r_epik_Metal_State_Penalty>
0.0608947

> <b_epik_Metal_Only>
0

> <s_lp_Force_Field>
OPLS_2005

> <r_lp_Energy>
66.344

> <b_lp_Chiralities_Consistent>
1

> <s_lp_Variant>
AV-unprocessed.smi:2928-1

> <Gold.Version>
5.8.1

> <Gold.Id.Protein>
6NUR|6NUR_protein|mol2

> <Gold.PLP.Fitness>
39.9215

> <Gold.PLP.PLP>
-34.9228

> <Gold.PLP.part.hbond>
-2.5726

> <Gold.PLP.part.metal>
0.0000

> <Gold.PLP.part.buried>
-3.4485

> <Gold.PLP.part.nonpolar>
-29.8090

> <Gold.PLP.part.repulsive>
0.4109

> <Gold.PLP.ligand.clash>
0.0000

> <Gold.PLP.ligand.torsion>
0.4293

> <Gold.PLP.Chemscore.Hbond>
1.9280

> <Gold.PLP.Chemscore.CHOScore>
0.0000

> <Gold.PLP.Chemscore.Metal>
0.0000

> <Gold.Chemscore.Hbonds>
donor molecule, donor type, donor heavy atom, donor atom, acceptor molecule, acceptor atom, score
      L1  H    10    40       P1  7948  0.99
      L1  H    13    41       P1  7948  0.91

> <Gold.PLP.Chemscore.Internal.Correction>
0.0734

> <Gold.Rescore>
     Score         DG    S(hbond)    S(metal)    S(lipo)     H(rot)  DE(clash)    DE(int)     intcor
     13.89     -15.96       1.24        0.00      80.01       1.18       0.24       1.84       ----

> <Gold.Chemscore.Fitness>
13.8853

> <Gold.Chemscore.DG>
-15.9634

> <Gold.Chemscore.ZeroCoef>
-5.4800

> <Gold.Chemscore.Hbond>
1.2386

> <Gold.Chemscore.Metal>
0.0000

> <Gold.Chemscore.Lipo>
80.0102

> <Gold.Chemscore.Internal_Hbond>
0.0000

> <Gold.Chemscore.DEClash>
0.2356

> <Gold.Chemscore.DEInternal>
1.8424

> <Gold.Chemscore.Rot>
1.1776

> <Gold.Chemscore.Internal.Correction>
   9.000000E+99

> <Gold.Chemscore.Hbonds>
donor molecule, donor type, donor heavy atom, donor atom, acceptor molecule, acceptor atom, score
      L1  H    10    40       P1  7948  0.47
      L1  H    13    41       P1  7948  0.35

> <Gold.Chemscore.Hbond.Weighted>
-4.1369

> <Gold.Chemscore.Metal.Weighted>
-0.0000

> <Gold.Chemscore.Lipo.Weighted>
-9.3612

> <Gold.Chemscore.Internal_Hbond.Weighted>
0.0000

> <Gold.Chemscore.DEClash.Weighted>
0.2356

> <Gold.Chemscore.DEInternal.Weighted>
1.8424

> <Gold.Chemscore.Rot.Weighted>
3.0147

> <Gold.Chemscore.Internal.Correction.Weighted>
   9.000000E+99

> <Gold.Protein.RotatedTorsions>
[ 6907 6896 6895 6894 ] final  -77.35 input  -60.11 | X-H torsion
[ 7974 7965 7964 7962 ] final  114.86 input  175.53 | X-H torsion
[ 8008 7997 7996 7995 ] final   41.97 input   59.86 | X-H torsion
[ 10167 10162 10161 10158 ] final   -4.61 input  -65.29 | X-H torsion
[ 10718 10713 10712 10709 ] final -118.59 input   66.30 | X-H torsion
[ 10763 10752 10751 10750 ] final  136.70 input  -60.55 | X-H torsion
[ 11005 11000 10999 10996 ] final  -51.49 input  -57.11 | X-H torsion

> <Gold.Protein.ActiveResidues>
 VAL166  LYS551  ARG553  GLY616  TRP617  ASP618  TYR619  PRO620  LYS621  CYS622 
 ASP623  PHE694  ASN695  SER759  ASP760  ASP761  ALA762  ILE779  LEU786  VAL792 
 PHE793  MET794  SER795  GLU796  ALA797  LYS798  CYS799  TRP800  GLU811  SER814 

> <Gold.Protein.RotatedAtoms>
  150.7001  134.4436  159.5303 H   0  0  0  0  0  0  0  0  0  0  0  0  # atno 6907 bound_to 6896
  152.2141  134.8471  160.0503 H   0  0  0  0  0  0  0  0  0  0  0  0  # atno 6908 bound_to 6896
  151.9345  133.3585  159.3980 H   0  0  0  0  0  0  0  0  0  0  0  0  # atno 6909 bound_to 6896
  145.1992  139.2961  143.4327 H   0  0  0  0  0  0  0  0  0  0  0  0  # atno 7974 bound_to 7965
  155.2784  140.3371  155.4260 H   0  0  0  0  0  0  0  0  0  0  0  0  # atno 8008 bound_to 7997
  156.2101  140.1766  156.7755 H   0  0  0  0  0  0  0  0  0  0  0  0  # atno 8009 bound_to 7997
  154.5674  140.0676  156.8897 H   0  0  0  0  0  0  0  0  0  0  0  0  # atno 8010 bound_to 7997
  140.6934  143.6404  150.8441 H   0  0  0  0  0  0  0  0  0  0  0  0  # atno 10167 bound_to 10162
  156.1118  130.6254  150.9310 H   0  0  0  0  0  0  0  0  0  0  0  0  # atno 10718 bound_to 10713
  153.8609  135.3067  155.3437 H   0  0  0  0  0  0  0  0  0  0  0  0  # atno 10763 bound_to 10752
  154.7849  135.4815  153.9928 H   0  0  0  0  0  0  0  0  0  0  0  0  # atno 10764 bound_to 10752
  153.1462  135.6834  153.9045 H   0  0  0  0  0  0  0  0  0  0  0  0  # atno 10765 bound_to 10752
  141.0873  133.6639  156.3884 H   0  0  0  0  0  0  0  0  0  0  0  0  # atno 11005 bound_to 11000
  146.3421  140.2231  142.8592 LP  0  0  0  0  0  0  0  0  0  0  0  0  # atno 17320 bound_to 7965
  144.9964  140.8593  143.5308 LP  0  0  0  0  0  0  0  0  0  0  0  0  # atno 17321 bound_to 7965
  140.0119  143.5634  152.2835 LP  0  0  0  0  0  0  0  0  0  0  0  0  # atno 17342 bound_to 10162
  139.6360  144.7650  151.2436 LP  0  0  0  0  0  0  0  0  0  0  0  0  # atno 17343 bound_to 10162
  157.6299  131.0922  150.8462 LP  0  0  0  0  0  0  0  0  0  0  0  0  # atno 17370 bound_to 10713
  156.8571  130.5100  149.5307 LP  0  0  0  0  0  0  0  0  0  0  0  0  # atno 17371 bound_to 10713
  140.5332  134.6192  157.5357 LP  0  0  0  0  0  0  0  0  0  0  0  0  # atno 17394 bound_to 11000
  139.9694  134.7319  156.0073 LP  0  0  0  0  0  0  0  0  0  0  0  0  # atno 17395 bound_to 11000

$$$$
