AV-unprocessed.smi:37|AV-procd|sdf|305|dock7
  -GOLD-   2262016113D 1   1.00000     0.00000
 Structure written by MMmdl.
 44 45  0  0  0  0  0  0  0  0  1 V2000
  147.2113  134.4096  161.8799 C   0  0  0  0  0  0  0  0  0  0  0  0
  147.3388  134.6806  160.3747 C   0  0  0  0  0  0  0  0  0  0  0  0
  147.8785  136.0786  160.0790 C   0  0  0  0  0  0  0  0  0  0  0  0
  147.4128  137.0757  160.6304 O   0  0  0  0  0  0  0  0  0  0  0  0
  148.8673  136.0717  159.1720 O   0  0  0  0  0  0  0  0  0  0  0  0
  149.3982  137.2986  158.6993 C   0  0  0  0  0  0  0  0  0  0  0  0
  150.9294  137.2391  158.7564 C   0  0  2  0  0  0  0  0  0  0  0  0
  151.4353  138.0124  159.8451 O   0  0  0  0  0  0  0  0  0  0  0  0
  152.6066  138.6828  159.4709 C   0  0  2  0  0  0  0  0  0  0  0  0
  152.3546  140.1773  159.4503 N   0  0  0  0  0  0  0  0  0  0  0  0
  151.3986  140.7620  158.6276 C   0  0  0  0  0  0  0  0  0  0  0  0
  151.1717  142.0966  158.5941 C   0  0  0  0  0  0  0  0  0  0  0  0
  150.2301  142.5887  157.7712 F   0  0  0  0  0  0  0  0  0  0  0  0
  151.9400  143.0052  159.4396 C   0  0  0  0  0  0  0  0  0  0  0  0
  151.8072  144.2267  159.4786 O   0  0  0  0  0  0  0  0  0  0  0  0
  152.8906  142.3752  160.2477 N   0  0  0  0  0  0  0  0  0  0  0  0
  153.1354  141.0020  160.2910 C   0  0  0  0  0  0  0  0  0  0  0  0
  154.0067  140.5551  161.0358 O   0  0  0  0  0  0  0  0  0  0  0  0
  152.9798  138.1941  158.0676 C   0  0  1  0  0  0  0  0  0  0  0  0
  154.1779  136.6055  158.2266 Br  0  0  0  0  0  0  0  0  0  0  0  0
  151.6211  137.7991  157.5147 C   0  0  1  0  0  0  0  0  0  0  0  0
  151.7054  136.8313  156.4777 O   0  0  0  0  0  0  0  0  0  0  0  0
  150.6109  136.4961  155.7742 C   0  0  0  0  0  0  0  0  0  0  0  0
  149.4854  136.9740  155.9172 O   0  0  0  0  0  0  0  0  0  0  0  0
  150.8948  135.4257  154.7237 C   0  0  0  0  0  0  0  0  0  0  0  0
  150.0309  134.1737  154.9289 C   0  0  0  0  0  0  0  0  0  0  0  0
  153.4489  142.9644  160.8486 H   0  0  0  0  0  0  0  0  0  0  0  0
  146.7822  133.4233  162.0564 H   0  0  0  0  0  0  0  0  0  0  0  0
  146.5639  135.1429  162.3618 H   0  0  0  0  0  0  0  0  0  0  0  0
  148.1819  134.4387  162.3764 H   0  0  0  0  0  0  0  0  0  0  0  0
  147.9984  133.9443  159.9159 H   0  0  0  0  0  0  0  0  0  0  0  0
  146.3649  134.5717  159.8968 H   0  0  0  0  0  0  0  0  0  0  0  0
  149.0565  137.4902  157.6817 H   0  0  0  0  0  0  0  0  0  0  0  0
  149.0347  138.1123  159.3280 H   0  0  0  0  0  0  0  0  0  0  0  0
  151.2519  136.2107  158.9282 H   0  0  0  0  0  0  0  0  0  0  0  0
  153.3825  138.5265  160.2228 H   0  0  0  0  0  0  0  0  0  0  0  0
  150.7978  140.1482  157.9756 H   0  0  0  0  0  0  0  0  0  0  0  0
  153.4942  138.9525  157.4766 H   0  0  0  0  0  0  0  0  0  0  0  0
  151.0838  138.6906  157.1859 H   0  0  0  0  0  0  0  0  0  0  0  0
  150.7116  135.8447  153.7339 H   0  0  0  0  0  0  0  0  0  0  0  0
  151.9519  135.1621  154.7658 H   0  0  0  0  0  0  0  0  0  0  0  0
  150.2209  133.4424  154.1435 H   0  0  0  0  0  0  0  0  0  0  0  0
  148.9681  134.4172  154.9037 H   0  0  0  0  0  0  0  0  0  0  0  0
  150.2439  133.6933  155.8844 H   0  0  0  0  0  0  0  0  0  0  0  0
  1  2  1  0  0  0  0
  1 28  1  0  0  0  0
  1 29  1  0  0  0  0
  1 30  1  0  0  0  0
  2  3  1  0  0  0  0
  2 31  1  0  0  0  0
  2 32  1  0  0  0  0
  3  4  2  0  0  0  0
  3  5  1  0  0  0  0
  5  6  1  0  0  0  0
  6  7  1  0  0  0  0
  6 33  1  0  0  0  0
  6 34  1  0  0  0  0
  7 21  1  0  0  0  0
  7  8  1  0  0  0  0
  7 35  1  0  0  0  0
  8  9  1  0  0  0  0
  9 10  1  0  0  0  0
  9 19  1  0  0  0  0
  9 36  1  0  0  0  0
 10 17  1  0  0  0  0
 10 11  1  0  0  0  0
 11 12  2  0  0  0  0
 11 37  1  0  0  0  0
 12 13  1  0  0  0  0
 12 14  1  0  0  0  0
 14 15  2  0  0  0  0
 14 16  1  0  0  0  0
 16 27  1  0  0  0  0
 16 17  1  0  0  0  0
 17 18  2  0  0  0  0
 19 20  1  0  0  0  0
 19 21  1  0  0  0  0
 19 38  1  0  0  0  0
 21 22  1  0  0  0  0
 21 39  1  0  0  0  0
 22 23  1  0  0  0  0
 23 24  2  0  0  0  0
 23 25  1  0  0  0  0
 25 26  1  0  0  0  0
 25 40  1  0  0  0  0
 25 41  1  0  0  0  0
 26 42  1  0  0  0  0
 26 43  1  0  0  0  0
 26 44  1  0  0  0  0
M  END
> <s_m_source_file>
AV-unprocessed.smi

> <i_m_source_file_index>
37

> <i_lp_mmshare_version>
43012

> <i_f3d_flags>
0

> <s_epik_input>
W0NIM11bQ0gyXUMoPU8pT1tDSDJdW0NAQEhdMU9bQ0BASF0objJbY0hdYyhGKWMoPU8pW25IXWMyPU8pW0NAQEhdKEJyKVtDQEhdMU9DKD1PKVtDSDJdW0NIM10=

> <s_epik_cmdline>
J2VwaWtfcHl0aG9uJywgJy1waCcsICc3LjAnLCAnLXRuJywgJzgnLCAnLW1hJywgJzIwMCcsICctbWV0YWxfYmluZGluZycsICctaW1hZScsICc8aW5maWxlLm1hZT4nLCAnLW9tYWUnLCAnPG91dGZpbGUubWFlPic=

> <r_lp_tautomer_probability>
0.999537

> <r_epik_Ionization_Penalty>
0.104106

> <r_epik_Ionization_Penalty_Charging>
0.104106

> <r_epik_Ionization_Penalty_Neutral>
3.94675e-16

> <r_epik_State_Penalty>
0.0940182

> <r_epik_Charging_Adjusted_Penalty>
0.198124

> <i_epik_Tot_Q>
0

> <i_epik_Tot_abs_Q>
0

> <r_epik_Metal_State_Penalty>
3.05314

> <b_epik_Metal_Only>
0

> <s_epik_Chemistry_Notes>
This compound has an ester and may undergo hydrolysis at high or low pH. This compound contains an acetal/aminal-like group ( X-CH(R)-Y where X, Y are N, S, or O) that may be acid/base labile, releasing an aldehyde.

> <s_lp_Force_Field>
OPLS_2005

> <r_lp_Energy>
22.9743

> <b_lp_Chiralities_Consistent>
1

> <s_lp_Variant>
AV-unprocessed.smi:37-3

> <Gold.Version>
5.8.1

> <Gold.Id.Protein>
6NUR|6NUR_protein|mol2

> <Gold.PLP.Fitness>
41.1333

> <Gold.PLP.PLP>
-37.9764

> <Gold.PLP.part.hbond>
-2.4731

> <Gold.PLP.part.metal>
0.0000

> <Gold.PLP.part.buried>
-6.5262

> <Gold.PLP.part.nonpolar>
-29.2520

> <Gold.PLP.part.repulsive>
0.0907

> <Gold.PLP.ligand.clash>
0.0000

> <Gold.PLP.ligand.torsion>
1.1997

> <Gold.PLP.Chemscore.Hbond>
1.7920

> <Gold.PLP.Chemscore.CHOScore>
0.0000

> <Gold.PLP.Chemscore.Metal>
0.0000

> <Gold.Chemscore.Hbonds>
donor molecule, donor type, donor heavy atom, donor atom, acceptor molecule, acceptor atom, score
      P1  H  6931  6943       L1     4  0.12
      P1  H  6934  6947       L1     4  1.00

> <Gold.PLP.Chemscore.Internal.Correction>
0.1802

> <Gold.Rescore>
     Score         DG    S(hbond)    S(metal)    S(lipo)     H(rot)  DE(clash)    DE(int)     intcor
      8.08      -9.57       1.75        0.00      57.76       3.33       0.02       1.48       ----

> <Gold.Chemscore.Fitness>
8.0762

> <Gold.Chemscore.DG>
-9.5697

> <Gold.Chemscore.ZeroCoef>
-5.4800

> <Gold.Chemscore.Hbond>
1.7538

> <Gold.Chemscore.Metal>
0.0000

> <Gold.Chemscore.Lipo>
57.7556

> <Gold.Chemscore.Internal_Hbond>
0.0000

> <Gold.Chemscore.DEClash>
0.0171

> <Gold.Chemscore.DEInternal>
1.4763

> <Gold.Chemscore.Rot>
3.3303

> <Gold.Chemscore.Internal.Correction>
   9.000000E+99

> <Gold.Chemscore.Hbonds>
donor molecule, donor type, donor heavy atom, donor atom, acceptor molecule, acceptor atom, score
      P1  H  6931  6943       L1     4  0.12
      P1  H  6934  6947       L1     4  0.95

> <Gold.Chemscore.Hbond.Weighted>
-5.8578

> <Gold.Chemscore.Metal.Weighted>
-0.0000

> <Gold.Chemscore.Lipo.Weighted>
-6.7574

> <Gold.Chemscore.Internal_Hbond.Weighted>
0.0000

> <Gold.Chemscore.DEClash.Weighted>
0.0171

> <Gold.Chemscore.DEInternal.Weighted>
1.4763

> <Gold.Chemscore.Rot.Weighted>
8.5256

> <Gold.Chemscore.Internal.Correction.Weighted>
   9.000000E+99

> <Gold.Protein.RotatedTorsions>
[ 6907 6896 6895 6894 ] final -106.73 input  -60.11 | X-H torsion
[ 7974 7965 7964 7962 ] final  -91.85 input  175.53 | X-H torsion
[ 8008 7997 7996 7995 ] final   89.60 input   59.86 | X-H torsion
[ 10167 10162 10161 10158 ] final   36.32 input  -65.29 | X-H torsion
[ 10718 10713 10712 10709 ] final  -26.88 input   66.30 | X-H torsion
[ 10763 10752 10751 10750 ] final  -14.36 input  -60.55 | X-H torsion
[ 11005 11000 10999 10996 ] final  -89.28 input  -57.11 | X-H torsion

> <Gold.Protein.ActiveResidues>
 VAL166  LYS551  ARG553  GLY616  TRP617  ASP618  TYR619  PRO620  LYS621  CYS622 
 ASP623  PHE694  ASN695  SER759  ASP760  ASP761  ALA762  ILE779  LEU786  VAL792 
 PHE793  MET794  SER795  GLU796  ALA797  LYS798  CYS799  TRP800  GLU811  SER814 

> <Gold.Protein.RotatedAtoms>
  150.7405  133.9932  159.3613 H   0  0  0  0  0  0  0  0  0  0  0  0  # atno 6907 bound_to 6896
  151.7881  135.0741  160.0392 H   0  0  0  0  0  0  0  0  0  0  0  0  # atno 6908 bound_to 6896
  152.3227  133.5835  159.5792 H   0  0  0  0  0  0  0  0  0  0  0  0  # atno 6909 bound_to 6896
  145.4077  140.9542  143.2251 H   0  0  0  0  0  0  0  0  0  0  0  0  # atno 7974 bound_to 7965
  156.0020  140.3359  155.6854 H   0  0  0  0  0  0  0  0  0  0  0  0  # atno 8008 bound_to 7997
  155.6278  140.0682  157.2676 H   0  0  0  0  0  0  0  0  0  0  0  0  # atno 8009 bound_to 7997
  154.4252  140.1765  156.1427 H   0  0  0  0  0  0  0  0  0  0  0  0  # atno 8010 bound_to 7997
  140.4138  144.1555  150.6141 H   0  0  0  0  0  0  0  0  0  0  0  0  # atno 10167 bound_to 10162
  156.4454  130.4473  149.7024 H   0  0  0  0  0  0  0  0  0  0  0  0  # atno 10718 bound_to 10713
  153.5271  135.7015  153.5702 H   0  0  0  0  0  0  0  0  0  0  0  0  # atno 10763 bound_to 10752
  153.3726  135.3941  155.1799 H   0  0  0  0  0  0  0  0  0  0  0  0  # atno 10764 bound_to 10752
  154.8688  135.3815  154.4765 H   0  0  0  0  0  0  0  0  0  0  0  0  # atno 10765 bound_to 10752
  141.1587  133.7620  156.9572 H   0  0  0  0  0  0  0  0  0  0  0  0  # atno 11005 bound_to 11000
  144.8330  139.5596  143.6935 LP  0  0  0  0  0  0  0  0  0  0  0  0  # atno 17320 bound_to 7965
  146.2720  139.6660  142.9289 LP  0  0  0  0  0  0  0  0  0  0  0  0  # atno 17321 bound_to 7965
  140.4609  143.2449  151.9222 LP  0  0  0  0  0  0  0  0  0  0  0  0  # atno 17342 bound_to 10162
  139.4782  144.5469  151.8445 LP  0  0  0  0  0  0  0  0  0  0  0  0  # atno 17343 bound_to 10162
  156.3872  130.7609  151.2607 LP  0  0  0  0  0  0  0  0  0  0  0  0  # atno 17370 bound_to 10713
  157.7505  131.0278  150.4022 LP  0  0  0  0  0  0  0  0  0  0  0  0  # atno 17371 bound_to 10713
  140.1217  134.9412  157.2213 LP  0  0  0  0  0  0  0  0  0  0  0  0  # atno 17394 bound_to 11000
  140.3063  134.3074  155.7277 LP  0  0  0  0  0  0  0  0  0  0  0  0  # atno 17395 bound_to 11000

$$$$
