AV-unprocessed.smi:2784|AV-procd|sdf|10729|dock4
  -GOLD-   2272015163D 1   1.00000     0.00000
 Structure written by MMmdl.
 31 32  0  0  0  0  0  0  0  0  1 V2000
  153.3247  141.5345  160.8147 C   0  0  0  0  0  0  0  0  0  0  0  0
  153.0396  141.9743  159.4964 O   0  0  0  0  0  0  0  0  0  0  0  0
  151.9529  142.8871  159.4191 C   0  0  1  0  0  0  0  0  0  0  0  0
  151.9946  143.9278  160.5467 C   0  0  0  0  0  0  0  0  0  0  0  0
  151.3686  145.1765  159.9366 C   0  0  0  0  0  0  0  0  0  0  0  0
  151.8807  145.1757  158.4976 C   0  0  0  0  0  0  0  0  0  0  0  0
  152.0276  143.6925  158.1035 C   0  0  2  0  0  0  0  0  0  0  0  0
  150.9662  143.2818  157.1869 N   0  0  0  0  0  0  0  0  0  0  0  0
  150.8407  142.0585  156.6529 C   0  0  0  0  0  0  0  0  0  0  0  0
  151.6298  141.1384  156.8692 O   0  0  0  0  0  0  0  0  0  0  0  0
  149.7572  141.9798  155.8624 N   0  0  0  0  0  0  0  0  0  0  0  0
  149.2906  140.8478  155.1479 C   0  0  0  0  0  0  0  0  0  0  0  0
  150.0340  139.8524  154.6621 N   0  0  0  0  0  0  0  0  0  0  0  0
  149.1230  138.9975  154.0590 C   0  0  0  0  0  0  0  0  0  0  0  0
  147.8689  139.5296  154.2155 C   0  0  0  0  0  0  0  0  0  0  0  0
  147.9602  140.7077  154.9072 O   0  0  0  0  0  0  0  0  0  0  0  0
  154.1557  140.8297  160.7905 H   0  0  0  0  0  0  0  0  0  0  0  0
  152.4667  141.0249  161.2543 H   0  0  0  0  0  0  0  0  0  0  0  0
  153.6103  142.3631  161.4633 H   0  0  0  0  0  0  0  0  0  0  0  0
  151.0046  142.3467  159.4661 H   0  0  0  0  0  0  0  0  0  0  0  0
  151.4762  143.5952  161.4464 H   0  0  0  0  0  0  0  0  0  0  0  0
  153.0294  144.1414  160.8182 H   0  0  0  0  0  0  0  0  0  0  0  0
  150.2819  145.0853  159.9421 H   0  0  0  0  0  0  0  0  0  0  0  0
  151.6327  146.0864  160.4759 H   0  0  0  0  0  0  0  0  0  0  0  0
  151.2317  145.7446  157.8308 H   0  0  0  0  0  0  0  0  0  0  0  0
  152.8620  145.6508  158.4676 H   0  0  0  0  0  0  0  0  0  0  0  0
  152.9983  143.5413  157.6268 H   0  0  0  0  0  0  0  0  0  0  0  0
  150.2731  143.9779  156.9547 H   0  0  0  0  0  0  0  0  0  0  0  0
  149.2008  142.8164  155.7677 H   0  0  0  0  0  0  0  0  0  0  0  0
  149.4348  138.0861  153.5707 H   0  0  0  0  0  0  0  0  0  0  0  0
  146.8792  139.2169  153.9168 H   0  0  0  0  0  0  0  0  0  0  0  0
  1  2  1  0  0  0  0
  1 17  1  0  0  0  0
  1 18  1  0  0  0  0
  1 19  1  0  0  0  0
  2  3  1  0  0  0  0
  3  7  1  0  0  0  0
  3  4  1  0  0  0  0
  3 20  1  0  0  0  0
  4  5  1  0  0  0  0
  4 21  1  0  0  0  0
  4 22  1  0  0  0  0
  5  6  1  0  0  0  0
  5 23  1  0  0  0  0
  5 24  1  0  0  0  0
  6  7  1  0  0  0  0
  6 25  1  0  0  0  0
  6 26  1  0  0  0  0
  7  8  1  0  0  0  0
  7 27  1  0  0  0  0
  8  9  1  0  0  0  0
  8 28  1  0  0  0  0
  9 10  2  0  0  0  0
  9 11  1  0  0  0  0
 11 12  1  0  0  0  0
 11 29  1  0  0  0  0
 12 16  1  0  0  0  0
 12 13  2  0  0  0  0
 13 14  1  0  0  0  0
 14 15  2  0  0  0  0
 14 30  1  0  0  0  0
 15 16  1  0  0  0  0
 15 31  1  0  0  0  0
M  END
> <s_m_source_file>
AV-unprocessed.smi

> <i_m_source_file_index>
2784

> <i_lp_mmshare_version>
43012

> <i_f3d_flags>
0

> <s_epik_input>
W0NIM11PW0NAQEhdMVtDSDJdW0NIMl1bQ0gyXVtDQEhdMVtOSF1DKD1PKVtOSF1jMm5bY0hdW2NIXW8y

> <s_epik_cmdline>
J2VwaWtfcHl0aG9uJywgJy1waCcsICc3LjAnLCAnLXRuJywgJzgnLCAnLW1hJywgJzIwMCcsICctbWV0YWxfYmluZGluZycsICctaW1hZScsICc8aW5maWxlLm1hZT4nLCAnLW9tYWUnLCAnPG91dGZpbGUubWFlPic=

> <r_lp_tautomer_probability>
0.785861

> <r_epik_Ionization_Penalty>
4.58897e-05

> <r_epik_Ionization_Penalty_Charging>
0

> <r_epik_Ionization_Penalty_Neutral>
4.58897e-05

> <r_epik_State_Penalty>
0.0380021

> <r_epik_Charging_Adjusted_Penalty>
0.0380021

> <i_epik_Tot_Q>
0

> <i_epik_Tot_abs_Q>
0

> <r_epik_Metal_State_Penalty>
0.0585611

> <b_epik_Metal_Only>
0

> <s_lp_Force_Field>
OPLS_2005

> <r_lp_Energy>
18.2903

> <b_lp_Chiralities_Consistent>
1

> <s_lp_Variant>
AV-unprocessed.smi:2784-4

> <Gold.Version>
5.8.1

> <Gold.Id.Protein>
6NUR|6NUR_protein|mol2

> <Gold.PLP.Fitness>
45.4160

> <Gold.PLP.PLP>
-34.2922

> <Gold.PLP.part.hbond>
-3.0000

> <Gold.PLP.part.metal>
0.0000

> <Gold.PLP.part.buried>
-3.5944

> <Gold.PLP.part.nonpolar>
-28.5668

> <Gold.PLP.part.repulsive>
0.3470

> <Gold.PLP.ligand.clash>
0.0000

> <Gold.PLP.ligand.torsion>
0.3648

> <Gold.PLP.Chemscore.Hbond>
3.0000

> <Gold.PLP.Chemscore.CHOScore>
0.9496

> <Gold.PLP.Chemscore.Metal>
0.0000

> <Gold.Chemscore.Hbonds>
donor molecule, donor type, donor heavy atom, donor atom, acceptor molecule, acceptor atom, score
      L1  H     8    28       P1  8028  1.00
      L1  H    11    29       P1  8028  1.00
      P1  H  7989  7998       L1    13  0.52
      L1  C    14    30       P1  7948  0.98

> <Gold.PLP.Chemscore.Internal.Correction>
0.0047

> <Gold.Rescore>
     Score         DG    S(hbond)    S(metal)    S(lipo)     H(rot)  DE(clash)    DE(int)     intcor
     19.82     -20.79       2.75        0.00      81.19       1.32       0.47       0.50       ----

> <Gold.Chemscore.Fitness>
19.8241

> <Gold.Chemscore.DG>
-20.7899

> <Gold.Chemscore.ZeroCoef>
-5.4800

> <Gold.Chemscore.Hbond>
2.7540

> <Gold.Chemscore.Metal>
0.0000

> <Gold.Chemscore.Lipo>
81.1947

> <Gold.Chemscore.Internal_Hbond>
0.0000

> <Gold.Chemscore.DEClash>
0.4703

> <Gold.Chemscore.DEInternal>
0.4955

> <Gold.Chemscore.Rot>
1.3235

> <Gold.Chemscore.Internal.Correction>
   9.000000E+99

> <Gold.Chemscore.Hbonds>
donor molecule, donor type, donor heavy atom, donor atom, acceptor molecule, acceptor atom, score
      L1  H     8    28       P1  8028  0.89
      L1  H    11    29       P1  8028  0.98
      P1  H  7989  7998       L1    13  0.23

> <Gold.Chemscore.Hbond.Weighted>
-9.1983

> <Gold.Chemscore.Metal.Weighted>
-0.0000

> <Gold.Chemscore.Lipo.Weighted>
-9.4998

> <Gold.Chemscore.Internal_Hbond.Weighted>
0.0000

> <Gold.Chemscore.DEClash.Weighted>
0.4703

> <Gold.Chemscore.DEInternal.Weighted>
0.4955

> <Gold.Chemscore.Rot.Weighted>
3.3882

> <Gold.Chemscore.Internal.Correction.Weighted>
   9.000000E+99

> <Gold.Protein.RotatedTorsions>
[ 6907 6896 6895 6894 ] final  -30.00 input  -60.11 | X-H torsion
[ 7974 7965 7964 7962 ] final  146.79 input  175.53 | X-H torsion
[ 8008 7997 7996 7995 ] final  171.57 input   59.86 | X-H torsion
[ 10167 10162 10161 10158 ] final  -40.29 input  -65.29 | X-H torsion
[ 10718 10713 10712 10709 ] final  -40.88 input   66.30 | X-H torsion
[ 10763 10752 10751 10750 ] final   22.88 input  -60.55 | X-H torsion
[ 11005 11000 10999 10996 ] final  132.38 input  -57.11 | X-H torsion

> <Gold.Protein.ActiveResidues>
 VAL166  LYS551  ARG553  GLY616  TRP617  ASP618  TYR619  PRO620  LYS621  CYS622 
 ASP623  PHE694  ASN695  SER759  ASP760  ASP761  ALA762  ILE779  LEU786  VAL792 
 PHE793  MET794  SER795  GLU796  ALA797  LYS798  CYS799  TRP800  GLU811  SER814 

> <Gold.Protein.RotatedAtoms>
  151.1115  135.0029  159.8495 H   0  0  0  0  0  0  0  0  0  0  0  0  # atno 6907 bound_to 6896
  152.5443  134.1830  159.8653 H   0  0  0  0  0  0  0  0  0  0  0  0  # atno 6908 bound_to 6896
  151.1881  133.4639  159.2628 H   0  0  0  0  0  0  0  0  0  0  0  0  # atno 6909 bound_to 6896
  144.8643  139.5949  143.5916 H   0  0  0  0  0  0  0  0  0  0  0  0  # atno 7974 bound_to 7965
  156.1259  140.1508  156.9137 H   0  0  0  0  0  0  0  0  0  0  0  0  # atno 8008 bound_to 7997
  154.4871  140.0862  156.7551 H   0  0  0  0  0  0  0  0  0  0  0  0  # atno 8009 bound_to 7997
  155.4345  140.3428  155.4285 H   0  0  0  0  0  0  0  0  0  0  0  0  # atno 8010 bound_to 7997
  140.7039  143.3162  151.2903 H   0  0  0  0  0  0  0  0  0  0  0  0  # atno 10167 bound_to 10162
  156.2764  130.4212  149.8383 H   0  0  0  0  0  0  0  0  0  0  0  0  # atno 10718 bound_to 10713
  153.0881  135.6639  153.9908 H   0  0  0  0  0  0  0  0  0  0  0  0  # atno 10763 bound_to 10752
  153.9512  135.2983  155.3440 H   0  0  0  0  0  0  0  0  0  0  0  0  # atno 10764 bound_to 10752
  154.7292  135.5130  153.9009 H   0  0  0  0  0  0  0  0  0  0  0  0  # atno 10765 bound_to 10752
  139.9787  134.9555  156.9574 H   0  0  0  0  0  0  0  0  0  0  0  0  # atno 11005 bound_to 11000
  146.2884  139.7068  142.9179 LP  0  0  0  0  0  0  0  0  0  0  0  0  # atno 17320 bound_to 7965
  145.4252  141.0410  143.2941 LP  0  0  0  0  0  0  0  0  0  0  0  0  # atno 17321 bound_to 7965
  139.6602  144.0203  152.2687 LP  0  0  0  0  0  0  0  0  0  0  0  0  # atno 17342 bound_to 10162
  139.9768  144.6456  150.7938 LP  0  0  0  0  0  0  0  0  0  0  0  0  # atno 17343 bound_to 10162
  156.5846  130.8480  151.3392 LP  0  0  0  0  0  0  0  0  0  0  0  0  # atno 17370 bound_to 10713
  157.7301  130.9680  150.1816 LP  0  0  0  0  0  0  0  0  0  0  0  0  # atno 17371 bound_to 10713
  140.5141  134.0972  155.7277 LP  0  0  0  0  0  0  0  0  0  0  0  0  # atno 17394 bound_to 11000
  141.1461  133.9052  157.2211 LP  0  0  0  0  0  0  0  0  0  0  0  0  # atno 17395 bound_to 11000

$$$$
