AV-unprocessed.smi:169|AV-procd|sdf|1398|dock8
  -GOLD-   2262019143D 1   1.00000     0.00000
 Structure written by MMmdl.
 56 60  0  0  0  0  0  0  0  0  2 V2000
  151.7471  141.5707  157.3551 C   0  0  0  0  0  0  0  0  0  0  0  0
  150.8972  142.5144  156.4860 C   0  0  0  0  0  0  0  0  0  0  0  0
  149.5187  142.0201  156.2310 N   0  3  2  0  0  0  0  0  0  0  0  0
  148.7726  141.6937  157.4731 C   0  0  0  0  0  0  0  0  0  0  0  0
  147.2816  142.0752  157.3887 C   0  0  0  0  0  0  0  0  0  0  0  0
  146.5502  141.6567  156.0945 C   0  0  1  0  0  0  0  0  0  0  0  0
  146.7111  142.6709  154.9410 C   0  0  0  0  0  0  0  0  0  0  0  0
  147.5252  141.9450  153.8649 C   0  0  0  0  0  0  0  0  0  0  0  0
  148.0703  140.7057  154.5806 C   0  0  1  0  0  0  0  0  0  0  0  0
  149.4673  140.9395  155.2055 C   0  0  0  0  0  0  0  0  0  0  0  0
  147.0506  140.3851  155.5785 N   0  0  0  0  0  0  0  0  0  0  0  0
  146.1054  139.4399  155.3318 C   0  0  0  0  0  0  0  0  0  0  0  0
  145.1233  139.1893  156.2382 N   0  0  0  0  0  0  0  0  0  0  0  0
  144.2043  138.2495  155.9974 C   0  0  0  0  0  0  0  0  0  0  0  0
  144.0810  137.4574  154.9308 N   0  0  0  0  0  0  0  0  0  0  0  0
  145.0583  137.7080  154.0134 C   0  0  0  0  0  0  0  0  0  0  0  0
  146.0981  138.6723  154.1332 C   0  0  0  0  0  0  0  0  0  0  0  0
  146.9010  138.6457  152.9993 N   0  0  0  0  0  0  0  0  0  0  0  0
  146.3712  137.7134  152.2554 C   0  0  0  0  0  0  0  0  0  0  0  0
  145.2556  137.1033  152.7836 N   0  0  0  0  0  0  0  0  0  0  0  0
  144.4730  136.0383  152.1745 C   0  0  0  0  0  0  0  0  0  0  0  0
  144.3340  134.7834  153.0568 C   0  0  0  0  0  0  0  0  0  0  0  0
  143.1788  135.0089  154.0537 C   0  0  0  0  0  0  0  0  0  0  0  0
  143.2949  134.2030  155.2097 O   0  0  0  0  0  0  0  0  0  0  0  0
  144.3376  133.4343  152.3230 C   0  0  0  0  0  0  0  0  0  0  0  0
  145.4339  132.9349  153.1206 O   0  0  0  0  0  0  0  0  0  0  0  0
  145.6514  134.2620  153.6490 C   0  0  0  0  0  0  0  0  0  0  0  0
  152.7336  142.0006  157.5298 H   0  0  0  0  0  0  0  0  0  0  0  0
  151.8977  140.6035  156.8758 H   0  0  0  0  0  0  0  0  0  0  0  0
  151.2921  141.3968  158.3302 H   0  0  0  0  0  0  0  0  0  0  0  0
  150.8369  143.4939  156.9621 H   0  0  0  0  0  0  0  0  0  0  0  0
  151.3965  142.6802  155.5308 H   0  0  0  0  0  0  0  0  0  0  0  0
  148.8855  140.6335  157.7059 H   0  0  0  0  0  0  0  0  0  0  0  0
  149.2002  142.2287  158.3222 H   0  0  0  0  0  0  0  0  0  0  0  0
  146.7779  141.6096  158.2364 H   0  0  0  0  0  0  0  0  0  0  0  0
  147.1635  143.1484  157.5431 H   0  0  0  0  0  0  0  0  0  0  0  0
  145.4844  141.5948  156.3207 H   0  0  0  0  0  0  0  0  0  0  0  0
  145.7408  142.9722  154.5445 H   0  0  0  0  0  0  0  0  0  0  0  0
  147.2197  143.5789  155.2666 H   0  0  0  0  0  0  0  0  0  0  0  0
  146.8614  141.6360  153.0563 H   0  0  0  0  0  0  0  0  0  0  0  0
  148.3056  142.5686  153.4275 H   0  0  0  0  0  0  0  0  0  0  0  0
  148.1902  139.8995  153.8565 H   0  0  0  0  0  0  0  0  0  0  0  0
  150.1604  141.1834  154.3993 H   0  0  0  0  0  0  0  0  0  0  0  0
  149.8286  140.0064  155.6395 H   0  0  0  0  0  0  0  0  0  0  0  0
  143.4618  138.1122  156.7699 H   0  0  0  0  0  0  0  0  0  0  0  0
  146.7840  137.4446  151.2942 H   0  0  0  0  0  0  0  0  0  0  0  0
  143.4906  136.4486  151.9369 H   0  0  0  0  0  0  0  0  0  0  0  0
  144.9235  135.7835  151.2145 H   0  0  0  0  0  0  0  0  0  0  0  0
  143.1389  136.0513  154.3719 H   0  0  0  0  0  0  0  0  0  0  0  0
  142.2152  134.7795  153.5990 H   0  0  0  0  0  0  0  0  0  0  0  0
  143.1868  133.2984  154.9580 H   0  0  0  0  0  0  0  0  0  0  0  0
  143.4248  132.8515  152.4523 H   0  0  0  0  0  0  0  0  0  0  0  0
  144.6096  133.4987  151.2689 H   0  0  0  0  0  0  0  0  0  0  0  0
  146.5434  134.7235  153.2226 H   0  0  0  0  0  0  0  0  0  0  0  0
  145.6951  134.2784  154.7386 H   0  0  0  0  0  0  0  0  0  0  0  0
  149.0383  142.8099  155.8240 H   0  0  0  0  0  0  0  0  0  0  0  0
  1  2  1  0  0  0  0
  1 28  1  0  0  0  0
  1 29  1  0  0  0  0
  1 30  1  0  0  0  0
  2  3  1  0  0  0  0
  2 31  1  0  0  0  0
  2 32  1  0  0  0  0
  3 10  1  0  0  0  0
  3  4  1  0  0  0  0
  3 56  1  0  0  0  0
  4  5  1  0  0  0  0
  4 33  1  0  0  0  0
  4 34  1  0  0  0  0
  5  6  1  0  0  0  0
  5 35  1  0  0  0  0
  5 36  1  0  0  0  0
  6 11  1  0  0  0  0
  6  7  1  0  0  0  0
  6 37  1  0  0  0  0
  7  8  1  0  0  0  0
  7 38  1  0  0  0  0
  7 39  1  0  0  0  0
  8  9  1  0  0  0  0
  8 40  1  0  0  0  0
  8 41  1  0  0  0  0
  9 10  1  0  0  0  0
  9 11  1  0  0  0  0
  9 42  1  0  0  0  0
 10 43  1  0  0  0  0
 10 44  1  0  0  0  0
 11 12  1  0  0  0  0
 12 17  1  0  0  0  0
 12 13  2  0  0  0  0
 13 14  1  0  0  0  0
 14 15  2  0  0  0  0
 14 45  1  0  0  0  0
 15 16  1  0  0  0  0
 16 20  1  0  0  0  0
 16 17  2  0  0  0  0
 17 18  1  0  0  0  0
 18 19  2  0  0  0  0
 19 20  1  0  0  0  0
 19 46  1  0  0  0  0
 20 21  1  0  0  0  0
 21 22  1  0  0  0  0
 21 47  1  0  0  0  0
 21 48  1  0  0  0  0
 22 27  1  0  0  0  0
 22 23  1  0  0  0  0
 22 25  1  0  0  0  0
 23 24  1  0  0  0  0
 23 49  1  0  0  0  0
 23 50  1  0  0  0  0
 24 51  1  0  0  0  0
 25 26  1  0  0  0  0
 25 52  1  0  0  0  0
 25 53  1  0  0  0  0
 26 27  1  0  0  0  0
 27 54  1  0  0  0  0
 27 55  1  0  0  0  0
M  CHG  1   3   1
M  END
> <s_m_source_file>
AV-unprocessed.smi

> <i_m_source_file_index>
169

> <i_lp_mmshare_version>
43012

> <i_f3d_flags>
0

> <s_epik_input>
W0NASF0xMltDSDJdW0NIMl1OKFtDSDJdW0NIM10pW0NIMl1bQ0BIXShbQ0gyXVtDSDJdMSlOMmMobltjSF1uMyljKGMzNCluW2NIXW40W0NIMl1DNShbQ0gyXVtPSF0pW0NIMl1PW0NIMl01

> <s_epik_cmdline>
J2VwaWtfcHl0aG9uJywgJy1waCcsICc3LjAnLCAnLXRuJywgJzgnLCAnLW1hJywgJzIwMCcsICctbWV0YWxfYmluZGluZycsICctaW1hZScsICc8aW5maWxlLm1hZT4nLCAnLW9tYWUnLCAnPG91dGZpbGUubWFlPic=

> <r_lp_tautomer_probability>
1

> <r_epik_Ionization_Penalty>
0.00274162

> <r_epik_Ionization_Penalty_Charging>
0.00243722

> <r_epik_Ionization_Penalty_Neutral>
0.000304399

> <r_epik_State_Penalty>
-0

> <r_epik_Charging_Adjusted_Penalty>
0.00243722

> <i_epik_Tot_Q>
1

> <i_epik_Tot_abs_Q>
1

> <r_epik_Metal_State_Penalty>
-0

> <b_epik_Metal_Only>
0

> <s_lp_Force_Field>
OPLS_2005

> <r_lp_Energy>
78.5453

> <b_lp_Chiralities_Consistent>
1

> <s_lp_Variant>
AV-unprocessed.smi:169-1

> <Gold.Version>
5.8.1

> <Gold.Id.Protein>
6NUR|6NUR_protein|mol2

> <Gold.PLP.Fitness>
40.3651

> <Gold.PLP.PLP>
-31.4141

> <Gold.PLP.part.hbond>
-2.7194

> <Gold.PLP.part.metal>
0.0000

> <Gold.PLP.part.buried>
-2.0005

> <Gold.PLP.part.nonpolar>
-27.1593

> <Gold.PLP.part.repulsive>
0.6355

> <Gold.PLP.ligand.clash>
0.0000

> <Gold.PLP.ligand.torsion>
1.0631

> <Gold.PLP.Chemscore.Hbond>
3.0000

> <Gold.PLP.Chemscore.CHOScore>
0.5272

> <Gold.PLP.Chemscore.Metal>
0.0000

> <Gold.Chemscore.Hbonds>
donor molecule, donor type, donor heavy atom, donor atom, acceptor molecule, acceptor atom, score
      L1  H     3    56       P1  8028  1.95
      L1  H    24    51       P1 10957  1.00
      L1  C    19    46       P1  7948  0.51

> <Gold.PLP.Chemscore.Internal.Correction>
0.4954

> <Gold.Rescore>
     Score         DG    S(hbond)    S(metal)    S(lipo)     H(rot)  DE(clash)    DE(int)     intcor
      8.32     -13.49       1.92        0.00      70.98       2.62       1.97       3.20       ----

> <Gold.Chemscore.Fitness>
8.3200

> <Gold.Chemscore.DG>
-13.4924

> <Gold.Chemscore.ZeroCoef>
-5.4800

> <Gold.Chemscore.Hbond>
1.9214

> <Gold.Chemscore.Metal>
0.0000

> <Gold.Chemscore.Lipo>
70.9843

> <Gold.Chemscore.Internal_Hbond>
0.0000

> <Gold.Chemscore.DEClash>
1.9742

> <Gold.Chemscore.DEInternal>
3.1982

> <Gold.Chemscore.Rot>
2.6212

> <Gold.Chemscore.Internal.Correction>
   9.000000E+99

> <Gold.Chemscore.Hbonds>
donor molecule, donor type, donor heavy atom, donor atom, acceptor molecule, acceptor atom, score
      L1  H     3    56       P1  8028  0.93
      L1  H    24    51       P1 10957  0.99

> <Gold.Chemscore.Hbond.Weighted>
-6.4175

> <Gold.Chemscore.Metal.Weighted>
-0.0000

> <Gold.Chemscore.Lipo.Weighted>
-8.3052

> <Gold.Chemscore.Internal_Hbond.Weighted>
0.0000

> <Gold.Chemscore.DEClash.Weighted>
1.9742

> <Gold.Chemscore.DEInternal.Weighted>
3.1982

> <Gold.Chemscore.Rot.Weighted>
6.7102

> <Gold.Chemscore.Internal.Correction.Weighted>
   9.000000E+99

> <Gold.Protein.RotatedTorsions>
[ 6907 6896 6895 6894 ] final  -88.85 input  -60.11 | X-H torsion
[ 7974 7965 7964 7962 ] final  -18.12 input  175.53 | X-H torsion
[ 8008 7997 7996 7995 ] final   96.10 input   59.86 | X-H torsion
[ 10167 10162 10161 10158 ] final  150.43 input  -65.29 | X-H torsion
[ 10718 10713 10712 10709 ] final  134.77 input   66.30 | X-H torsion
[ 10763 10752 10751 10750 ] final  104.78 input  -60.55 | X-H torsion
[ 11005 11000 10999 10996 ] final  -58.20 input  -57.11 | X-H torsion

> <Gold.Protein.ActiveResidues>
 VAL166  LYS551  ARG553  GLY616  TRP617  ASP618  TYR619  PRO620  LYS621  CYS622 
 ASP623  PHE694  ASN695  SER759  ASP760  ASP761  ALA762  ILE779  LEU786  VAL792 
 PHE793  MET794  SER795  GLU796  ALA797  LYS798  CYS799  TRP800  GLU811  SER814 

> <Gold.Protein.RotatedAtoms>
  150.6870  134.2678  159.4575 H   0  0  0  0  0  0  0  0  0  0  0  0  # atno 6907 bound_to 6896
  152.0603  134.9596  160.0584 H   0  0  0  0  0  0  0  0  0  0  0  0  # atno 6908 bound_to 6896
  152.1025  133.4223  159.4631 H   0  0  0  0  0  0  0  0  0  0  0  0  # atno 6909 bound_to 6896
  146.1908  140.3875  142.8459 H   0  0  0  0  0  0  0  0  0  0  0  0  # atno 7974 bound_to 7965
  156.0760  140.3277  155.7634 H   0  0  0  0  0  0  0  0  0  0  0  0  # atno 8008 bound_to 7997
  155.5229  140.0586  157.2920 H   0  0  0  0  0  0  0  0  0  0  0  0  # atno 8009 bound_to 7997
  154.4556  140.1941  156.0408 H   0  0  0  0  0  0  0  0  0  0  0  0  # atno 8010 bound_to 7997
  139.4850  144.5522  151.7380 H   0  0  0  0  0  0  0  0  0  0  0  0  # atno 10167 bound_to 10162
  157.4639  131.1075  150.9886 H   0  0  0  0  0  0  0  0  0  0  0  0  # atno 10718 bound_to 10713
  153.3705  135.3932  155.1785 H   0  0  0  0  0  0  0  0  0  0  0  0  # atno 10763 bound_to 10752
  154.8693  135.3701  154.4983 H   0  0  0  0  0  0  0  0  0  0  0  0  # atno 10764 bound_to 10752
  153.5451  135.7084  153.5679 H   0  0  0  0  0  0  0  0  0  0  0  0  # atno 10765 bound_to 10752
  141.1197  133.6612  156.4884 H   0  0  0  0  0  0  0  0  0  0  0  0  # atno 11005 bound_to 11000
  144.8483  140.6963  143.6185 LP  0  0  0  0  0  0  0  0  0  0  0  0  # atno 17320 bound_to 7965
  145.3798  139.1639  143.4286 LP  0  0  0  0  0  0  0  0  0  0  0  0  # atno 17321 bound_to 7965
  140.5078  144.1071  150.5987 LP  0  0  0  0  0  0  0  0  0  0  0  0  # atno 17342 bound_to 10162
  140.3986  143.2715  151.9974 LP  0  0  0  0  0  0  0  0  0  0  0  0  # atno 17343 bound_to 10162
  157.0674  130.5850  149.5396 LP  0  0  0  0  0  0  0  0  0  0  0  0  # atno 17370 bound_to 10713
  156.0041  130.5125  150.7769 LP  0  0  0  0  0  0  0  0  0  0  0  0  # atno 17371 bound_to 10713
  140.4543  134.6900  157.5055 LP  0  0  0  0  0  0  0  0  0  0  0  0  # atno 17394 bound_to 11000
  140.0145  134.6640  155.9331 LP  0  0  0  0  0  0  0  0  0  0  0  0  # atno 17395 bound_to 11000

$$$$
