AV-unprocessed.smi:2013|AV-procd|sdf|8160|dock7
  -GOLD-   2272010403D 1   1.00000     0.00000
 Structure written by MMmdl.
 50 51  0  0  0  0  0  0  0  0  1 V2000
  148.2057  142.6301  154.1478 C   0  0  0  0  0  0  0  0  0  0  0  0
  148.6805  141.1818  154.3830 C   0  0  0  0  0  0  0  0  0  0  0  0
  147.4890  140.2122  154.4635 C   0  0  0  0  0  0  0  0  0  0  0  0
  149.7131  140.9571  155.5345 C   0  0  1  0  0  0  0  0  0  0  0  0
  149.2418  141.4981  156.9155 C   0  0  0  0  0  0  0  0  0  0  0  0
  150.2585  142.3067  157.5796 N   0  0  0  0  0  0  0  0  0  0  0  0
  150.8179  142.0169  158.7636 C   0  0  0  0  0  0  0  0  0  0  0  0
  150.4807  141.0538  159.4533 O   0  0  0  0  0  0  0  0  0  0  0  0
  151.9229  142.9662  159.2425 C   0  0  0  0  0  0  0  0  0  0  0  0
  152.3957  142.6335  160.5919 N   0  0  0  0  0  0  0  0  0  0  0  0
  153.0399  141.4308  160.8179 C   0  0  0  0  0  0  0  0  0  0  0  0
  153.5250  141.0612  162.0234 C   0  0  0  0  0  0  0  0  0  0  0  0
  153.3913  141.9328  163.1846 C   0  0  0  0  0  0  0  0  0  0  0  0
  153.8332  141.6395  164.2960 O   0  0  0  0  0  0  0  0  0  0  0  0
  152.7179  143.1514  162.9279 N   0  0  0  0  0  0  0  0  0  0  0  0
  152.5443  144.0994  164.0089 C   0  0  0  0  0  0  0  0  0  0  0  0
  152.2217  143.5363  161.6632 C   0  0  0  0  0  0  0  0  0  0  0  0
  151.6610  144.6213  161.4876 O   0  0  0  0  0  0  0  0  0  0  0  0
  150.3249  139.6142  155.5730 N   0  0  0  0  0  0  0  0  0  0  0  0
  151.5616  139.5714  156.3511 C   0  0  0  0  0  0  0  0  0  0  0  0
  152.2461  138.1975  156.2587 C   0  0  0  0  0  0  0  0  0  0  0  0
  151.3414  137.1868  156.6905 O   0  0  0  0  0  0  0  0  0  0  0  0
  150.1411  137.1626  155.9251 C   0  0  0  0  0  0  0  0  0  0  0  0
  149.4429  138.5315  156.0050 C   0  0  0  0  0  0  0  0  0  0  0  0
  147.5240  142.9818  154.9186 H   0  0  0  0  0  0  0  0  0  0  0  0
  147.6627  142.6968  153.2048 H   0  0  0  0  0  0  0  0  0  0  0  0
  149.0351  143.3327  154.0801 H   0  0  0  0  0  0  0  0  0  0  0  0
  149.2031  140.9087  153.4655 H   0  0  0  0  0  0  0  0  0  0  0  0
  146.8531  140.4295  155.3223 H   0  0  0  0  0  0  0  0  0  0  0  0
  147.8279  139.1794  154.5508 H   0  0  0  0  0  0  0  0  0  0  0  0
  146.8681  140.2790  153.5697 H   0  0  0  0  0  0  0  0  0  0  0  0
  150.5291  141.6210  155.2447 H   0  0  0  0  0  0  0  0  0  0  0  0
  148.3506  142.1150  156.8046 H   0  0  0  0  0  0  0  0  0  0  0  0
  148.9596  140.6843  157.5835 H   0  0  0  0  0  0  0  0  0  0  0  0
  150.5895  143.1216  157.0835 H   0  0  0  0  0  0  0  0  0  0  0  0
  152.7603  142.9567  158.5421 H   0  0  0  0  0  0  0  0  0  0  0  0
  151.5301  143.9834  159.2214 H   0  0  0  0  0  0  0  0  0  0  0  0
  153.1697  140.7517  159.9876 H   0  0  0  0  0  0  0  0  0  0  0  0
  154.0230  140.1086  162.1294 H   0  0  0  0  0  0  0  0  0  0  0  0
  151.5013  144.4218  164.0085 H   0  0  0  0  0  0  0  0  0  0  0  0
  153.2199  144.9333  163.8115 H   0  0  0  0  0  0  0  0  0  0  0  0
  152.7682  143.6416  164.9721 H   0  0  0  0  0  0  0  0  0  0  0  0
  152.2512  140.3388  155.9984 H   0  0  0  0  0  0  0  0  0  0  0  0
  151.3585  139.7893  157.3994 H   0  0  0  0  0  0  0  0  0  0  0  0
  152.5700  137.9947  155.2369 H   0  0  0  0  0  0  0  0  0  0  0  0
  153.1357  138.1735  156.8881 H   0  0  0  0  0  0  0  0  0  0  0  0
  150.3684  136.9068  154.8890 H   0  0  0  0  0  0  0  0  0  0  0  0
  149.4874  136.3808  156.3115 H   0  0  0  0  0  0  0  0  0  0  0  0
  149.1135  138.7009  157.0305 H   0  0  0  0  0  0  0  0  0  0  0  0
  148.5511  138.4914  155.3883 H   0  0  0  0  0  0  0  0  0  0  0  0
  1  2  1  0  0  0  0
  1 25  1  0  0  0  0
  1 26  1  0  0  0  0
  1 27  1  0  0  0  0
  2  3  1  0  0  0  0
  2  4  1  0  0  0  0
  2 28  1  0  0  0  0
  3 29  1  0  0  0  0
  3 30  1  0  0  0  0
  3 31  1  0  0  0  0
  4  5  1  0  0  0  0
  4 19  1  0  0  0  0
  4 32  1  0  0  0  0
  5  6  1  0  0  0  0
  5 33  1  0  0  0  0
  5 34  1  0  0  0  0
  6  7  1  0  0  0  0
  6 35  1  0  0  0  0
  7  8  2  0  0  0  0
  7  9  1  0  0  0  0
  9 10  1  0  0  0  0
  9 36  1  0  0  0  0
  9 37  1  0  0  0  0
 10 17  1  0  0  0  0
 10 11  1  0  0  0  0
 11 12  2  0  0  0  0
 11 38  1  0  0  0  0
 12 13  1  0  0  0  0
 12 39  1  0  0  0  0
 13 14  2  0  0  0  0
 13 15  1  0  0  0  0
 15 16  1  0  0  0  0
 15 17  1  0  0  0  0
 16 40  1  0  0  0  0
 16 41  1  0  0  0  0
 16 42  1  0  0  0  0
 17 18  2  0  0  0  0
 19 24  1  0  0  0  0
 19 20  1  0  0  0  0
 20 21  1  0  0  0  0
 20 43  1  0  0  0  0
 20 44  1  0  0  0  0
 21 22  1  0  0  0  0
 21 45  1  0  0  0  0
 21 46  1  0  0  0  0
 22 23  1  0  0  0  0
 23 24  1  0  0  0  0
 23 47  1  0  0  0  0
 23 48  1  0  0  0  0
 24 49  1  0  0  0  0
 24 50  1  0  0  0  0
M  END
> <s_m_source_file>
AV-unprocessed.smi

> <i_m_source_file_index>
2013

> <i_lp_mmshare_version>
43012

> <i_f3d_flags>
0

> <s_epik_input>
W0NIMl0xW0NIMl1PW0NIMl1bQ0gyXU4xW0NASF0oW0NIXShbQ0gzXSlbQ0gzXSlbQ0gyXVtOSF1DKD1PKVtDSDJdbjJbY0hdW2NIXWMoPU8pbihbQ0gzXSljMj1P

> <s_epik_cmdline>
J2VwaWtfcHl0aG9uJywgJy1waCcsICc3LjAnLCAnLXRuJywgJzgnLCAnLW1hJywgJzIwMCcsICctbWV0YWxfYmluZGluZycsICctaW1hZScsICc8aW5maWxlLm1hZT4nLCAnLW9tYWUnLCAnPG91dGZpbGUubWFlPic=

> <r_lp_tautomer_probability>
1

> <r_epik_Ionization_Penalty>
0.45351

> <r_epik_Ionization_Penalty_Charging>
1.24653e-08

> <r_epik_Ionization_Penalty_Neutral>
0.45351

> <r_epik_State_Penalty>
0.456487

> <r_epik_Charging_Adjusted_Penalty>
0.456487

> <i_epik_Tot_Q>
0

> <i_epik_Tot_abs_Q>
0

> <r_epik_Metal_State_Penalty>
0.456449

> <b_epik_Metal_Only>
0

> <s_lp_Force_Field>
OPLS_2005

> <r_lp_Energy>
45.5307

> <b_lp_Chiralities_Consistent>
1

> <s_lp_Variant>
AV-unprocessed.smi:2013-4

> <Gold.Version>
5.8.1

> <Gold.Id.Protein>
6NUR|6NUR_protein|mol2

> <Gold.PLP.Fitness>
53.8007

> <Gold.PLP.PLP>
-52.9583

> <Gold.PLP.part.hbond>
-2.9998

> <Gold.PLP.part.metal>
0.0000

> <Gold.PLP.part.buried>
-2.2358

> <Gold.PLP.part.nonpolar>
-47.5318

> <Gold.PLP.part.repulsive>
0.3154

> <Gold.PLP.ligand.clash>
0.0000

> <Gold.PLP.ligand.torsion>
0.8143

> <Gold.PLP.Chemscore.Hbond>
0.6344

> <Gold.PLP.Chemscore.CHOScore>
0.0000

> <Gold.PLP.Chemscore.Metal>
0.0000

> <Gold.PLP.Chemscore.Internal.Correction>
0.5677

> <Gold.Rescore>
     Score         DG    S(hbond)    S(metal)    S(lipo)     H(rot)  DE(clash)    DE(int)     intcor
      8.60     -13.74       0.70        0.00      99.00       2.20       1.09       4.06       ----

> <Gold.Chemscore.Fitness>
8.5978

> <Gold.Chemscore.DG>
-13.7430

> <Gold.Chemscore.ZeroCoef>
-5.4800

> <Gold.Chemscore.Hbond>
0.6951

> <Gold.Chemscore.Metal>
0.0000

> <Gold.Chemscore.Lipo>
99.0049

> <Gold.Chemscore.Internal_Hbond>
0.0000

> <Gold.Chemscore.DEClash>
1.0892

> <Gold.Chemscore.DEInternal>
4.0561

> <Gold.Chemscore.Rot>
2.2039

> <Gold.Chemscore.Internal.Correction>
   9.000000E+99

> <Gold.Chemscore.Hbond.Weighted>
-2.3215

> <Gold.Chemscore.Metal.Weighted>
-0.0000

> <Gold.Chemscore.Lipo.Weighted>
-11.5836

> <Gold.Chemscore.Internal_Hbond.Weighted>
0.0000

> <Gold.Chemscore.DEClash.Weighted>
1.0892

> <Gold.Chemscore.DEInternal.Weighted>
4.0561

> <Gold.Chemscore.Rot.Weighted>
5.6420

> <Gold.Chemscore.Internal.Correction.Weighted>
   9.000000E+99

> <Gold.Protein.RotatedTorsions>
[ 6907 6896 6895 6894 ] final  -54.73 input  -60.11 | X-H torsion
[ 7974 7965 7964 7962 ] final -164.43 input  175.53 | X-H torsion
[ 8008 7997 7996 7995 ] final -114.77 input   59.86 | X-H torsion
[ 10167 10162 10161 10158 ] final  -99.17 input  -65.29 | X-H torsion
[ 10718 10713 10712 10709 ] final   14.72 input   66.30 | X-H torsion
[ 10763 10752 10751 10750 ] final   84.55 input  -60.55 | X-H torsion
[ 11005 11000 10999 10996 ] final  -85.01 input  -57.11 | X-H torsion

> <Gold.Protein.ActiveResidues>
 VAL166  LYS551  ARG553  GLY616  TRP617  ASP618  TYR619  PRO620  LYS621  CYS622 
 ASP623  PHE694  ASN695  SER759  ASP760  ASP761  ALA762  ILE779  LEU786  VAL792 
 PHE793  MET794  SER795  GLU796  ALA797  LYS798  CYS799  TRP800  GLU811  SER814 

> <Gold.Protein.RotatedAtoms>
  150.8312  134.7566  159.6854 H   0  0  0  0  0  0  0  0  0  0  0  0  # atno 6907 bound_to 6896
  152.4416  134.5575  159.9894 H   0  0  0  0  0  0  0  0  0  0  0  0  # atno 6908 bound_to 6896
  151.5736  133.3349  159.3030 H   0  0  0  0  0  0  0  0  0  0  0  0  # atno 6909 bound_to 6896
  144.7297  140.2962  143.6212 H   0  0  0  0  0  0  0  0  0  0  0  0  # atno 7974 bound_to 7965
  155.0416  140.0392  157.2511 H   0  0  0  0  0  0  0  0  0  0  0  0  # atno 8008 bound_to 7997
  154.7212  140.2712  155.6516 H   0  0  0  0  0  0  0  0  0  0  0  0  # atno 8009 bound_to 7997
  156.2817  140.2702  156.1884 H   0  0  0  0  0  0  0  0  0  0  0  0  # atno 8010 bound_to 7997
  140.2653  143.3380  152.0587 H   0  0  0  0  0  0  0  0  0  0  0  0  # atno 10167 bound_to 10162
  157.0432  130.6239  149.5754 H   0  0  0  0  0  0  0  0  0  0  0  0  # atno 10718 bound_to 10713
  153.1392  135.4650  154.9469 H   0  0  0  0  0  0  0  0  0  0  0  0  # atno 10763 bound_to 10752
  154.7732  135.3165  154.8148 H   0  0  0  0  0  0  0  0  0  0  0  0  # atno 10764 bound_to 10752
  153.8674  135.6907  153.4831 H   0  0  0  0  0  0  0  0  0  0  0  0  # atno 10765 bound_to 10752
  141.1645  133.7376  156.8951 H   0  0  0  0  0  0  0  0  0  0  0  0  # atno 11005 bound_to 11000
  145.7806  139.1890  143.2160 LP  0  0  0  0  0  0  0  0  0  0  0  0  # atno 17320 bound_to 7965
  146.0837  140.7735  142.9629 LP  0  0  0  0  0  0  0  0  0  0  0  0  # atno 17321 bound_to 7965
  139.5005  144.6692  151.6283 LP  0  0  0  0  0  0  0  0  0  0  0  0  # atno 17342 bound_to 10162
  140.5933  143.9740  150.6338 LP  0  0  0  0  0  0  0  0  0  0  0  0  # atno 17343 bound_to 10162
  156.0031  130.5114  150.7735 LP  0  0  0  0  0  0  0  0  0  0  0  0  # atno 17370 bound_to 10713
  157.5088  131.0924  151.0224 LP  0  0  0  0  0  0  0  0  0  0  0  0  # atno 17371 bound_to 10713
  140.1621  134.9158  157.2728 LP  0  0  0  0  0  0  0  0  0  0  0  0  # atno 17394 bound_to 11000
  140.2599  134.3583  155.7410 LP  0  0  0  0  0  0  0  0  0  0  0  0  # atno 17395 bound_to 11000

$$$$
