AV-unprocessed.smi:195|AV-procd|sdf|1524|dock6
  -GOLD-   2262019373D 1   1.00000     0.00000
 Structure written by MMmdl.
 45 48  0  0  0  0  0  0  0  0  1 V2000
  149.4438  135.8490  159.4598 N   0  0  0  0  0  0  0  0  0  0  0  0
  149.1720  136.5696  158.5964 C   0  0  0  0  0  0  0  0  0  0  0  0
  148.8272  137.4852  157.4973 C   0  0  0  0  0  0  0  0  0  0  0  0
  148.5146  136.7666  156.1817 C   0  0  0  0  0  0  0  0  0  0  0  0
  147.4060  135.9423  156.4745 O   0  0  0  0  0  0  0  0  0  0  0  0
  148.3671  137.6299  154.9252 C   0  0  0  0  0  0  0  0  0  0  0  0
  149.7201  137.2244  154.5523 N   0  0  0  0  0  0  0  0  0  0  0  0
  150.7119  138.2220  154.8124 C   0  0  0  0  0  0  0  0  0  0  0  0
  151.9891  138.0699  154.3685 N   0  0  0  0  0  0  0  0  0  0  0  0
  152.9196  138.9996  154.6027 C   0  0  0  0  0  0  0  0  0  0  0  0
  152.7942  140.1583  155.2496 N   0  0  0  0  0  0  0  0  0  0  0  0
  151.5156  140.3378  155.6850 C   0  0  0  0  0  0  0  0  0  0  0  0
  150.4291  139.4350  155.5046 C   0  0  0  0  0  0  0  0  0  0  0  0
  149.2771  139.9670  156.0717 N   0  0  0  0  0  0  0  0  0  0  0  0
  149.6611  141.1123  156.5648 C   0  0  0  0  0  0  0  0  0  0  0  0
  150.9957  141.4053  156.3964 N   0  0  0  0  0  0  0  0  0  0  0  0
  151.6840  142.6058  156.8399 C   0  0  0  0  0  0  0  0  0  0  0  0
  151.0795  143.2341  158.1168 C   0  0  2  0  0  0  0  0  0  0  0  0
  150.6454  144.5256  157.7409 O   0  0  0  0  0  0  0  0  0  0  0  0
  152.0601  143.4095  159.2999 C   0  0  2  0  0  0  0  0  0  0  0  0
  152.7799  142.1459  159.7769 C   0  0  0  0  0  0  0  0  0  0  0  0
  153.1343  142.4548  161.2214 C   0  0  0  0  0  0  0  0  0  0  0  0
  152.1920  143.6015  161.5910 C   0  0  0  0  0  0  0  0  0  0  0  0
  151.3301  143.7471  160.4709 O   0  0  0  0  0  0  0  0  0  0  0  0
  149.6657  136.0692  155.4492 C   0  0  0  0  0  0  0  0  0  0  0  0
  147.9858  138.0987  157.8210 H   0  0  0  0  0  0  0  0  0  0  0  0
  149.6716  138.1638  157.3787 H   0  0  0  0  0  0  0  0  0  0  0  0
  146.8959  136.3891  157.1331 H   0  0  0  0  0  0  0  0  0  0  0  0
  147.6230  137.2524  154.2225 H   0  0  0  0  0  0  0  0  0  0  0  0
  148.2292  138.6923  155.1294 H   0  0  0  0  0  0  0  0  0  0  0  0
  153.9046  138.7830  154.2162 H   0  0  0  0  0  0  0  0  0  0  0  0
  148.9774  141.7759  157.0743 H   0  0  0  0  0  0  0  0  0  0  0  0
  152.7410  142.3827  156.9904 H   0  0  0  0  0  0  0  0  0  0  0  0
  151.6349  143.3187  156.0154 H   0  0  0  0  0  0  0  0  0  0  0  0
  150.2061  142.6640  158.4353 H   0  0  0  0  0  0  0  0  0  0  0  0
  150.2061  144.4635  156.9065 H   0  0  0  0  0  0  0  0  0  0  0  0
  152.7939  144.1895  159.0859 H   0  0  0  0  0  0  0  0  0  0  0  0
  152.1035  141.2905  159.7461 H   0  0  0  0  0  0  0  0  0  0  0  0
  153.6596  141.9081  159.1799 H   0  0  0  0  0  0  0  0  0  0  0  0
  152.9908  141.5825  161.8599 H   0  0  0  0  0  0  0  0  0  0  0  0
  154.1736  142.7729  161.3127 H   0  0  0  0  0  0  0  0  0  0  0  0
  151.6202  143.3979  162.4967 H   0  0  0  0  0  0  0  0  0  0  0  0
  152.7506  144.5264  161.7403 H   0  0  0  0  0  0  0  0  0  0  0  0
  150.5464  135.8705  156.0597 H   0  0  0  0  0  0  0  0  0  0  0  0
  149.3489  135.1708  154.9175 H   0  0  0  0  0  0  0  0  0  0  0  0
  1  2  3  0  0  0  0
  2  3  1  0  0  0  0
  3  4  1  0  0  0  0
  3 26  1  0  0  0  0
  3 27  1  0  0  0  0
  4 25  1  0  0  0  0
  4  5  1  0  0  0  0
  4  6  1  0  0  0  0
  5 28  1  0  0  0  0
  6  7  1  0  0  0  0
  6 29  1  0  0  0  0
  6 30  1  0  0  0  0
  7  8  1  0  0  0  0
  7 25  1  0  0  0  0
  8 13  1  0  0  0  0
  8  9  2  0  0  0  0
  9 10  1  0  0  0  0
 10 11  2  0  0  0  0
 10 31  1  0  0  0  0
 11 12  1  0  0  0  0
 12 16  1  0  0  0  0
 12 13  2  0  0  0  0
 13 14  1  0  0  0  0
 14 15  2  0  0  0  0
 15 16  1  0  0  0  0
 15 32  1  0  0  0  0
 16 17  1  0  0  0  0
 17 18  1  0  0  0  0
 17 33  1  0  0  0  0
 17 34  1  0  0  0  0
 18 19  1  0  0  0  0
 18 20  1  0  0  0  0
 18 35  1  0  0  0  0
 19 36  1  0  0  0  0
 20 24  1  0  0  0  0
 20 21  1  0  0  0  0
 20 37  1  0  0  0  0
 21 22  1  0  0  0  0
 21 38  1  0  0  0  0
 21 39  1  0  0  0  0
 22 23  1  0  0  0  0
 22 40  1  0  0  0  0
 22 41  1  0  0  0  0
 23 24  1  0  0  0  0
 23 42  1  0  0  0  0
 23 43  1  0  0  0  0
 25 44  1  0  0  0  0
 25 45  1  0  0  0  0
M  END
> <s_m_source_file>
AV-unprocessed.smi

> <i_m_source_file_index>
195

> <i_lp_mmshare_version>
43012

> <i_f3d_flags>
0

> <s_epik_input>
TiNDW0NIMl1DMShbT0hdKVtDSDJdTihbQ0gyXTEpYyhuW2NIXW4yKWMoYzIzKW5bY0hdbjNbQ0gyXVtDQEhdKFtPSF0pW0NAQEhdNFtDSDJdW0NIMl1bQ0gyXU80

> <s_epik_cmdline>
J2VwaWtfcHl0aG9uJywgJy1waCcsICc3LjAnLCAnLXRuJywgJzgnLCAnLW1hJywgJzIwMCcsICctbWV0YWxfYmluZGluZycsICctaW1hZScsICc8aW5maWxlLm1hZT4nLCAnLW9tYWUnLCAnPG91dGZpbGUubWFlPic=

> <r_lp_tautomer_probability>
1

> <r_epik_Ionization_Penalty>
0.00307146

> <r_epik_Ionization_Penalty_Charging>
0

> <r_epik_Ionization_Penalty_Neutral>
0.00307146

> <r_epik_State_Penalty>
0.0020279

> <r_epik_Charging_Adjusted_Penalty>
0.0020279

> <i_epik_Tot_Q>
0

> <i_epik_Tot_abs_Q>
0

> <r_epik_Metal_State_Penalty>
-0

> <b_epik_Metal_Only>
0

> <s_lp_Force_Field>
OPLS_2005

> <r_lp_Energy>
46.5325

> <b_lp_Chiralities_Consistent>
1

> <s_lp_Variant>
AV-unprocessed.smi:195-1

> <Gold.Version>
5.8.1

> <Gold.Id.Protein>
6NUR|6NUR_protein|mol2

> <Gold.PLP.Fitness>
46.0342

> <Gold.PLP.PLP>
-39.9092

> <Gold.PLP.part.hbond>
-4.5725

> <Gold.PLP.part.metal>
0.0000

> <Gold.PLP.part.buried>
-5.3738

> <Gold.PLP.part.nonpolar>
-30.8342

> <Gold.PLP.part.repulsive>
1.1027

> <Gold.PLP.ligand.clash>
0.0000

> <Gold.PLP.ligand.torsion>
1.6239

> <Gold.PLP.Chemscore.Hbond>
3.0000

> <Gold.PLP.Chemscore.CHOScore>
0.0000

> <Gold.PLP.Chemscore.Metal>
0.0000

> <Gold.Chemscore.Hbonds>
donor molecule, donor type, donor heavy atom, donor atom, acceptor molecule, acceptor atom, score
      L1  H    19    36       P1  8028  1.00
      P1  H  6896  6907       L1     1  1.00
      P1  H  7997  8009       L1    11  0.90

> <Gold.PLP.Chemscore.Internal.Correction>
0.3728

> <Gold.Rescore>
     Score         DG    S(hbond)    S(metal)    S(lipo)     H(rot)  DE(clash)    DE(int)     intcor
      9.66     -14.32       2.76        0.00      78.20       3.72       1.75       2.91       ----

> <Gold.Chemscore.Fitness>
9.6551

> <Gold.Chemscore.DG>
-14.3201

> <Gold.Chemscore.ZeroCoef>
-5.4800

> <Gold.Chemscore.Hbond>
2.7593

> <Gold.Chemscore.Metal>
0.0000

> <Gold.Chemscore.Lipo>
78.2007

> <Gold.Chemscore.Internal_Hbond>
0.0000

> <Gold.Chemscore.DEClash>
1.7541

> <Gold.Chemscore.DEInternal>
2.9109

> <Gold.Chemscore.Rot>
3.7210

> <Gold.Chemscore.Internal.Correction>
   9.000000E+99

> <Gold.Chemscore.Hbonds>
donor molecule, donor type, donor heavy atom, donor atom, acceptor molecule, acceptor atom, score
      L1  H    19    36       P1  8028  0.81
      P1  H  6896  6907       L1     1  1.00
      P1  H  7997  8009       L1    11  0.18

> <Gold.Chemscore.Hbond.Weighted>
-9.2162

> <Gold.Chemscore.Metal.Weighted>
-0.0000

> <Gold.Chemscore.Lipo.Weighted>
-9.1495

> <Gold.Chemscore.Internal_Hbond.Weighted>
0.0000

> <Gold.Chemscore.DEClash.Weighted>
1.7541

> <Gold.Chemscore.DEInternal.Weighted>
2.9109

> <Gold.Chemscore.Rot.Weighted>
9.5256

> <Gold.Chemscore.Internal.Correction.Weighted>
   9.000000E+99

> <Gold.Protein.RotatedTorsions>
[ 6907 6896 6895 6894 ] final  -52.62 input  -60.11 | X-H torsion
[ 7974 7965 7964 7962 ] final -162.48 input  175.53 | X-H torsion
[ 8008 7997 7996 7995 ] final -143.35 input   59.86 | X-H torsion
[ 10167 10162 10161 10158 ] final   -9.89 input  -65.29 | X-H torsion
[ 10718 10713 10712 10709 ] final  -47.70 input   66.30 | X-H torsion
[ 10763 10752 10751 10750 ] final  -70.24 input  -60.55 | X-H torsion
[ 11005 11000 10999 10996 ] final -172.22 input  -57.11 | X-H torsion

> <Gold.Protein.ActiveResidues>
 VAL166  LYS551  ARG553  GLY616  TRP617  ASP618  TYR619  PRO620  LYS621  CYS622 
 ASP623  PHE694  ASN695  SER759  ASP760  ASP761  ALA762  ILE779  LEU786  VAL792 
 PHE793  MET794  SER795  GLU796  ALA797  LYS798  CYS799  TRP800  GLU811  SER814 

> <Gold.Protein.RotatedAtoms>
  150.8501  134.7823  159.7001 H   0  0  0  0  0  0  0  0  0  0  0  0  # atno 6907 bound_to 6896
  152.4568  134.5271  159.9809 H   0  0  0  0  0  0  0  0  0  0  0  0  # atno 6908 bound_to 6896
  151.5393  133.3397  159.2968 H   0  0  0  0  0  0  0  0  0  0  0  0  # atno 6909 bound_to 6896
  144.7356  140.3247  143.6164 H   0  0  0  0  0  0  0  0  0  0  0  0  # atno 7974 bound_to 7965
  155.5091  140.0582  157.2926 H   0  0  0  0  0  0  0  0  0  0  0  0  # atno 8008 bound_to 7997
  154.4558  140.1972  156.0332 H   0  0  0  0  0  0  0  0  0  0  0  0  # atno 8009 bound_to 7997
  156.0796  140.3249  155.7682 H   0  0  0  0  0  0  0  0  0  0  0  0  # atno 8010 bound_to 7997
  140.7099  143.5808  150.8994 H   0  0  0  0  0  0  0  0  0  0  0  0  # atno 10167 bound_to 10162
  156.2059  130.4158  149.9179 H   0  0  0  0  0  0  0  0  0  0  0  0  # atno 10718 bound_to 10713
  154.4148  135.6000  153.5974 H   0  0  0  0  0  0  0  0  0  0  0  0  # atno 10763 bound_to 10752
  152.9791  135.5938  154.4026 H   0  0  0  0  0  0  0  0  0  0  0  0  # atno 10764 bound_to 10752
  154.3844  135.2841  155.2171 H   0  0  0  0  0  0  0  0  0  0  0  0  # atno 10765 bound_to 10752
  140.4995  134.5907  157.4983 H   0  0  0  0  0  0  0  0  0  0  0  0  # atno 11005 bound_to 11000
  145.7533  139.1801  143.2309 LP  0  0  0  0  0  0  0  0  0  0  0  0  # atno 17320 bound_to 7965
  146.1044  140.7505  142.9534 LP  0  0  0  0  0  0  0  0  0  0  0  0  # atno 17321 bound_to 7965
  139.9534  143.6246  152.3022 LP  0  0  0  0  0  0  0  0  0  0  0  0  # atno 17342 bound_to 10162
  139.6772  144.7658  151.1673 LP  0  0  0  0  0  0  0  0  0  0  0  0  # atno 17343 bound_to 10162
  156.6873  130.8882  151.3584 LP  0  0  0  0  0  0  0  0  0  0  0  0  # atno 17370 bound_to 10713
  157.7012  130.9335  150.0790 LP  0  0  0  0  0  0  0  0  0  0  0  0  # atno 17371 bound_to 10713
  139.9722  134.7274  156.0020 LP  0  0  0  0  0  0  0  0  0  0  0  0  # atno 17394 bound_to 11000
  141.1443  133.6559  156.3821 LP  0  0  0  0  0  0  0  0  0  0  0  0  # atno 17395 bound_to 11000

$$$$
