AV-unprocessed.smi:701|AV-procd|sdf|3415|dock7
  -GOLD-   22720 0403D 1   1.00000     0.00000
 Structure written by MMmdl.
 48 50  0  0  0  0  0  0  0  0  2 V2000
  145.8058  128.2155  152.6937 C   0  0  0  0  0  0  0  0  0  0  0  0
  146.5979  129.4144  153.2192 C   0  0  0  0  0  0  0  0  0  0  0  0
  146.0939  130.5930  152.6142 O   0  0  0  0  0  0  0  0  0  0  0  0
  146.7028  131.7747  153.1074 C   0  0  1  0  0  0  0  0  0  0  0  0
  148.2318  131.7778  153.0278 C   0  0  0  0  0  0  0  0  0  0  0  0
  148.1319  133.2440  152.5930 C   0  0  2  0  0  0  0  0  0  0  0  0
  148.2130  134.1487  153.7399 N   0  0  0  0  0  0  0  0  0  0  0  0
  149.1241  134.0645  154.7184 C   0  0  0  0  0  0  0  0  0  0  0  0
  149.9838  133.1845  154.7690 O   0  0  0  0  0  0  0  0  0  0  0  0
  149.0280  135.1213  155.8251 C   0  0  0  0  0  0  0  0  0  0  0  0
  149.4940  136.4413  155.3740 N   0  0  0  0  0  0  0  0  0  0  0  0
  148.5287  137.4402  155.1572 C   0  0  0  0  0  0  0  0  0  0  0  0
  148.8672  138.6780  154.7490 C   0  0  0  0  0  0  0  0  0  0  0  0
  150.2783  138.9712  154.5312 C   0  0  0  0  0  0  0  0  0  0  0  0
  150.6052  140.0946  154.1534 O   0  0  0  0  0  0  0  0  0  0  0  0
  151.1777  137.9699  154.7606 N   0  5  0  0  0  0  0  0  0  0  0  0
  150.8192  136.7162  155.1779 C   0  0  0  0  0  0  0  0  0  0  0  0
  151.6472  135.8272  155.3816 O   0  0  0  0  0  0  0  0  0  0  0  0
  146.6749  132.9716  152.1194 C   0  0  0  0  0  0  0  0  0  0  0  0
  146.5829  132.6312  150.6128 C   0  0  0  0  0  0  0  0  0  0  0  0
  145.1685  132.2570  150.1305 C   0  0  0  0  0  0  0  0  0  0  0  0
  144.1441  133.3366  150.4933 C   0  0  0  0  0  0  0  0  0  0  0  0
  144.2034  133.6648  151.9882 C   0  0  0  0  0  0  0  0  0  0  0  0
  145.6257  134.0655  152.4089 C   0  0  0  0  0  0  0  0  0  0  0  0
  146.1635  127.2864  153.1376 H   0  0  0  0  0  0  0  0  0  0  0  0
  145.9008  128.1277  151.6112 H   0  0  0  0  0  0  0  0  0  0  0  0
  144.7461  128.3138  152.9310 H   0  0  0  0  0  0  0  0  0  0  0  0
  146.5002  129.4765  154.3040 H   0  0  0  0  0  0  0  0  0  0  0  0
  147.6568  129.2917  152.9882 H   0  0  0  0  0  0  0  0  0  0  0  0
  146.3375  132.0557  154.0977 H   0  0  0  0  0  0  0  0  0  0  0  0
  148.7385  131.6022  153.9777 H   0  0  0  0  0  0  0  0  0  0  0  0
  148.6216  131.1293  152.2420 H   0  0  0  0  0  0  0  0  0  0  0  0
  148.8107  133.5012  151.7779 H   0  0  0  0  0  0  0  0  0  0  0  0
  147.5447  134.9045  153.7777 H   0  0  0  0  0  0  0  0  0  0  0  0
  148.0039  135.1893  156.1979 H   0  0  0  0  0  0  0  0  0  0  0  0
  149.6186  134.7769  156.6748 H   0  0  0  0  0  0  0  0  0  0  0  0
  147.5080  137.1430  155.3481 H   0  0  0  0  0  0  0  0  0  0  0  0
  148.1138  139.4352  154.5900 H   0  0  0  0  0  0  0  0  0  0  0  0
  146.9313  133.4840  150.0285 H   0  0  0  0  0  0  0  0  0  0  0  0
  147.2612  131.8155  150.3610 H   0  0  0  0  0  0  0  0  0  0  0  0
  145.1761  132.1051  149.0509 H   0  0  0  0  0  0  0  0  0  0  0  0
  144.8610  131.3062  150.5644 H   0  0  0  0  0  0  0  0  0  0  0  0
  144.3452  134.2390  149.9146 H   0  0  0  0  0  0  0  0  0  0  0  0
  143.1408  133.0091  150.2192 H   0  0  0  0  0  0  0  0  0  0  0  0
  143.5072  134.4717  152.2177 H   0  0  0  0  0  0  0  0  0  0  0  0
  143.8790  132.8001  152.5688 H   0  0  0  0  0  0  0  0  0  0  0  0
  145.6024  134.3082  153.4715 H   0  0  0  0  0  0  0  0  0  0  0  0
  145.9036  134.9908  151.9021 H   0  0  0  0  0  0  0  0  0  0  0  0
  1  2  1  0  0  0  0
  1 25  1  0  0  0  0
  1 26  1  0  0  0  0
  1 27  1  0  0  0  0
  2  3  1  0  0  0  0
  2 28  1  0  0  0  0
  2 29  1  0  0  0  0
  3  4  1  0  0  0  0
  4 19  1  0  0  0  0
  4  5  1  0  0  0  0
  4 30  1  0  0  0  0
  5  6  1  0  0  0  0
  5 31  1  0  0  0  0
  5 32  1  0  0  0  0
  6  7  1  0  0  0  0
  6 19  1  0  0  0  0
  6 33  1  0  0  0  0
  7  8  1  0  0  0  0
  7 34  1  0  0  0  0
  8  9  2  0  0  0  0
  8 10  1  0  0  0  0
 10 11  1  0  0  0  0
 10 35  1  0  0  0  0
 10 36  1  0  0  0  0
 11 17  1  0  0  0  0
 11 12  1  0  0  0  0
 12 13  2  0  0  0  0
 12 37  1  0  0  0  0
 13 14  1  0  0  0  0
 13 38  1  0  0  0  0
 14 15  2  0  0  0  0
 14 16  1  0  0  0  0
 16 17  1  0  0  0  0
 17 18  2  0  0  0  0
 19 24  1  0  0  0  0
 19 20  1  0  0  0  0
 20 21  1  0  0  0  0
 20 39  1  0  0  0  0
 20 40  1  0  0  0  0
 21 22  1  0  0  0  0
 21 41  1  0  0  0  0
 21 42  1  0  0  0  0
 22 23  1  0  0  0  0
 22 43  1  0  0  0  0
 22 44  1  0  0  0  0
 23 24  1  0  0  0  0
 23 45  1  0  0  0  0
 23 46  1  0  0  0  0
 24 47  1  0  0  0  0
 24 48  1  0  0  0  0
M  CHG  1  16  -1
M  END
> <s_m_source_file>
AV-unprocessed.smi

> <i_m_source_file_index>
701

> <i_lp_mmshare_version>
43012

> <i_f3d_flags>
0

> <s_epik_input>
W0NIMl0xW0NIMl1bQ0gyXVtDSDJdW0NIMl1DMTJbQ0BIXShPW0NIMl1bQ0gzXSlbQ0gyXVtDQEhdMltOSF1DKD1PKVtDSDJdbjNbY0hdW2NIXWMoPU8pW25IXWMzPU8=

> <s_epik_cmdline>
J2VwaWtfcHl0aG9uJywgJy1waCcsICc3LjAnLCAnLXRuJywgJzgnLCAnLW1hJywgJzIwMCcsICctbWV0YWxfYmluZGluZycsICctaW1hZScsICc8aW5maWxlLm1hZT4nLCAnLW9tYWUnLCAnPG91dGZpbGUubWFlPic=

> <r_lp_tautomer_probability>
0.999537

> <r_epik_Ionization_Penalty>
3.12423

> <r_epik_Ionization_Penalty_Charging>
2.92877e-08

> <r_epik_Ionization_Penalty_Neutral>
3.12423

> <r_epik_State_Penalty>
3.12332

> <r_epik_Charging_Adjusted_Penalty>
3.12332

> <i_epik_Tot_Q>
-1

> <i_epik_Tot_abs_Q>
1

> <r_epik_Metal_State_Penalty>
0.463873

> <b_epik_Metal_Only>
1

> <s_lp_Force_Field>
OPLS_2005

> <r_lp_Energy>
37.69

> <b_lp_Chiralities_Consistent>
1

> <s_lp_Variant>
AV-unprocessed.smi:701-8

> <Gold.Version>
5.8.1

> <Gold.Id.Protein>
6NUR|6NUR_protein|mol2

> <Gold.PLP.Fitness>
40.8338

> <Gold.PLP.PLP>
-35.9125

> <Gold.PLP.part.hbond>
-2.7654

> <Gold.PLP.part.metal>
0.0000

> <Gold.PLP.part.buried>
-3.8226

> <Gold.PLP.part.nonpolar>
-30.0877

> <Gold.PLP.part.repulsive>
1.2034

> <Gold.PLP.ligand.clash>
0.0000

> <Gold.PLP.ligand.torsion>
0.7061

> <Gold.PLP.Chemscore.Hbond>
2.0000

> <Gold.PLP.Chemscore.CHOScore>
0.0000

> <Gold.PLP.Chemscore.Metal>
0.0000

> <Gold.Chemscore.Hbonds>
donor molecule, donor type, donor heavy atom, donor atom, acceptor molecule, acceptor atom, score
      P1  H  7989  7998       L1    15  0.76
      P1  H 10752 10763       L1    18  0.89

> <Gold.PLP.Chemscore.Internal.Correction>
0.3335

> <Gold.Rescore>
     Score         DG    S(hbond)    S(metal)    S(lipo)     H(rot)  DE(clash)    DE(int)     intcor
     13.95     -16.56       1.99        0.00      82.39       2.04       0.50       2.11       ----

> <Gold.Chemscore.Fitness>
13.9454

> <Gold.Chemscore.DG>
-16.5558

> <Gold.Chemscore.ZeroCoef>
-5.4800

> <Gold.Chemscore.Hbond>
1.9934

> <Gold.Chemscore.Metal>
0.0000

> <Gold.Chemscore.Lipo>
82.3935

> <Gold.Chemscore.Internal_Hbond>
0.0000

> <Gold.Chemscore.DEClash>
0.5023

> <Gold.Chemscore.DEInternal>
2.1081

> <Gold.Chemscore.Rot>
2.0399

> <Gold.Chemscore.Internal.Correction>
   9.000000E+99

> <Gold.Chemscore.Hbonds>
donor molecule, donor type, donor heavy atom, donor atom, acceptor molecule, acceptor atom, score
      P1  H  7989  7998       L1    15  0.76
      P1  H 10752 10763       L1    18  0.87

> <Gold.Chemscore.Hbond.Weighted>
-6.6579

> <Gold.Chemscore.Metal.Weighted>
-0.0000

> <Gold.Chemscore.Lipo.Weighted>
-9.6400

> <Gold.Chemscore.Internal_Hbond.Weighted>
0.0000

> <Gold.Chemscore.DEClash.Weighted>
0.5023

> <Gold.Chemscore.DEInternal.Weighted>
2.1081

> <Gold.Chemscore.Rot.Weighted>
5.2222

> <Gold.Chemscore.Internal.Correction.Weighted>
   9.000000E+99

> <Gold.Protein.RotatedTorsions>
[ 6907 6896 6895 6894 ] final   58.38 input  -60.11 | X-H torsion
[ 7974 7965 7964 7962 ] final -128.88 input  175.53 | X-H torsion
[ 8008 7997 7996 7995 ] final  -37.84 input   59.86 | X-H torsion
[ 10167 10162 10161 10158 ] final  -23.52 input  -65.29 | X-H torsion
[ 10718 10713 10712 10709 ] final   17.22 input   66.30 | X-H torsion
[ 10763 10752 10751 10750 ] final   70.25 input  -60.55 | X-H torsion
[ 11005 11000 10999 10996 ] final -111.47 input  -57.11 | X-H torsion

> <Gold.Protein.ActiveResidues>
 VAL166  LYS551  ARG553  GLY616  TRP617  ASP618  TYR619  PRO620  LYS621  CYS622 
 ASP623  PHE694  ASN695  SER759  ASP760  ASP761  ALA762  ILE779  LEU786  VAL792 
 PHE793  MET794  SER795  GLU796  ALA797  LYS798  CYS799  TRP800  GLU811  SER814 

> <Gold.Protein.RotatedAtoms>
  152.3819  134.6578  160.0139 H   0  0  0  0  0  0  0  0  0  0  0  0  # atno 6907 bound_to 6896
  151.6838  133.3306  159.3234 H   0  0  0  0  0  0  0  0  0  0  0  0  # atno 6908 bound_to 6896
  150.7754  134.6693  159.6427 H   0  0  0  0  0  0  0  0  0  0  0  0  # atno 6909 bound_to 6896
  144.9627  140.7463  143.4719 H   0  0  0  0  0  0  0  0  0  0  0  0  # atno 7974 bound_to 7965
  154.4046  140.1593  156.2603 H   0  0  0  0  0  0  0  0  0  0  0  0  # atno 8008 bound_to 7997
  155.9042  140.3431  155.6027 H   0  0  0  0  0  0  0  0  0  0  0  0  # atno 8009 bound_to 7997
  155.7412  140.0793  157.2235 H   0  0  0  0  0  0  0  0  0  0  0  0  # atno 8010 bound_to 7997
  140.7288  143.4436  151.0620 H   0  0  0  0  0  0  0  0  0  0  0  0  # atno 10167 bound_to 10162
  157.0790  130.6380  149.5822 H   0  0  0  0  0  0  0  0  0  0  0  0  # atno 10718 bound_to 10713
  153.0331  135.5181  154.7412 H   0  0  0  0  0  0  0  0  0  0  0  0  # atno 10763 bound_to 10752
  154.6411  135.2912  155.0104 H   0  0  0  0  0  0  0  0  0  0  0  0  # atno 10764 bound_to 10752
  154.1022  135.6634  153.4923 H   0  0  0  0  0  0  0  0  0  0  0  0  # atno 10765 bound_to 10752
  141.0732  133.9345  157.2443 H   0  0  0  0  0  0  0  0  0  0  0  0  # atno 11005 bound_to 11000
  145.2676  139.1967  143.4859 LP  0  0  0  0  0  0  0  0  0  0  0  0  # atno 17320 bound_to 7965
  146.3358  140.2617  142.8602 LP  0  0  0  0  0  0  0  0  0  0  0  0  # atno 17321 bound_to 7965
  139.8105  143.7957  152.3171 LP  0  0  0  0  0  0  0  0  0  0  0  0  # atno 17342 bound_to 10162
  139.8005  144.7376  150.9831 LP  0  0  0  0  0  0  0  0  0  0  0  0  # atno 17343 bound_to 10162
  155.9929  130.4988  150.7358 LP  0  0  0  0  0  0  0  0  0  0  0  0  # atno 17370 bound_to 10713
  157.4815  131.0903  151.0530 LP  0  0  0  0  0  0  0  0  0  0  0  0  # atno 17371 bound_to 10713
  139.9545  135.0168  156.9088 LP  0  0  0  0  0  0  0  0  0  0  0  0  # atno 17394 bound_to 11000
  140.5629  134.0517  155.7405 LP  0  0  0  0  0  0  0  0  0  0  0  0  # atno 17395 bound_to 11000

$$$$
