AV-unprocessed.smi:828|AV-procd|sdf|3860|dock8
  -GOLD-   22720 1313D 1   1.00000     0.00000
 Structure written by MMmdl.
 35 36  0  0  0  0  0  0  0  0  2 V2000
  151.9586  140.7303  156.2776 C   0  0  0  0  0  0  0  0  0  0  0  0
  151.6224  139.3553  155.8113 C   0  0  0  0  0  0  0  0  0  0  0  0
  152.4801  138.3313  155.9015 N   0  0  0  0  0  0  0  0  0  0  0  0
  151.9466  137.1524  155.3990 N   0  0  0  0  0  0  0  0  0  0  0  0
  150.6982  137.3239  154.9427 C   0  0  0  0  0  0  0  0  0  0  0  0
  149.9184  136.2854  154.3688 N   0  0  0  0  0  0  0  0  0  0  0  0
  149.7469  135.0288  154.8148 C   0  0  0  0  0  0  0  0  0  0  0  0
  150.2316  134.5645  155.8472 O   0  0  0  0  0  0  0  0  0  0  0  0
  148.9692  134.3202  153.9839 N   0  0  0  0  0  0  0  0  0  0  0  0
  148.5900  132.9242  154.1789 C   0  0  0  0  0  0  0  0  0  0  0  0
  148.0178  132.2858  152.8877 C   0  0  2  0  0  0  0  0  0  0  0  0
  146.6322  132.8315  152.5028 C   0  0  0  0  0  0  0  0  0  0  0  0
  145.9719  131.6763  151.7634 C   0  0  0  0  0  0  0  0  0  0  0  0
  146.4982  130.4610  152.5190 C   0  0  0  0  0  0  0  0  0  0  0  0
  147.8887  130.7979  152.8934 N   0  3  2  0  0  0  0  0  0  0  0  0
  148.3762  130.0590  154.0813 C   0  0  0  0  0  0  0  0  0  0  0  0
  150.0681  138.9555  155.0902 S   0  0  0  0  0  0  0  0  0  0  0  0
  152.5977  140.6869  157.1600 H   0  0  0  0  0  0  0  0  0  0  0  0
  151.0499  141.2753  156.5334 H   0  0  0  0  0  0  0  0  0  0  0  0
  152.4826  141.2722  155.4903 H   0  0  0  0  0  0  0  0  0  0  0  0
  149.4427  136.5269  153.5119 H   0  0  0  0  0  0  0  0  0  0  0  0
  148.6106  134.7794  153.1592 H   0  0  0  0  0  0  0  0  0  0  0  0
  149.4609  132.3728  154.5363 H   0  0  0  0  0  0  0  0  0  0  0  0
  147.8489  132.8984  154.9778 H   0  0  0  0  0  0  0  0  0  0  0  0
  148.7006  132.5017  152.0650 H   0  0  0  0  0  0  0  0  0  0  0  0
  146.0537  133.0625  153.3984 H   0  0  0  0  0  0  0  0  0  0  0  0
  146.6893  133.7388  151.9007 H   0  0  0  0  0  0  0  0  0  0  0  0
  144.8832  131.7373  151.7634 H   0  0  0  0  0  0  0  0  0  0  0  0
  146.3119  131.6517  150.7271 H   0  0  0  0  0  0  0  0  0  0  0  0
  145.9003  130.3096  153.4194 H   0  0  0  0  0  0  0  0  0  0  0  0
  146.4519  129.5463  151.9272 H   0  0  0  0  0  0  0  0  0  0  0  0
  147.8251  130.3349  154.9808 H   0  0  0  0  0  0  0  0  0  0  0  0
  149.4382  130.2401  154.2478 H   0  0  0  0  0  0  0  0  0  0  0  0
  148.2505  128.9866  153.9297 H   0  0  0  0  0  0  0  0  0  0  0  0
  148.4607  130.4867  152.1208 H   0  0  0  0  0  0  0  0  0  0  0  0
  1  2  1  0  0  0  0
  1 18  1  0  0  0  0
  1 19  1  0  0  0  0
  1 20  1  0  0  0  0
  2 17  1  0  0  0  0
  2  3  2  0  0  0  0
  3  4  1  0  0  0  0
  4  5  2  0  0  0  0
  5  6  1  0  0  0  0
  5 17  1  0  0  0  0
  6  7  1  0  0  0  0
  6 21  1  0  0  0  0
  7  8  2  0  0  0  0
  7  9  1  0  0  0  0
  9 10  1  0  0  0  0
  9 22  1  0  0  0  0
 10 11  1  0  0  0  0
 10 23  1  0  0  0  0
 10 24  1  0  0  0  0
 11 15  1  0  0  0  0
 11 12  1  0  0  0  0
 11 25  1  0  0  0  0
 12 13  1  0  0  0  0
 12 26  1  0  0  0  0
 12 27  1  0  0  0  0
 13 14  1  0  0  0  0
 13 28  1  0  0  0  0
 13 29  1  0  0  0  0
 14 15  1  0  0  0  0
 14 30  1  0  0  0  0
 14 31  1  0  0  0  0
 15 16  1  0  0  0  0
 15 35  1  0  0  0  0
 16 32  1  0  0  0  0
 16 33  1  0  0  0  0
 16 34  1  0  0  0  0
M  CHG  1  15   1
M  END
> <s_m_source_file>
AV-unprocessed.smi

> <i_m_source_file_index>
828

> <i_lp_mmshare_version>
43012

> <i_f3d_flags>
0

> <s_epik_input>
W0NIM11jMW5uYyhzMSlbTkhdQyg9TylbTkhdW0NIMl1bQ0BASF0yW0NIMl1bQ0gyXVtDSDJdTjJbQ0gzXQ==

> <s_epik_cmdline>
J2VwaWtfcHl0aG9uJywgJy1waCcsICc3LjAnLCAnLXRuJywgJzgnLCAnLW1hJywgJzIwMCcsICctbWV0YWxfYmluZGluZycsICctaW1hZScsICc8aW5maWxlLm1hZT4nLCAnLW9tYWUnLCAnPG91dGZpbGUubWFlPic=

> <r_lp_tautomer_probability>
1

> <r_epik_Ionization_Penalty>
0.00466477

> <r_epik_Ionization_Penalty_Charging>
0.00372199

> <r_epik_Ionization_Penalty_Neutral>
0.000942783

> <r_epik_State_Penalty>
-0

> <r_epik_Charging_Adjusted_Penalty>
0.00372199

> <i_epik_Tot_Q>
1

> <i_epik_Tot_abs_Q>
1

> <r_epik_Metal_State_Penalty>
0.28212

> <b_epik_Metal_Only>
0

> <s_lp_Force_Field>
OPLS_2005

> <r_lp_Energy>
27.2564

> <b_lp_Chiralities_Consistent>
1

> <s_lp_Variant>
AV-unprocessed.smi:828-3

> <Gold.Version>
5.8.1

> <Gold.Id.Protein>
6NUR|6NUR_protein|mol2

> <Gold.PLP.Fitness>
36.2121

> <Gold.PLP.PLP>
-25.9478

> <Gold.PLP.part.hbond>
-4.6190

> <Gold.PLP.part.metal>
0.0000

> <Gold.PLP.part.buried>
-2.0792

> <Gold.PLP.part.nonpolar>
-19.7904

> <Gold.PLP.part.repulsive>
0.1513

> <Gold.PLP.ligand.clash>
0.0000

> <Gold.PLP.ligand.torsion>
0.5454

> <Gold.PLP.Chemscore.Hbond>
3.7840

> <Gold.PLP.Chemscore.CHOScore>
0.0000

> <Gold.PLP.Chemscore.Metal>
0.0000

> <Gold.Chemscore.Hbonds>
donor molecule, donor type, donor heavy atom, donor atom, acceptor molecule, acceptor atom, score
      L1  H     6    21       P1  7948  1.00
      L1  H     9    22       P1  7948  0.88
      L1  H    15    35       P1 10747  0.93
      P1  H 10752 10765       L1     4  0.98

> <Gold.PLP.Chemscore.Internal.Correction>
0.0031

> <Gold.Rescore>
     Score         DG    S(hbond)    S(metal)    S(lipo)     H(rot)  DE(clash)    DE(int)     intcor
     18.95     -19.56       3.38        0.00      52.78       1.33       0.09       0.52       ----

> <Gold.Chemscore.Fitness>
18.9452

> <Gold.Chemscore.DG>
-19.5562

> <Gold.Chemscore.ZeroCoef>
-5.4800

> <Gold.Chemscore.Hbond>
3.3844

> <Gold.Chemscore.Metal>
0.0000

> <Gold.Chemscore.Lipo>
52.7820

> <Gold.Chemscore.Internal_Hbond>
0.0000

> <Gold.Chemscore.DEClash>
0.0880

> <Gold.Chemscore.DEInternal>
0.5230

> <Gold.Chemscore.Rot>
1.3294

> <Gold.Chemscore.Internal.Correction>
   9.000000E+99

> <Gold.Chemscore.Hbonds>
donor molecule, donor type, donor heavy atom, donor atom, acceptor molecule, acceptor atom, score
      L1  H     6    21       P1  7948  0.75
      L1  H     9    22       P1  7948  0.38
      L1  H    15    35       P1 10747  0.76
      P1  H 10752 10765       L1     4  0.85

> <Gold.Chemscore.Hbond.Weighted>
-11.3040

> <Gold.Chemscore.Metal.Weighted>
-0.0000

> <Gold.Chemscore.Lipo.Weighted>
-6.1755

> <Gold.Chemscore.Internal_Hbond.Weighted>
0.0000

> <Gold.Chemscore.DEClash.Weighted>
0.0880

> <Gold.Chemscore.DEInternal.Weighted>
0.5230

> <Gold.Chemscore.Rot.Weighted>
3.4033

> <Gold.Chemscore.Internal.Correction.Weighted>
   9.000000E+99

> <Gold.Protein.RotatedTorsions>
[ 6907 6896 6895 6894 ] final   19.33 input  -60.11 | X-H torsion
[ 7974 7965 7964 7962 ] final   69.23 input  175.53 | X-H torsion
[ 8008 7997 7996 7995 ] final  -54.32 input   59.86 | X-H torsion
[ 10167 10162 10161 10158 ] final  174.12 input  -65.29 | X-H torsion
[ 10718 10713 10712 10709 ] final  176.14 input   66.30 | X-H torsion
[ 10763 10752 10751 10750 ] final -174.31 input  -60.55 | X-H torsion
[ 11005 11000 10999 10996 ] final   75.48 input  -57.11 | X-H torsion

> <Gold.Protein.ActiveResidues>
 VAL166  LYS551  ARG553  GLY616  TRP617  ASP618  TYR619  PRO620  LYS621  CYS622 
 ASP623  PHE694  ASN695  SER759  ASP760  ASP761  ALA762  ILE779  LEU786  VAL792 
 PHE793  MET794  SER795  GLU796  ALA797  LYS798  CYS799  TRP800  GLU811  SER814 

> <Gold.Protein.RotatedAtoms>
  151.8792  135.0460  160.0486 H   0  0  0  0  0  0  0  0  0  0  0  0  # atno 6907 bound_to 6896
  152.2526  133.5224  159.5343 H   0  0  0  0  0  0  0  0  0  0  0  0  # atno 6908 bound_to 6896
  150.7089  134.0855  159.3955 H   0  0  0  0  0  0  0  0  0  0  0  0  # atno 6909 bound_to 6896
  145.7930  139.2943  143.1199 H   0  0  0  0  0  0  0  0  0  0  0  0  # atno 7974 bound_to 7965
  154.4159  140.1179  156.5297 H   0  0  0  0  0  0  0  0  0  0  0  0  # atno 8008 bound_to 7997
  155.6618  140.3496  155.4766 H   0  0  0  0  0  0  0  0  0  0  0  0  # atno 8009 bound_to 7997
  155.9707  140.1141  157.0805 H   0  0  0  0  0  0  0  0  0  0  0  0  # atno 8010 bound_to 7997
  139.5131  144.3183  152.0227 H   0  0  0  0  0  0  0  0  0  0  0  0  # atno 10167 bound_to 10162
  156.9245  130.9951  151.2998 H   0  0  0  0  0  0  0  0  0  0  0  0  # atno 10718 bound_to 10713
  154.5977  135.2851  155.0568 H   0  0  0  0  0  0  0  0  0  0  0  0  # atno 10763 bound_to 10752
  154.1845  135.6451  153.5047 H   0  0  0  0  0  0  0  0  0  0  0  0  # atno 10764 bound_to 10752
  153.0145  135.5431  154.6685 H   0  0  0  0  0  0  0  0  0  0  0  0  # atno 10765 bound_to 10752
  139.9342  134.7521  156.1276 H   0  0  0  0  0  0  0  0  0  0  0  0  # atno 11005 bound_to 11000
  145.9957  140.8564  143.0044 LP  0  0  0  0  0  0  0  0  0  0  0  0  # atno 17320 bound_to 7965
  144.6779  140.2280  143.7358 LP  0  0  0  0  0  0  0  0  0  0  0  0  # atno 17321 bound_to 7965
  140.2625  144.4051  150.6180 LP  0  0  0  0  0  0  0  0  0  0  0  0  # atno 17342 bound_to 10162
  140.6147  143.2171  151.6816 LP  0  0  0  0  0  0  0  0  0  0  0  0  # atno 17343 bound_to 10162
  157.5887  130.8428  149.8627 LP  0  0  0  0  0  0  0  0  0  0  0  0  # atno 17370 bound_to 10713
  156.0476  130.3724  150.1280 LP  0  0  0  0  0  0  0  0  0  0  0  0  # atno 17371 bound_to 10713
  141.0947  133.6700  156.2618 LP  0  0  0  0  0  0  0  0  0  0  0  0  # atno 17394 bound_to 11000
  140.6120  134.5448  157.5535 LP  0  0  0  0  0  0  0  0  0  0  0  0  # atno 17395 bound_to 11000

$$$$
