AV-unprocessed.smi:193|AV-procd|sdf|1500|dock5
  -GOLD-   2262019323D 1   1.00000     0.00000
 Structure written by MMmdl.
 62 66  0  0  0  0  0  0  0  0  2 V2000
  151.5606  138.5192  158.9879 C   0  0  0  0  0  0  0  0  0  0  0  0
  150.7871  139.8252  158.7444 C   0  0  2  0  0  0  0  0  0  0  0  0
  149.9072  139.6737  157.4856 C   0  0  0  0  0  0  0  0  0  0  0  0
  148.7686  140.5935  157.4280 N   0  0  0  0  0  0  0  0  0  0  0  0
  147.7697  140.3174  156.5488 C   0  0  0  0  0  0  0  0  0  0  0  0
  146.4815  140.5470  156.9185 N   0  0  0  0  0  0  0  0  0  0  0  0
  145.4774  140.2684  156.0822 C   0  0  0  0  0  0  0  0  0  0  0  0
  145.5349  139.7640  154.8488 N   0  0  0  0  0  0  0  0  0  0  0  0
  146.8240  139.5406  154.4649 C   0  0  0  0  0  0  0  0  0  0  0  0
  147.9905  139.7929  155.2418 C   0  0  0  0  0  0  0  0  0  0  0  0
  149.1250  139.4642  154.5076 N   0  0  0  0  0  0  0  0  0  0  0  0
  148.6557  139.0298  153.3702 C   0  0  0  0  0  0  0  0  0  0  0  0
  147.2832  139.0264  153.2648 N   0  0  0  0  0  0  0  0  0  0  0  0
  146.4997  138.5852  152.1207 C   0  0  0  0  0  0  0  0  0  0  0  0
  145.8898  137.1698  152.2831 C   0  0  0  0  0  0  0  0  0  0  0  0
  146.6574  136.4748  153.2502 O   0  0  0  0  0  0  0  0  0  0  0  0
  144.4384  137.2667  152.7948 C   0  0  0  0  0  0  0  0  0  0  0  0
  143.7333  135.8987  152.8069 C   0  0  0  0  0  0  0  0  0  0  0  0
  143.7867  135.3130  151.5118 O   0  0  0  0  0  0  0  0  0  0  0  0
  145.1165  135.0440  151.0857 C   0  0  0  0  0  0  0  0  0  0  0  0
  145.9121  136.3564  150.9698 C   0  0  0  0  0  0  0  0  0  0  0  0
  148.8358  141.9503  157.9705 C   0  0  0  0  0  0  0  0  0  0  0  0
  150.1766  142.6465  157.7047 C   0  0  0  0  0  0  0  0  0  0  0  0
  151.1620  142.3347  158.7672 N   0  3  2  0  0  0  0  0  0  0  0  0
  152.1899  143.3943  158.8988 C   0  0  1  0  0  0  0  0  0  0  0  0
  151.8160  144.4970  159.8646 C   0  0  0  0  0  0  0  0  0  0  0  0
  152.8623  143.4780  160.2581 C   0  0  1  0  0  0  0  0  0  0  0  0
  152.5887  142.5072  161.3926 C   0  0  0  0  0  0  0  0  0  0  0  0
  151.7853  140.9972  158.6144 C   0  0  0  0  0  0  0  0  0  0  0  0
  152.2265  138.2906  158.1549 H   0  0  0  0  0  0  0  0  0  0  0  0
  150.8814  137.6751  159.1121 H   0  0  0  0  0  0  0  0  0  0  0  0
  152.1672  138.5808  159.8920 H   0  0  0  0  0  0  0  0  0  0  0  0
  150.1519  139.9818  159.6180 H   0  0  0  0  0  0  0  0  0  0  0  0
  150.5139  139.7783  156.5849 H   0  0  0  0  0  0  0  0  0  0  0  0
  149.5023  138.6603  157.4653 H   0  0  0  0  0  0  0  0  0  0  0  0
  144.4854  140.4766  156.4555 H   0  0  0  0  0  0  0  0  0  0  0  0
  149.3016  138.6888  152.5740 H   0  0  0  0  0  0  0  0  0  0  0  0
  145.7139  139.3196  151.9379 H   0  0  0  0  0  0  0  0  0  0  0  0
  147.1479  138.6120  151.2437 H   0  0  0  0  0  0  0  0  0  0  0  0
  147.5712  136.5526  153.0223 H   0  0  0  0  0  0  0  0  0  0  0  0
  144.4120  137.7103  153.7911 H   0  0  0  0  0  0  0  0  0  0  0  0
  143.8722  137.9384  152.1481 H   0  0  0  0  0  0  0  0  0  0  0  0
  144.1833  135.2288  153.5413 H   0  0  0  0  0  0  0  0  0  0  0  0
  142.6885  136.0213  153.0922 H   0  0  0  0  0  0  0  0  0  0  0  0
  145.5989  134.3508  151.7765 H   0  0  0  0  0  0  0  0  0  0  0  0
  145.0793  134.5458  150.1167 H   0  0  0  0  0  0  0  0  0  0  0  0
  145.4772  136.9560  150.1691 H   0  0  0  0  0  0  0  0  0  0  0  0
  146.9355  136.1343  150.6659 H   0  0  0  0  0  0  0  0  0  0  0  0
  148.0657  142.5677  157.5078 H   0  0  0  0  0  0  0  0  0  0  0  0
  148.6074  141.9330  159.0367 H   0  0  0  0  0  0  0  0  0  0  0  0
  150.5690  142.4236  156.7112 H   0  0  0  0  0  0  0  0  0  0  0  0
  149.9857  143.7202  157.7169 H   0  0  0  0  0  0  0  0  0  0  0  0
  152.7416  143.6349  157.9915 H   0  0  0  0  0  0  0  0  0  0  0  0
  152.1632  145.5029  159.6375 H   0  0  0  0  0  0  0  0  0  0  0  0
  150.8469  144.4431  160.3580 H   0  0  0  0  0  0  0  0  0  0  0  0
  153.8923  143.8291  160.2406 H   0  0  0  0  0  0  0  0  0  0  0  0
  151.5343  142.2339  161.4390 H   0  0  0  0  0  0  0  0  0  0  0  0
  152.8626  142.9640  162.3437 H   0  0  0  0  0  0  0  0  0  0  0  0
  153.1808  141.6012  161.2635 H   0  0  0  0  0  0  0  0  0  0  0  0
  152.5422  140.8967  159.3931 H   0  0  0  0  0  0  0  0  0  0  0  0
  152.3224  140.9426  157.6661 H   0  0  0  0  0  0  0  0  0  0  0  0
  150.6559  142.3291  159.6412 H   0  0  0  0  0  0  0  0  0  0  0  0
  1  2  1  0  0  0  0
  1 30  1  0  0  0  0
  1 31  1  0  0  0  0
  1 32  1  0  0  0  0
  2 29  1  0  0  0  0
  2  3  1  0  0  0  0
  2 33  1  0  0  0  0
  3  4  1  0  0  0  0
  3 34  1  0  0  0  0
  3 35  1  0  0  0  0
  4  5  1  0  0  0  0
  4 22  1  0  0  0  0
  5 10  1  0  0  0  0
  5  6  2  0  0  0  0
  6  7  1  0  0  0  0
  7  8  2  0  0  0  0
  7 36  1  0  0  0  0
  8  9  1  0  0  0  0
  9 13  1  0  0  0  0
  9 10  2  0  0  0  0
 10 11  1  0  0  0  0
 11 12  2  0  0  0  0
 12 13  1  0  0  0  0
 12 37  1  0  0  0  0
 13 14  1  0  0  0  0
 14 15  1  0  0  0  0
 14 38  1  0  0  0  0
 14 39  1  0  0  0  0
 15 21  1  0  0  0  0
 15 16  1  0  0  0  0
 15 17  1  0  0  0  0
 16 40  1  0  0  0  0
 17 18  1  0  0  0  0
 17 41  1  0  0  0  0
 17 42  1  0  0  0  0
 18 19  1  0  0  0  0
 18 43  1  0  0  0  0
 18 44  1  0  0  0  0
 19 20  1  0  0  0  0
 20 21  1  0  0  0  0
 20 45  1  0  0  0  0
 20 46  1  0  0  0  0
 21 47  1  0  0  0  0
 21 48  1  0  0  0  0
 22 23  1  0  0  0  0
 22 49  1  0  0  0  0
 22 50  1  0  0  0  0
 23 24  1  0  0  0  0
 23 51  1  0  0  0  0
 23 52  1  0  0  0  0
 24 25  1  0  0  0  0
 24 29  1  0  0  0  0
 24 62  1  0  0  0  0
 25 27  1  0  0  0  0
 25 26  1  0  0  0  0
 25 53  1  0  0  0  0
 26 27  1  0  0  0  0
 26 54  1  0  0  0  0
 26 55  1  0  0  0  0
 27 28  1  0  0  0  0
 27 56  1  0  0  0  0
 28 57  1  0  0  0  0
 28 58  1  0  0  0  0
 28 59  1  0  0  0  0
 29 60  1  0  0  0  0
 29 61  1  0  0  0  0
M  CHG  1  24   1
M  END
> <s_m_source_file>
AV-unprocessed.smi

> <i_m_source_file_index>
193

> <i_lp_mmshare_version>
43012

> <i_f3d_flags>
0

> <s_epik_input>
W0NIM11bQ0BASF0xW0NIMl1bQ0BIXTFOKFtDSDJdMilbQ0gyXVtDSDJdTihbQ0gyXVtDQEhdMltDSDNdKWMobltjSF1uMyljKGMzNCluW2NIXW40W0NIMl1DNShbT0hdKVtDSDJdW0NIMl1PW0NIMl1bQ0gyXTU=

> <s_epik_cmdline>
J2VwaWtfcHl0aG9uJywgJy1waCcsICc3LjAnLCAnLXRuJywgJzgnLCAnLW1hJywgJzIwMCcsICctbWV0YWxfYmluZGluZycsICctaW1hZScsICc8aW5maWxlLm1hZT4nLCAnLW9tYWUnLCAnPG91dGZpbGUubWFlPic=

> <r_lp_tautomer_probability>
1

> <r_epik_Ionization_Penalty>
0.0540825

> <r_epik_Ionization_Penalty_Charging>
0.0538476

> <r_epik_Ionization_Penalty_Neutral>
0.000234891

> <r_epik_State_Penalty>
0.0200719

> <r_epik_Charging_Adjusted_Penalty>
0.0739194

> <i_epik_Tot_Q>
1

> <i_epik_Tot_abs_Q>
1

> <r_epik_Metal_State_Penalty>
0.0199414

> <b_epik_Metal_Only>
0

> <s_lp_Force_Field>
OPLS_2005

> <r_lp_Energy>
56.6778

> <b_lp_Chiralities_Consistent>
1

> <s_lp_Variant>
AV-unprocessed.smi:193-5

> <Gold.Version>
5.8.1

> <Gold.Id.Protein>
6NUR|6NUR_protein|mol2

> <Gold.PLP.Fitness>
44.1644

> <Gold.PLP.PLP>
-40.3370

> <Gold.PLP.part.hbond>
-1.0000

> <Gold.PLP.part.metal>
0.0000

> <Gold.PLP.part.buried>
-2.5806

> <Gold.PLP.part.nonpolar>
-39.5755

> <Gold.PLP.part.repulsive>
0.4922

> <Gold.PLP.ligand.clash>
0.0000

> <Gold.PLP.ligand.torsion>
2.4631

> <Gold.PLP.Chemscore.Hbond>
1.0000

> <Gold.PLP.Chemscore.CHOScore>
1.4779

> <Gold.PLP.Chemscore.Metal>
0.0000

> <Gold.Chemscore.Hbonds>
donor molecule, donor type, donor heavy atom, donor atom, acceptor molecule, acceptor atom, score
      L1  H    16    40       P1  7948  0.99
      L1  C    12    37       P1  7948  0.72
      L1  C    12    37       P1  7957  0.58

> <Gold.PLP.Chemscore.Internal.Correction>
1.3202

> <Gold.Rescore>
     Score         DG    S(hbond)    S(metal)    S(lipo)     H(rot)  DE(clash)    DE(int)     intcor
     12.46     -15.74       0.95        0.00     102.81       1.93       0.07       3.21       ----

> <Gold.Chemscore.Fitness>
12.4633

> <Gold.Chemscore.DG>
-15.7413

> <Gold.Chemscore.ZeroCoef>
-5.4800

> <Gold.Chemscore.Hbond>
0.9493

> <Gold.Chemscore.Metal>
0.0000

> <Gold.Chemscore.Lipo>
102.8125

> <Gold.Chemscore.Internal_Hbond>
0.0000

> <Gold.Chemscore.DEClash>
0.0712

> <Gold.Chemscore.DEInternal>
3.2068

> <Gold.Chemscore.Rot>
1.9290

> <Gold.Chemscore.Internal.Correction>
   9.000000E+99

> <Gold.Chemscore.Hbonds>
donor molecule, donor type, donor heavy atom, donor atom, acceptor molecule, acceptor atom, score
      L1  H    16    40       P1  7948  0.94

> <Gold.Chemscore.Hbond.Weighted>
-3.1706

> <Gold.Chemscore.Metal.Weighted>
-0.0000

> <Gold.Chemscore.Lipo.Weighted>
-12.0291

> <Gold.Chemscore.Internal_Hbond.Weighted>
0.0000

> <Gold.Chemscore.DEClash.Weighted>
0.0712

> <Gold.Chemscore.DEInternal.Weighted>
3.2068

> <Gold.Chemscore.Rot.Weighted>
4.9383

> <Gold.Chemscore.Internal.Correction.Weighted>
   9.000000E+99

> <Gold.Protein.RotatedTorsions>
[ 6907 6896 6895 6894 ] final  130.66 input  -60.11 | X-H torsion
[ 7974 7965 7964 7962 ] final   62.28 input  175.53 | X-H torsion
[ 8008 7997 7996 7995 ] final  169.51 input   59.86 | X-H torsion
[ 10167 10162 10161 10158 ] final   80.70 input  -65.29 | X-H torsion
[ 10718 10713 10712 10709 ] final    5.50 input   66.30 | X-H torsion
[ 10763 10752 10751 10750 ] final -136.29 input  -60.55 | X-H torsion
[ 11005 11000 10999 10996 ] final -142.50 input  -57.11 | X-H torsion

> <Gold.Protein.ActiveResidues>
 VAL166  LYS551  ARG553  GLY616  TRP617  ASP618  TYR619  PRO620  LYS621  CYS622 
 ASP623  PHE694  ASN695  SER759  ASP760  ASP761  ALA762  ILE779  LEU786  VAL792 
 PHE793  MET794  SER795  GLU796  ALA797  LYS798  CYS799  TRP800  GLU811  SER814 

> <Gold.Protein.RotatedAtoms>
  152.3504  133.6173  159.5940 H   0  0  0  0  0  0  0  0  0  0  0  0  # atno 6907 bound_to 6896
  150.7534  133.9583  159.3516 H   0  0  0  0  0  0  0  0  0  0  0  0  # atno 6908 bound_to 6896
  151.7435  135.0850  160.0370 H   0  0  0  0  0  0  0  0  0  0  0  0  # atno 6909 bound_to 6896
  145.8752  139.3405  143.0739 H   0  0  0  0  0  0  0  0  0  0  0  0  # atno 7974 bound_to 7965
  156.1451  140.1562  156.8860 H   0  0  0  0  0  0  0  0  0  0  0  0  # atno 8008 bound_to 7997
  154.5021  140.0822  156.7856 H   0  0  0  0  0  0  0  0  0  0  0  0  # atno 8009 bound_to 7997
  155.4005  140.3414  155.4259 H   0  0  0  0  0  0  0  0  0  0  0  0  # atno 8010 bound_to 7997
  139.9470  144.6051  150.8197 H   0  0  0  0  0  0  0  0  0  0  0  0  # atno 10167 bound_to 10162
  156.9083  130.5747  149.5647 H   0  0  0  0  0  0  0  0  0  0  0  0  # atno 10718 bound_to 10713
  154.8687  135.3677  154.5036 H   0  0  0  0  0  0  0  0  0  0  0  0  # atno 10763 bound_to 10752
  153.5676  135.7021  153.5524 H   0  0  0  0  0  0  0  0  0  0  0  0  # atno 10764 bound_to 10752
  153.3571  135.4056  155.1654 H   0  0  0  0  0  0  0  0  0  0  0  0  # atno 10765 bound_to 10752
  140.8219  134.2621  157.4896 H   0  0  0  0  0  0  0  0  0  0  0  0  # atno 11005 bound_to 11000
  145.9090  140.9193  143.0464 LP  0  0  0  0  0  0  0  0  0  0  0  0  # atno 17320 bound_to 7965
  144.6726  140.1134  143.7454 LP  0  0  0  0  0  0  0  0  0  0  0  0  # atno 17321 bound_to 7965
  140.7594  143.3128  151.2803 LP  0  0  0  0  0  0  0  0  0  0  0  0  # atno 17342 bound_to 10162
  139.6659  144.0107  152.2722 LP  0  0  0  0  0  0  0  0  0  0  0  0  # atno 17343 bound_to 10162
  156.0548  130.5612  150.9068 LP  0  0  0  0  0  0  0  0  0  0  0  0  # atno 17370 bound_to 10713
  157.5983  131.0942  150.9003 LP  0  0  0  0  0  0  0  0  0  0  0  0  # atno 17371 bound_to 10713
  139.8708  134.9540  156.4162 LP  0  0  0  0  0  0  0  0  0  0  0  0  # atno 17394 bound_to 11000
  140.9090  133.7725  155.9769 LP  0  0  0  0  0  0  0  0  0  0  0  0  # atno 17395 bound_to 11000

$$$$
