AV-unprocessed.smi:1426|AV-procd|sdf|5805|dock2
  -GOLD-   22720 5453D 1   1.00000     0.00000
 Structure written by MMmdl.
 43 45  0  0  0  0  0  0  0  0  1 V2000
  152.4480  141.6120  157.5605 O   0  0  0  0  0  0  0  0  0  0  0  0
  151.5156  142.1403  156.9558 C   0  0  0  0  0  0  0  0  0  0  0  0
  151.1047  143.3961  157.1830 N   0  0  0  0  0  0  0  0  0  0  0  0
  151.6729  144.3070  158.1721 C   0  0  0  0  0  0  0  0  0  0  0  0
  151.6958  143.6796  159.5782 C   0  0  2  0  0  0  0  0  0  0  0  0
  151.6578  144.6950  160.7021 C   0  0  0  0  0  0  0  0  0  0  0  0
  152.1481  143.8731  161.8907 C   0  0  0  0  0  0  0  0  0  0  0  0
  153.0322  142.8940  161.3518 O   0  0  0  0  0  0  0  0  0  0  0  0
  152.9703  142.9094  159.9288 C   0  0  0  0  0  0  0  0  0  0  0  0
  150.7834  141.5631  155.9878 N   0  0  0  0  0  0  0  0  0  0  0  0
  150.8959  140.2600  155.4192 C   0  0  0  0  0  0  0  0  0  0  0  0
  152.0852  139.4925  155.4992 C   0  0  0  0  0  0  0  0  0  0  0  0
  152.1333  138.2265  154.8905 C   0  0  0  0  0  0  0  0  0  0  0  0
  150.9876  137.7653  154.2224 C   0  0  0  0  0  0  0  0  0  0  0  0
  149.8423  138.4720  154.1540 N   0  0  0  0  0  0  0  0  0  0  0  0
  149.7758  139.6887  154.7484 C   0  0  0  0  0  0  0  0  0  0  0  0
  148.5394  140.3696  154.6712 N   0  0  0  0  0  0  0  0  0  0  0  0
  148.4651  141.7048  154.0867 C   0  0  0  0  0  0  0  0  0  0  0  0
  146.9830  141.9280  153.8008 C   0  0  0  0  0  0  0  0  0  0  0  0
  146.5219  140.5343  153.3865 C   0  0  0  0  0  0  0  0  0  0  0  0
  147.3703  139.5998  154.2552 C   0  0  0  0  0  0  0  0  0  0  0  0
  150.3349  143.7490  156.6331 H   0  0  0  0  0  0  0  0  0  0  0  0
  152.6735  144.6297  157.8788 H   0  0  0  0  0  0  0  0  0  0  0  0
  151.0571  145.2067  158.1854 H   0  0  0  0  0  0  0  0  0  0  0  0
  150.8412  143.0098  159.6899 H   0  0  0  0  0  0  0  0  0  0  0  0
  152.3537  145.5111  160.5017 H   0  0  0  0  0  0  0  0  0  0  0  0
  150.6677  145.1229  160.8620 H   0  0  0  0  0  0  0  0  0  0  0  0
  152.6437  144.4864  162.6436 H   0  0  0  0  0  0  0  0  0  0  0  0
  151.3131  143.3595  162.3689 H   0  0  0  0  0  0  0  0  0  0  0  0
  152.9745  141.8983  159.5206 H   0  0  0  0  0  0  0  0  0  0  0  0
  153.8521  143.4295  159.5522 H   0  0  0  0  0  0  0  0  0  0  0  0
  150.0991  142.1588  155.5452 H   0  0  0  0  0  0  0  0  0  0  0  0
  152.9625  139.8409  156.0204 H   0  0  0  0  0  0  0  0  0  0  0  0
  153.0292  137.6251  154.9335 H   0  0  0  0  0  0  0  0  0  0  0  0
  150.9865  136.8001  153.7380 H   0  0  0  0  0  0  0  0  0  0  0  0
  148.8653  142.4587  154.7650 H   0  0  0  0  0  0  0  0  0  0  0  0
  149.0233  141.7538  153.1508 H   0  0  0  0  0  0  0  0  0  0  0  0
  146.4682  142.2369  154.7118 H   0  0  0  0  0  0  0  0  0  0  0  0
  146.8057  142.6837  153.0353 H   0  0  0  0  0  0  0  0  0  0  0  0
  145.4507  140.3812  153.5187 H   0  0  0  0  0  0  0  0  0  0  0  0
  146.7573  140.3707  152.3340 H   0  0  0  0  0  0  0  0  0  0  0  0
  147.6453  138.6932  153.7141 H   0  0  0  0  0  0  0  0  0  0  0  0
  146.8085  139.3071  155.1426 H   0  0  0  0  0  0  0  0  0  0  0  0
  1  2  2  0  0  0  0
  2  3  1  0  0  0  0
  2 10  1  0  0  0  0
  3  4  1  0  0  0  0
  3 22  1  0  0  0  0
  4  5  1  0  0  0  0
  4 23  1  0  0  0  0
  4 24  1  0  0  0  0
  5  9  1  0  0  0  0
  5  6  1  0  0  0  0
  5 25  1  0  0  0  0
  6  7  1  0  0  0  0
  6 26  1  0  0  0  0
  6 27  1  0  0  0  0
  7  8  1  0  0  0  0
  7 28  1  0  0  0  0
  7 29  1  0  0  0  0
  8  9  1  0  0  0  0
  9 30  1  0  0  0  0
  9 31  1  0  0  0  0
 10 11  1  0  0  0  0
 10 32  1  0  0  0  0
 11 16  1  0  0  0  0
 11 12  2  0  0  0  0
 12 13  1  0  0  0  0
 12 33  1  0  0  0  0
 13 14  2  0  0  0  0
 13 34  1  0  0  0  0
 14 15  1  0  0  0  0
 14 35  1  0  0  0  0
 15 16  2  0  0  0  0
 16 17  1  0  0  0  0
 17 21  1  0  0  0  0
 17 18  1  0  0  0  0
 18 19  1  0  0  0  0
 18 36  1  0  0  0  0
 18 37  1  0  0  0  0
 19 20  1  0  0  0  0
 19 38  1  0  0  0  0
 19 39  1  0  0  0  0
 20 21  1  0  0  0  0
 20 40  1  0  0  0  0
 20 41  1  0  0  0  0
 21 42  1  0  0  0  0
 21 43  1  0  0  0  0
M  END
> <s_m_source_file>
AV-unprocessed.smi

> <i_m_source_file_index>
1426

> <i_lp_mmshare_version>
43012

> <i_f3d_flags>
0

> <s_epik_input>
W0NIMl0xT1tDSDJdW0NIMl1bQ0BIXTFbQ0gyXVtOSF1DKD1PKVtOSF1jMltjSF1bY0hdW2NIXW5jMk4zW0NIMl1bQ0gyXVtDSDJdW0NIMl0z

> <s_epik_cmdline>
J2VwaWtfcHl0aG9uJywgJy1waCcsICc3LjAnLCAnLXRuJywgJzgnLCAnLW1hJywgJzIwMCcsICctbWV0YWxfYmluZGluZycsICctaW1hZScsICc8aW5maWxlLm1hZT4nLCAnLW9tYWUnLCAnPG91dGZpbGUubWFlPic=

> <r_lp_tautomer_probability>
1

> <r_epik_Ionization_Penalty>
0.0999657

> <r_epik_Ionization_Penalty_Charging>
0

> <r_epik_Ionization_Penalty_Neutral>
0.0999657

> <r_epik_State_Penalty>
0.0894442

> <r_epik_Charging_Adjusted_Penalty>
0.0894442

> <i_epik_Tot_Q>
0

> <i_epik_Tot_abs_Q>
0

> <r_epik_Metal_State_Penalty>
0.076486

> <b_epik_Metal_Only>
0

> <s_lp_Force_Field>
OPLS_2005

> <r_lp_Energy>
47.443

> <b_lp_Chiralities_Consistent>
1

> <s_lp_Variant>
AV-unprocessed.smi:1426-1

> <Gold.Version>
5.8.1

> <Gold.Id.Protein>
6NUR|6NUR_protein|mol2

> <Gold.PLP.Fitness>
43.9926

> <Gold.PLP.PLP>
-38.7491

> <Gold.PLP.part.hbond>
-1.4932

> <Gold.PLP.part.metal>
0.0000

> <Gold.PLP.part.buried>
4.5074

> <Gold.PLP.part.nonpolar>
-41.5851

> <Gold.PLP.part.repulsive>
0.5200

> <Gold.PLP.ligand.clash>
0.0000

> <Gold.PLP.ligand.torsion>
0.6389

> <Gold.PLP.Chemscore.Hbond>
1.0000

> <Gold.PLP.Chemscore.CHOScore>
1.0625

> <Gold.PLP.Chemscore.Metal>
0.0000

> <Gold.Chemscore.Hbonds>
donor molecule, donor type, donor heavy atom, donor atom, acceptor molecule, acceptor atom, score
      L1  H     3    22       P1  8028  1.00
      L1  C    14    35       P1  7948  0.06
      L1  C    14    35       P1  7949  1.00

> <Gold.PLP.Chemscore.Internal.Correction>
0.3340

> <Gold.Rescore>
     Score         DG    S(hbond)    S(metal)    S(lipo)     H(rot)  DE(clash)    DE(int)     intcor
     10.80     -18.58       0.99        0.00     113.93       1.38       2.69       5.09       ----

> <Gold.Chemscore.Fitness>
10.7965

> <Gold.Chemscore.DG>
-18.5751

> <Gold.Chemscore.ZeroCoef>
-5.4800

> <Gold.Chemscore.Hbond>
0.9872

> <Gold.Chemscore.Metal>
0.0000

> <Gold.Chemscore.Lipo>
113.9278

> <Gold.Chemscore.Internal_Hbond>
0.0000

> <Gold.Chemscore.DEClash>
2.6885

> <Gold.Chemscore.DEInternal>
5.0901

> <Gold.Chemscore.Rot>
1.3796

> <Gold.Chemscore.Internal.Correction>
   9.000000E+99

> <Gold.Chemscore.Hbonds>
donor molecule, donor type, donor heavy atom, donor atom, acceptor molecule, acceptor atom, score
      L1  H     3    22       P1  8028  0.97

> <Gold.Chemscore.Hbond.Weighted>
-3.2972

> <Gold.Chemscore.Metal.Weighted>
-0.0000

> <Gold.Chemscore.Lipo.Weighted>
-13.3295

> <Gold.Chemscore.Internal_Hbond.Weighted>
0.0000

> <Gold.Chemscore.DEClash.Weighted>
2.6885

> <Gold.Chemscore.DEInternal.Weighted>
5.0901

> <Gold.Chemscore.Rot.Weighted>
3.5317

> <Gold.Chemscore.Internal.Correction.Weighted>
   9.000000E+99

> <Gold.Protein.RotatedTorsions>
[ 6907 6896 6895 6894 ] final  157.49 input  -60.11 | X-H torsion
[ 7974 7965 7964 7962 ] final  -59.72 input  175.53 | X-H torsion
[ 8008 7997 7996 7995 ] final  160.28 input   59.86 | X-H torsion
[ 10167 10162 10161 10158 ] final -158.01 input  -65.29 | X-H torsion
[ 10718 10713 10712 10709 ] final  140.60 input   66.30 | X-H torsion
[ 10763 10752 10751 10750 ] final -119.74 input  -60.55 | X-H torsion
[ 11005 11000 10999 10996 ] final  148.73 input  -57.11 | X-H torsion

> <Gold.Protein.ActiveResidues>
 VAL166  LYS551  ARG553  GLY616  TRP617  ASP618  TYR619  PRO620  LYS621  CYS622 
 ASP623  PHE694  ASN695  SER759  ASP760  ASP761  ALA762  ILE779  LEU786  VAL792 
 PHE793  MET794  SER795  GLU796  ALA797  LYS798  CYS799  TRP800  GLU811  SER814 

> <Gold.Protein.RotatedAtoms>
  152.0144  133.3874  159.4232 H   0  0  0  0  0  0  0  0  0  0  0  0  # atno 6907 bound_to 6896
  150.6896  134.3695  159.4995 H   0  0  0  0  0  0  0  0  0  0  0  0  # atno 6908 bound_to 6896
  152.1460  134.9025  160.0601 H   0  0  0  0  0  0  0  0  0  0  0  0  # atno 6909 bound_to 6896
  145.8241  140.8521  143.0117 H   0  0  0  0  0  0  0  0  0  0  0  0  # atno 7974 bound_to 7965
  156.2183  140.1808  156.7538 H   0  0  0  0  0  0  0  0  0  0  0  0  # atno 8008 bound_to 7997
  154.5825  140.0664  156.9153 H   0  0  0  0  0  0  0  0  0  0  0  0  # atno 8009 bound_to 7997
  155.2477  140.3326  155.4288 H   0  0  0  0  0  0  0  0  0  0  0  0  # atno 8010 bound_to 7997
  139.6726  143.9719  152.2292 H   0  0  0  0  0  0  0  0  0  0  0  0  # atno 10167 bound_to 10162
  157.4014  131.1017  151.0547 H   0  0  0  0  0  0  0  0  0  0  0  0  # atno 10718 bound_to 10713
  154.8625  135.4228  154.2347 H   0  0  0  0  0  0  0  0  0  0  0  0  # atno 10763 bound_to 10752
  153.3325  135.6989  153.6941 H   0  0  0  0  0  0  0  0  0  0  0  0  # atno 10764 bound_to 10752
  153.5953  135.3547  155.2899 H   0  0  0  0  0  0  0  0  0  0  0  0  # atno 10765 bound_to 10752
  140.0984  134.8998  157.1759 H   0  0  0  0  0  0  0  0  0  0  0  0  # atno 11005 bound_to 11000
  144.6745  140.0576  143.7477 LP  0  0  0  0  0  0  0  0  0  0  0  0  # atno 17320 bound_to 7965
  145.9642  139.2823  143.1137 LP  0  0  0  0  0  0  0  0  0  0  0  0  # atno 17321 bound_to 7965
  139.9488  144.6634  150.8193 LP  0  0  0  0  0  0  0  0  0  0  0  0  # atno 17342 bound_to 10162
  140.7623  143.3196  151.2653 LP  0  0  0  0  0  0  0  0  0  0  0  0  # atno 17343 bound_to 10162
  157.1545  130.6198  149.5592 LP  0  0  0  0  0  0  0  0  0  0  0  0  # atno 17370 bound_to 10713
  155.9824  130.4838  150.6881 LP  0  0  0  0  0  0  0  0  0  0  0  0  # atno 17371 bound_to 10713
  140.3254  134.2870  155.7238 LP  0  0  0  0  0  0  0  0  0  0  0  0  # atno 17394 bound_to 11000
  141.2099  133.7736  156.9969 LP  0  0  0  0  0  0  0  0  0  0  0  0  # atno 17395 bound_to 11000

$$$$
