AV-unprocessed.smi:3307|AV-procd|sdf|12707|dock7
  -GOLD-   2272019 43D 1   1.00000     0.00000
 Structure written by MMmdl.
 31 32  0  0  0  0  0  0  0  0  2 V2000
  153.6854  140.8227  160.8279 C   0  0  0  0  0  0  0  0  0  0  0  0
  152.9873  142.0385  160.2940 C   0  0  0  0  0  0  0  0  0  0  0  0
  152.7982  143.2974  160.9295 C   0  0  0  0  0  0  0  0  0  0  0  0
  152.1068  144.0381  160.0128 C   0  0  0  0  0  0  0  0  0  0  0  0
  151.6096  145.4441  160.0901 C   0  0  0  0  0  0  0  0  0  0  0  0
  151.9167  143.2302  158.9060 N   0  0  0  0  0  0  0  0  0  0  0  0
  151.2485  143.5349  157.6511 C   0  0  0  0  0  0  0  0  0  0  0  0
  151.0298  142.2822  156.7822 C   0  0  1  0  0  0  0  0  0  0  0  0
  150.3703  141.0978  157.4966 C   0  0  0  0  0  0  0  0  0  0  0  0
  149.7637  140.3051  156.3455 C   0  0  0  0  0  0  0  0  0  0  0  0
  149.3046  141.3930  155.3719 C   0  0  0  0  0  0  0  0  0  0  0  0
  150.1700  142.5650  155.6156 N   0  3  0  0  0  0  0  0  0  0  0  0
  152.4565  142.0051  159.0829 N   0  0  0  0  0  0  0  0  0  0  0  0
  154.0476  140.9898  161.8425 H   0  0  0  0  0  0  0  0  0  0  0  0
  154.5434  140.5588  160.2093 H   0  0  0  0  0  0  0  0  0  0  0  0
  153.0144  139.9638  160.8535 H   0  0  0  0  0  0  0  0  0  0  0  0
  153.1213  143.6091  161.9118 H   0  0  0  0  0  0  0  0  0  0  0  0
  151.8663  145.8947  161.0489 H   0  0  0  0  0  0  0  0  0  0  0  0
  150.5251  145.4798  159.9852 H   0  0  0  0  0  0  0  0  0  0  0  0
  152.0493  146.0577  159.3043 H   0  0  0  0  0  0  0  0  0  0  0  0
  150.2923  144.0122  157.8725 H   0  0  0  0  0  0  0  0  0  0  0  0
  151.8414  144.2731  157.1104 H   0  0  0  0  0  0  0  0  0  0  0  0
  151.9898  141.9457  156.3883 H   0  0  0  0  0  0  0  0  0  0  0  0
  151.0754  140.5134  158.0889 H   0  0  0  0  0  0  0  0  0  0  0  0
  149.5786  141.4468  158.1615 H   0  0  0  0  0  0  0  0  0  0  0  0
  150.5324  139.6887  155.8774 H   0  0  0  0  0  0  0  0  0  0  0  0
  148.9524  139.6488  156.6618 H   0  0  0  0  0  0  0  0  0  0  0  0
  149.3589  141.0672  154.3330 H   0  0  0  0  0  0  0  0  0  0  0  0
  148.2734  141.6784  155.5822 H   0  0  0  0  0  0  0  0  0  0  0  0
  149.5820  143.3611  155.8168 H   0  0  0  0  0  0  0  0  0  0  0  0
  150.7417  142.7616  154.8065 H   0  0  0  0  0  0  0  0  0  0  0  0
  1  2  1  0  0  0  0
  1 14  1  0  0  0  0
  1 15  1  0  0  0  0
  1 16  1  0  0  0  0
  2 13  2  0  0  0  0
  2  3  1  0  0  0  0
  3  4  2  0  0  0  0
  3 17  1  0  0  0  0
  4  5  1  0  0  0  0
  4  6  1  0  0  0  0
  5 18  1  0  0  0  0
  5 19  1  0  0  0  0
  5 20  1  0  0  0  0
  6  7  1  0  0  0  0
  6 13  1  0  0  0  0
  7  8  1  0  0  0  0
  7 21  1  0  0  0  0
  7 22  1  0  0  0  0
  8 12  1  0  0  0  0
  8  9  1  0  0  0  0
  8 23  1  0  0  0  0
  9 10  1  0  0  0  0
  9 24  1  0  0  0  0
  9 25  1  0  0  0  0
 10 11  1  0  0  0  0
 10 26  1  0  0  0  0
 10 27  1  0  0  0  0
 11 12  1  0  0  0  0
 11 28  1  0  0  0  0
 11 29  1  0  0  0  0
 12 30  1  0  0  0  0
 12 31  1  0  0  0  0
M  CHG  1  12   1
M  END
> <s_m_source_file>
AV-unprocessed.smi

> <i_m_source_file_index>
3307

> <i_lp_mmshare_version>
43012

> <i_f3d_flags>
0

> <s_epik_input>
W0NIM11jMVtjSF1jKFtDSDNdKW4objEpW0NIMl1bQ0BASF0yW0NIMl1bQ0gyXVtDSDJdW05IXTI=

> <s_epik_cmdline>
J2VwaWtfcHl0aG9uJywgJy1waCcsICc3LjAnLCAnLXRuJywgJzgnLCAnLW1hJywgJzIwMCcsICctbWV0YWxfYmluZGluZycsICctaW1hZScsICc8aW5maWxlLm1hZT4nLCAnLW9tYWUnLCAnPG91dGZpbGUubWFlPic=

> <r_lp_tautomer_probability>
1

> <r_epik_Ionization_Penalty>
0.000974324

> <r_epik_Ionization_Penalty_Charging>
0.000863359

> <r_epik_Ionization_Penalty_Neutral>
0.000110964

> <r_epik_State_Penalty>
-0

> <r_epik_Charging_Adjusted_Penalty>
0.000863359

> <i_epik_Tot_Q>
1

> <i_epik_Tot_abs_Q>
1

> <r_epik_Metal_State_Penalty>
-0

> <b_epik_Metal_Only>
0

> <s_lp_Force_Field>
OPLS_2005

> <r_lp_Energy>
22.7328

> <b_lp_Chiralities_Consistent>
1

> <s_lp_Variant>
AV-unprocessed.smi:3307-2

> <Gold.Version>
5.8.1

> <Gold.Id.Protein>
6NUR|6NUR_protein|mol2

> <Gold.PLP.Fitness>
38.7158

> <Gold.PLP.PLP>
-33.0122

> <Gold.PLP.part.hbond>
-0.9039

> <Gold.PLP.part.metal>
0.0000

> <Gold.PLP.part.buried>
-3.6374

> <Gold.PLP.part.nonpolar>
-29.2453

> <Gold.PLP.part.repulsive>
0.1876

> <Gold.PLP.ligand.clash>
0.0000

> <Gold.PLP.ligand.torsion>
0.1483

> <Gold.PLP.Chemscore.Hbond>
2.0000

> <Gold.PLP.Chemscore.CHOScore>
0.0000

> <Gold.PLP.Chemscore.Metal>
0.0000

> <Gold.Chemscore.Hbonds>
donor molecule, donor type, donor heavy atom, donor atom, acceptor molecule, acceptor atom, score
      L1  H    12    30       P1  8028  2.00

> <Gold.PLP.Chemscore.Internal.Correction>
0.0001

> <Gold.Rescore>
     Score         DG    S(hbond)    S(metal)    S(lipo)     H(rot)  DE(clash)    DE(int)     intcor
     14.78     -16.30       1.00        0.00      89.39       1.16       0.03       1.49       ----

> <Gold.Chemscore.Fitness>
14.7772

> <Gold.Chemscore.DG>
-16.3014

> <Gold.Chemscore.ZeroCoef>
-5.4800

> <Gold.Chemscore.Hbond>
0.9998

> <Gold.Chemscore.Metal>
0.0000

> <Gold.Chemscore.Lipo>
89.3910

> <Gold.Chemscore.Internal_Hbond>
0.0000

> <Gold.Chemscore.DEClash>
0.0300

> <Gold.Chemscore.DEInternal>
1.4942

> <Gold.Chemscore.Rot>
1.1628

> <Gold.Chemscore.Internal.Correction>
   9.000000E+99

> <Gold.Chemscore.Hbonds>
donor molecule, donor type, donor heavy atom, donor atom, acceptor molecule, acceptor atom, score
      L1  H    12    30       P1  8028  0.93

> <Gold.Chemscore.Hbond.Weighted>
-3.3395

> <Gold.Chemscore.Metal.Weighted>
-0.0000

> <Gold.Chemscore.Lipo.Weighted>
-10.4587

> <Gold.Chemscore.Internal_Hbond.Weighted>
0.0000

> <Gold.Chemscore.DEClash.Weighted>
0.0300

> <Gold.Chemscore.DEInternal.Weighted>
1.4942

> <Gold.Chemscore.Rot.Weighted>
2.9768

> <Gold.Chemscore.Internal.Correction.Weighted>
   9.000000E+99

> <Gold.Protein.RotatedTorsions>
[ 6907 6896 6895 6894 ] final  138.69 input  -60.11 | X-H torsion
[ 7974 7965 7964 7962 ] final  177.48 input  175.53 | X-H torsion
[ 8008 7997 7996 7995 ] final   30.75 input   59.86 | X-H torsion
[ 10167 10162 10161 10158 ] final -147.22 input  -65.29 | X-H torsion
[ 10718 10713 10712 10709 ] final   39.33 input   66.30 | X-H torsion
[ 10763 10752 10751 10750 ] final  177.43 input  -60.55 | X-H torsion
[ 11005 11000 10999 10996 ] final  -49.05 input  -57.11 | X-H torsion

> <Gold.Protein.ActiveResidues>
 VAL166  LYS551  ARG553  GLY616  TRP617  ASP618  TYR619  PRO620  LYS621  CYS622 
 ASP623  PHE694  ASN695  SER759  ASP760  ASP761  ALA762  ILE779  LEU786  VAL792 
 PHE793  MET794  SER795  GLU796  ALA797  LYS798  CYS799  TRP800  GLU811  SER814 

> <Gold.Protein.RotatedAtoms>
  152.2636  133.5319  159.5396 H   0  0  0  0  0  0  0  0  0  0  0  0  # atno 6907 bound_to 6896
  150.7134  134.0795  159.3902 H   0  0  0  0  0  0  0  0  0  0  0  0  # atno 6908 bound_to 6896
  151.8712  135.0489  160.0530 H   0  0  0  0  0  0  0  0  0  0  0  0  # atno 6909 bound_to 6896
  144.7168  140.0253  143.6439 H   0  0  0  0  0  0  0  0  0  0  0  0  # atno 7974 bound_to 7965
  155.0953  140.3224  155.4562 H   0  0  0  0  0  0  0  0  0  0  0  0  # atno 8008 bound_to 7997
  156.2731  140.2070  156.6027 H   0  0  0  0  0  0  0  0  0  0  0  0  # atno 8009 bound_to 7997
  154.6871  140.0520  157.0313 H   0  0  0  0  0  0  0  0  0  0  0  0  # atno 8010 bound_to 7997
  139.7641  143.8333  152.2613 H   0  0  0  0  0  0  0  0  0  0  0  0  # atno 10167 bound_to 10162
  157.3693  130.7692  149.7107 H   0  0  0  0  0  0  0  0  0  0  0  0  # atno 10718 bound_to 10713
  154.4944  135.2780  155.1471 H   0  0  0  0  0  0  0  0  0  0  0  0  # atno 10763 bound_to 10752
  154.3129  135.6225  153.5477 H   0  0  0  0  0  0  0  0  0  0  0  0  # atno 10764 bound_to 10752
  152.9893  135.5724  154.5373 H   0  0  0  0  0  0  0  0  0  0  0  0  # atno 10765 bound_to 10752
  141.0737  133.6672  156.3530 H   0  0  0  0  0  0  0  0  0  0  0  0  # atno 11005 bound_to 11000
  146.0147  139.3199  143.0849 LP  0  0  0  0  0  0  0  0  0  0  0  0  # atno 17320 bound_to 7965
  145.8640  140.9458  143.0685 LP  0  0  0  0  0  0  0  0  0  0  0  0  # atno 17321 bound_to 7965
  139.8348  144.7237  150.9405 LP  0  0  0  0  0  0  0  0  0  0  0  0  # atno 17342 bound_to 10162
  140.7809  143.4037  151.1107 LP  0  0  0  0  0  0  0  0  0  0  0  0  # atno 17343 bound_to 10162
  155.9752  130.4092  150.3864 LP  0  0  0  0  0  0  0  0  0  0  0  0  # atno 17370 bound_to 10713
  157.1953  131.0425  151.2679 LP  0  0  0  0  0  0  0  0  0  0  0  0  # atno 17371 bound_to 10713
  140.5620  134.5925  157.5436 LP  0  0  0  0  0  0  0  0  0  0  0  0  # atno 17394 bound_to 11000
  139.9549  134.7552  156.0364 LP  0  0  0  0  0  0  0  0  0  0  0  0  # atno 17395 bound_to 11000

$$$$
