AV-unprocessed.smi:842|AV-procd|sdf|3920|dock2
  -GOLD-   22720 1383D 1   1.00000     0.00000
 Structure written by MMmdl.
 43 44  0  0  0  0  0  0  0  0  2 V2000
  145.8667  135.1139  151.4150 C   0  0  0  0  0  0  0  0  0  0  0  0
  145.9450  136.4730  150.7038 C   0  0  0  0  0  0  0  0  0  0  0  0
  145.8550  137.6804  151.6594 C   0  0  1  0  0  0  0  0  0  0  0  0
  144.7742  137.4881  152.7420 C   0  0  0  0  0  0  0  0  0  0  0  0
  143.4853  137.6639  152.1928 O   0  0  0  0  0  0  0  0  0  0  0  0
  147.1538  137.9140  152.2888 N   0  0  0  0  0  0  0  0  0  0  0  0
  147.4429  138.9194  153.1272 C   0  0  0  0  0  0  0  0  0  0  0  0
  146.6218  139.7641  153.4831 O   0  0  0  0  0  0  0  0  0  0  0  0
  148.7331  138.8806  153.5025 N   0  0  0  0  0  0  0  0  0  0  0  0
  149.4372  139.7694  154.3601 C   0  0  0  0  0  0  0  0  0  0  0  0
  150.5013  139.2409  155.1209 C   0  0  0  0  0  0  0  0  0  0  0  0
  151.2266  140.0795  155.9918 C   0  0  0  0  0  0  0  0  0  0  0  0
  150.8739  141.4448  156.1043 C   0  0  0  0  0  0  0  0  0  0  0  0
  151.5577  142.3426  156.9455 N   0  0  0  0  0  0  0  0  0  0  0  0
  151.3752  143.7811  156.8380 C   0  0  0  0  0  0  0  0  0  0  0  0
  152.1780  144.3573  158.0033 C   0  0  0  0  0  0  0  0  0  0  0  0
  152.0512  143.2784  159.0797 C   0  0  0  0  0  0  0  0  0  0  0  0
  151.9701  141.9661  158.2901 C   0  0  0  0  0  0  0  0  0  0  0  0
  149.8401  141.9079  155.3623 N   0  3  0  0  0  0  0  0  0  0  0  0
  149.1202  141.1404  154.5157 C   0  0  0  0  0  0  0  0  0  0  0  0
  145.9818  134.2978  150.7014 H   0  0  0  0  0  0  0  0  0  0  0  0
  144.9095  134.9763  151.9181 H   0  0  0  0  0  0  0  0  0  0  0  0
  146.6557  135.0155  152.1609 H   0  0  0  0  0  0  0  0  0  0  0  0
  146.8848  136.5184  150.1528 H   0  0  0  0  0  0  0  0  0  0  0  0
  145.1538  136.5338  149.9555 H   0  0  0  0  0  0  0  0  0  0  0  0
  145.5981  138.5604  151.0658 H   0  0  0  0  0  0  0  0  0  0  0  0
  144.8471  136.5012  153.2005 H   0  0  0  0  0  0  0  0  0  0  0  0
  144.8921  138.2224  153.5398 H   0  0  0  0  0  0  0  0  0  0  0  0
  143.5525  138.2422  151.4484 H   0  0  0  0  0  0  0  0  0  0  0  0
  147.8912  137.2674  152.0500 H   0  0  0  0  0  0  0  0  0  0  0  0
  149.2925  138.1556  153.0777 H   0  0  0  0  0  0  0  0  0  0  0  0
  150.7699  138.1979  155.0347 H   0  0  0  0  0  0  0  0  0  0  0  0
  152.0486  139.6660  156.5575 H   0  0  0  0  0  0  0  0  0  0  0  0
  151.7266  144.1635  155.8791 H   0  0  0  0  0  0  0  0  0  0  0  0
  150.3166  144.0230  156.9423 H   0  0  0  0  0  0  0  0  0  0  0  0
  153.2239  144.4662  157.7132 H   0  0  0  0  0  0  0  0  0  0  0  0
  151.8144  145.3323  158.3287 H   0  0  0  0  0  0  0  0  0  0  0  0
  152.8753  143.2914  159.7935 H   0  0  0  0  0  0  0  0  0  0  0  0
  151.1250  143.4278  159.6365 H   0  0  0  0  0  0  0  0  0  0  0  0
  151.2703  141.2725  158.7577 H   0  0  0  0  0  0  0  0  0  0  0  0
  152.9476  141.4857  158.2375 H   0  0  0  0  0  0  0  0  0  0  0  0
  148.3197  141.6585  154.0101 H   0  0  0  0  0  0  0  0  0  0  0  0
  149.5879  142.8928  155.4474 H   0  0  0  0  0  0  0  0  0  0  0  0
  1  2  1  0  0  0  0
  1 21  1  0  0  0  0
  1 22  1  0  0  0  0
  1 23  1  0  0  0  0
  2  3  1  0  0  0  0
  2 24  1  0  0  0  0
  2 25  1  0  0  0  0
  3  4  1  0  0  0  0
  3  6  1  0  0  0  0
  3 26  1  0  0  0  0
  4  5  1  0  0  0  0
  4 27  1  0  0  0  0
  4 28  1  0  0  0  0
  5 29  1  0  0  0  0
  6  7  1  0  0  0  0
  6 30  1  0  0  0  0
  7  8  2  0  0  0  0
  7  9  1  0  0  0  0
  9 10  1  0  0  0  0
  9 31  1  0  0  0  0
 10 20  1  0  0  0  0
 10 11  2  0  0  0  0
 11 12  1  0  0  0  0
 11 32  1  0  0  0  0
 12 13  2  0  0  0  0
 12 33  1  0  0  0  0
 13 14  1  0  0  0  0
 13 19  1  0  0  0  0
 14 18  1  0  0  0  0
 14 15  1  0  0  0  0
 15 16  1  0  0  0  0
 15 34  1  0  0  0  0
 15 35  1  0  0  0  0
 16 17  1  0  0  0  0
 16 36  1  0  0  0  0
 16 37  1  0  0  0  0
 17 18  1  0  0  0  0
 17 38  1  0  0  0  0
 17 39  1  0  0  0  0
 18 40  1  0  0  0  0
 18 41  1  0  0  0  0
 19 20  2  0  0  0  0
 19 43  1  0  0  0  0
 20 42  1  0  0  0  0
M  CHG  1  19   1
M  END
> <s_m_source_file>
AV-unprocessed.smi

> <i_m_source_file_index>
842

> <i_lp_mmshare_version>
43012

> <i_f3d_flags>
0

> <s_epik_input>
W0NIM11bQ0gyXVtDQEhdKFtDSDJdW09IXSlbTkhdQyg9TylbTkhdYzFbY0hdW2NIXWMobltjSF0xKU4yW0NIMl1bQ0gyXVtDSDJdW0NIMl0y

> <s_epik_cmdline>
J2VwaWtfcHl0aG9uJywgJy1waCcsICc3LjAnLCAnLXRuJywgJzgnLCAnLW1hJywgJzIwMCcsICctbWV0YWxfYmluZGluZycsICctaW1hZScsICc8aW5maWxlLm1hZT4nLCAnLW9tYWUnLCAnPG91dGZpbGUubWFlPic=

> <r_lp_tautomer_probability>
0.999994

> <r_epik_Ionization_Penalty>
1.10848

> <r_epik_Ionization_Penalty_Charging>
1.10846

> <r_epik_Ionization_Penalty_Neutral>
2.01032e-05

> <r_epik_State_Penalty>
1.16624

> <r_epik_Charging_Adjusted_Penalty>
2.2747

> <i_epik_Tot_Q>
1

> <i_epik_Tot_abs_Q>
1

> <r_epik_Metal_State_Penalty>
1.25257

> <b_epik_Metal_Only>
0

> <s_lp_Force_Field>
OPLS_2005

> <r_lp_Energy>
34.6979

> <b_lp_Chiralities_Consistent>
1

> <s_lp_Variant>
AV-unprocessed.smi:842-4

> <Gold.Version>
5.8.1

> <Gold.Id.Protein>
6NUR|6NUR_protein|mol2

> <Gold.PLP.Fitness>
51.9096

> <Gold.PLP.PLP>
-40.7546

> <Gold.PLP.part.hbond>
-5.5971

> <Gold.PLP.part.metal>
0.0000

> <Gold.PLP.part.buried>
1.5728

> <Gold.PLP.part.nonpolar>
-37.2488

> <Gold.PLP.part.repulsive>
0.4897

> <Gold.PLP.ligand.clash>
0.0000

> <Gold.PLP.ligand.torsion>
0.8639

> <Gold.PLP.Chemscore.Hbond>
4.2078

> <Gold.PLP.Chemscore.CHOScore>
0.0000

> <Gold.PLP.Chemscore.Metal>
0.0000

> <Gold.Chemscore.Hbonds>
donor molecule, donor type, donor heavy atom, donor atom, acceptor molecule, acceptor atom, score
      L1  H     5    29       P1 10171  1.00
      L1  H     6    30       P1  7948  0.86
      L1  H     9    31       P1  7948  0.32
      L1  H    19    43       P1  8028  2.00

> <Gold.PLP.Chemscore.Internal.Correction>
0.2593

> <Gold.Rescore>
     Score         DG    S(hbond)    S(metal)    S(lipo)     H(rot)  DE(clash)    DE(int)     intcor
     18.10     -22.12       3.13        0.00      97.14       2.02       2.64       1.38       ----

> <Gold.Chemscore.Fitness>
18.0971

> <Gold.Chemscore.DG>
-22.1170

> <Gold.Chemscore.ZeroCoef>
-5.4800

> <Gold.Chemscore.Hbond>
3.1289

> <Gold.Chemscore.Metal>
0.0000

> <Gold.Chemscore.Lipo>
97.1395

> <Gold.Chemscore.Internal_Hbond>
0.0000

> <Gold.Chemscore.DEClash>
2.6415

> <Gold.Chemscore.DEInternal>
1.3784

> <Gold.Chemscore.Rot>
2.0230

> <Gold.Chemscore.Internal.Correction>
   9.000000E+99

> <Gold.Chemscore.Hbonds>
donor molecule, donor type, donor heavy atom, donor atom, acceptor molecule, acceptor atom, score
      L1  H     5    29       P1 10171  0.80
      L1  H     6    30       P1  7948  0.84
      L1  H     9    31       P1  7948  0.31
      L1  H    19    43       P1  8028  0.98

> <Gold.Chemscore.Hbond.Weighted>
-10.4507

> <Gold.Chemscore.Metal.Weighted>
-0.0000

> <Gold.Chemscore.Lipo.Weighted>
-11.3653

> <Gold.Chemscore.Internal_Hbond.Weighted>
0.0000

> <Gold.Chemscore.DEClash.Weighted>
2.6415

> <Gold.Chemscore.DEInternal.Weighted>
1.3784

> <Gold.Chemscore.Rot.Weighted>
5.1790

> <Gold.Chemscore.Internal.Correction.Weighted>
   9.000000E+99

> <Gold.Protein.RotatedTorsions>
[ 6907 6896 6895 6894 ] final  121.17 input  -60.11 | X-H torsion
[ 7974 7965 7964 7962 ] final -139.99 input  175.53 | X-H torsion
[ 8008 7997 7996 7995 ] final   82.95 input   59.86 | X-H torsion
[ 10167 10162 10161 10158 ] final   32.41 input  -65.29 | X-H torsion
[ 10718 10713 10712 10709 ] final  -26.15 input   66.30 | X-H torsion
[ 10763 10752 10751 10750 ] final   67.94 input  -60.55 | X-H torsion
[ 11005 11000 10999 10996 ] final  139.01 input  -57.11 | X-H torsion

> <Gold.Protein.ActiveResidues>
 VAL166  LYS551  ARG553  GLY616  TRP617  ASP618  TYR619  PRO620  LYS621  CYS622 
 ASP623  PHE694  ASN695  SER759  ASP760  ASP761  ALA762  ILE779  LEU786  VAL792 
 PHE793  MET794  SER795  GLU796  ALA797  LYS798  CYS799  TRP800  GLU811  SER814 

> <Gold.Protein.RotatedAtoms>
  152.4342  133.7331  159.6598 H   0  0  0  0  0  0  0  0  0  0  0  0  # atno 6907 bound_to 6896
  150.8224  133.8219  159.3139 H   0  0  0  0  0  0  0  0  0  0  0  0  # atno 6908 bound_to 6896
  151.5897  135.1056  160.0088 H   0  0  0  0  0  0  0  0  0  0  0  0  # atno 6909 bound_to 6896
  144.8633  140.6253  143.5314 H   0  0  0  0  0  0  0  0  0  0  0  0  # atno 7974 bound_to 7965
  155.9174  140.3423  155.6146 H   0  0  0  0  0  0  0  0  0  0  0  0  # atno 8008 bound_to 7997
  155.7315  140.0796  157.2305 H   0  0  0  0  0  0  0  0  0  0  0  0  # atno 8009 bound_to 7997
  154.4064  140.1587  156.2501 H   0  0  0  0  0  0  0  0  0  0  0  0  # atno 8010 bound_to 7997
  140.4501  144.1061  150.6190 H   0  0  0  0  0  0  0  0  0  0  0  0  # atno 10167 bound_to 10162
  156.4550  130.4492  149.6965 H   0  0  0  0  0  0  0  0  0  0  0  0  # atno 10718 bound_to 10713
  153.0211  135.5265  154.7058 H   0  0  0  0  0  0  0  0  0  0  0  0  # atno 10763 bound_to 10752
  154.6154  135.2883  155.0388 H   0  0  0  0  0  0  0  0  0  0  0  0  # atno 10764 bound_to 10752
  154.1394  135.6580  153.4991 H   0  0  0  0  0  0  0  0  0  0  0  0  # atno 10765 bound_to 10752
  140.0224  134.9390  157.0501 H   0  0  0  0  0  0  0  0  0  0  0  0  # atno 11005 bound_to 11000
  145.4271  139.1555  143.4043 LP  0  0  0  0  0  0  0  0  0  0  0  0  # atno 17320 bound_to 7965
  146.2877  140.4385  142.8751 LP  0  0  0  0  0  0  0  0  0  0  0  0  # atno 17321 bound_to 7965
  140.4217  143.2608  151.9707 LP  0  0  0  0  0  0  0  0  0  0  0  0  # atno 17342 bound_to 10162
  139.4796  144.5825  151.7909 LP  0  0  0  0  0  0  0  0  0  0  0  0  # atno 17343 bound_to 10162
  156.3776  130.7562  151.2552 LP  0  0  0  0  0  0  0  0  0  0  0  0  # atno 17370 bound_to 10713
  157.7501  131.0305  150.4140 LP  0  0  0  0  0  0  0  0  0  0  0  0  # atno 17371 bound_to 10713
  140.4364  134.1727  155.7171 LP  0  0  0  0  0  0  0  0  0  0  0  0  # atno 17394 bound_to 11000
  141.1782  133.8469  157.1349 LP  0  0  0  0  0  0  0  0  0  0  0  0  # atno 17395 bound_to 11000

$$$$
