AV-unprocessed.smi:260|AV-procd|sdf|1978|dock8
  -GOLD-   2262021153D 1   1.00000     0.00000
 Structure written by MMmdl.
 53 56  0  0  0  0  0  0  0  0  1 V2000
  147.9478  145.2964  161.2972 C   0  0  0  0  0  0  0  0  0  0  0  0
  149.3258  145.2432  160.8346 N   0  0  0  0  0  0  0  0  0  0  0  0
  149.7941  144.3550  159.9434 C   0  0  0  0  0  0  0  0  0  0  0  0
  149.0738  143.4879  159.4467 O   0  0  0  0  0  0  0  0  0  0  0  0
  151.2910  144.4260  159.5423 C   0  0  2  0  0  0  0  0  0  0  0  0
  151.9115  145.6963  160.1558 C   0  0  0  0  0  0  0  0  0  0  0  0
  151.5453  144.3320  158.0204 C   0  0  0  0  0  0  0  0  0  0  0  0
  151.5164  142.8302  157.7080 C   0  0  0  0  0  0  0  0  0  0  0  0
  151.8124  142.1655  158.9693 N   0  0  0  0  0  0  0  0  0  0  0  0
  152.4280  140.9550  158.9995 C   0  0  0  0  0  0  0  0  0  0  0  0
  152.2491  140.1048  157.9538 N   0  0  0  0  0  0  0  0  0  0  0  0
  152.8328  138.9034  157.9467 C   0  0  0  0  0  0  0  0  0  0  0  0
  153.6294  138.3581  158.8668 N   0  0  0  0  0  0  0  0  0  0  0  0
  153.8275  139.2085  159.9136 C   0  0  0  0  0  0  0  0  0  0  0  0
  153.2731  140.5132  160.0605 C   0  0  0  0  0  0  0  0  0  0  0  0
  153.7138  141.0741  161.2551 N   0  0  0  0  0  0  0  0  0  0  0  0
  154.4714  140.1538  161.7858 C   0  0  0  0  0  0  0  0  0  0  0  0
  154.5913  138.9992  161.0484 N   0  0  0  0  0  0  0  0  0  0  0  0
  155.3641  137.8218  161.4049 C   0  0  0  0  0  0  0  0  0  0  0  0
  154.4773  136.5766  161.6004 C   0  0  1  0  0  0  0  0  0  0  0  0
  154.1581  136.0281  160.3360 O   0  0  0  0  0  0  0  0  0  0  0  0
  155.1686  135.4950  162.4504 C   0  0  2  0  0  0  0  0  0  0  0  0
  154.6664  134.0718  162.1993 C   0  0  0  0  0  0  0  0  0  0  0  0
  154.9734  133.3470  163.5004 C   0  0  0  0  0  0  0  0  0  0  0  0
  155.2393  134.4751  164.5007 C   0  0  0  0  0  0  0  0  0  0  0  0
  154.8632  135.6673  163.8257 O   0  0  0  0  0  0  0  0  0  0  0  0
  152.0235  143.1565  160.0179 C   0  0  0  0  0  0  0  0  0  0  0  0
  147.8406  146.0714  162.0561 H   0  0  0  0  0  0  0  0  0  0  0  0
  147.6463  144.3443  161.7362 H   0  0  0  0  0  0  0  0  0  0  0  0
  147.2729  145.5295  160.4725 H   0  0  0  0  0  0  0  0  0  0  0  0
  149.9657  145.9288  161.2088 H   0  0  0  0  0  0  0  0  0  0  0  0
  152.9761  145.7672  159.9303 H   0  0  0  0  0  0  0  0  0  0  0  0
  151.8106  145.7103  161.2418 H   0  0  0  0  0  0  0  0  0  0  0  0
  151.4352  146.5966  159.7660 H   0  0  0  0  0  0  0  0  0  0  0  0
  150.8544  144.9059  157.4020 H   0  0  0  0  0  0  0  0  0  0  0  0
  152.5425  144.7136  157.7963 H   0  0  0  0  0  0  0  0  0  0  0  0
  150.5260  142.5235  157.3703 H   0  0  0  0  0  0  0  0  0  0  0  0
  152.2384  142.5814  156.9294 H   0  0  0  0  0  0  0  0  0  0  0  0
  152.6314  138.2912  157.0800 H   0  0  0  0  0  0  0  0  0  0  0  0
  154.9650  140.2915  162.7370 H   0  0  0  0  0  0  0  0  0  0  0  0
  156.1135  137.6425  160.6329 H   0  0  0  0  0  0  0  0  0  0  0  0
  155.9113  138.0438  162.3219 H   0  0  0  0  0  0  0  0  0  0  0  0
  153.5447  136.8720  162.0834 H   0  0  0  0  0  0  0  0  0  0  0  0
  154.9612  135.8919  159.8570 H   0  0  0  0  0  0  0  0  0  0  0  0
  156.2520  135.5375  162.3202 H   0  0  0  0  0  0  0  0  0  0  0  0
  153.5885  134.0767  162.0317 H   0  0  0  0  0  0  0  0  0  0  0  0
  155.1381  133.6060  161.3338 H   0  0  0  0  0  0  0  0  0  0  0  0
  154.1332  132.7231  163.8068 H   0  0  0  0  0  0  0  0  0  0  0  0
  155.8503  132.7060  163.4031 H   0  0  0  0  0  0  0  0  0  0  0  0
  154.6767  134.3556  165.4268 H   0  0  0  0  0  0  0  0  0  0  0  0
  156.3002  134.5229  164.7508 H   0  0  0  0  0  0  0  0  0  0  0  0
  153.0925  143.3461  160.1275 H   0  0  0  0  0  0  0  0  0  0  0  0
  151.6534  142.7924  160.9774 H   0  0  0  0  0  0  0  0  0  0  0  0
  1  2  1  0  0  0  0
  1 28  1  0  0  0  0
  1 29  1  0  0  0  0
  1 30  1  0  0  0  0
  2  3  1  0  0  0  0
  2 31  1  0  0  0  0
  3  4  2  0  0  0  0
  3  5  1  0  0  0  0
  5 27  1  0  0  0  0
  5  6  1  0  0  0  0
  5  7  1  0  0  0  0
  6 32  1  0  0  0  0
  6 33  1  0  0  0  0
  6 34  1  0  0  0  0
  7  8  1  0  0  0  0
  7 35  1  0  0  0  0
  7 36  1  0  0  0  0
  8  9  1  0  0  0  0
  8 37  1  0  0  0  0
  8 38  1  0  0  0  0
  9 10  1  0  0  0  0
  9 27  1  0  0  0  0
 10 15  1  0  0  0  0
 10 11  2  0  0  0  0
 11 12  1  0  0  0  0
 12 13  2  0  0  0  0
 12 39  1  0  0  0  0
 13 14  1  0  0  0  0
 14 18  1  0  0  0  0
 14 15  2  0  0  0  0
 15 16  1  0  0  0  0
 16 17  2  0  0  0  0
 17 18  1  0  0  0  0
 17 40  1  0  0  0  0
 18 19  1  0  0  0  0
 19 20  1  0  0  0  0
 19 41  1  0  0  0  0
 19 42  1  0  0  0  0
 20 21  1  0  0  0  0
 20 22  1  0  0  0  0
 20 43  1  0  0  0  0
 21 44  1  0  0  0  0
 22 26  1  0  0  0  0
 22 23  1  0  0  0  0
 22 45  1  0  0  0  0
 23 24  1  0  0  0  0
 23 46  1  0  0  0  0
 23 47  1  0  0  0  0
 24 25  1  0  0  0  0
 24 48  1  0  0  0  0
 24 49  1  0  0  0  0
 25 26  1  0  0  0  0
 25 50  1  0  0  0  0
 25 51  1  0  0  0  0
 27 52  1  0  0  0  0
 27 53  1  0  0  0  0
M  END
> <s_m_source_file>
AV-unprocessed.smi

> <i_m_source_file_index>
260

> <i_lp_mmshare_version>
43012

> <i_f3d_flags>
0

> <s_epik_input>
W0NIM11bTkhdQyg9TylbQ0BAXTEoW0NIM10pW0NIMl1bQ0gyXU4oW0NIMl0xKWMobltjSF1uMiljKGMyMyluW2NIXW4zW0NIMl1bQ0BIXShbT0hdKVtDQEBIXTRbQ0gyXVtDSDJdW0NIMl1PNA==

> <s_epik_cmdline>
J2VwaWtfcHl0aG9uJywgJy1waCcsICc3LjAnLCAnLXRuJywgJzgnLCAnLW1hJywgJzIwMCcsICctbWV0YWxfYmluZGluZycsICctaW1hZScsICc8aW5maWxlLm1hZT4nLCAnLW9tYWUnLCAnPG91dGZpbGUubWFlPic=

> <r_lp_tautomer_probability>
1

> <r_epik_Ionization_Penalty>
0.00115068

> <r_epik_Ionization_Penalty_Charging>
0

> <r_epik_Ionization_Penalty_Neutral>
0.00115068

> <r_epik_State_Penalty>
0.000668876

> <r_epik_Charging_Adjusted_Penalty>
0.000668876

> <i_epik_Tot_Q>
0

> <i_epik_Tot_abs_Q>
0

> <r_epik_Metal_State_Penalty>
-0

> <b_epik_Metal_Only>
0

> <s_lp_Force_Field>
OPLS_2005

> <r_lp_Energy>
50.1788

> <b_lp_Chiralities_Consistent>
1

> <s_lp_Variant>
AV-unprocessed.smi:260-4

> <Gold.Version>
5.8.1

> <Gold.Id.Protein>
6NUR|6NUR_protein|mol2

> <Gold.PLP.Fitness>
48.8479

> <Gold.PLP.PLP>
-49.5635

> <Gold.PLP.part.hbond>
-2.8543

> <Gold.PLP.part.metal>
0.0000

> <Gold.PLP.part.buried>
-8.8519

> <Gold.PLP.part.nonpolar>
-39.7489

> <Gold.PLP.part.repulsive>
0.4211

> <Gold.PLP.ligand.clash>
1.4271

> <Gold.PLP.ligand.torsion>
1.3240

> <Gold.PLP.Chemscore.Hbond>
1.0046

> <Gold.PLP.Chemscore.CHOScore>
0.0000

> <Gold.PLP.Chemscore.Metal>
0.0000

> <Gold.Chemscore.Hbonds>
donor molecule, donor type, donor heavy atom, donor atom, acceptor molecule, acceptor atom, score
      P1  H  6896  6909       L1    21  0.59
      P1  H  6933  6944       L1     4  0.09

> <Gold.PLP.Chemscore.Internal.Correction>
0.3457

> <Gold.Rescore>
     Score         DG    S(hbond)    S(metal)    S(lipo)     H(rot)  DE(clash)    DE(int)     intcor
     11.46     -14.83       0.99        0.00     106.97       2.53       0.16       3.21       ----

> <Gold.Chemscore.Fitness>
11.4622

> <Gold.Chemscore.DG>
-14.8251

> <Gold.Chemscore.ZeroCoef>
-5.4800

> <Gold.Chemscore.Hbond>
0.9869

> <Gold.Chemscore.Metal>
0.0000

> <Gold.Chemscore.Lipo>
106.9684

> <Gold.Chemscore.Internal_Hbond>
0.0000

> <Gold.Chemscore.DEClash>
0.1575

> <Gold.Chemscore.DEInternal>
3.2053

> <Gold.Chemscore.Rot>
2.5259

> <Gold.Chemscore.Internal.Correction>
   9.000000E+99

> <Gold.Chemscore.Hbonds>
donor molecule, donor type, donor heavy atom, donor atom, acceptor molecule, acceptor atom, score
      P1  H  6896  6909       L1    21  0.57
      P1  H  6933  6944       L1     4  0.02

> <Gold.Chemscore.Hbond.Weighted>
-3.2961

> <Gold.Chemscore.Metal.Weighted>
-0.0000

> <Gold.Chemscore.Lipo.Weighted>
-12.5153

> <Gold.Chemscore.Internal_Hbond.Weighted>
0.0000

> <Gold.Chemscore.DEClash.Weighted>
0.1575

> <Gold.Chemscore.DEInternal.Weighted>
3.2053

> <Gold.Chemscore.Rot.Weighted>
6.4663

> <Gold.Chemscore.Internal.Correction.Weighted>
   9.000000E+99

> <Gold.Protein.RotatedTorsions>
[ 6907 6896 6895 6894 ] final  170.82 input  -60.11 | X-H torsion
[ 7974 7965 7964 7962 ] final  -27.56 input  175.53 | X-H torsion
[ 8008 7997 7996 7995 ] final   58.72 input   59.86 | X-H torsion
[ 10167 10162 10161 10158 ] final  -55.49 input  -65.29 | X-H torsion
[ 10718 10713 10712 10709 ] final  -47.17 input   66.30 | X-H torsion
[ 10763 10752 10751 10750 ] final  163.85 input  -60.55 | X-H torsion
[ 11005 11000 10999 10996 ] final  158.92 input  -57.11 | X-H torsion

> <Gold.Protein.ActiveResidues>
 VAL166  LYS551  ARG553  GLY616  TRP617  ASP618  TYR619  PRO620  LYS621  CYS622 
 ASP623  PHE694  ASN695  SER759  ASP760  ASP761  ALA762  ILE779  LEU786  VAL792 
 PHE793  MET794  SER795  GLU796  ALA797  LYS798  CYS799  TRP800  GLU811  SER814 

> <Gold.Protein.RotatedAtoms>
  151.8100  133.3380  159.3552 H   0  0  0  0  0  0  0  0  0  0  0  0  # atno 6907 bound_to 6896
  150.7329  134.5672  159.5881 H   0  0  0  0  0  0  0  0  0  0  0  0  # atno 6908 bound_to 6896
  152.3081  134.7531  160.0394 H   0  0  0  0  0  0  0  0  0  0  0  0  # atno 6909 bound_to 6896
  146.1349  140.5168  142.8677 H   0  0  0  0  0  0  0  0  0  0  0  0  # atno 7974 bound_to 7965
  155.5547  140.3487  155.4477 H   0  0  0  0  0  0  0  0  0  0  0  0  # atno 8008 bound_to 7997
  156.0558  140.1328  157.0024 H   0  0  0  0  0  0  0  0  0  0  0  0  # atno 8009 bound_to 7997
  154.4456  140.0995  156.6428 H   0  0  0  0  0  0  0  0  0  0  0  0  # atno 8010 bound_to 7997
  140.6372  143.2488  151.5087 H   0  0  0  0  0  0  0  0  0  0  0  0  # atno 10167 bound_to 10162
  156.2111  130.4161  149.9114 H   0  0  0  0  0  0  0  0  0  0  0  0  # atno 10718 bound_to 10713
  154.2999  135.2759  155.2616 H   0  0  0  0  0  0  0  0  0  0  0  0  # atno 10763 bound_to 10752
  154.5057  135.5796  153.6569 H   0  0  0  0  0  0  0  0  0  0  0  0  # atno 10764 bound_to 10752
  152.9902  135.6169  154.3169 H   0  0  0  0  0  0  0  0  0  0  0  0  # atno 10765 bound_to 10752
  140.1912  134.8406  157.2914 H   0  0  0  0  0  0  0  0  0  0  0  0  # atno 11005 bound_to 11000
  144.7729  140.5677  143.6658 LP  0  0  0  0  0  0  0  0  0  0  0  0  # atno 17320 bound_to 7965
  145.5178  139.1477  143.3569 LP  0  0  0  0  0  0  0  0  0  0  0  0  # atno 17321 bound_to 7965
  139.5582  144.2223  152.1647 LP  0  0  0  0  0  0  0  0  0  0  0  0  # atno 17342 bound_to 10162
  140.1483  144.5138  150.6702 LP  0  0  0  0  0  0  0  0  0  0  0  0  # atno 17343 bound_to 10162
  156.6792  130.8851  151.3573 LP  0  0  0  0  0  0  0  0  0  0  0  0  # atno 17370 bound_to 10713
  157.7039  130.9363  150.0869 LP  0  0  0  0  0  0  0  0  0  0  0  0  # atno 17371 bound_to 10713
  140.2158  134.4083  155.7590 LP  0  0  0  0  0  0  0  0  0  0  0  0  # atno 17394 bound_to 11000
  141.2226  133.7141  156.8411 LP  0  0  0  0  0  0  0  0  0  0  0  0  # atno 17395 bound_to 11000

$$$$
