AV-unprocessed.smi:625|AV-procd|sdf|3103|dock10
  -GOLD-   22720 0 23D 1   1.00000     0.00000
 Structure written by MMmdl.
 49 51  0  0  0  0  0  0  0  0  1 V2000
  158.2695  140.6667  160.2632 C   0  0  0  0  0  0  0  0  0  0  0  0
  156.8969  141.1086  160.4555 N   0  0  0  0  0  0  0  0  0  0  0  0
  155.8919  140.8779  159.5925 C   0  0  0  0  0  0  0  0  0  0  0  0
  156.0729  140.2636  158.5406 O   0  0  0  0  0  0  0  0  0  0  0  0
  154.5947  141.4069  160.0240 C   0  0  0  0  0  0  0  0  0  0  0  0
  154.4028  141.7765  161.4128 C   0  0  0  0  0  0  0  0  0  0  0  0
  153.2342  142.3011  161.8317 C   0  0  0  0  0  0  0  0  0  0  0  0
  152.1133  142.5211  160.9127 C   0  0  0  0  0  0  0  0  0  0  0  0
  151.0523  143.0211  161.2861 O   0  0  0  0  0  0  0  0  0  0  0  0
  152.3264  142.1399  159.6172 N   0  0  0  0  0  0  0  0  0  0  0  0
  151.3086  142.3470  158.5752 C   0  0  0  0  0  0  0  0  0  0  0  0
  151.1287  141.0794  157.7328 C   0  0  0  0  0  0  0  0  0  0  0  0
  150.7790  140.0258  158.2648 O   0  0  0  0  0  0  0  0  0  0  0  0
  151.3488  141.2109  156.4154 N   0  0  0  0  0  0  0  0  0  0  0  0
  151.0898  140.1940  155.3983 C   0  0  2  0  0  0  0  0  0  0  0  0
  152.3831  139.9641  154.5999 C   0  0  0  0  0  0  0  0  0  0  0  0
  149.9098  140.6381  154.4954 C   0  0  1  0  0  0  0  0  0  0  0  0
  149.2119  139.4614  153.7706 C   0  0  0  0  0  0  0  0  0  0  0  0
  147.7298  139.6408  154.1446 C   0  0  2  0  0  0  0  0  0  0  0  0
  147.1680  140.8914  153.4442 C   0  0  0  0  0  0  0  0  0  0  0  0
  147.8329  142.0404  154.2234 C   0  0  0  0  0  0  0  0  0  0  0  0
  148.7160  141.2943  155.2411 C   0  0  1  0  0  0  0  0  0  0  0  0
  147.8330  140.1027  155.5916 C   0  0  0  0  0  0  0  0  0  0  0  0
  153.5511  141.5911  159.1870 C   0  0  0  0  0  0  0  0  0  0  0  0
  158.8840  140.9908  161.1029 H   0  0  0  0  0  0  0  0  0  0  0  0
  158.6900  141.0878  159.3493 H   0  0  0  0  0  0  0  0  0  0  0  0
  158.3218  139.5790  160.2035 H   0  0  0  0  0  0  0  0  0  0  0  0
  156.6912  141.6160  161.3038 H   0  0  0  0  0  0  0  0  0  0  0  0
  155.1980  141.6361  162.1309 H   0  0  0  0  0  0  0  0  0  0  0  0
  153.1191  142.5690  162.8717 H   0  0  0  0  0  0  0  0  0  0  0  0
  150.3631  142.6272  159.0432 H   0  0  0  0  0  0  0  0  0  0  0  0
  151.5565  143.1760  157.9108 H   0  0  0  0  0  0  0  0  0  0  0  0
  151.6497  142.1144  156.0796 H   0  0  0  0  0  0  0  0  0  0  0  0
  150.8269  139.2492  155.8763 H   0  0  0  0  0  0  0  0  0  0  0  0
  152.2601  139.1806  153.8527 H   0  0  0  0  0  0  0  0  0  0  0  0
  153.1984  139.6587  155.2568 H   0  0  0  0  0  0  0  0  0  0  0  0
  152.6970  140.8706  154.0809 H   0  0  0  0  0  0  0  0  0  0  0  0
  150.2996  141.3427  153.7590 H   0  0  0  0  0  0  0  0  0  0  0  0
  149.3742  139.4837  152.6924 H   0  0  0  0  0  0  0  0  0  0  0  0
  149.5680  138.4977  154.1369 H   0  0  0  0  0  0  0  0  0  0  0  0
  147.1288  138.7446  153.9894 H   0  0  0  0  0  0  0  0  0  0  0  0
  147.4105  140.9134  152.3812 H   0  0  0  0  0  0  0  0  0  0  0  0
  146.0826  140.9398  153.5424 H   0  0  0  0  0  0  0  0  0  0  0  0
  148.4069  142.7077  153.5799 H   0  0  0  0  0  0  0  0  0  0  0  0
  147.0790  142.6400  154.7345 H   0  0  0  0  0  0  0  0  0  0  0  0
  148.9874  141.9207  156.0892 H   0  0  0  0  0  0  0  0  0  0  0  0
  146.8724  140.3880  156.0244 H   0  0  0  0  0  0  0  0  0  0  0  0
  148.3187  139.3785  156.2473 H   0  0  0  0  0  0  0  0  0  0  0  0
  153.5720  141.3605  158.1312 H   0  0  0  0  0  0  0  0  0  0  0  0
  1  2  1  0  0  0  0
  1 25  1  0  0  0  0
  1 26  1  0  0  0  0
  1 27  1  0  0  0  0
  2  3  1  0  0  0  0
  2 28  1  0  0  0  0
  3  4  2  0  0  0  0
  3  5  1  0  0  0  0
  5 24  2  0  0  0  0
  5  6  1  0  0  0  0
  6  7  2  0  0  0  0
  6 29  1  0  0  0  0
  7  8  1  0  0  0  0
  7 30  1  0  0  0  0
  8  9  2  0  0  0  0
  8 10  1  0  0  0  0
 10 11  1  0  0  0  0
 10 24  1  0  0  0  0
 11 12  1  0  0  0  0
 11 31  1  0  0  0  0
 11 32  1  0  0  0  0
 12 13  2  0  0  0  0
 12 14  1  0  0  0  0
 14 15  1  0  0  0  0
 14 33  1  0  0  0  0
 15 16  1  0  0  0  0
 15 17  1  0  0  0  0
 15 34  1  0  0  0  0
 16 35  1  0  0  0  0
 16 36  1  0  0  0  0
 16 37  1  0  0  0  0
 17 22  1  0  0  0  0
 17 18  1  0  0  0  0
 17 38  1  0  0  0  0
 18 19  1  0  0  0  0
 18 39  1  0  0  0  0
 18 40  1  0  0  0  0
 19 23  1  0  0  0  0
 19 20  1  0  0  0  0
 19 41  1  0  0  0  0
 20 21  1  0  0  0  0
 20 42  1  0  0  0  0
 20 43  1  0  0  0  0
 21 22  1  0  0  0  0
 21 44  1  0  0  0  0
 21 45  1  0  0  0  0
 22 23  1  0  0  0  0
 22 46  1  0  0  0  0
 23 47  1  0  0  0  0
 23 48  1  0  0  0  0
 24 49  1  0  0  0  0
M  END
> <s_m_source_file>
AV-unprocessed.smi

> <i_m_source_file_index>
625

> <i_lp_mmshare_version>
43012

> <i_f3d_flags>
0

> <s_epik_input>
W0NIM11bTkhdQyg9TyljMVtjSF1bY0hdYyg9TyluKFtjSF0xKVtDSDJdQyg9TylbTkhdW0NASF0oW0NIM10pW0NASF0oW0NIMl1bQ0BIXTIzKVtDQEhdKFtDSDJdMylbQ0gyXVtDSDJdMg==

> <s_epik_cmdline>
J2VwaWtfcHl0aG9uJywgJy1waCcsICc3LjAnLCAnLXRuJywgJzgnLCAnLW1hJywgJzIwMCcsICctbWV0YWxfYmluZGluZycsICctaW1hZScsICc8aW5maWxlLm1hZT4nLCAnLW9tYWUnLCAnPG91dGZpbGUubWFlPic=

> <r_lp_tautomer_probability>
1

> <r_epik_Ionization_Penalty>
3.7129e-07

> <r_epik_Ionization_Penalty_Charging>
5.04114e-08

> <r_epik_Ionization_Penalty_Neutral>
3.20879e-07

> <r_epik_State_Penalty>
-0

> <r_epik_Charging_Adjusted_Penalty>
5.04114e-08

> <i_epik_Tot_Q>
0

> <i_epik_Tot_abs_Q>
0

> <r_epik_Metal_State_Penalty>
-0

> <b_epik_Metal_Only>
0

> <s_lp_Force_Field>
OPLS_2005

> <r_lp_Energy>
63.7952

> <b_lp_Chiralities_Consistent>
1

> <s_lp_Variant>
AV-unprocessed.smi:625-3

> <Gold.Version>
5.8.1

> <Gold.Id.Protein>
6NUR|6NUR_protein|mol2

> <Gold.PLP.Fitness>
48.1880

> <Gold.PLP.PLP>
-46.3464

> <Gold.PLP.part.hbond>
-3.0000

> <Gold.PLP.part.metal>
0.0000

> <Gold.PLP.part.buried>
-0.7890

> <Gold.PLP.part.nonpolar>
-41.8881

> <Gold.PLP.part.repulsive>
0.2810

> <Gold.PLP.ligand.clash>
0.0000

> <Gold.PLP.ligand.torsion>
0.6862

> <Gold.PLP.Chemscore.Hbond>
1.0524

> <Gold.PLP.Chemscore.CHOScore>
0.0000

> <Gold.PLP.Chemscore.Metal>
0.0000

> <Gold.Chemscore.Hbonds>
donor molecule, donor type, donor heavy atom, donor atom, acceptor molecule, acceptor atom, score
      P1  H  6933  6945       L1     9  0.26
      P1  H  7997  8009       L1     4  0.39

> <Gold.PLP.Chemscore.Internal.Correction>
0.0567

> <Gold.Rescore>
     Score         DG    S(hbond)    S(metal)    S(lipo)     H(rot)  DE(clash)    DE(int)     intcor
     14.85     -16.31       0.70        0.00     109.22       1.67       0.45       1.01       ----

> <Gold.Chemscore.Fitness>
14.8501

> <Gold.Chemscore.DG>
-16.3050

> <Gold.Chemscore.ZeroCoef>
-5.4800

> <Gold.Chemscore.Hbond>
0.6956

> <Gold.Chemscore.Metal>
0.0000

> <Gold.Chemscore.Lipo>
109.2236

> <Gold.Chemscore.Internal_Hbond>
0.0000

> <Gold.Chemscore.DEClash>
0.4495

> <Gold.Chemscore.DEInternal>
1.0054

> <Gold.Chemscore.Rot>
1.6709

> <Gold.Chemscore.Internal.Correction>
   9.000000E+99

> <Gold.Chemscore.Hbonds>
donor molecule, donor type, donor heavy atom, donor atom, acceptor molecule, acceptor atom, score
      P1  H  6933  6945       L1     9  0.21
      P1  H  7997  8009       L1     4  0.38

> <Gold.Chemscore.Hbond.Weighted>
-2.3232

> <Gold.Chemscore.Metal.Weighted>
-0.0000

> <Gold.Chemscore.Lipo.Weighted>
-12.7792

> <Gold.Chemscore.Internal_Hbond.Weighted>
0.0000

> <Gold.Chemscore.DEClash.Weighted>
0.4495

> <Gold.Chemscore.DEInternal.Weighted>
1.0054

> <Gold.Chemscore.Rot.Weighted>
4.2774

> <Gold.Chemscore.Internal.Correction.Weighted>
   9.000000E+99

> <Gold.Protein.RotatedTorsions>
[ 6907 6896 6895 6894 ] final   47.53 input  -60.11 | X-H torsion
[ 7974 7965 7964 7962 ] final  153.97 input  175.53 | X-H torsion
[ 8008 7997 7996 7995 ] final   99.00 input   59.86 | X-H torsion
[ 10167 10162 10161 10158 ] final  -13.21 input  -65.29 | X-H torsion
[ 10718 10713 10712 10709 ] final  -95.02 input   66.30 | X-H torsion
[ 10763 10752 10751 10750 ] final   99.72 input  -60.55 | X-H torsion
[ 11005 11000 10999 10996 ] final    9.99 input  -57.11 | X-H torsion

> <Gold.Protein.ActiveResidues>
 VAL166  LYS551  ARG553  GLY616  TRP617  ASP618  TYR619  PRO620  LYS621  CYS622 
 ASP623  PHE694  ASN695  SER759  ASP760  ASP761  ALA762  ILE779  LEU786  VAL792 
 PHE793  MET794  SER795  GLU796  ALA797  LYS798  CYS799  TRP800  GLU811  SER814 

> <Gold.Protein.RotatedAtoms>
  152.2692  134.7951  160.0417 H   0  0  0  0  0  0  0  0  0  0  0  0  # atno 6907 bound_to 6896
  151.8570  133.3445  159.3700 H   0  0  0  0  0  0  0  0  0  0  0  0  # atno 6908 bound_to 6896
  150.7145  134.5171  159.5679 H   0  0  0  0  0  0  0  0  0  0  0  0  # atno 6909 bound_to 6896
  144.8119  139.6871  143.6138 H   0  0  0  0  0  0  0  0  0  0  0  0  # atno 7974 bound_to 7965
  156.1061  140.3235  155.8008 H   0  0  0  0  0  0  0  0  0  0  0  0  # atno 8008 bound_to 7997
  155.4753  140.0550  157.2991 H   0  0  0  0  0  0  0  0  0  0  0  0  # atno 8009 bound_to 7997
  154.4729  140.2019  155.9965 H   0  0  0  0  0  0  0  0  0  0  0  0  # atno 8010 bound_to 7997
  140.7177  143.5450  150.9366 H   0  0  0  0  0  0  0  0  0  0  0  0  # atno 10167 bound_to 10162
  156.0036  130.5091  150.6013 H   0  0  0  0  0  0  0  0  0  0  0  0  # atno 10718 bound_to 10713
  153.3050  135.4103  155.1286 H   0  0  0  0  0  0  0  0  0  0  0  0  # atno 10763 bound_to 10752
  154.8560  135.3550  154.5800 H   0  0  0  0  0  0  0  0  0  0  0  0  # atno 10764 bound_to 10752
  153.6227  135.7064  153.5363 H   0  0  0  0  0  0  0  0  0  0  0  0  # atno 10765 bound_to 10752
  140.5195  134.0573  155.7840 H   0  0  0  0  0  0  0  0  0  0  0  0  # atno 11005 bound_to 11000
  146.2419  139.6018  142.9486 LP  0  0  0  0  0  0  0  0  0  0  0  0  # atno 17320 bound_to 7965
  145.5304  141.0427  143.2386 LP  0  0  0  0  0  0  0  0  0  0  0  0  # atno 17321 bound_to 7965
  139.9173  143.6648  152.3103 LP  0  0  0  0  0  0  0  0  0  0  0  0  # atno 17342 bound_to 10162
  139.7052  144.7629  151.1205 LP  0  0  0  0  0  0  0  0  0  0  0  0  # atno 17343 bound_to 10162
  157.3862  131.0788  151.1434 LP  0  0  0  0  0  0  0  0  0  0  0  0  # atno 17370 bound_to 10713
  157.2141  130.6451  149.5785 LP  0  0  0  0  0  0  0  0  0  0  0  0  # atno 17371 bound_to 10713
  141.1342  133.9250  157.2470 LP  0  0  0  0  0  0  0  0  0  0  0  0  # atno 17394 bound_to 11000
  139.9614  135.0153  156.9270 LP  0  0  0  0  0  0  0  0  0  0  0  0  # atno 17395 bound_to 11000

$$$$
