AV-unprocessed.smi:81|AV-procd|sdf|789|dock1
  -GOLD-   2262017163D 1   1.00000     0.00000
 Structure written by MMmdl.
 64 67  0  0  0  0  0  0  0  0  2 V2000
  149.9404  130.1709  156.3211 C   0  0  0  0  0  0  0  0  0  0  0  0
  148.7554  130.9152  156.9586 C   0  0  0  0  0  0  0  0  0  0  0  0
  148.1126  130.0605  158.0602 C   0  0  0  0  0  0  0  0  0  0  0  0
  147.6984  131.3208  155.9068 C   0  0  0  0  0  0  0  0  0  0  0  0
  148.2375  132.0958  154.7851 N   0  0  0  0  0  0  0  0  0  0  0  0
  148.9466  133.1961  155.1424 C   0  0  0  0  0  0  0  0  0  0  0  0
  150.2228  133.0664  155.5916 N   0  0  0  0  0  0  0  0  0  0  0  0
  150.9242  134.1505  155.9357 C   0  0  0  0  0  0  0  0  0  0  0  0
  150.5490  135.4311  155.9070 N   0  0  0  0  0  0  0  0  0  0  0  0
  149.2708  135.5643  155.4500 C   0  0  0  0  0  0  0  0  0  0  0  0
  148.4091  134.5075  155.0449 C   0  0  0  0  0  0  0  0  0  0  0  0
  147.1892  135.0210  154.6238 N   0  0  0  0  0  0  0  0  0  0  0  0
  147.3223  136.3110  154.7714 C   0  0  0  0  0  0  0  0  0  0  0  0
  148.5353  136.7236  155.2763 N   0  0  0  0  0  0  0  0  0  0  0  0
  148.9497  138.0931  155.5399 C   0  0  0  0  0  0  0  0  0  0  0  0
  149.6815  138.7753  154.3507 C   0  0  2  0  0  0  0  0  0  0  0  0
  148.9167  138.6214  153.1701 O   0  0  0  0  0  0  0  0  0  0  0  0
  151.0869  138.2418  154.1005 C   0  0  0  0  0  0  0  0  0  0  0  0
  151.9208  139.0227  155.1114 C   0  0  0  0  0  0  0  0  0  0  0  0
  151.2668  140.2798  155.2575 O   0  0  0  0  0  0  0  0  0  0  0  0
  150.0096  140.2632  154.5856 C   0  0  2  0  0  0  0  0  0  0  0  0
  148.9698  141.0888  155.3579 C   0  0  0  0  0  0  0  0  0  0  0  0
  147.3614  132.2421  153.6134 C   0  0  2  0  0  0  0  0  0  0  0  0
  146.8204  130.9038  153.0665 C   0  0  0  0  0  0  0  0  0  0  0  0
  145.8486  131.1401  151.8991 C   0  0  0  0  0  0  0  0  0  0  0  0
  146.4973  131.9213  150.8170 N   0  3  1  0  0  0  0  0  0  0  0  0
  145.6333  132.0580  149.6250 C   0  0  0  0  0  0  0  0  0  0  0  0
  147.0034  133.2295  151.3017 C   0  0  0  0  0  0  0  0  0  0  0  0
  147.9998  133.0434  152.4580 C   0  0  0  0  0  0  0  0  0  0  0  0
  149.6130  129.2585  155.8216 H   0  0  0  0  0  0  0  0  0  0  0  0
  150.6787  129.8919  157.0733 H   0  0  0  0  0  0  0  0  0  0  0  0
  150.4502  130.7893  155.5825 H   0  0  0  0  0  0  0  0  0  0  0  0
  149.1425  131.8126  157.4420 H   0  0  0  0  0  0  0  0  0  0  0  0
  147.7023  129.1346  157.6560 H   0  0  0  0  0  0  0  0  0  0  0  0
  147.3007  130.5987  158.5505 H   0  0  0  0  0  0  0  0  0  0  0  0
  148.8399  129.7952  158.8278 H   0  0  0  0  0  0  0  0  0  0  0  0
  147.2214  130.4211  155.5169 H   0  0  0  0  0  0  0  0  0  0  0  0
  146.9051  131.8937  156.3891 H   0  0  0  0  0  0  0  0  0  0  0  0
  151.9300  133.9661  156.2835 H   0  0  0  0  0  0  0  0  0  0  0  0
  146.5302  137.0024  154.5222 H   0  0  0  0  0  0  0  0  0  0  0  0
  148.0599  138.6612  155.8133 H   0  0  0  0  0  0  0  0  0  0  0  0
  149.5867  138.0859  156.4250 H   0  0  0  0  0  0  0  0  0  0  0  0
  149.2218  139.2474  152.5314 H   0  0  0  0  0  0  0  0  0  0  0  0
  151.1925  137.1626  154.1981 H   0  0  0  0  0  0  0  0  0  0  0  0
  151.4179  138.5065  153.0947 H   0  0  0  0  0  0  0  0  0  0  0  0
  151.9256  138.5166  156.0773 H   0  0  0  0  0  0  0  0  0  0  0  0
  152.9552  139.1462  154.7901 H   0  0  0  0  0  0  0  0  0  0  0  0
  150.1797  140.7415  153.6192 H   0  0  0  0  0  0  0  0  0  0  0  0
  147.9981  141.0537  154.8649 H   0  0  0  0  0  0  0  0  0  0  0  0
  149.2741  142.1338  155.4160 H   0  0  0  0  0  0  0  0  0  0  0  0
  148.8455  140.7297  156.3795 H   0  0  0  0  0  0  0  0  0  0  0  0
  146.4970  132.8085  153.9624 H   0  0  0  0  0  0  0  0  0  0  0  0
  147.6370  130.2691  152.7201 H   0  0  0  0  0  0  0  0  0  0  0  0
  146.3101  130.3550  153.8587 H   0  0  0  0  0  0  0  0  0  0  0  0
  145.5145  130.1793  151.5054 H   0  0  0  0  0  0  0  0  0  0  0  0
  144.9591  131.6661  152.2500 H   0  0  0  0  0  0  0  0  0  0  0  0
  144.7308  132.6245  149.8575 H   0  0  0  0  0  0  0  0  0  0  0  0
  145.3357  131.0780  149.2508 H   0  0  0  0  0  0  0  0  0  0  0  0
  146.1634  132.5719  148.8225 H   0  0  0  0  0  0  0  0  0  0  0  0
  147.4935  133.7577  150.4828 H   0  0  0  0  0  0  0  0  0  0  0  0
  146.1658  133.8505  151.6235 H   0  0  0  0  0  0  0  0  0  0  0  0
  148.3309  134.0215  152.8076 H   0  0  0  0  0  0  0  0  0  0  0  0
  148.8857  132.5312  152.0818 H   0  0  0  0  0  0  0  0  0  0  0  0
  147.3058  131.3912  150.5242 H   0  0  0  0  0  0  0  0  0  0  0  0
  1  2  1  0  0  0  0
  1 30  1  0  0  0  0
  1 31  1  0  0  0  0
  1 32  1  0  0  0  0
  2  3  1  0  0  0  0
  2  4  1  0  0  0  0
  2 33  1  0  0  0  0
  3 34  1  0  0  0  0
  3 35  1  0  0  0  0
  3 36  1  0  0  0  0
  4  5  1  0  0  0  0
  4 37  1  0  0  0  0
  4 38  1  0  0  0  0
  5  6  1  0  0  0  0
  5 23  1  0  0  0  0
  6 11  1  0  0  0  0
  6  7  2  0  0  0  0
  7  8  1  0  0  0  0
  8  9  2  0  0  0  0
  8 39  1  0  0  0  0
  9 10  1  0  0  0  0
 10 14  1  0  0  0  0
 10 11  2  0  0  0  0
 11 12  1  0  0  0  0
 12 13  2  0  0  0  0
 13 14  1  0  0  0  0
 13 40  1  0  0  0  0
 14 15  1  0  0  0  0
 15 16  1  0  0  0  0
 15 41  1  0  0  0  0
 15 42  1  0  0  0  0
 16 21  1  0  0  0  0
 16 17  1  0  0  0  0
 16 18  1  0  0  0  0
 17 43  1  0  0  0  0
 18 19  1  0  0  0  0
 18 44  1  0  0  0  0
 18 45  1  0  0  0  0
 19 20  1  0  0  0  0
 19 46  1  0  0  0  0
 19 47  1  0  0  0  0
 20 21  1  0  0  0  0
 21 22  1  0  0  0  0
 21 48  1  0  0  0  0
 22 49  1  0  0  0  0
 22 50  1  0  0  0  0
 22 51  1  0  0  0  0
 23 29  1  0  0  0  0
 23 24  1  0  0  0  0
 23 52  1  0  0  0  0
 24 25  1  0  0  0  0
 24 53  1  0  0  0  0
 24 54  1  0  0  0  0
 25 26  1  0  0  0  0
 25 55  1  0  0  0  0
 25 56  1  0  0  0  0
 26 27  1  0  0  0  0
 26 28  1  0  0  0  0
 26 64  1  0  0  0  0
 27 57  1  0  0  0  0
 27 58  1  0  0  0  0
 27 59  1  0  0  0  0
 28 29  1  0  0  0  0
 28 60  1  0  0  0  0
 28 61  1  0  0  0  0
 29 62  1  0  0  0  0
 29 63  1  0  0  0  0
M  CHG  1  26   1
M  END
> <s_m_source_file>
AV-unprocessed.smi

> <i_m_source_file_index>
81

> <i_lp_mmshare_version>
43012

> <i_f3d_flags>
0

> <s_epik_input>
W0NIMl0xW0NIMl1OKFtDSDNdKVtDSDJdW0NIMl1bQ0hdMU4oW0NIMl1bQ0hdKFtDSDNdKVtDSDNdKWMobltjSF1uMiljKGMyMyluW2NIXW4zW0NIMl1bQ0BAXTQoW09IXSlbQ0gyXVtDSDJdT1tDQEhdNFtDSDNd

> <s_epik_cmdline>
J2VwaWtfcHl0aG9uJywgJy1waCcsICc3LjAnLCAnLXRuJywgJzgnLCAnLW1hJywgJzIwMCcsICctbWV0YWxfYmluZGluZycsICctaW1hZScsICc8aW5maWxlLm1hZT4nLCAnLW9tYWUnLCAnPG91dGZpbGUubWFlPic=

> <r_lp_tautomer_probability>
1

> <r_epik_Ionization_Penalty>
0.00272708

> <r_epik_Ionization_Penalty_Charging>
0.00158983

> <r_epik_Ionization_Penalty_Neutral>
0.00113725

> <r_epik_State_Penalty>
-0

> <r_epik_Charging_Adjusted_Penalty>
0.00158983

> <i_epik_Tot_Q>
1

> <i_epik_Tot_abs_Q>
1

> <r_epik_Metal_State_Penalty>
-0

> <b_epik_Metal_Only>
0

> <s_lp_Force_Field>
OPLS_2005

> <r_lp_Energy>
46.4423

> <b_lp_Chiralities_Consistent>
1

> <s_lp_Variant>
AV-unprocessed.smi:81-4

> <Gold.Version>
5.8.1

> <Gold.Id.Protein>
6NUR|6NUR_protein|mol2

> <Gold.PLP.Fitness>
44.5256

> <Gold.PLP.PLP>
-39.8212

> <Gold.PLP.part.hbond>
-4.0000

> <Gold.PLP.part.metal>
0.0000

> <Gold.PLP.part.buried>
-5.6018

> <Gold.PLP.part.nonpolar>
-30.7049

> <Gold.PLP.part.repulsive>
0.2270

> <Gold.PLP.ligand.clash>
0.0000

> <Gold.PLP.ligand.torsion>
1.1837

> <Gold.PLP.Chemscore.Hbond>
2.0000

> <Gold.PLP.Chemscore.CHOScore>
0.0000

> <Gold.PLP.Chemscore.Metal>
0.0000

> <Gold.Chemscore.Hbonds>
donor molecule, donor type, donor heavy atom, donor atom, acceptor molecule, acceptor atom, score
      L1  H    17    43       P1  7957  1.00
      L1  H    26    64       P1 10747  1.00

> <Gold.PLP.Chemscore.Internal.Correction>
1.0717

> <Gold.Rescore>
     Score         DG    S(hbond)    S(metal)    S(lipo)     H(rot)  DE(clash)    DE(int)     intcor
     13.02     -16.34       1.98        0.00      92.65       2.58       0.10       3.23       ----

> <Gold.Chemscore.Fitness>
13.0173

> <Gold.Chemscore.DG>
-16.3449

> <Gold.Chemscore.ZeroCoef>
-5.4800

> <Gold.Chemscore.Hbond>
1.9831

> <Gold.Chemscore.Metal>
0.0000

> <Gold.Chemscore.Lipo>
92.6464

> <Gold.Chemscore.Internal_Hbond>
0.0000

> <Gold.Chemscore.DEClash>
0.0994

> <Gold.Chemscore.DEInternal>
3.2282

> <Gold.Chemscore.Rot>
2.5774

> <Gold.Chemscore.Internal.Correction>
   9.000000E+99

> <Gold.Chemscore.Hbonds>
donor molecule, donor type, donor heavy atom, donor atom, acceptor molecule, acceptor atom, score
      L1  H    17    43       P1  7957  0.99
      L1  H    26    64       P1 10747  1.00

> <Gold.Chemscore.Hbond.Weighted>
-6.6235

> <Gold.Chemscore.Metal.Weighted>
-0.0000

> <Gold.Chemscore.Lipo.Weighted>
-10.8396

> <Gold.Chemscore.Internal_Hbond.Weighted>
0.0000

> <Gold.Chemscore.DEClash.Weighted>
0.0994

> <Gold.Chemscore.DEInternal.Weighted>
3.2282

> <Gold.Chemscore.Rot.Weighted>
6.5982

> <Gold.Chemscore.Internal.Correction.Weighted>
   9.000000E+99

> <Gold.Protein.RotatedTorsions>
[ 6907 6896 6895 6894 ] final  146.61 input  -60.11 | X-H torsion
[ 7974 7965 7964 7962 ] final   50.93 input  175.53 | X-H torsion
[ 8008 7997 7996 7995 ] final  -40.36 input   59.86 | X-H torsion
[ 10167 10162 10161 10158 ] final  128.20 input  -65.29 | X-H torsion
[ 10718 10713 10712 10709 ] final   19.16 input   66.30 | X-H torsion
[ 10763 10752 10751 10750 ] final  -33.28 input  -60.55 | X-H torsion
[ 11005 11000 10999 10996 ] final   85.13 input  -57.11 | X-H torsion

> <Gold.Protein.ActiveResidues>
 VAL166  LYS551  ARG553  GLY616  TRP617  ASP618  TYR619  PRO620  LYS621  CYS622 
 ASP623  PHE694  ASN695  SER759  ASP760  ASP761  ALA762  ILE779  LEU786  VAL792 
 PHE793  MET794  SER795  GLU796  ALA797  LYS798  CYS799  TRP800  GLU811  SER814 

> <Gold.Protein.RotatedAtoms>
  152.1657  133.4610  159.4882 H   0  0  0  0  0  0  0  0  0  0  0  0  # atno 6907 bound_to 6896
  150.6912  134.2016  159.4333 H   0  0  0  0  0  0  0  0  0  0  0  0  # atno 6908 bound_to 6896
  151.9921  134.9973  160.0612 H   0  0  0  0  0  0  0  0  0  0  0  0  # atno 6909 bound_to 6896
  145.9963  139.4392  143.0042 H   0  0  0  0  0  0  0  0  0  0  0  0  # atno 7974 bound_to 7965
  154.4013  140.1527  156.3014 H   0  0  0  0  0  0  0  0  0  0  0  0  # atno 8008 bound_to 7997
  155.8697  140.3449  155.5791 H   0  0  0  0  0  0  0  0  0  0  0  0  # atno 8009 bound_to 7997
  155.7788  140.0840  157.2060 H   0  0  0  0  0  0  0  0  0  0  0  0  # atno 8010 bound_to 7997
  139.5539  144.6834  151.4241 H   0  0  0  0  0  0  0  0  0  0  0  0  # atno 10167 bound_to 10162
  157.1065  130.6490  149.5886 H   0  0  0  0  0  0  0  0  0  0  0  0  # atno 10718 bound_to 10713
  153.8277  135.6869  153.4818 H   0  0  0  0  0  0  0  0  0  0  0  0  # atno 10763 bound_to 10752
  153.1530  135.4610  154.9662 H   0  0  0  0  0  0  0  0  0  0  0  0  # atno 10764 bound_to 10752
  154.7900  135.3298  154.7743 H   0  0  0  0  0  0  0  0  0  0  0  0  # atno 10765 bound_to 10752
  139.8980  134.8265  156.2540 H   0  0  0  0  0  0  0  0  0  0  0  0  # atno 11005 bound_to 11000
  145.7555  140.9956  143.1228 LP  0  0  0  0  0  0  0  0  0  0  0  0  # atno 17320 bound_to 7965
  144.6905  139.9266  143.7470 LP  0  0  0  0  0  0  0  0  0  0  0  0  # atno 17321 bound_to 7965
  140.6808  143.8086  150.7118 LP  0  0  0  0  0  0  0  0  0  0  0  0  # atno 17342 bound_to 10162
  140.1539  143.4333  152.2112 LP  0  0  0  0  0  0  0  0  0  0  0  0  # atno 17343 bound_to 10162
  155.9861  130.4894  150.7061 LP  0  0  0  0  0  0  0  0  0  0  0  0  # atno 17370 bound_to 10713
  157.4596  131.0881  151.0760 LP  0  0  0  0  0  0  0  0  0  0  0  0  # atno 17371 bound_to 10713
  141.0205  133.7044  156.1261 LP  0  0  0  0  0  0  0  0  0  0  0  0  # atno 17394 bound_to 11000
  140.7240  134.4328  157.5572 LP  0  0  0  0  0  0  0  0  0  0  0  0  # atno 17395 bound_to 11000

$$$$
