AV-unprocessed.smi:3350|AV-procd|sdf|12946|dock1
  -GOLD-   2272019383D 1   1.00000     0.00000
 Structure written by MMmdl.
 41 42  0  0  0  0  0  0  0  0  1 V2000
  149.6628  137.3089  155.7354 C   0  0  0  0  0  0  0  0  0  0  0  0
  148.5756  138.0758  154.9706 C   0  0  1  0  0  0  0  0  0  0  0  0
  149.1558  139.3225  154.2678 C   0  0  0  0  0  0  0  0  0  0  0  0
  149.7140  140.2854  155.2013 N   0  0  0  0  0  0  0  0  0  0  0  0
  149.0460  141.1224  156.0708 C   0  0  0  0  0  0  0  0  0  0  0  0
  149.9897  141.8254  156.7629 C   0  0  0  0  0  0  0  0  0  0  0  0
  151.2216  141.3465  156.2356 C   0  0  0  0  0  0  0  0  0  0  0  0
  151.0534  140.4280  155.2981 N   0  0  0  0  0  0  0  0  0  0  0  0
  147.9531  137.1768  153.9991 N   0  0  0  0  0  0  0  0  0  0  0  0
  146.6718  136.7809  154.0136 C   0  0  0  0  0  0  0  0  0  0  0  0
  145.8611  137.0888  154.8872 O   0  0  0  0  0  0  0  0  0  0  0  0
  146.3728  136.0331  152.9429 N   0  0  0  0  0  0  0  0  0  0  0  0
  145.0495  135.4962  152.6345 C   0  0  1  0  0  0  0  0  0  0  0  0
  144.0246  136.6409  152.5556 C   0  0  0  0  0  0  0  0  0  0  0  0
  145.1072  134.6897  151.3236 C   0  0  1  0  0  0  0  0  0  0  0  0
  146.1937  133.6142  151.2792 C   0  0  0  0  0  0  0  0  0  0  0  0
  145.6706  132.6262  150.2494 C   0  0  0  0  0  0  0  0  0  0  0  0
  144.1807  132.9623  150.1322 C   0  0  0  0  0  0  0  0  0  0  0  0
  143.9279  133.9192  151.1521 O   0  0  0  0  0  0  0  0  0  0  0  0
  150.1300  137.9419  156.4905 H   0  0  0  0  0  0  0  0  0  0  0  0
  150.4476  136.9556  155.0657 H   0  0  0  0  0  0  0  0  0  0  0  0
  149.2453  136.4413  156.2476 H   0  0  0  0  0  0  0  0  0  0  0  0
  147.8351  138.3995  155.7043 H   0  0  0  0  0  0  0  0  0  0  0  0
  149.9446  139.0296  153.5732 H   0  0  0  0  0  0  0  0  0  0  0  0
  148.3879  139.8187  153.6726 H   0  0  0  0  0  0  0  0  0  0  0  0
  147.9677  141.1398  156.1308 H   0  0  0  0  0  0  0  0  0  0  0  0
  149.8253  142.5667  157.5307 H   0  0  0  0  0  0  0  0  0  0  0  0
  152.2262  141.6375  156.5045 H   0  0  0  0  0  0  0  0  0  0  0  0
  148.5350  136.8642  153.2359 H   0  0  0  0  0  0  0  0  0  0  0  0
  147.1079  135.8361  152.2800 H   0  0  0  0  0  0  0  0  0  0  0  0
  144.7507  134.8170  153.4353 H   0  0  0  0  0  0  0  0  0  0  0  0
  143.0254  136.2601  152.3428 H   0  0  0  0  0  0  0  0  0  0  0  0
  144.2830  137.3520  151.7703 H   0  0  0  0  0  0  0  0  0  0  0  0
  143.9688  137.1902  153.4962 H   0  0  0  0  0  0  0  0  0  0  0  0
  145.2177  135.3598  150.4684 H   0  0  0  0  0  0  0  0  0  0  0  0
  147.1754  134.0134  151.0225 H   0  0  0  0  0  0  0  0  0  0  0  0
  146.2739  133.1219  152.2494 H   0  0  0  0  0  0  0  0  0  0  0  0
  146.1673  132.7574  149.2873 H   0  0  0  0  0  0  0  0  0  0  0  0
  145.8326  131.5976  150.5737 H   0  0  0  0  0  0  0  0  0  0  0  0
  143.9637  133.4075  149.1604 H   0  0  0  0  0  0  0  0  0  0  0  0
  143.5435  132.0864  150.2548 H   0  0  0  0  0  0  0  0  0  0  0  0
  1  2  1  0  0  0  0
  1 20  1  0  0  0  0
  1 21  1  0  0  0  0
  1 22  1  0  0  0  0
  2  3  1  0  0  0  0
  2  9  1  0  0  0  0
  2 23  1  0  0  0  0
  3  4  1  0  0  0  0
  3 24  1  0  0  0  0
  3 25  1  0  0  0  0
  4  8  1  0  0  0  0
  4  5  1  0  0  0  0
  5  6  2  0  0  0  0
  5 26  1  0  0  0  0
  6  7  1  0  0  0  0
  6 27  1  0  0  0  0
  7  8  2  0  0  0  0
  7 28  1  0  0  0  0
  9 10  1  0  0  0  0
  9 29  1  0  0  0  0
 10 11  2  0  0  0  0
 10 12  1  0  0  0  0
 12 13  1  0  0  0  0
 12 30  1  0  0  0  0
 13 14  1  0  0  0  0
 13 15  1  0  0  0  0
 13 31  1  0  0  0  0
 14 32  1  0  0  0  0
 14 33  1  0  0  0  0
 14 34  1  0  0  0  0
 15 19  1  0  0  0  0
 15 16  1  0  0  0  0
 15 35  1  0  0  0  0
 16 17  1  0  0  0  0
 16 36  1  0  0  0  0
 16 37  1  0  0  0  0
 17 18  1  0  0  0  0
 17 38  1  0  0  0  0
 17 39  1  0  0  0  0
 18 19  1  0  0  0  0
 18 40  1  0  0  0  0
 18 41  1  0  0  0  0
M  END
> <s_m_source_file>
AV-unprocessed.smi

> <i_m_source_file_index>
3350

> <i_lp_mmshare_version>
43012

> <i_f3d_flags>
0

> <s_epik_input>
bjFbY0hdW2NIXVtjSF1uMVtDSDJdW0NAQEhdKFtDSDNdKVtOSF1DKD1PKVtOSF1bQ0BIXShbQ0gzXSlbQ0BASF0yW0NIMl1bQ0gyXVtDSDJdTzI=

> <s_epik_cmdline>
J2VwaWtfcHl0aG9uJywgJy1waCcsICc3LjAnLCAnLXRuJywgJzgnLCAnLW1hJywgJzIwMCcsICctbWV0YWxfYmluZGluZycsICctaW1hZScsICc8aW5maWxlLm1hZT4nLCAnLW9tYWUnLCAnPG91dGZpbGUubWFlPic=

> <r_lp_tautomer_probability>
1

> <r_epik_Ionization_Penalty>
6.42349e-05

> <r_epik_Ionization_Penalty_Charging>
0

> <r_epik_Ionization_Penalty_Neutral>
6.42349e-05

> <r_epik_State_Penalty>
-0

> <r_epik_Charging_Adjusted_Penalty>
0

> <i_epik_Tot_Q>
0

> <i_epik_Tot_abs_Q>
0

> <r_epik_Metal_State_Penalty>
-0

> <b_epik_Metal_Only>
0

> <s_lp_Force_Field>
OPLS_2005

> <r_lp_Energy>
15.5841

> <b_lp_Chiralities_Consistent>
1

> <s_lp_Variant>
AV-unprocessed.smi:3350-8

> <Gold.Version>
5.8.1

> <Gold.Id.Protein>
6NUR|6NUR_protein|mol2

> <Gold.PLP.Fitness>
35.9464

> <Gold.PLP.PLP>
-27.7222

> <Gold.PLP.part.hbond>
-2.9367

> <Gold.PLP.part.metal>
0.0000

> <Gold.PLP.part.buried>
-4.9914

> <Gold.PLP.part.nonpolar>
-20.6169

> <Gold.PLP.part.repulsive>
0.2506

> <Gold.PLP.ligand.clash>
0.0000

> <Gold.PLP.ligand.torsion>
0.2549

> <Gold.PLP.Chemscore.Hbond>
2.8800

> <Gold.PLP.Chemscore.CHOScore>
0.0000

> <Gold.PLP.Chemscore.Metal>
0.0000

> <Gold.Chemscore.Hbonds>
donor molecule, donor type, donor heavy atom, donor atom, acceptor molecule, acceptor atom, score
      L1  H     9    29       P1  7948  1.00
      L1  H    12    30       P1  7948  0.88
      P1  H  7989  7998       L1     8  0.99

> <Gold.PLP.Chemscore.Internal.Correction>
0.0941

> <Gold.Rescore>
     Score         DG    S(hbond)    S(metal)    S(lipo)     H(rot)  DE(clash)    DE(int)     intcor
     17.03     -17.30       2.73        0.00      62.96       1.82       0.10       0.16       ----

> <Gold.Chemscore.Fitness>
17.0319

> <Gold.Chemscore.DG>
-17.2950

> <Gold.Chemscore.ZeroCoef>
-5.4800

> <Gold.Chemscore.Hbond>
2.7266

> <Gold.Chemscore.Metal>
0.0000

> <Gold.Chemscore.Lipo>
62.9617

> <Gold.Chemscore.Internal_Hbond>
0.0000

> <Gold.Chemscore.DEClash>
0.0998

> <Gold.Chemscore.DEInternal>
0.1633

> <Gold.Chemscore.Rot>
1.8197

> <Gold.Chemscore.Internal.Correction>
   9.000000E+99

> <Gold.Chemscore.Hbonds>
donor molecule, donor type, donor heavy atom, donor atom, acceptor molecule, acceptor atom, score
      L1  H     9    29       P1  7948  0.96
      L1  H    12    30       P1  7948  0.86
      P1  H  7989  7998       L1     8  0.44

> <Gold.Chemscore.Hbond.Weighted>
-9.1068

> <Gold.Chemscore.Metal.Weighted>
-0.0000

> <Gold.Chemscore.Lipo.Weighted>
-7.3665

> <Gold.Chemscore.Internal_Hbond.Weighted>
0.0000

> <Gold.Chemscore.DEClash.Weighted>
0.0998

> <Gold.Chemscore.DEInternal.Weighted>
0.1633

> <Gold.Chemscore.Rot.Weighted>
4.6583

> <Gold.Chemscore.Internal.Correction.Weighted>
   9.000000E+99

> <Gold.Protein.RotatedTorsions>
[ 6907 6896 6895 6894 ] final  130.67 input  -60.11 | X-H torsion
[ 7974 7965 7964 7962 ] final  -47.33 input  175.53 | X-H torsion
[ 8008 7997 7996 7995 ] final  -23.03 input   59.86 | X-H torsion
[ 10167 10162 10161 10158 ] final -116.62 input  -65.29 | X-H torsion
[ 10718 10713 10712 10709 ] final -138.08 input   66.30 | X-H torsion
[ 10763 10752 10751 10750 ] final  -12.76 input  -60.55 | X-H torsion
[ 11005 11000 10999 10996 ] final  -83.30 input  -57.11 | X-H torsion

> <Gold.Protein.ActiveResidues>
 VAL166  LYS551  ARG553  GLY616  TRP617  ASP618  TYR619  PRO620  LYS621  CYS622 
 ASP623  PHE694  ASN695  SER759  ASP760  ASP761  ALA762  ILE779  LEU786  VAL792 
 PHE793  MET794  SER795  GLU796  ALA797  LYS798  CYS799  TRP800  GLU811  SER814 

> <Gold.Protein.RotatedAtoms>
  152.3503  133.6172  159.5939 H   0  0  0  0  0  0  0  0  0  0  0  0  # atno 6907 bound_to 6896
  150.7534  133.9584  159.3516 H   0  0  0  0  0  0  0  0  0  0  0  0  # atno 6908 bound_to 6896
  151.7437  135.0849  160.0371 H   0  0  0  0  0  0  0  0  0  0  0  0  # atno 6909 bound_to 6896
  145.9627  140.7463  142.9449 H   0  0  0  0  0  0  0  0  0  0  0  0  # atno 7974 bound_to 7965
  154.4609  140.1991  156.0249 H   0  0  0  0  0  0  0  0  0  0  0  0  # atno 8008 bound_to 7997
  156.0837  140.3268  155.7698 H   0  0  0  0  0  0  0  0  0  0  0  0  # atno 8009 bound_to 7997
  155.5070  140.0558  157.2920 H   0  0  0  0  0  0  0  0  0  0  0  0  # atno 8010 bound_to 7997
  140.0772  143.4822  152.1946 H   0  0  0  0  0  0  0  0  0  0  0  0  # atno 10167 bound_to 10162
  156.2953  130.7398  151.1435 H   0  0  0  0  0  0  0  0  0  0  0  0  # atno 10718 bound_to 10713
  153.5033  135.7017  153.5820 H   0  0  0  0  0  0  0  0  0  0  0  0  # atno 10763 bound_to 10752
  153.3942  135.3888  155.1944 H   0  0  0  0  0  0  0  0  0  0  0  0  # atno 10764 bound_to 10752
  154.8709  135.3865  154.4506 H   0  0  0  0  0  0  0  0  0  0  0  0  # atno 10765 bound_to 10752
  141.1658  133.7287  156.8699 H   0  0  0  0  0  0  0  0  0  0  0  0  # atno 11005 bound_to 11000
  144.6818  140.2617  143.7318 LP  0  0  0  0  0  0  0  0  0  0  0  0  # atno 17320 bound_to 7965
  145.8018  139.1967  143.2044 LP  0  0  0  0  0  0  0  0  0  0  0  0  # atno 17321 bound_to 7965
  139.5801  144.7506  151.3663 LP  0  0  0  0  0  0  0  0  0  0  0  0  # atno 17342 bound_to 10162
  140.7096  143.7425  150.7543 LP  0  0  0  0  0  0  0  0  0  0  0  0  # atno 17343 bound_to 10162
  157.7353  131.0573  150.5474 LP  0  0  0  0  0  0  0  0  0  0  0  0  # atno 17370 bound_to 10713
  156.5596  130.4252  149.6069 LP  0  0  0  0  0  0  0  0  0  0  0  0  # atno 17371 bound_to 10713
  140.1789  134.9047  157.2924 LP  0  0  0  0  0  0  0  0  0  0  0  0  # atno 17394 bound_to 11000
  140.2418  134.3787  155.7477 LP  0  0  0  0  0  0  0  0  0  0  0  0  # atno 17395 bound_to 11000

$$$$
