AV-unprocessed.smi:1570|AV-procd|sdf|6313|dock1
  -GOLD-   22720 6513D 1   1.00000     0.00000
 Structure written by MMmdl.
 51 53  0  0  0  0  0  0  0  0  1 V2000
  153.2607  142.2592  161.9909 C   0  0  0  0  0  0  0  0  0  0  0  0
  153.8193  141.3599  160.8810 C   0  0  0  0  0  0  0  0  0  0  0  0
  152.9380  141.3477  159.7159 N   0  0  0  0  0  0  0  0  0  0  0  0
  152.3879  140.2570  159.1331 C   0  0  0  0  0  0  0  0  0  0  0  0
  152.5436  139.0901  159.4930 O   0  0  0  0  0  0  0  0  0  0  0  0
  151.6308  140.6720  158.0896 N   0  0  0  0  0  0  0  0  0  0  0  0
  150.8734  139.8161  157.1735 C   0  0  0  0  0  0  0  0  0  0  0  0
  151.3961  139.8877  155.7199 C   0  0  1  0  0  0  0  0  0  0  0  0
  152.7857  139.6355  155.6918 O   0  0  0  0  0  0  0  0  0  0  0  0
  150.6598  138.9865  154.6999 C   0  0  0  0  0  0  0  0  0  0  0  0
  149.2188  139.2025  154.5547 N   0  0  0  0  0  0  0  0  0  0  0  0
  148.6436  138.4816  153.4231 C   0  0  0  0  0  0  0  0  0  0  0  0
  147.1286  138.7314  153.2909 C   0  0  2  0  0  0  0  0  0  0  0  0
  146.5366  138.0536  152.0510 C   0  0  0  0  0  0  0  0  0  0  0  0
  146.8897  140.1329  153.1931 O   0  0  0  0  0  0  0  0  0  0  0  0
  147.3942  140.8686  154.3040 C   0  0  2  0  0  0  0  0  0  0  0  0
  147.0636  142.3497  154.0939 C   0  0  0  0  0  0  0  0  0  0  0  0
  148.9095  140.6204  154.4206 C   0  0  0  0  0  0  0  0  0  0  0  0
  151.6714  142.0749  158.0252 C   0  0  0  0  0  0  0  0  0  0  0  0
  151.0483  142.9853  157.1521 C   0  0  0  0  0  0  0  0  0  0  0  0
  151.3087  144.3606  157.3531 C   0  0  0  0  0  0  0  0  0  0  0  0
  152.1613  144.7927  158.4011 C   0  0  0  0  0  0  0  0  0  0  0  0
  152.7714  143.8583  159.2698 C   0  0  0  0  0  0  0  0  0  0  0  0
  152.4993  142.4973  159.0447 C   0  0  0  0  0  0  0  0  0  0  0  0
  153.9288  142.2720  162.8521 H   0  0  0  0  0  0  0  0  0  0  0  0
  152.2866  141.9067  162.3317 H   0  0  0  0  0  0  0  0  0  0  0  0
  153.1439  143.2869  161.6455 H   0  0  0  0  0  0  0  0  0  0  0  0
  154.8121  141.7014  160.5869 H   0  0  0  0  0  0  0  0  0  0  0  0
  153.9499  140.3445  161.2578 H   0  0  0  0  0  0  0  0  0  0  0  0
  150.9318  138.7880  157.5343 H   0  0  0  0  0  0  0  0  0  0  0  0
  149.8159  140.0769  157.2031 H   0  0  0  0  0  0  0  0  0  0  0  0
  151.2928  140.9148  155.3691 H   0  0  0  0  0  0  0  0  0  0  0  0
  152.9490  138.9287  155.0858 H   0  0  0  0  0  0  0  0  0  0  0  0
  151.1237  139.1808  153.7319 H   0  0  0  0  0  0  0  0  0  0  0  0
  150.8656  137.9356  154.9095 H   0  0  0  0  0  0  0  0  0  0  0  0
  149.1460  138.7810  152.5019 H   0  0  0  0  0  0  0  0  0  0  0  0
  148.8082  137.4110  153.5366 H   0  0  0  0  0  0  0  0  0  0  0  0
  146.6175  138.3486  154.1758 H   0  0  0  0  0  0  0  0  0  0  0  0
  146.6852  136.9741  152.0855 H   0  0  0  0  0  0  0  0  0  0  0  0
  147.0010  138.4270  151.1377 H   0  0  0  0  0  0  0  0  0  0  0  0
  145.4648  138.2395  151.9800 H   0  0  0  0  0  0  0  0  0  0  0  0
  146.8962  140.5246  155.2122 H   0  0  0  0  0  0  0  0  0  0  0  0
  147.4208  142.9533  154.9286 H   0  0  0  0  0  0  0  0  0  0  0  0
  145.9869  142.5002  154.0117 H   0  0  0  0  0  0  0  0  0  0  0  0
  147.5243  142.7316  153.1824 H   0  0  0  0  0  0  0  0  0  0  0  0
  149.2953  141.1641  155.2839 H   0  0  0  0  0  0  0  0  0  0  0  0
  149.4155  141.0267  153.5434 H   0  0  0  0  0  0  0  0  0  0  0  0
  150.4020  142.6572  156.3524 H   0  0  0  0  0  0  0  0  0  0  0  0
  150.8531  145.0901  156.6996 H   0  0  0  0  0  0  0  0  0  0  0  0
  152.3461  145.8480  158.5380 H   0  0  0  0  0  0  0  0  0  0  0  0
  153.4187  144.1820  160.0713 H   0  0  0  0  0  0  0  0  0  0  0  0
  1  2  1  0  0  0  0
  1 25  1  0  0  0  0
  1 26  1  0  0  0  0
  1 27  1  0  0  0  0
  2  3  1  0  0  0  0
  2 28  1  0  0  0  0
  2 29  1  0  0  0  0
  3 24  1  0  0  0  0
  3  4  1  0  0  0  0
  4  5  2  0  0  0  0
  4  6  1  0  0  0  0
  6  7  1  0  0  0  0
  6 19  1  0  0  0  0
  7  8  1  0  0  0  0
  7 30  1  0  0  0  0
  7 31  1  0  0  0  0
  8  9  1  0  0  0  0
  8 10  1  0  0  0  0
  8 32  1  0  0  0  0
  9 33  1  0  0  0  0
 10 11  1  0  0  0  0
 10 34  1  0  0  0  0
 10 35  1  0  0  0  0
 11 18  1  0  0  0  0
 11 12  1  0  0  0  0
 12 13  1  0  0  0  0
 12 36  1  0  0  0  0
 12 37  1  0  0  0  0
 13 14  1  0  0  0  0
 13 15  1  0  0  0  0
 13 38  1  0  0  0  0
 14 39  1  0  0  0  0
 14 40  1  0  0  0  0
 14 41  1  0  0  0  0
 15 16  1  0  0  0  0
 16 17  1  0  0  0  0
 16 18  1  0  0  0  0
 16 42  1  0  0  0  0
 17 43  1  0  0  0  0
 17 44  1  0  0  0  0
 17 45  1  0  0  0  0
 18 46  1  0  0  0  0
 18 47  1  0  0  0  0
 19 24  2  0  0  0  0
 19 20  1  0  0  0  0
 20 21  2  0  0  0  0
 20 48  1  0  0  0  0
 21 22  1  0  0  0  0
 21 49  1  0  0  0  0
 22 23  2  0  0  0  0
 22 50  1  0  0  0  0
 23 24  1  0  0  0  0
 23 51  1  0  0  0  0
M  END
> <s_m_source_file>
AV-unprocessed.smi

> <i_m_source_file_index>
1570

> <i_lp_mmshare_version>
43012

> <i_f3d_flags>
0

> <s_epik_input>
W2NIXTFbY0hdW2NIXVtjSF1jKGMxMiluKFtDSDJdW0NIM10pYyg9TyluMltDSDJdW0NASF0oW09IXSlbQ0gyXU4zW0NIMl1bQ0BASF0oW0NIM10pT1tDQEBIXShbQ0gzXSlbQ0gyXTM=

> <s_epik_cmdline>
J2VwaWtfcHl0aG9uJywgJy1waCcsICc3LjAnLCAnLXRuJywgJzgnLCAnLW1hJywgJzIwMCcsICctbWV0YWxfYmluZGluZycsICctaW1hZScsICc8aW5maWxlLm1hZT4nLCAnLW9tYWUnLCAnPG91dGZpbGUubWFlPic=

> <r_epik_Ionization_Penalty>
0.214359

> <r_epik_Ionization_Penalty_Charging>
2.30976e-09

> <r_epik_Ionization_Penalty_Neutral>
0.214359

> <r_epik_State_Penalty>
0.204533

> <r_epik_Charging_Adjusted_Penalty>
0.204533

> <i_epik_Tot_Q>
0

> <i_epik_Tot_abs_Q>
0

> <r_epik_Metal_State_Penalty>
0.204533

> <b_epik_Metal_Only>
0

> <s_lp_Force_Field>
OPLS_2005

> <r_lp_Energy>
59.6928

> <b_lp_Chiralities_Consistent>
1

> <s_lp_Variant>
AV-unprocessed.smi:1570-2

> <Gold.Version>
5.8.1

> <Gold.Id.Protein>
6NUR|6NUR_protein|mol2

> <Gold.PLP.Fitness>
57.8665

> <Gold.PLP.PLP>
-55.0246

> <Gold.PLP.part.hbond>
-1.0000

> <Gold.PLP.part.metal>
0.0000

> <Gold.PLP.part.buried>
-0.0899

> <Gold.PLP.part.nonpolar>
-54.0627

> <Gold.PLP.part.repulsive>
0.3178

> <Gold.PLP.ligand.clash>
0.0000

> <Gold.PLP.ligand.torsion>
0.1335

> <Gold.PLP.Chemscore.Hbond>
1.0000

> <Gold.PLP.Chemscore.CHOScore>
0.0000

> <Gold.PLP.Chemscore.Metal>
0.0000

> <Gold.Chemscore.Hbonds>
donor molecule, donor type, donor heavy atom, donor atom, acceptor molecule, acceptor atom, score
      P1  H  7997  8009       L1     9  0.90

> <Gold.PLP.Chemscore.Internal.Correction>
0.1088

> <Gold.Rescore>
     Score         DG    S(hbond)    S(metal)    S(lipo)     H(rot)  DE(clash)    DE(int)     intcor
     20.13     -20.52       0.85        0.00     149.25       2.06       0.31       0.08       ----

> <Gold.Chemscore.Fitness>
20.1336

> <Gold.Chemscore.DG>
-20.5222

> <Gold.Chemscore.ZeroCoef>
-5.4800

> <Gold.Chemscore.Hbond>
0.8525

> <Gold.Chemscore.Metal>
0.0000

> <Gold.Chemscore.Lipo>
149.2458

> <Gold.Chemscore.Internal_Hbond>
0.0000

> <Gold.Chemscore.DEClash>
0.3117

> <Gold.Chemscore.DEInternal>
0.0769

> <Gold.Chemscore.Rot>
2.0574

> <Gold.Chemscore.Internal.Correction>
   9.000000E+99

> <Gold.Chemscore.Hbonds>
donor molecule, donor type, donor heavy atom, donor atom, acceptor molecule, acceptor atom, score
      P1  H  7997  8009       L1     9  0.18

> <Gold.Chemscore.Hbond.Weighted>
-2.8473

> <Gold.Chemscore.Metal.Weighted>
-0.0000

> <Gold.Chemscore.Lipo.Weighted>
-17.4618

> <Gold.Chemscore.Internal_Hbond.Weighted>
0.0000

> <Gold.Chemscore.DEClash.Weighted>
0.3117

> <Gold.Chemscore.DEInternal.Weighted>
0.0769

> <Gold.Chemscore.Rot.Weighted>
5.2669

> <Gold.Chemscore.Internal.Correction.Weighted>
   9.000000E+99

> <Gold.Protein.RotatedTorsions>
[ 6907 6896 6895 6894 ] final   38.85 input  -60.11 | X-H torsion
[ 7974 7965 7964 7962 ] final   12.72 input  175.53 | X-H torsion
[ 8008 7997 7996 7995 ] final -134.28 input   59.86 | X-H torsion
[ 10167 10162 10161 10158 ] final -146.02 input  -65.29 | X-H torsion
[ 10718 10713 10712 10709 ] final -166.59 input   66.30 | X-H torsion
[ 10763 10752 10751 10750 ] final -156.75 input  -60.55 | X-H torsion
[ 11005 11000 10999 10996 ] final  109.74 input  -57.11 | X-H torsion

> <Gold.Protein.ActiveResidues>
 VAL166  LYS551  ARG553  GLY616  TRP617  ASP618  TYR619  PRO620  LYS621  CYS622 
 ASP623  PHE694  ASN695  SER759  ASP760  ASP761  ALA762  ILE779  LEU786  VAL792 
 PHE793  MET794  SER795  GLU796  ALA797  LYS798  CYS799  TRP800  GLU811  SER814 

> <Gold.Protein.RotatedAtoms>
  152.1619  134.8905  160.0540 H   0  0  0  0  0  0  0  0  0  0  0  0  # atno 6907 bound_to 6896
  151.9897  133.3782  159.4148 H   0  0  0  0  0  0  0  0  0  0  0  0  # atno 6908 bound_to 6896
  150.6889  134.3872  159.5104 H   0  0  0  0  0  0  0  0  0  0  0  0  # atno 6909 bound_to 6896
  146.2345  139.9295  142.8498 H   0  0  0  0  0  0  0  0  0  0  0  0  # atno 7974 bound_to 7965
  155.3595  140.0482  157.3046 H   0  0  0  0  0  0  0  0  0  0  0  0  # atno 8008 bound_to 7997
  154.5185  140.2217  155.8984 H   0  0  0  0  0  0  0  0  0  0  0  0  # atno 8009 bound_to 7997
  156.1663  140.3105  155.8901 H   0  0  0  0  0  0  0  0  0  0  0  0  # atno 8010 bound_to 7997
  139.7752  143.8180  152.2631 H   0  0  0  0  0  0  0  0  0  0  0  0  # atno 10167 bound_to 10162
  156.6701  130.9080  151.3042 H   0  0  0  0  0  0  0  0  0  0  0  0  # atno 10718 bound_to 10713
  154.7689  135.3139  154.8230 H   0  0  0  0  0  0  0  0  0  0  0  0  # atno 10763 bound_to 10752
  153.8971  135.6819  153.4761 H   0  0  0  0  0  0  0  0  0  0  0  0  # atno 10764 bound_to 10752
  153.1299  135.4785  154.9266 H   0  0  0  0  0  0  0  0  0  0  0  0  # atno 10765 bound_to 10752
  139.8868  134.9466  156.6172 H   0  0  0  0  0  0  0  0  0  0  0  0  # atno 11005 bound_to 11000
  145.2058  140.9874  143.4129 LP  0  0  0  0  0  0  0  0  0  0  0  0  # atno 17320 bound_to 7965
  144.9734  139.3856  143.6297 LP  0  0  0  0  0  0  0  0  0  0  0  0  # atno 17321 bound_to 7965
  139.8226  144.7289  150.9552 LP  0  0  0  0  0  0  0  0  0  0  0  0  # atno 17342 bound_to 10162
  140.7816  143.4144  151.0940 LP  0  0  0  0  0  0  0  0  0  0  0  0  # atno 17343 bound_to 10162
  157.7080  130.9407  150.0994 LP  0  0  0  0  0  0  0  0  0  0  0  0  # atno 17370 bound_to 10713
  156.1945  130.3656  149.8867 LP  0  0  0  0  0  0  0  0  0  0  0  0  # atno 17371 bound_to 10713
  140.7766  133.8694  155.8534 LP  0  0  0  0  0  0  0  0  0  0  0  0  # atno 17394 bound_to 11000
  140.9796  134.1423  157.4506 LP  0  0  0  0  0  0  0  0  0  0  0  0  # atno 17395 bound_to 11000

$$$$
