AV-unprocessed.smi:102|AV-procd|sdf|974|dock5
  -GOLD-   2262017533D 1   1.00000     0.00000
 Structure written by MMmdl.
 43 44  0  0  0  0  0  0  0  0  2 V2000
  146.3491  135.0822  162.7309 C   0  0  0  0  0  0  0  0  0  0  0  0
  147.0947  136.1822  161.9853 C   0  0  0  0  0  0  0  0  0  0  0  0
  146.8734  137.3723  162.2097 O   0  0  0  0  0  0  0  0  0  0  0  0
  147.9744  135.6975  161.0974 O   0  0  0  0  0  0  0  0  0  0  0  0
  148.5023  136.5469  160.0904 C   0  0  0  0  0  0  0  0  0  0  0  0
  147.9517  136.1609  158.7087 C   0  0  1  0  0  0  0  0  0  0  0  0
  148.4302  137.0878  157.7353 O   0  0  0  0  0  0  0  0  0  0  0  0
  149.0898  136.4013  156.7191 C   0  0  1  0  0  0  0  0  0  0  0  0
  150.2488  137.2536  156.2450 N   0  0  0  0  0  0  0  0  0  0  0  0
  150.3719  138.5633  156.6798 C   0  0  0  0  0  0  0  0  0  0  0  0
  151.3456  139.3723  156.2165 C   0  0  0  0  0  0  0  0  0  0  0  0
  151.4325  140.6379  156.6614 F   0  0  0  0  0  0  0  0  0  0  0  0
  152.2854  138.8708  155.2175 C   0  0  0  0  0  0  0  0  0  0  0  0
  153.1915  139.6014  154.8199 O   0  0  0  0  0  0  0  0  0  0  0  0
  152.1065  137.5984  154.7599 N   0  5  0  0  0  0  0  0  0  0  0  0
  151.1106  136.7815  155.2140 C   0  0  0  0  0  0  0  0  0  0  0  0
  150.9310  135.6476  154.7708 O   0  0  0  0  0  0  0  0  0  0  0  0
  149.5106  135.0397  157.2758 C   0  0  2  0  0  0  0  0  0  0  0  0
  149.6469  134.0797  156.2353 O   0  0  0  0  0  0  0  0  0  0  0  0
  150.2632  132.9111  156.4764 C   0  0  0  0  0  0  0  0  0  0  0  0
  150.2658  131.9949  155.2604 C   0  0  0  0  0  0  0  0  0  0  0  0
  150.7755  132.5677  157.5421 O   0  0  0  0  0  0  0  0  0  0  0  0
  148.3639  134.7537  158.2371 C   0  0  2  0  0  0  0  0  0  0  0  0
  147.2765  134.1378  157.5512 O   0  0  0  0  0  0  0  0  0  0  0  0
  146.1275  133.8733  158.1965 C   0  0  0  0  0  0  0  0  0  0  0  0
  145.1032  133.1920  157.2992 C   0  0  0  0  0  0  0  0  0  0  0  0
  145.8788  134.1362  159.3732 O   0  0  0  0  0  0  0  0  0  0  0  0
  146.8293  134.1144  162.5843 H   0  0  0  0  0  0  0  0  0  0  0  0
  145.3220  135.0152  162.3726 H   0  0  0  0  0  0  0  0  0  0  0  0
  146.3295  135.2965  163.7995 H   0  0  0  0  0  0  0  0  0  0  0  0
  148.2327  137.5788  160.3191 H   0  0  0  0  0  0  0  0  0  0  0  0
  149.5917  136.4895  160.0842 H   0  0  0  0  0  0  0  0  0  0  0  0
  146.8654  136.2477  158.7473 H   0  0  0  0  0  0  0  0  0  0  0  0
  148.3975  136.2700  155.8876 H   0  0  0  0  0  0  0  0  0  0  0  0
  149.6711  138.9688  157.3909 H   0  0  0  0  0  0  0  0  0  0  0  0
  150.4343  135.1382  157.8421 H   0  0  0  0  0  0  0  0  0  0  0  0
  150.5544  132.5490  154.3669 H   0  0  0  0  0  0  0  0  0  0  0  0
  149.2721  131.5758  155.1031 H   0  0  0  0  0  0  0  0  0  0  0  0
  150.9699  131.1743  155.4001 H   0  0  0  0  0  0  0  0  0  0  0  0
  148.7024  134.1202  159.0586 H   0  0  0  0  0  0  0  0  0  0  0  0
  145.5497  132.3327  156.7982 H   0  0  0  0  0  0  0  0  0  0  0  0
  144.7440  133.8880  156.5409 H   0  0  0  0  0  0  0  0  0  0  0  0
  144.2504  132.8462  157.8836 H   0  0  0  0  0  0  0  0  0  0  0  0
  1  2  1  0  0  0  0
  1 28  1  0  0  0  0
  1 29  1  0  0  0  0
  1 30  1  0  0  0  0
  2  3  2  0  0  0  0
  2  4  1  0  0  0  0
  4  5  1  0  0  0  0
  5  6  1  0  0  0  0
  5 31  1  0  0  0  0
  5 32  1  0  0  0  0
  6 23  1  0  0  0  0
  6  7  1  0  0  0  0
  6 33  1  0  0  0  0
  7  8  1  0  0  0  0
  8  9  1  0  0  0  0
  8 18  1  0  0  0  0
  8 34  1  0  0  0  0
  9 16  1  0  0  0  0
  9 10  1  0  0  0  0
 10 11  2  0  0  0  0
 10 35  1  0  0  0  0
 11 12  1  0  0  0  0
 11 13  1  0  0  0  0
 13 14  2  0  0  0  0
 13 15  1  0  0  0  0
 15 16  1  0  0  0  0
 16 17  2  0  0  0  0
 18 19  1  0  0  0  0
 18 23  1  0  0  0  0
 18 36  1  0  0  0  0
 19 20  1  0  0  0  0
 20 21  1  0  0  0  0
 20 22  2  0  0  0  0
 21 37  1  0  0  0  0
 21 38  1  0  0  0  0
 21 39  1  0  0  0  0
 23 24  1  0  0  0  0
 23 40  1  0  0  0  0
 24 25  1  0  0  0  0
 25 26  1  0  0  0  0
 25 27  2  0  0  0  0
 26 41  1  0  0  0  0
 26 42  1  0  0  0  0
 26 43  1  0  0  0  0
M  CHG  1  15  -1
M  END
> <s_m_source_file>
AV-unprocessed.smi

> <i_m_source_file_index>
102

> <i_lp_mmshare_version>
43012

> <i_f3d_flags>
0

> <s_epik_input>
W0NIM11DKD1PKU9bQ0gyXVtDQEBIXTFPW0NASF0oW0NAQEhdKE9DKD1PKVtDSDNdKVtDQEhdMU9DKD1PKVtDSDNdKW4yW2NIXWMoRiljKD1PKVtuSF1jMj1P

> <s_epik_cmdline>
J2VwaWtfcHl0aG9uJywgJy1waCcsICc3LjAnLCAnLXRuJywgJzgnLCAnLW1hJywgJzIwMCcsICctbWV0YWxfYmluZGluZycsICctaW1hZScsICc8aW5maWxlLm1hZT4nLCAnLW9tYWUnLCAnPG91dGZpbGUubWFlPic=

> <r_epik_Ionization_Penalty>
1.40304

> <r_epik_Ionization_Penalty_Charging>
1.43915e-08

> <r_epik_Ionization_Penalty_Neutral>
1.40304

> <r_epik_State_Penalty>
1.48536

> <r_epik_Charging_Adjusted_Penalty>
1.48536

> <i_epik_Tot_Q>
-1

> <i_epik_Tot_abs_Q>
1

> <r_epik_Metal_State_Penalty>
0.00663881

> <b_epik_Metal_Only>
0

> <s_epik_Chemistry_Notes>
This compound has an ester and may undergo hydrolysis at high or low pH. This compound contains an acetal/aminal-like group ( X-CH(R)-Y where X, Y are N, S, or O) that may be acid/base labile, releasing an aldehyde.

> <s_lp_Force_Field>
OPLS_2005

> <r_lp_Energy>
27.5776

> <b_lp_Chiralities_Consistent>
1

> <s_lp_Variant>
AV-unprocessed.smi:102-30

> <Gold.Version>
5.8.1

> <Gold.Id.Protein>
6NUR|6NUR_protein|mol2

> <Gold.PLP.Fitness>
42.2443

> <Gold.PLP.PLP>
-33.3041

> <Gold.PLP.part.hbond>
-7.0000

> <Gold.PLP.part.metal>
0.0000

> <Gold.PLP.part.buried>
-3.9217

> <Gold.PLP.part.nonpolar>
-22.7628

> <Gold.PLP.part.repulsive>
0.3141

> <Gold.PLP.ligand.clash>
0.0000

> <Gold.PLP.ligand.torsion>
0.7967

> <Gold.PLP.Chemscore.Hbond>
3.4329

> <Gold.PLP.Chemscore.CHOScore>
0.0000

> <Gold.PLP.Chemscore.Metal>
0.0000

> <Gold.Chemscore.Hbonds>
donor molecule, donor type, donor heavy atom, donor atom, acceptor molecule, acceptor atom, score
      P1  H  6896  6909       L1    22  1.00
      P1  H  6931  6943       L1     3  0.16
      P1  H  6934  6947       L1     3  0.59
      P1  H  7989  7998       L1    14  0.03
      P1  H  7997  8008       L1    14  1.00
      P1  H 10752 10763       L1    15  0.15

> <Gold.PLP.Chemscore.Internal.Correction>
0.2350

> <Gold.Rescore>
     Score         DG    S(hbond)    S(metal)    S(lipo)     H(rot)  DE(clash)    DE(int)     intcor
      6.25      -9.46       2.90        0.00      38.76       4.00       0.10       3.11       ----

> <Gold.Chemscore.Fitness>
6.2504

> <Gold.Chemscore.DG>
-9.4569

> <Gold.Chemscore.ZeroCoef>
-5.4800

> <Gold.Chemscore.Hbond>
2.8951

> <Gold.Chemscore.Metal>
0.0000

> <Gold.Chemscore.Lipo>
38.7593

> <Gold.Chemscore.Internal_Hbond>
0.0000

> <Gold.Chemscore.DEClash>
0.0986

> <Gold.Chemscore.DEInternal>
3.1079

> <Gold.Chemscore.Rot>
3.9951

> <Gold.Chemscore.Internal.Correction>
   9.000000E+99

> <Gold.Chemscore.Hbonds>
donor molecule, donor type, donor heavy atom, donor atom, acceptor molecule, acceptor atom, score
      P1  H  6896  6909       L1    22  0.99
      P1  H  6931  6943       L1     3  0.05
      P1  H  6934  6947       L1     3  0.58
      P1  H  7997  8008       L1    14  0.98

> <Gold.Chemscore.Hbond.Weighted>
-9.6695

> <Gold.Chemscore.Metal.Weighted>
-0.0000

> <Gold.Chemscore.Lipo.Weighted>
-4.5348

> <Gold.Chemscore.Internal_Hbond.Weighted>
0.0000

> <Gold.Chemscore.DEClash.Weighted>
0.0986

> <Gold.Chemscore.DEInternal.Weighted>
3.1079

> <Gold.Chemscore.Rot.Weighted>
10.2274

> <Gold.Chemscore.Internal.Correction.Weighted>
   9.000000E+99

> <Gold.Protein.RotatedTorsions>
[ 6907 6896 6895 6894 ] final  -26.31 input  -60.11 | X-H torsion
[ 7974 7965 7964 7962 ] final  -48.73 input  175.53 | X-H torsion
[ 8008 7997 7996 7995 ] final  -18.26 input   59.86 | X-H torsion
[ 10167 10162 10161 10158 ] final   76.93 input  -65.29 | X-H torsion
[ 10718 10713 10712 10709 ] final -179.73 input   66.30 | X-H torsion
[ 10763 10752 10751 10750 ] final   20.56 input  -60.55 | X-H torsion
[ 11005 11000 10999 10996 ] final -131.88 input  -57.11 | X-H torsion

> <Gold.Protein.ActiveResidues>
 VAL166  LYS551  ARG553  GLY616  TRP617  ASP618  TYR619  PRO620  LYS621  CYS622 
 ASP623  PHE694  ASN695  SER759  ASP760  ASP761  ALA762  ILE779  LEU786  VAL792 
 PHE793  MET794  SER795  GLU796  ALA797  LYS798  CYS799  TRP800  GLU811  SER814 

> <Gold.Protein.RotatedAtoms>
  151.1628  135.0281  159.8717 H   0  0  0  0  0  0  0  0  0  0  0  0  # atno 6907 bound_to 6896
  152.5451  134.1259  159.8429 H   0  0  0  0  0  0  0  0  0  0  0  0  # atno 6908 bound_to 6896
  151.1356  133.4960  159.2630 H   0  0  0  0  0  0  0  0  0  0  0  0  # atno 6909 bound_to 6896
  145.9481  140.7599  142.9518 H   0  0  0  0  0  0  0  0  0  0  0  0  # atno 7974 bound_to 7965
  154.4918  140.2120  155.9531 H   0  0  0  0  0  0  0  0  0  0  0  0  # atno 8008 bound_to 7997
  156.1316  140.3196  155.8326 H   0  0  0  0  0  0  0  0  0  0  0  0  # atno 8009 bound_to 7997
  155.4285  140.0502  157.3011 H   0  0  0  0  0  0  0  0  0  0  0  0  # atno 8010 bound_to 7997
  139.9870  144.5785  150.7851 H   0  0  0  0  0  0  0  0  0  0  0  0  # atno 10167 bound_to 10162
  156.8634  130.9759  151.3081 H   0  0  0  0  0  0  0  0  0  0  0  0  # atno 10718 bound_to 10713
  153.1067  135.6686  153.9574 H   0  0  0  0  0  0  0  0  0  0  0  0  # atno 10763 bound_to 10752
  153.9129  135.3023  155.3450 H   0  0  0  0  0  0  0  0  0  0  0  0  # atno 10764 bound_to 10752
  154.7488  135.5045  153.9328 H   0  0  0  0  0  0  0  0  0  0  0  0  # atno 10765 bound_to 10752
  140.9220  134.1432  157.4306 H   0  0  0  0  0  0  0  0  0  0  0  0  # atno 11005 bound_to 11000
  144.6791  140.2390  143.7346 LP  0  0  0  0  0  0  0  0  0  0  0  0  # atno 17320 bound_to 7965
  145.8209  139.2043  143.1939 LP  0  0  0  0  0  0  0  0  0  0  0  0  # atno 17321 bound_to 7965
  140.7469  143.2897  151.3364 LP  0  0  0  0  0  0  0  0  0  0  0  0  # atno 17342 bound_to 10162
  139.6368  144.0615  152.2522 LP  0  0  0  0  0  0  0  0  0  0  0  0  # atno 17343 bound_to 10162
  157.6237  130.8675  149.9153 LP  0  0  0  0  0  0  0  0  0  0  0  0  # atno 17370 bound_to 10713
  156.0765  130.3678  150.0668 LP  0  0  0  0  0  0  0  0  0  0  0  0  # atno 17371 bound_to 10713
  139.8777  134.9975  156.5848 LP  0  0  0  0  0  0  0  0  0  0  0  0  # atno 17394 bound_to 11000
  140.7975  133.8532  155.8698 LP  0  0  0  0  0  0  0  0  0  0  0  0  # atno 17395 bound_to 11000

$$$$
