AV-unprocessed.smi:3172|AV-procd|sdf|12113|dock5
  -GOLD-   2272017553D 1   1.00000     0.00000
 Structure written by MMmdl.
 44 45  0  0  0  0  0  0  0  0  3 V2000
  146.6597  138.8335  152.3075 C   0  0  0  0  0  0  0  0  0  0  0  0
  147.7477  139.3946  153.1604 C   0  0  0  0  0  0  0  0  0  0  0  0
  148.8814  138.6852  153.4557 N   0  3  0  0  0  0  0  0  0  0  0  0
  149.6949  139.4031  154.2310 C   0  0  0  0  0  0  0  0  0  0  0  0
  149.0882  140.5757  154.4494 N   0  0  0  0  0  0  0  0  0  0  0  0
  149.7088  141.6228  155.2772 C   0  0  0  0  0  0  0  0  0  0  0  0
  149.4551  141.4230  156.7848 C   0  0  2  0  0  0  0  0  0  0  0  0
  148.0891  140.7661  157.0322 C   0  0  0  0  0  0  0  0  0  0  0  0
  149.5372  142.7185  157.4995 N   0  3  0  0  0  0  0  0  0  0  0  0
  150.8885  143.1185  157.9509 C   0  0  0  0  0  0  0  0  0  0  0  0
  151.4717  142.0332  158.8757 C   0  0  0  0  0  0  0  0  0  0  0  0
  152.8625  142.4259  159.4000 C   0  0  0  0  0  0  0  0  0  0  0  0
  152.8229  143.7832  160.1185 C   0  0  0  0  0  0  0  0  0  0  0  0
  152.2385  144.8744  159.2085 C   0  0  0  0  0  0  0  0  0  0  0  0
  150.8494  144.4784  158.6826 C   0  0  0  0  0  0  0  0  0  0  0  0
  147.8778  140.6113  153.7901 C   0  0  0  0  0  0  0  0  0  0  0  0
  146.9529  141.7859  153.8178 C   0  0  0  0  0  0  0  0  0  0  0  0
  146.2068  139.6193  151.7028 H   0  0  0  0  0  0  0  0  0  0  0  0
  145.8866  138.3863  152.9326 H   0  0  0  0  0  0  0  0  0  0  0  0
  147.0525  138.0683  151.6372 H   0  0  0  0  0  0  0  0  0  0  0  0
  150.6535  139.0920  154.6070 H   0  0  0  0  0  0  0  0  0  0  0  0
  150.7795  141.6461  155.0669 H   0  0  0  0  0  0  0  0  0  0  0  0
  149.3094  142.5814  154.9445 H   0  0  0  0  0  0  0  0  0  0  0  0
  150.2201  140.7494  157.1684 H   0  0  0  0  0  0  0  0  0  0  0  0
  148.0202  139.8038  156.5241 H   0  0  0  0  0  0  0  0  0  0  0  0
  147.2744  141.3923  156.6667 H   0  0  0  0  0  0  0  0  0  0  0  0
  147.9191  140.5859  158.0940 H   0  0  0  0  0  0  0  0  0  0  0  0
  149.1951  143.4491  156.8923 H   0  0  0  0  0  0  0  0  0  0  0  0
  151.5380  143.1993  157.0778 H   0  0  0  0  0  0  0  0  0  0  0  0
  150.8018  141.8649  159.7203 H   0  0  0  0  0  0  0  0  0  0  0  0
  151.5393  141.0844  158.3419 H   0  0  0  0  0  0  0  0  0  0  0  0
  153.2354  141.6578  160.0786 H   0  0  0  0  0  0  0  0  0  0  0  0
  153.5678  142.4722  158.5692 H   0  0  0  0  0  0  0  0  0  0  0  0
  152.2211  143.7006  161.0247 H   0  0  0  0  0  0  0  0  0  0  0  0
  153.8266  144.0646  160.4391 H   0  0  0  0  0  0  0  0  0  0  0  0
  152.1758  145.8170  159.7530 H   0  0  0  0  0  0  0  0  0  0  0  0
  152.9115  145.0477  158.3677 H   0  0  0  0  0  0  0  0  0  0  0  0
  150.4845  145.2645  158.0220 H   0  0  0  0  0  0  0  0  0  0  0  0
  150.1472  144.4302  159.5163 H   0  0  0  0  0  0  0  0  0  0  0  0
  146.2979  141.7724  152.9468 H   0  0  0  0  0  0  0  0  0  0  0  0
  147.5084  142.7236  153.8062 H   0  0  0  0  0  0  0  0  0  0  0  0
  146.3317  141.7555  154.7125 H   0  0  0  0  0  0  0  0  0  0  0  0
  148.9299  142.6640  158.3052 H   0  0  0  0  0  0  0  0  0  0  0  0
  149.0796  137.7485  153.1259 H   0  0  0  0  0  0  0  0  0  0  0  0
  1  2  1  0  0  0  0
  1 18  1  0  0  0  0
  1 19  1  0  0  0  0
  1 20  1  0  0  0  0
  2 16  2  0  0  0  0
  2  3  1  0  0  0  0
  3  4  2  0  0  0  0
  3 44  1  0  0  0  0
  4  5  1  0  0  0  0
  4 21  1  0  0  0  0
  5  6  1  0  0  0  0
  5 16  1  0  0  0  0
  6  7  1  0  0  0  0
  6 22  1  0  0  0  0
  6 23  1  0  0  0  0
  7  8  1  0  0  0  0
  7  9  1  0  0  0  0
  7 24  1  0  0  0  0
  8 25  1  0  0  0  0
  8 26  1  0  0  0  0
  8 27  1  0  0  0  0
  9 10  1  0  0  0  0
  9 28  1  0  0  0  0
  9 43  1  0  0  0  0
 10 15  1  0  0  0  0
 10 11  1  0  0  0  0
 10 29  1  0  0  0  0
 11 12  1  0  0  0  0
 11 30  1  0  0  0  0
 11 31  1  0  0  0  0
 12 13  1  0  0  0  0
 12 32  1  0  0  0  0
 12 33  1  0  0  0  0
 13 14  1  0  0  0  0
 13 34  1  0  0  0  0
 13 35  1  0  0  0  0
 14 15  1  0  0  0  0
 14 36  1  0  0  0  0
 14 37  1  0  0  0  0
 15 38  1  0  0  0  0
 15 39  1  0  0  0  0
 16 17  1  0  0  0  0
 17 40  1  0  0  0  0
 17 41  1  0  0  0  0
 17 42  1  0  0  0  0
M  CHG  1   3   1
M  CHG  1   9   1
M  END
> <s_m_source_file>
AV-unprocessed.smi

> <i_m_source_file_index>
3172

> <i_lp_mmshare_version>
43012

> <i_f3d_flags>
0

> <s_epik_input>
W0NIM11jMW5bY0hdbihjMVtDSDNdKVtDSDJdW0NASF0oW0NIM10pW05IXVtDSF0yW0NIMl1bQ0gyXVtDSDJdW0NIMl1bQ0gyXTI=

> <s_epik_cmdline>
J2VwaWtfcHl0aG9uJywgJy1waCcsICc3LjAnLCAnLXRuJywgJzgnLCAnLW1hJywgJzIwMCcsICctbWV0YWxfYmluZGluZycsICctaW1hZScsICc8aW5maWxlLm1hZT4nLCAnLW9tYWUnLCAnPG91dGZpbGUubWFlPic=

> <r_lp_tautomer_probability>
1

> <r_epik_Ionization_Penalty>
0.509043

> <r_epik_Ionization_Penalty_Charging>
0.00159961

> <r_epik_Ionization_Penalty_Neutral>
0.507444

> <r_epik_State_Penalty>
0.272352

> <r_epik_Charging_Adjusted_Penalty>
0.273952

> <i_epik_Tot_Q>
2

> <i_epik_Tot_abs_Q>
2

> <r_epik_Metal_State_Penalty>
3.76994

> <b_epik_Metal_Only>
0

> <s_lp_Force_Field>
OPLS_2005

> <r_lp_Energy>
25.5447

> <b_lp_Chiralities_Consistent>
1

> <s_lp_Variant>
AV-unprocessed.smi:3172-1

> <Gold.Version>
5.8.1

> <Gold.Id.Protein>
6NUR|6NUR_protein|mol2

> <Gold.PLP.Fitness>
51.6726

> <Gold.PLP.PLP>
-41.6548

> <Gold.PLP.part.hbond>
-3.0000

> <Gold.PLP.part.metal>
0.0000

> <Gold.PLP.part.buried>
-0.9665

> <Gold.PLP.part.nonpolar>
-37.8189

> <Gold.PLP.part.repulsive>
0.1018

> <Gold.PLP.ligand.clash>
0.0000

> <Gold.PLP.ligand.torsion>
0.9981

> <Gold.PLP.Chemscore.Hbond>
4.0000

> <Gold.PLP.Chemscore.CHOScore>
0.0000

> <Gold.PLP.Chemscore.Metal>
0.0000

> <Gold.Chemscore.Hbonds>
donor molecule, donor type, donor heavy atom, donor atom, acceptor molecule, acceptor atom, score
      L1  H     3    44       P1  7948  2.00
      L1  H     9    28       P1  8028  2.00

> <Gold.PLP.Chemscore.Internal.Correction>
0.0141

> <Gold.Rescore>
     Score         DG    S(hbond)    S(metal)    S(lipo)     H(rot)  DE(clash)    DE(int)     intcor
     19.74     -20.86       1.89        0.00     111.57       1.56       0.12       1.00       ----

> <Gold.Chemscore.Fitness>
19.7434

> <Gold.Chemscore.DG>
-20.8583

> <Gold.Chemscore.ZeroCoef>
-5.4800

> <Gold.Chemscore.Hbond>
1.8890

> <Gold.Chemscore.Metal>
0.0000

> <Gold.Chemscore.Lipo>
111.5732

> <Gold.Chemscore.Internal_Hbond>
0.0000

> <Gold.Chemscore.DEClash>
0.1191

> <Gold.Chemscore.DEInternal>
0.9958

> <Gold.Chemscore.Rot>
1.5567

> <Gold.Chemscore.Internal.Correction>
   9.000000E+99

> <Gold.Chemscore.Hbonds>
donor molecule, donor type, donor heavy atom, donor atom, acceptor molecule, acceptor atom, score
      L1  H     3    44       P1  7948  0.97
      L1  H     9    28       P1  8028  0.88

> <Gold.Chemscore.Hbond.Weighted>
-6.3094

> <Gold.Chemscore.Metal.Weighted>
-0.0000

> <Gold.Chemscore.Lipo.Weighted>
-13.0541

> <Gold.Chemscore.Internal_Hbond.Weighted>
0.0000

> <Gold.Chemscore.DEClash.Weighted>
0.1191

> <Gold.Chemscore.DEInternal.Weighted>
0.9958

> <Gold.Chemscore.Rot.Weighted>
3.9852

> <Gold.Chemscore.Internal.Correction.Weighted>
   9.000000E+99

> <Gold.Protein.RotatedTorsions>
[ 6907 6896 6895 6894 ] final  -55.83 input  -60.11 | X-H torsion
[ 7974 7965 7964 7962 ] final  132.93 input  175.53 | X-H torsion
[ 8008 7997 7996 7995 ] final -150.08 input   59.86 | X-H torsion
[ 10167 10162 10161 10158 ] final  -50.23 input  -65.29 | X-H torsion
[ 10718 10713 10712 10709 ] final  -94.42 input   66.30 | X-H torsion
[ 10763 10752 10751 10750 ] final -162.21 input  -60.55 | X-H torsion
[ 11005 11000 10999 10996 ] final  101.39 input  -57.11 | X-H torsion

> <Gold.Protein.ActiveResidues>
 VAL166  LYS551  ARG553  GLY616  TRP617  ASP618  TYR619  PRO620  LYS621  CYS622 
 ASP623  PHE694  ASN695  SER759  ASP760  ASP761  ALA762  ILE779  LEU786  VAL792 
 PHE793  MET794  SER795  GLU796  ALA797  LYS798  CYS799  TRP800  GLU811  SER814 

> <Gold.Protein.RotatedAtoms>
  150.8218  134.7430  159.6778 H   0  0  0  0  0  0  0  0  0  0  0  0  # atno 6907 bound_to 6896
  152.4333  134.5732  159.9937 H   0  0  0  0  0  0  0  0  0  0  0  0  # atno 6908 bound_to 6896
  151.5914  133.3328  159.3064 H   0  0  0  0  0  0  0  0  0  0  0  0  # atno 6909 bound_to 6896
  144.9917  139.4400  143.5336 H   0  0  0  0  0  0  0  0  0  0  0  0  # atno 7974 bound_to 7965
  155.6178  140.0678  157.2687 H   0  0  0  0  0  0  0  0  0  0  0  0  # atno 8008 bound_to 7997
  154.4237  140.1790  156.1388 H   0  0  0  0  0  0  0  0  0  0  0  0  # atno 8009 bound_to 7997
  156.0033  140.3334  155.6871 H   0  0  0  0  0  0  0  0  0  0  0  0  # atno 8010 bound_to 7997
  140.6647  143.2666  151.4329 H   0  0  0  0  0  0  0  0  0  0  0  0  # atno 10167 bound_to 10162
  156.0027  130.5067  150.5924 H   0  0  0  0  0  0  0  0  0  0  0  0  # atno 10718 bound_to 10713
  154.7234  135.3030  154.9010 H   0  0  0  0  0  0  0  0  0  0  0  0  # atno 10763 bound_to 10752
  153.9874  135.6723  153.4756 H   0  0  0  0  0  0  0  0  0  0  0  0  # atno 10764 bound_to 10752
  153.0854  135.4987  154.8504 H   0  0  0  0  0  0  0  0  0  0  0  0  # atno 10765 bound_to 10752
  139.8773  134.9181  156.4900 H   0  0  0  0  0  0  0  0  0  0  0  0  # atno 11005 bound_to 11000
  146.3433  139.9253  142.8761 LP  0  0  0  0  0  0  0  0  0  0  0  0  # atno 17320 bound_to 7965
  145.2276  140.9960  143.4009 LP  0  0  0  0  0  0  0  0  0  0  0  0  # atno 17321 bound_to 7965
  139.5892  144.1536  152.2067 LP  0  0  0  0  0  0  0  0  0  0  0  0  # atno 17342 bound_to 10162
  140.0885  144.5641  150.7071 LP  0  0  0  0  0  0  0  0  0  0  0  0  # atno 17343 bound_to 10162
  157.3787  131.0777  151.1495 LP  0  0  0  0  0  0  0  0  0  0  0  0  # atno 17370 bound_to 10713
  157.2225  130.6488  149.5817 LP  0  0  0  0  0  0  0  0  0  0  0  0  # atno 17371 bound_to 10713
  140.8666  133.8020  155.9320 LP  0  0  0  0  0  0  0  0  0  0  0  0  # atno 17394 bound_to 11000
  140.8996  134.2395  157.5049 LP  0  0  0  0  0  0  0  0  0  0  0  0  # atno 17395 bound_to 11000

$$$$
