AV-unprocessed.smi:3189|AV-procd|sdf|12192|dock2
  -GOLD-   2272018 33D 1   1.00000     0.00000
 Structure written by MMmdl.
 31 32  0  0  0  0  0  0  0  0  2 V2000
  146.9742  139.3838  152.6851 C   0  0  0  0  0  0  0  0  0  0  0  0
  148.2252  139.5551  153.5252 C   0  0  0  0  0  0  0  0  0  0  0  0
  149.0739  138.5069  153.6089 N   0  3  0  0  0  0  0  0  0  0  0  0
  150.2126  138.5387  154.3320 C   0  0  0  0  0  0  0  0  0  0  0  0
  150.5637  139.7049  155.0393 C   0  0  0  0  0  0  0  0  0  0  0  0
  149.7181  140.8409  154.9722 C   0  0  0  0  0  0  0  0  0  0  0  0
  149.9877  142.0508  155.6691 N   0  0  0  0  0  0  0  0  0  0  0  0
  150.9926  142.3270  156.5231 C   0  0  0  0  0  0  0  0  0  0  0  0
  151.8852  141.5388  156.8286 O   0  0  0  0  0  0  0  0  0  0  0  0
  150.9916  143.5913  156.9801 N   0  0  0  0  0  0  0  0  0  0  0  0
  151.9207  144.1878  157.8933 C   0  0  1  0  0  0  0  0  0  0  0  0
  151.3668  144.6964  159.2063 C   0  0  0  0  0  0  0  0  0  0  0  0
  152.2499  143.4757  159.1916 C   0  0  1  0  0  0  0  0  0  0  0  0
  151.6864  142.1083  159.5240 C   0  0  0  0  0  0  0  0  0  0  0  0
  148.5250  140.7552  154.2125 C   0  0  0  0  0  0  0  0  0  0  0  0
  147.4450  142.1058  154.1160 Cl  0  0  0  0  0  0  0  0  0  0  0  0
  146.9730  140.0949  151.8584 H   0  0  0  0  0  0  0  0  0  0  0  0
  146.0833  139.5562  153.2898 H   0  0  0  0  0  0  0  0  0  0  0  0
  146.9090  138.3786  152.2671 H   0  0  0  0  0  0  0  0  0  0  0  0
  150.8021  137.6334  154.3289 H   0  0  0  0  0  0  0  0  0  0  0  0
  151.4679  139.7023  155.6288 H   0  0  0  0  0  0  0  0  0  0  0  0
  149.3912  142.8293  155.4291 H   0  0  0  0  0  0  0  0  0  0  0  0
  150.3155  144.2198  156.5697 H   0  0  0  0  0  0  0  0  0  0  0  0
  152.7068  144.8067  157.4629 H   0  0  0  0  0  0  0  0  0  0  0  0
  151.7901  145.6142  159.6093 H   0  0  0  0  0  0  0  0  0  0  0  0
  150.3059  144.5505  159.4021 H   0  0  0  0  0  0  0  0  0  0  0  0
  153.2667  143.6184  159.5529 H   0  0  0  0  0  0  0  0  0  0  0  0
  150.6412  142.0289  159.2242 H   0  0  0  0  0  0  0  0  0  0  0  0
  151.7495  141.9309  160.5974 H   0  0  0  0  0  0  0  0  0  0  0  0
  152.2564  141.3343  159.0097 H   0  0  0  0  0  0  0  0  0  0  0  0
  148.8402  137.6500  153.1065 H   0  0  0  0  0  0  0  0  0  0  0  0
  1  2  1  0  0  0  0
  1 17  1  0  0  0  0
  1 18  1  0  0  0  0
  1 19  1  0  0  0  0
  2 15  1  0  0  0  0
  2  3  2  0  0  0  0
  3  4  1  0  0  0  0
  3 31  1  0  0  0  0
  4  5  2  0  0  0  0
  4 20  1  0  0  0  0
  5  6  1  0  0  0  0
  5 21  1  0  0  0  0
  6  7  1  0  0  0  0
  6 15  2  0  0  0  0
  7  8  1  0  0  0  0
  7 22  1  0  0  0  0
  8  9  2  0  0  0  0
  8 10  1  0  0  0  0
 10 11  1  0  0  0  0
 10 23  1  0  0  0  0
 11 13  1  0  0  0  0
 11 12  1  0  0  0  0
 11 24  1  0  0  0  0
 12 13  1  0  0  0  0
 12 25  1  0  0  0  0
 12 26  1  0  0  0  0
 13 14  1  0  0  0  0
 13 27  1  0  0  0  0
 14 28  1  0  0  0  0
 14 29  1  0  0  0  0
 14 30  1  0  0  0  0
 15 16  1  0  0  0  0
M  CHG  1   3   1
M  END
> <s_m_source_file>
AV-unprocessed.smi

> <i_m_source_file_index>
3189

> <i_lp_mmshare_version>
43012

> <i_f3d_flags>
0

> <s_epik_input>
W0NIM11jMW5bY0hdW2NIXWMoYzFDbClbTkhdQyg9TylbTkhdW0NAQEhdMltDSDJdW0NASF0yW0NIM10=

> <s_epik_cmdline>
J2VwaWtfcHl0aG9uJywgJy1waCcsICc3LjAnLCAnLXRuJywgJzgnLCAnLW1hJywgJzIwMCcsICctbWV0YWxfYmluZGluZycsICctaW1hZScsICc8aW5maWxlLm1hZT4nLCAnLW9tYWUnLCAnPG91dGZpbGUubWFlPic=

> <r_epik_Ionization_Penalty>
2.42914

> <r_epik_Ionization_Penalty_Charging>
2.42912

> <r_epik_Ionization_Penalty_Neutral>
2.15137e-05

> <r_epik_State_Penalty>
2.58904

> <r_epik_Charging_Adjusted_Penalty>
5.01816

> <i_epik_Tot_Q>
1

> <i_epik_Tot_abs_Q>
1

> <r_epik_Metal_State_Penalty>
2.59882

> <b_epik_Metal_Only>
0

> <s_lp_Force_Field>
OPLS_2005

> <r_lp_Energy>
38.4709

> <b_lp_Chiralities_Consistent>
1

> <s_lp_Variant>
AV-unprocessed.smi:3189-6

> <Gold.Version>
5.8.1

> <Gold.Id.Protein>
6NUR|6NUR_protein|mol2

> <Gold.PLP.Fitness>
48.9270

> <Gold.PLP.PLP>
-37.0239

> <Gold.PLP.part.hbond>
-4.0000

> <Gold.PLP.part.metal>
0.0000

> <Gold.PLP.part.buried>
1.4585

> <Gold.PLP.part.nonpolar>
-34.4629

> <Gold.PLP.part.repulsive>
0.2388

> <Gold.PLP.ligand.clash>
0.0000

> <Gold.PLP.ligand.torsion>
0.0559

> <Gold.PLP.Chemscore.Hbond>
3.9920

> <Gold.PLP.Chemscore.CHOScore>
0.0000

> <Gold.PLP.Chemscore.Metal>
0.0000

> <Gold.Chemscore.Hbonds>
donor molecule, donor type, donor heavy atom, donor atom, acceptor molecule, acceptor atom, score
      L1  H     3    31       P1  7948  2.00
      L1  H     7    22       P1  8028  1.00
      L1  H    10    23       P1  8028  1.00

> <Gold.PLP.Chemscore.Internal.Correction>
0.0387

> <Gold.Rescore>
     Score         DG    S(hbond)    S(metal)    S(lipo)     H(rot)  DE(clash)    DE(int)     intcor
     20.78     -23.94       2.80        0.00      99.65       1.00       1.82       1.34       ----

> <Gold.Chemscore.Fitness>
20.7840

> <Gold.Chemscore.DG>
-23.9369

> <Gold.Chemscore.ZeroCoef>
-5.4800

> <Gold.Chemscore.Hbond>
2.8017

> <Gold.Chemscore.Metal>
0.0000

> <Gold.Chemscore.Lipo>
99.6512

> <Gold.Chemscore.Internal_Hbond>
0.0000

> <Gold.Chemscore.DEClash>
1.8154

> <Gold.Chemscore.DEInternal>
1.3375

> <Gold.Chemscore.Rot>
1.0000

> <Gold.Chemscore.Internal.Correction>
   9.000000E+99

> <Gold.Chemscore.Hbonds>
donor molecule, donor type, donor heavy atom, donor atom, acceptor molecule, acceptor atom, score
      L1  H     3    31       P1  7948  0.99
      L1  H     7    22       P1  8028  0.93
      L1  H    10    23       P1  8028  0.99

> <Gold.Chemscore.Hbond.Weighted>
-9.3577

> <Gold.Chemscore.Metal.Weighted>
-0.0000

> <Gold.Chemscore.Lipo.Weighted>
-11.6592

> <Gold.Chemscore.Internal_Hbond.Weighted>
0.0000

> <Gold.Chemscore.DEClash.Weighted>
1.8154

> <Gold.Chemscore.DEInternal.Weighted>
1.3375

> <Gold.Chemscore.Rot.Weighted>
2.5600

> <Gold.Chemscore.Internal.Correction.Weighted>
   9.000000E+99

> <Gold.Protein.RotatedTorsions>
[ 6907 6896 6895 6894 ] final  -46.84 input  -60.11 | X-H torsion
[ 7974 7965 7964 7962 ] final  -51.00 input  175.53 | X-H torsion
[ 8008 7997 7996 7995 ] final  -59.17 input   59.86 | X-H torsion
[ 10167 10162 10161 10158 ] final -173.61 input  -65.29 | X-H torsion
[ 10718 10713 10712 10709 ] final -116.07 input   66.30 | X-H torsion
[ 10763 10752 10751 10750 ] final  121.05 input  -60.55 | X-H torsion
[ 11005 11000 10999 10996 ] final  111.26 input  -57.11 | X-H torsion

> <Gold.Protein.ActiveResidues>
 VAL166  LYS551  ARG553  GLY616  TRP617  ASP618  TYR619  PRO620  LYS621  CYS622 
 ASP623  PHE694  ASN695  SER759  ASP760  ASP761  ALA762  ILE779  LEU786  VAL792 
 PHE793  MET794  SER795  GLU796  ALA797  LYS798  CYS799  TRP800  GLU811  SER814 

> <Gold.Protein.RotatedAtoms>
  150.9070  134.8485  159.7398 H   0  0  0  0  0  0  0  0  0  0  0  0  # atno 6907 bound_to 6896
  152.4923  134.4417  159.9555 H   0  0  0  0  0  0  0  0  0  0  0  0  # atno 6908 bound_to 6896
  151.4463  133.3590  159.2824 H   0  0  0  0  0  0  0  0  0  0  0  0  # atno 6909 bound_to 6896
  145.9238  140.7810  142.9634 H   0  0  0  0  0  0  0  0  0  0  0  0  # atno 7974 bound_to 7965
  154.4340  140.1067  156.6073 H   0  0  0  0  0  0  0  0  0  0  0  0  # atno 8008 bound_to 7997
  155.5847  140.3491  155.4531 H   0  0  0  0  0  0  0  0  0  0  0  0  # atno 8009 bound_to 7997
  156.0292  140.1257  157.0265 H   0  0  0  0  0  0  0  0  0  0  0  0  # atno 8010 bound_to 7997
  139.5679  144.1712  152.1340 H   0  0  0  0  0  0  0  0  0  0  0  0  # atno 10167 bound_to 10162
  156.0938  130.6115  150.8988 H   0  0  0  0  0  0  0  0  0  0  0  0  # atno 10718 bound_to 10713
  153.6080  135.3435  155.2969 H   0  0  0  0  0  0  0  0  0  0  0  0  # atno 10763 bound_to 10752
  154.8624  135.4243  154.2340 H   0  0  0  0  0  0  0  0  0  0  0  0  # atno 10764 bound_to 10752
  153.3184  135.7036  153.7124 H   0  0  0  0  0  0  0  0  0  0  0  0  # atno 10765 bound_to 10752
  139.8900  134.9504  156.6405 H   0  0  0  0  0  0  0  0  0  0  0  0  # atno 11005 bound_to 11000
  144.6756  140.2018  143.7386 LP  0  0  0  0  0  0  0  0  0  0  0  0  # atno 17320 bound_to 7965
  145.8516  139.2178  143.1769 LP  0  0  0  0  0  0  0  0  0  0  0  0  # atno 17321 bound_to 7965
  140.1239  144.5349  150.6845 LP  0  0  0  0  0  0  0  0  0  0  0  0  # atno 17342 bound_to 10162
  140.6963  143.2406  151.4992 LP  0  0  0  0  0  0  0  0  0  0  0  0  # atno 17343 bound_to 10162
  157.6094  131.0937  150.8821 LP  0  0  0  0  0  0  0  0  0  0  0  0  # atno 17370 bound_to 10713
  156.8964  130.5231  149.5284 LP  0  0  0  0  0  0  0  0  0  0  0  0  # atno 17371 bound_to 10713
  140.7597  133.8827  155.8409 LP  0  0  0  0  0  0  0  0  0  0  0  0  # atno 17394 bound_to 11000
  140.9932  134.1250  157.4388 LP  0  0  0  0  0  0  0  0  0  0  0  0  # atno 17395 bound_to 11000

$$$$
