AV-unprocessed.smi:2901|AV-procd|sdf|11150|dock2
  -GOLD-   2272016 33D 1   1.00000     0.00000
 Structure written by MMmdl.
 40 41  0  0  0  0  0  0  0  0  1 V2000
  151.4283  140.3869  159.0761 C   0  0  0  0  0  0  0  0  0  0  0  0
  151.3927  139.8460  157.6885 C   0  0  0  0  0  0  0  0  0  0  0  0
  150.3469  139.7969  156.8657 N   0  0  0  0  0  0  0  0  0  0  0  0
  150.8350  139.2066  155.7082 C   0  0  0  0  0  0  0  0  0  0  0  0
  149.9729  138.9711  154.5061 C   0  0  0  0  0  0  0  0  0  0  0  0
  148.5342  138.5953  154.8960 C   0  0  0  0  0  0  0  0  0  0  0  0
  147.8949  137.7732  153.8751 N   0  0  0  0  0  0  0  0  0  0  0  0
  146.5872  137.4817  153.8365 C   0  0  0  0  0  0  0  0  0  0  0  0
  145.7671  137.8851  154.6616 O   0  0  0  0  0  0  0  0  0  0  0  0
  146.2819  136.6994  152.7920 N   0  0  0  0  0  0  0  0  0  0  0  0
  144.9417  136.2255  152.4659 C   0  0  0  0  0  0  0  0  0  0  0  0
  144.9560  135.2901  151.2460 C   0  0  1  0  0  0  0  0  0  0  0  0
  146.0511  134.2276  151.3035 C   0  0  0  0  0  0  0  0  0  0  0  0
  145.5082  133.1821  150.3567 C   0  0  0  0  0  0  0  0  0  0  0  0
  144.0103  133.2340  150.6488 C   0  0  0  0  0  0  0  0  0  0  0  0
  143.7471  134.5413  151.1535 O   0  0  0  0  0  0  0  0  0  0  0  0
  152.1669  138.9370  155.8947 C   0  0  0  0  0  0  0  0  0  0  0  0
  153.2151  138.3314  155.0239 C   0  0  0  0  0  0  0  0  0  0  0  0
  152.5338  139.3357  157.1518 O   0  0  0  0  0  0  0  0  0  0  0  0
  150.4210  140.6305  159.4152 H   0  0  0  0  0  0  0  0  0  0  0  0
  152.0381  141.2899  159.1081 H   0  0  0  0  0  0  0  0  0  0  0  0
  151.8569  139.6483  159.7536 H   0  0  0  0  0  0  0  0  0  0  0  0
  149.9657  139.8635  153.8791 H   0  0  0  0  0  0  0  0  0  0  0  0
  150.4020  138.1787  153.8913 H   0  0  0  0  0  0  0  0  0  0  0  0
  148.5362  138.0355  155.8318 H   0  0  0  0  0  0  0  0  0  0  0  0
  147.9410  139.4943  155.0735 H   0  0  0  0  0  0  0  0  0  0  0  0
  148.4906  137.3977  153.1516 H   0  0  0  0  0  0  0  0  0  0  0  0
  147.0274  136.4200  152.1715 H   0  0  0  0  0  0  0  0  0  0  0  0
  144.5645  135.6856  153.3346 H   0  0  0  0  0  0  0  0  0  0  0  0
  144.2596  137.0620  152.3037 H   0  0  0  0  0  0  0  0  0  0  0  0
  145.0682  135.8680  150.3269 H   0  0  0  0  0  0  0  0  0  0  0  0
  147.0294  134.6070  151.0071 H   0  0  0  0  0  0  0  0  0  0  0  0
  146.1334  133.8126  152.3091 H   0  0  0  0  0  0  0  0  0  0  0  0
  145.7006  133.4792  149.3248 H   0  0  0  0  0  0  0  0  0  0  0  0
  145.9401  132.1934  150.5140 H   0  0  0  0  0  0  0  0  0  0  0  0
  143.4124  133.0245  149.7614 H   0  0  0  0  0  0  0  0  0  0  0  0
  143.7424  132.5070  151.4162 H   0  0  0  0  0  0  0  0  0  0  0  0
  152.9510  138.4287  153.9707 H   0  0  0  0  0  0  0  0  0  0  0  0
  153.3351  137.2711  155.2463 H   0  0  0  0  0  0  0  0  0  0  0  0
  154.1770  138.8215  155.1753 H   0  0  0  0  0  0  0  0  0  0  0  0
  1  2  1  0  0  0  0
  1 20  1  0  0  0  0
  1 21  1  0  0  0  0
  1 22  1  0  0  0  0
  2 19  1  0  0  0  0
  2  3  2  0  0  0  0
  3  4  1  0  0  0  0
  4  5  1  0  0  0  0
  4 17  2  0  0  0  0
  5  6  1  0  0  0  0
  5 23  1  0  0  0  0
  5 24  1  0  0  0  0
  6  7  1  0  0  0  0
  6 25  1  0  0  0  0
  6 26  1  0  0  0  0
  7  8  1  0  0  0  0
  7 27  1  0  0  0  0
  8  9  2  0  0  0  0
  8 10  1  0  0  0  0
 10 11  1  0  0  0  0
 10 28  1  0  0  0  0
 11 12  1  0  0  0  0
 11 29  1  0  0  0  0
 11 30  1  0  0  0  0
 12 16  1  0  0  0  0
 12 13  1  0  0  0  0
 12 31  1  0  0  0  0
 13 14  1  0  0  0  0
 13 32  1  0  0  0  0
 13 33  1  0  0  0  0
 14 15  1  0  0  0  0
 14 34  1  0  0  0  0
 14 35  1  0  0  0  0
 15 16  1  0  0  0  0
 15 36  1  0  0  0  0
 15 37  1  0  0  0  0
 17 18  1  0  0  0  0
 17 19  1  0  0  0  0
 18 38  1  0  0  0  0
 18 39  1  0  0  0  0
 18 40  1  0  0  0  0
M  END
> <s_m_source_file>
AV-unprocessed.smi

> <i_m_source_file_index>
2901

> <i_lp_mmshare_version>
43012

> <i_f3d_flags>
0

> <s_epik_input>
W0NIM11jMW5jKGMobzEpW0NIM10pW0NIMl1bQ0gyXVtOSF1DKD1PKVtOSF1bQ0gyXVtDQEBIXTJbQ0gyXVtDSDJdW0NIMl1PMg==

> <s_epik_cmdline>
J2VwaWtfcHl0aG9uJywgJy1waCcsICc3LjAnLCAnLXRuJywgJzgnLCAnLW1hJywgJzIwMCcsICctbWV0YWxfYmluZGluZycsICctaW1hZScsICc8aW5maWxlLm1hZT4nLCAnLW9tYWUnLCAnPG91dGZpbGUubWFlPic=

> <r_lp_tautomer_probability>
1

> <r_epik_Ionization_Penalty>
9.58254e-05

> <r_epik_Ionization_Penalty_Charging>
0

> <r_epik_Ionization_Penalty_Neutral>
9.58254e-05

> <r_epik_State_Penalty>
-0

> <r_epik_Charging_Adjusted_Penalty>
0

> <i_epik_Tot_Q>
0

> <i_epik_Tot_abs_Q>
0

> <r_epik_Metal_State_Penalty>
-0

> <b_epik_Metal_Only>
0

> <s_lp_Force_Field>
OPLS_2005

> <r_lp_Energy>
8.56878

> <b_lp_Chiralities_Consistent>
1

> <s_lp_Variant>
AV-unprocessed.smi:2901-2

> <Gold.Version>
5.8.1

> <Gold.Id.Protein>
6NUR|6NUR_protein|mol2

> <Gold.PLP.Fitness>
40.2728

> <Gold.PLP.PLP>
-32.7924

> <Gold.PLP.part.hbond>
-3.0000

> <Gold.PLP.part.metal>
0.0000

> <Gold.PLP.part.buried>
-3.4179

> <Gold.PLP.part.nonpolar>
-26.8539

> <Gold.PLP.part.repulsive>
0.3715

> <Gold.PLP.ligand.clash>
0.0000

> <Gold.PLP.ligand.torsion>
0.6867

> <Gold.PLP.Chemscore.Hbond>
2.9280

> <Gold.PLP.Chemscore.CHOScore>
0.0000

> <Gold.PLP.Chemscore.Metal>
0.0000

> <Gold.Chemscore.Hbonds>
donor molecule, donor type, donor heavy atom, donor atom, acceptor molecule, acceptor atom, score
      L1  H     7    27       P1  7948  1.00
      L1  H    10    28       P1  7948  0.99
      P1  H  7997  8009       L1    19  0.65

> <Gold.PLP.Chemscore.Internal.Correction>
0.0698

> <Gold.Rescore>
     Score         DG    S(hbond)    S(metal)    S(lipo)     H(rot)  DE(clash)    DE(int)     intcor
     17.78     -18.50       2.78        0.00      73.85       1.92       0.04       0.68       ----

> <Gold.Chemscore.Fitness>
17.7791

> <Gold.Chemscore.DG>
-18.4990

> <Gold.Chemscore.ZeroCoef>
-5.4800

> <Gold.Chemscore.Hbond>
2.7802

> <Gold.Chemscore.Metal>
0.0000

> <Gold.Chemscore.Lipo>
73.8456

> <Gold.Chemscore.Internal_Hbond>
0.0000

> <Gold.Chemscore.DEClash>
0.0402

> <Gold.Chemscore.DEInternal>
0.6796

> <Gold.Chemscore.Rot>
1.9167

> <Gold.Chemscore.Internal.Correction>
   9.000000E+99

> <Gold.Chemscore.Hbonds>
donor molecule, donor type, donor heavy atom, donor atom, acceptor molecule, acceptor atom, score
      L1  H     7    27       P1  7948  0.99
      L1  H    10    28       P1  7948  0.93
      P1  H  7997  8009       L1    19  0.06

> <Gold.Chemscore.Hbond.Weighted>
-9.2859

> <Gold.Chemscore.Metal.Weighted>
-0.0000

> <Gold.Chemscore.Lipo.Weighted>
-8.6399

> <Gold.Chemscore.Internal_Hbond.Weighted>
0.0000

> <Gold.Chemscore.DEClash.Weighted>
0.0402

> <Gold.Chemscore.DEInternal.Weighted>
0.6796

> <Gold.Chemscore.Rot.Weighted>
4.9069

> <Gold.Chemscore.Internal.Correction.Weighted>
   9.000000E+99

> <Gold.Protein.RotatedTorsions>
[ 6907 6896 6895 6894 ] final  119.92 input  -60.11 | X-H torsion
[ 7974 7965 7964 7962 ] final   -3.98 input  175.53 | X-H torsion
[ 8008 7997 7996 7995 ] final -173.38 input   59.86 | X-H torsion
[ 10167 10162 10161 10158 ] final   17.45 input  -65.29 | X-H torsion
[ 10718 10713 10712 10709 ] final   55.13 input   66.30 | X-H torsion
[ 10763 10752 10751 10750 ] final   69.58 input  -60.55 | X-H torsion
[ 11005 11000 10999 10996 ] final   22.86 input  -57.11 | X-H torsion

> <Gold.Protein.ActiveResidues>
 VAL166  LYS551  ARG553  GLY616  TRP617  ASP618  TYR619  PRO620  LYS621  CYS622 
 ASP623  PHE694  ASN695  SER759  ASP760  ASP761  ALA762  ILE779  LEU786  VAL792 
 PHE793  MET794  SER795  GLU796  ALA797  LYS798  CYS799  TRP800  GLU811  SER814 

> <Gold.Protein.RotatedAtoms>
  152.4436  133.7494  159.6685 H   0  0  0  0  0  0  0  0  0  0  0  0  # atno 6907 bound_to 6896
  150.8331  133.8047  159.3096 H   0  0  0  0  0  0  0  0  0  0  0  0  # atno 6908 bound_to 6896
  151.5695  135.1065  160.0043 H   0  0  0  0  0  0  0  0  0  0  0  0  # atno 6909 bound_to 6896
  146.2380  140.1802  142.8332 H   0  0  0  0  0  0  0  0  0  0  0  0  # atno 7974 bound_to 7965
  155.9567  140.1136  157.0931 H   0  0  0  0  0  0  0  0  0  0  0  0  # atno 8008 bound_to 7997
  154.4122  140.1190  156.5190 H   0  0  0  0  0  0  0  0  0  0  0  0  # atno 8009 bound_to 7997
  155.6773  140.3473  155.4844 H   0  0  0  0  0  0  0  0  0  0  0  0  # atno 8010 bound_to 7997
  140.5725  143.9134  150.6724 H   0  0  0  0  0  0  0  0  0  0  0  0  # atno 10167 bound_to 10162
  157.5318  130.8636  149.8698 H   0  0  0  0  0  0  0  0  0  0  0  0  # atno 10718 bound_to 10713
  153.0295  135.5205  154.7310 H   0  0  0  0  0  0  0  0  0  0  0  0  # atno 10763 bound_to 10752
  154.6337  135.2903  155.0188 H   0  0  0  0  0  0  0  0  0  0  0  0  # atno 10764 bound_to 10752
  154.1130  135.6619  153.4941 H   0  0  0  0  0  0  0  0  0  0  0  0  # atno 10765 bound_to 10752
  140.3760  134.1972  155.7665 H   0  0  0  0  0  0  0  0  0  0  0  0  # atno 11005 bound_to 11000
  144.9940  140.8573  143.5322 LP  0  0  0  0  0  0  0  0  0  0  0  0  # atno 17320 bound_to 7965
  145.1812  139.2351  143.5291 LP  0  0  0  0  0  0  0  0  0  0  0  0  # atno 17321 bound_to 7965
  140.2613  143.3522  152.1320 LP  0  0  0  0  0  0  0  0  0  0  0  0  # atno 17342 bound_to 10162
  139.5125  144.6918  151.5740 LP  0  0  0  0  0  0  0  0  0  0  0  0  # atno 17343 bound_to 10162
  156.0428  130.3735  150.1392 LP  0  0  0  0  0  0  0  0  0  0  0  0  # atno 17370 bound_to 10713
  156.9576  130.9794  151.3486 LP  0  0  0  0  0  0  0  0  0  0  0  0  # atno 17371 bound_to 10713
  141.1939  133.8140  157.0779 LP  0  0  0  0  0  0  0  0  0  0  0  0  # atno 17394 bound_to 11000
  140.0515  134.9803  157.1145 LP  0  0  0  0  0  0  0  0  0  0  0  0  # atno 17395 bound_to 11000

$$$$
