AV-unprocessed.smi:766|AV-procd|sdf|3656|dock3
  -GOLD-   22720 1 63D 1   1.00000     0.00000
 Structure written by MMmdl.
 46 48  0  0  0  0  0  0  0  0  1 V2000
  151.8173  144.0223  159.7932 C   0  0  0  0  0  0  0  0  0  0  0  0
  151.6940  142.7853  158.9214 C   0  0  0  0  0  0  0  0  0  0  0  0
  150.8074  142.8057  157.8212 C   0  0  0  0  0  0  0  0  0  0  0  0
  150.6600  141.6748  156.9887 C   0  0  0  0  0  0  0  0  0  0  0  0
  149.8589  141.4752  155.8776 N   0  0  0  0  0  0  0  0  0  0  0  0
  150.1650  140.2233  155.5504 C   0  0  0  0  0  0  0  0  0  0  0  0
  151.0740  139.5888  156.3159 N   0  0  0  0  0  0  0  0  0  0  0  0
  151.5606  138.2300  156.1560 C   0  0  0  0  0  0  0  0  0  0  0  0
  150.8186  137.4547  155.0456 C   0  0  1  0  0  0  0  0  0  0  0  0
  151.6761  137.2525  153.9416 O   0  0  0  0  0  0  0  0  0  0  0  0
  150.1988  136.1074  155.4691 C   0  0  0  0  0  0  0  0  0  0  0  0
  150.2521  135.1170  154.3974 N   0  0  0  0  0  0  0  0  0  0  0  0
  149.4183  133.9445  154.6424 C   0  0  0  0  0  0  0  0  0  0  0  0
  149.7032  132.8306  153.6221 C   0  0  0  0  0  0  0  0  0  0  0  0
  148.4888  132.3207  153.0096 N   0  0  0  0  0  0  0  0  0  0  0  0
  147.5797  132.9915  152.2186 C   0  0  0  0  0  0  0  0  0  0  0  0
  146.6038  132.1000  151.8752 C   0  0  0  0  0  0  0  0  0  0  0  0
  147.0069  130.8946  152.5150 C   0  0  0  0  0  0  0  0  0  0  0  0
  148.1325  131.0311  153.1972 N   0  0  0  0  0  0  0  0  0  0  0  0
  151.4317  140.5142  157.2888 C   0  0  0  0  0  0  0  0  0  0  0  0
  152.3196  140.4825  158.3782 C   0  0  0  0  0  0  0  0  0  0  0  0
  152.4534  141.6206  159.2007 C   0  0  0  0  0  0  0  0  0  0  0  0
  153.4123  141.5749  160.3772 C   0  0  0  0  0  0  0  0  0  0  0  0
  151.1457  144.8139  159.4597 H   0  0  0  0  0  0  0  0  0  0  0  0
  152.8353  144.4108  159.7610 H   0  0  0  0  0  0  0  0  0  0  0  0
  151.5678  143.7877  160.8283 H   0  0  0  0  0  0  0  0  0  0  0  0
  150.2285  143.6922  157.6076 H   0  0  0  0  0  0  0  0  0  0  0  0
  149.7056  139.7382  154.7025 H   0  0  0  0  0  0  0  0  0  0  0  0
  152.6284  138.2716  155.9378 H   0  0  0  0  0  0  0  0  0  0  0  0
  151.4621  137.7149  157.1128 H   0  0  0  0  0  0  0  0  0  0  0  0
  150.0054  138.0840  154.6823 H   0  0  0  0  0  0  0  0  0  0  0  0
  151.1596  136.9395  153.2147 H   0  0  0  0  0  0  0  0  0  0  0  0
  150.7403  135.7277  156.3367 H   0  0  0  0  0  0  0  0  0  0  0  0
  149.1691  136.2583  155.7958 H   0  0  0  0  0  0  0  0  0  0  0  0
  149.9921  135.5502  153.5169 H   0  0  0  0  0  0  0  0  0  0  0  0
  149.5834  133.5684  155.6527 H   0  0  0  0  0  0  0  0  0  0  0  0
  148.3661  134.2250  154.5847 H   0  0  0  0  0  0  0  0  0  0  0  0
  150.3502  133.2094  152.8298 H   0  0  0  0  0  0  0  0  0  0  0  0
  150.2372  132.0041  154.0931 H   0  0  0  0  0  0  0  0  0  0  0  0
  147.7043  134.0337  151.9644 H   0  0  0  0  0  0  0  0  0  0  0  0
  145.7356  132.2800  151.2587 H   0  0  0  0  0  0  0  0  0  0  0  0
  146.5185  129.9313  152.5042 H   0  0  0  0  0  0  0  0  0  0  0  0
  152.8901  139.5879  158.5791 H   0  0  0  0  0  0  0  0  0  0  0  0
  153.9285  140.6160  160.4320 H   0  0  0  0  0  0  0  0  0  0  0  0
  152.8737  141.7195  161.3140 H   0  0  0  0  0  0  0  0  0  0  0  0
  154.1671  142.3563  160.2867 H   0  0  0  0  0  0  0  0  0  0  0  0
  1  2  1  0  0  0  0
  1 24  1  0  0  0  0
  1 25  1  0  0  0  0
  1 26  1  0  0  0  0
  2 22  1  0  0  0  0
  2  3  2  0  0  0  0
  3  4  1  0  0  0  0
  3 27  1  0  0  0  0
  4 20  2  0  0  0  0
  4  5  1  0  0  0  0
  5  6  2  0  0  0  0
  6  7  1  0  0  0  0
  6 28  1  0  0  0  0
  7  8  1  0  0  0  0
  7 20  1  0  0  0  0
  8  9  1  0  0  0  0
  8 29  1  0  0  0  0
  8 30  1  0  0  0  0
  9 10  1  0  0  0  0
  9 11  1  0  0  0  0
  9 31  1  0  0  0  0
 10 32  1  0  0  0  0
 11 12  1  0  0  0  0
 11 33  1  0  0  0  0
 11 34  1  0  0  0  0
 12 13  1  0  0  0  0
 12 35  1  0  0  0  0
 13 14  1  0  0  0  0
 13 36  1  0  0  0  0
 13 37  1  0  0  0  0
 14 15  1  0  0  0  0
 14 38  1  0  0  0  0
 14 39  1  0  0  0  0
 15 19  1  0  0  0  0
 15 16  1  0  0  0  0
 16 17  2  0  0  0  0
 16 40  1  0  0  0  0
 17 18  1  0  0  0  0
 17 41  1  0  0  0  0
 18 19  2  0  0  0  0
 18 42  1  0  0  0  0
 20 21  1  0  0  0  0
 21 22  2  0  0  0  0
 21 43  1  0  0  0  0
 22 23  1  0  0  0  0
 23 44  1  0  0  0  0
 23 45  1  0  0  0  0
 23 46  1  0  0  0  0
M  END
> <s_m_source_file>
AV-unprocessed.smi

> <i_m_source_file_index>
766

> <i_lp_mmshare_version>
43012

> <i_f3d_flags>
0

> <s_epik_input>
W0NIM11jKFtjSF0xKWMoW0NIM10pW2NIXWMoYzEyKW4oW2NIXW4yKVtDSDJdW0NASF0oW09IXSlbQ0gyXVtOSF1bQ0gyXVtDSDJdbjNbY0hdW2NIXVtjSF1uMw==

> <s_epik_cmdline>
J2VwaWtfcHl0aG9uJywgJy1waCcsICc3LjAnLCAnLXRuJywgJzgnLCAnLW1hJywgJzIwMCcsICctbWV0YWxfYmluZGluZycsICctaW1hZScsICc8aW5maWxlLm1hZT4nLCAnLW9tYWUnLCAnPG91dGZpbGUubWFlPic=

> <r_lp_tautomer_probability>
1

> <r_epik_Ionization_Penalty>
1.68727

> <r_epik_Ionization_Penalty_Charging>
0

> <r_epik_Ionization_Penalty_Neutral>
1.68727

> <r_epik_State_Penalty>
1.78741

> <r_epik_Charging_Adjusted_Penalty>
1.78741

> <i_epik_Tot_Q>
0

> <i_epik_Tot_abs_Q>
0

> <r_epik_Metal_State_Penalty>
1.73664

> <b_epik_Metal_Only>
0

> <s_lp_Force_Field>
OPLS_2005

> <r_lp_Energy>
18.4914

> <b_lp_Chiralities_Consistent>
1

> <s_lp_Variant>
AV-unprocessed.smi:766-6

> <Gold.Version>
5.8.1

> <Gold.Id.Protein>
6NUR|6NUR_protein|mol2

> <Gold.PLP.Fitness>
56.8726

> <Gold.PLP.PLP>
-49.8444

> <Gold.PLP.part.hbond>
-3.9080

> <Gold.PLP.part.metal>
0.0000

> <Gold.PLP.part.buried>
-4.7390

> <Gold.PLP.part.nonpolar>
-42.2982

> <Gold.PLP.part.repulsive>
0.2004

> <Gold.PLP.ligand.clash>
0.0000

> <Gold.PLP.ligand.torsion>
1.6865

> <Gold.PLP.Chemscore.Hbond>
2.3940

> <Gold.PLP.Chemscore.CHOScore>
1.0000

> <Gold.PLP.Chemscore.Metal>
0.0000

> <Gold.Chemscore.Hbonds>
donor molecule, donor type, donor heavy atom, donor atom, acceptor molecule, acceptor atom, score
      L1  H    10    32       P1  7949  0.93
      L1  H    12    35       P1  7948  0.30
      P1  H 10752 10763       L1    10  0.83
      L1  C    16    40       P1  7948  0.82

> <Gold.PLP.Chemscore.Internal.Correction>
0.2193

> <Gold.Rescore>
     Score         DG    S(hbond)    S(metal)    S(lipo)     H(rot)  DE(clash)    DE(int)     intcor
     14.69     -16.35       1.80        0.00     103.50       2.83       0.05       1.61       ----

> <Gold.Chemscore.Fitness>
14.6911

> <Gold.Chemscore.DG>
-16.3529

> <Gold.Chemscore.ZeroCoef>
-5.4800

> <Gold.Chemscore.Hbond>
1.8026

> <Gold.Chemscore.Metal>
0.0000

> <Gold.Chemscore.Lipo>
103.4976

> <Gold.Chemscore.Internal_Hbond>
0.0000

> <Gold.Chemscore.DEClash>
0.0498

> <Gold.Chemscore.DEInternal>
1.6120

> <Gold.Chemscore.Rot>
2.8348

> <Gold.Chemscore.Internal.Correction>
   9.000000E+99

> <Gold.Chemscore.Hbonds>
donor molecule, donor type, donor heavy atom, donor atom, acceptor molecule, acceptor atom, score
      L1  H    10    32       P1  7949  0.44
      P1  H 10752 10763       L1    10  0.15

> <Gold.Chemscore.Hbond.Weighted>
-6.0208

> <Gold.Chemscore.Metal.Weighted>
-0.0000

> <Gold.Chemscore.Lipo.Weighted>
-12.1092

> <Gold.Chemscore.Internal_Hbond.Weighted>
0.0000

> <Gold.Chemscore.DEClash.Weighted>
0.0498

> <Gold.Chemscore.DEInternal.Weighted>
1.6120

> <Gold.Chemscore.Rot.Weighted>
7.2572

> <Gold.Chemscore.Internal.Correction.Weighted>
   9.000000E+99

> <Gold.Protein.RotatedTorsions>
[ 6907 6896 6895 6894 ] final  -78.41 input  -60.11 | X-H torsion
[ 7974 7965 7964 7962 ] final -105.09 input  175.53 | X-H torsion
[ 8008 7997 7996 7995 ] final  -60.11 input   59.86 | X-H torsion
[ 10167 10162 10161 10158 ] final  163.44 input  -65.29 | X-H torsion
[ 10718 10713 10712 10709 ] final    1.95 input   66.30 | X-H torsion
[ 10763 10752 10751 10750 ] final   22.15 input  -60.55 | X-H torsion
[ 11005 11000 10999 10996 ] final  -19.44 input  -57.11 | X-H torsion

> <Gold.Protein.ActiveResidues>
 VAL166  LYS551  ARG553  GLY616  TRP617  ASP618  TYR619  PRO620  LYS621  CYS622 
 ASP623  PHE694  ASN695  SER759  ASP760  ASP761  ALA762  ILE779  LEU786  VAL792 
 PHE793  MET794  SER795  GLU796  ALA797  LYS798  CYS799  TRP800  GLU811  SER814 

> <Gold.Protein.RotatedAtoms>
  150.6973  134.4276  159.5233 H   0  0  0  0  0  0  0  0  0  0  0  0  # atno 6907 bound_to 6896
  152.2008  134.8587  160.0517 H   0  0  0  0  0  0  0  0  0  0  0  0  # atno 6908 bound_to 6896
  151.9508  133.3630  159.4036 H   0  0  0  0  0  0  0  0  0  0  0  0  # atno 6909 bound_to 6896
  145.2349  140.9184  143.3183 H   0  0  0  0  0  0  0  0  0  0  0  0  # atno 7974 bound_to 7965
  154.4383  140.1047  156.6222 H   0  0  0  0  0  0  0  0  0  0  0  0  # atno 8008 bound_to 7997
  155.5695  140.3489  155.4493 H   0  0  0  0  0  0  0  0  0  0  0  0  # atno 8009 bound_to 7997
  156.0400  140.1280  157.0155 H   0  0  0  0  0  0  0  0  0  0  0  0  # atno 8010 bound_to 7997
  139.4874  144.4336  151.9040 H   0  0  0  0  0  0  0  0  0  0  0  0  # atno 10167 bound_to 10162
  156.8558  130.5569  149.5666 H   0  0  0  0  0  0  0  0  0  0  0  0  # atno 10718 bound_to 10713
  153.0938  135.6654  153.9802 H   0  0  0  0  0  0  0  0  0  0  0  0  # atno 10763 bound_to 10752
  153.9391  135.2996  155.3444 H   0  0  0  0  0  0  0  0  0  0  0  0  # atno 10764 bound_to 10752
  154.7355  135.5103  153.9109 H   0  0  0  0  0  0  0  0  0  0  0  0  # atno 10765 bound_to 10752
  140.8367  133.7957  155.9816 H   0  0  0  0  0  0  0  0  0  0  0  0  # atno 11005 bound_to 11000
  144.9642  139.3947  143.6341 LP  0  0  0  0  0  0  0  0  0  0  0  0  # atno 17320 bound_to 7965
  146.3343  139.8710  142.8840 LP  0  0  0  0  0  0  0  0  0  0  0  0  # atno 17321 bound_to 7965
  140.3785  144.2766  150.5911 LP  0  0  0  0  0  0  0  0  0  0  0  0  # atno 17342 bound_to 10162
  140.5255  143.2255  151.8322 LP  0  0  0  0  0  0  0  0  0  0  0  0  # atno 17343 bound_to 10162
  156.0803  130.5815  150.9551 LP  0  0  0  0  0  0  0  0  0  0  0  0  # atno 17370 bound_to 10713
  157.6278  131.0924  150.8501 LP  0  0  0  0  0  0  0  0  0  0  0  0  # atno 17371 bound_to 10713
  140.8940  134.2460  157.5079 LP  0  0  0  0  0  0  0  0  0  0  0  0  # atno 17394 bound_to 11000
  139.8704  134.9675  156.4599 LP  0  0  0  0  0  0  0  0  0  0  0  0  # atno 17395 bound_to 11000

$$$$
