AV-unprocessed.smi:609|AV-procd|sdf|3052|dock5
  -GOLD-   2262023573D 1   1.00000     0.00000
 Structure written by MMmdl.
 43 45  0  0  0  0  0  0  0  0  2 V2000
  152.7435  142.8504  161.6461 C   0  0  0  0  0  0  0  0  0  0  0  0
  152.4520  142.3118  160.2557 C   0  0  0  0  0  0  0  0  0  0  0  0
  151.5155  142.9969  159.4493 C   0  0  0  0  0  0  0  0  0  0  0  0
  151.2710  142.4802  158.1824 C   0  0  0  0  0  0  0  0  0  0  0  0
  150.4215  142.9192  157.1646 N   0  3  0  0  0  0  0  0  0  0  0  0
  150.5246  142.0832  156.0946 C   0  0  0  0  0  0  0  0  0  0  0  0
  151.4263  141.1160  156.4144 N   0  0  0  0  0  0  0  0  0  0  0  0
  151.9006  139.9776  155.6148 C   0  0  0  0  0  0  0  0  0  0  0  0
  150.7511  139.0879  155.1044 C   0  0  1  0  0  0  0  0  0  0  0  0
  150.2615  139.5861  153.8743 O   0  0  0  0  0  0  0  0  0  0  0  0
  151.1986  137.6268  154.9119 C   0  0  0  0  0  0  0  0  0  0  0  0
  149.8008  136.4601  154.8560 S   0  0  0  0  0  0  0  0  0  0  0  0
  150.5797  135.0035  155.4871 C   0  0  0  0  0  0  0  0  0  0  0  0
  151.6331  134.9919  156.3004 N   0  0  0  0  0  0  0  0  0  0  0  0
  151.8993  133.6468  156.5286 C   0  0  0  0  0  0  0  0  0  0  0  0
  150.9924  132.8816  155.8373 C   0  0  0  0  0  0  0  0  0  0  0  0
  150.1540  133.7660  155.1719 N   0  0  0  0  0  0  0  0  0  0  0  0
  149.0420  133.4062  154.3141 C   0  0  0  0  0  0  0  0  0  0  0  0
  151.9190  141.3229  157.7085 C   0  0  0  0  0  0  0  0  0  0  0  0
  152.8444  140.6360  158.4908 C   0  0  0  0  0  0  0  0  0  0  0  0
  153.1079  141.1459  159.7822 C   0  0  0  0  0  0  0  0  0  0  0  0
  154.1145  140.4176  160.6564 C   0  0  0  0  0  0  0  0  0  0  0  0
  152.2039  143.7789  161.8356 H   0  0  0  0  0  0  0  0  0  0  0  0
  153.8076  143.0558  161.7640 H   0  0  0  0  0  0  0  0  0  0  0  0
  152.4433  142.1280  162.4055 H   0  0  0  0  0  0  0  0  0  0  0  0
  151.0124  143.8851  159.8029 H   0  0  0  0  0  0  0  0  0  0  0  0
  149.9890  142.1720  155.1603 H   0  0  0  0  0  0  0  0  0  0  0  0
  152.5195  140.3424  154.7947 H   0  0  0  0  0  0  0  0  0  0  0  0
  152.5600  139.3930  156.2576 H   0  0  0  0  0  0  0  0  0  0  0  0
  149.9353  139.1319  155.8260 H   0  0  0  0  0  0  0  0  0  0  0  0
  150.1452  138.8582  153.2824 H   0  0  0  0  0  0  0  0  0  0  0  0
  151.7608  137.5305  153.9824 H   0  0  0  0  0  0  0  0  0  0  0  0
  151.8788  137.3245  155.7085 H   0  0  0  0  0  0  0  0  0  0  0  0
  152.7147  133.3371  157.1657 H   0  0  0  0  0  0  0  0  0  0  0  0
  150.8781  131.8099  155.7649 H   0  0  0  0  0  0  0  0  0  0  0  0
  148.9421  132.3216  154.2617 H   0  0  0  0  0  0  0  0  0  0  0  0
  149.2103  133.7943  153.3092 H   0  0  0  0  0  0  0  0  0  0  0  0
  148.1181  133.8268  154.7120 H   0  0  0  0  0  0  0  0  0  0  0  0
  153.3493  139.7528  158.1285 H   0  0  0  0  0  0  0  0  0  0  0  0
  154.4972  139.5231  160.1642 H   0  0  0  0  0  0  0  0  0  0  0  0
  153.6548  140.1095  161.5957 H   0  0  0  0  0  0  0  0  0  0  0  0
  154.9637  141.0636  160.8806 H   0  0  0  0  0  0  0  0  0  0  0  0
  149.8164  143.7296  157.1947 H   0  0  0  0  0  0  0  0  0  0  0  0
  1  2  1  0  0  0  0
  1 23  1  0  0  0  0
  1 24  1  0  0  0  0
  1 25  1  0  0  0  0
  2 21  1  0  0  0  0
  2  3  2  0  0  0  0
  3  4  1  0  0  0  0
  3 26  1  0  0  0  0
  4 19  2  0  0  0  0
  4  5  1  0  0  0  0
  5  6  2  0  0  0  0
  5 43  1  0  0  0  0
  6  7  1  0  0  0  0
  6 27  1  0  0  0  0
  7  8  1  0  0  0  0
  7 19  1  0  0  0  0
  8  9  1  0  0  0  0
  8 28  1  0  0  0  0
  8 29  1  0  0  0  0
  9 10  1  0  0  0  0
  9 11  1  0  0  0  0
  9 30  1  0  0  0  0
 10 31  1  0  0  0  0
 11 12  1  0  0  0  0
 11 32  1  0  0  0  0
 11 33  1  0  0  0  0
 12 13  1  0  0  0  0
 13 17  1  0  0  0  0
 13 14  2  0  0  0  0
 14 15  1  0  0  0  0
 15 16  2  0  0  0  0
 15 34  1  0  0  0  0
 16 17  1  0  0  0  0
 16 35  1  0  0  0  0
 17 18  1  0  0  0  0
 18 36  1  0  0  0  0
 18 37  1  0  0  0  0
 18 38  1  0  0  0  0
 19 20  1  0  0  0  0
 20 21  2  0  0  0  0
 20 39  1  0  0  0  0
 21 22  1  0  0  0  0
 22 40  1  0  0  0  0
 22 41  1  0  0  0  0
 22 42  1  0  0  0  0
M  CHG  1   5   1
M  END
> <s_m_source_file>
AV-unprocessed.smi

> <i_m_source_file_index>
609

> <i_lp_mmshare_version>
43012

> <i_f3d_flags>
0

> <s_epik_input>
W0NIM11jKFtjSF0xKWMoW0NIM10pW2NIXWMoYzEyKW4oW2NIXW4yKVtDSDJdW0NASF0oW09IXSlbQ0gyXVNjM25bY0hdW2NIXW4zW0NIM10=

> <s_epik_cmdline>
J2VwaWtfcHl0aG9uJywgJy1waCcsICc3LjAnLCAnLXRuJywgJzgnLCAnLW1hJywgJzIwMCcsICctbWV0YWxfYmluZGluZycsICctaW1hZScsICc8aW5maWxlLm1hZT4nLCAnLW9tYWUnLCAnPG91dGZpbGUubWFlPic=

> <r_epik_Ionization_Penalty>
2.09683

> <r_epik_Ionization_Penalty_Charging>
2.09682

> <r_epik_Ionization_Penalty_Neutral>
2.49751e-06

> <r_epik_State_Penalty>
2.21514

> <r_epik_Charging_Adjusted_Penalty>
4.31197

> <i_epik_Tot_Q>
1

> <i_epik_Tot_abs_Q>
1

> <r_epik_Metal_State_Penalty>
1.52634

> <b_epik_Metal_Only>
0

> <s_lp_Force_Field>
OPLS_2005

> <r_lp_Energy>
12.6573

> <b_lp_Chiralities_Consistent>
1

> <s_lp_Variant>
AV-unprocessed.smi:609-8

> <Gold.Version>
5.8.1

> <Gold.Id.Protein>
6NUR|6NUR_protein|mol2

> <Gold.PLP.Fitness>
53.3097

> <Gold.PLP.PLP>
-45.3246

> <Gold.PLP.part.hbond>
-4.0000

> <Gold.PLP.part.metal>
0.0000

> <Gold.PLP.part.buried>
-1.1441

> <Gold.PLP.part.nonpolar>
-36.5995

> <Gold.PLP.part.repulsive>
0.0118

> <Gold.PLP.ligand.clash>
0.0000

> <Gold.PLP.ligand.torsion>
1.0509

> <Gold.PLP.Chemscore.Hbond>
3.2313

> <Gold.PLP.Chemscore.CHOScore>
0.1062

> <Gold.PLP.Chemscore.Metal>
0.0000

> <Gold.Chemscore.Hbonds>
donor molecule, donor type, donor heavy atom, donor atom, acceptor molecule, acceptor atom, score
      L1  H     5    43       P1  8028  1.21
      P1  H  7989  7998       L1    10  1.00
      P1  H 10752 10763       L1    14  0.99
      L1  C     6    27       P1  8028  0.10

> <Gold.PLP.Chemscore.Internal.Correction>
0.0744

> <Gold.Rescore>
     Score         DG    S(hbond)    S(metal)    S(lipo)     H(rot)  DE(clash)    DE(int)     intcor
     15.25     -16.39       1.18        0.00     113.92       2.48       0.10       1.04       ----

> <Gold.Chemscore.Fitness>
15.2460

> <Gold.Chemscore.DG>
-16.3877

> <Gold.Chemscore.ZeroCoef>
-5.4800

> <Gold.Chemscore.Hbond>
1.1752

> <Gold.Chemscore.Metal>
0.0000

> <Gold.Chemscore.Lipo>
113.9184

> <Gold.Chemscore.Internal_Hbond>
0.0000

> <Gold.Chemscore.DEClash>
0.1025

> <Gold.Chemscore.DEInternal>
1.0392

> <Gold.Chemscore.Rot>
2.4789

> <Gold.Chemscore.Internal.Correction>
   9.000000E+99

> <Gold.Chemscore.Hbonds>
donor molecule, donor type, donor heavy atom, donor atom, acceptor molecule, acceptor atom, score
      L1  H     5    43       P1  8028  0.51
      P1  H  7989  7998       L1    10  0.23
      P1  H 10752 10763       L1    14  0.08

> <Gold.Chemscore.Hbond.Weighted>
-3.9251

> <Gold.Chemscore.Metal.Weighted>
-0.0000

> <Gold.Chemscore.Lipo.Weighted>
-13.3284

> <Gold.Chemscore.Internal_Hbond.Weighted>
0.0000

> <Gold.Chemscore.DEClash.Weighted>
0.1025

> <Gold.Chemscore.DEInternal.Weighted>
1.0392

> <Gold.Chemscore.Rot.Weighted>
6.3459

> <Gold.Chemscore.Internal.Correction.Weighted>
   9.000000E+99

> <Gold.Protein.RotatedTorsions>
[ 6907 6896 6895 6894 ] final   94.93 input  -60.11 | X-H torsion
[ 7974 7965 7964 7962 ] final  176.21 input  175.53 | X-H torsion
[ 8008 7997 7996 7995 ] final -132.96 input   59.86 | X-H torsion
[ 10167 10162 10161 10158 ] final -153.08 input  -65.29 | X-H torsion
[ 10718 10713 10712 10709 ] final  115.30 input   66.30 | X-H torsion
[ 10763 10752 10751 10750 ] final   85.95 input  -60.55 | X-H torsion
[ 11005 11000 10999 10996 ] final   36.67 input  -57.11 | X-H torsion

> <Gold.Protein.ActiveResidues>
 VAL166  LYS551  ARG553  GLY616  TRP617  ASP618  TYR619  PRO620  LYS621  CYS622 
 ASP623  PHE694  ASN695  SER759  ASP760  ASP761  ALA762  ILE779  LEU786  VAL792 
 PHE793  MET794  SER795  GLU796  ALA797  LYS798  CYS799  TRP800  GLU811  SER814 

> <Gold.Protein.RotatedAtoms>
  152.5447  134.1118  159.8361 H   0  0  0  0  0  0  0  0  0  0  0  0  # atno 6907 bound_to 6896
  151.1184  133.5115  159.2610 H   0  0  0  0  0  0  0  0  0  0  0  0  # atno 6908 bound_to 6896
  151.1806  135.0369  159.8845 H   0  0  0  0  0  0  0  0  0  0  0  0  # atno 6909 bound_to 6896
  144.7188  140.0062  143.6440 H   0  0  0  0  0  0  0  0  0  0  0  0  # atno 7974 bound_to 7965
  155.3376  140.0470  157.3044 H   0  0  0  0  0  0  0  0  0  0  0  0  # atno 8008 bound_to 7997
  154.5294  140.2252  155.8796 H   0  0  0  0  0  0  0  0  0  0  0  0  # atno 8009 bound_to 7997
  156.1773  140.3082  155.9089 H   0  0  0  0  0  0  0  0  0  0  0  0  # atno 8010 bound_to 7997
  139.7127  143.9083  152.2474 H   0  0  0  0  0  0  0  0  0  0  0  0  # atno 10167 bound_to 10162
  157.6230  131.1010  150.7310 H   0  0  0  0  0  0  0  0  0  0  0  0  # atno 10718 bound_to 10713
  153.1523  135.4598  154.9655 H   0  0  0  0  0  0  0  0  0  0  0  0  # atno 10763 bound_to 10752
  154.7834  135.3196  154.7941 H   0  0  0  0  0  0  0  0  0  0  0  0  # atno 10764 bound_to 10752
  153.8444  135.6927  153.4853 H   0  0  0  0  0  0  0  0  0  0  0  0  # atno 10765 bound_to 10752
  140.2302  134.3536  155.7967 H   0  0  0  0  0  0  0  0  0  0  0  0  # atno 11005 bound_to 11000
  146.0295  139.3322  143.0763 LP  0  0  0  0  0  0  0  0  0  0  0  0  # atno 17320 bound_to 7965
  145.8469  140.9550  143.0770 LP  0  0  0  0  0  0  0  0  0  0  0  0  # atno 17321 bound_to 7965
  139.8957  144.6940  150.8721 LP  0  0  0  0  0  0  0  0  0  0  0  0  # atno 17342 bound_to 10162
  140.7737  143.3552  151.1935 LP  0  0  0  0  0  0  0  0  0  0  0  0  # atno 17343 bound_to 10162
  156.7663  130.4814  149.5427 LP  0  0  0  0  0  0  0  0  0  0  0  0  # atno 17370 bound_to 10713
  156.1386  130.6229  151.0435 LP  0  0  0  0  0  0  0  0  0  0  0  0  # atno 17371 bound_to 10713
  141.2218  133.7241  156.8719 LP  0  0  0  0  0  0  0  0  0  0  0  0  # atno 17394 bound_to 11000
  140.1758  134.9068  157.2889 LP  0  0  0  0  0  0  0  0  0  0  0  0  # atno 17395 bound_to 11000

$$$$
