AV-unprocessed.smi:1247|AV-procd|sdf|5246|dock7
  -GOLD-   22720 4353D 1   1.00000     0.00000
 Structure written by MMmdl.
 47 48  0  0  0  0  0  0  0  0  2 V2000
  151.7410  141.9609  157.9185 C   0  0  0  0  0  0  0  0  0  0  0  0
  151.3949  141.1129  156.7305 C   0  0  0  0  0  0  0  0  0  0  0  0
  150.2033  141.1396  155.9493 C   0  0  0  0  0  0  0  0  0  0  0  0
  150.4334  140.1673  155.0145 C   0  0  0  0  0  0  0  0  0  0  0  0
  149.6318  139.7623  153.9937 N   0  0  0  0  0  0  0  0  0  0  0  0
  148.3475  139.3674  154.0402 C   0  0  0  0  0  0  0  0  0  0  0  0
  147.6640  139.2727  155.0599 O   0  0  0  0  0  0  0  0  0  0  0  0
  147.8872  139.0682  152.8169 N   0  0  0  0  0  0  0  0  0  0  0  0
  146.5362  138.6027  152.5260 C   0  0  0  0  0  0  0  0  0  0  0  0
  146.5408  137.5032  151.4470 C   0  0  0  0  0  0  0  0  0  0  0  0
  145.2918  136.7021  151.4531 N   0  3  1  0  0  0  0  0  0  0  0  0
  145.4876  135.3436  150.8940 C   0  0  0  0  0  0  0  0  0  0  0  0
  144.1527  134.5757  150.8597 C   0  0  1  0  0  0  0  0  0  0  0  0
  144.3243  133.1381  150.3570 C   0  0  0  0  0  0  0  0  0  0  0  0
  143.6131  134.5251  152.1757 O   0  0  0  0  0  0  0  0  0  0  0  0
  143.3349  135.8174  152.7035 C   0  0  1  0  0  0  0  0  0  0  0  0
  142.6768  135.6406  154.0762 C   0  0  0  0  0  0  0  0  0  0  0  0
  144.6469  136.6209  152.7867 C   0  0  0  0  0  0  0  0  0  0  0  0
  151.6793  139.6209  155.2384 N   0  0  0  0  0  0  0  0  0  0  0  0
  152.3830  138.5694  154.5294 C   0  0  0  0  0  0  0  0  0  0  0  0
  152.2667  140.2065  156.3036 N   0  0  0  0  0  0  0  0  0  0  0  0
  150.9899  142.7334  158.0841 H   0  0  0  0  0  0  0  0  0  0  0  0
  152.7020  142.4574  157.7811 H   0  0  0  0  0  0  0  0  0  0  0  0
  151.8031  141.3581  158.8248 H   0  0  0  0  0  0  0  0  0  0  0  0
  149.3397  141.7760  156.0696 H   0  0  0  0  0  0  0  0  0  0  0  0
  150.0690  139.7515  153.0840 H   0  0  0  0  0  0  0  0  0  0  0  0
  148.5137  139.1735  152.0319 H   0  0  0  0  0  0  0  0  0  0  0  0
  146.0692  138.2568  153.4486 H   0  0  0  0  0  0  0  0  0  0  0  0
  145.9503  139.4561  152.1838 H   0  0  0  0  0  0  0  0  0  0  0  0
  146.6523  137.9859  150.4748 H   0  0  0  0  0  0  0  0  0  0  0  0
  147.4009  136.8415  151.5616 H   0  0  0  0  0  0  0  0  0  0  0  0
  145.8946  135.4162  149.8846 H   0  0  0  0  0  0  0  0  0  0  0  0
  146.2197  134.8039  151.4974 H   0  0  0  0  0  0  0  0  0  0  0  0
  143.4487  135.0899  150.2025 H   0  0  0  0  0  0  0  0  0  0  0  0
  144.7183  133.1216  149.3405 H   0  0  0  0  0  0  0  0  0  0  0  0
  143.3697  132.6112  150.3509 H   0  0  0  0  0  0  0  0  0  0  0  0
  145.0102  132.5762  150.9916 H   0  0  0  0  0  0  0  0  0  0  0  0
  142.6309  136.3302  152.0454 H   0  0  0  0  0  0  0  0  0  0  0  0
  142.4340  136.6055  154.5221 H   0  0  0  0  0  0  0  0  0  0  0  0
  143.3348  135.1093  154.7646 H   0  0  0  0  0  0  0  0  0  0  0  0
  141.7511  135.0705  153.9937 H   0  0  0  0  0  0  0  0  0  0  0  0
  145.3317  136.1497  153.4941 H   0  0  0  0  0  0  0  0  0  0  0  0
  144.4346  137.6196  153.1670 H   0  0  0  0  0  0  0  0  0  0  0  0
  151.8433  138.2841  153.6265 H   0  0  0  0  0  0  0  0  0  0  0  0
  152.4802  137.6952  155.1739 H   0  0  0  0  0  0  0  0  0  0  0  0
  153.3777  138.9165  154.2475 H   0  0  0  0  0  0  0  0  0  0  0  0
  144.6432  137.1706  150.8367 H   0  0  0  0  0  0  0  0  0  0  0  0
  1  2  1  0  0  0  0
  1 22  1  0  0  0  0
  1 23  1  0  0  0  0
  1 24  1  0  0  0  0
  2 21  2  0  0  0  0
  2  3  1  0  0  0  0
  3  4  2  0  0  0  0
  3 25  1  0  0  0  0
  4  5  1  0  0  0  0
  4 19  1  0  0  0  0
  5  6  1  0  0  0  0
  5 26  1  0  0  0  0
  6  7  2  0  0  0  0
  6  8  1  0  0  0  0
  8  9  1  0  0  0  0
  8 27  1  0  0  0  0
  9 10  1  0  0  0  0
  9 28  1  0  0  0  0
  9 29  1  0  0  0  0
 10 11  1  0  0  0  0
 10 30  1  0  0  0  0
 10 31  1  0  0  0  0
 11 18  1  0  0  0  0
 11 12  1  0  0  0  0
 11 47  1  0  0  0  0
 12 13  1  0  0  0  0
 12 32  1  0  0  0  0
 12 33  1  0  0  0  0
 13 14  1  0  0  0  0
 13 15  1  0  0  0  0
 13 34  1  0  0  0  0
 14 35  1  0  0  0  0
 14 36  1  0  0  0  0
 14 37  1  0  0  0  0
 15 16  1  0  0  0  0
 16 17  1  0  0  0  0
 16 18  1  0  0  0  0
 16 38  1  0  0  0  0
 17 39  1  0  0  0  0
 17 40  1  0  0  0  0
 17 41  1  0  0  0  0
 18 42  1  0  0  0  0
 18 43  1  0  0  0  0
 19 20  1  0  0  0  0
 19 21  1  0  0  0  0
 20 44  1  0  0  0  0
 20 45  1  0  0  0  0
 20 46  1  0  0  0  0
M  CHG  1  11   1
M  END
> <s_m_source_file>
AV-unprocessed.smi

> <i_m_source_file_index>
1247

> <i_lp_mmshare_version>
43012

> <i_f3d_flags>
0

> <s_epik_input>
W0NIM11jMVtjSF1jKG4objEpW0NIM10pW05IXUMoPU8pW05IXVtDSDJdW0NIMl1OMltDSDJdW0NAQEhdKFtDSDNdKU9bQ0BASF0oW0NIM10pW0NIMl0y

> <s_epik_cmdline>
J2VwaWtfcHl0aG9uJywgJy1waCcsICc3LjAnLCAnLXRuJywgJzgnLCAnLW1hJywgJzIwMCcsICctbWV0YWxfYmluZGluZycsICctaW1hZScsICc8aW5maWxlLm1hZT4nLCAnLW9tYWUnLCAnPG91dGZpbGUubWFlPic=

> <r_lp_tautomer_probability>
1

> <r_epik_Ionization_Penalty>
0.663902

> <r_epik_Ionization_Penalty_Charging>
0.663826

> <r_epik_Ionization_Penalty_Neutral>
7.65444e-05

> <r_epik_State_Penalty>
0.683414

> <r_epik_Charging_Adjusted_Penalty>
1.34724

> <i_epik_Tot_Q>
1

> <i_epik_Tot_abs_Q>
1

> <r_epik_Metal_State_Penalty>
0.683419

> <b_epik_Metal_Only>
0

> <s_lp_Force_Field>
OPLS_2005

> <r_lp_Energy>
16.001

> <b_lp_Chiralities_Consistent>
1

> <s_lp_Variant>
AV-unprocessed.smi:1247-4

> <Gold.Version>
5.8.1

> <Gold.Id.Protein>
6NUR|6NUR_protein|mol2

> <Gold.PLP.Fitness>
49.0101

> <Gold.PLP.PLP>
-39.5288

> <Gold.PLP.part.hbond>
-4.7628

> <Gold.PLP.part.metal>
0.0000

> <Gold.PLP.part.buried>
-1.3228

> <Gold.PLP.part.nonpolar>
-33.2809

> <Gold.PLP.part.repulsive>
0.4554

> <Gold.PLP.ligand.clash>
0.0000

> <Gold.PLP.ligand.torsion>
1.0442

> <Gold.PLP.Chemscore.Hbond>
3.8480

> <Gold.PLP.Chemscore.CHOScore>
0.0000

> <Gold.PLP.Chemscore.Metal>
0.0000

> <Gold.Chemscore.Hbonds>
donor molecule, donor type, donor heavy atom, donor atom, acceptor molecule, acceptor atom, score
      L1  H     5    26       P1  7957  0.82
      L1  H     8    27       P1  7957  1.00
      L1  H    11    47       P1 10171  1.00
      P1  H  7997  8009       L1    21  0.91

> <Gold.PLP.Chemscore.Internal.Correction>
0.0257

> <Gold.Rescore>
     Score         DG    S(hbond)    S(metal)    S(lipo)     H(rot)  DE(clash)    DE(int)     intcor
     20.79     -23.12       3.70        0.00      78.44       1.52       1.30       1.03       ----

> <Gold.Chemscore.Fitness>
20.7867

> <Gold.Chemscore.DG>
-23.1197

> <Gold.Chemscore.ZeroCoef>
-5.4800

> <Gold.Chemscore.Hbond>
3.7004

> <Gold.Chemscore.Metal>
0.0000

> <Gold.Chemscore.Lipo>
78.4363

> <Gold.Chemscore.Internal_Hbond>
0.0000

> <Gold.Chemscore.DEClash>
1.2994

> <Gold.Chemscore.DEInternal>
1.0337

> <Gold.Chemscore.Rot>
1.5221

> <Gold.Chemscore.Internal.Correction>
   9.000000E+99

> <Gold.Chemscore.Hbonds>
donor molecule, donor type, donor heavy atom, donor atom, acceptor molecule, acceptor atom, score
      L1  H     5    26       P1  7957  0.79
      L1  H     8    27       P1  7957  0.96
      L1  H    11    47       P1 10171  0.99
      P1  H  7997  8009       L1    21  0.79

> <Gold.Chemscore.Hbond.Weighted>
-12.3594

> <Gold.Chemscore.Metal.Weighted>
-0.0000

> <Gold.Chemscore.Lipo.Weighted>
-9.1770

> <Gold.Chemscore.Internal_Hbond.Weighted>
0.0000

> <Gold.Chemscore.DEClash.Weighted>
1.2994

> <Gold.Chemscore.DEInternal.Weighted>
1.0337

> <Gold.Chemscore.Rot.Weighted>
3.8967

> <Gold.Chemscore.Internal.Correction.Weighted>
   9.000000E+99

> <Gold.Protein.RotatedTorsions>
[ 6907 6896 6895 6894 ] final   32.80 input  -60.11 | X-H torsion
[ 7974 7965 7964 7962 ] final  143.65 input  175.53 | X-H torsion
[ 8008 7997 7996 7995 ] final -160.85 input   59.86 | X-H torsion
[ 10167 10162 10161 10158 ] final   71.62 input  -65.29 | X-H torsion
[ 10718 10713 10712 10709 ] final   46.32 input   66.30 | X-H torsion
[ 10763 10752 10751 10750 ] final  131.08 input  -60.55 | X-H torsion
[ 11005 11000 10999 10996 ] final  -94.90 input  -57.11 | X-H torsion

> <Gold.Protein.ActiveResidues>
 VAL166  LYS551  ARG553  GLY616  TRP617  ASP618  TYR619  PRO620  LYS621  CYS622 
 ASP623  PHE694  ASN695  SER759  ASP760  ASP761  ALA762  ILE779  LEU786  VAL792 
 PHE793  MET794  SER795  GLU796  ALA797  LYS798  CYS799  TRP800  GLU811  SER814 

> <Gold.Protein.RotatedAtoms>
  152.0796  134.9480  160.0573 H   0  0  0  0  0  0  0  0  0  0  0  0  # atno 6907 bound_to 6896
  152.0774  133.4131  159.4494 H   0  0  0  0  0  0  0  0  0  0  0  0  # atno 6908 bound_to 6896
  150.6836  134.2942  159.4723 H   0  0  0  0  0  0  0  0  0  0  0  0  # atno 6909 bound_to 6896
  144.8903  139.5568  143.5801 H   0  0  0  0  0  0  0  0  0  0  0  0  # atno 7974 bound_to 7965
  155.7835  140.0868  157.2047 H   0  0  0  0  0  0  0  0  0  0  0  0  # atno 8008 bound_to 7997
  154.3989  140.1503  156.3137 H   0  0  0  0  0  0  0  0  0  0  0  0  # atno 8009 bound_to 7997
  155.8630  140.3429  155.5772 H   0  0  0  0  0  0  0  0  0  0  0  0  # atno 8010 bound_to 7997
  140.0442  144.5365  150.7411 H   0  0  0  0  0  0  0  0  0  0  0  0  # atno 10167 bound_to 10162
  157.4468  130.8114  149.7749 H   0  0  0  0  0  0  0  0  0  0  0  0  # atno 10718 bound_to 10713
  153.7685  135.3185  155.3348 H   0  0  0  0  0  0  0  0  0  0  0  0  # atno 10763 bound_to 10752
  154.8205  135.4607  154.0768 H   0  0  0  0  0  0  0  0  0  0  0  0  # atno 10764 bound_to 10752
  153.2020  135.6924  153.8304 H   0  0  0  0  0  0  0  0  0  0  0  0  # atno 10765 bound_to 10752
  141.1457  133.7988  157.0362 H   0  0  0  0  0  0  0  0  0  0  0  0  # atno 11005 bound_to 11000
  146.3049  139.7548  142.9063 LP  0  0  0  0  0  0  0  0  0  0  0  0  # atno 17320 bound_to 7965
  145.3795  141.0356  143.3185 LP  0  0  0  0  0  0  0  0  0  0  0  0  # atno 17321 bound_to 7965
  140.7246  143.2623  151.4163 LP  0  0  0  0  0  0  0  0  0  0  0  0  # atno 17342 bound_to 10162
  139.5994  144.1327  152.2181 LP  0  0  0  0  0  0  0  0  0  0  0  0  # atno 17343 bound_to 10162
  155.9971  130.3902  150.2754 LP  0  0  0  0  0  0  0  0  0  0  0  0  # atno 17370 bound_to 10713
  157.0923  131.0173  151.3117 LP  0  0  0  0  0  0  0  0  0  0  0  0  # atno 17371 bound_to 10713
  140.0722  134.9696  157.1487 LP  0  0  0  0  0  0  0  0  0  0  0  0  # atno 17394 bound_to 11000
  140.3694  134.2407  155.7179 LP  0  0  0  0  0  0  0  0  0  0  0  0  # atno 17395 bound_to 11000

$$$$
