AV-unprocessed.smi:3303|AV-procd|sdf|12675|dock1
  -GOLD-   2272019 13D 1   1.00000     0.00000
 Structure written by MMmdl.
 44 45  0  0  0  0  0  0  0  0  2 V2000
  150.9636  137.8392  154.4266 C   0  0  0  0  0  0  0  0  0  0  0  0
  150.4119  139.2745  154.4544 C   0  0  2  0  0  0  0  0  0  0  0  0
  150.9654  140.0254  155.6832 C   0  0  0  0  0  0  0  0  0  0  0  0
  150.4513  141.3941  155.7310 N   0  0  0  0  0  0  0  0  0  0  0  0
  151.1247  142.1551  156.7761 C   0  0  0  0  0  0  0  0  0  0  0  0
  148.9859  141.4547  155.8364 C   0  0  2  0  0  0  0  0  0  0  0  0
  148.4123  140.9167  157.1674 C   0  0  0  0  0  0  0  0  0  0  0  0
  148.3767  140.7557  154.6041 C   0  0  0  0  0  0  0  0  0  0  0  0
  148.8680  139.3056  154.4429 C   0  0  1  0  0  0  0  0  0  0  0  0
  148.3427  138.7429  153.1787 N   0  3  0  0  0  0  0  0  0  0  0  0
  146.8814  138.8627  153.0061 C   0  0  0  0  0  0  0  0  0  0  0  0
  146.4168  138.1373  151.7361 C   0  0  0  0  0  0  0  0  0  0  0  0
  145.5474  136.9343  152.0488 C   0  0  0  0  0  0  0  0  0  0  0  0
  145.4706  135.8477  151.1515 C   0  0  0  0  0  0  0  0  0  0  0  0
  144.6547  134.7519  151.4940 C   0  0  0  0  0  0  0  0  0  0  0  0
  143.9511  134.7854  152.7133 C   0  0  0  0  0  0  0  0  0  0  0  0
  144.0969  135.9164  153.5411 C   0  0  0  0  0  0  0  0  0  0  0  0
  144.8785  136.9716  153.2232 N   0  0  0  0  0  0  0  0  0  0  0  0
  150.6209  137.2673  155.2896 H   0  0  0  0  0  0  0  0  0  0  0  0
  152.0538  137.8399  154.4425 H   0  0  0  0  0  0  0  0  0  0  0  0
  150.6535  137.3051  153.5284 H   0  0  0  0  0  0  0  0  0  0  0  0
  150.7730  139.7886  153.5617 H   0  0  0  0  0  0  0  0  0  0  0  0
  150.7275  139.4935  156.6046 H   0  0  0  0  0  0  0  0  0  0  0  0
  152.0538  140.0594  155.6175 H   0  0  0  0  0  0  0  0  0  0  0  0
  150.7461  143.1769  156.8142 H   0  0  0  0  0  0  0  0  0  0  0  0
  152.1950  142.2072  156.5739 H   0  0  0  0  0  0  0  0  0  0  0  0
  150.9936  141.6999  157.7580 H   0  0  0  0  0  0  0  0  0  0  0  0
  148.7088  142.5081  155.7753 H   0  0  0  0  0  0  0  0  0  0  0  0
  147.3246  140.9889  157.1690 H   0  0  0  0  0  0  0  0  0  0  0  0
  148.7622  141.4940  158.0227 H   0  0  0  0  0  0  0  0  0  0  0  0
  148.6640  139.8719  157.3457 H   0  0  0  0  0  0  0  0  0  0  0  0
  147.2877  140.7779  154.6649 H   0  0  0  0  0  0  0  0  0  0  0  0
  148.6396  141.3275  153.7124 H   0  0  0  0  0  0  0  0  0  0  0  0
  148.5011  138.7161  155.2846 H   0  0  0  0  0  0  0  0  0  0  0  0
  148.7999  139.2062  152.4063 H   0  0  0  0  0  0  0  0  0  0  0  0
  146.3811  138.4376  153.8772 H   0  0  0  0  0  0  0  0  0  0  0  0
  146.6122  139.9189  152.9595 H   0  0  0  0  0  0  0  0  0  0  0  0
  145.8566  138.8216  151.0968 H   0  0  0  0  0  0  0  0  0  0  0  0
  147.2806  137.8124  151.1544 H   0  0  0  0  0  0  0  0  0  0  0  0
  146.0227  135.8502  150.2229 H   0  0  0  0  0  0  0  0  0  0  0  0
  144.5708  133.9009  150.8340 H   0  0  0  0  0  0  0  0  0  0  0  0
  143.3151  133.9634  153.0072 H   0  0  0  0  0  0  0  0  0  0  0  0
  143.5731  135.9746  154.4839 H   0  0  0  0  0  0  0  0  0  0  0  0
  148.5832  137.7624  153.1507 H   0  0  0  0  0  0  0  0  0  0  0  0
  1  2  1  0  0  0  0
  1 19  1  0  0  0  0
  1 20  1  0  0  0  0
  1 21  1  0  0  0  0
  2  9  1  0  0  0  0
  2  3  1  0  0  0  0
  2 22  1  0  0  0  0
  3  4  1  0  0  0  0
  3 23  1  0  0  0  0
  3 24  1  0  0  0  0
  4  5  1  0  0  0  0
  4  6  1  0  0  0  0
  5 25  1  0  0  0  0
  5 26  1  0  0  0  0
  5 27  1  0  0  0  0
  6  7  1  0  0  0  0
  6  8  1  0  0  0  0
  6 28  1  0  0  0  0
  7 29  1  0  0  0  0
  7 30  1  0  0  0  0
  7 31  1  0  0  0  0
  8  9  1  0  0  0  0
  8 32  1  0  0  0  0
  8 33  1  0  0  0  0
  9 10  1  0  0  0  0
  9 34  1  0  0  0  0
 10 11  1  0  0  0  0
 10 35  1  0  0  0  0
 10 44  1  0  0  0  0
 11 12  1  0  0  0  0
 11 36  1  0  0  0  0
 11 37  1  0  0  0  0
 12 13  1  0  0  0  0
 12 38  1  0  0  0  0
 12 39  1  0  0  0  0
 13 18  1  0  0  0  0
 13 14  2  0  0  0  0
 14 15  1  0  0  0  0
 14 40  1  0  0  0  0
 15 16  2  0  0  0  0
 15 41  1  0  0  0  0
 16 17  1  0  0  0  0
 16 42  1  0  0  0  0
 17 18  2  0  0  0  0
 17 43  1  0  0  0  0
M  CHG  1  10   1
M  END
> <s_m_source_file>
AV-unprocessed.smi

> <i_m_source_file_index>
3303

> <i_lp_mmshare_version>
43012

> <i_f3d_flags>
0

> <s_epik_input>
W0NIM11bQ0BASF0xW0NIMl1OKFtDSDNdKVtDQEBIXShbQ0gzXSlbQ0gyXVtDQEhdMVtOSF1bQ0gyXVtDSDJdYzJbY0hdW2NIXVtjSF1bY0hdbjI=

> <s_epik_cmdline>
J2VwaWtfcHl0aG9uJywgJy1waCcsICc3LjAnLCAnLXRuJywgJzgnLCAnLW1hJywgJzIwMCcsICctbWV0YWxfYmluZGluZycsICctaW1hZScsICc8aW5maWxlLm1hZT4nLCAnLW9tYWUnLCAnPG91dGZpbGUubWFlPic=

> <r_epik_Ionization_Penalty>
1.37325

> <r_epik_Ionization_Penalty_Charging>
0.000251572

> <r_epik_Ionization_Penalty_Neutral>
1.373

> <r_epik_State_Penalty>
1.46343

> <r_epik_Charging_Adjusted_Penalty>
1.46368

> <i_epik_Tot_Q>
1

> <i_epik_Tot_abs_Q>
1

> <r_epik_Metal_State_Penalty>
1.46331

> <b_epik_Metal_Only>
0

> <s_lp_Force_Field>
OPLS_2005

> <r_lp_Energy>
23.1884

> <b_lp_Chiralities_Consistent>
1

> <s_lp_Variant>
AV-unprocessed.smi:3303-19

> <Gold.Version>
5.8.1

> <Gold.Id.Protein>
6NUR|6NUR_protein|mol2

> <Gold.PLP.Fitness>
43.6259

> <Gold.PLP.PLP>
-36.1275

> <Gold.PLP.part.hbond>
-2.0000

> <Gold.PLP.part.metal>
0.0000

> <Gold.PLP.part.buried>
-1.9599

> <Gold.PLP.part.nonpolar>
-33.8688

> <Gold.PLP.part.repulsive>
0.3274

> <Gold.PLP.ligand.clash>
0.0000

> <Gold.PLP.ligand.torsion>
0.7539

> <Gold.PLP.Chemscore.Hbond>
2.9840

> <Gold.PLP.Chemscore.CHOScore>
0.0000

> <Gold.PLP.Chemscore.Metal>
0.0000

> <Gold.Chemscore.Hbonds>
donor molecule, donor type, donor heavy atom, donor atom, acceptor molecule, acceptor atom, score
      L1  H    10    35       P1  7957  1.00
      L1  H    10    44       P1  7948  1.66

> <Gold.PLP.Chemscore.Internal.Correction>
0.0541

> <Gold.Rescore>
     Score         DG    S(hbond)    S(metal)    S(lipo)     H(rot)  DE(clash)    DE(int)     intcor
     18.40     -19.14       1.88        0.00      92.12       1.33       0.07       0.67       ----

> <Gold.Chemscore.Fitness>
18.4029

> <Gold.Chemscore.DG>
-19.1419

> <Gold.Chemscore.ZeroCoef>
-5.4800

> <Gold.Chemscore.Hbond>
1.8829

> <Gold.Chemscore.Metal>
0.0000

> <Gold.Chemscore.Lipo>
92.1152

> <Gold.Chemscore.Internal_Hbond>
0.0000

> <Gold.Chemscore.DEClash>
0.0669

> <Gold.Chemscore.DEInternal>
0.6722

> <Gold.Chemscore.Rot>
1.3298

> <Gold.Chemscore.Internal.Correction>
   9.000000E+99

> <Gold.Chemscore.Hbonds>
donor molecule, donor type, donor heavy atom, donor atom, acceptor molecule, acceptor atom, score
      L1  H    10    35       P1  7957  1.00
      L1  H    10    44       P1  7948  0.79

> <Gold.Chemscore.Hbond.Weighted>
-6.2888

> <Gold.Chemscore.Metal.Weighted>
-0.0000

> <Gold.Chemscore.Lipo.Weighted>
-10.7775

> <Gold.Chemscore.Internal_Hbond.Weighted>
0.0000

> <Gold.Chemscore.DEClash.Weighted>
0.0669

> <Gold.Chemscore.DEInternal.Weighted>
0.6722

> <Gold.Chemscore.Rot.Weighted>
3.4043

> <Gold.Chemscore.Internal.Correction.Weighted>
   9.000000E+99

> <Gold.Protein.RotatedTorsions>
[ 6907 6896 6895 6894 ] final  -53.17 input  -60.11 | X-H torsion
[ 7974 7965 7964 7962 ] final -161.26 input  175.53 | X-H torsion
[ 8008 7997 7996 7995 ] final  127.40 input   59.86 | X-H torsion
[ 10167 10162 10161 10158 ] final   96.90 input  -65.29 | X-H torsion
[ 10718 10713 10712 10709 ] final  -83.28 input   66.30 | X-H torsion
[ 10763 10752 10751 10750 ] final  -67.42 input  -60.55 | X-H torsion
[ 11005 11000 10999 10996 ] final  -53.97 input  -57.11 | X-H torsion

> <Gold.Protein.ActiveResidues>
 VAL166  LYS551  ARG553  GLY616  TRP617  ASP618  TYR619  PRO620  LYS621  CYS622 
 ASP623  PHE694  ASN695  SER759  ASP760  ASP761  ALA762  ILE779  LEU786  VAL792 
 PHE793  MET794  SER795  GLU796  ALA797  LYS798  CYS799  TRP800  GLU811  SER814 

> <Gold.Protein.RotatedAtoms>
  150.8451  134.7757  159.6963 H   0  0  0  0  0  0  0  0  0  0  0  0  # atno 6907 bound_to 6896
  152.4530  134.5350  159.9832 H   0  0  0  0  0  0  0  0  0  0  0  0  # atno 6908 bound_to 6896
  151.5482  133.3384  159.2984 H   0  0  0  0  0  0  0  0  0  0  0  0  # atno 6909 bound_to 6896
  144.7397  140.3423  143.6132 H   0  0  0  0  0  0  0  0  0  0  0  0  # atno 7974 bound_to 7965
  156.2890  140.2670  156.2267 H   0  0  0  0  0  0  0  0  0  0  0  0  # atno 8008 bound_to 7997
  155.0113  140.0387  157.2419 H   0  0  0  0  0  0  0  0  0  0  0  0  # atno 8009 bound_to 7997
  154.7515  140.2744  155.6293 H   0  0  0  0  0  0  0  0  0  0  0  0  # atno 8010 bound_to 7997
  139.7851  144.6874  150.9969 H   0  0  0  0  0  0  0  0  0  0  0  0  # atno 10167 bound_to 10162
  156.0020  130.4661  150.4234 H   0  0  0  0  0  0  0  0  0  0  0  0  # atno 10718 bound_to 10713
  154.3742  135.6088  153.5756 H   0  0  0  0  0  0  0  0  0  0  0  0  # atno 10763 bound_to 10752
  152.9789  135.5845  154.4486 H   0  0  0  0  0  0  0  0  0  0  0  0  # atno 10764 bound_to 10752
  154.4244  135.2846  155.1931 H   0  0  0  0  0  0  0  0  0  0  0  0  # atno 10765 bound_to 10752
  141.1002  133.6619  156.4251 H   0  0  0  0  0  0  0  0  0  0  0  0  # atno 11005 bound_to 11000
  145.7362  139.1750  143.2402 LP  0  0  0  0  0  0  0  0  0  0  0  0  # atno 17320 bound_to 7965
  146.1169  140.7358  142.9476 LP  0  0  0  0  0  0  0  0  0  0  0  0  # atno 17321 bound_to 7965
  140.7819  143.4441  151.0508 LP  0  0  0  0  0  0  0  0  0  0  0  0  # atno 17342 bound_to 10162
  139.8120  143.7937  152.3172 LP  0  0  0  0  0  0  0  0  0  0  0  0  # atno 17343 bound_to 10162
  157.2288  131.0499  151.2504 LP  0  0  0  0  0  0  0  0  0  0  0  0  # atno 17370 bound_to 10713
  157.3731  130.7191  149.6578 LP  0  0  0  0  0  0  0  0  0  0  0  0  # atno 17371 bound_to 10713
  140.5040  134.6459  157.5259 LP  0  0  0  0  0  0  0  0  0  0  0  0  # atno 17394 bound_to 11000
  139.9852  134.7074  155.9788 LP  0  0  0  0  0  0  0  0  0  0  0  0  # atno 17395 bound_to 11000

$$$$
