AV-unprocessed.smi:2772|AV-procd|sdf|10671|dock8
  -GOLD-   2272015123D 1   1.00000     0.00000
 Structure written by MMmdl.
 54 56  0  0  0  0  0  0  0  0  2 V2000
  155.5668  140.1770  160.7809 C   0  0  0  0  0  0  0  0  0  0  0  0
  154.3707  140.7469  160.0480 C   0  0  0  0  0  0  0  0  0  0  0  0
  153.8744  142.0294  160.3593 C   0  0  0  0  0  0  0  0  0  0  0  0
  152.7631  142.5135  159.6428 C   0  0  0  0  0  0  0  0  0  0  0  0
  152.1905  141.6991  158.6361 C   0  0  0  0  0  0  0  0  0  0  0  0
  151.0560  142.0651  157.8626 N   0  0  0  0  0  0  0  0  0  0  0  0
  150.2291  141.2674  157.1650 C   0  0  0  0  0  0  0  0  0  0  0  0
  150.2982  140.0397  157.1179 O   0  0  0  0  0  0  0  0  0  0  0  0
  149.2885  141.9828  156.5311 N   0  0  0  0  0  0  0  0  0  0  0  0
  148.2244  141.4391  155.6907 C   0  0  2  0  0  0  0  0  0  0  0  0
  147.9674  142.3792  154.4987 C   0  0  0  0  0  0  0  0  0  0  0  0
  146.7374  141.9262  153.6891 C   0  0  0  0  0  0  0  0  0  0  0  0
  145.5167  141.8386  154.5406 N   0  3  2  0  0  0  0  0  0  0  0  0
  144.9451  143.1556  154.9840 C   0  0  0  0  0  0  0  0  0  0  0  0
  143.5903  142.9867  155.7128 C   0  0  0  0  0  0  0  0  0  0  0  0
  142.9392  144.3370  156.0558 C   0  0  0  0  0  0  0  0  0  0  0  0
  142.7286  145.1163  154.8396 N   0  0  0  0  0  0  0  0  0  0  0  0
  142.0471  146.3585  155.1758 C   0  0  0  0  0  0  0  0  0  0  0  0
  144.0198  145.4242  154.2316 C   0  0  0  0  0  0  0  0  0  0  0  0
  144.7235  144.1269  153.7994 C   0  0  0  0  0  0  0  0  0  0  0  0
  145.7521  140.8478  155.6298 C   0  0  0  0  0  0  0  0  0  0  0  0
  146.9423  141.2488  156.5228 C   0  0  0  0  0  0  0  0  0  0  0  0
  152.7582  140.4256  158.4191 C   0  0  0  0  0  0  0  0  0  0  0  0
  153.8251  139.9552  159.0997 N   0  0  0  0  0  0  0  0  0  0  0  0
  155.9495  140.8810  161.5205 H   0  0  0  0  0  0  0  0  0  0  0  0
  156.3701  139.9526  160.0783 H   0  0  0  0  0  0  0  0  0  0  0  0
  155.2930  139.2567  161.2974 H   0  0  0  0  0  0  0  0  0  0  0  0
  154.3300  142.6314  161.1318 H   0  0  0  0  0  0  0  0  0  0  0  0
  152.3672  143.4865  159.8891 H   0  0  0  0  0  0  0  0  0  0  0  0
  150.8192  143.0464  157.8815 H   0  0  0  0  0  0  0  0  0  0  0  0
  149.3121  142.9865  156.6378 H   0  0  0  0  0  0  0  0  0  0  0  0
  148.5123  140.4653  155.2900 H   0  0  0  0  0  0  0  0  0  0  0  0
  147.8266  143.4030  154.8469 H   0  0  0  0  0  0  0  0  0  0  0  0
  148.8443  142.3985  153.8504 H   0  0  0  0  0  0  0  0  0  0  0  0
  146.5870  142.5606  152.8182 H   0  0  0  0  0  0  0  0  0  0  0  0
  146.9334  140.9358  153.2756 H   0  0  0  0  0  0  0  0  0  0  0  0
  145.6403  143.6300  155.6767 H   0  0  0  0  0  0  0  0  0  0  0  0
  142.9070  142.3975  155.0993 H   0  0  0  0  0  0  0  0  0  0  0  0
  143.7167  142.4472  156.6502 H   0  0  0  0  0  0  0  0  0  0  0  0
  141.9802  144.1621  156.5457 H   0  0  0  0  0  0  0  0  0  0  0  0
  143.5618  144.8918  156.7597 H   0  0  0  0  0  0  0  0  0  0  0  0
  141.8737  146.9546  154.2792 H   0  0  0  0  0  0  0  0  0  0  0  0
  142.6305  146.9572  155.8770 H   0  0  0  0  0  0  0  0  0  0  0  0
  141.0763  146.1522  155.6277 H   0  0  0  0  0  0  0  0  0  0  0  0
  143.8680  146.0616  153.3594 H   0  0  0  0  0  0  0  0  0  0  0  0
  144.6456  145.9817  154.9308 H   0  0  0  0  0  0  0  0  0  0  0  0
  145.6724  144.4150  153.3495 H   0  0  0  0  0  0  0  0  0  0  0  0
  144.1389  143.6376  153.0188 H   0  0  0  0  0  0  0  0  0  0  0  0
  144.8593  140.6720  156.2260 H   0  0  0  0  0  0  0  0  0  0  0  0
  145.9679  139.8830  155.1683 H   0  0  0  0  0  0  0  0  0  0  0  0
  147.1060  140.4804  157.2793 H   0  0  0  0  0  0  0  0  0  0  0  0
  146.7058  142.1629  157.0684 H   0  0  0  0  0  0  0  0  0  0  0  0
  152.3469  139.7625  157.6719 H   0  0  0  0  0  0  0  0  0  0  0  0
  144.8028  141.4329  153.9518 H   0  0  0  0  0  0  0  0  0  0  0  0
  1  2  1  0  0  0  0
  1 25  1  0  0  0  0
  1 26  1  0  0  0  0
  1 27  1  0  0  0  0
  2 24  1  0  0  0  0
  2  3  2  0  0  0  0
  3  4  1  0  0  0  0
  3 28  1  0  0  0  0
  4  5  2  0  0  0  0
  4 29  1  0  0  0  0
  5  6  1  0  0  0  0
  5 23  1  0  0  0  0
  6  7  1  0  0  0  0
  6 30  1  0  0  0  0
  7  8  2  0  0  0  0
  7  9  1  0  0  0  0
  9 10  1  0  0  0  0
  9 31  1  0  0  0  0
 10 22  1  0  0  0  0
 10 11  1  0  0  0  0
 10 32  1  0  0  0  0
 11 12  1  0  0  0  0
 11 33  1  0  0  0  0
 11 34  1  0  0  0  0
 12 13  1  0  0  0  0
 12 35  1  0  0  0  0
 12 36  1  0  0  0  0
 13 14  1  0  0  0  0
 13 21  1  0  0  0  0
 13 54  1  0  0  0  0
 14 20  1  0  0  0  0
 14 15  1  0  0  0  0
 14 37  1  0  0  0  0
 15 16  1  0  0  0  0
 15 38  1  0  0  0  0
 15 39  1  0  0  0  0
 16 17  1  0  0  0  0
 16 40  1  0  0  0  0
 16 41  1  0  0  0  0
 17 18  1  0  0  0  0
 17 19  1  0  0  0  0
 18 42  1  0  0  0  0
 18 43  1  0  0  0  0
 18 44  1  0  0  0  0
 19 20  1  0  0  0  0
 19 45  1  0  0  0  0
 19 46  1  0  0  0  0
 20 47  1  0  0  0  0
 20 48  1  0  0  0  0
 21 22  1  0  0  0  0
 21 49  1  0  0  0  0
 21 50  1  0  0  0  0
 22 51  1  0  0  0  0
 22 52  1  0  0  0  0
 23 24  2  0  0  0  0
 23 53  1  0  0  0  0
M  CHG  1  13   1
M  END
> <s_m_source_file>
AV-unprocessed.smi

> <i_m_source_file_index>
2772

> <i_lp_mmshare_version>
43012

> <i_f3d_flags>
0

> <s_epik_input>
W0NIM11jMVtjSF1bY0hdYyhbY0hdbjEpW05IXUMoPU8pW05IXVtDSF0yW0NIMl1bQ0gyXU4oW0NIMl1bQ0gyXTIpW0NIXTNbQ0gyXVtDSDJdTihbQ0gzXSlbQ0gyXVtDSDJdMw==

> <s_epik_cmdline>
J2VwaWtfcHl0aG9uJywgJy1waCcsICc3LjAnLCAnLXRuJywgJzgnLCAnLW1hJywgJzIwMCcsICctbWV0YWxfYmluZGluZycsICctaW1hZScsICc8aW5maWxlLm1hZT4nLCAnLW9tYWUnLCAnPG91dGZpbGUubWFlPic=

> <r_epik_Ionization_Penalty>
1.38854

> <r_epik_Ionization_Penalty_Charging>
0.00081195

> <r_epik_Ionization_Penalty_Neutral>
1.38772

> <r_epik_State_Penalty>
1.56122

> <r_epik_Charging_Adjusted_Penalty>
1.56203

> <i_epik_Tot_Q>
1

> <i_epik_Tot_abs_Q>
1

> <r_epik_Metal_State_Penalty>
1.5614

> <b_epik_Metal_Only>
0

> <s_lp_Force_Field>
OPLS_2005

> <r_lp_Energy>
35.2305

> <b_lp_Chiralities_Consistent>
1

> <s_lp_Variant>
AV-unprocessed.smi:2772-8

> <Gold.Version>
5.8.1

> <Gold.Id.Protein>
6NUR|6NUR_protein|mol2

> <Gold.PLP.Fitness>
48.8452

> <Gold.PLP.PLP>
-40.7690

> <Gold.PLP.part.hbond>
-2.3834

> <Gold.PLP.part.metal>
0.0000

> <Gold.PLP.part.buried>
-3.7013

> <Gold.PLP.part.nonpolar>
-35.7594

> <Gold.PLP.part.repulsive>
0.1519

> <Gold.PLP.ligand.clash>
0.0000

> <Gold.PLP.ligand.torsion>
0.4475

> <Gold.PLP.Chemscore.Hbond>
2.9760

> <Gold.PLP.Chemscore.CHOScore>
0.0000

> <Gold.PLP.Chemscore.Metal>
0.0000

> <Gold.Chemscore.Hbonds>
donor molecule, donor type, donor heavy atom, donor atom, acceptor molecule, acceptor atom, score
      L1  H     9    31       P1  8028  0.84
      L1  H    13    54       P1 10175  1.85

> <Gold.PLP.Chemscore.Internal.Correction>
0.0430

> <Gold.Rescore>
     Score         DG    S(hbond)    S(metal)    S(lipo)     H(rot)  DE(clash)    DE(int)     intcor
     18.30     -21.21       1.59        0.00     115.24       1.19       1.06       1.85       ----

> <Gold.Chemscore.Fitness>
18.3036

> <Gold.Chemscore.DG>
-21.2146

> <Gold.Chemscore.ZeroCoef>
-5.4800

> <Gold.Chemscore.Hbond>
1.5869

> <Gold.Chemscore.Metal>
0.0000

> <Gold.Chemscore.Lipo>
115.2418

> <Gold.Chemscore.Internal_Hbond>
0.0000

> <Gold.Chemscore.DEClash>
1.0593

> <Gold.Chemscore.DEInternal>
1.8518

> <Gold.Chemscore.Rot>
1.1910

> <Gold.Chemscore.Internal.Correction>
   9.000000E+99

> <Gold.Chemscore.Hbonds>
donor molecule, donor type, donor heavy atom, donor atom, acceptor molecule, acceptor atom, score
      L1  H     9    31       P1  8028  0.78
      L1  H    13    54       P1 10175  0.31

> <Gold.Chemscore.Hbond.Weighted>
-5.3003

> <Gold.Chemscore.Metal.Weighted>
-0.0000

> <Gold.Chemscore.Lipo.Weighted>
-13.4833

> <Gold.Chemscore.Internal_Hbond.Weighted>
0.0000

> <Gold.Chemscore.DEClash.Weighted>
1.0593

> <Gold.Chemscore.DEInternal.Weighted>
1.8518

> <Gold.Chemscore.Rot.Weighted>
3.0489

> <Gold.Chemscore.Internal.Correction.Weighted>
   9.000000E+99

> <Gold.Protein.RotatedTorsions>
[ 6907 6896 6895 6894 ] final   62.06 input  -60.11 | X-H torsion
[ 7974 7965 7964 7962 ] final  100.28 input  175.53 | X-H torsion
[ 8008 7997 7996 7995 ] final  151.31 input   59.86 | X-H torsion
[ 10167 10162 10161 10158 ] final -175.01 input  -65.29 | X-H torsion
[ 10718 10713 10712 10709 ] final  -87.05 input   66.30 | X-H torsion
[ 10763 10752 10751 10750 ] final  137.22 input  -60.55 | X-H torsion
[ 11005 11000 10999 10996 ] final   56.99 input  -57.11 | X-H torsion

> <Gold.Protein.ActiveResidues>
 VAL166  LYS551  ARG553  GLY616  TRP617  ASP618  TYR619  PRO620  LYS621  CYS622 
 ASP623  PHE694  ASN695  SER759  ASP760  ASP761  ALA762  ILE779  LEU786  VAL792 
 PHE793  MET794  SER795  GLU796  ALA797  LYS798  CYS799  TRP800  GLU811  SER814 

> <Gold.Protein.RotatedAtoms>
  152.4141  134.6073  160.0016 H   0  0  0  0  0  0  0  0  0  0  0  0  # atno 6907 bound_to 6896
  151.6242  133.3331  159.3102 H   0  0  0  0  0  0  0  0  0  0  0  0  # atno 6908 bound_to 6896
  150.8030  134.7176  159.6684 H   0  0  0  0  0  0  0  0  0  0  0  0  # atno 6909 bound_to 6896
  145.3877  139.2368  143.3369 H   0  0  0  0  0  0  0  0  0  0  0  0  # atno 7974 bound_to 7965
  156.2679  140.2051  156.6155 H   0  0  0  0  0  0  0  0  0  0  0  0  # atno 8008 bound_to 7997
  154.6798  140.0541  157.0277 H   0  0  0  0  0  0  0  0  0  0  0  0  # atno 8009 bound_to 7997
  155.1017  140.3206  155.4548 H   0  0  0  0  0  0  0  0  0  0  0  0  # atno 8010 bound_to 7997
  139.5603  144.1886  152.1228 H   0  0  0  0  0  0  0  0  0  0  0  0  # atno 10167 bound_to 10162
  155.9987  130.4786  150.4807 H   0  0  0  0  0  0  0  0  0  0  0  0  # atno 10718 bound_to 10713
  153.8694  135.3057  155.3441 H   0  0  0  0  0  0  0  0  0  0  0  0  # atno 10763 bound_to 10752
  154.7813  135.4834  153.9853 H   0  0  0  0  0  0  0  0  0  0  0  0  # atno 10764 bound_to 10752
  153.1415  135.6825  153.9115 H   0  0  0  0  0  0  0  0  0  0  0  0  # atno 10765 bound_to 10752
  140.0487  134.5769  155.9291 H   0  0  0  0  0  0  0  0  0  0  0  0  # atno 11005 bound_to 11000
  146.2812  140.4555  142.8775 LP  0  0  0  0  0  0  0  0  0  0  0  0  # atno 17320 bound_to 7965
  144.8462  140.6933  143.6197 LP  0  0  0  0  0  0  0  0  0  0  0  0  # atno 17321 bound_to 7965
  140.1398  144.5212  150.6751 LP  0  0  0  0  0  0  0  0  0  0  0  0  # atno 17342 bound_to 10162
  140.6882  143.2361  151.5203 LP  0  0  0  0  0  0  0  0  0  0  0  0  # atno 17343 bound_to 10162
  157.2813  131.0607  151.2196 LP  0  0  0  0  0  0  0  0  0  0  0  0  # atno 17370 bound_to 10713
  157.3241  130.6952  149.6286 LP  0  0  0  0  0  0  0  0  0  0  0  0  # atno 17371 bound_to 10713
  141.1919  133.6573  156.5479 LP  0  0  0  0  0  0  0  0  0  0  0  0  # atno 17394 bound_to 11000
  140.3953  134.7405  157.4746 LP  0  0  0  0  0  0  0  0  0  0  0  0  # atno 17395 bound_to 11000

$$$$
