AV-unprocessed.smi:2520|AV-procd|sdf|9909|dock2
  -GOLD-   2272013543D 1   1.00000     0.00000
 Structure written by MMmdl.
 41 44  0  0  0  0  0  0  0  0  1 V2000
  148.0564  138.4808  158.4865 O   0  0  0  0  0  0  0  0  0  0  0  0
  149.1856  138.0576  158.2459 C   0  0  0  0  0  0  0  0  0  0  0  0
  149.5532  136.8093  158.6062 N   0  0  0  0  0  0  0  0  0  0  0  0
  148.8378  135.7714  159.2731 C   0  0  0  0  0  0  0  0  0  0  0  0
  148.0118  136.2089  160.3306 C   0  0  0  0  0  0  0  0  0  0  0  0
  147.2676  135.2509  161.0401 C   0  0  0  0  0  0  0  0  0  0  0  0
  147.3981  133.9099  160.6409 C   0  0  0  0  0  0  0  0  0  0  0  0
  148.1978  133.5330  159.6204 N   0  0  0  0  0  0  0  0  0  0  0  0
  148.9023  134.4515  158.9514 N   0  0  0  0  0  0  0  0  0  0  0  0
  150.1194  138.7899  157.6210 N   0  0  0  0  0  0  0  0  0  0  0  0
  149.9497  140.1507  157.1135 C   0  0  2  0  0  0  0  0  0  0  0  0
  150.3970  140.2990  155.6410 C   0  0  2  0  0  0  0  0  0  0  0  0
  150.6847  139.1134  154.7510 C   0  0  0  0  0  0  0  0  0  0  0  0
  152.2070  138.9757  154.8481 C   0  0  0  0  0  0  0  0  0  0  0  0
  152.5615  139.6582  156.0490 O   0  0  0  0  0  0  0  0  0  0  0  0
  151.7315  140.8124  156.1586 C   0  0  2  0  0  0  0  0  0  0  0  0
  151.1091  141.0790  157.5451 C   0  0  0  0  0  0  0  0  0  0  0  0
  151.9514  140.7441  158.7769 C   0  0  0  0  0  0  0  0  0  0  0  0
  152.7488  142.0022  159.1260 C   0  0  0  0  0  0  0  0  0  0  0  0
  151.9492  143.1700  158.5407 C   0  0  0  0  0  0  0  0  0  0  0  0
  150.7505  142.5371  157.8268 C   0  0  0  0  0  0  0  0  0  0  0  0
  150.5103  136.5778  158.3838 H   0  0  0  0  0  0  0  0  0  0  0  0
  147.9484  137.2545  160.5952 H   0  0  0  0  0  0  0  0  0  0  0  0
  146.6217  135.5333  161.8583 H   0  0  0  0  0  0  0  0  0  0  0  0
  146.8528  133.1268  161.1465 H   0  0  0  0  0  0  0  0  0  0  0  0
  151.0234  138.3647  157.4690 H   0  0  0  0  0  0  0  0  0  0  0  0
  148.9658  140.5847  157.2985 H   0  0  0  0  0  0  0  0  0  0  0  0
  149.8378  141.0946  155.1461 H   0  0  0  0  0  0  0  0  0  0  0  0
  150.1832  138.2088  155.0947 H   0  0  0  0  0  0  0  0  0  0  0  0
  150.3714  139.2854  153.7210 H   0  0  0  0  0  0  0  0  0  0  0  0
  152.5354  137.9363  154.8679 H   0  0  0  0  0  0  0  0  0  0  0  0
  152.6897  139.4710  154.0044 H   0  0  0  0  0  0  0  0  0  0  0  0
  152.1155  141.6816  155.6226 H   0  0  0  0  0  0  0  0  0  0  0  0
  151.2992  140.4884  159.6132 H   0  0  0  0  0  0  0  0  0  0  0  0
  152.6095  139.8887  158.6216 H   0  0  0  0  0  0  0  0  0  0  0  0
  152.8959  142.0998  160.2021 H   0  0  0  0  0  0  0  0  0  0  0  0
  153.7346  141.9610  158.6609 H   0  0  0  0  0  0  0  0  0  0  0  0
  151.6263  143.8704  159.3117 H   0  0  0  0  0  0  0  0  0  0  0  0
  152.5656  143.7235  157.8313 H   0  0  0  0  0  0  0  0  0  0  0  0
  150.4909  143.0871  156.9216 H   0  0  0  0  0  0  0  0  0  0  0  0
  149.8787  142.5833  158.4812 H   0  0  0  0  0  0  0  0  0  0  0  0
  1  2  2  0  0  0  0
  2  3  1  0  0  0  0
  2 10  1  0  0  0  0
  3  4  1  0  0  0  0
  3 22  1  0  0  0  0
  4  9  1  0  0  0  0
  4  5  2  0  0  0  0
  5  6  1  0  0  0  0
  5 23  1  0  0  0  0
  6  7  2  0  0  0  0
  6 24  1  0  0  0  0
  7  8  1  0  0  0  0
  7 25  1  0  0  0  0
  8  9  2  0  0  0  0
 10 11  1  0  0  0  0
 10 26  1  0  0  0  0
 11 17  1  0  0  0  0
 11 12  1  0  0  0  0
 11 27  1  0  0  0  0
 12 16  1  0  0  0  0
 12 13  1  0  0  0  0
 12 28  1  0  0  0  0
 13 14  1  0  0  0  0
 13 29  1  0  0  0  0
 13 30  1  0  0  0  0
 14 15  1  0  0  0  0
 14 31  1  0  0  0  0
 14 32  1  0  0  0  0
 15 16  1  0  0  0  0
 16 17  1  0  0  0  0
 16 33  1  0  0  0  0
 17 21  1  0  0  0  0
 17 18  1  0  0  0  0
 18 19  1  0  0  0  0
 18 34  1  0  0  0  0
 18 35  1  0  0  0  0
 19 20  1  0  0  0  0
 19 36  1  0  0  0  0
 19 37  1  0  0  0  0
 20 21  1  0  0  0  0
 20 38  1  0  0  0  0
 20 39  1  0  0  0  0
 21 40  1  0  0  0  0
 21 41  1  0  0  0  0
M  END
> <s_m_source_file>
AV-unprocessed.smi

> <i_m_source_file_index>
2520

> <i_lp_mmshare_version>
43012

> <i_f3d_flags>
0

> <s_epik_input>
bjFuW2NIXVtjSF1bY0hdYzFbTkhdQyg9TylbTkhdW0NAQEhdMltDQEBIXShbQ0gyXVtDSDJdTzMpW0NASF0zQzI0W0NIMl1bQ0gyXVtDSDJdW0NIMl00

> <s_epik_cmdline>
J2VwaWtfcHl0aG9uJywgJy1waCcsICc3LjAnLCAnLXRuJywgJzgnLCAnLW1hJywgJzIwMCcsICctbWV0YWxfYmluZGluZycsICctaW1hZScsICc8aW5maWxlLm1hZT4nLCAnLW9tYWUnLCAnPG91dGZpbGUubWFlPic=

> <r_lp_tautomer_probability>
1

> <r_epik_Ionization_Penalty>
0.00552561

> <r_epik_Ionization_Penalty_Charging>
0

> <r_epik_Ionization_Penalty_Neutral>
0.00552561

> <r_epik_State_Penalty>
-0

> <r_epik_Charging_Adjusted_Penalty>
0

> <i_epik_Tot_Q>
0

> <i_epik_Tot_abs_Q>
0

> <r_epik_Metal_State_Penalty>
-0

> <b_epik_Metal_Only>
0

> <s_lp_Force_Field>
OPLS_2005

> <r_lp_Energy>
62.4196

> <b_lp_Chiralities_Consistent>
1

> <s_lp_Variant>
AV-unprocessed.smi:2520-3

> <Gold.Version>
5.8.1

> <Gold.Id.Protein>
6NUR|6NUR_protein|mol2

> <Gold.PLP.Fitness>
40.9961

> <Gold.PLP.PLP>
-35.6218

> <Gold.PLP.part.hbond>
-3.0000

> <Gold.PLP.part.metal>
0.0000

> <Gold.PLP.part.buried>
-5.9410

> <Gold.PLP.part.nonpolar>
-28.3209

> <Gold.PLP.part.repulsive>
0.2527

> <Gold.PLP.ligand.clash>
0.0000

> <Gold.PLP.ligand.torsion>
0.4140

> <Gold.PLP.Chemscore.Hbond>
2.0000

> <Gold.PLP.Chemscore.CHOScore>
0.0000

> <Gold.PLP.Chemscore.Metal>
0.0000

> <Gold.Chemscore.Hbonds>
donor molecule, donor type, donor heavy atom, donor atom, acceptor molecule, acceptor atom, score
      P1  H  6896  6907       L1     9  0.90
      P1  H  7997  8008       L1    15  1.00

> <Gold.PLP.Chemscore.Internal.Correction>
0.2022

> <Gold.Rescore>
     Score         DG    S(hbond)    S(metal)    S(lipo)     H(rot)  DE(clash)    DE(int)     intcor
     16.73     -19.00       1.45        0.00      96.11       1.00       0.62       1.65       ----

> <Gold.Chemscore.Fitness>
16.7284

> <Gold.Chemscore.DG>
-18.9997

> <Gold.Chemscore.ZeroCoef>
-5.4800

> <Gold.Chemscore.Hbond>
1.4477

> <Gold.Chemscore.Metal>
0.0000

> <Gold.Chemscore.Lipo>
96.1064

> <Gold.Chemscore.Internal_Hbond>
0.0000

> <Gold.Chemscore.DEClash>
0.6203

> <Gold.Chemscore.DEInternal>
1.6510

> <Gold.Chemscore.Rot>
1.0000

> <Gold.Chemscore.Internal.Correction>
   9.000000E+99

> <Gold.Chemscore.Hbonds>
donor molecule, donor type, donor heavy atom, donor atom, acceptor molecule, acceptor atom, score
      P1  H  6896  6907       L1     9  0.10
      P1  H  7997  8008       L1    15  0.69

> <Gold.Chemscore.Hbond.Weighted>
-4.8352

> <Gold.Chemscore.Metal.Weighted>
-0.0000

> <Gold.Chemscore.Lipo.Weighted>
-11.2444

> <Gold.Chemscore.Internal_Hbond.Weighted>
0.0000

> <Gold.Chemscore.DEClash.Weighted>
0.6203

> <Gold.Chemscore.DEInternal.Weighted>
1.6510

> <Gold.Chemscore.Rot.Weighted>
2.5600

> <Gold.Chemscore.Internal.Correction.Weighted>
   9.000000E+99

> <Gold.Protein.RotatedTorsions>
[ 6907 6896 6895 6894 ] final  -95.03 input  -60.11 | X-H torsion
[ 7974 7965 7964 7962 ] final -162.31 input  175.53 | X-H torsion
[ 8008 7997 7996 7995 ] final  -34.27 input   59.86 | X-H torsion
[ 10167 10162 10161 10158 ] final -172.88 input  -65.29 | X-H torsion
[ 10718 10713 10712 10709 ] final   41.29 input   66.30 | X-H torsion
[ 10763 10752 10751 10750 ] final -113.87 input  -60.55 | X-H torsion
[ 11005 11000 10999 10996 ] final   60.72 input  -57.11 | X-H torsion

> <Gold.Protein.ActiveResidues>
 VAL166  LYS551  ARG553  GLY616  TRP617  ASP618  TYR619  PRO620  LYS621  CYS622 
 ASP623  PHE694  ASN695  SER759  ASP760  ASP761  ALA762  ILE779  LEU786  VAL792 
 PHE793  MET794  SER795  GLU796  ALA797  LYS798  CYS799  TRP800  GLU811  SER814 

> <Gold.Protein.RotatedAtoms>
  150.6955  134.1720  159.4215 H   0  0  0  0  0  0  0  0  0  0  0  0  # atno 6907 bound_to 6896
  151.9697  135.0080  160.0561 H   0  0  0  0  0  0  0  0  0  0  0  0  # atno 6908 bound_to 6896
  152.1852  133.4700  159.5016 H   0  0  0  0  0  0  0  0  0  0  0  0  # atno 6909 bound_to 6896
  144.7361  140.3271  143.6160 H   0  0  0  0  0  0  0  0  0  0  0  0  # atno 7974 bound_to 7965
  154.4125  140.1688  156.2022 H   0  0  0  0  0  0  0  0  0  0  0  0  # atno 8008 bound_to 7997
  155.9514  140.3400  155.6388 H   0  0  0  0  0  0  0  0  0  0  0  0  # atno 8009 bound_to 7997
  155.6865  140.0728  157.2455 H   0  0  0  0  0  0  0  0  0  0  0  0  # atno 8010 bound_to 7997
  139.5720  144.1620  152.1397 H   0  0  0  0  0  0  0  0  0  0  0  0  # atno 10167 bound_to 10162
  157.3918  130.7811  149.7276 H   0  0  0  0  0  0  0  0  0  0  0  0  # atno 10718 bound_to 10713
  154.8415  135.4438  154.1417 H   0  0  0  0  0  0  0  0  0  0  0  0  # atno 10763 bound_to 10752
  153.2600  135.6935  153.7594 H   0  0  0  0  0  0  0  0  0  0  0  0  # atno 10764 bound_to 10752
  153.6874  135.3393  155.3169 H   0  0  0  0  0  0  0  0  0  0  0  0  # atno 10765 bound_to 10752
  140.0211  134.6151  155.9638 H   0  0  0  0  0  0  0  0  0  0  0  0  # atno 11005 bound_to 11000
  145.7510  139.1793  143.2322 LP  0  0  0  0  0  0  0  0  0  0  0  0  # atno 17320 bound_to 7965
  146.1061  140.7485  142.9526 LP  0  0  0  0  0  0  0  0  0  0  0  0  # atno 17321 bound_to 7965
  140.1155  144.5419  150.6897 LP  0  0  0  0  0  0  0  0  0  0  0  0  # atno 17342 bound_to 10162
  140.7004  143.2431  151.4881 LP  0  0  0  0  0  0  0  0  0  0  0  0  # atno 17343 bound_to 10162
  155.9800  130.4034  150.3552 LP  0  0  0  0  0  0  0  0  0  0  0  0  # atno 17370 bound_to 10713
  157.1669  131.0359  151.2814 LP  0  0  0  0  0  0  0  0  0  0  0  0  # atno 17371 bound_to 10713
  141.1774  133.6542  156.4884 LP  0  0  0  0  0  0  0  0  0  0  0  0  # atno 17394 bound_to 11000
  140.4385  134.7037  157.4979 LP  0  0  0  0  0  0  0  0  0  0  0  0  # atno 17395 bound_to 11000

$$$$
