AV-unprocessed.smi:1215|AV-procd|sdf|5097|dock1
  -GOLD-   22720 4153D 1   1.00000     0.00000
 Structure written by MMmdl.
 46 47  0  0  0  0  0  0  0  0  2 V2000
  149.6119  141.7288  156.5008 C   0  0  0  0  0  0  0  0  0  0  0  0
  151.0486  141.2039  156.6066 C   0  0  0  0  0  0  0  0  0  0  0  0
  151.2009  139.9192  155.9522 N   0  0  0  0  0  0  0  0  0  0  0  0
  150.2135  139.0850  155.4667 C   0  0  0  0  0  0  0  0  0  0  0  0
  150.8616  138.0055  154.9462 C   0  0  0  0  0  0  0  0  0  0  0  0
  150.2255  136.8935  154.3391 N   0  0  0  0  0  0  0  0  0  0  0  0
  150.2274  135.6232  154.7735 C   0  0  0  0  0  0  0  0  0  0  0  0
  150.8023  135.2212  155.7850 O   0  0  0  0  0  0  0  0  0  0  0  0
  149.5246  134.8227  153.9589 N   0  0  0  0  0  0  0  0  0  0  0  0
  149.3424  133.3891  154.1600 C   0  0  0  0  0  0  0  0  0  0  0  0
  147.9850  132.9093  153.6040 C   0  0  0  0  0  0  0  0  0  0  0  0
  148.0326  131.5239  153.0530 N   0  3  1  0  0  0  0  0  0  0  0  0
  148.6743  130.5744  154.0089 C   0  0  0  0  0  0  0  0  0  0  0  0
  148.8450  129.1729  153.4070 C   0  0  0  0  0  0  0  0  0  0  0  0
  147.4945  128.6151  152.9601 C   0  0  0  0  0  0  0  0  0  0  0  0
  146.8491  129.5914  151.9748 C   0  0  0  0  0  0  0  0  0  0  0  0
  146.7072  131.0110  152.5690 C   0  0  2  0  0  0  0  0  0  0  0  0
  146.0510  131.9178  151.5059 C   0  0  0  0  0  0  0  0  0  0  0  0
  152.2492  138.2488  155.1531 C   0  0  0  0  0  0  0  0  0  0  0  0
  152.4427  139.4093  155.7611 N   0  0  0  0  0  0  0  0  0  0  0  0
  149.5173  142.7003  156.9857 H   0  0  0  0  0  0  0  0  0  0  0  0
  148.9067  141.0488  156.9793 H   0  0  0  0  0  0  0  0  0  0  0  0
  149.3115  141.8459  155.4593 H   0  0  0  0  0  0  0  0  0  0  0  0
  151.7421  141.9116  156.1512 H   0  0  0  0  0  0  0  0  0  0  0  0
  151.3400  141.1027  157.6531 H   0  0  0  0  0  0  0  0  0  0  0  0
  149.1632  139.3281  155.5335 H   0  0  0  0  0  0  0  0  0  0  0  0
  149.7210  137.0859  153.4861 H   0  0  0  0  0  0  0  0  0  0  0  0
  149.0821  135.2334  153.1494 H   0  0  0  0  0  0  0  0  0  0  0  0
  150.1632  132.8411  153.6936 H   0  0  0  0  0  0  0  0  0  0  0  0
  149.4175  133.2120  155.2317 H   0  0  0  0  0  0  0  0  0  0  0  0
  147.2111  132.9735  154.3704 H   0  0  0  0  0  0  0  0  0  0  0  0
  147.7019  133.6157  152.8286 H   0  0  0  0  0  0  0  0  0  0  0  0
  149.6601  130.9290  154.3034 H   0  0  0  0  0  0  0  0  0  0  0  0
  148.0768  130.5176  154.9202 H   0  0  0  0  0  0  0  0  0  0  0  0
  149.5288  129.2152  152.5580 H   0  0  0  0  0  0  0  0  0  0  0  0
  149.2994  128.5048  154.1393 H   0  0  0  0  0  0  0  0  0  0  0  0
  147.6231  127.6372  152.4948 H   0  0  0  0  0  0  0  0  0  0  0  0
  146.8439  128.4712  153.8236 H   0  0  0  0  0  0  0  0  0  0  0  0
  147.4463  129.6318  151.0624 H   0  0  0  0  0  0  0  0  0  0  0  0
  145.8705  129.2081  151.6826 H   0  0  0  0  0  0  0  0  0  0  0  0
  146.0356  130.9552  153.4274 H   0  0  0  0  0  0  0  0  0  0  0  0
  145.1924  131.4238  151.0499 H   0  0  0  0  0  0  0  0  0  0  0  0
  146.7492  132.1643  150.7051 H   0  0  0  0  0  0  0  0  0  0  0  0
  145.6683  132.8471  151.9259 H   0  0  0  0  0  0  0  0  0  0  0  0
  153.1070  137.6462  154.8947 H   0  0  0  0  0  0  0  0  0  0  0  0
  148.6279  131.5640  152.2379 H   0  0  0  0  0  0  0  0  0  0  0  0
  1  2  1  0  0  0  0
  1 21  1  0  0  0  0
  1 22  1  0  0  0  0
  1 23  1  0  0  0  0
  2  3  1  0  0  0  0
  2 24  1  0  0  0  0
  2 25  1  0  0  0  0
  3 20  1  0  0  0  0
  3  4  1  0  0  0  0
  4  5  2  0  0  0  0
  4 26  1  0  0  0  0
  5  6  1  0  0  0  0
  5 19  1  0  0  0  0
  6  7  1  0  0  0  0
  6 27  1  0  0  0  0
  7  8  2  0  0  0  0
  7  9  1  0  0  0  0
  9 10  1  0  0  0  0
  9 28  1  0  0  0  0
 10 11  1  0  0  0  0
 10 29  1  0  0  0  0
 10 30  1  0  0  0  0
 11 12  1  0  0  0  0
 11 31  1  0  0  0  0
 11 32  1  0  0  0  0
 12 17  1  0  0  0  0
 12 13  1  0  0  0  0
 12 46  1  0  0  0  0
 13 14  1  0  0  0  0
 13 33  1  0  0  0  0
 13 34  1  0  0  0  0
 14 15  1  0  0  0  0
 14 35  1  0  0  0  0
 14 36  1  0  0  0  0
 15 16  1  0  0  0  0
 15 37  1  0  0  0  0
 15 38  1  0  0  0  0
 16 17  1  0  0  0  0
 16 39  1  0  0  0  0
 16 40  1  0  0  0  0
 17 18  1  0  0  0  0
 17 41  1  0  0  0  0
 18 42  1  0  0  0  0
 18 43  1  0  0  0  0
 18 44  1  0  0  0  0
 19 20  2  0  0  0  0
 19 45  1  0  0  0  0
M  CHG  1  12   1
M  END
> <s_m_source_file>
AV-unprocessed.smi

> <i_m_source_file_index>
1215

> <i_lp_mmshare_version>
43012

> <i_f3d_flags>
0

> <s_epik_input>
W0NIM11bQ0gyXW4xW2NIXWMoW2NIXW4xKVtOSF1DKD1PKVtOSF1bQ0gyXVtDSDJdTjJbQ0gyXVtDSDJdW0NIMl1bQ0gyXVtDQEhdMltDSDNd

> <s_epik_cmdline>
J2VwaWtfcHl0aG9uJywgJy1waCcsICc3LjAnLCAnLXRuJywgJzgnLCAnLW1hJywgJzIwMCcsICctbWV0YWxfYmluZGluZycsICctaW1hZScsICc8aW5maWxlLm1hZT4nLCAnLW9tYWUnLCAnPG91dGZpbGUubWFlPic=

> <r_lp_tautomer_probability>
1

> <r_epik_Ionization_Penalty>
0.00247187

> <r_epik_Ionization_Penalty_Charging>
0.00232067

> <r_epik_Ionization_Penalty_Neutral>
0.000151201

> <r_epik_State_Penalty>
0.00160128

> <r_epik_Charging_Adjusted_Penalty>
0.00392194

> <i_epik_Tot_Q>
1

> <i_epik_Tot_abs_Q>
1

> <r_epik_Metal_State_Penalty>
-0

> <b_epik_Metal_Only>
0

> <s_lp_Force_Field>
OPLS_2005

> <r_lp_Energy>
23.8268

> <b_lp_Chiralities_Consistent>
1

> <s_lp_Variant>
AV-unprocessed.smi:1215-4

> <Gold.Version>
5.8.1

> <Gold.Id.Protein>
6NUR|6NUR_protein|mol2

> <Gold.PLP.Fitness>
47.9724

> <Gold.PLP.PLP>
-36.0153

> <Gold.PLP.part.hbond>
-6.8057

> <Gold.PLP.part.metal>
0.0000

> <Gold.PLP.part.buried>
0.5825

> <Gold.PLP.part.nonpolar>
-30.1582

> <Gold.PLP.part.repulsive>
0.1768

> <Gold.PLP.ligand.clash>
0.0000

> <Gold.PLP.ligand.torsion>
1.1519

> <Gold.PLP.Chemscore.Hbond>
4.7185

> <Gold.PLP.Chemscore.CHOScore>
0.0000

> <Gold.PLP.Chemscore.Metal>
0.0000

> <Gold.Chemscore.Hbonds>
donor molecule, donor type, donor heavy atom, donor atom, acceptor molecule, acceptor atom, score
      L1  H     6    27       P1  7948  0.86
      L1  H     9    28       P1  7948  0.95
      L1  H    12    46       P1 10747  0.78
      P1  H  7997  8009       L1    20  0.61
      P1  H 10752 10763       L1     8  0.04

> <Gold.PLP.Chemscore.Internal.Correction>
0.1054

> <Gold.Rescore>
     Score         DG    S(hbond)    S(metal)    S(lipo)     H(rot)  DE(clash)    DE(int)     intcor
     20.19     -22.96       3.47        0.00      85.27       1.59       1.52       1.25       ----

> <Gold.Chemscore.Fitness>
20.1893

> <Gold.Chemscore.DG>
-22.9607

> <Gold.Chemscore.ZeroCoef>
-5.4800

> <Gold.Chemscore.Hbond>
3.4660

> <Gold.Chemscore.Metal>
0.0000

> <Gold.Chemscore.Lipo>
85.2747

> <Gold.Chemscore.Internal_Hbond>
0.0000

> <Gold.Chemscore.DEClash>
1.5208

> <Gold.Chemscore.DEInternal>
1.2506

> <Gold.Chemscore.Rot>
1.5909

> <Gold.Chemscore.Internal.Correction>
   9.000000E+99

> <Gold.Chemscore.Hbonds>
donor molecule, donor type, donor heavy atom, donor atom, acceptor molecule, acceptor atom, score
      L1  H     6    27       P1  7948  0.55
      L1  H     9    28       P1  7948  0.21
      L1  H    12    46       P1 10747  0.72
      P1  H  7997  8009       L1    20  0.57
      P1  H 10752 10763       L1     8  0.01

> <Gold.Chemscore.Hbond.Weighted>
-11.5763

> <Gold.Chemscore.Metal.Weighted>
-0.0000

> <Gold.Chemscore.Lipo.Weighted>
-9.9771

> <Gold.Chemscore.Internal_Hbond.Weighted>
0.0000

> <Gold.Chemscore.DEClash.Weighted>
1.5208

> <Gold.Chemscore.DEInternal.Weighted>
1.2506

> <Gold.Chemscore.Rot.Weighted>
4.0728

> <Gold.Chemscore.Internal.Correction.Weighted>
   9.000000E+99

> <Gold.Protein.RotatedTorsions>
[ 6907 6896 6895 6894 ] final -128.74 input  -60.11 | X-H torsion
[ 7974 7965 7964 7962 ] final -170.60 input  175.53 | X-H torsion
[ 8008 7997 7996 7995 ] final -132.11 input   59.86 | X-H torsion
[ 10167 10162 10161 10158 ] final    1.45 input  -65.29 | X-H torsion
[ 10718 10713 10712 10709 ] final  126.04 input   66.30 | X-H torsion
[ 10763 10752 10751 10750 ] final   77.36 input  -60.55 | X-H torsion
[ 11005 11000 10999 10996 ] final   69.64 input  -57.11 | X-H torsion

> <Gold.Protein.ActiveResidues>
 VAL166  LYS551  ARG553  GLY616  TRP617  ASP618  TYR619  PRO620  LYS621  CYS622 
 ASP623  PHE694  ASN695  SER759  ASP760  ASP761  ALA762  ILE779  LEU786  VAL792 
 PHE793  MET794  SER795  GLU796  ALA797  LYS798  CYS799  TRP800  GLU811  SER814 

> <Gold.Protein.RotatedAtoms>
  150.9212  133.6879  159.2831 H   0  0  0  0  0  0  0  0  0  0  0  0  # atno 6907 bound_to 6896
  151.4333  135.1011  159.9658 H   0  0  0  0  0  0  0  0  0  0  0  0  # atno 6908 bound_to 6896
  152.4980  133.8637  159.7318 H   0  0  0  0  0  0  0  0  0  0  0  0  # atno 6909 bound_to 6896
  144.7168  140.2047  143.6334 H   0  0  0  0  0  0  0  0  0  0  0  0  # atno 7974 bound_to 7965
  155.3235  140.0463  157.3040 H   0  0  0  0  0  0  0  0  0  0  0  0  # atno 8008 bound_to 7997
  154.5367  140.2274  155.8676 H   0  0  0  0  0  0  0  0  0  0  0  0  # atno 8009 bound_to 7997
  156.1842  140.3066  155.9212 H   0  0  0  0  0  0  0  0  0  0  0  0  # atno 8010 bound_to 7997
  140.6682  143.7121  150.7869 H   0  0  0  0  0  0  0  0  0  0  0  0  # atno 10167 bound_to 10162
  157.5452  131.1096  150.8793 H   0  0  0  0  0  0  0  0  0  0  0  0  # atno 10718 bound_to 10713
  153.0793  135.4917  154.8470 H   0  0  0  0  0  0  0  0  0  0  0  0  # atno 10763 bound_to 10752
  154.7129  135.3023  154.9170 H   0  0  0  0  0  0  0  0  0  0  0  0  # atno 10764 bound_to 10752
  153.9858  135.6784  153.4805 H   0  0  0  0  0  0  0  0  0  0  0  0  # atno 10765 bound_to 10752
  139.9642  134.7009  156.0581 H   0  0  0  0  0  0  0  0  0  0  0  0  # atno 11005 bound_to 11000
  145.8647  139.2241  143.1696 LP  0  0  0  0  0  0  0  0  0  0  0  0  # atno 17320 bound_to 7965
  146.0141  140.8409  142.9956 LP  0  0  0  0  0  0  0  0  0  0  0  0  # atno 17321 bound_to 7965
  140.0802  143.4976  152.2534 LP  0  0  0  0  0  0  0  0  0  0  0  0  # atno 17342 bound_to 10162
  139.5939  144.7560  151.3333 LP  0  0  0  0  0  0  0  0  0  0  0  0  # atno 17343 bound_to 10162
  156.9334  130.5358  149.5279 LP  0  0  0  0  0  0  0  0  0  0  0  0  # atno 17370 bound_to 10713
  156.0530  130.5596  150.9030 LP  0  0  0  0  0  0  0  0  0  0  0  0  # atno 17371 bound_to 10713
  141.1321  133.6584  156.3492 LP  0  0  0  0  0  0  0  0  0  0  0  0  # atno 17394 bound_to 11000
  140.5433  134.6099  157.5386 LP  0  0  0  0  0  0  0  0  0  0  0  0  # atno 17395 bound_to 11000

$$$$
