AV-unprocessed.smi:2801|AV-procd|sdf|10802|dock6
  -GOLD-   2272015233D 1   1.00000     0.00000
 Structure written by MMmdl.
 31 31  0  0  0  0  0  0  0  0  2 V2000
  152.6807  138.8616  154.6579 C   0  0  0  0  0  0  0  0  0  0  0  0
  151.1627  138.8636  154.8499 C   0  0  0  0  0  0  0  0  0  0  0  0
  150.8616  139.5079  156.0820 O   0  0  0  0  0  0  0  0  0  0  0  0
  150.8927  140.9334  156.0501 C   0  0  1  0  0  0  0  0  0  0  0  0
  149.5067  141.4264  155.5926 C   0  0  0  0  0  0  0  0  0  0  0  0
  149.1654  140.9953  154.1607 C   0  0  0  0  0  0  0  0  0  0  0  0
  151.2491  141.4863  157.4403 C   0  0  0  0  0  0  0  0  0  0  0  0
  150.5201  142.3298  157.9622 O   0  0  0  0  0  0  0  0  0  0  0  0
  152.3521  140.9626  158.0058 N   0  0  0  0  0  0  0  0  0  0  0  0
  152.9547  141.2463  159.2643 C   0  0  0  0  0  0  0  0  0  0  0  0
  152.5049  142.2581  160.1472 C   0  0  0  0  0  0  0  0  0  0  0  0
  153.1970  142.4562  161.3581 C   0  0  0  0  0  0  0  0  0  0  0  0
  154.2773  141.7375  161.7266 N   0  0  0  0  0  0  0  0  0  0  0  0
  154.7123  140.7815  160.8794 C   0  0  0  0  0  0  0  0  0  0  0  0
  154.0949  140.4981  159.6434 C   0  0  0  0  0  0  0  0  0  0  0  0
  154.6046  139.5135  158.8420 O   0  5  0  0  0  0  0  0  0  0  0  0
  152.9540  138.3762  153.7209 H   0  0  0  0  0  0  0  0  0  0  0  0
  153.1771  138.3287  155.4690 H   0  0  0  0  0  0  0  0  0  0  0  0
  153.0729  139.8785  154.6350 H   0  0  0  0  0  0  0  0  0  0  0  0
  150.6903  139.3753  154.0107 H   0  0  0  0  0  0  0  0  0  0  0  0
  150.7905  137.8382  154.8628 H   0  0  0  0  0  0  0  0  0  0  0  0
  151.6365  141.2665  155.3231 H   0  0  0  0  0  0  0  0  0  0  0  0
  148.7362  141.0593  156.2723 H   0  0  0  0  0  0  0  0  0  0  0  0
  149.4679  142.5155  155.6453 H   0  0  0  0  0  0  0  0  0  0  0  0
  148.1854  141.3703  153.8658 H   0  0  0  0  0  0  0  0  0  0  0  0
  149.1463  139.9090  154.0684 H   0  0  0  0  0  0  0  0  0  0  0  0
  149.8966  141.3797  153.4490 H   0  0  0  0  0  0  0  0  0  0  0  0
  152.8038  140.2231  157.4870 H   0  0  0  0  0  0  0  0  0  0  0  0
  151.6613  142.8905  159.9230 H   0  0  0  0  0  0  0  0  0  0  0  0
  152.8756  143.2213  162.0491 H   0  0  0  0  0  0  0  0  0  0  0  0
  155.5828  140.2271  161.1985 H   0  0  0  0  0  0  0  0  0  0  0  0
  1  2  1  0  0  0  0
  1 17  1  0  0  0  0
  1 18  1  0  0  0  0
  1 19  1  0  0  0  0
  2  3  1  0  0  0  0
  2 20  1  0  0  0  0
  2 21  1  0  0  0  0
  3  4  1  0  0  0  0
  4  5  1  0  0  0  0
  4  7  1  0  0  0  0
  4 22  1  0  0  0  0
  5  6  1  0  0  0  0
  5 23  1  0  0  0  0
  5 24  1  0  0  0  0
  6 25  1  0  0  0  0
  6 26  1  0  0  0  0
  6 27  1  0  0  0  0
  7  8  2  0  0  0  0
  7  9  1  0  0  0  0
  9 28  1  0  0  0  0
  9 10  1  0  0  0  0
 10 11  2  0  0  0  0
 10 15  1  0  0  0  0
 11 12  1  0  0  0  0
 11 29  1  0  0  0  0
 12 13  2  0  0  0  0
 12 30  1  0  0  0  0
 13 14  1  0  0  0  0
 14 15  2  0  0  0  0
 14 31  1  0  0  0  0
 15 16  1  0  0  0  0
M  CHG  1  16  -1
M  END
> <s_m_source_file>
AV-unprocessed.smi

> <i_m_source_file_index>
2801

> <i_lp_mmshare_version>
43012

> <i_f3d_flags>
0

> <s_epik_input>
W0NIM11bQ0gyXU9bQ0BIXShbQ0gyXVtDSDNdKUMoPU8pW05IXWMxW2NIXVtjSF1uW2NIXWMxW09IXQ==

> <s_epik_cmdline>
J2VwaWtfcHl0aG9uJywgJy1waCcsICc3LjAnLCAnLXRuJywgJzgnLCAnLW1hJywgJzIwMCcsICctbWV0YWxfYmluZGluZycsICctaW1hZScsICc8aW5maWxlLm1hZT4nLCAnLW9tYWUnLCAnPG91dGZpbGUubWFlPic=

> <r_lp_tautomer_probability>
0.56342

> <r_epik_Ionization_Penalty>
4.38321

> <r_epik_Ionization_Penalty_Charging>
2.0641

> <r_epik_Ionization_Penalty_Neutral>
2.31912

> <r_epik_State_Penalty>
2.63873

> <r_epik_Charging_Adjusted_Penalty>
4.70283

> <i_epik_Tot_Q>
-1

> <i_epik_Tot_abs_Q>
1

> <r_epik_Metal_State_Penalty>
0.606608

> <b_epik_Metal_Only>
1

> <s_lp_Force_Field>
OPLS_2005

> <r_lp_Energy>
9.76409

> <b_lp_Chiralities_Consistent>
1

> <s_lp_Variant>
AV-unprocessed.smi:2801-6

> <Gold.Version>
5.8.1

> <Gold.Id.Protein>
6NUR|6NUR_protein|mol2

> <Gold.PLP.Fitness>
39.4817

> <Gold.PLP.PLP>
-34.5505

> <Gold.PLP.part.hbond>
-2.0000

> <Gold.PLP.part.metal>
0.0000

> <Gold.PLP.part.buried>
-1.4456

> <Gold.PLP.part.nonpolar>
-30.4418

> <Gold.PLP.part.repulsive>
0.1828

> <Gold.PLP.ligand.clash>
0.0000

> <Gold.PLP.ligand.torsion>
0.5518

> <Gold.PLP.Chemscore.Hbond>
2.0000

> <Gold.PLP.Chemscore.CHOScore>
0.0000

> <Gold.PLP.Chemscore.Metal>
0.0000

> <Gold.Chemscore.Hbonds>
donor molecule, donor type, donor heavy atom, donor atom, acceptor molecule, acceptor atom, score
      P1  H  7997  8009       L1    16  2.00

> <Gold.PLP.Chemscore.Internal.Correction>
0.0348

> <Gold.Rescore>
     Score         DG    S(hbond)    S(metal)    S(lipo)     H(rot)  DE(clash)    DE(int)     intcor
     12.97     -14.99       1.00        0.00      86.65       1.55       0.16       1.85       ----

> <Gold.Chemscore.Fitness>
12.9735

> <Gold.Chemscore.DG>
-14.9860

> <Gold.Chemscore.ZeroCoef>
-5.4800

> <Gold.Chemscore.Hbond>
0.9958

> <Gold.Chemscore.Metal>
0.0000

> <Gold.Chemscore.Lipo>
86.6532

> <Gold.Chemscore.Internal_Hbond>
0.0000

> <Gold.Chemscore.DEClash>
0.1635

> <Gold.Chemscore.DEInternal>
1.8490

> <Gold.Chemscore.Rot>
1.5462

> <Gold.Chemscore.Internal.Correction>
   9.000000E+99

> <Gold.Chemscore.Hbonds>
donor molecule, donor type, donor heavy atom, donor atom, acceptor molecule, acceptor atom, score
      P1  H  7997  8009       L1    16  0.88

> <Gold.Chemscore.Hbond.Weighted>
-3.3259

> <Gold.Chemscore.Metal.Weighted>
-0.0000

> <Gold.Chemscore.Lipo.Weighted>
-10.1384

> <Gold.Chemscore.Internal_Hbond.Weighted>
0.0000

> <Gold.Chemscore.DEClash.Weighted>
0.1635

> <Gold.Chemscore.DEInternal.Weighted>
1.8490

> <Gold.Chemscore.Rot.Weighted>
3.9583

> <Gold.Chemscore.Internal.Correction.Weighted>
   9.000000E+99

> <Gold.Protein.RotatedTorsions>
[ 6907 6896 6895 6894 ] final  -51.98 input  -60.11 | X-H torsion
[ 7974 7965 7964 7962 ] final  -18.34 input  175.53 | X-H torsion
[ 8008 7997 7996 7995 ] final  131.94 input   59.86 | X-H torsion
[ 10167 10162 10161 10158 ] final  139.60 input  -65.29 | X-H torsion
[ 10718 10713 10712 10709 ] final   89.70 input   66.30 | X-H torsion
[ 10763 10752 10751 10750 ] final  153.49 input  -60.55 | X-H torsion
[ 11005 11000 10999 10996 ] final  -76.44 input  -57.11 | X-H torsion

> <Gold.Protein.ActiveResidues>
 VAL166  LYS551  ARG553  GLY616  TRP617  ASP618  TYR619  PRO620  LYS621  CYS622 
 ASP623  PHE694  ASN695  SER759  ASP760  ASP761  ALA762  ILE779  LEU786  VAL792 
 PHE793  MET794  SER795  GLU796  ALA797  LYS798  CYS799  TRP800  GLU811  SER814 

> <Gold.Protein.RotatedAtoms>
  150.8560  134.7899  159.7045 H   0  0  0  0  0  0  0  0  0  0  0  0  # atno 6907 bound_to 6896
  152.4611  134.5178  159.9783 H   0  0  0  0  0  0  0  0  0  0  0  0  # atno 6908 bound_to 6896
  151.5290  133.3414  159.2950 H   0  0  0  0  0  0  0  0  0  0  0  0  # atno 6909 bound_to 6896
  146.1897  140.3907  142.8463 H   0  0  0  0  0  0  0  0  0  0  0  0  # atno 7974 bound_to 7965
  156.2976  140.2559  156.3008 H   0  0  0  0  0  0  0  0  0  0  0  0  # atno 8008 bound_to 7997
  154.9420  140.0396  157.2120 H   0  0  0  0  0  0  0  0  0  0  0  0  # atno 8009 bound_to 7997
  154.8118  140.2845  155.5852 H   0  0  0  0  0  0  0  0  0  0  0  0  # atno 8010 bound_to 7997
  139.5074  144.6285  151.5877 H   0  0  0  0  0  0  0  0  0  0  0  0  # atno 10167 bound_to 10162
  157.6956  131.0343  150.3465 H   0  0  0  0  0  0  0  0  0  0  0  0  # atno 10718 bound_to 10713
  154.1370  135.2823  155.3170 H   0  0  0  0  0  0  0  0  0  0  0  0  # atno 10763 bound_to 10752
  154.6314  135.5434  153.7688 H   0  0  0  0  0  0  0  0  0  0  0  0  # atno 10764 bound_to 10752
  153.0263  135.6463  154.1518 H   0  0  0  0  0  0  0  0  0  0  0  0  # atno 10765 bound_to 10752
  141.1654  133.6984  156.7669 H   0  0  0  0  0  0  0  0  0  0  0  0  # atno 11005 bound_to 11000
  144.8463  140.6934  143.6197 LP  0  0  0  0  0  0  0  0  0  0  0  0  # atno 17320 bound_to 7965
  145.3831  139.1632  143.4270 LP  0  0  0  0  0  0  0  0  0  0  0  0  # atno 17321 bound_to 7965
  140.6010  143.9610  150.6386 LP  0  0  0  0  0  0  0  0  0  0  0  0  # atno 17342 bound_to 10162
  140.2822  143.3382  152.1141 LP  0  0  0  0  0  0  0  0  0  0  0  0  # atno 17343 bound_to 10162
  156.3919  130.3899  149.7023 LP  0  0  0  0  0  0  0  0  0  0  0  0  # atno 17370 bound_to 10713
  156.4371  130.7843  151.2864 LP  0  0  0  0  0  0  0  0  0  0  0  0  # atno 17371 bound_to 10713
  140.2492  134.8553  157.3651 LP  0  0  0  0  0  0  0  0  0  0  0  0  # atno 17394 bound_to 11000
  140.1719  134.4598  155.7826 LP  0  0  0  0  0  0  0  0  0  0  0  0  # atno 17395 bound_to 11000

$$$$
