AV-unprocessed.smi:2204|AV-procd|sdf|8937|dock10
  -GOLD-   2272012153D 1   1.00000     0.00000
 Structure written by MMmdl.
 39 40  0  0  0  0  0  0  0  0  1 V2000
  154.0526  141.1940  160.6778 C   0  0  0  0  0  0  0  0  0  0  0  0
  153.1149  142.2149  160.1045 C   0  0  0  0  0  0  0  0  0  0  0  0
  152.6070  143.3908  160.7239 C   0  0  0  0  0  0  0  0  0  0  0  0
  151.7989  143.9504  159.7746 C   0  0  0  0  0  0  0  0  0  0  0  0
  150.9773  145.1967  159.8231 C   0  0  0  0  0  0  0  0  0  0  0  0
  151.8538  143.1257  158.6643 N   0  0  0  0  0  0  0  0  0  0  0  0
  151.1791  143.2626  157.3822 C   0  0  0  0  0  0  0  0  0  0  0  0
  150.6779  141.9159  156.8507 C   0  0  0  0  0  0  0  0  0  0  0  0
  151.3841  140.9106  156.9350 O   0  0  0  0  0  0  0  0  0  0  0  0
  149.4454  141.9113  156.3181 N   0  0  0  0  0  0  0  0  0  0  0  0
  148.7561  140.7509  155.7554 C   0  0  2  0  0  0  0  0  0  0  0  0
  149.6106  140.1766  154.6157 C   0  0  0  0  0  0  0  0  0  0  0  0
  147.3424  141.1383  155.2707 C   0  0  2  0  0  0  0  0  0  0  0  0
  147.3004  142.1591  154.1307 C   0  0  0  0  0  0  0  0  0  0  0  0
  145.9210  142.7512  154.2991 C   0  0  0  0  0  0  0  0  0  0  0  0
  145.7957  142.8136  155.8178 C   0  0  0  0  0  0  0  0  0  0  0  0
  146.6022  141.7525  156.3240 O   0  0  0  0  0  0  0  0  0  0  0  0
  152.6622  142.0630  158.8707 N   0  0  0  0  0  0  0  0  0  0  0  0
  154.3973  141.4886  161.6692 H   0  0  0  0  0  0  0  0  0  0  0  0
  154.9318  141.0675  160.0454 H   0  0  0  0  0  0  0  0  0  0  0  0
  153.5650  140.2234  160.7711 H   0  0  0  0  0  0  0  0  0  0  0  0
  152.8037  143.7657  161.7173 H   0  0  0  0  0  0  0  0  0  0  0  0
  151.0065  145.6437  160.8170 H   0  0  0  0  0  0  0  0  0  0  0  0
  149.9353  144.9870  159.5820 H   0  0  0  0  0  0  0  0  0  0  0  0
  151.3495  145.9346  159.1124 H   0  0  0  0  0  0  0  0  0  0  0  0
  150.3339  143.9420  157.4919 H   0  0  0  0  0  0  0  0  0  0  0  0
  151.8651  143.7249  156.6703 H   0  0  0  0  0  0  0  0  0  0  0  0
  148.9427  142.7866  156.2958 H   0  0  0  0  0  0  0  0  0  0  0  0
  148.6609  139.9748  156.5170 H   0  0  0  0  0  0  0  0  0  0  0  0
  149.1492  139.2874  154.1857 H   0  0  0  0  0  0  0  0  0  0  0  0
  150.6003  139.8899  154.9727 H   0  0  0  0  0  0  0  0  0  0  0  0
  149.7432  140.9027  153.8128 H   0  0  0  0  0  0  0  0  0  0  0  0
  146.7955  140.2456  154.9621 H   0  0  0  0  0  0  0  0  0  0  0  0
  148.0557  142.9327  154.2770 H   0  0  0  0  0  0  0  0  0  0  0  0
  147.4550  141.7098  153.1493 H   0  0  0  0  0  0  0  0  0  0  0  0
  145.8089  143.7248  153.8210 H   0  0  0  0  0  0  0  0  0  0  0  0
  145.1706  142.0762  153.8855 H   0  0  0  0  0  0  0  0  0  0  0  0
  146.1922  143.7572  156.1943 H   0  0  0  0  0  0  0  0  0  0  0  0
  144.7619  142.7229  156.1522 H   0  0  0  0  0  0  0  0  0  0  0  0
  1  2  1  0  0  0  0
  1 19  1  0  0  0  0
  1 20  1  0  0  0  0
  1 21  1  0  0  0  0
  2 18  2  0  0  0  0
  2  3  1  0  0  0  0
  3  4  2  0  0  0  0
  3 22  1  0  0  0  0
  4  5  1  0  0  0  0
  4  6  1  0  0  0  0
  5 23  1  0  0  0  0
  5 24  1  0  0  0  0
  5 25  1  0  0  0  0
  6  7  1  0  0  0  0
  6 18  1  0  0  0  0
  7  8  1  0  0  0  0
  7 26  1  0  0  0  0
  7 27  1  0  0  0  0
  8  9  2  0  0  0  0
  8 10  1  0  0  0  0
 10 11  1  0  0  0  0
 10 28  1  0  0  0  0
 11 12  1  0  0  0  0
 11 13  1  0  0  0  0
 11 29  1  0  0  0  0
 12 30  1  0  0  0  0
 12 31  1  0  0  0  0
 12 32  1  0  0  0  0
 13 17  1  0  0  0  0
 13 14  1  0  0  0  0
 13 33  1  0  0  0  0
 14 15  1  0  0  0  0
 14 34  1  0  0  0  0
 14 35  1  0  0  0  0
 15 16  1  0  0  0  0
 15 36  1  0  0  0  0
 15 37  1  0  0  0  0
 16 17  1  0  0  0  0
 16 38  1  0  0  0  0
 16 39  1  0  0  0  0
M  END
> <s_m_source_file>
AV-unprocessed.smi

> <i_m_source_file_index>
2204

> <i_lp_mmshare_version>
43012

> <i_f3d_flags>
0

> <s_epik_input>
W0NIM11jMVtjSF1jKFtDSDNdKW4objEpW0NIMl1DKD1PKVtOSF1bQ0BIXShbQ0gzXSlbQ0BASF0yW0NIMl1bQ0gyXVtDSDJdTzI=

> <s_epik_cmdline>
J2VwaWtfcHl0aG9uJywgJy1waCcsICc3LjAnLCAnLXRuJywgJzgnLCAnLW1hJywgJzIwMCcsICctbWV0YWxfYmluZGluZycsICctaW1hZScsICc8aW5maWxlLm1hZT4nLCAnLW9tYWUnLCAnPG91dGZpbGUubWFlPic=

> <r_lp_tautomer_probability>
1

> <r_epik_Ionization_Penalty>
0.000433354

> <r_epik_Ionization_Penalty_Charging>
0

> <r_epik_Ionization_Penalty_Neutral>
0.000433354

> <r_epik_State_Penalty>
-0

> <r_epik_Charging_Adjusted_Penalty>
0

> <i_epik_Tot_Q>
0

> <i_epik_Tot_abs_Q>
0

> <r_epik_Metal_State_Penalty>
-0

> <b_epik_Metal_Only>
0

> <s_lp_Force_Field>
OPLS_2005

> <r_lp_Energy>
17.0674

> <b_lp_Chiralities_Consistent>
1

> <s_lp_Variant>
AV-unprocessed.smi:2204-1

> <Gold.Version>
5.8.1

> <Gold.Id.Protein>
6NUR|6NUR_protein|mol2

> <Gold.PLP.Fitness>
44.3451

> <Gold.PLP.PLP>
-42.4074

> <Gold.PLP.part.hbond>
-1.0000

> <Gold.PLP.part.metal>
0.0000

> <Gold.PLP.part.buried>
-6.1956

> <Gold.PLP.part.nonpolar>
-36.3128

> <Gold.PLP.part.repulsive>
0.1910

> <Gold.PLP.ligand.clash>
0.0000

> <Gold.PLP.ligand.torsion>
0.5388

> <Gold.PLP.Chemscore.Hbond>
1.0000

> <Gold.PLP.Chemscore.CHOScore>
0.0000

> <Gold.PLP.Chemscore.Metal>
0.0000

> <Gold.Chemscore.Hbonds>
donor molecule, donor type, donor heavy atom, donor atom, acceptor molecule, acceptor atom, score
      L1  H    10    28       P1  8028  0.95

> <Gold.PLP.Chemscore.Internal.Correction>
0.0153

> <Gold.Rescore>
     Score         DG    S(hbond)    S(metal)    S(lipo)     H(rot)  DE(clash)    DE(int)     intcor
     14.54     -16.56       0.99        0.00      99.12       1.50       0.02       1.99       ----

> <Gold.Chemscore.Fitness>
14.5399

> <Gold.Chemscore.DG>
-16.5571

> <Gold.Chemscore.ZeroCoef>
-5.4800

> <Gold.Chemscore.Hbond>
0.9944

> <Gold.Chemscore.Metal>
0.0000

> <Gold.Chemscore.Lipo>
99.1211

> <Gold.Chemscore.Internal_Hbond>
0.0000

> <Gold.Chemscore.DEClash>
0.0231

> <Gold.Chemscore.DEInternal>
1.9941

> <Gold.Chemscore.Rot>
1.5005

> <Gold.Chemscore.Internal.Correction>
   9.000000E+99

> <Gold.Chemscore.Hbonds>
donor molecule, donor type, donor heavy atom, donor atom, acceptor molecule, acceptor atom, score
      L1  H    10    28       P1  8028  0.85

> <Gold.Chemscore.Hbond.Weighted>
-3.3212

> <Gold.Chemscore.Metal.Weighted>
-0.0000

> <Gold.Chemscore.Lipo.Weighted>
-11.5972

> <Gold.Chemscore.Internal_Hbond.Weighted>
0.0000

> <Gold.Chemscore.DEClash.Weighted>
0.0231

> <Gold.Chemscore.DEInternal.Weighted>
1.9941

> <Gold.Chemscore.Rot.Weighted>
3.8412

> <Gold.Chemscore.Internal.Correction.Weighted>
   9.000000E+99

> <Gold.Protein.RotatedTorsions>
[ 6907 6896 6895 6894 ] final   33.31 input  -60.11 | X-H torsion
[ 7974 7965 7964 7962 ] final   29.42 input  175.53 | X-H torsion
[ 8008 7997 7996 7995 ] final  -43.54 input   59.86 | X-H torsion
[ 10167 10162 10161 10158 ] final   61.19 input  -65.29 | X-H torsion
[ 10718 10713 10712 10709 ] final  146.40 input   66.30 | X-H torsion
[ 10763 10752 10751 10750 ] final  -38.47 input  -60.55 | X-H torsion
[ 11005 11000 10999 10996 ] final -157.99 input  -57.11 | X-H torsion

> <Gold.Protein.ActiveResidues>
 VAL166  LYS551  ARG553  GLY616  TRP617  ASP618  TYR619  PRO620  LYS621  CYS622 
 ASP623  PHE694  ASN695  SER759  ASP760  ASP761  ALA762  ILE779  LEU786  VAL792 
 PHE793  MET794  SER795  GLU796  ALA797  LYS798  CYS799  TRP800  GLU811  SER814 

> <Gold.Protein.RotatedAtoms>
  152.0866  134.9435  160.0572 H   0  0  0  0  0  0  0  0  0  0  0  0  # atno 6907 bound_to 6896
  152.0703  133.4098  159.4464 H   0  0  0  0  0  0  0  0  0  0  0  0  # atno 6908 bound_to 6896
  150.6836  134.3019  159.4753 H   0  0  0  0  0  0  0  0  0  0  0  0  # atno 6909 bound_to 6896
  146.1672  139.6924  142.8992 H   0  0  0  0  0  0  0  0  0  0  0  0  # atno 7974 bound_to 7965
  154.3997  140.1445  156.3535 H   0  0  0  0  0  0  0  0  0  0  0  0  # atno 8008 bound_to 7997
  155.8247  140.3468  155.5514 H   0  0  0  0  0  0  0  0  0  0  0  0  # atno 8009 bound_to 7997
  155.8251  140.0904  157.1816 H   0  0  0  0  0  0  0  0  0  0  0  0  # atno 8010 bound_to 7997
  140.1574  144.4403  150.6727 H   0  0  0  0  0  0  0  0  0  0  0  0  # atno 10167 bound_to 10162
  157.3336  131.0924  151.1142 H   0  0  0  0  0  0  0  0  0  0  0  0  # atno 10718 bound_to 10713
  153.9134  135.6790  153.4750 H   0  0  0  0  0  0  0  0  0  0  0  0  # atno 10763 bound_to 10752
  153.1066  135.4802  154.8960 H   0  0  0  0  0  0  0  0  0  0  0  0  # atno 10764 bound_to 10752
  154.7515  135.3186  154.8504 H   0  0  0  0  0  0  0  0  0  0  0  0  # atno 10765 bound_to 10752
  140.6585  134.4374  157.5234 H   0  0  0  0  0  0  0  0  0  0  0  0  # atno 11005 bound_to 11000
  145.4435  141.0424  143.2844 LP  0  0  0  0  0  0  0  0  0  0  0  0  # atno 17320 bound_to 7965
  144.8110  139.5962  143.7029 LP  0  0  0  0  0  0  0  0  0  0  0  0  # atno 17321 bound_to 7965
  140.6664  143.2269  151.5732 LP  0  0  0  0  0  0  0  0  0  0  0  0  # atno 17342 bound_to 10162
  139.5397  144.2682  152.1325 LP  0  0  0  0  0  0  0  0  0  0  0  0  # atno 17343 bound_to 10162
  157.2381  130.6556  149.5878 LP  0  0  0  0  0  0  0  0  0  0  0  0  # atno 17370 bound_to 10713
  155.9699  130.4577  150.5973 LP  0  0  0  0  0  0  0  0  0  0  0  0  # atno 17371 bound_to 10713
  139.9021  134.8532  156.1853 LP  0  0  0  0  0  0  0  0  0  0  0  0  # atno 17394 bound_to 11000
  141.0483  133.6902  156.1724 LP  0  0  0  0  0  0  0  0  0  0  0  0  # atno 17395 bound_to 11000

$$$$
