AV-unprocessed.smi:3025|AV-procd|sdf|11505|dock5
  -GOLD-   2272016443D 1   1.00000     0.00000
 Structure written by MMmdl.
 42 43  0  0  0  0  0  0  0  0  2 V2000
  152.1869  143.7342  158.6341 C   0  0  0  0  0  0  0  0  0  0  0  0
  151.2311  143.2456  157.5403 C   0  0  0  0  0  0  0  0  0  0  0  0
  151.2762  141.7188  157.3586 C   0  0  0  0  0  0  0  0  0  0  0  0
  150.6487  141.2220  156.0396 C   0  0  2  0  0  0  0  0  0  0  0  0
  149.1059  141.2787  156.0558 C   0  0  0  0  0  0  0  0  0  0  0  0
  148.4998  140.7641  154.7397 C   0  0  0  0  0  0  0  0  0  0  0  0
  148.9752  139.3329  154.4147 C   0  0  1  0  0  0  0  0  0  0  0  0
  148.4421  138.8644  153.1161 N   0  3  0  0  0  0  0  0  0  0  0  0
  146.9758  138.9680  152.9616 C   0  0  0  0  0  0  0  0  0  0  0  0
  146.5233  138.3990  151.6104 C   0  0  0  0  0  0  0  0  0  0  0  0
  145.4879  137.3327  151.7588 C   0  0  0  0  0  0  0  0  0  0  0  0
  144.2837  137.5718  152.2820 N   0  0  0  0  0  0  0  0  0  0  0  0
  143.5730  136.4249  152.3056 N   0  0  0  0  0  0  0  0  0  0  0  0
  144.4311  135.5534  151.7785 C   0  0  0  0  0  0  0  0  0  0  0  0
  145.6498  136.0586  151.4192 N   0  0  0  0  0  0  0  0  0  0  0  0
  150.5133  139.2798  154.3959 C   0  0  0  0  0  0  0  0  0  0  0  0
  151.1120  139.7872  155.7173 C   0  0  0  0  0  0  0  0  0  0  0  0
  143.9193  138.4522  152.6175 H   0  0  0  0  0  0  0  0  0  0  0  0
  152.1330  144.8177  158.7413 H   0  0  0  0  0  0  0  0  0  0  0  0
  153.2196  143.4748  158.4002 H   0  0  0  0  0  0  0  0  0  0  0  0
  151.9395  143.2921  159.5996 H   0  0  0  0  0  0  0  0  0  0  0  0
  150.2205  143.5660  157.7917 H   0  0  0  0  0  0  0  0  0  0  0  0
  151.4863  143.7347  156.5997 H   0  0  0  0  0  0  0  0  0  0  0  0
  152.3204  141.4048  157.3897 H   0  0  0  0  0  0  0  0  0  0  0  0
  150.7912  141.2319  158.2057 H   0  0  0  0  0  0  0  0  0  0  0  0
  151.0048  141.8702  155.2371 H   0  0  0  0  0  0  0  0  0  0  0  0
  148.7238  140.6864  156.8884 H   0  0  0  0  0  0  0  0  0  0  0  0
  148.7632  142.2996  156.2221 H   0  0  0  0  0  0  0  0  0  0  0  0
  147.4134  140.8010  154.8164 H   0  0  0  0  0  0  0  0  0  0  0  0
  148.7745  141.4387  153.9274 H   0  0  0  0  0  0  0  0  0  0  0  0
  148.6248  138.6533  155.1936 H   0  0  0  0  0  0  0  0  0  0  0  0
  148.8942  139.3796  152.3740 H   0  0  0  0  0  0  0  0  0  0  0  0
  146.4908  138.4245  153.7738 H   0  0  0  0  0  0  0  0  0  0  0  0
  146.6663  140.0101  153.0394 H   0  0  0  0  0  0  0  0  0  0  0  0
  146.1217  139.1961  150.9829 H   0  0  0  0  0  0  0  0  0  0  0  0
  147.3760  137.9801  151.0743 H   0  0  0  0  0  0  0  0  0  0  0  0
  144.1715  134.5127  151.6505 H   0  0  0  0  0  0  0  0  0  0  0  0
  150.8497  138.2585  154.2134 H   0  0  0  0  0  0  0  0  0  0  0  0
  150.8965  139.8828  153.5712 H   0  0  0  0  0  0  0  0  0  0  0  0
  152.2004  139.7510  155.6569 H   0  0  0  0  0  0  0  0  0  0  0  0
  150.8266  139.1156  156.5284 H   0  0  0  0  0  0  0  0  0  0  0  0
  148.6847  137.8885  153.0211 H   0  0  0  0  0  0  0  0  0  0  0  0
  1  2  1  0  0  0  0
  1 19  1  0  0  0  0
  1 20  1  0  0  0  0
  1 21  1  0  0  0  0
  2  3  1  0  0  0  0
  2 22  1  0  0  0  0
  2 23  1  0  0  0  0
  3  4  1  0  0  0  0
  3 24  1  0  0  0  0
  3 25  1  0  0  0  0
  4 17  1  0  0  0  0
  4  5  1  0  0  0  0
  4 26  1  0  0  0  0
  5  6  1  0  0  0  0
  5 27  1  0  0  0  0
  5 28  1  0  0  0  0
  6  7  1  0  0  0  0
  6 29  1  0  0  0  0
  6 30  1  0  0  0  0
  7  8  1  0  0  0  0
  7 16  1  0  0  0  0
  7 31  1  0  0  0  0
  8  9  1  0  0  0  0
  8 32  1  0  0  0  0
  8 42  1  0  0  0  0
  9 10  1  0  0  0  0
  9 33  1  0  0  0  0
  9 34  1  0  0  0  0
 10 35  1  0  0  0  0
 10 36  1  0  0  0  0
 10 11  1  0  0  0  0
 11 15  2  0  0  0  0
 11 12  1  0  0  0  0
 12 18  1  0  0  0  0
 12 13  1  0  0  0  0
 13 14  2  0  0  0  0
 14 15  1  0  0  0  0
 14 37  1  0  0  0  0
 16 17  1  0  0  0  0
 16 38  1  0  0  0  0
 16 39  1  0  0  0  0
 17 40  1  0  0  0  0
 17 41  1  0  0  0  0
M  CHG  1   8   1
M  END
> <s_m_source_file>
AV-unprocessed.smi

> <i_m_source_file_index>
3025

> <i_lp_mmshare_version>
43012

> <i_f3d_flags>
0

> <s_epik_input>
W0NIM11bQ0gyXVtDSDJdW0NAQEhdMVtDSDJdW0NIMl1bQ0BIXShbQ0gyXVtDSDJdMSlbTkhdW0NIMl1bQ0gyXWMybm5bY0hdW25IXTI=

> <s_epik_cmdline>
J2VwaWtfcHl0aG9uJywgJy1waCcsICc3LjAnLCAnLXRuJywgJzgnLCAnLW1hJywgJzIwMCcsICctbWV0YWxfYmluZGluZycsICctaW1hZScsICc8aW5maWxlLm1hZT4nLCAnLW9tYWUnLCAnPG91dGZpbGUubWFlPic=

> <r_lp_tautomer_probability>
0.948284

> <r_epik_Ionization_Penalty>
0.0093758

> <r_epik_Ionization_Penalty_Charging>
0.000546397

> <r_epik_Ionization_Penalty_Neutral>
0.00882941

> <r_epik_State_Penalty>
0.401098

> <r_epik_Charging_Adjusted_Penalty>
0.401645

> <i_epik_Tot_Q>
1

> <i_epik_Tot_abs_Q>
1

> <r_epik_Metal_State_Penalty>
0.634803

> <b_epik_Metal_Only>
0

> <s_lp_Force_Field>
OPLS_2005

> <r_lp_Energy>
13.6193

> <b_lp_Chiralities_Consistent>
1

> <s_lp_Variant>
AV-unprocessed.smi:3025-1

> <Gold.Version>
5.8.1

> <Gold.Id.Protein>
6NUR|6NUR_protein|mol2

> <Gold.PLP.Fitness>
47.2209

> <Gold.PLP.PLP>
-36.3662

> <Gold.PLP.part.hbond>
-4.0000

> <Gold.PLP.part.metal>
0.0000

> <Gold.PLP.part.buried>
-1.6774

> <Gold.PLP.part.nonpolar>
-33.3235

> <Gold.PLP.part.repulsive>
0.5155

> <Gold.PLP.ligand.clash>
0.0000

> <Gold.PLP.ligand.torsion>
0.5953

> <Gold.PLP.Chemscore.Hbond>
3.9840

> <Gold.PLP.Chemscore.CHOScore>
0.0000

> <Gold.PLP.Chemscore.Metal>
0.0000

> <Gold.Chemscore.Hbonds>
donor molecule, donor type, donor heavy atom, donor atom, acceptor molecule, acceptor atom, score
      L1  H     8    32       P1  7957  1.00
      L1  H     8    42       P1  7948  1.98
      L1  H    12    18       P1 10175  1.00

> <Gold.PLP.Chemscore.Internal.Correction>
0.0934

> <Gold.Rescore>
     Score         DG    S(hbond)    S(metal)    S(lipo)     H(rot)  DE(clash)    DE(int)     intcor
     17.88     -18.57       2.91        0.00      84.77       2.56       0.04       0.65       ----

> <Gold.Chemscore.Fitness>
17.8774

> <Gold.Chemscore.DG>
-18.5661

> <Gold.Chemscore.ZeroCoef>
-5.4800

> <Gold.Chemscore.Hbond>
2.9108

> <Gold.Chemscore.Metal>
0.0000

> <Gold.Chemscore.Lipo>
84.7717

> <Gold.Chemscore.Internal_Hbond>
0.0000

> <Gold.Chemscore.DEClash>
0.0370

> <Gold.Chemscore.DEInternal>
0.6517

> <Gold.Chemscore.Rot>
2.5602

> <Gold.Chemscore.Internal.Correction>
   9.000000E+99

> <Gold.Chemscore.Hbonds>
donor molecule, donor type, donor heavy atom, donor atom, acceptor molecule, acceptor atom, score
      L1  H     8    32       P1  7957  0.94
      L1  H     8    42       P1  7948  0.89
      L1  H    12    18       P1 10175  0.92

> <Gold.Chemscore.Hbond.Weighted>
-9.7220

> <Gold.Chemscore.Metal.Weighted>
-0.0000

> <Gold.Chemscore.Lipo.Weighted>
-9.9183

> <Gold.Chemscore.Internal_Hbond.Weighted>
0.0000

> <Gold.Chemscore.DEClash.Weighted>
0.0370

> <Gold.Chemscore.DEInternal.Weighted>
0.6517

> <Gold.Chemscore.Rot.Weighted>
6.5542

> <Gold.Chemscore.Internal.Correction.Weighted>
   9.000000E+99

> <Gold.Protein.RotatedTorsions>
[ 6907 6896 6895 6894 ] final  100.13 input  -60.11 | X-H torsion
[ 7974 7965 7964 7962 ] final  112.99 input  175.53 | X-H torsion
[ 8008 7997 7996 7995 ] final  112.93 input   59.86 | X-H torsion
[ 10167 10162 10161 10158 ] final  -21.34 input  -65.29 | X-H torsion
[ 10718 10713 10712 10709 ] final  -62.66 input   66.30 | X-H torsion
[ 10763 10752 10751 10750 ] final -169.21 input  -60.55 | X-H torsion
[ 11005 11000 10999 10996 ] final   81.23 input  -57.11 | X-H torsion

> <Gold.Protein.ActiveResidues>
 VAL166  LYS551  ARG553  GLY616  TRP617  ASP618  TYR619  PRO620  LYS621  CYS622 
 ASP623  PHE694  ASN695  SER759  ASP760  ASP761  ALA762  ILE779  LEU786  VAL792 
 PHE793  MET794  SER795  GLU796  ALA797  LYS798  CYS799  TRP800  GLU811  SER814 

> <Gold.Protein.RotatedAtoms>
  152.5378  134.0324  159.8030 H   0  0  0  0  0  0  0  0  0  0  0  0  # atno 6907 bound_to 6896
  151.0493  133.5631  159.2651 H   0  0  0  0  0  0  0  0  0  0  0  0  # atno 6908 bound_to 6896
  151.2571  135.0649  159.9138 H   0  0  0  0  0  0  0  0  0  0  0  0  # atno 6909 bound_to 6896
  145.2226  139.2855  143.4210 H   0  0  0  0  0  0  0  0  0  0  0  0  # atno 7974 bound_to 7965
  156.2224  140.2990  155.9985 H   0  0  0  0  0  0  0  0  0  0  0  0  # atno 8008 bound_to 7997
  155.2445  140.0423  157.2996 H   0  0  0  0  0  0  0  0  0  0  0  0  # atno 8009 bound_to 7997
  154.5862  140.2389  155.7992 H   0  0  0  0  0  0  0  0  0  0  0  0  # atno 8010 bound_to 7997
  140.7281  143.4637  151.0344 H   0  0  0  0  0  0  0  0  0  0  0  0  # atno 10167 bound_to 10162
  156.0841  130.4211  150.1167 H   0  0  0  0  0  0  0  0  0  0  0  0  # atno 10718 bound_to 10713
  154.6547  135.2916  154.9943 H   0  0  0  0  0  0  0  0  0  0  0  0  # atno 10763 bound_to 10752
  154.1024  135.6575  153.4874 H   0  0  0  0  0  0  0  0  0  0  0  0  # atno 10764 bound_to 10752
  153.0396  135.5245  154.7470 H   0  0  0  0  0  0  0  0  0  0  0  0  # atno 10765 bound_to 10752
  139.9105  134.7981  156.2013 H   0  0  0  0  0  0  0  0  0  0  0  0  # atno 11005 bound_to 11000
  146.3372  140.2536  142.8599 LP  0  0  0  0  0  0  0  0  0  0  0  0  # atno 17320 bound_to 7965
  144.9751  140.8406  143.5431 LP  0  0  0  0  0  0  0  0  0  0  0  0  # atno 17321 bound_to 7965
  139.8323  143.7674  152.3180 LP  0  0  0  0  0  0  0  0  0  0  0  0  # atno 17342 bound_to 10162
  139.7794  144.7449  151.0110 LP  0  0  0  0  0  0  0  0  0  0  0  0  # atno 17343 bound_to 10162
  156.9192  130.9677  151.3551 LP  0  0  0  0  0  0  0  0  0  0  0  0  # atno 17370 bound_to 10713
  157.5968  130.8484  149.8742 LP  0  0  0  0  0  0  0  0  0  0  0  0  # atno 17371 bound_to 10713
  141.0523  133.6883  156.1794 LP  0  0  0  0  0  0  0  0  0  0  0  0  # atno 17394 bound_to 11000
  140.6792  134.4786  157.5589 LP  0  0  0  0  0  0  0  0  0  0  0  0  # atno 17395 bound_to 11000

$$$$
