AV-unprocessed.smi:774|AV-procd|sdf|3693|dock2
  -GOLD-   22720 1113D 1   1.00000     0.00000
 Structure written by MMmdl.
 37 38  0  0  0  0  0  0  0  0  1 V2000
  144.8510  132.7816  150.3537 C   0  0  0  0  0  0  0  0  0  0  0  0
  145.7758  132.8405  151.5723 C   0  0  0  0  0  0  0  0  0  0  0  0
  146.1254  131.1830  152.2205 S   0  0  0  0  0  0  0  0  0  0  0  0
  147.1090  131.6057  153.6877 C   0  0  2  0  0  0  0  0  0  0  0  0
  146.4008  132.5775  154.6298 C   0  0  0  0  0  0  0  0  0  0  0  0
  147.5307  133.1744  155.4692 C   0  0  0  0  0  0  0  0  0  0  0  0
  148.7799  133.1730  154.5653 C   0  0  2  0  0  0  0  0  0  0  0  0
  149.1594  134.5276  154.1714 N   0  0  0  0  0  0  0  0  0  0  0  0
  149.8722  135.3774  154.9243 C   0  0  0  0  0  0  0  0  0  0  0  0
  150.2825  135.1041  156.0522 O   0  0  0  0  0  0  0  0  0  0  0  0
  150.0507  136.5513  154.2945 N   0  0  0  0  0  0  0  0  0  0  0  0
  150.7561  137.6987  154.7477 C   0  0  0  0  0  0  0  0  0  0  0  0
  151.6951  137.5303  155.7862 C   0  0  0  0  0  0  0  0  0  0  0  0
  152.3954  138.6529  156.2672 C   0  0  0  0  0  0  0  0  0  0  0  0
  152.1206  139.9094  155.6939 C   0  0  0  0  0  0  0  0  0  0  0  0
  151.2144  140.0917  154.7105 N   0  0  0  0  0  0  0  0  0  0  0  0
  150.5474  139.0101  154.2523 C   0  0  0  0  0  0  0  0  0  0  0  0
  148.4136  132.3251  153.3325 C   0  0  0  0  0  0  0  0  0  0  0  0
  144.6466  133.7821  149.9725 H   0  0  0  0  0  0  0  0  0  0  0  0
  143.8962  132.3202  150.6069 H   0  0  0  0  0  0  0  0  0  0  0  0
  145.3005  132.2027  149.5464 H   0  0  0  0  0  0  0  0  0  0  0  0
  146.7144  133.3249  151.3026 H   0  0  0  0  0  0  0  0  0  0  0  0
  145.3171  133.4397  152.3591 H   0  0  0  0  0  0  0  0  0  0  0  0
  147.3493  130.6894  154.2288 H   0  0  0  0  0  0  0  0  0  0  0  0
  145.9148  133.3683  154.0565 H   0  0  0  0  0  0  0  0  0  0  0  0
  145.6403  132.0941  155.2435 H   0  0  0  0  0  0  0  0  0  0  0  0
  147.2718  134.1617  155.8545 H   0  0  0  0  0  0  0  0  0  0  0  0
  147.7138  132.5339  156.3330 H   0  0  0  0  0  0  0  0  0  0  0  0
  149.6092  132.6994  155.0946 H   0  0  0  0  0  0  0  0  0  0  0  0
  148.8563  134.8375  153.2596 H   0  0  0  0  0  0  0  0  0  0  0  0
  149.5810  136.6549  153.4071 H   0  0  0  0  0  0  0  0  0  0  0  0
  151.8815  136.5534  156.2083 H   0  0  0  0  0  0  0  0  0  0  0  0
  153.1247  138.5536  157.0575 H   0  0  0  0  0  0  0  0  0  0  0  0
  152.6383  140.7927  156.0379 H   0  0  0  0  0  0  0  0  0  0  0  0
  149.8185  139.2231  153.4861 H   0  0  0  0  0  0  0  0  0  0  0  0
  149.2054  131.6244  153.0656 H   0  0  0  0  0  0  0  0  0  0  0  0
  148.2496  132.9680  152.4656 H   0  0  0  0  0  0  0  0  0  0  0  0
  1  2  1  0  0  0  0
  1 19  1  0  0  0  0
  1 20  1  0  0  0  0
  1 21  1  0  0  0  0
  2  3  1  0  0  0  0
  2 22  1  0  0  0  0
  2 23  1  0  0  0  0
  3  4  1  0  0  0  0
  4 18  1  0  0  0  0
  4  5  1  0  0  0  0
  4 24  1  0  0  0  0
  5  6  1  0  0  0  0
  5 25  1  0  0  0  0
  5 26  1  0  0  0  0
  6  7  1  0  0  0  0
  6 27  1  0  0  0  0
  6 28  1  0  0  0  0
  7  8  1  0  0  0  0
  7 18  1  0  0  0  0
  7 29  1  0  0  0  0
  8  9  1  0  0  0  0
  8 30  1  0  0  0  0
  9 10  2  0  0  0  0
  9 11  1  0  0  0  0
 11 12  1  0  0  0  0
 11 31  1  0  0  0  0
 12 17  1  0  0  0  0
 12 13  2  0  0  0  0
 13 14  1  0  0  0  0
 13 32  1  0  0  0  0
 14 15  2  0  0  0  0
 14 33  1  0  0  0  0
 15 16  1  0  0  0  0
 15 34  1  0  0  0  0
 16 17  2  0  0  0  0
 17 35  1  0  0  0  0
 18 36  1  0  0  0  0
 18 37  1  0  0  0  0
M  END
> <s_m_source_file>
AV-unprocessed.smi

> <i_m_source_file_index>
774

> <i_lp_mmshare_version>
43012

> <i_f3d_flags>
0

> <s_epik_input>
W0NIM11bQ0gyXVNbQ0BASF0xW0NIMl1bQ0gyXVtDQEhdKFtDSDJdMSlbTkhdQyg9TylbTkhdYzJbY0hdW2NIXVtjSF1uW2NIXTI=

> <s_epik_cmdline>
J2VwaWtfcHl0aG9uJywgJy1waCcsICc3LjAnLCAnLXRuJywgJzgnLCAnLW1hJywgJzIwMCcsICctbWV0YWxfYmluZGluZycsICctaW1hZScsICc8aW5maWxlLm1hZT4nLCAnLW9tYWUnLCAnPG91dGZpbGUubWFlPic=

> <r_epik_Ionization_Penalty>
0.00485718

> <r_epik_Ionization_Penalty_Charging>
0

> <r_epik_Ionization_Penalty_Neutral>
0.00485718

> <r_epik_State_Penalty>
0.00349461

> <r_epik_Charging_Adjusted_Penalty>
0.00349461

> <i_epik_Tot_Q>
0

> <i_epik_Tot_abs_Q>
0

> <r_epik_Metal_State_Penalty>
-0

> <b_epik_Metal_Only>
0

> <s_lp_Force_Field>
OPLS_2005

> <r_lp_Energy>
20.2727

> <b_lp_Chiralities_Consistent>
1

> <s_lp_Variant>
AV-unprocessed.smi:774-3

> <Gold.Version>
5.8.1

> <Gold.Id.Protein>
6NUR|6NUR_protein|mol2

> <Gold.PLP.Fitness>
42.1901

> <Gold.PLP.PLP>
-31.2152

> <Gold.PLP.part.hbond>
-4.0000

> <Gold.PLP.part.metal>
0.0000

> <Gold.PLP.part.buried>
-2.6949

> <Gold.PLP.part.nonpolar>
-24.2867

> <Gold.PLP.part.repulsive>
0.1823

> <Gold.PLP.ligand.clash>
0.0000

> <Gold.PLP.ligand.torsion>
0.3953

> <Gold.PLP.Chemscore.Hbond>
2.9120

> <Gold.PLP.Chemscore.CHOScore>
1.0000

> <Gold.PLP.Chemscore.Metal>
0.0000

> <Gold.Chemscore.Hbonds>
donor molecule, donor type, donor heavy atom, donor atom, acceptor molecule, acceptor atom, score
      L1  H     8    30       P1  7948  0.94
      L1  H    11    31       P1  7948  1.00
      P1  H  7989  7998       L1    16  0.93
      L1  C    17    35       P1  7957  1.00

> <Gold.PLP.Chemscore.Internal.Correction>
0.0294

> <Gold.Rescore>
     Score         DG    S(hbond)    S(metal)    S(lipo)     H(rot)  DE(clash)    DE(int)     intcor
     15.14     -16.91       1.86        0.00      73.14       1.30       0.01       1.76       ----

> <Gold.Chemscore.Fitness>
15.1393

> <Gold.Chemscore.DG>
-16.9112

> <Gold.Chemscore.ZeroCoef>
-5.4800

> <Gold.Chemscore.Hbond>
1.8598

> <Gold.Chemscore.Metal>
0.0000

> <Gold.Chemscore.Lipo>
73.1432

> <Gold.Chemscore.Internal_Hbond>
0.0000

> <Gold.Chemscore.DEClash>
0.0089

> <Gold.Chemscore.DEInternal>
1.7630

> <Gold.Chemscore.Rot>
1.3041

> <Gold.Chemscore.Internal.Correction>
   9.000000E+99

> <Gold.Chemscore.Hbonds>
donor molecule, donor type, donor heavy atom, donor atom, acceptor molecule, acceptor atom, score
      L1  H     8    30       P1  7948  0.23
      L1  H    11    31       P1  7948  0.65
      P1  H  7989  7998       L1    16  0.47

> <Gold.Chemscore.Hbond.Weighted>
-6.2119

> <Gold.Chemscore.Metal.Weighted>
-0.0000

> <Gold.Chemscore.Lipo.Weighted>
-8.5578

> <Gold.Chemscore.Internal_Hbond.Weighted>
0.0000

> <Gold.Chemscore.DEClash.Weighted>
0.0089

> <Gold.Chemscore.DEInternal.Weighted>
1.7630

> <Gold.Chemscore.Rot.Weighted>
3.3384

> <Gold.Chemscore.Internal.Correction.Weighted>
   9.000000E+99

> <Gold.Protein.RotatedTorsions>
[ 6907 6896 6895 6894 ] final   32.56 input  -60.11 | X-H torsion
[ 7974 7965 7964 7962 ] final -139.78 input  175.53 | X-H torsion
[ 8008 7997 7996 7995 ] final -129.56 input   59.86 | X-H torsion
[ 10167 10162 10161 10158 ] final  149.11 input  -65.29 | X-H torsion
[ 10718 10713 10712 10709 ] final -128.23 input   66.30 | X-H torsion
[ 10763 10752 10751 10750 ] final -133.68 input  -60.55 | X-H torsion
[ 11005 11000 10999 10996 ] final  -50.94 input  -57.11 | X-H torsion

> <Gold.Protein.ActiveResidues>
 VAL166  LYS551  ARG553  GLY616  TRP617  ASP618  TYR619  PRO620  LYS621  CYS622 
 ASP623  PHE694  ASN695  SER759  ASP760  ASP761  ALA762  ILE779  LEU786  VAL792 
 PHE793  MET794  SER795  GLU796  ALA797  LYS798  CYS799  TRP800  GLU811  SER814 

> <Gold.Protein.RotatedAtoms>
  152.0762  134.9501  160.0573 H   0  0  0  0  0  0  0  0  0  0  0  0  # atno 6907 bound_to 6896
  152.0808  133.4147  159.4508 H   0  0  0  0  0  0  0  0  0  0  0  0  # atno 6908 bound_to 6896
  150.6836  134.2904  159.4708 H   0  0  0  0  0  0  0  0  0  0  0  0  # atno 6909 bound_to 6896
  144.8650  140.6278  143.5304 H   0  0  0  0  0  0  0  0  0  0  0  0  # atno 7974 bound_to 7965
  155.2812  140.0444  157.3015 H   0  0  0  0  0  0  0  0  0  0  0  0  # atno 8008 bound_to 7997
  154.5596  140.2342  155.8324 H   0  0  0  0  0  0  0  0  0  0  0  0  # atno 8009 bound_to 7997
  156.2036  140.3019  155.9586 H   0  0  0  0  0  0  0  0  0  0  0  0  # atno 8010 bound_to 7997
  139.4866  144.5627  151.7202 H   0  0  0  0  0  0  0  0  0  0  0  0  # atno 10167 bound_to 10162
  156.1931  130.6808  151.0449 H   0  0  0  0  0  0  0  0  0  0  0  0  # atno 10718 bound_to 10713
  154.8729  135.3758  154.4613 H   0  0  0  0  0  0  0  0  0  0  0  0  # atno 10763 bound_to 10752
  153.5281  135.7028  153.5702 H   0  0  0  0  0  0  0  0  0  0  0  0  # atno 10764 bound_to 10752
  153.3919  135.3970  155.1894 H   0  0  0  0  0  0  0  0  0  0  0  0  # atno 10765 bound_to 10752
  141.0844  133.6646  156.3805 H   0  0  0  0  0  0  0  0  0  0  0  0  # atno 11005 bound_to 11000
  145.4239  139.1559  143.4059 LP  0  0  0  0  0  0  0  0  0  0  0  0  # atno 17320 bound_to 7965
  146.2889  140.4352  142.8747 LP  0  0  0  0  0  0  0  0  0  0  0  0  # atno 17321 bound_to 7965
  140.5199  144.0894  150.6019 LP  0  0  0  0  0  0  0  0  0  0  0  0  # atno 17342 bound_to 10162
  140.3849  143.2783  152.0128 LP  0  0  0  0  0  0  0  0  0  0  0  0  # atno 17343 bound_to 10162
  157.6941  131.0800  150.7020 LP  0  0  0  0  0  0  0  0  0  0  0  0  # atno 17370 bound_to 10713
  156.7077  130.4642  149.5555 LP  0  0  0  0  0  0  0  0  0  0  0  0  # atno 17371 bound_to 10713
  140.5397  134.6133  157.5376 LP  0  0  0  0  0  0  0  0  0  0  0  0  # atno 17394 bound_to 11000
  139.9660  134.7371  156.0137 LP  0  0  0  0  0  0  0  0  0  0  0  0  # atno 17395 bound_to 11000

$$$$
