AV-unprocessed.smi:1933|AV-procd|sdf|7818|dock6
  -GOLD-   22720 9563D 1   1.00000     0.00000
 Structure written by MMmdl.
 47 49  0  0  0  0  0  0  0  0  1 V2000
  144.9338  136.3322  153.5708 O   0  0  0  0  0  0  0  0  0  0  0  0
  146.0292  136.1971  153.0246 C   0  0  0  0  0  0  0  0  0  0  0  0
  147.0779  136.9961  153.2696 N   0  0  0  0  0  0  0  0  0  0  0  0
  147.0707  138.1121  154.2102 C   0  0  0  0  0  0  0  0  0  0  0  0
  148.3600  138.9749  154.1363 C   0  0  1  0  0  0  0  0  0  0  0  0
  148.0833  140.4938  154.3343 C   0  0  1  0  0  0  0  0  0  0  0  0
  147.1001  141.2026  153.4217 C   0  0  0  0  0  0  0  0  0  0  0  0
  146.9262  142.5272  154.1576 C   0  0  0  0  0  0  0  0  0  0  0  0
  147.0101  142.2033  155.5438 O   0  0  0  0  0  0  0  0  0  0  0  0
  147.5482  140.8925  155.7106 C   0  0  0  0  0  0  0  0  0  0  0  0
  149.5009  138.4384  154.9040 N   0  0  0  0  0  0  0  0  0  0  0  0
  149.6634  136.9827  154.8579 C   0  0  0  0  0  0  0  0  0  0  0  0
  150.8148  136.5150  155.7633 C   0  0  0  0  0  0  0  0  0  0  0  0
  152.0203  137.1601  155.3656 O   0  0  0  0  0  0  0  0  0  0  0  0
  151.9278  138.5805  155.4156 C   0  0  0  0  0  0  0  0  0  0  0  0
  150.7684  139.0593  154.5246 C   0  0  0  0  0  0  0  0  0  0  0  0
  146.3375  135.2491  152.1219 N   0  0  0  0  0  0  0  0  0  0  0  0
  145.5064  134.2104  151.6229 C   0  0  0  0  0  0  0  0  0  0  0  0
  146.1938  133.1063  151.0698 C   0  0  0  0  0  0  0  0  0  0  0  0
  145.4598  132.0211  150.5527 C   0  0  0  0  0  0  0  0  0  0  0  0
  144.0553  132.0681  150.6010 C   0  0  0  0  0  0  0  0  0  0  0  0
  143.4492  133.2051  151.1662 C   0  0  0  0  0  0  0  0  0  0  0  0
  144.1507  134.2457  151.6631 N   0  0  0  0  0  0  0  0  0  0  0  0
  147.9411  136.8191  152.7772 H   0  0  0  0  0  0  0  0  0  0  0  0
  146.1956  138.7227  153.9877 H   0  0  0  0  0  0  0  0  0  0  0  0
  146.9203  137.7197  155.2169 H   0  0  0  0  0  0  0  0  0  0  0  0
  148.6671  138.9317  153.0906 H   0  0  0  0  0  0  0  0  0  0  0  0
  149.0364  141.0138  154.2260 H   0  0  0  0  0  0  0  0  0  0  0  0
  147.4600  141.3238  152.3999 H   0  0  0  0  0  0  0  0  0  0  0  0
  146.1339  140.7052  153.4009 H   0  0  0  0  0  0  0  0  0  0  0  0
  147.7380  143.2115  153.9078 H   0  0  0  0  0  0  0  0  0  0  0  0
  145.9830  143.0188  153.9182 H   0  0  0  0  0  0  0  0  0  0  0  0
  146.7427  140.2308  156.0312 H   0  0  0  0  0  0  0  0  0  0  0  0
  148.3232  140.8768  156.4773 H   0  0  0  0  0  0  0  0  0  0  0  0
  148.7538  136.4664  155.1459 H   0  0  0  0  0  0  0  0  0  0  0  0
  149.8811  136.6634  153.8381 H   0  0  0  0  0  0  0  0  0  0  0  0
  150.5997  136.7370  156.8097 H   0  0  0  0  0  0  0  0  0  0  0  0
  150.9459  135.4358  155.6837 H   0  0  0  0  0  0  0  0  0  0  0  0
  151.7795  138.9044  156.4468 H   0  0  0  0  0  0  0  0  0  0  0  0
  152.8698  139.0116  155.0767 H   0  0  0  0  0  0  0  0  0  0  0  0
  150.9992  138.8363  153.4826 H   0  0  0  0  0  0  0  0  0  0  0  0
  150.6902  140.1443  154.6008 H   0  0  0  0  0  0  0  0  0  0  0  0
  147.2776  135.2666  151.7556 H   0  0  0  0  0  0  0  0  0  0  0  0
  147.2735  133.0860  151.0409 H   0  0  0  0  0  0  0  0  0  0  0  0
  145.9665  131.1676  150.1268 H   0  0  0  0  0  0  0  0  0  0  0  0
  143.4584  131.2549  150.2153 H   0  0  0  0  0  0  0  0  0  0  0  0
  142.3733  133.2810  151.2216 H   0  0  0  0  0  0  0  0  0  0  0  0
  1  2  2  0  0  0  0
  2  3  1  0  0  0  0
  2 17  1  0  0  0  0
  3  4  1  0  0  0  0
  3 24  1  0  0  0  0
  4  5  1  0  0  0  0
  4 25  1  0  0  0  0
  4 26  1  0  0  0  0
  5  6  1  0  0  0  0
  5 11  1  0  0  0  0
  5 27  1  0  0  0  0
  6 10  1  0  0  0  0
  6  7  1  0  0  0  0
  6 28  1  0  0  0  0
  7  8  1  0  0  0  0
  7 29  1  0  0  0  0
  7 30  1  0  0  0  0
  8  9  1  0  0  0  0
  8 31  1  0  0  0  0
  8 32  1  0  0  0  0
  9 10  1  0  0  0  0
 10 33  1  0  0  0  0
 10 34  1  0  0  0  0
 11 16  1  0  0  0  0
 11 12  1  0  0  0  0
 12 13  1  0  0  0  0
 12 35  1  0  0  0  0
 12 36  1  0  0  0  0
 13 14  1  0  0  0  0
 13 37  1  0  0  0  0
 13 38  1  0  0  0  0
 14 15  1  0  0  0  0
 15 16  1  0  0  0  0
 15 39  1  0  0  0  0
 15 40  1  0  0  0  0
 16 41  1  0  0  0  0
 16 42  1  0  0  0  0
 17 18  1  0  0  0  0
 17 43  1  0  0  0  0
 18 23  1  0  0  0  0
 18 19  2  0  0  0  0
 19 20  1  0  0  0  0
 19 44  1  0  0  0  0
 20 21  2  0  0  0  0
 20 45  1  0  0  0  0
 21 22  1  0  0  0  0
 21 46  1  0  0  0  0
 22 23  2  0  0  0  0
 22 47  1  0  0  0  0
M  END
> <s_m_source_file>
AV-unprocessed.smi

> <i_m_source_file_index>
1933

> <i_lp_mmshare_version>
43012

> <i_f3d_flags>
0

> <s_epik_input>
bjFbY0hdW2NIXVtjSF1bY0hdYzFbTkhdQyg9TylbTkhdW0NIMl1bQ0BIXShbQ0BASF0yW0NIMl1bQ0gyXU9bQ0gyXTIpTjNbQ0gyXVtDSDJdT1tDSDJdW0NIMl0z

> <s_epik_cmdline>
J2VwaWtfcHl0aG9uJywgJy1waCcsICc3LjAnLCAnLXRuJywgJzgnLCAnLW1hJywgJzIwMCcsICctbWV0YWxfYmluZGluZycsICctaW1hZScsICc8aW5maWxlLm1hZT4nLCAnLW9tYWUnLCAnPG91dGZpbGUubWFlPic=

> <r_epik_Ionization_Penalty>
0.125062

> <r_epik_Ionization_Penalty_Charging>
0

> <r_epik_Ionization_Penalty_Neutral>
0.125062

> <r_epik_State_Penalty>
0.114484

> <r_epik_Charging_Adjusted_Penalty>
0.114484

> <i_epik_Tot_Q>
0

> <i_epik_Tot_abs_Q>
0

> <r_epik_Metal_State_Penalty>
0.114484

> <b_epik_Metal_Only>
0

> <s_lp_Force_Field>
OPLS_2005

> <r_lp_Energy>
56.0331

> <b_lp_Chiralities_Consistent>
1

> <s_lp_Variant>
AV-unprocessed.smi:1933-4

> <Gold.Version>
5.8.1

> <Gold.Id.Protein>
6NUR|6NUR_protein|mol2

> <Gold.PLP.Fitness>
45.1102

> <Gold.PLP.PLP>
-35.1355

> <Gold.PLP.part.hbond>
-2.8469

> <Gold.PLP.part.metal>
0.0000

> <Gold.PLP.part.buried>
-6.6180

> <Gold.PLP.part.nonpolar>
-27.2130

> <Gold.PLP.part.repulsive>
0.6847

> <Gold.PLP.ligand.clash>
0.0000

> <Gold.PLP.ligand.torsion>
0.7368

> <Gold.PLP.Chemscore.Hbond>
2.8148

> <Gold.PLP.Chemscore.CHOScore>
0.9113

> <Gold.PLP.Chemscore.Metal>
0.0000

> <Gold.Chemscore.Hbonds>
donor molecule, donor type, donor heavy atom, donor atom, acceptor molecule, acceptor atom, score
      L1  H     3    24       P1  7948  0.88
      L1  H    17    43       P1  7948  0.90
      P1  H 10752 10763       L1    14  0.82
      L1  C    22    47       P1 10186  0.89

> <Gold.PLP.Chemscore.Internal.Correction>
0.2704

> <Gold.Rescore>
     Score         DG    S(hbond)    S(metal)    S(lipo)     H(rot)  DE(clash)    DE(int)     intcor
     17.49     -19.56       2.64        0.00      82.63       1.72       0.06       2.01       ----

> <Gold.Chemscore.Fitness>
17.4942

> <Gold.Chemscore.DG>
-19.5606

> <Gold.Chemscore.ZeroCoef>
-5.4800

> <Gold.Chemscore.Hbond>
2.6364

> <Gold.Chemscore.Metal>
0.0000

> <Gold.Chemscore.Lipo>
82.6339

> <Gold.Chemscore.Internal_Hbond>
0.0000

> <Gold.Chemscore.DEClash>
0.0576

> <Gold.Chemscore.DEInternal>
2.0087

> <Gold.Chemscore.Rot>
1.7161

> <Gold.Chemscore.Internal.Correction>
   9.000000E+99

> <Gold.Chemscore.Hbonds>
donor molecule, donor type, donor heavy atom, donor atom, acceptor molecule, acceptor atom, score
      L1  H     3    24       P1  7948  0.85
      L1  H    17    43       P1  7948  0.84
      P1  H 10752 10763       L1    14  0.16

> <Gold.Chemscore.Hbond.Weighted>
-8.8057

> <Gold.Chemscore.Metal.Weighted>
-0.0000

> <Gold.Chemscore.Lipo.Weighted>
-9.6682

> <Gold.Chemscore.Internal_Hbond.Weighted>
0.0000

> <Gold.Chemscore.DEClash.Weighted>
0.0576

> <Gold.Chemscore.DEInternal.Weighted>
2.0087

> <Gold.Chemscore.Rot.Weighted>
4.3932

> <Gold.Chemscore.Internal.Correction.Weighted>
   9.000000E+99

> <Gold.Protein.RotatedTorsions>
[ 6907 6896 6895 6894 ] final -157.66 input  -60.11 | X-H torsion
[ 7974 7965 7964 7962 ] final   19.40 input  175.53 | X-H torsion
[ 8008 7997 7996 7995 ] final   21.41 input   59.86 | X-H torsion
[ 10167 10162 10161 10158 ] final  -39.49 input  -65.29 | X-H torsion
[ 10718 10713 10712 10709 ] final  -76.72 input   66.30 | X-H torsion
[ 10763 10752 10751 10750 ] final   72.75 input  -60.55 | X-H torsion
[ 11005 11000 10999 10996 ] final -165.57 input  -57.11 | X-H torsion

> <Gold.Protein.ActiveResidues>
 VAL166  LYS551  ARG553  GLY616  TRP617  ASP618  TYR619  PRO620  LYS621  CYS622 
 ASP623  PHE694  ASN695  SER759  ASP760  ASP761  ALA762  ILE779  LEU786  VAL792 
 PHE793  MET794  SER795  GLU796  ALA797  LYS798  CYS799  TRP800  GLU811  SER814 

> <Gold.Protein.RotatedAtoms>
  151.3063  133.4100  159.2643 H   0  0  0  0  0  0  0  0  0  0  0  0  # atno 6907 bound_to 6896
  151.0152  134.9428  159.8039 H   0  0  0  0  0  0  0  0  0  0  0  0  # atno 6908 bound_to 6896
  152.5311  134.3027  159.9137 H   0  0  0  0  0  0  0  0  0  0  0  0  # atno 6909 bound_to 6896
  146.2151  139.8319  142.8658 H   0  0  0  0  0  0  0  0  0  0  0  0  # atno 7974 bound_to 7965
  154.9502  140.3064  155.5078 H   0  0  0  0  0  0  0  0  0  0  0  0  # atno 8008 bound_to 7997
  156.2988  140.2320  156.4517 H   0  0  0  0  0  0  0  0  0  0  0  0  # atno 8009 bound_to 7997
  154.8062  140.0431  157.1297 H   0  0  0  0  0  0  0  0  0  0  0  0  # atno 8010 bound_to 7997
  140.7062  143.3211  151.2790 H   0  0  0  0  0  0  0  0  0  0  0  0  # atno 10167 bound_to 10162
  156.0166  130.4473  150.3236 H   0  0  0  0  0  0  0  0  0  0  0  0  # atno 10718 bound_to 10713
  153.0478  135.5088  154.7791 H   0  0  0  0  0  0  0  0  0  0  0  0  # atno 10763 bound_to 10752
  154.6677  135.2948  154.9786 H   0  0  0  0  0  0  0  0  0  0  0  0  # atno 10764 bound_to 10752
  154.0615  135.6690  153.4865 H   0  0  0  0  0  0  0  0  0  0  0  0  # atno 10765 bound_to 10752
  140.5743  134.5206  157.5167 H   0  0  0  0  0  0  0  0  0  0  0  0  # atno 11005 bound_to 11000
  145.2989  141.0188  143.3620 LP  0  0  0  0  0  0  0  0  0  0  0  0  # atno 17320 bound_to 7965
  144.9021  139.4636  143.6627 LP  0  0  0  0  0  0  0  0  0  0  0  0  # atno 17321 bound_to 7965
  139.6665  144.0095  152.2726 LP  0  0  0  0  0  0  0  0  0  0  0  0  # atno 17342 bound_to 10162
  139.9680  144.6513  150.8016 LP  0  0  0  0  0  0  0  0  0  0  0  0  # atno 17343 bound_to 10162
  157.1336  131.0278  151.2958 LP  0  0  0  0  0  0  0  0  0  0  0  0  # atno 17370 bound_to 10713
  157.4530  130.7609  149.7168 LP  0  0  0  0  0  0  0  0  0  0  0  0  # atno 17371 bound_to 10713
  139.9347  134.7897  156.0835 LP  0  0  0  0  0  0  0  0  0  0  0  0  # atno 17394 bound_to 11000
  141.1037  133.6668  156.2813 LP  0  0  0  0  0  0  0  0  0  0  0  0  # atno 17395 bound_to 11000

$$$$
