AV-unprocessed.smi:1534|AV-procd|sdf|6167|dock6
  -GOLD-   22720 6313D 1   1.00000     0.00000
 Structure written by MMmdl.
 36 37  0  0  0  0  0  0  0  0  1 V2000
  141.9090  136.2962  153.2660 O   0  0  0  0  0  0  0  0  0  0  0  0
  142.3977  137.3983  153.0252 C   0  0  0  0  0  0  0  0  0  0  0  0
  143.6828  137.5781  152.6765 N   0  0  0  0  0  0  0  0  0  0  0  0
  144.6824  136.5206  152.5897 C   0  0  0  0  0  0  0  0  0  0  0  0
  144.8469  136.0269  151.1427 C   0  0  0  0  0  0  0  0  0  0  0  0
  144.8781  134.5136  151.0485 C   0  0  0  0  0  0  0  0  0  0  0  0
  143.7222  133.7505  151.3201 C   0  0  0  0  0  0  0  0  0  0  0  0
  143.8050  132.3484  151.2189 C   0  0  0  0  0  0  0  0  0  0  0  0
  145.0330  131.7663  150.8500 C   0  0  0  0  0  0  0  0  0  0  0  0
  146.1284  132.6161  150.5972 C   0  0  0  0  0  0  0  0  0  0  0  0
  146.0601  133.9617  150.6924 N   0  0  0  0  0  0  0  0  0  0  0  0
  141.6708  138.5275  153.0989 N   0  0  0  0  0  0  0  0  0  0  0  0
  140.2567  138.6714  153.4483 C   0  0  1  0  0  0  0  0  0  0  0  0
  139.3917  137.6769  152.6513 C   0  0  0  0  0  0  0  0  0  0  0  0
  138.0016  137.6020  153.2950 C   0  0  0  0  0  0  0  0  0  0  0  0
  138.2480  137.9254  155.0821 S   0  0  0  0  0  0  0  0  0  0  0  0
  137.4444  139.0947  155.4689 O   0  0  0  0  0  0  0  0  0  0  0  0
  138.1586  136.6630  155.8311 O   0  0  0  0  0  0  0  0  0  0  0  0
  140.0074  138.4145  154.9446 C   0  0  0  0  0  0  0  0  0  0  0  0
  143.9973  138.5183  152.4864 H   0  0  0  0  0  0  0  0  0  0  0  0
  145.6372  136.8696  152.9866 H   0  0  0  0  0  0  0  0  0  0  0  0
  144.3604  135.6990  153.2303 H   0  0  0  0  0  0  0  0  0  0  0  0
  144.0291  136.4016  150.5252 H   0  0  0  0  0  0  0  0  0  0  0  0
  145.7645  136.4282  150.7101 H   0  0  0  0  0  0  0  0  0  0  0  0
  142.7938  134.2267  151.5998 H   0  0  0  0  0  0  0  0  0  0  0  0
  142.9422  131.7310  151.4205 H   0  0  0  0  0  0  0  0  0  0  0  0
  145.1332  130.6947  150.7623 H   0  0  0  0  0  0  0  0  0  0  0  0
  147.0847  132.2040  150.3111 H   0  0  0  0  0  0  0  0  0  0  0  0
  142.1512  139.3838  152.8626 H   0  0  0  0  0  0  0  0  0  0  0  0
  139.9138  139.6774  153.1993 H   0  0  0  0  0  0  0  0  0  0  0  0
  139.3290  137.9481  151.5970 H   0  0  0  0  0  0  0  0  0  0  0  0
  139.8482  136.6870  152.6975 H   0  0  0  0  0  0  0  0  0  0  0  0
  137.3498  138.3812  152.8997 H   0  0  0  0  0  0  0  0  0  0  0  0
  137.5172  136.6364  153.1495 H   0  0  0  0  0  0  0  0  0  0  0  0
  140.6117  137.5824  155.3077 H   0  0  0  0  0  0  0  0  0  0  0  0
  140.2028  139.2848  155.5715 H   0  0  0  0  0  0  0  0  0  0  0  0
  1  2  2  0  0  0  0
  2  3  1  0  0  0  0
  2 12  1  0  0  0  0
  3  4  1  0  0  0  0
  3 20  1  0  0  0  0
  4  5  1  0  0  0  0
  4 21  1  0  0  0  0
  4 22  1  0  0  0  0
  5  6  1  0  0  0  0
  5 23  1  0  0  0  0
  5 24  1  0  0  0  0
  6 11  1  0  0  0  0
  6  7  2  0  0  0  0
  7  8  1  0  0  0  0
  7 25  1  0  0  0  0
  8  9  2  0  0  0  0
  8 26  1  0  0  0  0
  9 10  1  0  0  0  0
  9 27  1  0  0  0  0
 10 11  2  0  0  0  0
 10 28  1  0  0  0  0
 12 13  1  0  0  0  0
 12 29  1  0  0  0  0
 13 19  1  0  0  0  0
 13 14  1  0  0  0  0
 13 30  1  0  0  0  0
 14 15  1  0  0  0  0
 14 31  1  0  0  0  0
 14 32  1  0  0  0  0
 15 16  1  0  0  0  0
 15 33  1  0  0  0  0
 15 34  1  0  0  0  0
 16 17  2  0  0  0  0
 16 18  2  0  0  0  0
 16 19  1  0  0  0  0
 19 35  1  0  0  0  0
 19 36  1  0  0  0  0
M  END
> <s_m_source_file>
AV-unprocessed.smi

> <i_m_source_file_index>
1534

> <i_lp_mmshare_version>
43012

> <i_f3d_flags>
0

> <s_epik_input>
Tz1TMSg9TylbQ0gyXVtDSDJdW0NASF0oW0NIMl0xKVtOSF1DKD1PKVtOSF1bQ0gyXVtDSDJdYzJbY0hdW2NIXVtjSF1bY0hdbjI=

> <s_epik_cmdline>
J2VwaWtfcHl0aG9uJywgJy1waCcsICc3LjAnLCAnLXRuJywgJzgnLCAnLW1hJywgJzIwMCcsICctbWV0YWxfYmluZGluZycsICctaW1hZScsICc8aW5maWxlLm1hZT4nLCAnLW9tYWUnLCAnPG91dGZpbGUubWFlPic=

> <r_epik_Ionization_Penalty>
0.0423605

> <r_epik_Ionization_Penalty_Charging>
0

> <r_epik_Ionization_Penalty_Neutral>
0.0423605

> <r_epik_State_Penalty>
0.0357408

> <r_epik_Charging_Adjusted_Penalty>
0.0357408

> <i_epik_Tot_Q>
0

> <i_epik_Tot_abs_Q>
0

> <r_epik_Metal_State_Penalty>
0.033344

> <b_epik_Metal_Only>
0

> <s_lp_Force_Field>
OPLS_2005

> <r_lp_Energy>
9.82399

> <b_lp_Chiralities_Consistent>
1

> <s_lp_Variant>
AV-unprocessed.smi:1534-2

> <Gold.Version>
5.8.1

> <Gold.Id.Protein>
6NUR|6NUR_protein|mol2

> <Gold.PLP.Fitness>
43.3282

> <Gold.PLP.PLP>
-32.6881

> <Gold.PLP.part.hbond>
-3.9775

> <Gold.PLP.part.metal>
0.0000

> <Gold.PLP.part.buried>
-5.2696

> <Gold.PLP.part.nonpolar>
-25.3645

> <Gold.PLP.part.repulsive>
1.4362

> <Gold.PLP.ligand.clash>
0.0000

> <Gold.PLP.ligand.torsion>
0.6764

> <Gold.PLP.Chemscore.Hbond>
2.9920

> <Gold.PLP.Chemscore.CHOScore>
1.0000

> <Gold.PLP.Chemscore.Metal>
0.0000

> <Gold.Chemscore.Hbonds>
donor molecule, donor type, donor heavy atom, donor atom, acceptor molecule, acceptor atom, score
      L1  H     3    20       P1 10175  0.99
      L1  H    12    29       P1 10175  1.00
      L1  C    10    28       P1 10747  1.00

> <Gold.PLP.Chemscore.Internal.Correction>
0.0170

> <Gold.Rescore>
     Score         DG    S(hbond)    S(metal)    S(lipo)     H(rot)  DE(clash)    DE(int)     intcor
     17.43     -19.57       2.90        0.00      75.56       1.73       0.33       1.80       ----

> <Gold.Chemscore.Fitness>
17.4337

> <Gold.Chemscore.DG>
-19.5662

> <Gold.Chemscore.ZeroCoef>
-5.4800

> <Gold.Chemscore.Hbond>
2.9003

> <Gold.Chemscore.Metal>
0.0000

> <Gold.Chemscore.Lipo>
75.5570

> <Gold.Chemscore.Internal_Hbond>
0.0000

> <Gold.Chemscore.DEClash>
0.3331

> <Gold.Chemscore.DEInternal>
1.7994

> <Gold.Chemscore.Rot>
1.7348

> <Gold.Chemscore.Internal.Correction>
   9.000000E+99

> <Gold.Chemscore.Hbonds>
donor molecule, donor type, donor heavy atom, donor atom, acceptor molecule, acceptor atom, score
      L1  H     3    20       P1 10175  0.93
      L1  H    12    29       P1 10175  0.87
      P1  H 11000 11005       L1    18  0.03

> <Gold.Chemscore.Hbond.Weighted>
-9.6870

> <Gold.Chemscore.Metal.Weighted>
-0.0000

> <Gold.Chemscore.Lipo.Weighted>
-8.8402

> <Gold.Chemscore.Internal_Hbond.Weighted>
0.0000

> <Gold.Chemscore.DEClash.Weighted>
0.3331

> <Gold.Chemscore.DEInternal.Weighted>
1.7994

> <Gold.Chemscore.Rot.Weighted>
4.4410

> <Gold.Chemscore.Internal.Correction.Weighted>
   9.000000E+99

> <Gold.Protein.RotatedTorsions>
[ 6907 6896 6895 6894 ] final  109.43 input  -60.11 | X-H torsion
[ 7974 7965 7964 7962 ] final  -70.19 input  175.53 | X-H torsion
[ 8008 7997 7996 7995 ] final  132.44 input   59.86 | X-H torsion
[ 10167 10162 10161 10158 ] final   15.93 input  -65.29 | X-H torsion
[ 10718 10713 10712 10709 ] final -134.50 input   66.30 | X-H torsion
[ 10763 10752 10751 10750 ] final   76.57 input  -60.55 | X-H torsion
[ 11005 11000 10999 10996 ] final  103.72 input  -57.11 | X-H torsion

> <Gold.Protein.ActiveResidues>
 VAL166  LYS551  ARG553  GLY616  TRP617  ASP618  TYR619  PRO620  LYS621  CYS622 
 ASP623  PHE694  ASN695  SER759  ASP760  ASP761  ALA762  ILE779  LEU786  VAL792 
 PHE793  MET794  SER795  GLU796  ALA797  LYS798  CYS799  TRP800  GLU811  SER814 

> <Gold.Protein.RotatedAtoms>
  152.5067  133.8945  159.7409 H   0  0  0  0  0  0  0  0  0  0  0  0  # atno 6907 bound_to 6896
  150.9376  133.6685  159.2804 H   0  0  0  0  0  0  0  0  0  0  0  0  # atno 6908 bound_to 6896
  151.4008  135.0975  159.9608 H   0  0  0  0  0  0  0  0  0  0  0  0  # atno 6909 bound_to 6896
  145.6941  140.9142  143.0766 H   0  0  0  0  0  0  0  0  0  0  0  0  # atno 7974 bound_to 7965
  156.2982  140.2546  156.3089 H   0  0  0  0  0  0  0  0  0  0  0  0  # atno 8008 bound_to 7997
  154.9345  140.0397  157.2084 H   0  0  0  0  0  0  0  0  0  0  0  0  # atno 8009 bound_to 7997
  154.8185  140.2856  155.5807 H   0  0  0  0  0  0  0  0  0  0  0  0  # atno 8010 bound_to 7997
  140.5833  143.8939  150.6808 H   0  0  0  0  0  0  0  0  0  0  0  0  # atno 10167 bound_to 10162
  156.2561  130.7182  151.1099 H   0  0  0  0  0  0  0  0  0  0  0  0  # atno 10718 bound_to 10713
  153.0735  135.4946  154.8355 H   0  0  0  0  0  0  0  0  0  0  0  0  # atno 10763 bound_to 10752
  154.7055  135.3010  154.9278 H   0  0  0  0  0  0  0  0  0  0  0  0  # atno 10764 bound_to 10752
  153.9989  135.6769  153.4811 H   0  0  0  0  0  0  0  0  0  0  0  0  # atno 10765 bound_to 10752
  139.8786  134.9274  156.5253 H   0  0  0  0  0  0  0  0  0  0  0  0  # atno 11005 bound_to 11000
  144.6988  139.8860  143.7450 LP  0  0  0  0  0  0  0  0  0  0  0  0  # atno 17320 bound_to 7965
  146.0856  139.3844  143.0437 LP  0  0  0  0  0  0  0  0  0  0  0  0  # atno 17321 bound_to 7965
  140.2443  143.3640  152.1460 LP  0  0  0  0  0  0  0  0  0  0  0  0  # atno 17342 bound_to 10162
  139.5182  144.7003  151.5512 LP  0  0  0  0  0  0  0  0  0  0  0  0  # atno 17343 bound_to 10162
  157.7233  131.0667  150.6042 LP  0  0  0  0  0  0  0  0  0  0  0  0  # atno 17370 bound_to 10713
  156.6126  130.4384  149.5853 LP  0  0  0  0  0  0  0  0  0  0  0  0  # atno 17371 bound_to 10713
  140.8421  133.8197  155.9085 LP  0  0  0  0  0  0  0  0  0  0  0  0  # atno 17394 bound_to 11000
  140.9227  134.2121  157.4916 LP  0  0  0  0  0  0  0  0  0  0  0  0  # atno 17395 bound_to 11000

$$$$
