AV-unprocessed.smi:381|AV-procd|sdf|2462|dock6
  -GOLD-   2262022403D 1   1.00000     0.00000
 Structure written by MMmdl.
 46 47  0  0  0  0  0  0  0  0  2 V2000
  146.1464  137.2886  154.9669 O   0  0  0  0  0  0  0  0  0  0  0  0
  146.9498  136.9784  154.0894 C   0  0  0  0  0  0  0  0  0  0  0  0
  146.5877  136.4120  152.9270 N   0  0  0  0  0  0  0  0  0  0  0  0
  145.2130  136.1117  152.5535 C   0  0  0  0  0  0  0  0  0  0  0  0
  145.1176  135.7652  151.0618 C   0  0  0  0  0  0  0  0  0  0  0  0
  145.2784  134.2781  150.8120 C   0  0  0  0  0  0  0  0  0  0  0  0
  144.1771  133.4980  150.3946 C   0  0  0  0  0  0  0  0  0  0  0  0
  144.3558  132.1188  150.1588 C   0  0  0  0  0  0  0  0  0  0  0  0
  145.6317  131.5499  150.3479 C   0  0  0  0  0  0  0  0  0  0  0  0
  146.6617  132.3272  150.7493 N   0  3  0  0  0  0  0  0  0  0  0  0
  146.5319  133.6518  150.9837 C   0  0  0  0  0  0  0  0  0  0  0  0
  148.2707  137.1918  154.2294 N   0  0  0  0  0  0  0  0  0  0  0  0
  148.9926  137.7846  155.3595 C   0  0  0  0  0  0  0  0  0  0  0  0
  148.7504  139.3120  155.3373 C   0  0  0  0  0  0  0  0  0  0  0  0
  149.5393  140.1469  156.3632 C   0  0  0  0  0  0  0  0  0  0  0  0
  150.8664  140.7478  155.8459 C   0  0  0  0  0  0  0  0  0  0  0  0
  152.1108  139.8576  156.0214 C   0  0  0  0  0  0  0  0  0  0  0  0
  152.4669  138.9324  154.8383 C   0  0  0  0  0  0  0  0  0  0  0  0
  151.3359  138.0548  154.2726 C   0  0  0  0  0  0  0  0  0  0  0  0
  150.4761  137.3499  155.3401 C   0  0  0  0  0  0  0  0  0  0  0  0
  147.3102  136.1886  152.2581 H   0  0  0  0  0  0  0  0  0  0  0  0
  144.8430  135.2786  153.1536 H   0  0  0  0  0  0  0  0  0  0  0  0
  144.5875  136.9762  152.7806 H   0  0  0  0  0  0  0  0  0  0  0  0
  144.1585  136.0961  150.6609 H   0  0  0  0  0  0  0  0  0  0  0  0
  145.8865  136.3006  150.5028 H   0  0  0  0  0  0  0  0  0  0  0  0
  143.2067  133.9514  150.2518 H   0  0  0  0  0  0  0  0  0  0  0  0
  143.5259  131.5072  149.8360 H   0  0  0  0  0  0  0  0  0  0  0  0
  145.8584  130.5058  150.1901 H   0  0  0  0  0  0  0  0  0  0  0  0
  147.4293  134.1655  151.2965 H   0  0  0  0  0  0  0  0  0  0  0  0
  148.8492  136.9033  153.4534 H   0  0  0  0  0  0  0  0  0  0  0  0
  148.5554  137.4137  156.2880 H   0  0  0  0  0  0  0  0  0  0  0  0
  148.9028  139.7215  154.3383 H   0  0  0  0  0  0  0  0  0  0  0  0
  147.6885  139.4668  155.5342 H   0  0  0  0  0  0  0  0  0  0  0  0
  148.9024  140.9900  156.6341 H   0  0  0  0  0  0  0  0  0  0  0  0
  149.6865  139.5941  157.2915 H   0  0  0  0  0  0  0  0  0  0  0  0
  150.7732  141.0894  154.8146 H   0  0  0  0  0  0  0  0  0  0  0  0
  151.0458  141.6523  156.4286 H   0  0  0  0  0  0  0  0  0  0  0  0
  152.9700  140.5114  156.1756 H   0  0  0  0  0  0  0  0  0  0  0  0
  152.0337  139.2897  156.9485 H   0  0  0  0  0  0  0  0  0  0  0  0
  152.8701  139.5355  154.0239 H   0  0  0  0  0  0  0  0  0  0  0  0
  153.2859  138.2851  155.1539 H   0  0  0  0  0  0  0  0  0  0  0  0
  150.7174  138.6498  153.6024 H   0  0  0  0  0  0  0  0  0  0  0  0
  151.7827  137.2989  153.6260 H   0  0  0  0  0  0  0  0  0  0  0  0
  150.9013  137.4846  156.3328 H   0  0  0  0  0  0  0  0  0  0  0  0
  150.5347  136.2730  155.1789 H   0  0  0  0  0  0  0  0  0  0  0  0
  147.5771  131.8959  150.8791 H   0  0  0  0  0  0  0  0  0  0  0  0
  1  2  2  0  0  0  0
  2  3  1  0  0  0  0
  2 12  1  0  0  0  0
  3  4  1  0  0  0  0
  3 21  1  0  0  0  0
  4  5  1  0  0  0  0
  4 22  1  0  0  0  0
  4 23  1  0  0  0  0
  5  6  1  0  0  0  0
  5 24  1  0  0  0  0
  5 25  1  0  0  0  0
  6 11  1  0  0  0  0
  6  7  2  0  0  0  0
  7  8  1  0  0  0  0
  7 26  1  0  0  0  0
  8  9  2  0  0  0  0
  8 27  1  0  0  0  0
  9 10  1  0  0  0  0
  9 28  1  0  0  0  0
 10 11  2  0  0  0  0
 10 46  1  0  0  0  0
 11 29  1  0  0  0  0
 12 13  1  0  0  0  0
 12 30  1  0  0  0  0
 13 20  1  0  0  0  0
 13 14  1  0  0  0  0
 13 31  1  0  0  0  0
 14 15  1  0  0  0  0
 14 32  1  0  0  0  0
 14 33  1  0  0  0  0
 15 16  1  0  0  0  0
 15 34  1  0  0  0  0
 15 35  1  0  0  0  0
 16 17  1  0  0  0  0
 16 36  1  0  0  0  0
 16 37  1  0  0  0  0
 17 18  1  0  0  0  0
 17 38  1  0  0  0  0
 17 39  1  0  0  0  0
 18 19  1  0  0  0  0
 18 40  1  0  0  0  0
 18 41  1  0  0  0  0
 19 20  1  0  0  0  0
 19 42  1  0  0  0  0
 19 43  1  0  0  0  0
 20 44  1  0  0  0  0
 20 45  1  0  0  0  0
M  CHG  1  10   1
M  END
> <s_m_source_file>
AV-unprocessed.smi

> <i_m_source_file_index>
381

> <i_lp_mmshare_version>
43012

> <i_f3d_flags>
0

> <s_epik_input>
W0NIMl0xW0NIMl1bQ0gyXVtDSDJdW0NIMl1bQ0gyXVtDSDJdW0NIXTFbTkhdQyg9TylbTkhdW0NIMl1bQ0gyXWMyW2NIXVtjSF1bY0hdbltjSF0y

> <s_epik_cmdline>
J2VwaWtfcHl0aG9uJywgJy1waCcsICc3LjAnLCAnLXRuJywgJzgnLCAnLW1hJywgJzIwMCcsICctbWV0YWxfYmluZGluZycsICctaW1hZScsICc8aW5maWxlLm1hZT4nLCAnLW9tYWUnLCAnPG91dGZpbGUubWFlPic=

> <r_epik_Ionization_Penalty>
2.21063

> <r_epik_Ionization_Penalty_Charging>
2.21057

> <r_epik_Ionization_Penalty_Neutral>
5.85974e-05

> <r_epik_State_Penalty>
2.35476

> <r_epik_Charging_Adjusted_Penalty>
4.56533

> <i_epik_Tot_Q>
1

> <i_epik_Tot_abs_Q>
1

> <r_epik_Metal_State_Penalty>
2.36886

> <b_epik_Metal_Only>
0

> <s_lp_Force_Field>
OPLS_2005

> <r_lp_Energy>
36.9097

> <b_lp_Chiralities_Consistent>
1

> <s_lp_Variant>
AV-unprocessed.smi:381-2

> <Gold.Version>
5.8.1

> <Gold.Id.Protein>
6NUR|6NUR_protein|mol2

> <Gold.PLP.Fitness>
44.2349

> <Gold.PLP.PLP>
-36.4585

> <Gold.PLP.part.hbond>
-3.0000

> <Gold.PLP.part.metal>
0.0000

> <Gold.PLP.part.buried>
-5.1139

> <Gold.PLP.part.nonpolar>
-29.3597

> <Gold.PLP.part.repulsive>
0.1126

> <Gold.PLP.ligand.clash>
0.0000

> <Gold.PLP.ligand.torsion>
0.6153

> <Gold.PLP.Chemscore.Hbond>
2.9920

> <Gold.PLP.Chemscore.CHOScore>
0.0000

> <Gold.PLP.Chemscore.Metal>
0.0000

> <Gold.Chemscore.Hbonds>
donor molecule, donor type, donor heavy atom, donor atom, acceptor molecule, acceptor atom, score
      L1  H     3    21       P1  7948  0.98
      L1  H    10    46       P1 10747  1.00
      L1  H    12    30       P1  7948  0.99

> <Gold.PLP.Chemscore.Internal.Correction>
0.0309

> <Gold.Rescore>
     Score         DG    S(hbond)    S(metal)    S(lipo)     H(rot)  DE(clash)    DE(int)     intcor
     22.02     -22.79       2.87        0.00      99.18       1.51       0.10       0.67       ----

> <Gold.Chemscore.Fitness>
22.0166

> <Gold.Chemscore.DG>
-22.7927

> <Gold.Chemscore.ZeroCoef>
-5.4800

> <Gold.Chemscore.Hbond>
2.8654

> <Gold.Chemscore.Metal>
0.0000

> <Gold.Chemscore.Lipo>
99.1785

> <Gold.Chemscore.Internal_Hbond>
0.0000

> <Gold.Chemscore.DEClash>
0.1026

> <Gold.Chemscore.DEInternal>
0.6736

> <Gold.Chemscore.Rot>
1.5085

> <Gold.Chemscore.Internal.Correction>
   9.000000E+99

> <Gold.Chemscore.Hbonds>
donor molecule, donor type, donor heavy atom, donor atom, acceptor molecule, acceptor atom, score
      L1  H     3    21       P1  7948  0.93
      L1  H    10    46       P1 10747  0.95
      L1  H    12    30       P1  7948  0.94

> <Gold.Chemscore.Hbond.Weighted>
-9.5706

> <Gold.Chemscore.Metal.Weighted>
-0.0000

> <Gold.Chemscore.Lipo.Weighted>
-11.6039

> <Gold.Chemscore.Internal_Hbond.Weighted>
0.0000

> <Gold.Chemscore.DEClash.Weighted>
0.1026

> <Gold.Chemscore.DEInternal.Weighted>
0.6736

> <Gold.Chemscore.Rot.Weighted>
3.8617

> <Gold.Chemscore.Internal.Correction.Weighted>
   9.000000E+99

> <Gold.Protein.RotatedTorsions>
[ 6907 6896 6895 6894 ] final   16.22 input  -60.11 | X-H torsion
[ 7974 7965 7964 7962 ] final   70.94 input  175.53 | X-H torsion
[ 8008 7997 7996 7995 ] final  -97.57 input   59.86 | X-H torsion
[ 10167 10162 10161 10158 ] final   30.15 input  -65.29 | X-H torsion
[ 10718 10713 10712 10709 ] final  103.21 input   66.30 | X-H torsion
[ 10763 10752 10751 10750 ] final  -93.75 input  -60.55 | X-H torsion
[ 11005 11000 10999 10996 ] final  144.16 input  -57.11 | X-H torsion

> <Gold.Protein.ActiveResidues>
 VAL166  LYS551  ARG553  GLY616  TRP617  ASP618  TYR619  PRO620  LYS621  CYS622 
 ASP623  PHE694  ASN695  SER759  ASP760  ASP761  ALA762  ILE779  LEU786  VAL792 
 PHE793  MET794  SER795  GLU796  ALA797  LYS798  CYS799  TRP800  GLU811  SER814 

> <Gold.Protein.RotatedAtoms>
  151.8305  135.0623  160.0435 H   0  0  0  0  0  0  0  0  0  0  0  0  # atno 6907 bound_to 6896
  152.2884  133.5533  159.5550 H   0  0  0  0  0  0  0  0  0  0  0  0  # atno 6908 bound_to 6896
  150.7219  134.0380  159.3798 H   0  0  0  0  0  0  0  0  0  0  0  0  # atno 6909 bound_to 6896
  145.7719  139.2847  143.1316 H   0  0  0  0  0  0  0  0  0  0  0  0  # atno 7974 bound_to 7965
  154.7895  140.0462  157.1190 H   0  0  0  0  0  0  0  0  0  0  0  0  # atno 8008 bound_to 7997
  154.9608  140.3077  155.5012 H   0  0  0  0  0  0  0  0  0  0  0  0  # atno 8009 bound_to 7997
  156.2948  140.2271  156.4693 H   0  0  0  0  0  0  0  0  0  0  0  0  # atno 8010 bound_to 7997
  140.4703  144.0772  150.6235 H   0  0  0  0  0  0  0  0  0  0  0  0  # atno 10167 bound_to 10162
  157.6779  131.0773  150.5521 H   0  0  0  0  0  0  0  0  0  0  0  0  # atno 10718 bound_to 10713
  154.6989  135.5183  153.8498 H   0  0  0  0  0  0  0  0  0  0  0  0  # atno 10763 bound_to 10752
  153.0688  135.6594  154.0302 H   0  0  0  0  0  0  0  0  0  0  0  0  # atno 10764 bound_to 10752
  154.0164  135.2997  155.3366 H   0  0  0  0  0  0  0  0  0  0  0  0  # atno 10765 bound_to 10752
  140.0610  134.9204  157.1184 H   0  0  0  0  0  0  0  0  0  0  0  0  # atno 11005 bound_to 11000
  146.0161  140.8391  142.9947 LP  0  0  0  0  0  0  0  0  0  0  0  0  # atno 17320 bound_to 7965
  144.6811  140.2560  143.7325 LP  0  0  0  0  0  0  0  0  0  0  0  0  # atno 17321 bound_to 7965
  140.3985  143.2716  151.9976 LP  0  0  0  0  0  0  0  0  0  0  0  0  # atno 17342 bound_to 10162
  139.4817  144.6018  151.7593 LP  0  0  0  0  0  0  0  0  0  0  0  0  # atno 17343 bound_to 10162
  156.5826  130.4308  149.5971 LP  0  0  0  0  0  0  0  0  0  0  0  0  # atno 17370 bound_to 10713
  156.2649  130.6983  151.1763 LP  0  0  0  0  0  0  0  0  0  0  0  0  # atno 17371 bound_to 10713
  140.3770  134.2329  155.7173 LP  0  0  0  0  0  0  0  0  0  0  0  0  # atno 17394 bound_to 11000
  141.1973  133.8062  157.0633 LP  0  0  0  0  0  0  0  0  0  0  0  0  # atno 17395 bound_to 11000

$$$$
