AV-unprocessed.smi:2416|AV-procd|sdf|9545|dock10
  -GOLD-   2272013173D 1   1.00000     0.00000
 Structure written by MMmdl.
 40 41  0  0  0  0  0  0  0  0  1 V2000
  145.1499  130.5902  151.4279 C   0  0  0  0  0  0  0  0  0  0  0  0
  144.4406  131.8130  151.5839 O   0  0  0  0  0  0  0  0  0  0  0  0
  144.8398  132.9166  150.7588 C   0  0  2  0  0  0  0  0  0  0  0  0
  144.4133  132.6824  149.3041 C   0  0  0  0  0  0  0  0  0  0  0  0
  146.2982  133.3100  151.0646 C   0  0  0  0  0  0  0  0  0  0  0  0
  145.7543  134.1206  152.2393 C   0  0  1  0  0  0  0  0  0  0  0  0
  146.4706  135.3762  152.4405 N   0  0  0  0  0  0  0  0  0  0  0  0
  145.9680  136.4353  153.0902 C   0  0  0  0  0  0  0  0  0  0  0  0
  144.8381  136.4549  153.5795 O   0  0  0  0  0  0  0  0  0  0  0  0
  146.8505  137.4496  153.1287 N   0  0  0  0  0  0  0  0  0  0  0  0
  146.6914  138.7288  153.7264 C   0  0  0  0  0  0  0  0  0  0  0  0
  147.2933  139.7972  153.0229 C   0  0  0  0  0  0  0  0  0  0  0  0
  147.1950  141.1062  153.5338 C   0  0  0  0  0  0  0  0  0  0  0  0
  146.4952  141.3116  154.7361 C   0  0  0  0  0  0  0  0  0  0  0  0
  146.3740  142.5518  155.2660 F   0  0  0  0  0  0  0  0  0  0  0  0
  145.9236  140.1952  155.3735 C   0  0  0  0  0  0  0  0  0  0  0  0
  146.0179  138.9401  154.8851 N   0  0  0  0  0  0  0  0  0  0  0  0
  144.4140  134.2436  151.4690 C   0  0  0  0  0  0  0  0  0  0  0  0
  144.2489  135.4742  150.5568 C   0  0  0  0  0  0  0  0  0  0  0  0
  143.1430  134.1872  152.3239 C   0  0  0  0  0  0  0  0  0  0  0  0
  144.8539  129.9048  152.2219 H   0  0  0  0  0  0  0  0  0  0  0  0
  146.2292  130.7236  151.4920 H   0  0  0  0  0  0  0  0  0  0  0  0
  144.9120  130.1070  150.4806 H   0  0  0  0  0  0  0  0  0  0  0  0
  144.6142  133.5511  148.6783 H   0  0  0  0  0  0  0  0  0  0  0  0
  143.3465  132.4692  149.2341 H   0  0  0  0  0  0  0  0  0  0  0  0
  144.9525  131.8518  148.8491 H   0  0  0  0  0  0  0  0  0  0  0  0
  146.9649  132.4979  151.3532 H   0  0  0  0  0  0  0  0  0  0  0  0
  146.7454  133.9221  150.2794 H   0  0  0  0  0  0  0  0  0  0  0  0
  145.6707  133.5112  153.1423 H   0  0  0  0  0  0  0  0  0  0  0  0
  147.4063  135.4373  152.0668 H   0  0  0  0  0  0  0  0  0  0  0  0
  147.7414  137.2858  152.6841 H   0  0  0  0  0  0  0  0  0  0  0  0
  147.8273  139.6201  152.1008 H   0  0  0  0  0  0  0  0  0  0  0  0
  147.6489  141.9360  153.0124 H   0  0  0  0  0  0  0  0  0  0  0  0
  145.3776  140.3108  156.2981 H   0  0  0  0  0  0  0  0  0  0  0  0
  144.1325  136.3913  151.1353 H   0  0  0  0  0  0  0  0  0  0  0  0
  143.3692  135.3835  149.9189 H   0  0  0  0  0  0  0  0  0  0  0  0
  145.1072  135.6194  149.9008 H   0  0  0  0  0  0  0  0  0  0  0  0
  142.9615  135.1325  152.8359 H   0  0  0  0  0  0  0  0  0  0  0  0
  143.2053  133.4220  153.0979 H   0  0  0  0  0  0  0  0  0  0  0  0
  142.2643  133.9651  151.7177 H   0  0  0  0  0  0  0  0  0  0  0  0
  1  2  1  0  0  0  0
  1 21  1  0  0  0  0
  1 22  1  0  0  0  0
  1 23  1  0  0  0  0
  2  3  1  0  0  0  0
  3 18  1  0  0  0  0
  3  4  1  0  0  0  0
  3  5  1  0  0  0  0
  4 24  1  0  0  0  0
  4 25  1  0  0  0  0
  4 26  1  0  0  0  0
  5  6  1  0  0  0  0
  5 27  1  0  0  0  0
  5 28  1  0  0  0  0
  6  7  1  0  0  0  0
  6 18  1  0  0  0  0
  6 29  1  0  0  0  0
  7  8  1  0  0  0  0
  7 30  1  0  0  0  0
  8  9  2  0  0  0  0
  8 10  1  0  0  0  0
 10 11  1  0  0  0  0
 10 31  1  0  0  0  0
 11 17  1  0  0  0  0
 11 12  2  0  0  0  0
 12 13  1  0  0  0  0
 12 32  1  0  0  0  0
 13 14  2  0  0  0  0
 13 33  1  0  0  0  0
 14 15  1  0  0  0  0
 14 16  1  0  0  0  0
 16 17  2  0  0  0  0
 16 34  1  0  0  0  0
 18 19  1  0  0  0  0
 18 20  1  0  0  0  0
 19 35  1  0  0  0  0
 19 36  1  0  0  0  0
 19 37  1  0  0  0  0
 20 38  1  0  0  0  0
 20 39  1  0  0  0  0
 20 40  1  0  0  0  0
M  END
> <s_m_source_file>
AV-unprocessed.smi

> <i_m_source_file_index>
2416

> <i_lp_mmshare_version>
43012

> <i_f3d_flags>
0

> <s_epik_input>
W0NIM11PW0NAQF0xKFtDSDNdKVtDSDJdW0NASF0oQzEoW0NIM10pW0NIM10pW05IXUMoPU8pW05IXWMyW2NIXVtjSF1jKEYpW2NIXW4y

> <s_epik_cmdline>
J2VwaWtfcHl0aG9uJywgJy1waCcsICc3LjAnLCAnLXRuJywgJzgnLCAnLW1hJywgJzIwMCcsICctbWV0YWxfYmluZGluZycsICctaW1hZScsICc8aW5maWxlLm1hZT4nLCAnLW9tYWUnLCAnPG91dGZpbGUubWFlPic=

> <r_lp_tautomer_probability>
1

> <r_epik_Ionization_Penalty>
3.67756e-05

> <r_epik_Ionization_Penalty_Charging>
0

> <r_epik_Ionization_Penalty_Neutral>
3.67756e-05

> <r_epik_State_Penalty>
-0

> <r_epik_Charging_Adjusted_Penalty>
0

> <i_epik_Tot_Q>
0

> <i_epik_Tot_abs_Q>
0

> <r_epik_Metal_State_Penalty>
-0

> <b_epik_Metal_Only>
0

> <s_lp_Force_Field>
OPLS_2005

> <r_lp_Energy>
27.4355

> <b_lp_Chiralities_Consistent>
1

> <s_lp_Variant>
AV-unprocessed.smi:2416-2

> <Gold.Version>
5.8.1

> <Gold.Id.Protein>
6NUR|6NUR_protein|mol2

> <Gold.PLP.Fitness>
38.2080

> <Gold.PLP.PLP>
-33.0063

> <Gold.PLP.part.hbond>
-2.0000

> <Gold.PLP.part.metal>
0.0000

> <Gold.PLP.part.buried>
-3.6350

> <Gold.PLP.part.nonpolar>
-27.7510

> <Gold.PLP.part.repulsive>
0.3862

> <Gold.PLP.ligand.clash>
0.0000

> <Gold.PLP.ligand.torsion>
0.5857

> <Gold.PLP.Chemscore.Hbond>
2.0000

> <Gold.PLP.Chemscore.CHOScore>
0.0000

> <Gold.PLP.Chemscore.Metal>
0.0000

> <Gold.Chemscore.Hbonds>
donor molecule, donor type, donor heavy atom, donor atom, acceptor molecule, acceptor atom, score
      L1  H     7    30       P1  7948  1.00
      L1  H    10    31       P1  7948  1.00

> <Gold.PLP.Chemscore.Internal.Correction>
0.3730

> <Gold.Rescore>
     Score         DG    S(hbond)    S(metal)    S(lipo)     H(rot)  DE(clash)    DE(int)     intcor
     17.00     -18.34       1.95        0.00      82.01       1.27       0.01       1.33       ----

> <Gold.Chemscore.Fitness>
17.0006

> <Gold.Chemscore.DG>
-18.3432

> <Gold.Chemscore.ZeroCoef>
-5.4800

> <Gold.Chemscore.Hbond>
1.9483

> <Gold.Chemscore.Metal>
0.0000

> <Gold.Chemscore.Lipo>
82.0108

> <Gold.Chemscore.Internal_Hbond>
0.0000

> <Gold.Chemscore.DEClash>
0.0096

> <Gold.Chemscore.DEInternal>
1.3330

> <Gold.Chemscore.Rot>
1.2653

> <Gold.Chemscore.Internal.Correction>
   9.000000E+99

> <Gold.Chemscore.Hbonds>
donor molecule, donor type, donor heavy atom, donor atom, acceptor molecule, acceptor atom, score
      L1  H     7    30       P1  7948  0.98
      L1  H    10    31       P1  7948  0.97

> <Gold.Chemscore.Hbond.Weighted>
-6.5072

> <Gold.Chemscore.Metal.Weighted>
-0.0000

> <Gold.Chemscore.Lipo.Weighted>
-9.5953

> <Gold.Chemscore.Internal_Hbond.Weighted>
0.0000

> <Gold.Chemscore.DEClash.Weighted>
0.0096

> <Gold.Chemscore.DEInternal.Weighted>
1.3330

> <Gold.Chemscore.Rot.Weighted>
3.2392

> <Gold.Chemscore.Internal.Correction.Weighted>
   9.000000E+99

> <Gold.Protein.RotatedTorsions>
[ 6907 6896 6895 6894 ] final  -31.32 input  -60.11 | X-H torsion
[ 7974 7965 7964 7962 ] final   -2.78 input  175.53 | X-H torsion
[ 8008 7997 7996 7995 ] final   -3.48 input   59.86 | X-H torsion
[ 10167 10162 10161 10158 ] final -152.56 input  -65.29 | X-H torsion
[ 10718 10713 10712 10709 ] final   33.66 input   66.30 | X-H torsion
[ 10763 10752 10751 10750 ] final -138.93 input  -60.55 | X-H torsion
[ 11005 11000 10999 10996 ] final   45.17 input  -57.11 | X-H torsion

> <Gold.Protein.ActiveResidues>
 VAL166  LYS551  ARG553  GLY616  TRP617  ASP618  TYR619  PRO620  LYS621  CYS622 
 ASP623  PHE694  ASN695  SER759  ASP760  ASP761  ALA762  ILE779  LEU786  VAL792 
 PHE793  MET794  SER795  GLU796  ALA797  LYS798  CYS799  TRP800  GLU811  SER814 

> <Gold.Protein.RotatedAtoms>
  151.0937  134.9931  159.8414 H   0  0  0  0  0  0  0  0  0  0  0  0  # atno 6907 bound_to 6896
  152.5431  134.2035  159.8731 H   0  0  0  0  0  0  0  0  0  0  0  0  # atno 6908 bound_to 6896
  151.2073  133.4532  159.2631 H   0  0  0  0  0  0  0  0  0  0  0  0  # atno 6909 bound_to 6896
  146.2399  140.1623  142.8332 H   0  0  0  0  0  0  0  0  0  0  0  0  # atno 7974 bound_to 7965
  154.6245  140.2508  155.7509 H   0  0  0  0  0  0  0  0  0  0  0  0  # atno 8008 bound_to 7997
  156.2445  140.2920  156.0488 H   0  0  0  0  0  0  0  0  0  0  0  0  # atno 8009 bound_to 7997
  155.1843  140.0390  157.2878 H   0  0  0  0  0  0  0  0  0  0  0  0  # atno 8010 bound_to 7997
  139.7171  143.9016  152.2490 H   0  0  0  0  0  0  0  0  0  0  0  0  # atno 10167 bound_to 10162
  157.3006  130.7348  149.6664 H   0  0  0  0  0  0  0  0  0  0  0  0  # atno 10718 bound_to 10713
  154.8623  135.3597  154.5465 H   0  0  0  0  0  0  0  0  0  0  0  0  # atno 10763 bound_to 10752
  153.6084  135.7010  153.5361 H   0  0  0  0  0  0  0  0  0  0  0  0  # atno 10764 bound_to 10752
  153.3230  135.4146  155.1393 H   0  0  0  0  0  0  0  0  0  0  0  0  # atno 10765 bound_to 10752
  140.1484  134.4492  155.8399 H   0  0  0  0  0  0  0  0  0  0  0  0  # atno 11005 bound_to 11000
  145.0079  140.8689  143.5242 LP  0  0  0  0  0  0  0  0  0  0  0  0  # atno 17320 bound_to 7965
  145.1652  139.2436  143.5371 LP  0  0  0  0  0  0  0  0  0  0  0  0  # atno 17321 bound_to 7965
  139.8901  144.6970  150.8780 LP  0  0  0  0  0  0  0  0  0  0  0  0  # atno 17342 bound_to 10162
  140.7746  143.3593  151.1860 LP  0  0  0  0  0  0  0  0  0  0  0  0  # atno 17343 bound_to 10162
  155.9671  130.4281  150.4774 LP  0  0  0  0  0  0  0  0  0  0  0  0  # atno 17370 bound_to 10713
  157.2754  131.0596  151.2233 LP  0  0  0  0  0  0  0  0  0  0  0  0  # atno 17371 bound_to 10713
  141.2196  133.6862  156.7377 LP  0  0  0  0  0  0  0  0  0  0  0  0  # atno 17394 bound_to 11000
  140.2634  134.8448  157.3780 LP  0  0  0  0  0  0  0  0  0  0  0  0  # atno 17395 bound_to 11000

$$$$
