AV-unprocessed.smi:3314|AV-procd|sdf|12742|dock4
  -GOLD-   2272019 83D 1   1.00000     0.00000
 Structure written by MMmdl.
 38 39  0  0  0  0  0  0  0  0  2 V2000
  151.6315  137.5096  154.3872 C   0  0  0  0  0  0  0  0  0  0  0  0
  151.1928  138.9101  154.7625 C   0  0  0  0  0  0  0  0  0  0  0  0
  150.2057  139.5808  154.0108 C   0  0  0  0  0  0  0  0  0  0  0  0
  149.8165  140.8793  154.3963 C   0  0  0  0  0  0  0  0  0  0  0  0
  148.7581  141.6624  153.6486 C   0  0  0  0  0  0  0  0  0  0  0  0
  150.3959  141.4600  155.4705 N   0  3  0  0  0  0  0  0  0  0  0  0
  151.3544  140.8686  156.2207 C   0  0  0  0  0  0  0  0  0  0  0  0
  151.8493  141.6088  157.3290 N   0  0  0  0  0  0  0  0  0  0  0  0
  152.6503  141.2045  158.3325 C   0  0  0  0  0  0  0  0  0  0  0  0
  153.1191  140.0711  158.4400 O   0  0  0  0  0  0  0  0  0  0  0  0
  152.9681  142.2781  159.3811 C   0  0  1  0  0  0  0  0  0  0  0  0
  152.2261  143.6125  159.1394 C   0  0  0  0  0  0  0  0  0  0  0  0
  152.5082  144.5811  160.1902 N   0  0  0  0  0  0  0  0  0  0  0  0
  151.8153  145.8398  159.9607 C   0  0  0  0  0  0  0  0  0  0  0  0
  152.1690  144.0093  161.4860 C   0  0  0  0  0  0  0  0  0  0  0  0
  152.9008  142.6781  161.7272 C   0  0  0  0  0  0  0  0  0  0  0  0
  152.6109  141.7712  160.6667 O   0  0  0  0  0  0  0  0  0  0  0  0
  151.7682  139.5561  155.8775 C   0  0  0  0  0  0  0  0  0  0  0  0
  151.1137  137.1550  153.4956 H   0  0  0  0  0  0  0  0  0  0  0  0
  151.4203  136.8165  155.2019 H   0  0  0  0  0  0  0  0  0  0  0  0
  152.7034  137.4896  154.1883 H   0  0  0  0  0  0  0  0  0  0  0  0
  149.7500  139.1053  153.1543 H   0  0  0  0  0  0  0  0  0  0  0  0
  148.3903  141.1032  152.7879 H   0  0  0  0  0  0  0  0  0  0  0  0
  149.1656  142.6083  153.2907 H   0  0  0  0  0  0  0  0  0  0  0  0
  147.9119  141.8767  154.3020 H   0  0  0  0  0  0  0  0  0  0  0  0
  151.6024  142.5879  157.3405 H   0  0  0  0  0  0  0  0  0  0  0  0
  154.0453  142.4537  159.3580 H   0  0  0  0  0  0  0  0  0  0  0  0
  152.5216  144.0265  158.1744 H   0  0  0  0  0  0  0  0  0  0  0  0
  151.1507  143.4323  159.0864 H   0  0  0  0  0  0  0  0  0  0  0  0
  152.0659  146.5651  160.7354 H   0  0  0  0  0  0  0  0  0  0  0  0
  150.7335  145.7005  159.9623 H   0  0  0  0  0  0  0  0  0  0  0  0
  152.1015  146.2689  158.9999 H   0  0  0  0  0  0  0  0  0  0  0  0
  152.4229  144.7130  162.2796 H   0  0  0  0  0  0  0  0  0  0  0  0
  151.0919  143.8448  161.5470 H   0  0  0  0  0  0  0  0  0  0  0  0
  153.9781  142.8366  161.7937 H   0  0  0  0  0  0  0  0  0  0  0  0
  152.5832  142.2364  162.6717 H   0  0  0  0  0  0  0  0  0  0  0  0
  152.5082  139.0234  156.4543 H   0  0  0  0  0  0  0  0  0  0  0  0
  150.0922  142.4000  155.7261 H   0  0  0  0  0  0  0  0  0  0  0  0
  1  2  1  0  0  0  0
  1 19  1  0  0  0  0
  1 20  1  0  0  0  0
  1 21  1  0  0  0  0
  2 18  1  0  0  0  0
  2  3  2  0  0  0  0
  3  4  1  0  0  0  0
  3 22  1  0  0  0  0
  4  5  1  0  0  0  0
  4  6  2  0  0  0  0
  5 23  1  0  0  0  0
  5 24  1  0  0  0  0
  5 25  1  0  0  0  0
  6  7  1  0  0  0  0
  6 38  1  0  0  0  0
  7  8  1  0  0  0  0
  7 18  2  0  0  0  0
  8  9  1  0  0  0  0
  8 26  1  0  0  0  0
  9 10  2  0  0  0  0
  9 11  1  0  0  0  0
 11 17  1  0  0  0  0
 11 12  1  0  0  0  0
 11 27  1  0  0  0  0
 12 13  1  0  0  0  0
 12 28  1  0  0  0  0
 12 29  1  0  0  0  0
 13 14  1  0  0  0  0
 13 15  1  0  0  0  0
 14 30  1  0  0  0  0
 14 31  1  0  0  0  0
 14 32  1  0  0  0  0
 15 16  1  0  0  0  0
 15 33  1  0  0  0  0
 15 34  1  0  0  0  0
 16 17  1  0  0  0  0
 16 35  1  0  0  0  0
 16 36  1  0  0  0  0
 18 37  1  0  0  0  0
M  CHG  1   6   1
M  END
> <s_m_source_file>
AV-unprocessed.smi

> <i_m_source_file_index>
3314

> <i_lp_mmshare_version>
43012

> <i_f3d_flags>
0

> <s_epik_input>
W0NIM11jMVtjSF1jKFtDSDNdKW5jKFtjSF0xKVtOSF1DKD1PKVtDQEBIXTJbQ0gyXU4oW0NIM10pW0NIMl1bQ0gyXU8y

> <s_epik_cmdline>
J2VwaWtfcHl0aG9uJywgJy1waCcsICc3LjAnLCAnLXRuJywgJzgnLCAnLW1hJywgJzIwMCcsICctbWV0YWxfYmluZGluZycsICctaW1hZScsICc8aW5maWxlLm1hZT4nLCAnLW9tYWUnLCAnPG91dGZpbGUubWFlPic=

> <r_epik_Ionization_Penalty>
2.57421

> <r_epik_Ionization_Penalty_Charging>
1.80498

> <r_epik_Ionization_Penalty_Neutral>
0.76923

> <r_epik_State_Penalty>
2.63884

> <r_epik_Charging_Adjusted_Penalty>
4.44382

> <i_epik_Tot_Q>
1

> <i_epik_Tot_abs_Q>
1

> <r_epik_Metal_State_Penalty>
6.15142

> <b_epik_Metal_Only>
0

> <s_lp_Force_Field>
OPLS_2005

> <r_lp_Energy>
30.3211

> <b_lp_Chiralities_Consistent>
1

> <s_lp_Variant>
AV-unprocessed.smi:3314-12

> <Gold.Version>
5.8.1

> <Gold.Id.Protein>
6NUR|6NUR_protein|mol2

> <Gold.PLP.Fitness>
44.5970

> <Gold.PLP.PLP>
-42.5596

> <Gold.PLP.part.hbond>
-1.0000

> <Gold.PLP.part.metal>
0.0000

> <Gold.PLP.part.buried>
-3.3660

> <Gold.PLP.part.nonpolar>
-38.2004

> <Gold.PLP.part.repulsive>
0.2717

> <Gold.PLP.ligand.clash>
0.8470

> <Gold.PLP.ligand.torsion>
0.0589

> <Gold.PLP.Chemscore.Hbond>
1.0000

> <Gold.PLP.Chemscore.CHOScore>
0.0000

> <Gold.PLP.Chemscore.Metal>
0.0000

> <Gold.Chemscore.Hbonds>
donor molecule, donor type, donor heavy atom, donor atom, acceptor molecule, acceptor atom, score
      P1  H  7997  8008       L1    10  0.98

> <Gold.PLP.Chemscore.Internal.Correction>
0.0023

> <Gold.Rescore>
     Score         DG    S(hbond)    S(metal)    S(lipo)     H(rot)  DE(clash)    DE(int)     intcor
     16.73     -17.98       0.91        0.00     102.81       1.00       0.04       1.21       ----

> <Gold.Chemscore.Fitness>
16.7347

> <Gold.Chemscore.DG>
-17.9814

> <Gold.Chemscore.ZeroCoef>
-5.4800

> <Gold.Chemscore.Hbond>
0.9079

> <Gold.Chemscore.Metal>
0.0000

> <Gold.Chemscore.Lipo>
102.8115

> <Gold.Chemscore.Internal_Hbond>
0.0000

> <Gold.Chemscore.DEClash>
0.0351

> <Gold.Chemscore.DEInternal>
1.2116

> <Gold.Chemscore.Rot>
1.0000

> <Gold.Chemscore.Internal.Correction>
   9.000000E+99

> <Gold.Chemscore.Hbonds>
donor molecule, donor type, donor heavy atom, donor atom, acceptor molecule, acceptor atom, score
      P1  H  7997  8008       L1    10  0.31

> <Gold.Chemscore.Hbond.Weighted>
-3.0325

> <Gold.Chemscore.Metal.Weighted>
-0.0000

> <Gold.Chemscore.Lipo.Weighted>
-12.0289

> <Gold.Chemscore.Internal_Hbond.Weighted>
0.0000

> <Gold.Chemscore.DEClash.Weighted>
0.0351

> <Gold.Chemscore.DEInternal.Weighted>
1.2116

> <Gold.Chemscore.Rot.Weighted>
2.5600

> <Gold.Chemscore.Internal.Correction.Weighted>
   9.000000E+99

> <Gold.Protein.RotatedTorsions>
[ 6907 6896 6895 6894 ] final  156.57 input  -60.11 | X-H torsion
[ 7974 7965 7964 7962 ] final    1.66 input  175.53 | X-H torsion
[ 8008 7997 7996 7995 ] final  -83.54 input   59.86 | X-H torsion
[ 10167 10162 10161 10158 ] final   64.07 input  -65.29 | X-H torsion
[ 10718 10713 10712 10709 ] final   13.68 input   66.30 | X-H torsion
[ 10763 10752 10751 10750 ] final  -36.83 input  -60.55 | X-H torsion
[ 11005 11000 10999 10996 ] final   36.47 input  -57.11 | X-H torsion

> <Gold.Protein.ActiveResidues>
 VAL166  LYS551  ARG553  GLY616  TRP617  ASP618  TYR619  PRO620  LYS621  CYS622 
 ASP623  PHE694  ASN695  SER759  ASP760  ASP761  ALA762  ILE779  LEU786  VAL792 
 PHE793  MET794  SER795  GLU796  ALA797  LYS798  CYS799  TRP800  GLU811  SER814 

> <Gold.Protein.RotatedAtoms>
  152.0278  133.3925  159.4284 H   0  0  0  0  0  0  0  0  0  0  0  0  # atno 6907 bound_to 6896
  150.6884  134.3554  159.4936 H   0  0  0  0  0  0  0  0  0  0  0  0  # atno 6908 bound_to 6896
  152.1337  134.9115  160.0608 H   0  0  0  0  0  0  0  0  0  0  0  0  # atno 6909 bound_to 6896
  146.2441  140.0954  142.8350 H   0  0  0  0  0  0  0  0  0  0  0  0  # atno 7974 bound_to 7965
  154.6201  140.0617  156.9604 H   0  0  0  0  0  0  0  0  0  0  0  0  # atno 8008 bound_to 7997
  155.1831  140.3301  155.4353 H   0  0  0  0  0  0  0  0  0  0  0  0  # atno 8009 bound_to 7997
  156.2427  140.1894  156.6926 H   0  0  0  0  0  0  0  0  0  0  0  0  # atno 8010 bound_to 7997
  140.1262  144.4686  150.6891 H   0  0  0  0  0  0  0  0  0  0  0  0  # atno 10167 bound_to 10162
  157.0281  130.6182  149.5731 H   0  0  0  0  0  0  0  0  0  0  0  0  # atno 10718 bound_to 10713
  153.8862  135.6816  153.4763 H   0  0  0  0  0  0  0  0  0  0  0  0  # atno 10763 bound_to 10752
  153.1206  135.4741  154.9187 H   0  0  0  0  0  0  0  0  0  0  0  0  # atno 10764 bound_to 10752
  154.7645  135.3220  154.8266 H   0  0  0  0  0  0  0  0  0  0  0  0  # atno 10765 bound_to 10752
  140.2323  134.3513  155.7959 H   0  0  0  0  0  0  0  0  0  0  0  0  # atno 11005 bound_to 11000
  145.0615  140.9091  143.4936 LP  0  0  0  0  0  0  0  0  0  0  0  0  # atno 17320 bound_to 7965
  145.1070  139.2783  143.5657 LP  0  0  0  0  0  0  0  0  0  0  0  0  # atno 17321 bound_to 7965
  140.6844  143.2342  151.5300 LP  0  0  0  0  0  0  0  0  0  0  0  0  # atno 17342 bound_to 10162
  139.5543  144.2315  152.1585 LP  0  0  0  0  0  0  0  0  0  0  0  0  # atno 17343 bound_to 10162
  156.0079  130.5167  150.7891 LP  0  0  0  0  0  0  0  0  0  0  0  0  # atno 17370 bound_to 10713
  157.5198  131.0931  151.0092 LP  0  0  0  0  0  0  0  0  0  0  0  0  # atno 17371 bound_to 10713
  141.2217  133.7252  156.8751 LP  0  0  0  0  0  0  0  0  0  0  0  0  # atno 17394 bound_to 11000
  140.1738  134.9081  157.2866 LP  0  0  0  0  0  0  0  0  0  0  0  0  # atno 17395 bound_to 11000

$$$$
