AV-unprocessed.smi:2390|AV-procd|sdf|9479|dock9
  -GOLD-   2272013113D 1   1.00000     0.00000
 Structure written by MMmdl.
 46 47  0  0  0  0  0  0  0  0  2 V2000
  146.0798  130.3790  152.0738 C   0  0  0  0  0  0  0  0  0  0  0  0
  145.4939  131.6311  151.4553 C   0  0  0  0  0  0  0  0  0  0  0  0
  144.3582  131.5674  150.6244 C   0  0  0  0  0  0  0  0  0  0  0  0
  143.8651  132.7678  150.0822 C   0  0  0  0  0  0  0  0  0  0  0  0
  144.5237  133.9739  150.3900 C   0  0  0  0  0  0  0  0  0  0  0  0
  145.6566  133.9507  151.2342 C   0  0  0  0  0  0  0  0  0  0  0  0
  146.2540  135.2160  151.4784 N   0  0  0  0  0  0  0  0  0  0  0  0
  145.6402  136.3925  151.6930 C   0  0  0  0  0  0  0  0  0  0  0  0
  144.4251  136.5815  151.6369 O   0  0  0  0  0  0  0  0  0  0  0  0
  146.5244  137.3557  151.9954 N   0  0  0  0  0  0  0  0  0  0  0  0
  146.2135  138.7597  152.2796 C   0  0  2  0  0  0  0  0  0  0  0  0
  146.9325  139.6240  151.2301 C   0  0  0  0  0  0  0  0  0  0  0  0
  146.5928  139.1346  153.7415 C   0  0  1  0  0  0  0  0  0  0  0  0
  148.1003  138.9781  154.0379 C   0  0  0  0  0  0  0  0  0  0  0  0
  146.0788  140.4882  154.1081 N   0  3  0  0  0  0  0  0  0  0  0  0
  145.7406  140.6493  155.5420 C   0  0  0  0  0  0  0  0  0  0  0  0
  145.0375  142.0002  155.7638 C   0  0  0  0  0  0  0  0  0  0  0  0
  145.8620  143.0593  155.2907 O   0  0  0  0  0  0  0  0  0  0  0  0
  146.1323  142.9491  153.8976 C   0  0  0  0  0  0  0  0  0  0  0  0
  146.8876  141.6377  153.6297 C   0  0  0  0  0  0  0  0  0  0  0  0
  146.1262  132.7874  151.7502 N   0  0  0  0  0  0  0  0  0  0  0  0
  145.4812  129.5003  151.8319 H   0  0  0  0  0  0  0  0  0  0  0  0
  146.1192  130.4745  153.1594 H   0  0  0  0  0  0  0  0  0  0  0  0
  147.0927  130.2133  151.7059 H   0  0  0  0  0  0  0  0  0  0  0  0
  143.8754  130.6261  150.4067 H   0  0  0  0  0  0  0  0  0  0  0  0
  142.9964  132.7645  149.4402 H   0  0  0  0  0  0  0  0  0  0  0  0
  144.1577  134.9043  149.9806 H   0  0  0  0  0  0  0  0  0  0  0  0
  147.2625  135.2182  151.5181 H   0  0  0  0  0  0  0  0  0  0  0  0
  147.5020  137.1031  152.0128 H   0  0  0  0  0  0  0  0  0  0  0  0
  145.1432  138.9209  152.1407 H   0  0  0  0  0  0  0  0  0  0  0  0
  146.6390  140.6711  151.2994 H   0  0  0  0  0  0  0  0  0  0  0  0
  146.6884  139.2948  150.2194 H   0  0  0  0  0  0  0  0  0  0  0  0
  148.0158  139.5705  151.3434 H   0  0  0  0  0  0  0  0  0  0  0  0
  146.0702  138.4201  154.3796 H   0  0  0  0  0  0  0  0  0  0  0  0
  148.4138  137.9372  153.9646 H   0  0  0  0  0  0  0  0  0  0  0  0
  148.3460  139.3060  155.0479 H   0  0  0  0  0  0  0  0  0  0  0  0
  148.7117  139.5521  153.3410 H   0  0  0  0  0  0  0  0  0  0  0  0
  145.0838  139.8415  155.8667 H   0  0  0  0  0  0  0  0  0  0  0  0
  146.6457  140.5935  156.1480 H   0  0  0  0  0  0  0  0  0  0  0  0
  144.0723  142.0232  155.2549 H   0  0  0  0  0  0  0  0  0  0  0  0
  144.8410  142.1522  156.8253 H   0  0  0  0  0  0  0  0  0  0  0  0
  145.2028  142.9892  153.3271 H   0  0  0  0  0  0  0  0  0  0  0  0
  146.7357  143.8015  153.5854 H   0  0  0  0  0  0  0  0  0  0  0  0
  147.8498  141.6650  154.1424 H   0  0  0  0  0  0  0  0  0  0  0  0
  147.0941  141.5424  152.5640 H   0  0  0  0  0  0  0  0  0  0  0  0
  145.1948  140.5624  153.6246 H   0  0  0  0  0  0  0  0  0  0  0  0
  1  2  1  0  0  0  0
  1 22  1  0  0  0  0
  1 23  1  0  0  0  0
  1 24  1  0  0  0  0
  2 21  1  0  0  0  0
  2  3  2  0  0  0  0
  3  4  1  0  0  0  0
  3 25  1  0  0  0  0
  4  5  2  0  0  0  0
  4 26  1  0  0  0  0
  5  6  1  0  0  0  0
  5 27  1  0  0  0  0
  6  7  1  0  0  0  0
  6 21  2  0  0  0  0
  7  8  1  0  0  0  0
  7 28  1  0  0  0  0
  8  9  2  0  0  0  0
  8 10  1  0  0  0  0
 10 11  1  0  0  0  0
 10 29  1  0  0  0  0
 11 12  1  0  0  0  0
 11 13  1  0  0  0  0
 11 30  1  0  0  0  0
 12 31  1  0  0  0  0
 12 32  1  0  0  0  0
 12 33  1  0  0  0  0
 13 14  1  0  0  0  0
 13 15  1  0  0  0  0
 13 34  1  0  0  0  0
 14 35  1  0  0  0  0
 14 36  1  0  0  0  0
 14 37  1  0  0  0  0
 15 20  1  0  0  0  0
 15 16  1  0  0  0  0
 15 46  1  0  0  0  0
 16 17  1  0  0  0  0
 16 38  1  0  0  0  0
 16 39  1  0  0  0  0
 17 18  1  0  0  0  0
 17 40  1  0  0  0  0
 17 41  1  0  0  0  0
 18 19  1  0  0  0  0
 19 20  1  0  0  0  0
 19 42  1  0  0  0  0
 19 43  1  0  0  0  0
 20 44  1  0  0  0  0
 20 45  1  0  0  0  0
M  CHG  1  15   1
M  END
> <s_m_source_file>
AV-unprocessed.smi

> <i_m_source_file_index>
2390

> <i_lp_mmshare_version>
43012

> <i_f3d_flags>
0

> <s_epik_input>
W0NIM11jMVtjSF1bY0hdW2NIXWMobjEpW05IXUMoPU8pW05IXVtDQEhdKFtDSDNdKVtDQEhdKFtDSDNdKU4yW0NIMl1bQ0gyXU9bQ0gyXVtDSDJdMg==

> <s_epik_cmdline>
J2VwaWtfcHl0aG9uJywgJy1waCcsICc3LjAnLCAnLXRuJywgJzgnLCAnLW1hJywgJzIwMCcsICctbWV0YWxfYmluZGluZycsICctaW1hZScsICc8aW5maWxlLm1hZT4nLCAnLW9tYWUnLCAnPG91dGZpbGUubWFlPic=

> <r_epik_Ionization_Penalty>
0.60259

> <r_epik_Ionization_Penalty_Charging>
0.602531

> <r_epik_Ionization_Penalty_Neutral>
5.9516e-05

> <r_epik_State_Penalty>
0.617039

> <r_epik_Charging_Adjusted_Penalty>
1.21957

> <i_epik_Tot_Q>
1

> <i_epik_Tot_abs_Q>
1

> <r_epik_Metal_State_Penalty>
0.617047

> <b_epik_Metal_Only>
0

> <s_lp_Force_Field>
OPLS_2005

> <r_lp_Energy>
26.9068

> <b_lp_Chiralities_Consistent>
1

> <s_lp_Variant>
AV-unprocessed.smi:2390-7

> <Gold.Version>
5.8.1

> <Gold.Id.Protein>
6NUR|6NUR_protein|mol2

> <Gold.PLP.Fitness>
46.8313

> <Gold.PLP.PLP>
-36.2796

> <Gold.PLP.part.hbond>
-3.0000

> <Gold.PLP.part.metal>
0.0000

> <Gold.PLP.part.buried>
-4.0575

> <Gold.PLP.part.nonpolar>
-31.5195

> <Gold.PLP.part.repulsive>
1.8512

> <Gold.PLP.ligand.clash>
0.0000

> <Gold.PLP.ligand.torsion>
0.7964

> <Gold.PLP.Chemscore.Hbond>
4.0000

> <Gold.PLP.Chemscore.CHOScore>
0.0000

> <Gold.PLP.Chemscore.Metal>
0.0000

> <Gold.Chemscore.Hbonds>
donor molecule, donor type, donor heavy atom, donor atom, acceptor molecule, acceptor atom, score
      L1  H     7    28       P1  7948  0.99
      L1  H    10    29       P1  7948  1.00
      L1  H    15    46       P1 10175  2.00

> <Gold.PLP.Chemscore.Internal.Correction>
0.1445

> <Gold.Rescore>
     Score         DG    S(hbond)    S(metal)    S(lipo)     H(rot)  DE(clash)    DE(int)     intcor
     17.60     -21.18       2.89        0.00      84.19       1.48       1.46       2.12       ----

> <Gold.Chemscore.Fitness>
17.5966

> <Gold.Chemscore.DG>
-21.1753

> <Gold.Chemscore.ZeroCoef>
-5.4800

> <Gold.Chemscore.Hbond>
2.8879

> <Gold.Chemscore.Metal>
0.0000

> <Gold.Chemscore.Lipo>
84.1866

> <Gold.Chemscore.Internal_Hbond>
0.0000

> <Gold.Chemscore.DEClash>
1.4570

> <Gold.Chemscore.DEInternal>
2.1217

> <Gold.Chemscore.Rot>
1.4844

> <Gold.Chemscore.Internal.Correction>
   9.000000E+99

> <Gold.Chemscore.Hbonds>
donor molecule, donor type, donor heavy atom, donor atom, acceptor molecule, acceptor atom, score
      L1  H     7    28       P1  7948  0.82
      L1  H    10    29       P1  7948  1.00
      L1  H    15    46       P1 10175  0.98

> <Gold.Chemscore.Hbond.Weighted>
-9.6454

> <Gold.Chemscore.Metal.Weighted>
-0.0000

> <Gold.Chemscore.Lipo.Weighted>
-9.8498

> <Gold.Chemscore.Internal_Hbond.Weighted>
0.0000

> <Gold.Chemscore.DEClash.Weighted>
1.4570

> <Gold.Chemscore.DEInternal.Weighted>
2.1217

> <Gold.Chemscore.Rot.Weighted>
3.8000

> <Gold.Chemscore.Internal.Correction.Weighted>
   9.000000E+99

> <Gold.Protein.RotatedTorsions>
[ 6907 6896 6895 6894 ] final  -39.56 input  -60.11 | X-H torsion
[ 7974 7965 7964 7962 ] final   71.16 input  175.53 | X-H torsion
[ 8008 7997 7996 7995 ] final -151.43 input   59.86 | X-H torsion
[ 10167 10162 10161 10158 ] final -141.29 input  -65.29 | X-H torsion
[ 10718 10713 10712 10709 ] final   71.50 input   66.30 | X-H torsion
[ 10763 10752 10751 10750 ] final   31.71 input  -60.55 | X-H torsion
[ 11005 11000 10999 10996 ] final  114.50 input  -57.11 | X-H torsion

> <Gold.Protein.ActiveResidues>
 VAL166  LYS551  ARG553  GLY616  TRP617  ASP618  TYR619  PRO620  LYS621  CYS622 
 ASP623  PHE694  ASN695  SER759  ASP760  ASP761  ALA762  ILE779  LEU786  VAL792 
 PHE793  MET794  SER795  GLU796  ALA797  LYS798  CYS799  TRP800  GLU811  SER814 

> <Gold.Protein.RotatedAtoms>
  150.9889  134.9228  159.7887 H   0  0  0  0  0  0  0  0  0  0  0  0  # atno 6907 bound_to 6896
  152.5245  134.3309  159.9192 H   0  0  0  0  0  0  0  0  0  0  0  0  # atno 6908 bound_to 6896
  151.3315  133.3957  159.2697 H   0  0  0  0  0  0  0  0  0  0  0  0  # atno 6909 bound_to 6896
  145.7692  139.2835  143.1331 H   0  0  0  0  0  0  0  0  0  0  0  0  # atno 7974 bound_to 7965
  155.6393  140.0700  157.2624 H   0  0  0  0  0  0  0  0  0  0  0  0  # atno 8008 bound_to 7997
  154.4187  140.1753  156.1605 H   0  0  0  0  0  0  0  0  0  0  0  0  # atno 8009 bound_to 7997
  155.9869  140.3348  155.6719 H   0  0  0  0  0  0  0  0  0  0  0  0  # atno 8010 bound_to 7997
  139.8199  143.7589  152.2666 H   0  0  0  0  0  0  0  0  0  0  0  0  # atno 10167 bound_to 10162
  157.6455  130.9531  150.0798 H   0  0  0  0  0  0  0  0  0  0  0  0  # atno 10718 bound_to 10713
  153.0301  135.6432  154.1242 H   0  0  0  0  0  0  0  0  0  0  0  0  # atno 10763 bound_to 10752
  154.0965  135.2862  155.3262 H   0  0  0  0  0  0  0  0  0  0  0  0  # atno 10764 bound_to 10752
  154.6428  135.5453  153.7873 H   0  0  0  0  0  0  0  0  0  0  0  0  # atno 10765 bound_to 10752
  139.8982  134.9569  156.6902 H   0  0  0  0  0  0  0  0  0  0  0  0  # atno 11005 bound_to 11000
  146.0186  140.8369  142.9934 LP  0  0  0  0  0  0  0  0  0  0  0  0  # atno 17320 bound_to 7965
  144.6816  140.2596  143.7321 LP  0  0  0  0  0  0  0  0  0  0  0  0  # atno 17321 bound_to 7965
  139.7763  144.7459  151.0151 LP  0  0  0  0  0  0  0  0  0  0  0  0  # atno 17342 bound_to 10162
  140.7814  143.4590  151.0305 LP  0  0  0  0  0  0  0  0  0  0  0  0  # atno 17343 bound_to 10162
  156.1777  130.3649  149.9077 LP  0  0  0  0  0  0  0  0  0  0  0  0  # atno 17370 bound_to 10713
  156.7037  130.8943  151.3602 LP  0  0  0  0  0  0  0  0  0  0  0  0  # atno 17371 bound_to 10713
  140.7231  133.9123  155.8160 LP  0  0  0  0  0  0  0  0  0  0  0  0  # atno 17394 bound_to 11000
  141.0212  134.0887  157.4118 LP  0  0  0  0  0  0  0  0  0  0  0  0  # atno 17395 bound_to 11000

$$$$
