AV-unprocessed.smi:3266|AV-procd|sdf|12501|dock4
  -GOLD-   2272018403D 1   1.00000     0.00000
 Structure written by MMmdl.
 38 39  0  0  0  0  0  0  0  0  1 V2000
  149.7707  141.4319  158.7283 O   0  0  0  0  0  0  0  0  0  0  0  0
  149.6235  142.0716  157.6865 C   0  0  0  0  0  0  0  0  0  0  0  0
  149.0667  141.3893  156.4347 C   0  0  0  0  0  0  0  0  0  0  0  0
  150.1478  141.1616  155.3636 C   0  0  0  0  0  0  0  0  0  0  0  0
  150.8726  139.8182  155.5293 C   0  0  1  0  0  0  0  0  0  0  0  0
  150.1568  138.6453  154.8666 C   0  0  0  0  0  0  0  0  0  0  0  0
  151.2711  137.6302  154.6839 C   0  0  0  0  0  0  0  0  0  0  0  0
  152.5483  138.4774  154.6954 C   0  0  0  0  0  0  0  0  0  0  0  0
  152.1215  139.8255  154.8561 O   0  0  0  0  0  0  0  0  0  0  0  0
  149.9256  143.3740  157.5744 N   0  0  0  0  0  0  0  0  0  0  0  0
  150.4570  144.2048  158.6506 C   0  0  0  0  0  0  0  0  0  0  0  0
  151.9964  144.1783  158.7257 C   0  0  0  0  0  0  0  0  0  0  0  0
  152.5384  143.3930  159.9091 C   0  0  0  0  0  0  0  0  0  0  0  0
  152.1590  143.7323  161.2255 C   0  0  0  0  0  0  0  0  0  0  0  0
  152.6787  142.9733  162.2918 C   0  0  0  0  0  0  0  0  0  0  0  0
  153.5525  141.9078  162.0029 C   0  0  0  0  0  0  0  0  0  0  0  0
  153.8702  141.6488  160.6546 C   0  0  0  0  0  0  0  0  0  0  0  0
  153.3778  142.3709  159.6252 N   0  0  0  0  0  0  0  0  0  0  0  0
  148.6277  140.4359  156.7312 H   0  0  0  0  0  0  0  0  0  0  0  0
  148.2561  141.9893  156.0182 H   0  0  0  0  0  0  0  0  0  0  0  0
  149.6857  141.1935  154.3758 H   0  0  0  0  0  0  0  0  0  0  0  0
  150.8779  141.9722  155.3881 H   0  0  0  0  0  0  0  0  0  0  0  0
  151.0379  139.5994  156.5859 H   0  0  0  0  0  0  0  0  0  0  0  0
  149.3261  138.2641  155.4614 H   0  0  0  0  0  0  0  0  0  0  0  0
  149.7677  138.9428  153.8917 H   0  0  0  0  0  0  0  0  0  0  0  0
  151.2837  136.9198  155.5112 H   0  0  0  0  0  0  0  0  0  0  0  0
  151.1551  137.0660  153.7581 H   0  0  0  0  0  0  0  0  0  0  0  0
  153.1893  138.1955  155.5317 H   0  0  0  0  0  0  0  0  0  0  0  0
  153.1234  138.3697  153.7755 H   0  0  0  0  0  0  0  0  0  0  0  0
  149.7672  143.8240  156.6845 H   0  0  0  0  0  0  0  0  0  0  0  0
  150.1062  145.2316  158.5346 H   0  0  0  0  0  0  0  0  0  0  0  0
  150.0382  143.8446  159.5906 H   0  0  0  0  0  0  0  0  0  0  0  0
  152.4063  143.7618  157.8045 H   0  0  0  0  0  0  0  0  0  0  0  0
  152.3720  145.2007  158.7819 H   0  0  0  0  0  0  0  0  0  0  0  0
  151.4845  144.5544  161.4152 H   0  0  0  0  0  0  0  0  0  0  0  0
  152.4108  143.2039  163.3123 H   0  0  0  0  0  0  0  0  0  0  0  0
  153.9693  141.3036  162.7949 H   0  0  0  0  0  0  0  0  0  0  0  0
  154.5375  140.8399  160.3962 H   0  0  0  0  0  0  0  0  0  0  0  0
  1  2  2  0  0  0  0
  2  3  1  0  0  0  0
  2 10  1  0  0  0  0
  3  4  1  0  0  0  0
  3 19  1  0  0  0  0
  3 20  1  0  0  0  0
  4  5  1  0  0  0  0
  4 21  1  0  0  0  0
  4 22  1  0  0  0  0
  5  9  1  0  0  0  0
  5  6  1  0  0  0  0
  5 23  1  0  0  0  0
  6  7  1  0  0  0  0
  6 24  1  0  0  0  0
  6 25  1  0  0  0  0
  7  8  1  0  0  0  0
  7 26  1  0  0  0  0
  7 27  1  0  0  0  0
  8  9  1  0  0  0  0
  8 28  1  0  0  0  0
  8 29  1  0  0  0  0
 10 11  1  0  0  0  0
 10 30  1  0  0  0  0
 11 12  1  0  0  0  0
 11 31  1  0  0  0  0
 11 32  1  0  0  0  0
 12 13  1  0  0  0  0
 12 33  1  0  0  0  0
 12 34  1  0  0  0  0
 13 18  1  0  0  0  0
 13 14  2  0  0  0  0
 14 15  1  0  0  0  0
 14 35  1  0  0  0  0
 15 16  2  0  0  0  0
 15 36  1  0  0  0  0
 16 17  1  0  0  0  0
 16 37  1  0  0  0  0
 17 18  2  0  0  0  0
 17 38  1  0  0  0  0
M  END
> <s_m_source_file>
AV-unprocessed.smi

> <i_m_source_file_index>
3266

> <i_lp_mmshare_version>
43012

> <i_f3d_flags>
0

> <s_epik_input>
TzFbQ0gyXVtDSDJdW0NIMl1bQ0BIXTFbQ0gyXVtDSDJdQyg9TylbTkhdW0NIMl1bQ0gyXWMyW2NIXVtjSF1bY0hdW2NIXW4y

> <s_epik_cmdline>
J2VwaWtfcHl0aG9uJywgJy1waCcsICc3LjAnLCAnLXRuJywgJzgnLCAnLW1hJywgJzIwMCcsICctbWV0YWxfYmluZGluZycsICctaW1hZScsICc8aW5maWxlLm1hZT4nLCAnLW9tYWUnLCAnPG91dGZpbGUubWFlPic=

> <r_epik_Ionization_Penalty>
0.0267142

> <r_epik_Ionization_Penalty_Charging>
0

> <r_epik_Ionization_Penalty_Neutral>
0.0267142

> <r_epik_State_Penalty>
0.0218233

> <r_epik_Charging_Adjusted_Penalty>
0.0218233

> <i_epik_Tot_Q>
0

> <i_epik_Tot_abs_Q>
0

> <r_epik_Metal_State_Penalty>
0.0208786

> <b_epik_Metal_Only>
0

> <s_lp_Force_Field>
OPLS_2005

> <r_lp_Energy>
16.882

> <b_lp_Chiralities_Consistent>
1

> <s_lp_Variant>
AV-unprocessed.smi:3266-2

> <Gold.Version>
5.8.1

> <Gold.Id.Protein>
6NUR|6NUR_protein|mol2

> <Gold.PLP.Fitness>
50.4403

> <Gold.PLP.PLP>
-47.0325

> <Gold.PLP.part.hbond>
-2.7286

> <Gold.PLP.part.metal>
0.0000

> <Gold.PLP.part.buried>
-4.3453

> <Gold.PLP.part.nonpolar>
-39.4026

> <Gold.PLP.part.repulsive>
0.1006

> <Gold.PLP.ligand.clash>
0.0000

> <Gold.PLP.ligand.torsion>
1.0870

> <Gold.PLP.Chemscore.Hbond>
1.8320

> <Gold.PLP.Chemscore.CHOScore>
0.0000

> <Gold.PLP.Chemscore.Metal>
0.0000

> <Gold.Chemscore.Hbonds>
donor molecule, donor type, donor heavy atom, donor atom, acceptor molecule, acceptor atom, score
      L1  H    10    30       P1  8028  1.00
      P1  H  7989  7998       L1     9  0.78

> <Gold.PLP.Chemscore.Internal.Correction>
0.0857

> <Gold.Rescore>
     Score         DG    S(hbond)    S(metal)    S(lipo)     H(rot)  DE(clash)    DE(int)     intcor
     19.99     -20.96       1.81        0.00     118.19       1.71       0.02       0.95       ----

> <Gold.Chemscore.Fitness>
19.9890

> <Gold.Chemscore.DG>
-20.9589

> <Gold.Chemscore.ZeroCoef>
-5.4800

> <Gold.Chemscore.Hbond>
1.8068

> <Gold.Chemscore.Metal>
0.0000

> <Gold.Chemscore.Lipo>
118.1926

> <Gold.Chemscore.Internal_Hbond>
0.0000

> <Gold.Chemscore.DEClash>
0.0165

> <Gold.Chemscore.DEInternal>
0.9533

> <Gold.Chemscore.Rot>
1.7127

> <Gold.Chemscore.Internal.Correction>
   9.000000E+99

> <Gold.Chemscore.Hbonds>
donor molecule, donor type, donor heavy atom, donor atom, acceptor molecule, acceptor atom, score
      L1  H    10    30       P1  8028  0.95
      P1  H  7989  7998       L1     9  0.17

> <Gold.Chemscore.Hbond.Weighted>
-6.0349

> <Gold.Chemscore.Metal.Weighted>
-0.0000

> <Gold.Chemscore.Lipo.Weighted>
-13.8285

> <Gold.Chemscore.Internal_Hbond.Weighted>
0.0000

> <Gold.Chemscore.DEClash.Weighted>
0.0165

> <Gold.Chemscore.DEInternal.Weighted>
0.9533

> <Gold.Chemscore.Rot.Weighted>
4.3846

> <Gold.Chemscore.Internal.Correction.Weighted>
   9.000000E+99

> <Gold.Protein.RotatedTorsions>
[ 6907 6896 6895 6894 ] final  -89.94 input  -60.11 | X-H torsion
[ 7974 7965 7964 7962 ] final  -73.62 input  175.53 | X-H torsion
[ 8008 7997 7996 7995 ] final -154.75 input   59.86 | X-H torsion
[ 10167 10162 10161 10158 ] final  129.26 input  -65.29 | X-H torsion
[ 10718 10713 10712 10709 ] final  -83.59 input   66.30 | X-H torsion
[ 10763 10752 10751 10750 ] final  148.35 input  -60.55 | X-H torsion
[ 11005 11000 10999 10996 ] final   69.25 input  -57.11 | X-H torsion

> <Gold.Protein.ActiveResidues>
 VAL166  LYS551  ARG553  GLY616  TRP617  ASP618  TYR619  PRO620  LYS621  CYS622 
 ASP623  PHE694  ASN695  SER759  ASP760  ASP761  ALA762  ILE779  LEU786  VAL792 
 PHE793  MET794  SER795  GLU796  ALA797  LYS798  CYS799  TRP800  GLU811  SER814 

> <Gold.Protein.RotatedAtoms>
  150.6877  134.2509  159.4510 H   0  0  0  0  0  0  0  0  0  0  0  0  # atno 6907 bound_to 6896
  152.0447  134.9688  160.0583 H   0  0  0  0  0  0  0  0  0  0  0  0  # atno 6908 bound_to 6896
  152.1176  133.4300  159.4697 H   0  0  0  0  0  0  0  0  0  0  0  0  # atno 6909 bound_to 6896
  145.6498  140.9286  143.0991 H   0  0  0  0  0  0  0  0  0  0  0  0  # atno 7974 bound_to 7965
  155.6913  140.0755  157.2447 H   0  0  0  0  0  0  0  0  0  0  0  0  # atno 8008 bound_to 7997
  154.4088  140.1664  156.2142 H   0  0  0  0  0  0  0  0  0  0  0  0  # atno 8009 bound_to 7997
  155.9449  140.3381  155.6362 H   0  0  0  0  0  0  0  0  0  0  0  0  # atno 8010 bound_to 7997
  139.5486  144.6795  151.4393 H   0  0  0  0  0  0  0  0  0  0  0  0  # atno 10167 bound_to 10162
  156.0016  130.4670  150.4280 H   0  0  0  0  0  0  0  0  0  0  0  0  # atno 10718 bound_to 10713
  154.0533  135.2880  155.3337 H   0  0  0  0  0  0  0  0  0  0  0  0  # atno 10763 bound_to 10752
  154.6855  135.5247  153.8324 H   0  0  0  0  0  0  0  0  0  0  0  0  # atno 10764 bound_to 10752
  153.0552  135.6592  154.0727 H   0  0  0  0  0  0  0  0  0  0  0  0  # atno 10765 bound_to 10752
  139.9664  134.6973  156.0536 H   0  0  0  0  0  0  0  0  0  0  0  0  # atno 11005 bound_to 11000
  144.7127  139.8311  143.7409 LP  0  0  0  0  0  0  0  0  0  0  0  0  # atno 17320 bound_to 7965
  146.1213  139.4232  143.0226 LP  0  0  0  0  0  0  0  0  0  0  0  0  # atno 17321 bound_to 7965
  140.6742  143.8226  150.7038 LP  0  0  0  0  0  0  0  0  0  0  0  0  # atno 17342 bound_to 10162
  140.1659  143.4235  152.2034 LP  0  0  0  0  0  0  0  0  0  0  0  0  # atno 17343 bound_to 10162
  157.2331  131.0508  151.2480 LP  0  0  0  0  0  0  0  0  0  0  0  0  # atno 17370 bound_to 10713
  157.3692  130.7172  149.6553 LP  0  0  0  0  0  0  0  0  0  0  0  0  # atno 17371 bound_to 10713
  141.1344  133.6578  156.3553 LP  0  0  0  0  0  0  0  0  0  0  0  0  # atno 17394 bound_to 11000
  140.5386  134.6142  157.5373 LP  0  0  0  0  0  0  0  0  0  0  0  0  # atno 17395 bound_to 11000

$$$$
