AV-unprocessed.smi:871|AV-procd|sdf|4011|dock4
  -GOLD-   22720 1503D 1   1.00000     0.00000
 Structure written by MMmdl.
 19 19  0  0  0  0  0  0  0  0  2 V2000
  150.7298  144.5096  157.7165 N   0  0  0  0  0  0  0  0  0  0  0  0
  151.4355  143.4013  158.1434 C   0  0  0  0  0  0  0  0  0  0  0  0
  152.3755  143.4854  159.1075 C   0  0  0  0  0  0  0  0  0  0  0  0
  153.1021  142.3147  159.5337 C   0  0  0  0  0  0  0  0  0  0  0  0
  152.8083  141.1418  158.9542 C   0  0  0  0  0  0  0  0  0  0  0  0
  151.8167  141.0263  157.9594 N   0  0  0  0  0  0  0  0  0  0  0  0
  151.6143  139.6866  157.3814 C   0  0  0  0  0  0  0  0  0  0  0  0
  152.0109  139.6334  155.9030 C   0  0  0  0  0  0  0  0  0  0  0  0
  153.0627  139.0203  155.6175 O   0  0  0  0  0  0  0  0  0  0  0  0
  151.2568  140.2061  155.0859 O   0  5  0  0  0  0  0  0  0  0  0  0
  151.1191  142.1119  157.5004 C   0  0  0  0  0  0  0  0  0  0  0  0
  150.2745  142.0132  156.6071 O   0  0  0  0  0  0  0  0  0  0  0  0
  150.0254  144.4504  156.9958 H   0  0  0  0  0  0  0  0  0  0  0  0
  150.9519  145.4351  158.0550 H   0  0  0  0  0  0  0  0  0  0  0  0
  152.5933  144.4380  159.5681 H   0  0  0  0  0  0  0  0  0  0  0  0
  153.8659  142.3813  160.2944 H   0  0  0  0  0  0  0  0  0  0  0  0
  153.3092  140.2187  159.2094 H   0  0  0  0  0  0  0  0  0  0  0  0
  152.1553  138.9016  157.9110 H   0  0  0  0  0  0  0  0  0  0  0  0
  150.5604  139.4201  157.4780 H   0  0  0  0  0  0  0  0  0  0  0  0
  1  2  1  0  0  0  0
  1 13  1  0  0  0  0
  1 14  1  0  0  0  0
  2 11  1  0  0  0  0
  2  3  2  0  0  0  0
  3  4  1  0  0  0  0
  3 15  1  0  0  0  0
  4  5  2  0  0  0  0
  4 16  1  0  0  0  0
  5  6  1  0  0  0  0
  5 17  1  0  0  0  0
  6  7  1  0  0  0  0
  6 11  1  0  0  0  0
  7  8  1  0  0  0  0
  7 18  1  0  0  0  0
  7 19  1  0  0  0  0
  8  9  2  0  0  0  0
  8 10  1  0  0  0  0
 11 12  2  0  0  0  0
M  CHG  1  10  -1
M  END
> <s_m_source_file>
AV-unprocessed.smi

> <i_m_source_file_index>
871

> <i_lp_mmshare_version>
43012

> <i_f3d_flags>
0

> <s_epik_input>
W05IMl1jMVtjSF1bY0hdW2NIXW4oYzE9TylbQ0gyXUMoPU8pW09IXQ==

> <s_epik_cmdline>
J2VwaWtfcHl0aG9uJywgJy1waCcsICc3LjAnLCAnLXRuJywgJzgnLCAnLW1hJywgJzIwMCcsICctbWV0YWxfYmluZGluZycsICctaW1hZScsICc8aW5maWxlLm1hZT4nLCAnLW9tYWUnLCAnPG91dGZpbGUubWFlPic=

> <r_lp_tautomer_probability>
1

> <r_epik_Ionization_Penalty>
0.00200637

> <r_epik_Ionization_Penalty_Charging>
0.0012605

> <r_epik_Ionization_Penalty_Neutral>
0.000745874

> <r_epik_State_Penalty>
-0

> <r_epik_Charging_Adjusted_Penalty>
0.0012605

> <i_epik_Tot_Q>
-1

> <i_epik_Tot_abs_Q>
1

> <r_epik_Metal_State_Penalty>
-0

> <b_epik_Metal_Only>
0

> <s_lp_Force_Field>
OPLS_2005

> <r_lp_Energy>
10.9711

> <b_lp_Chiralities_Consistent>
1

> <s_lp_Variant>
AV-unprocessed.smi:871-1

> <Gold.Version>
5.8.1

> <Gold.Id.Protein>
6NUR|6NUR_protein|mol2

> <Gold.PLP.Fitness>
38.0634

> <Gold.PLP.PLP>
-26.3839

> <Gold.PLP.part.hbond>
-3.4829

> <Gold.PLP.part.metal>
0.0000

> <Gold.PLP.part.buried>
-4.7147

> <Gold.PLP.part.nonpolar>
-19.1795

> <Gold.PLP.part.repulsive>
0.2335

> <Gold.PLP.ligand.clash>
0.0000

> <Gold.PLP.ligand.torsion>
0.1630

> <Gold.PLP.Chemscore.Hbond>
4.0000

> <Gold.PLP.Chemscore.CHOScore>
0.0000

> <Gold.PLP.Chemscore.Metal>
0.0000

> <Gold.Chemscore.Hbonds>
donor molecule, donor type, donor heavy atom, donor atom, acceptor molecule, acceptor atom, score
      L1  H     1    13       P1  8028  1.00
      P1  H  7989  7998       L1    10  1.00
      P1  H  7997  8009       L1     9  2.00

> <Gold.PLP.Chemscore.Internal.Correction>
0.0055

> <Gold.Rescore>
     Score         DG    S(hbond)    S(metal)    S(lipo)     H(rot)  DE(clash)    DE(int)     intcor
     14.68     -16.53       2.82        0.00      48.63       1.58       0.05       1.80       ----

> <Gold.Chemscore.Fitness>
14.6833

> <Gold.Chemscore.DG>
-16.5283

> <Gold.Chemscore.ZeroCoef>
-5.4800

> <Gold.Chemscore.Hbond>
2.8186

> <Gold.Chemscore.Metal>
0.0000

> <Gold.Chemscore.Lipo>
48.6298

> <Gold.Chemscore.Internal_Hbond>
0.0000

> <Gold.Chemscore.DEClash>
0.0468

> <Gold.Chemscore.DEInternal>
1.7982

> <Gold.Chemscore.Rot>
1.5841

> <Gold.Chemscore.Internal.Correction>
   9.000000E+99

> <Gold.Chemscore.Hbonds>
donor molecule, donor type, donor heavy atom, donor atom, acceptor molecule, acceptor atom, score
      L1  H     1    13       P1  8028  0.65
      P1  H  7989  7998       L1    10  0.98
      P1  H  7997  8009       L1     9  0.50

> <Gold.Chemscore.Hbond.Weighted>
-9.4140

> <Gold.Chemscore.Metal.Weighted>
-0.0000

> <Gold.Chemscore.Lipo.Weighted>
-5.6897

> <Gold.Chemscore.Internal_Hbond.Weighted>
0.0000

> <Gold.Chemscore.DEClash.Weighted>
0.0468

> <Gold.Chemscore.DEInternal.Weighted>
1.7982

> <Gold.Chemscore.Rot.Weighted>
4.0554

> <Gold.Chemscore.Internal.Correction.Weighted>
   9.000000E+99

> <Gold.Protein.RotatedTorsions>
[ 6907 6896 6895 6894 ] final  103.54 input  -60.11 | X-H torsion
[ 7974 7965 7964 7962 ] final  -99.46 input  175.53 | X-H torsion
[ 8008 7997 7996 7995 ] final -144.64 input   59.86 | X-H torsion
[ 10167 10162 10161 10158 ] final  118.68 input  -65.29 | X-H torsion
[ 10718 10713 10712 10709 ] final    1.24 input   66.30 | X-H torsion
[ 10763 10752 10751 10750 ] final  -68.10 input  -60.55 | X-H torsion
[ 11005 11000 10999 10996 ] final   36.03 input  -57.11 | X-H torsion

> <Gold.Protein.ActiveResidues>
 VAL166  LYS551  ARG553  GLY616  TRP617  ASP618  TYR619  PRO620  LYS621  CYS622 
 ASP623  PHE694  ASN695  SER759  ASP760  ASP761  ALA762  ILE779  LEU786  VAL792 
 PHE793  MET794  SER795  GLU796  ALA797  LYS798  CYS799  TRP800  GLU811  SER814 

> <Gold.Protein.RotatedAtoms>
  152.5292  133.9810  159.7806 H   0  0  0  0  0  0  0  0  0  0  0  0  # atno 6907 bound_to 6896
  151.0064  133.5999  159.2695 H   0  0  0  0  0  0  0  0  0  0  0  0  # atno 6908 bound_to 6896
  151.3090  135.0795  159.9319 H   0  0  0  0  0  0  0  0  0  0  0  0  # atno 6909 bound_to 6896
  145.3073  140.9392  143.2790 H   0  0  0  0  0  0  0  0  0  0  0  0  # atno 7974 bound_to 7965
  155.5302  140.0599  157.2890 H   0  0  0  0  0  0  0  0  0  0  0  0  # atno 8008 bound_to 7997
  154.4487  140.1937  156.0531 H   0  0  0  0  0  0  0  0  0  0  0  0  # atno 8009 bound_to 7997
  156.0658  140.3266  155.7519 H   0  0  0  0  0  0  0  0  0  0  0  0  # atno 8010 bound_to 7997
  139.6095  144.7078  151.2876 H   0  0  0  0  0  0  0  0  0  0  0  0  # atno 10167 bound_to 10162
  156.8452  130.5535  149.5674 H   0  0  0  0  0  0  0  0  0  0  0  0  # atno 10718 bound_to 10713
  154.3841  135.6067  153.5807 H   0  0  0  0  0  0  0  0  0  0  0  0  # atno 10763 bound_to 10752
  152.9788  135.5868  154.4375 H   0  0  0  0  0  0  0  0  0  0  0  0  # atno 10764 bound_to 10752
  154.4149  135.2845  155.1991 H   0  0  0  0  0  0  0  0  0  0  0  0  # atno 10765 bound_to 10752
  140.2367  134.3464  155.7942 H   0  0  0  0  0  0  0  0  0  0  0  0  # atno 11005 bound_to 11000
  144.9045  139.4607  143.6617 LP  0  0  0  0  0  0  0  0  0  0  0  0  # atno 17320 bound_to 7965
  146.3131  139.7817  142.9005 LP  0  0  0  0  0  0  0  0  0  0  0  0  # atno 17321 bound_to 7965
  140.7309  143.6866  150.7956 LP  0  0  0  0  0  0  0  0  0  0  0  0  # atno 17342 bound_to 10162
  140.0458  143.5299  152.2696 LP  0  0  0  0  0  0  0  0  0  0  0  0  # atno 17343 bound_to 10162
  156.0858  130.5857  150.9646 LP  0  0  0  0  0  0  0  0  0  0  0  0  # atno 17370 bound_to 10713
  157.6333  131.0918  150.8397 LP  0  0  0  0  0  0  0  0  0  0  0  0  # atno 17371 bound_to 10713
  141.2214  133.7275  156.8819 LP  0  0  0  0  0  0  0  0  0  0  0  0  # atno 17394 bound_to 11000
  140.1695  134.9109  157.2816 LP  0  0  0  0  0  0  0  0  0  0  0  0  # atno 17395 bound_to 11000

$$$$
