AV-unprocessed.smi:3269|AV-procd|sdf|12510|dock6
  -GOLD-   2272018413D 1   1.00000     0.00000
 Structure written by MMmdl.
 39 40  0  0  0  0  0  0  0  0  1 V2000
  152.6342  140.4190  158.9160 C   0  0  0  0  0  0  0  0  0  0  0  0
  152.4151  141.7097  159.6512 C   0  0  0  0  0  0  0  0  0  0  0  0
  152.8032  141.8145  160.9114 N   0  0  0  0  0  0  0  0  0  0  0  0
  152.4742  143.0721  161.2689 N   0  0  0  0  0  0  0  0  0  0  0  0
  152.7637  143.5282  162.6144 C   0  0  0  0  0  0  0  0  0  0  0  0
  151.8784  143.7632  160.2317 C   0  0  0  0  0  0  0  0  0  0  0  0
  151.4283  145.1815  160.3731 C   0  0  0  0  0  0  0  0  0  0  0  0
  151.8146  142.9076  159.1644 C   0  0  0  0  0  0  0  0  0  0  0  0
  151.2464  143.1539  157.7873 C   0  0  0  0  0  0  0  0  0  0  0  0
  150.3086  142.0232  157.3476 C   0  0  0  0  0  0  0  0  0  0  0  0
  150.0712  141.0669  158.0870 O   0  0  0  0  0  0  0  0  0  0  0  0
  149.7806  142.1515  156.1210 N   0  0  0  0  0  0  0  0  0  0  0  0
  148.8412  141.2206  155.5027 C   0  0  0  0  0  0  0  0  0  0  0  0
  149.5467  140.0995  154.7152 C   0  0  2  0  0  0  0  0  0  0  0  0
  149.1539  138.6687  155.0946 C   0  0  0  0  0  0  0  0  0  0  0  0
  150.3676  137.8940  154.6337 C   0  0  0  0  0  0  0  0  0  0  0  0
  151.5006  138.8489  154.9986 C   0  0  0  0  0  0  0  0  0  0  0  0
  150.9627  140.1621  154.8695 O   0  0  0  0  0  0  0  0  0  0  0  0
  153.0668  140.6013  157.9327 H   0  0  0  0  0  0  0  0  0  0  0  0
  151.6927  139.8892  158.7716 H   0  0  0  0  0  0  0  0  0  0  0  0
  153.3111  139.7554  159.4551 H   0  0  0  0  0  0  0  0  0  0  0  0
  151.8461  143.8792  163.0874 H   0  0  0  0  0  0  0  0  0  0  0  0
  153.4818  144.3475  162.5767 H   0  0  0  0  0  0  0  0  0  0  0  0
  153.1819  142.7190  163.2151 H   0  0  0  0  0  0  0  0  0  0  0  0
  151.1682  145.6117  159.4061 H   0  0  0  0  0  0  0  0  0  0  0  0
  152.2151  145.7987  160.8071 H   0  0  0  0  0  0  0  0  0  0  0  0
  150.5517  145.2459  161.0177 H   0  0  0  0  0  0  0  0  0  0  0  0
  150.6946  144.0944  157.7626 H   0  0  0  0  0  0  0  0  0  0  0  0
  152.0378  143.2517  157.0440 H   0  0  0  0  0  0  0  0  0  0  0  0
  150.0328  142.9667  155.5815 H   0  0  0  0  0  0  0  0  0  0  0  0
  148.2417  140.7788  156.2988 H   0  0  0  0  0  0  0  0  0  0  0  0
  148.1410  141.7517  154.8557 H   0  0  0  0  0  0  0  0  0  0  0  0
  149.3452  140.2389  153.6520 H   0  0  0  0  0  0  0  0  0  0  0  0
  149.0378  138.5555  156.1728 H   0  0  0  0  0  0  0  0  0  0  0  0
  148.2304  138.3413  154.6165 H   0  0  0  0  0  0  0  0  0  0  0  0
  150.4621  136.9181  155.1104 H   0  0  0  0  0  0  0  0  0  0  0  0
  150.3314  137.7471  153.5535 H   0  0  0  0  0  0  0  0  0  0  0  0
  151.8014  138.7000  156.0358 H   0  0  0  0  0  0  0  0  0  0  0  0
  152.3799  138.7133  154.3688 H   0  0  0  0  0  0  0  0  0  0  0  0
  1  2  1  0  0  0  0
  1 19  1  0  0  0  0
  1 20  1  0  0  0  0
  1 21  1  0  0  0  0
  2  8  1  0  0  0  0
  2  3  2  0  0  0  0
  3  4  1  0  0  0  0
  4  5  1  0  0  0  0
  4  6  1  0  0  0  0
  5 22  1  0  0  0  0
  5 23  1  0  0  0  0
  5 24  1  0  0  0  0
  6  7  1  0  0  0  0
  6  8  2  0  0  0  0
  7 25  1  0  0  0  0
  7 26  1  0  0  0  0
  7 27  1  0  0  0  0
  8  9  1  0  0  0  0
  9 10  1  0  0  0  0
  9 28  1  0  0  0  0
  9 29  1  0  0  0  0
 10 11  2  0  0  0  0
 10 12  1  0  0  0  0
 12 13  1  0  0  0  0
 12 30  1  0  0  0  0
 13 14  1  0  0  0  0
 13 31  1  0  0  0  0
 13 32  1  0  0  0  0
 14 18  1  0  0  0  0
 14 15  1  0  0  0  0
 14 33  1  0  0  0  0
 15 16  1  0  0  0  0
 15 34  1  0  0  0  0
 15 35  1  0  0  0  0
 16 17  1  0  0  0  0
 16 36  1  0  0  0  0
 16 37  1  0  0  0  0
 17 18  1  0  0  0  0
 17 38  1  0  0  0  0
 17 39  1  0  0  0  0
M  END
> <s_m_source_file>
AV-unprocessed.smi

> <i_m_source_file_index>
3269

> <i_lp_mmshare_version>
43012

> <i_f3d_flags>
0

> <s_epik_input>
W0NIM11jMW5uKFtDSDNdKWMoW0NIM10pYzFbQ0gyXUMoPU8pW05IXVtDSDJdW0NAQEhdMltDSDJdW0NIMl1bQ0gyXU8y

> <s_epik_cmdline>
J2VwaWtfcHl0aG9uJywgJy1waCcsICc3LjAnLCAnLXRuJywgJzgnLCAnLW1hJywgJzIwMCcsICctbWV0YWxfYmluZGluZycsICctaW1hZScsICc8aW5maWxlLm1hZT4nLCAnLW9tYWUnLCAnPG91dGZpbGUubWFlPic=

> <r_lp_tautomer_probability>
1

> <r_epik_Ionization_Penalty>
0.00306713

> <r_epik_Ionization_Penalty_Charging>
0

> <r_epik_Ionization_Penalty_Neutral>
0.00306713

> <r_epik_State_Penalty>
0.00215672

> <r_epik_Charging_Adjusted_Penalty>
0.00215672

> <i_epik_Tot_Q>
0

> <i_epik_Tot_abs_Q>
0

> <r_epik_Metal_State_Penalty>
-0

> <b_epik_Metal_Only>
0

> <s_lp_Force_Field>
OPLS_2005

> <r_lp_Energy>
13.6043

> <b_lp_Chiralities_Consistent>
1

> <s_lp_Variant>
AV-unprocessed.smi:3269-1

> <Gold.Version>
5.8.1

> <Gold.Id.Protein>
6NUR|6NUR_protein|mol2

> <Gold.PLP.Fitness>
44.5111

> <Gold.PLP.PLP>
-42.0676

> <Gold.PLP.part.hbond>
-1.9943

> <Gold.PLP.part.metal>
0.0000

> <Gold.PLP.part.buried>
-7.0223

> <Gold.PLP.part.nonpolar>
-34.4159

> <Gold.PLP.part.repulsive>
0.1980

> <Gold.PLP.ligand.clash>
0.0000

> <Gold.PLP.ligand.torsion>
1.0435

> <Gold.PLP.Chemscore.Hbond>
1.5075

> <Gold.PLP.Chemscore.CHOScore>
0.0000

> <Gold.PLP.Chemscore.Metal>
0.0000

> <Gold.Chemscore.Hbonds>
donor molecule, donor type, donor heavy atom, donor atom, acceptor molecule, acceptor atom, score
      L1  H    12    30       P1  8028  0.37
      P1  H  7989  7998       L1    18  1.00

> <Gold.PLP.Chemscore.Internal.Correction>
0.0080

> <Gold.Rescore>
     Score         DG    S(hbond)    S(metal)    S(lipo)     H(rot)  DE(clash)    DE(int)     intcor
     15.20     -17.11       1.07        0.00     101.76       1.50       0.08       1.83       ----

> <Gold.Chemscore.Fitness>
15.1993

> <Gold.Chemscore.DG>
-17.1078

> <Gold.Chemscore.ZeroCoef>
-5.4800

> <Gold.Chemscore.Hbond>
1.0656

> <Gold.Chemscore.Metal>
0.0000

> <Gold.Chemscore.Lipo>
101.7589

> <Gold.Chemscore.Internal_Hbond>
0.0000

> <Gold.Chemscore.DEClash>
0.0831

> <Gold.Chemscore.DEInternal>
1.8254

> <Gold.Chemscore.Rot>
1.4989

> <Gold.Chemscore.Internal.Correction>
   9.000000E+99

> <Gold.Chemscore.Hbonds>
donor molecule, donor type, donor heavy atom, donor atom, acceptor molecule, acceptor atom, score
      L1  H    12    30       P1  8028  0.36
      P1  H  7989  7998       L1    18  0.46

> <Gold.Chemscore.Hbond.Weighted>
-3.5591

> <Gold.Chemscore.Metal.Weighted>
-0.0000

> <Gold.Chemscore.Lipo.Weighted>
-11.9058

> <Gold.Chemscore.Internal_Hbond.Weighted>
0.0000

> <Gold.Chemscore.DEClash.Weighted>
0.0831

> <Gold.Chemscore.DEInternal.Weighted>
1.8254

> <Gold.Chemscore.Rot.Weighted>
3.8371

> <Gold.Chemscore.Internal.Correction.Weighted>
   9.000000E+99

> <Gold.Protein.RotatedTorsions>
[ 6907 6896 6895 6894 ] final    8.26 input  -60.11 | X-H torsion
[ 7974 7965 7964 7962 ] final  -25.78 input  175.53 | X-H torsion
[ 8008 7997 7996 7995 ] final   95.32 input   59.86 | X-H torsion
[ 10167 10162 10161 10158 ] final  116.85 input  -65.29 | X-H torsion
[ 10718 10713 10712 10709 ] final  178.74 input   66.30 | X-H torsion
[ 10763 10752 10751 10750 ] final  -56.74 input  -60.55 | X-H torsion
[ 11005 11000 10999 10996 ] final  -80.62 input  -57.11 | X-H torsion

> <Gold.Protein.ActiveResidues>
 VAL166  LYS551  ARG553  GLY616  TRP617  ASP618  TYR619  PRO620  LYS621  CYS622 
 ASP623  PHE694  ASN695  SER759  ASP760  ASP761  ALA762  ILE779  LEU786  VAL792 
 PHE793  MET794  SER795  GLU796  ALA797  LYS798  CYS799  TRP800  GLU811  SER814 

> <Gold.Protein.RotatedAtoms>
  151.7031  135.0926  160.0254 H   0  0  0  0  0  0  0  0  0  0  0  0  # atno 6907 bound_to 6896
  152.3708  133.6412  159.6094 H   0  0  0  0  0  0  0  0  0  0  0  0  # atno 6908 bound_to 6896
  150.7672  133.9189  159.3433 H   0  0  0  0  0  0  0  0  0  0  0  0  # atno 6909 bound_to 6896
  146.1468  140.4933  142.8628 H   0  0  0  0  0  0  0  0  0  0  0  0  # atno 7974 bound_to 7965
  156.0676  140.3288  155.7536 H   0  0  0  0  0  0  0  0  0  0  0  0  # atno 8008 bound_to 7997
  155.5357  140.0597  157.2897 H   0  0  0  0  0  0  0  0  0  0  0  0  # atno 8009 bound_to 7997
  154.4513  140.1919  156.0528 H   0  0  0  0  0  0  0  0  0  0  0  0  # atno 8010 bound_to 7997
  139.6218  144.7102  151.2617 H   0  0  0  0  0  0  0  0  0  0  0  0  # atno 10167 bound_to 10162
  156.8861  130.9832  151.3055 H   0  0  0  0  0  0  0  0  0  0  0  0  # atno 10718 bound_to 10713
  154.2115  135.6393  153.5116 H   0  0  0  0  0  0  0  0  0  0  0  0  # atno 10763 bound_to 10752
  152.9989  135.5475  154.6210 H   0  0  0  0  0  0  0  0  0  0  0  0  # atno 10764 bound_to 10752
  154.5648  135.2912  155.0858 H   0  0  0  0  0  0  0  0  0  0  0  0  # atno 10765 bound_to 10752
  141.1668  133.7159  156.8300 H   0  0  0  0  0  0  0  0  0  0  0  0  # atno 11005 bound_to 11000
  144.7856  140.5930  143.6576 LP  0  0  0  0  0  0  0  0  0  0  0  0  # atno 17320 bound_to 7965
  145.4917  139.1488  143.3706 LP  0  0  0  0  0  0  0  0  0  0  0  0  # atno 17321 bound_to 7965
  140.7387  143.6641  150.8139 LP  0  0  0  0  0  0  0  0  0  0  0  0  # atno 17342 bound_to 10162
  140.0253  143.5500  152.2783 LP  0  0  0  0  0  0  0  0  0  0  0  0  # atno 17343 bound_to 10162
  157.6111  130.8584  149.8954 LP  0  0  0  0  0  0  0  0  0  0  0  0  # atno 17370 bound_to 10713
  156.0652  130.3693  150.0893 LP  0  0  0  0  0  0  0  0  0  0  0  0  # atno 17371 bound_to 10713
  140.2058  134.8864  157.3219 LP  0  0  0  0  0  0  0  0  0  0  0  0  # atno 17394 bound_to 11000
  140.2139  134.4105  155.7599 LP  0  0  0  0  0  0  0  0  0  0  0  0  # atno 17395 bound_to 11000

$$$$
