AV-unprocessed.smi:859|AV-procd|sdf|3964|dock9
  -GOLD-   22720 1433D 1   1.00000     0.00000
 Structure written by MMmdl.
 35 36  0  0  0  0  0  0  0  0  1 V2000
  152.7681  140.0068  157.6834 O   0  0  0  0  0  0  0  0  0  0  0  0
  151.6985  140.6169  157.6702 C   0  0  0  0  0  0  0  0  0  0  0  0
  150.6236  140.2032  156.9809 N   0  0  0  0  0  0  0  0  0  0  0  0
  150.5821  139.0342  156.1068 C   0  0  0  0  0  0  0  0  0  0  0  0
  150.4604  139.4331  154.6241 C   0  0  0  0  0  0  0  0  0  0  0  0
  149.1679  140.0117  154.3048 N   0  0  0  0  0  0  0  0  0  0  0  0
  148.1310  139.4110  153.6026 C   0  0  0  0  0  0  0  0  0  0  0  0
  147.1047  140.3272  153.5564 C   0  0  0  0  0  0  0  0  0  0  0  0
  147.4888  141.4945  154.2122 N   0  0  0  0  0  0  0  0  0  0  0  0
  148.7214  141.2333  154.6279 C   0  0  0  0  0  0  0  0  0  0  0  0
  151.5513  141.9341  158.4427 C   0  0  0  0  0  0  0  0  0  0  0  0
  151.3175  143.1093  157.4687 C   0  0  0  0  0  0  0  0  0  0  0  0
  151.1880  144.4445  158.2194 C   0  0  0  0  0  0  0  0  0  0  0  0
  152.4168  144.7063  159.1044 C   0  0  0  0  0  0  0  0  0  0  0  0
  152.6604  143.5408  160.0762 C   0  0  0  0  0  0  0  0  0  0  0  0
  152.7897  142.2059  159.3238 C   0  0  0  0  0  0  0  0  0  0  0  0
  149.7851  140.7635  157.0321 H   0  0  0  0  0  0  0  0  0  0  0  0
  151.4499  138.3907  156.2620 H   0  0  0  0  0  0  0  0  0  0  0  0
  149.7129  138.4411  156.3912 H   0  0  0  0  0  0  0  0  0  0  0  0
  151.2299  140.1637  154.3727 H   0  0  0  0  0  0  0  0  0  0  0  0
  150.6288  138.5683  153.9810 H   0  0  0  0  0  0  0  0  0  0  0  0
  148.2040  138.4066  153.2125 H   0  0  0  0  0  0  0  0  0  0  0  0
  146.1278  140.2371  153.1050 H   0  0  0  0  0  0  0  0  0  0  0  0
  149.3117  141.9453  155.1858 H   0  0  0  0  0  0  0  0  0  0  0  0
  150.6805  141.8552  159.0961 H   0  0  0  0  0  0  0  0  0  0  0  0
  152.1413  143.1779  156.7562 H   0  0  0  0  0  0  0  0  0  0  0  0
  150.4165  142.9348  156.8788 H   0  0  0  0  0  0  0  0  0  0  0  0
  151.0629  145.2603  157.5068 H   0  0  0  0  0  0  0  0  0  0  0  0
  150.2887  144.4325  158.8366 H   0  0  0  0  0  0  0  0  0  0  0  0
  153.2964  144.8465  158.4749 H   0  0  0  0  0  0  0  0  0  0  0  0
  152.2836  145.6341  159.6614 H   0  0  0  0  0  0  0  0  0  0  0  0
  153.5627  143.7267  160.6595 H   0  0  0  0  0  0  0  0  0  0  0  0
  151.8375  143.4813  160.7896 H   0  0  0  0  0  0  0  0  0  0  0  0
  152.9258  141.3955  160.0411 H   0  0  0  0  0  0  0  0  0  0  0  0
  153.6915  142.2292  158.7098 H   0  0  0  0  0  0  0  0  0  0  0  0
  1  2  2  0  0  0  0
  2  3  1  0  0  0  0
  2 11  1  0  0  0  0
  3  4  1  0  0  0  0
  3 17  1  0  0  0  0
  4  5  1  0  0  0  0
  4 18  1  0  0  0  0
  4 19  1  0  0  0  0
  5  6  1  0  0  0  0
  5 20  1  0  0  0  0
  5 21  1  0  0  0  0
  6 10  1  0  0  0  0
  6  7  1  0  0  0  0
  7  8  2  0  0  0  0
  7 22  1  0  0  0  0
  8  9  1  0  0  0  0
  8 23  1  0  0  0  0
  9 10  2  0  0  0  0
 10 24  1  0  0  0  0
 11 16  1  0  0  0  0
 11 12  1  0  0  0  0
 11 25  1  0  0  0  0
 12 13  1  0  0  0  0
 12 26  1  0  0  0  0
 12 27  1  0  0  0  0
 13 14  1  0  0  0  0
 13 28  1  0  0  0  0
 13 29  1  0  0  0  0
 14 15  1  0  0  0  0
 14 30  1  0  0  0  0
 14 31  1  0  0  0  0
 15 16  1  0  0  0  0
 15 32  1  0  0  0  0
 15 33  1  0  0  0  0
 16 34  1  0  0  0  0
 16 35  1  0  0  0  0
M  END
> <s_m_source_file>
AV-unprocessed.smi

> <i_m_source_file_index>
859

> <i_lp_mmshare_version>
43012

> <i_f3d_flags>
0

> <s_epik_input>
W0NIMl0xW0NIMl1bQ0gyXVtDSDJdW0NIMl1bQ0hdMUMoPU8pW05IXVtDSDJdW0NIMl1uMltjSF1bY0hdbltjSF0y

> <s_epik_cmdline>
J2VwaWtfcHl0aG9uJywgJy1waCcsICc3LjAnLCAnLXRuJywgJzgnLCAnLW1hJywgJzIwMCcsICctbWV0YWxfYmluZGluZycsICctaW1hZScsICc8aW5maWxlLm1hZT4nLCAnLW9tYWUnLCAnPG91dGZpbGUubWFlPic=

> <r_lp_tautomer_probability>
1

> <r_epik_Ionization_Penalty>
0.600603

> <r_epik_Ionization_Penalty_Charging>
0.600603

> <r_epik_Ionization_Penalty_Neutral>
2.01201e-08

> <r_epik_State_Penalty>
0.614954

> <r_epik_Charging_Adjusted_Penalty>
1.21556

> <i_epik_Tot_Q>
0

> <i_epik_Tot_abs_Q>
0

> <r_epik_Metal_State_Penalty>
0.301281

> <b_epik_Metal_Only>
0

> <s_lp_Force_Field>
OPLS_2005

> <r_lp_Energy>
12.3333

> <b_lp_Chiralities_Consistent>
1

> <s_lp_Variant>
AV-unprocessed.smi:859-2

> <Gold.Version>
5.8.1

> <Gold.Id.Protein>
6NUR|6NUR_protein|mol2

> <Gold.PLP.Fitness>
43.2773

> <Gold.PLP.PLP>
-35.0569

> <Gold.PLP.part.hbond>
-1.0000

> <Gold.PLP.part.metal>
0.0000

> <Gold.PLP.part.buried>
-0.9948

> <Gold.PLP.part.nonpolar>
-33.5186

> <Gold.PLP.part.repulsive>
0.1873

> <Gold.PLP.ligand.clash>
0.0000

> <Gold.PLP.ligand.torsion>
0.3096

> <Gold.PLP.Chemscore.Hbond>
1.0000

> <Gold.PLP.Chemscore.CHOScore>
1.9407

> <Gold.PLP.Chemscore.Metal>
0.0000

> <Gold.Chemscore.Hbonds>
donor molecule, donor type, donor heavy atom, donor atom, acceptor molecule, acceptor atom, score
      P1  H  7997  8009       L1     1  1.00
      L1  C     7    22       P1  7948  0.70
      L1  C     8    23       P1 10175  0.99
      L1  C    10    24       P1  8028  0.22

> <Gold.PLP.Chemscore.Internal.Correction>
0.0176

> <Gold.Rescore>
     Score         DG    S(hbond)    S(metal)    S(lipo)     H(rot)  DE(clash)    DE(int)     intcor
     15.04     -15.27       0.98        0.00      94.94       1.79       0.05       0.18       ----

> <Gold.Chemscore.Fitness>
15.0436

> <Gold.Chemscore.DG>
-15.2710

> <Gold.Chemscore.ZeroCoef>
-5.4800

> <Gold.Chemscore.Hbond>
0.9755

> <Gold.Chemscore.Metal>
0.0000

> <Gold.Chemscore.Lipo>
94.9400

> <Gold.Chemscore.Internal_Hbond>
0.0000

> <Gold.Chemscore.DEClash>
0.0491

> <Gold.Chemscore.DEInternal>
0.1782

> <Gold.Chemscore.Rot>
1.7872

> <Gold.Chemscore.Internal.Correction>
   9.000000E+99

> <Gold.Chemscore.Hbonds>
donor molecule, donor type, donor heavy atom, donor atom, acceptor molecule, acceptor atom, score
      P1  H  7997  8009       L1     1  0.97

> <Gold.Chemscore.Hbond.Weighted>
-3.2581

> <Gold.Chemscore.Metal.Weighted>
-0.0000

> <Gold.Chemscore.Lipo.Weighted>
-11.1080

> <Gold.Chemscore.Internal_Hbond.Weighted>
0.0000

> <Gold.Chemscore.DEClash.Weighted>
0.0491

> <Gold.Chemscore.DEInternal.Weighted>
0.1782

> <Gold.Chemscore.Rot.Weighted>
4.5751

> <Gold.Chemscore.Internal.Correction.Weighted>
   9.000000E+99

> <Gold.Protein.RotatedTorsions>
[ 6907 6896 6895 6894 ] final -145.70 input  -60.11 | X-H torsion
[ 7974 7965 7964 7962 ] final -145.07 input  175.53 | X-H torsion
[ 8008 7997 7996 7995 ] final  160.29 input   59.86 | X-H torsion
[ 10167 10162 10161 10158 ] final -137.56 input  -65.29 | X-H torsion
[ 10718 10713 10712 10709 ] final -152.96 input   66.30 | X-H torsion
[ 10763 10752 10751 10750 ] final  -31.57 input  -60.55 | X-H torsion
[ 11005 11000 10999 10996 ] final   34.39 input  -57.11 | X-H torsion

> <Gold.Protein.ActiveResidues>
 VAL166  LYS551  ARG553  GLY616  TRP617  ASP618  TYR619  PRO620  LYS621  CYS622 
 ASP623  PHE694  ASN695  SER759  ASP760  ASP761  ALA762  ILE779  LEU786  VAL792 
 PHE793  MET794  SER795  GLU796  ALA797  LYS798  CYS799  TRP800  GLU811  SER814 

> <Gold.Protein.RotatedAtoms>
  151.1315  133.5034  159.2598 H   0  0  0  0  0  0  0  0  0  0  0  0  # atno 6907 bound_to 6896
  151.1753  135.0336  159.8779 H   0  0  0  0  0  0  0  0  0  0  0  0  # atno 6908 bound_to 6896
  152.5460  134.1173  159.8437 H   0  0  0  0  0  0  0  0  0  0  0  0  # atno 6909 bound_to 6896
  144.8253  140.5631  143.5551 H   0  0  0  0  0  0  0  0  0  0  0  0  # atno 7974 bound_to 7965
  156.2182  140.1808  156.7538 H   0  0  0  0  0  0  0  0  0  0  0  0  # atno 8008 bound_to 7997
  154.5825  140.0664  156.9153 H   0  0  0  0  0  0  0  0  0  0  0  0  # atno 8009 bound_to 7997
  155.2478  140.3326  155.4288 H   0  0  0  0  0  0  0  0  0  0  0  0  # atno 8010 bound_to 7997
  139.8565  143.7131  152.2654 H   0  0  0  0  0  0  0  0  0  0  0  0  # atno 10167 bound_to 10162
  156.4795  130.8296  151.2524 H   0  0  0  0  0  0  0  0  0  0  0  0  # atno 10718 bound_to 10713
  153.7995  135.6891  153.4858 H   0  0  0  0  0  0  0  0  0  0  0  0  # atno 10763 bound_to 10752
  153.1698  135.4547  154.9885 H   0  0  0  0  0  0  0  0  0  0  0  0  # atno 10764 bound_to 10752
  154.8012  135.3338  154.7485 H   0  0  0  0  0  0  0  0  0  0  0  0  # atno 10765 bound_to 10752
  140.2534  134.3277  155.7882 H   0  0  0  0  0  0  0  0  0  0  0  0  # atno 11005 bound_to 11000
  145.5014  139.1483  143.3655 LP  0  0  0  0  0  0  0  0  0  0  0  0  # atno 17320 bound_to 7965
  146.2558  140.5153  142.8874 LP  0  0  0  0  0  0  0  0  0  0  0  0  # atno 17321 bound_to 7965
  139.7414  144.7558  151.0646 LP  0  0  0  0  0  0  0  0  0  0  0  0  # atno 17342 bound_to 10162
  140.7781  143.4967  150.9823 LP  0  0  0  0  0  0  0  0  0  0  0  0  # atno 17343 bound_to 10162
  157.7484  131.0049  150.3095 LP  0  0  0  0  0  0  0  0  0  0  0  0  # atno 17370 bound_to 10713
  156.3536  130.3835  149.7309 LP  0  0  0  0  0  0  0  0  0  0  0  0  # atno 17371 bound_to 10713
  141.2199  133.7366  156.9072 LP  0  0  0  0  0  0  0  0  0  0  0  0  # atno 17394 bound_to 11000
  140.1536  134.9213  157.2624 LP  0  0  0  0  0  0  0  0  0  0  0  0  # atno 17395 bound_to 11000

$$$$
