AV-unprocessed.smi:1848|AV-procd|sdf|7519|dock10
  -GOLD-   22720 9223D 1   1.00000     0.00000
 Structure written by MMmdl.
 31 31  0  0  0  0  0  0  0  0  1 V2000
  146.5653  143.2087  161.6477 C   0  0  0  0  0  0  0  0  0  0  0  0
  147.3090  144.1708  161.5369 C   0  0  0  0  0  0  0  0  0  0  0  0
  148.2038  145.3311  161.3862 C   0  0  0  0  0  0  0  0  0  0  0  0
  149.0525  145.2385  160.2036 N   0  0  0  0  0  0  0  0  0  0  0  0
  150.3038  144.7529  160.1810 C   0  0  0  0  0  0  0  0  0  0  0  0
  150.8835  144.3361  161.1848 O   0  0  0  0  0  0  0  0  0  0  0  0
  151.0048  144.7666  158.8150 C   0  0  0  0  0  0  0  0  0  0  0  0
  151.4249  143.4292  158.3631 N   0  0  0  0  0  0  0  0  0  0  0  0
  150.7724  142.9014  157.2309 C   0  0  0  0  0  0  0  0  0  0  0  0
  151.0791  141.6869  156.7233 C   0  0  0  0  0  0  0  0  0  0  0  0
  150.4263  141.1129  155.5430 C   0  0  0  0  0  0  0  0  0  0  0  0
  150.8426  140.1265  154.9339 O   0  0  0  0  0  0  0  0  0  0  0  0
  149.3101  141.7568  155.1599 N   0  0  0  0  0  0  0  0  0  0  0  0
  148.4907  141.3794  154.0182 C   0  0  0  0  0  0  0  0  0  0  0  0
  152.1175  140.9295  157.3953 C   0  0  0  0  0  0  0  0  0  0  0  0
  152.7491  141.4311  158.4745 C   0  0  0  0  0  0  0  0  0  0  0  0
  152.4173  142.7516  159.0161 C   0  0  0  0  0  0  0  0  0  0  0  0
  152.9959  143.2199  159.9969 O   0  0  0  0  0  0  0  0  0  0  0  0
  145.9126  142.3701  161.7420 H   0  0  0  0  0  0  0  0  0  0  0  0
  147.5997  146.2396  161.3711 H   0  0  0  0  0  0  0  0  0  0  0  0
  148.8377  145.3830  162.2714 H   0  0  0  0  0  0  0  0  0  0  0  0
  148.6567  145.5666  159.3346 H   0  0  0  0  0  0  0  0  0  0  0  0
  150.3467  145.2258  158.0749 H   0  0  0  0  0  0  0  0  0  0  0  0
  151.8643  145.4350  158.8816 H   0  0  0  0  0  0  0  0  0  0  0  0
  150.0242  143.5609  156.8149 H   0  0  0  0  0  0  0  0  0  0  0  0
  149.0151  142.5612  155.6939 H   0  0  0  0  0  0  0  0  0  0  0  0
  147.6492  142.0653  153.9220 H   0  0  0  0  0  0  0  0  0  0  0  0
  148.0962  140.3698  154.1400 H   0  0  0  0  0  0  0  0  0  0  0  0
  149.0697  141.4190  153.0947 H   0  0  0  0  0  0  0  0  0  0  0  0
  152.4002  139.9505  157.0355 H   0  0  0  0  0  0  0  0  0  0  0  0
  153.5202  140.8464  158.9540 H   0  0  0  0  0  0  0  0  0  0  0  0
  1  2  3  0  0  0  0
  1 19  1  0  0  0  0
  2  3  1  0  0  0  0
  3  4  1  0  0  0  0
  3 20  1  0  0  0  0
  3 21  1  0  0  0  0
  4  5  1  0  0  0  0
  4 22  1  0  0  0  0
  5  6  2  0  0  0  0
  5  7  1  0  0  0  0
  7  8  1  0  0  0  0
  7 23  1  0  0  0  0
  7 24  1  0  0  0  0
  8 17  1  0  0  0  0
  8  9  1  0  0  0  0
  9 10  2  0  0  0  0
  9 25  1  0  0  0  0
 10 11  1  0  0  0  0
 10 15  1  0  0  0  0
 11 12  2  0  0  0  0
 11 13  1  0  0  0  0
 13 14  1  0  0  0  0
 13 26  1  0  0  0  0
 14 27  1  0  0  0  0
 14 28  1  0  0  0  0
 14 29  1  0  0  0  0
 15 16  2  0  0  0  0
 15 30  1  0  0  0  0
 16 17  1  0  0  0  0
 16 31  1  0  0  0  0
 17 18  2  0  0  0  0
M  END
> <s_m_source_file>
AV-unprocessed.smi

> <i_m_source_file_index>
1848

> <i_lp_mmshare_version>
43012

> <i_f3d_flags>
0

> <s_epik_input>
W0NIXSNDW0NIMl1bTkhdQyg9TylbQ0gyXW4xW2NIXWMoQyg9TylbTkhdW0NIM10pW2NIXVtjSF1jMT1P

> <s_epik_cmdline>
J2VwaWtfcHl0aG9uJywgJy1waCcsICc3LjAnLCAnLXRuJywgJzgnLCAnLW1hJywgJzIwMCcsICctbWV0YWxfYmluZGluZycsICctaW1hZScsICc8aW5maWxlLm1hZT4nLCAnLW9tYWUnLCAnPG91dGZpbGUubWFlPic=

> <r_lp_tautomer_probability>
1

> <r_epik_Ionization_Penalty>
5.04952e-07

> <r_epik_Ionization_Penalty_Charging>
3.86163e-08

> <r_epik_Ionization_Penalty_Neutral>
4.66336e-07

> <r_epik_State_Penalty>
-0

> <r_epik_Charging_Adjusted_Penalty>
3.86163e-08

> <i_epik_Tot_Q>
0

> <i_epik_Tot_abs_Q>
0

> <r_epik_Metal_State_Penalty>
-0

> <b_epik_Metal_Only>
0

> <s_lp_Force_Field>
OPLS_2005

> <r_lp_Energy>
14.316

> <b_lp_Chiralities_Consistent>
1

> <s_lp_Variant>
AV-unprocessed.smi:1848-1

> <Gold.Version>
5.8.1

> <Gold.Id.Protein>
6NUR|6NUR_protein|mol2

> <Gold.PLP.Fitness>
49.0798

> <Gold.PLP.PLP>
-38.8967

> <Gold.PLP.part.hbond>
-3.5926

> <Gold.PLP.part.metal>
0.0000

> <Gold.PLP.part.buried>
-5.0017

> <Gold.PLP.part.nonpolar>
-31.4576

> <Gold.PLP.part.repulsive>
1.4200

> <Gold.PLP.ligand.clash>
0.0000

> <Gold.PLP.ligand.torsion>
0.3060

> <Gold.PLP.Chemscore.Hbond>
2.6718

> <Gold.PLP.Chemscore.CHOScore>
0.9251

> <Gold.PLP.Chemscore.Metal>
0.0000

> <Gold.Chemscore.Hbonds>
donor molecule, donor type, donor heavy atom, donor atom, acceptor molecule, acceptor atom, score
      L1  H     4    22       P1  8029  0.52
      L1  H    13    26       P1  8028  0.59
      P1  H  7989  7998       L1    12  1.00
      L1  C     9    25       P1  8028  0.88

> <Gold.PLP.Chemscore.Internal.Correction>
0.0046

> <Gold.Rescore>
     Score         DG    S(hbond)    S(metal)    S(lipo)     H(rot)  DE(clash)    DE(int)     intcor
     12.70     -14.83       1.91        0.00      60.86       1.62       0.10       2.04       ----

> <Gold.Chemscore.Fitness>
12.6997

> <Gold.Chemscore.DG>
-14.8328

> <Gold.Chemscore.ZeroCoef>
-5.4800

> <Gold.Chemscore.Hbond>
1.9125

> <Gold.Chemscore.Metal>
0.0000

> <Gold.Chemscore.Lipo>
60.8603

> <Gold.Chemscore.Internal_Hbond>
0.0000

> <Gold.Chemscore.DEClash>
0.0974

> <Gold.Chemscore.DEInternal>
2.0357

> <Gold.Chemscore.Rot>
1.6233

> <Gold.Chemscore.Internal.Correction>
   9.000000E+99

> <Gold.Chemscore.Hbonds>
donor molecule, donor type, donor heavy atom, donor atom, acceptor molecule, acceptor atom, score
      L1  H     4    22       P1  8029  0.52
      L1  H    13    26       P1  8028  0.57
      P1  H  7989  7998       L1    12  0.35

> <Gold.Chemscore.Hbond.Weighted>
-6.3878

> <Gold.Chemscore.Metal.Weighted>
-0.0000

> <Gold.Chemscore.Lipo.Weighted>
-7.1207

> <Gold.Chemscore.Internal_Hbond.Weighted>
0.0000

> <Gold.Chemscore.DEClash.Weighted>
0.0974

> <Gold.Chemscore.DEInternal.Weighted>
2.0357

> <Gold.Chemscore.Rot.Weighted>
4.1557

> <Gold.Chemscore.Internal.Correction.Weighted>
   9.000000E+99

> <Gold.Protein.RotatedTorsions>
[ 6907 6896 6895 6894 ] final -145.71 input  -60.11 | X-H torsion
[ 7974 7965 7964 7962 ] final -146.08 input  175.53 | X-H torsion
[ 8008 7997 7996 7995 ] final   61.67 input   59.86 | X-H torsion
[ 10167 10162 10161 10158 ] final   -0.09 input  -65.29 | X-H torsion
[ 10718 10713 10712 10709 ] final -163.51 input   66.30 | X-H torsion
[ 10763 10752 10751 10750 ] final   78.87 input  -60.55 | X-H torsion
[ 11005 11000 10999 10996 ] final   15.44 input  -57.11 | X-H torsion

> <Gold.Protein.ActiveResidues>
 VAL166  LYS551  ARG553  GLY616  TRP617  ASP618  TYR619  PRO620  LYS621  CYS622 
 ASP623  PHE694  ASN695  SER759  ASP760  ASP761  ALA762  ILE779  LEU786  VAL792 
 PHE793  MET794  SER795  GLU796  ALA797  LYS798  CYS799  TRP800  GLU811  SER814 

> <Gold.Protein.RotatedAtoms>
  151.1315  133.5034  159.2598 H   0  0  0  0  0  0  0  0  0  0  0  0  # atno 6907 bound_to 6896
  151.1752  135.0336  159.8779 H   0  0  0  0  0  0  0  0  0  0  0  0  # atno 6908 bound_to 6896
  152.5460  134.1173  159.8437 H   0  0  0  0  0  0  0  0  0  0  0  0  # atno 6909 bound_to 6896
  144.8183  140.5501  143.5595 H   0  0  0  0  0  0  0  0  0  0  0  0  # atno 7974 bound_to 7965
  155.6021  140.3494  155.4597 H   0  0  0  0  0  0  0  0  0  0  0  0  # atno 8008 bound_to 7997
  156.0220  140.1256  157.0372 H   0  0  0  0  0  0  0  0  0  0  0  0  # atno 8009 bound_to 7997
  154.4319  140.1060  156.5964 H   0  0  0  0  0  0  0  0  0  0  0  0  # atno 8010 bound_to 7997
  140.6752  143.6936  150.8008 H   0  0  0  0  0  0  0  0  0  0  0  0  # atno 10167 bound_to 10162
  156.6257  130.8909  151.2967 H   0  0  0  0  0  0  0  0  0  0  0  0  # atno 10718 bound_to 10713
  153.0908  135.4861  154.8685 H   0  0  0  0  0  0  0  0  0  0  0  0  # atno 10763 bound_to 10752
  154.7266  135.3051  154.8962 H   0  0  0  0  0  0  0  0  0  0  0  0  # atno 10764 bound_to 10752
  153.9610  135.6812  153.4798 H   0  0  0  0  0  0  0  0  0  0  0  0  # atno 10765 bound_to 10752
  140.4583  134.1153  155.7712 H   0  0  0  0  0  0  0  0  0  0  0  0  # atno 11005 bound_to 11000
  145.5163  139.1478  143.3577 LP  0  0  0  0  0  0  0  0  0  0  0  0  # atno 17320 bound_to 7965
  146.2488  140.5303  142.8902 LP  0  0  0  0  0  0  0  0  0  0  0  0  # atno 17321 bound_to 7965
  140.0628  143.5138  152.2619 LP  0  0  0  0  0  0  0  0  0  0  0  0  # atno 17342 bound_to 10162
  139.6041  144.7591  151.3104 LP  0  0  0  0  0  0  0  0  0  0  0  0  # atno 17343 bound_to 10162
  157.7215  130.9564  150.1456 LP  0  0  0  0  0  0  0  0  0  0  0  0  # atno 17370 bound_to 10713
  156.2275  130.3679  149.8483 LP  0  0  0  0  0  0  0  0  0  0  0  0  # atno 17371 bound_to 10713
  141.1633  133.8752  157.1787 LP  0  0  0  0  0  0  0  0  0  0  0  0  # atno 17394 bound_to 11000
  139.9962  135.0046  157.0087 LP  0  0  0  0  0  0  0  0  0  0  0  0  # atno 17395 bound_to 11000

$$$$
