AV-unprocessed.smi:1216|AV-procd|sdf|5099|dock8
  -GOLD-   22720 4153D 1   1.00000     0.00000
 Structure written by MMmdl.
 43 44  0  0  0  0  0  0  0  0  2 V2000
  145.9138  135.1751  153.1205 C   0  0  0  0  0  0  0  0  0  0  0  0
  146.6146  133.8894  152.6608 C   0  0  1  0  0  0  0  0  0  0  0  0
  146.6881  133.8153  151.1201 C   0  0  0  0  0  0  0  0  0  0  0  0
  145.4223  133.4077  150.5010 N   0  0  0  0  0  0  0  0  0  0  0  0
  145.1963  132.3095  149.7111 C   0  0  0  0  0  0  0  0  0  0  0  0
  143.8680  132.3389  149.3725 C   0  0  0  0  0  0  0  0  0  0  0  0
  143.3417  133.4560  149.9638 N   0  3  0  0  0  0  0  0  0  0  0  0
  144.2892  134.1069  150.6460 C   0  0  0  0  0  0  0  0  0  0  0  0
  147.9492  133.8428  153.2561 N   0  0  0  0  0  0  0  0  0  0  0  0
  148.3668  132.9693  154.1858 C   0  0  0  0  0  0  0  0  0  0  0  0
  147.6613  132.0590  154.6233 O   0  0  0  0  0  0  0  0  0  0  0  0
  149.8135  133.1448  154.6664 C   0  0  0  0  0  0  0  0  0  0  0  0
  150.2693  132.0609  155.5501 N   0  0  0  0  0  0  0  0  0  0  0  0
  150.1188  130.6871  155.0444 C   0  0  0  0  0  0  0  0  0  0  0  0
  151.4604  130.0003  154.6986 C   0  0  0  0  0  0  0  0  0  0  0  0
  152.6815  130.4328  155.5342 C   0  0  0  0  0  0  0  0  0  0  0  0
  152.4817  130.3701  157.0631 C   0  0  0  0  0  0  0  0  0  0  0  0
  151.2630  131.1347  157.6332 C   0  0  0  0  0  0  0  0  0  0  0  0
  150.7967  132.3210  156.7732 C   0  0  0  0  0  0  0  0  0  0  0  0
  150.9166  133.4614  157.2220 O   0  0  0  0  0  0  0  0  0  0  0  0
  144.8993  135.2324  152.7249 H   0  0  0  0  0  0  0  0  0  0  0  0
  146.4512  136.0632  152.7862 H   0  0  0  0  0  0  0  0  0  0  0  0
  145.8431  135.2176  154.2081 H   0  0  0  0  0  0  0  0  0  0  0  0
  146.0196  133.0523  153.0307 H   0  0  0  0  0  0  0  0  0  0  0  0
  146.9499  134.7895  150.7049 H   0  0  0  0  0  0  0  0  0  0  0  0
  147.4648  133.1186  150.8010 H   0  0  0  0  0  0  0  0  0  0  0  0
  145.9755  131.6043  149.4609 H   0  0  0  0  0  0  0  0  0  0  0  0
  143.2736  131.6667  148.7708 H   0  0  0  0  0  0  0  0  0  0  0  0
  144.1618  135.0136  151.2103 H   0  0  0  0  0  0  0  0  0  0  0  0
  148.6026  134.5515  152.9540 H   0  0  0  0  0  0  0  0  0  0  0  0
  150.4596  133.2154  153.7907 H   0  0  0  0  0  0  0  0  0  0  0  0
  149.9134  134.1056  155.1750 H   0  0  0  0  0  0  0  0  0  0  0  0
  149.5773  130.0913  155.7794 H   0  0  0  0  0  0  0  0  0  0  0  0
  149.4722  130.6686  154.1662 H   0  0  0  0  0  0  0  0  0  0  0  0
  151.3314  128.9201  154.7724 H   0  0  0  0  0  0  0  0  0  0  0  0
  151.6904  130.1969  153.6510 H   0  0  0  0  0  0  0  0  0  0  0  0
  153.5316  129.8055  155.2643 H   0  0  0  0  0  0  0  0  0  0  0  0
  152.9763  131.4432  155.2473 H   0  0  0  0  0  0  0  0  0  0  0  0
  152.4076  129.3254  157.3672 H   0  0  0  0  0  0  0  0  0  0  0  0
  153.3863  130.7485  157.5406 H   0  0  0  0  0  0  0  0  0  0  0  0
  150.4257  130.4522  157.7764 H   0  0  0  0  0  0  0  0  0  0  0  0
  151.5027  131.4924  158.6354 H   0  0  0  0  0  0  0  0  0  0  0  0
  142.3748  133.7486  149.8979 H   0  0  0  0  0  0  0  0  0  0  0  0
  1  2  1  0  0  0  0
  1 21  1  0  0  0  0
  1 22  1  0  0  0  0
  1 23  1  0  0  0  0
  2  3  1  0  0  0  0
  2  9  1  0  0  0  0
  2 24  1  0  0  0  0
  3  4  1  0  0  0  0
  3 25  1  0  0  0  0
  3 26  1  0  0  0  0
  4  8  1  0  0  0  0
  4  5  1  0  0  0  0
  5  6  2  0  0  0  0
  5 27  1  0  0  0  0
  6  7  1  0  0  0  0
  6 28  1  0  0  0  0
  7  8  2  0  0  0  0
  7 43  1  0  0  0  0
  8 29  1  0  0  0  0
  9 10  1  0  0  0  0
  9 30  1  0  0  0  0
 10 11  2  0  0  0  0
 10 12  1  0  0  0  0
 12 13  1  0  0  0  0
 12 31  1  0  0  0  0
 12 32  1  0  0  0  0
 13 19  1  0  0  0  0
 13 14  1  0  0  0  0
 14 15  1  0  0  0  0
 14 33  1  0  0  0  0
 14 34  1  0  0  0  0
 15 16  1  0  0  0  0
 15 35  1  0  0  0  0
 15 36  1  0  0  0  0
 16 17  1  0  0  0  0
 16 37  1  0  0  0  0
 16 38  1  0  0  0  0
 17 18  1  0  0  0  0
 17 39  1  0  0  0  0
 17 40  1  0  0  0  0
 18 19  1  0  0  0  0
 18 41  1  0  0  0  0
 18 42  1  0  0  0  0
 19 20  2  0  0  0  0
M  CHG  1   7   1
M  END
> <s_m_source_file>
AV-unprocessed.smi

> <i_m_source_file_index>
1216

> <i_lp_mmshare_version>
43012

> <i_f3d_flags>
0

> <s_epik_input>
W2NIXTFuW2NIXVtjSF1uMVtDSDJdW0NAQEhdKFtDSDNdKVtOSF1DKD1PKVtDSDJdTjJbQ0gyXVtDSDJdW0NIMl1bQ0gyXVtDSDJdQzI9Tw==

> <s_epik_cmdline>
J2VwaWtfcHl0aG9uJywgJy1waCcsICc3LjAnLCAnLXRuJywgJzgnLCAnLW1hJywgJzIwMCcsICctbWV0YWxfYmluZGluZycsICctaW1hZScsICc8aW5maWxlLm1hZT4nLCAnLW9tYWUnLCAnPG91dGZpbGUubWFlPic=

> <r_lp_tautomer_probability>
1

> <r_epik_Ionization_Penalty>
0.254232

> <r_epik_Ionization_Penalty_Charging>
0

> <r_epik_Ionization_Penalty_Neutral>
0.254232

> <r_epik_State_Penalty>
0.245698

> <r_epik_Charging_Adjusted_Penalty>
0.245698

> <i_epik_Tot_Q>
1

> <i_epik_Tot_abs_Q>
1

> <r_epik_Metal_State_Penalty>
0.535799

> <b_epik_Metal_Only>
0

> <s_lp_Force_Field>
OPLS_2005

> <r_lp_Energy>
21.2202

> <b_lp_Chiralities_Consistent>
1

> <s_lp_Variant>
AV-unprocessed.smi:1216-2

> <Gold.Version>
5.8.1

> <Gold.Id.Protein>
6NUR|6NUR_protein|mol2

> <Gold.PLP.Fitness>
45.4410

> <Gold.PLP.PLP>
-35.0640

> <Gold.PLP.part.hbond>
-3.0000

> <Gold.PLP.part.metal>
0.0000

> <Gold.PLP.part.buried>
-5.0473

> <Gold.PLP.part.nonpolar>
-27.2532

> <Gold.PLP.part.repulsive>
0.0632

> <Gold.PLP.ligand.clash>
0.0000

> <Gold.PLP.ligand.torsion>
0.2945

> <Gold.PLP.Chemscore.Hbond>
3.6472

> <Gold.PLP.Chemscore.CHOScore>
0.0000

> <Gold.PLP.Chemscore.Metal>
0.0000

> <Gold.Chemscore.Hbonds>
donor molecule, donor type, donor heavy atom, donor atom, acceptor molecule, acceptor atom, score
      L1  H     7    43       P1 10186  2.00
      L1  H     9    30       P1  7948  0.88
      P1  H  6896  6908       L1    20  0.70

> <Gold.PLP.Chemscore.Internal.Correction>
0.0243

> <Gold.Rescore>
     Score         DG    S(hbond)    S(metal)    S(lipo)     H(rot)  DE(clash)    DE(int)     intcor
     13.91     -15.64       2.49        0.00      64.38       2.22       0.25       1.48       ----

> <Gold.Chemscore.Fitness>
13.9133

> <Gold.Chemscore.DG>
-15.6449

> <Gold.Chemscore.ZeroCoef>
-5.4800

> <Gold.Chemscore.Hbond>
2.4866

> <Gold.Chemscore.Metal>
0.0000

> <Gold.Chemscore.Lipo>
64.3838

> <Gold.Chemscore.Internal_Hbond>
0.0000

> <Gold.Chemscore.DEClash>
0.2543

> <Gold.Chemscore.DEInternal>
1.4774

> <Gold.Chemscore.Rot>
2.2161

> <Gold.Chemscore.Internal.Correction>
   9.000000E+99

> <Gold.Chemscore.Hbonds>
donor molecule, donor type, donor heavy atom, donor atom, acceptor molecule, acceptor atom, score
      L1  H     7    43       P1 10186  0.96
      L1  H     9    30       P1  7948  0.16
      P1  H  6896  6908       L1    20  0.64

> <Gold.Chemscore.Hbond.Weighted>
-8.3053

> <Gold.Chemscore.Metal.Weighted>
-0.0000

> <Gold.Chemscore.Lipo.Weighted>
-7.5329

> <Gold.Chemscore.Internal_Hbond.Weighted>
0.0000

> <Gold.Chemscore.DEClash.Weighted>
0.2543

> <Gold.Chemscore.DEInternal.Weighted>
1.4774

> <Gold.Chemscore.Rot.Weighted>
5.6733

> <Gold.Chemscore.Internal.Correction.Weighted>
   9.000000E+99

> <Gold.Protein.RotatedTorsions>
[ 6907 6896 6895 6894 ] final  112.71 input  -60.11 | X-H torsion
[ 7974 7965 7964 7962 ] final   39.99 input  175.53 | X-H torsion
[ 8008 7997 7996 7995 ] final  160.48 input   59.86 | X-H torsion
[ 10167 10162 10161 10158 ] final  -99.34 input  -65.29 | X-H torsion
[ 10718 10713 10712 10709 ] final   15.16 input   66.30 | X-H torsion
[ 10763 10752 10751 10750 ] final   25.15 input  -60.55 | X-H torsion
[ 11005 11000 10999 10996 ] final -147.80 input  -57.11 | X-H torsion

> <Gold.Protein.ActiveResidues>
 VAL166  LYS551  ARG553  GLY616  TRP617  ASP618  TYR619  PRO620  LYS621  CYS622 
 ASP623  PHE694  ASN695  SER759  ASP760  ASP761  ALA762  ILE779  LEU786  VAL792 
 PHE793  MET794  SER795  GLU796  ALA797  LYS798  CYS799  TRP800  GLU811  SER814 

> <Gold.Protein.RotatedAtoms>
  152.4902  133.8478  159.7185 H   0  0  0  0  0  0  0  0  0  0  0  0  # atno 6907 bound_to 6896
  150.9024  133.7092  159.2882 H   0  0  0  0  0  0  0  0  0  0  0  0  # atno 6908 bound_to 6896
  151.4529  135.1035  159.9755 H   0  0  0  0  0  0  0  0  0  0  0  0  # atno 6909 bound_to 6896
  146.0940  139.5586  142.9457 H   0  0  0  0  0  0  0  0  0  0  0  0  # atno 7974 bound_to 7965
  156.2169  140.1803  156.7567 H   0  0  0  0  0  0  0  0  0  0  0  0  # atno 8008 bound_to 7997
  154.5805  140.0667  156.9126 H   0  0  0  0  0  0  0  0  0  0  0  0  # atno 8009 bound_to 7997
  155.2510  140.3329  155.4284 H   0  0  0  0  0  0  0  0  0  0  0  0  # atno 8010 bound_to 7997
  140.2635  143.3392  152.0603 H   0  0  0  0  0  0  0  0  0  0  0  0  # atno 10167 bound_to 10162
  157.0495  130.6264  149.5765 H   0  0  0  0  0  0  0  0  0  0  0  0  # atno 10718 bound_to 10713
  153.0713  135.6589  154.0242 H   0  0  0  0  0  0  0  0  0  0  0  0  # atno 10763 bound_to 10752
  153.9887  135.2948  155.3415 H   0  0  0  0  0  0  0  0  0  0  0  0  # atno 10764 bound_to 10752
  154.7088  135.5214  153.8704 H   0  0  0  0  0  0  0  0  0  0  0  0  # atno 10765 bound_to 10752
  140.7679  134.3223  157.5083 H   0  0  0  0  0  0  0  0  0  0  0  0  # atno 11005 bound_to 11000
  145.5983  141.0359  143.2032 LP  0  0  0  0  0  0  0  0  0  0  0  0  # atno 17320 bound_to 7965
  144.7381  139.7526  143.7321 LP  0  0  0  0  0  0  0  0  0  0  0  0  # atno 17321 bound_to 7965
  139.5010  144.6703  151.6258 LP  0  0  0  0  0  0  0  0  0  0  0  0  # atno 17342 bound_to 10162
  140.5947  143.9717  150.6347 LP  0  0  0  0  0  0  0  0  0  0  0  0  # atno 17343 bound_to 10162
  156.0012  130.5091  150.7669 LP  0  0  0  0  0  0  0  0  0  0  0  0  # atno 17370 bound_to 10713
  157.5041  131.0921  151.0278 LP  0  0  0  0  0  0  0  0  0  0  0  0  # atno 17371 bound_to 10713
  139.8760  134.9243  156.3345 LP  0  0  0  0  0  0  0  0  0  0  0  0  # atno 17394 bound_to 11000
  140.9601  133.7394  156.0390 LP  0  0  0  0  0  0  0  0  0  0  0  0  # atno 17395 bound_to 11000

$$$$
