AV-unprocessed.smi:51|AV-procd|sdf|503|dock10
  -GOLD-   2262016373D 1   1.00000     0.00000
 Structure written by MMmdl.
 26 27  0  0  0  0  0  0  0  0  3 V2000
  152.6077  136.7540  156.3787 O   0  0  0  0  0  0  0  0  0  0  0  0
  152.4217  137.9713  156.1649 C   0  0  0  0  0  0  0  0  0  0  0  0
  153.3087  138.7964  155.8524 O   0  5  0  0  0  0  0  0  0  0  0  0
  150.9825  138.4864  156.3209 C   0  0  2  0  0  0  0  0  0  0  0  0
  150.0031  137.7969  155.3533 C   0  0  0  0  0  0  0  0  0  0  0  0
  149.8966  138.7734  154.1793 C   0  0  1  0  0  0  0  0  0  0  0  0
  148.6860  138.6336  153.4666 O   0  0  0  0  0  0  0  0  0  0  0  0
  150.0220  140.1408  154.8527 C   0  0  0  0  0  0  0  0  0  0  0  0
  150.8944  139.9086  155.9957 N   0  0  0  0  0  0  0  0  0  0  0  0
  151.2272  140.9345  156.9036 C   0  0  0  0  0  0  0  0  0  0  0  0
  151.9144  140.6805  158.1101 C   0  0  0  0  0  0  0  0  0  0  0  0
  152.2026  141.7828  158.9348 C   0  0  0  0  0  0  0  0  0  0  0  0
  151.8232  143.0303  158.5687 N   0  3  0  0  0  0  0  0  0  0  0  0
  151.1700  143.2071  157.4116 C   0  0  0  0  0  0  0  0  0  0  0  0
  150.8684  142.1996  156.5849 N   0  0  0  0  0  0  0  0  0  0  0  0
  150.6511  138.3108  157.3452 H   0  0  0  0  0  0  0  0  0  0  0  0
  150.3189  136.7998  155.0424 H   0  0  0  0  0  0  0  0  0  0  0  0
  149.0338  137.6935  155.8433 H   0  0  0  0  0  0  0  0  0  0  0  0
  150.7347  138.6205  153.4978 H   0  0  0  0  0  0  0  0  0  0  0  0
  148.7808  139.0655  152.6314 H   0  0  0  0  0  0  0  0  0  0  0  0
  150.4303  140.8856  154.1684 H   0  0  0  0  0  0  0  0  0  0  0  0
  149.0538  140.4938  155.2117 H   0  0  0  0  0  0  0  0  0  0  0  0
  152.2234  139.6887  158.4044 H   0  0  0  0  0  0  0  0  0  0  0  0
  152.7265  141.7064  159.8761 H   0  0  0  0  0  0  0  0  0  0  0  0
  150.8887  144.2194  157.1614 H   0  0  0  0  0  0  0  0  0  0  0  0
  152.0386  143.8226  159.1737 H   0  0  0  0  0  0  0  0  0  0  0  0
  1  2  2  0  0  0  0
  2  3  1  0  0  0  0
  2  4  1  0  0  0  0
  4  9  1  0  0  0  0
  4  5  1  0  0  0  0
  4 16  1  0  0  0  0
  5  6  1  0  0  0  0
  5 17  1  0  0  0  0
  5 18  1  0  0  0  0
  6  7  1  0  0  0  0
  6  8  1  0  0  0  0
  6 19  1  0  0  0  0
  7 20  1  0  0  0  0
  8  9  1  0  0  0  0
  8 21  1  0  0  0  0
  8 22  1  0  0  0  0
  9 10  1  0  0  0  0
 10 15  1  0  0  0  0
 10 11  2  0  0  0  0
 11 12  1  0  0  0  0
 11 23  1  0  0  0  0
 12 13  2  0  0  0  0
 12 24  1  0  0  0  0
 13 14  1  0  0  0  0
 13 26  1  0  0  0  0
 14 15  2  0  0  0  0
 14 25  1  0  0  0  0
M  CHG  1   3  -1
M  CHG  1  13   1
M  END
> <s_m_source_file>
AV-unprocessed.smi

> <i_m_source_file_index>
51

> <i_lp_mmshare_version>
43012

> <i_f3d_flags>
0

> <s_epik_input>
Tz1DKFtPSF0pW0NAQEhdMVtDSDJdW0NAQEhdKFtPSF0pW0NIMl1OMWMyW2NIXVtjSF1uW2NIXW4y

> <s_epik_cmdline>
J2VwaWtfcHl0aG9uJywgJy1waCcsICc3LjAnLCAnLXRuJywgJzgnLCAnLW1hJywgJzIwMCcsICctbWV0YWxfYmluZGluZycsICctaW1hZScsICc8aW5maWxlLm1hZT4nLCAnLW9tYWUnLCAnPG91dGZpbGUubWFlPic=

> <r_lp_tautomer_probability>
0.999336

> <r_epik_Ionization_Penalty>
0.688427

> <r_epik_Ionization_Penalty_Charging>
0.688427

> <r_epik_Ionization_Penalty_Neutral>
1.98379e-07

> <r_epik_State_Penalty>
0.709817

> <r_epik_Charging_Adjusted_Penalty>
1.39824

> <i_epik_Tot_Q>
0

> <i_epik_Tot_abs_Q>
2

> <r_epik_Metal_State_Penalty>
0.873261

> <b_epik_Metal_Only>
0

> <s_lp_Force_Field>
OPLS_2005

> <r_lp_Energy>
13.2296

> <b_lp_Chiralities_Consistent>
1

> <s_lp_Variant>
AV-unprocessed.smi:51-5

> <Gold.Version>
5.8.1

> <Gold.Id.Protein>
6NUR|6NUR_protein|mol2

> <Gold.PLP.Fitness>
41.4800

> <Gold.PLP.PLP>
-24.3015

> <Gold.PLP.part.hbond>
-4.0000

> <Gold.PLP.part.metal>
0.0000

> <Gold.PLP.part.buried>
-2.9575

> <Gold.PLP.part.nonpolar>
-17.8374

> <Gold.PLP.part.repulsive>
0.1323

> <Gold.PLP.ligand.clash>
0.0000

> <Gold.PLP.ligand.torsion>
0.0606

> <Gold.PLP.Chemscore.Hbond>
4.8880

> <Gold.PLP.Chemscore.CHOScore>
0.8408

> <Gold.PLP.Chemscore.Metal>
0.0000

> <Gold.Chemscore.Hbonds>
donor molecule, donor type, donor heavy atom, donor atom, acceptor molecule, acceptor atom, score
      L1  H     7    20       P1  7957  1.00
      P1  H  7997  8008       L1     3  1.98
      P1  H 10752 10764       L1     1  1.98
      L1  C    14    25       P1  8028  0.86

> <Gold.PLP.Chemscore.Internal.Correction>
0.1133

> <Gold.Rescore>
     Score         DG    S(hbond)    S(metal)    S(lipo)     H(rot)  DE(clash)    DE(int)     intcor
     15.22     -15.30       2.92        0.00      37.81       1.70       0.02       0.06       ----

> <Gold.Chemscore.Fitness>
15.2225

> <Gold.Chemscore.DG>
-15.3011

> <Gold.Chemscore.ZeroCoef>
-5.4800

> <Gold.Chemscore.Hbond>
2.9205

> <Gold.Chemscore.Metal>
0.0000

> <Gold.Chemscore.Lipo>
37.8090

> <Gold.Chemscore.Internal_Hbond>
0.0000

> <Gold.Chemscore.DEClash>
0.0195

> <Gold.Chemscore.DEInternal>
0.0591

> <Gold.Chemscore.Rot>
1.7020

> <Gold.Chemscore.Internal.Correction>
   9.000000E+99

> <Gold.Chemscore.Hbonds>
donor molecule, donor type, donor heavy atom, donor atom, acceptor molecule, acceptor atom, score
      L1  H     7    20       P1  7957  0.99
      P1  H  7997  8008       L1     3  0.94
      P1  H 10752 10764       L1     1  0.94

> <Gold.Chemscore.Hbond.Weighted>
-9.7546

> <Gold.Chemscore.Metal.Weighted>
-0.0000

> <Gold.Chemscore.Lipo.Weighted>
-4.4237

> <Gold.Chemscore.Internal_Hbond.Weighted>
0.0000

> <Gold.Chemscore.DEClash.Weighted>
0.0195

> <Gold.Chemscore.DEInternal.Weighted>
0.0591

> <Gold.Chemscore.Rot.Weighted>
4.3571

> <Gold.Chemscore.Internal.Correction.Weighted>
   9.000000E+99

> <Gold.Protein.RotatedTorsions>
[ 6907 6896 6895 6894 ] final -149.05 input  -60.11 | X-H torsion
[ 7974 7965 7964 7962 ] final -102.08 input  175.53 | X-H torsion
[ 8008 7997 7996 7995 ] final  -30.15 input   59.86 | X-H torsion
[ 10167 10162 10161 10158 ] final -125.31 input  -65.29 | X-H torsion
[ 10718 10713 10712 10709 ] final   97.06 input   66.30 | X-H torsion
[ 10763 10752 10751 10750 ] final  -24.19 input  -60.55 | X-H torsion
[ 11005 11000 10999 10996 ] final -165.70 input  -57.11 | X-H torsion

> <Gold.Protein.ActiveResidues>
 VAL166  LYS551  ARG553  GLY616  TRP617  ASP618  TYR619  PRO620  LYS621  CYS622 
 ASP623  PHE694  ASN695  SER759  ASP760  ASP761  ALA762  ILE779  LEU786  VAL792 
 PHE793  MET794  SER795  GLU796  ALA797  LYS798  CYS799  TRP800  GLU811  SER814 

> <Gold.Protein.RotatedAtoms>
  151.1785  133.4739  159.2593 H   0  0  0  0  0  0  0  0  0  0  0  0  # atno 6907 bound_to 6896
  151.1283  135.0116  159.8580 H   0  0  0  0  0  0  0  0  0  0  0  0  # atno 6908 bound_to 6896
  152.5459  134.1691  159.8642 H   0  0  0  0  0  0  0  0  0  0  0  0  # atno 6909 bound_to 6896
  145.2733  140.9305  143.2974 H   0  0  0  0  0  0  0  0  0  0  0  0  # atno 7974 bound_to 7965
  154.4261  140.1799  156.1361 H   0  0  0  0  0  0  0  0  0  0  0  0  # atno 8008 bound_to 7997
  156.0029  140.3358  155.6838 H   0  0  0  0  0  0  0  0  0  0  0  0  # atno 8009 bound_to 7997
  155.6218  140.0660  157.2666 H   0  0  0  0  0  0  0  0  0  0  0  0  # atno 8010 bound_to 7997
  139.9834  143.5718  152.2369 H   0  0  0  0  0  0  0  0  0  0  0  0  # atno 10167 bound_to 10162
  157.6918  131.0597  150.4586 H   0  0  0  0  0  0  0  0  0  0  0  0  # atno 10718 bound_to 10713
  153.6798  135.6967  153.5121 H   0  0  0  0  0  0  0  0  0  0  0  0  # atno 10763 bound_to 10752
  153.2494  135.4280  155.0780 H   0  0  0  0  0  0  0  0  0  0  0  0  # atno 10764 bound_to 10752
  154.8403  135.3527  154.6341 H   0  0  0  0  0  0  0  0  0  0  0  0  # atno 10765 bound_to 10752
  140.5728  134.5221  157.5165 H   0  0  0  0  0  0  0  0  0  0  0  0  # atno 11005 bound_to 11000
  144.9316  139.4292  143.6492 LP  0  0  0  0  0  0  0  0  0  0  0  0  # atno 17320 bound_to 7965
  146.3239  139.8230  142.8923 LP  0  0  0  0  0  0  0  0  0  0  0  0  # atno 17321 bound_to 7965
  139.6393  144.7653  151.2373 LP  0  0  0  0  0  0  0  0  0  0  0  0  # atno 17342 bound_to 10162
  140.7481  143.6345  150.8392 LP  0  0  0  0  0  0  0  0  0  0  0  0  # atno 17343 bound_to 10162
  156.4932  130.4100  149.6395 LP  0  0  0  0  0  0  0  0  0  0  0  0  # atno 17370 bound_to 10713
  156.3398  130.7376  151.2319 LP  0  0  0  0  0  0  0  0  0  0  0  0  # atno 17371 bound_to 10713
  139.9354  134.7885  156.0818 LP  0  0  0  0  0  0  0  0  0  0  0  0  # atno 17394 bound_to 11000
  141.1045  133.6665  156.2833 LP  0  0  0  0  0  0  0  0  0  0  0  0  # atno 17395 bound_to 11000

$$$$
