AV-unprocessed.smi:574|AV-procd|sdf|2975|dock5
  -GOLD-   2262023483D 1   1.00000     0.00000
 Structure written by MMmdl.
 40 41  0  0  0  0  0  0  0  0  1 V2000
  144.7202  144.6104  153.2043 C   0  0  0  0  0  0  0  0  0  0  0  0
  145.1299  143.5852  154.2560 C   0  0  0  0  0  0  0  0  0  0  0  0
  144.3744  143.3233  155.1913 O   0  0  0  0  0  0  0  0  0  0  0  0
  146.3321  143.0140  154.0910 N   0  0  0  0  0  0  0  0  0  0  0  0
  146.9121  142.0130  154.9779 C   0  0  0  0  0  0  0  0  0  0  0  0
  148.3213  141.5994  154.5174 C   0  0  0  0  0  0  0  0  0  0  0  0
  149.1963  141.3337  155.6520 N   0  0  0  0  0  0  0  0  0  0  0  0
  150.3141  140.5916  155.6085 C   0  0  0  0  0  0  0  0  0  0  0  0
  150.7534  140.0826  154.5768 O   0  0  0  0  0  0  0  0  0  0  0  0
  151.0667  140.4723  156.9027 C   0  0  0  0  0  0  0  0  0  0  0  0
  151.5993  141.6149  157.3933 N   0  0  0  0  0  0  0  0  0  0  0  0
  152.2892  141.5614  158.5392 C   0  0  0  0  0  0  0  0  0  0  0  0
  152.8309  142.7586  159.0251 N   0  0  0  0  0  0  0  0  0  0  0  0
  153.3295  142.8802  160.3947 C   0  0  0  0  0  0  0  0  0  0  0  0
  152.2202  143.4535  161.2952 C   0  0  0  0  0  0  0  0  0  0  0  0
  151.7946  144.7141  160.7809 O   0  0  0  0  0  0  0  0  0  0  0  0
  151.2966  144.6233  159.4475 C   0  0  0  0  0  0  0  0  0  0  0  0
  152.3954  144.0626  158.5263 C   0  0  0  0  0  0  0  0  0  0  0  0
  152.4992  140.4489  159.2530 N   0  0  0  0  0  0  0  0  0  0  0  0
  151.9903  139.2933  158.7784 C   0  0  0  0  0  0  0  0  0  0  0  0
  151.2540  139.2385  157.5791 C   0  0  0  0  0  0  0  0  0  0  0  0
  150.6707  137.7157  156.9982 Cl  0  0  0  0  0  0  0  0  0  0  0  0
  144.7947  144.1841  152.2037 H   0  0  0  0  0  0  0  0  0  0  0  0
  145.3673  145.4862  153.2568 H   0  0  0  0  0  0  0  0  0  0  0  0
  143.6915  144.9362  153.3599 H   0  0  0  0  0  0  0  0  0  0  0  0
  146.8840  143.2918  153.2922 H   0  0  0  0  0  0  0  0  0  0  0  0
  146.9380  142.3885  156.0024 H   0  0  0  0  0  0  0  0  0  0  0  0
  146.2482  141.1482  154.9823 H   0  0  0  0  0  0  0  0  0  0  0  0
  148.2727  140.7231  153.8688 H   0  0  0  0  0  0  0  0  0  0  0  0
  148.7739  142.3974  153.9282 H   0  0  0  0  0  0  0  0  0  0  0  0
  148.9261  141.7296  156.5410 H   0  0  0  0  0  0  0  0  0  0  0  0
  153.6963  141.9354  160.7946 H   0  0  0  0  0  0  0  0  0  0  0  0
  154.1867  143.5545  160.3943 H   0  0  0  0  0  0  0  0  0  0  0  0
  151.3735  142.7677  161.3544 H   0  0  0  0  0  0  0  0  0  0  0  0
  152.5921  143.5927  162.3103 H   0  0  0  0  0  0  0  0  0  0  0  0
  150.4064  143.9927  159.4217 H   0  0  0  0  0  0  0  0  0  0  0  0
  150.9955  145.6163  159.1138 H   0  0  0  0  0  0  0  0  0  0  0  0
  153.2518  144.7376  158.5245 H   0  0  0  0  0  0  0  0  0  0  0  0
  152.0472  144.0228  157.4947 H   0  0  0  0  0  0  0  0  0  0  0  0
  152.1826  138.4019  159.3570 H   0  0  0  0  0  0  0  0  0  0  0  0
  1  2  1  0  0  0  0
  1 23  1  0  0  0  0
  1 24  1  0  0  0  0
  1 25  1  0  0  0  0
  2  3  2  0  0  0  0
  2  4  1  0  0  0  0
  4  5  1  0  0  0  0
  4 26  1  0  0  0  0
  5  6  1  0  0  0  0
  5 27  1  0  0  0  0
  5 28  1  0  0  0  0
  6  7  1  0  0  0  0
  6 29  1  0  0  0  0
  6 30  1  0  0  0  0
  7  8  1  0  0  0  0
  7 31  1  0  0  0  0
  8  9  2  0  0  0  0
  8 10  1  0  0  0  0
 10 21  1  0  0  0  0
 10 11  2  0  0  0  0
 11 12  1  0  0  0  0
 12 13  1  0  0  0  0
 12 19  2  0  0  0  0
 13 18  1  0  0  0  0
 13 14  1  0  0  0  0
 14 15  1  0  0  0  0
 14 32  1  0  0  0  0
 14 33  1  0  0  0  0
 15 16  1  0  0  0  0
 15 34  1  0  0  0  0
 15 35  1  0  0  0  0
 16 17  1  0  0  0  0
 17 18  1  0  0  0  0
 17 36  1  0  0  0  0
 17 37  1  0  0  0  0
 18 38  1  0  0  0  0
 18 39  1  0  0  0  0
 19 20  1  0  0  0  0
 20 21  2  0  0  0  0
 20 40  1  0  0  0  0
 21 22  1  0  0  0  0
M  END
> <s_m_source_file>
AV-unprocessed.smi

> <i_m_source_file_index>
574

> <i_lp_mmshare_version>
43012

> <i_f3d_flags>
0

> <s_epik_input>
W0NIM11DKD1PKVtOSF1bQ0gyXVtDSDJdW05IXUMoPU8pYzFuYyhuW2NIXWMxQ2wpTjJbQ0gyXVtDSDJdT1tDSDJdW0NIMl0y

> <s_epik_cmdline>
J2VwaWtfcHl0aG9uJywgJy1waCcsICc3LjAnLCAnLXRuJywgJzgnLCAnLW1hJywgJzIwMCcsICctbWV0YWxfYmluZGluZycsICctaW1hZScsICc8aW5maWxlLm1hZT4nLCAnLW9tYWUnLCAnPG91dGZpbGUubWFlPic=

> <r_lp_tautomer_probability>
1

> <r_epik_Ionization_Penalty>
4.61473e-05

> <r_epik_Ionization_Penalty_Charging>
0

> <r_epik_Ionization_Penalty_Neutral>
4.61473e-05

> <r_epik_State_Penalty>
-0

> <r_epik_Charging_Adjusted_Penalty>
0

> <i_epik_Tot_Q>
0

> <i_epik_Tot_abs_Q>
0

> <r_epik_Metal_State_Penalty>
0.0410325

> <b_epik_Metal_Only>
0

> <s_lp_Force_Field>
OPLS_2005

> <r_lp_Energy>
11.2452

> <b_lp_Chiralities_Consistent>
1

> <s_lp_Variant>
AV-unprocessed.smi:574-1

> <Gold.Version>
5.8.1

> <Gold.Id.Protein>
6NUR|6NUR_protein|mol2

> <Gold.PLP.Fitness>
45.7838

> <Gold.PLP.PLP>
-46.0539

> <Gold.PLP.part.hbond>
-1.2363

> <Gold.PLP.part.metal>
0.0000

> <Gold.PLP.part.buried>
-6.8824

> <Gold.PLP.part.nonpolar>
-38.3741

> <Gold.PLP.part.repulsive>
0.7184

> <Gold.PLP.ligand.clash>
0.0000

> <Gold.PLP.ligand.torsion>
1.7365

> <Gold.PLP.Chemscore.Hbond>
1.0000

> <Gold.PLP.Chemscore.CHOScore>
0.0000

> <Gold.PLP.Chemscore.Metal>
0.0000

> <Gold.Chemscore.Hbonds>
donor molecule, donor type, donor heavy atom, donor atom, acceptor molecule, acceptor atom, score
      P1  H  7989  7998       L1     9  1.00

> <Gold.PLP.Chemscore.Internal.Correction>
0.2029

> <Gold.Rescore>
     Score         DG    S(hbond)    S(metal)    S(lipo)     H(rot)  DE(clash)    DE(int)     intcor
     13.29     -14.97       0.98        0.00      90.09       1.70       0.03       1.65       ----

> <Gold.Chemscore.Fitness>
13.2867

> <Gold.Chemscore.DG>
-14.9678

> <Gold.Chemscore.ZeroCoef>
-5.4800

> <Gold.Chemscore.Hbond>
0.9847

> <Gold.Chemscore.Metal>
0.0000

> <Gold.Chemscore.Lipo>
90.0861

> <Gold.Chemscore.Internal_Hbond>
0.0000

> <Gold.Chemscore.DEClash>
0.0266

> <Gold.Chemscore.DEInternal>
1.6546

> <Gold.Chemscore.Rot>
1.6957

> <Gold.Chemscore.Internal.Correction>
   9.000000E+99

> <Gold.Chemscore.Hbonds>
donor molecule, donor type, donor heavy atom, donor atom, acceptor molecule, acceptor atom, score
      P1  H  7989  7998       L1     9  0.98

> <Gold.Chemscore.Hbond.Weighted>
-3.2887

> <Gold.Chemscore.Metal.Weighted>
-0.0000

> <Gold.Chemscore.Lipo.Weighted>
-10.5401

> <Gold.Chemscore.Internal_Hbond.Weighted>
0.0000

> <Gold.Chemscore.DEClash.Weighted>
0.0266

> <Gold.Chemscore.DEInternal.Weighted>
1.6546

> <Gold.Chemscore.Rot.Weighted>
4.3410

> <Gold.Chemscore.Internal.Correction.Weighted>
   9.000000E+99

> <Gold.Protein.RotatedTorsions>
[ 6907 6896 6895 6894 ] final   65.10 input  -60.11 | X-H torsion
[ 7974 7965 7964 7962 ] final -112.25 input  175.53 | X-H torsion
[ 8008 7997 7996 7995 ] final  144.03 input   59.86 | X-H torsion
[ 10167 10162 10161 10158 ] final  -53.75 input  -65.29 | X-H torsion
[ 10718 10713 10712 10709 ] final   10.54 input   66.30 | X-H torsion
[ 10763 10752 10751 10750 ] final -149.74 input  -60.55 | X-H torsion
[ 11005 11000 10999 10996 ] final -115.64 input  -57.11 | X-H torsion

> <Gold.Protein.ActiveResidues>
 VAL166  LYS551  ARG553  GLY616  TRP617  ASP618  TYR619  PRO620  LYS621  CYS622 
 ASP623  PHE694  ASN695  SER759  ASP760  ASP761  ALA762  ILE779  LEU786  VAL792 
 PHE793  MET794  SER795  GLU796  ALA797  LYS798  CYS799  TRP800  GLU811  SER814 

> <Gold.Protein.RotatedAtoms>
  152.4382  134.5643  159.9902 H   0  0  0  0  0  0  0  0  0  0  0  0  # atno 6907 bound_to 6896
  151.5748  133.3379  159.3004 H   0  0  0  0  0  0  0  0  0  0  0  0  # atno 6908 bound_to 6896
  150.8284  134.7560  159.6897 H   0  0  0  0  0  0  0  0  0  0  0  0  # atno 6909 bound_to 6896
  145.1463  140.8805  143.3672 H   0  0  0  0  0  0  0  0  0  0  0  0  # atno 7974 bound_to 7965
  156.2917  140.2246  156.4987 H   0  0  0  0  0  0  0  0  0  0  0  0  # atno 8008 bound_to 7997
  154.7708  140.0467  157.1071 H   0  0  0  0  0  0  0  0  0  0  0  0  # atno 8009 bound_to 7997
  154.9876  140.3086  155.4923 H   0  0  0  0  0  0  0  0  0  0  0  0  # atno 8010 bound_to 7997
  140.6468  143.2540  151.4837 H   0  0  0  0  0  0  0  0  0  0  0  0  # atno 10167 bound_to 10162
  156.9824  130.6011  149.5678 H   0  0  0  0  0  0  0  0  0  0  0  0  # atno 10718 bound_to 10713
  154.8160  135.3301  154.7176 H   0  0  0  0  0  0  0  0  0  0  0  0  # atno 10763 bound_to 10752
  153.7816  135.6918  153.4892 H   0  0  0  0  0  0  0  0  0  0  0  0  # atno 10764 bound_to 10752
  153.1976  135.4528  155.0174 H   0  0  0  0  0  0  0  0  0  0  0  0  # atno 10765 bound_to 10752
  141.0474  133.9740  157.2894 H   0  0  0  0  0  0  0  0  0  0  0  0  # atno 11005 bound_to 11000
  145.0478  139.3206  143.5944 LP  0  0  0  0  0  0  0  0  0  0  0  0  # atno 17320 bound_to 7965
  146.3499  139.9875  142.8689 LP  0  0  0  0  0  0  0  0  0  0  0  0  # atno 17321 bound_to 7965
  139.5679  144.1998  152.1793 LP  0  0  0  0  0  0  0  0  0  0  0  0  # atno 17342 bound_to 10162
  140.1285  144.5309  150.6817 LP  0  0  0  0  0  0  0  0  0  0  0  0  # atno 17343 bound_to 10162
  156.0239  130.5333  150.8353 LP  0  0  0  0  0  0  0  0  0  0  0  0  # atno 17370 bound_to 10713
  157.5517  131.0944  150.9686 LP  0  0  0  0  0  0  0  0  0  0  0  0  # atno 17371 bound_to 10713
  139.9323  135.0199  156.8441 LP  0  0  0  0  0  0  0  0  0  0  0  0  # atno 17394 bound_to 11000
  140.6120  134.0074  155.7581 LP  0  0  0  0  0  0  0  0  0  0  0  0  # atno 17395 bound_to 11000

$$$$
