AV-unprocessed.smi:1047|AV-procd|sdf|4589|dock6
  -GOLD-   22720 3 63D 1   1.00000     0.00000
 Structure written by MMmdl.
 57 59  0  0  0  0  0  0  0  0  3 V2000
  147.3611  135.6028  162.5414 C   0  0  0  0  0  0  0  0  0  0  0  0
  146.3460  135.0708  161.5200 C   0  0  0  0  0  0  0  0  0  0  0  0
  146.9011  134.7566  160.2045 N   0  0  0  0  0  0  0  0  0  0  0  0
  147.5855  133.4683  160.2227 C   0  0  0  0  0  0  0  0  0  0  0  0
  148.1828  133.1150  158.8505 C   0  0  0  0  0  0  0  0  0  0  0  0
  149.0601  134.1566  158.4351 O   0  0  0  0  0  0  0  0  0  0  0  0
  148.4144  135.4242  158.3475 C   0  0  2  0  0  0  0  0  0  0  0  0
  149.4392  136.4581  157.8624 C   0  0  0  0  0  0  0  0  0  0  0  0
  149.8400  136.1604  156.4758 N   0  3  0  0  0  0  0  0  0  0  0  0
  151.0018  136.9208  155.9765 C   0  0  0  0  0  0  0  0  0  0  0  0
  150.6417  138.4087  155.7794 C   0  0  2  0  0  0  0  0  0  0  0  0
  150.2684  138.6082  154.4328 O   0  0  0  0  0  0  0  0  0  0  0  0
  151.7711  139.4172  156.1082 C   0  0  0  0  0  0  0  0  0  0  0  0
  151.3041  140.7709  156.4419 N   0  0  0  0  0  0  0  0  0  0  0  0
  150.5367  141.6317  155.7179 C   0  0  0  0  0  0  0  0  0  0  0  0
  150.3975  142.7718  156.4494 N   0  3  0  0  0  0  0  0  0  0  0  0
  151.0720  142.6320  157.6641 C   0  0  0  0  0  0  0  0  0  0  0  0
  151.2270  143.5143  158.7260 C   0  0  0  0  0  0  0  0  0  0  0  0
  151.9843  143.0656  159.8312 C   0  0  0  0  0  0  0  0  0  0  0  0
  152.1815  144.0093  161.0054 C   0  0  0  0  0  0  0  0  0  0  0  0
  152.5494  141.7639  159.8496 C   0  0  0  0  0  0  0  0  0  0  0  0
  153.3600  141.2920  161.0448 C   0  0  0  0  0  0  0  0  0  0  0  0
  152.3761  140.8789  158.7614 C   0  0  0  0  0  0  0  0  0  0  0  0
  151.6392  141.3425  157.6747 C   0  0  0  0  0  0  0  0  0  0  0  0
  147.8282  135.7803  159.7277 C   0  0  0  0  0  0  0  0  0  0  0  0
  146.8548  135.9141  163.4551 H   0  0  0  0  0  0  0  0  0  0  0  0
  147.8969  136.4680  162.1504 H   0  0  0  0  0  0  0  0  0  0  0  0
  148.0945  134.8471  162.8213 H   0  0  0  0  0  0  0  0  0  0  0  0
  145.8421  134.1944  161.9299 H   0  0  0  0  0  0  0  0  0  0  0  0
  145.5733  135.8318  161.4024 H   0  0  0  0  0  0  0  0  0  0  0  0
  148.3818  133.4829  160.9687 H   0  0  0  0  0  0  0  0  0  0  0  0
  146.8910  132.6839  160.5255 H   0  0  0  0  0  0  0  0  0  0  0  0
  148.7406  132.1804  158.9080 H   0  0  0  0  0  0  0  0  0  0  0  0
  147.3953  132.9738  158.1085 H   0  0  0  0  0  0  0  0  0  0  0  0
  147.6031  135.3610  157.6194 H   0  0  0  0  0  0  0  0  0  0  0  0
  148.9967  137.4544  157.8983 H   0  0  0  0  0  0  0  0  0  0  0  0
  150.3188  136.4679  158.5072 H   0  0  0  0  0  0  0  0  0  0  0  0
  150.0417  135.1729  156.4045 H   0  0  0  0  0  0  0  0  0  0  0  0
  151.8481  136.8197  156.6573 H   0  0  0  0  0  0  0  0  0  0  0  0
  151.2999  136.4745  155.0264 H   0  0  0  0  0  0  0  0  0  0  0  0
  149.7600  138.6379  156.3783 H   0  0  0  0  0  0  0  0  0  0  0  0
  150.5732  139.4580  154.1527 H   0  0  0  0  0  0  0  0  0  0  0  0
  152.3399  139.0657  156.9707 H   0  0  0  0  0  0  0  0  0  0  0  0
  152.4796  139.4919  155.2819 H   0  0  0  0  0  0  0  0  0  0  0  0
  150.1232  141.4491  154.7361 H   0  0  0  0  0  0  0  0  0  0  0  0
  150.7896  144.5021  158.7082 H   0  0  0  0  0  0  0  0  0  0  0  0
  153.2415  144.2128  161.1589 H   0  0  0  0  0  0  0  0  0  0  0  0
  151.7759  143.5747  161.9192 H   0  0  0  0  0  0  0  0  0  0  0  0
  151.6800  144.9634  160.8399 H   0  0  0  0  0  0  0  0  0  0  0  0
  153.7258  140.2746  160.9040 H   0  0  0  0  0  0  0  0  0  0  0  0
  152.7519  141.3046  161.9495 H   0  0  0  0  0  0  0  0  0  0  0  0
  154.2244  141.9379  161.1993 H   0  0  0  0  0  0  0  0  0  0  0  0
  152.8042  139.8874  158.7769 H   0  0  0  0  0  0  0  0  0  0  0  0
  147.3203  136.7414  159.6535 H   0  0  0  0  0  0  0  0  0  0  0  0
  148.6387  135.9091  160.4470 H   0  0  0  0  0  0  0  0  0  0  0  0
  149.0568  136.3712  155.8742 H   0  0  0  0  0  0  0  0  0  0  0  0
  149.8727  143.5816  156.1427 H   0  0  0  0  0  0  0  0  0  0  0  0
  1  2  1  0  0  0  0
  1 26  1  0  0  0  0
  1 27  1  0  0  0  0
  1 28  1  0  0  0  0
  2  3  1  0  0  0  0
  2 29  1  0  0  0  0
  2 30  1  0  0  0  0
  3 25  1  0  0  0  0
  3  4  1  0  0  0  0
  4  5  1  0  0  0  0
  4 31  1  0  0  0  0
  4 32  1  0  0  0  0
  5  6  1  0  0  0  0
  5 33  1  0  0  0  0
  5 34  1  0  0  0  0
  6  7  1  0  0  0  0
  7  8  1  0  0  0  0
  7 25  1  0  0  0  0
  7 35  1  0  0  0  0
  8  9  1  0  0  0  0
  8 36  1  0  0  0  0
  8 37  1  0  0  0  0
  9 10  1  0  0  0  0
  9 38  1  0  0  0  0
  9 56  1  0  0  0  0
 10 11  1  0  0  0  0
 10 39  1  0  0  0  0
 10 40  1  0  0  0  0
 11 12  1  0  0  0  0
 11 13  1  0  0  0  0
 11 41  1  0  0  0  0
 12 42  1  0  0  0  0
 13 14  1  0  0  0  0
 13 43  1  0  0  0  0
 13 44  1  0  0  0  0
 14 24  1  0  0  0  0
 14 15  1  0  0  0  0
 15 16  2  0  0  0  0
 15 45  1  0  0  0  0
 16 17  1  0  0  0  0
 16 57  1  0  0  0  0
 17 24  2  0  0  0  0
 17 18  1  0  0  0  0
 18 19  2  0  0  0  0
 18 46  1  0  0  0  0
 19 20  1  0  0  0  0
 19 21  1  0  0  0  0
 20 47  1  0  0  0  0
 20 48  1  0  0  0  0
 20 49  1  0  0  0  0
 21 22  1  0  0  0  0
 21 23  2  0  0  0  0
 22 50  1  0  0  0  0
 22 51  1  0  0  0  0
 22 52  1  0  0  0  0
 23 24  1  0  0  0  0
 23 53  1  0  0  0  0
 25 54  1  0  0  0  0
 25 55  1  0  0  0  0
M  CHG  1   9   1
M  CHG  1  16   1
M  END
> <s_m_source_file>
AV-unprocessed.smi

> <i_m_source_file_index>
1047

> <i_lp_mmshare_version>
43012

> <i_f3d_flags>
0

> <s_epik_input>
W0NIM11bQ0gyXU4xW0NIMl1bQ0gyXU9bQ0BIXShbQ0gyXTEpW0NIMl1bTkhdW0NIMl1bQ0BIXShbT0hdKVtDSDJdbihbY0hdbjIpYyhjMjMpW2NIXWMoW0NIM10pYyhbY0hdMylbQ0gzXQ==

> <s_epik_cmdline>
J2VwaWtfcHl0aG9uJywgJy1waCcsICc3LjAnLCAnLXRuJywgJzgnLCAnLW1hJywgJzIwMCcsICctbWV0YWxfYmluZGluZycsICctaW1hZScsICc8aW5maWxlLm1hZT4nLCAnLW9tYWUnLCAnPG91dGZpbGUubWFlPic=

> <r_epik_Ionization_Penalty>
1.75732

> <r_epik_Ionization_Penalty_Charging>
1.18089

> <r_epik_Ionization_Penalty_Neutral>
0.576429

> <r_epik_State_Penalty>
1.69377

> <r_epik_Charging_Adjusted_Penalty>
2.87466

> <i_epik_Tot_Q>
2

> <i_epik_Tot_abs_Q>
2

> <r_epik_Metal_State_Penalty>
5.70174

> <b_epik_Metal_Only>
0

> <s_lp_Force_Field>
OPLS_2005

> <r_lp_Energy>
41.9229

> <b_lp_Chiralities_Consistent>
1

> <s_lp_Variant>
AV-unprocessed.smi:1047-30

> <Gold.Version>
5.8.1

> <Gold.Id.Protein>
6NUR|6NUR_protein|mol2

> <Gold.PLP.Fitness>
55.2620

> <Gold.PLP.PLP>
-47.8458

> <Gold.PLP.part.hbond>
-2.0000

> <Gold.PLP.part.metal>
0.0000

> <Gold.PLP.part.buried>
-7.6465

> <Gold.PLP.part.nonpolar>
-37.9745

> <Gold.PLP.part.repulsive>
0.1144

> <Gold.PLP.ligand.clash>
0.0000

> <Gold.PLP.ligand.torsion>
0.9467

> <Gold.PLP.Chemscore.Hbond>
3.0000

> <Gold.PLP.Chemscore.CHOScore>
0.0000

> <Gold.PLP.Chemscore.Metal>
0.0000

> <Gold.Chemscore.Hbonds>
donor molecule, donor type, donor heavy atom, donor atom, acceptor molecule, acceptor atom, score
      L1  H    16    57       P1  8028  2.00
      P1  H  6896  6908       L1     6  1.00

> <Gold.PLP.Chemscore.Internal.Correction>
0.3096

> <Gold.Rescore>
     Score         DG    S(hbond)    S(metal)    S(lipo)     H(rot)  DE(clash)    DE(int)     intcor
     19.69     -20.60       1.91        0.00     133.46       2.69       0.07       0.83       ----

> <Gold.Chemscore.Fitness>
19.6899

> <Gold.Chemscore.DG>
-20.5971

> <Gold.Chemscore.ZeroCoef>
-5.4800

> <Gold.Chemscore.Hbond>
1.9141

> <Gold.Chemscore.Metal>
0.0000

> <Gold.Chemscore.Lipo>
133.4589

> <Gold.Chemscore.Internal_Hbond>
0.0000

> <Gold.Chemscore.DEClash>
0.0743

> <Gold.Chemscore.DEInternal>
0.8330

> <Gold.Chemscore.Rot>
2.6917

> <Gold.Chemscore.Internal.Correction>
   9.000000E+99

> <Gold.Chemscore.Hbonds>
donor molecule, donor type, donor heavy atom, donor atom, acceptor molecule, acceptor atom, score
      L1  H    16    57       P1  8028  0.97
      P1  H  6896  6908       L1     6  0.67

> <Gold.Chemscore.Hbond.Weighted>
-6.3931

> <Gold.Chemscore.Metal.Weighted>
-0.0000

> <Gold.Chemscore.Lipo.Weighted>
-15.6147

> <Gold.Chemscore.Internal_Hbond.Weighted>
0.0000

> <Gold.Chemscore.DEClash.Weighted>
0.0743

> <Gold.Chemscore.DEInternal.Weighted>
0.8330

> <Gold.Chemscore.Rot.Weighted>
6.8907

> <Gold.Chemscore.Internal.Correction.Weighted>
   9.000000E+99

> <Gold.Protein.RotatedTorsions>
[ 6907 6896 6895 6894 ] final  154.67 input  -60.11 | X-H torsion
[ 7974 7965 7964 7962 ] final   67.01 input  175.53 | X-H torsion
[ 8008 7997 7996 7995 ] final -169.48 input   59.86 | X-H torsion
[ 10167 10162 10161 10158 ] final  162.28 input  -65.29 | X-H torsion
[ 10718 10713 10712 10709 ] final   71.36 input   66.30 | X-H torsion
[ 10763 10752 10751 10750 ] final   27.16 input  -60.55 | X-H torsion
[ 11005 11000 10999 10996 ] final  -63.98 input  -57.11 | X-H torsion

> <Gold.Protein.ActiveResidues>
 VAL166  LYS551  ARG553  GLY616  TRP617  ASP618  TYR619  PRO620  LYS621  CYS622 
 ASP623  PHE694  ASN695  SER759  ASP760  ASP761  ALA762  ILE779  LEU786  VAL792 
 PHE793  MET794  SER795  GLU796  ALA797  LYS798  CYS799  TRP800  GLU811  SER814 

> <Gold.Protein.RotatedAtoms>
  152.0552  133.4037  159.4393 H   0  0  0  0  0  0  0  0  0  0  0  0  # atno 6907 bound_to 6896
  150.6868  134.3263  159.4817 H   0  0  0  0  0  0  0  0  0  0  0  0  # atno 6908 bound_to 6896
  152.1077  134.9296  160.0618 H   0  0  0  0  0  0  0  0  0  0  0  0  # atno 6909 bound_to 6896
  145.8197  139.3078  143.1050 H   0  0  0  0  0  0  0  0  0  0  0  0  # atno 7974 bound_to 7965
  155.9056  140.1048  157.1318 H   0  0  0  0  0  0  0  0  0  0  0  0  # atno 8008 bound_to 7997
  154.4032  140.1284  156.4556 H   0  0  0  0  0  0  0  0  0  0  0  0  # atno 8009 bound_to 7997
  155.7371  140.3467  155.5089 H   0  0  0  0  0  0  0  0  0  0  0  0  # atno 8010 bound_to 7997
  139.4859  144.4453  151.8899 H   0  0  0  0  0  0  0  0  0  0  0  0  # atno 10167 bound_to 10162
  157.6448  130.9524  150.0779 H   0  0  0  0  0  0  0  0  0  0  0  0  # atno 10718 bound_to 10713
  153.0574  135.6543  154.0544 H   0  0  0  0  0  0  0  0  0  0  0  0  # atno 10763 bound_to 10752
  154.0220  135.2919  155.3381 H   0  0  0  0  0  0  0  0  0  0  0  0  # atno 10764 bound_to 10752
  154.6896  135.5288  153.8441 H   0  0  0  0  0  0  0  0  0  0  0  0  # atno 10765 bound_to 10752
  141.1410  133.6659  156.5763 H   0  0  0  0  0  0  0  0  0  0  0  0  # atno 11005 bound_to 11000
  145.9688  140.8777  143.0173 LP  0  0  0  0  0  0  0  0  0  0  0  0  # atno 17320 bound_to 7965
  144.6749  140.1916  143.7396 LP  0  0  0  0  0  0  0  0  0  0  0  0  # atno 17321 bound_to 7965
  140.3907  144.2619  150.5900 LP  0  0  0  0  0  0  0  0  0  0  0  0  # atno 17342 bound_to 10162
  140.5148  143.2281  151.8479 LP  0  0  0  0  0  0  0  0  0  0  0  0  # atno 17343 bound_to 10162
  156.1764  130.3648  149.9095 LP  0  0  0  0  0  0  0  0  0  0  0  0  # atno 17370 bound_to 10713
  156.7058  130.8951  151.3604 LP  0  0  0  0  0  0  0  0  0  0  0  0  # atno 17371 bound_to 10713
  140.3873  134.7471  157.4699 LP  0  0  0  0  0  0  0  0  0  0  0  0  # atno 17394 bound_to 11000
  140.0592  134.6019  155.8768 LP  0  0  0  0  0  0  0  0  0  0  0  0  # atno 17395 bound_to 11000

$$$$
