AV-unprocessed.smi:1633|AV-procd|sdf|6532|dock4
  -GOLD-   22720 7213D 1   1.00000     0.00000
 Structure written by MMmdl.
 51 53  0  0  0  0  0  0  0  0  2 V2000
  142.2844  143.8699  155.1866 C   0  0  0  0  0  0  0  0  0  0  0  0
  143.3403  143.4854  156.2253 C   0  0  0  0  0  0  0  0  0  0  0  0
  142.9537  143.0361  157.3038 O   0  0  0  0  0  0  0  0  0  0  0  0
  144.6522  143.6487  155.9301 N   0  0  0  0  0  0  0  0  0  0  0  0
  145.1181  144.1427  154.6313 C   0  0  0  0  0  0  0  0  0  0  0  0
  145.8707  143.0144  153.9033 C   0  0  0  0  0  0  0  0  0  0  0  0
  146.9830  142.4802  154.7337 N   0  3  0  0  0  0  0  0  0  0  0  0
  147.7451  141.4131  154.0359 C   0  0  0  0  0  0  0  0  0  0  0  0
  149.1662  141.2288  154.6036 C   0  0  2  0  0  0  0  0  0  0  0  0
  149.9589  140.5766  153.6298 O   0  0  0  0  0  0  0  0  0  0  0  0
  149.1619  140.3965  155.9004 C   0  0  0  0  0  0  0  0  0  0  0  0
  150.3629  140.6013  156.6905 N   0  0  0  0  0  0  0  0  0  0  0  0
  151.4718  139.8366  156.6909 C   0  0  0  0  0  0  0  0  0  0  0  0
  152.4593  140.1969  157.5048 N   0  0  0  0  0  0  0  0  0  0  0  0
  151.9320  141.3301  158.0999 C   0  0  0  0  0  0  0  0  0  0  0  0
  152.4787  142.1932  159.0744 C   0  0  0  0  0  0  0  0  0  0  0  0
  151.7481  143.3057  159.5493 C   0  0  0  0  0  0  0  0  0  0  0  0
  152.3730  144.2053  160.6009 C   0  0  0  0  0  0  0  0  0  0  0  0
  150.4492  143.5705  159.0451 C   0  0  0  0  0  0  0  0  0  0  0  0
  149.6467  144.7617  159.5384 C   0  0  0  0  0  0  0  0  0  0  0  0
  149.8877  142.7180  158.0718 C   0  0  0  0  0  0  0  0  0  0  0  0
  150.6234  141.6123  157.6097 C   0  0  0  0  0  0  0  0  0  0  0  0
  146.5439  142.1023  156.1058 C   0  0  0  0  0  0  0  0  0  0  0  0
  145.7743  143.2497  156.7855 C   0  0  0  0  0  0  0  0  0  0  0  0
  142.3475  144.9310  154.9432 H   0  0  0  0  0  0  0  0  0  0  0  0
  141.2818  143.6749  155.5685 H   0  0  0  0  0  0  0  0  0  0  0  0
  142.4103  143.2874  154.2734 H   0  0  0  0  0  0  0  0  0  0  0  0
  144.3082  144.5114  154.0004 H   0  0  0  0  0  0  0  0  0  0  0  0
  145.7811  144.9945  154.7902 H   0  0  0  0  0  0  0  0  0  0  0  0
  145.1803  142.2050  153.6599 H   0  0  0  0  0  0  0  0  0  0  0  0
  146.2651  143.3923  152.9590 H   0  0  0  0  0  0  0  0  0  0  0  0
  147.1862  140.4775  154.0878 H   0  0  0  0  0  0  0  0  0  0  0  0
  147.8283  141.6588  152.9756 H   0  0  0  0  0  0  0  0  0  0  0  0
  149.6183  142.1964  154.8195 H   0  0  0  0  0  0  0  0  0  0  0  0
  149.4836  140.5671  152.8122 H   0  0  0  0  0  0  0  0  0  0  0  0
  148.3007  140.6620  156.5155 H   0  0  0  0  0  0  0  0  0  0  0  0
  149.0672  139.3331  155.6766 H   0  0  0  0  0  0  0  0  0  0  0  0
  151.5565  138.9625  156.0619 H   0  0  0  0  0  0  0  0  0  0  0  0
  153.4684  141.9914  159.4574 H   0  0  0  0  0  0  0  0  0  0  0  0
  152.4902  145.2181  160.2154 H   0  0  0  0  0  0  0  0  0  0  0  0
  153.3575  143.8446  160.8999 H   0  0  0  0  0  0  0  0  0  0  0  0
  151.7470  144.2437  161.4926 H   0  0  0  0  0  0  0  0  0  0  0  0
  148.6848  144.8319  159.0294 H   0  0  0  0  0  0  0  0  0  0  0  0
  150.1886  145.6901  159.3571 H   0  0  0  0  0  0  0  0  0  0  0  0
  149.4542  144.6755  160.6080 H   0  0  0  0  0  0  0  0  0  0  0  0
  148.8982  142.9068  157.6823 H   0  0  0  0  0  0  0  0  0  0  0  0
  145.9097  141.2158  156.0521 H   0  0  0  0  0  0  0  0  0  0  0  0
  147.4032  141.8399  156.7211 H   0  0  0  0  0  0  0  0  0  0  0  0
  146.4340  144.1072  156.9261 H   0  0  0  0  0  0  0  0  0  0  0  0
  145.4759  142.9456  157.7876 H   0  0  0  0  0  0  0  0  0  0  0  0
  147.6285  143.2498  154.8441 H   0  0  0  0  0  0  0  0  0  0  0  0
  1  2  1  0  0  0  0
  1 25  1  0  0  0  0
  1 26  1  0  0  0  0
  1 27  1  0  0  0  0
  2  3  2  0  0  0  0
  2  4  1  0  0  0  0
  4 24  1  0  0  0  0
  4  5  1  0  0  0  0
  5  6  1  0  0  0  0
  5 28  1  0  0  0  0
  5 29  1  0  0  0  0
  6  7  1  0  0  0  0
  6 30  1  0  0  0  0
  6 31  1  0  0  0  0
  7  8  1  0  0  0  0
  7 23  1  0  0  0  0
  7 51  1  0  0  0  0
  8  9  1  0  0  0  0
  8 32  1  0  0  0  0
  8 33  1  0  0  0  0
  9 10  1  0  0  0  0
  9 11  1  0  0  0  0
  9 34  1  0  0  0  0
 10 35  1  0  0  0  0
 11 12  1  0  0  0  0
 11 36  1  0  0  0  0
 11 37  1  0  0  0  0
 12 22  1  0  0  0  0
 12 13  1  0  0  0  0
 13 14  2  0  0  0  0
 13 38  1  0  0  0  0
 14 15  1  0  0  0  0
 15 22  2  0  0  0  0
 15 16  1  0  0  0  0
 16 17  2  0  0  0  0
 16 39  1  0  0  0  0
 17 18  1  0  0  0  0
 17 19  1  0  0  0  0
 18 40  1  0  0  0  0
 18 41  1  0  0  0  0
 18 42  1  0  0  0  0
 19 20  1  0  0  0  0
 19 21  2  0  0  0  0
 20 43  1  0  0  0  0
 20 44  1  0  0  0  0
 20 45  1  0  0  0  0
 21 22  1  0  0  0  0
 21 46  1  0  0  0  0
 23 24  1  0  0  0  0
 23 47  1  0  0  0  0
 23 48  1  0  0  0  0
 24 49  1  0  0  0  0
 24 50  1  0  0  0  0
M  CHG  1   7   1
M  END
> <s_m_source_file>
AV-unprocessed.smi

> <i_m_source_file_index>
1633

> <i_lp_mmshare_version>
43012

> <i_f3d_flags>
0

> <s_epik_input>
W0NIM11DKD1PKU4xW0NIMl1bQ0gyXU4oW0NIMl1bQ0gyXTEpW0NIMl1bQ0BIXShbT0hdKVtDSDJdbihbY0hdbjIpYyhjMjMpW2NIXWMoW0NIM10pYyhbY0hdMylbQ0gzXQ==

> <s_epik_cmdline>
J2VwaWtfcHl0aG9uJywgJy1waCcsICc3LjAnLCAnLXRuJywgJzgnLCAnLW1hJywgJzIwMCcsICctbWV0YWxfYmluZGluZycsICctaW1hZScsICc8aW5maWxlLm1hZT4nLCAnLW9tYWUnLCAnPG91dGZpbGUubWFlPic=

> <r_epik_Ionization_Penalty>
0.0939669

> <r_epik_Ionization_Penalty_Charging>
0.00645254

> <r_epik_Ionization_Penalty_Neutral>
0.0875144

> <r_epik_State_Penalty>
0.0777239

> <r_epik_Charging_Adjusted_Penalty>
0.0841764

> <i_epik_Tot_Q>
1

> <i_epik_Tot_abs_Q>
1

> <r_epik_Metal_State_Penalty>
7.71307e-05

> <b_epik_Metal_Only>
0

> <s_lp_Force_Field>
OPLS_2005

> <r_lp_Energy>
43.6945

> <b_lp_Chiralities_Consistent>
1

> <s_lp_Variant>
AV-unprocessed.smi:1633-1

> <Gold.Version>
5.8.1

> <Gold.Id.Protein>
6NUR|6NUR_protein|mol2

> <Gold.PLP.Fitness>
53.0284

> <Gold.PLP.PLP>
-40.8006

> <Gold.PLP.part.hbond>
-3.4866

> <Gold.PLP.part.metal>
0.0000

> <Gold.PLP.part.buried>
-7.0584

> <Gold.PLP.part.nonpolar>
-29.6378

> <Gold.PLP.part.repulsive>
0.0965

> <Gold.PLP.ligand.clash>
0.0000

> <Gold.PLP.ligand.torsion>
0.8760

> <Gold.PLP.Chemscore.Hbond>
4.6320

> <Gold.PLP.Chemscore.CHOScore>
0.0000

> <Gold.PLP.Chemscore.Metal>
0.0000

> <Gold.Chemscore.Hbonds>
donor molecule, donor type, donor heavy atom, donor atom, acceptor molecule, acceptor atom, score
      L1  H     7    51       P1  8028  1.89
      L1  H    10    35       P1  7957  0.85
      P1  H  7989  7998       L1    10  0.53
      P1  H  7997  8009       L1    14  0.75

> <Gold.PLP.Chemscore.Internal.Correction>
0.0838

> <Gold.Rescore>
     Score         DG    S(hbond)    S(metal)    S(lipo)     H(rot)  DE(clash)    DE(int)     intcor
     20.92     -21.84       2.96        0.00     102.48       2.16       0.03       0.88       ----

> <Gold.Chemscore.Fitness>
20.9209

> <Gold.Chemscore.DG>
-21.8375

> <Gold.Chemscore.ZeroCoef>
-5.4800

> <Gold.Chemscore.Hbond>
2.9637

> <Gold.Chemscore.Metal>
0.0000

> <Gold.Chemscore.Lipo>
102.4825

> <Gold.Chemscore.Internal_Hbond>
0.0000

> <Gold.Chemscore.DEClash>
0.0336

> <Gold.Chemscore.DEInternal>
0.8830

> <Gold.Chemscore.Rot>
2.1608

> <Gold.Chemscore.Internal.Correction>
   9.000000E+99

> <Gold.Chemscore.Hbonds>
donor molecule, donor type, donor heavy atom, donor atom, acceptor molecule, acceptor atom, score
      L1  H     7    51       P1  8028  0.40
      L1  H    10    35       P1  7957  0.83
      P1  H  7989  7998       L1    10  0.45
      P1  H  7997  8009       L1    14  0.69

> <Gold.Chemscore.Hbond.Weighted>
-9.8988

> <Gold.Chemscore.Metal.Weighted>
-0.0000

> <Gold.Chemscore.Lipo.Weighted>
-11.9904

> <Gold.Chemscore.Internal_Hbond.Weighted>
0.0000

> <Gold.Chemscore.DEClash.Weighted>
0.0336

> <Gold.Chemscore.DEInternal.Weighted>
0.8830

> <Gold.Chemscore.Rot.Weighted>
5.5317

> <Gold.Chemscore.Internal.Correction.Weighted>
   9.000000E+99

> <Gold.Protein.RotatedTorsions>
[ 6907 6896 6895 6894 ] final  -53.53 input  -60.11 | X-H torsion
[ 7974 7965 7964 7962 ] final  -70.19 input  175.53 | X-H torsion
[ 8008 7997 7996 7995 ] final  164.44 input   59.86 | X-H torsion
[ 10167 10162 10161 10158 ] final  -76.72 input  -65.29 | X-H torsion
[ 10718 10713 10712 10709 ] final -103.08 input   66.30 | X-H torsion
[ 10763 10752 10751 10750 ] final  -71.79 input  -60.55 | X-H torsion
[ 11005 11000 10999 10996 ] final -161.52 input  -57.11 | X-H torsion

> <Gold.Protein.ActiveResidues>
 VAL166  LYS551  ARG553  GLY616  TRP617  ASP618  TYR619  PRO620  LYS621  CYS622 
 ASP623  PHE694  ASN695  SER759  ASP760  ASP761  ALA762  ILE779  LEU786  VAL792 
 PHE793  MET794  SER795  GLU796  ALA797  LYS798  CYS799  TRP800  GLU811  SER814 

> <Gold.Protein.RotatedAtoms>
  150.8418  134.7713  159.6938 H   0  0  0  0  0  0  0  0  0  0  0  0  # atno 6907 bound_to 6896
  152.4504  134.5403  159.9847 H   0  0  0  0  0  0  0  0  0  0  0  0  # atno 6908 bound_to 6896
  151.5541  133.3375  159.2994 H   0  0  0  0  0  0  0  0  0  0  0  0  # atno 6909 bound_to 6896
  145.6941  140.9142  143.0766 H   0  0  0  0  0  0  0  0  0  0  0  0  # atno 7974 bound_to 7965
  156.1880  140.1697  156.8148 H   0  0  0  0  0  0  0  0  0  0  0  0  # atno 8008 bound_to 7997
  154.5437  140.0731  156.8585 H   0  0  0  0  0  0  0  0  0  0  0  0  # atno 8009 bound_to 7997
  155.3164  140.3371  155.4244 H   0  0  0  0  0  0  0  0  0  0  0  0  # atno 8010 bound_to 7997
  140.4832  143.2397  151.8024 H   0  0  0  0  0  0  0  0  0  0  0  0  # atno 10167 bound_to 10162
  156.0252  130.5450  150.7201 H   0  0  0  0  0  0  0  0  0  0  0  0  # atno 10718 bound_to 10713
  154.4366  135.5951  153.6102 H   0  0  0  0  0  0  0  0  0  0  0  0  # atno 10763 bound_to 10752
  152.9802  135.5988  154.3774 H   0  0  0  0  0  0  0  0  0  0  0  0  # atno 10764 bound_to 10752
  154.3618  135.2841  155.2294 H   0  0  0  0  0  0  0  0  0  0  0  0  # atno 10765 bound_to 10752
  140.6195  134.4765  157.5222 H   0  0  0  0  0  0  0  0  0  0  0  0  # atno 11005 bound_to 11000
  144.6988  139.8860  143.7450 LP  0  0  0  0  0  0  0  0  0  0  0  0  # atno 17320 bound_to 7965
  146.0856  139.3844  143.0437 LP  0  0  0  0  0  0  0  0  0  0  0  0  # atno 17321 bound_to 7965
  139.4837  144.4745  151.9384 LP  0  0  0  0  0  0  0  0  0  0  0  0  # atno 17342 bound_to 10162
  140.3831  144.2711  150.5906 LP  0  0  0  0  0  0  0  0  0  0  0  0  # atno 17343 bound_to 10162
  157.4819  131.0903  151.0527 LP  0  0  0  0  0  0  0  0  0  0  0  0  # atno 17370 bound_to 10713
  157.0958  130.5961  149.5449 LP  0  0  0  0  0  0  0  0  0  0  0  0  # atno 17371 bound_to 10713
  139.9159  134.8247  156.1368 LP  0  0  0  0  0  0  0  0  0  0  0  0  # atno 17394 bound_to 11000
  141.0752  133.6778  156.2222 LP  0  0  0  0  0  0  0  0  0  0  0  0  # atno 17395 bound_to 11000

$$$$
