AV-unprocessed.smi:3045|AV-procd|sdf|11610|dock3
  -GOLD-   2272016593D 1   1.00000     0.00000
 Structure written by MMmdl.
 35 36  0  0  0  0  0  0  0  0  1 V2000
  151.8904  145.3472  160.6155 C   0  0  0  0  0  0  0  0  0  0  0  0
  152.5252  144.0495  160.4295 N   0  0  0  0  0  0  0  0  0  0  0  0
  153.1049  143.6732  159.1512 C   0  0  0  0  0  0  0  0  0  0  0  0
  153.5186  142.1926  159.3054 C   0  0  2  0  0  0  0  0  0  0  0  0
  152.6364  141.2414  158.4829 C   0  0  0  0  0  0  0  0  0  0  0  0
  152.7016  140.0249  158.6636 O   0  0  0  0  0  0  0  0  0  0  0  0
  151.8337  141.8103  157.5692 N   0  0  0  0  0  0  0  0  0  0  0  0
  150.9769  141.0927  156.6283 C   0  0  0  0  0  0  0  0  0  0  0  0
  150.5363  141.9805  155.4478 C   0  0  0  0  0  0  0  0  0  0  0  0
  149.2619  141.5067  154.7702 C   0  0  0  0  0  0  0  0  0  0  0  0
  148.7264  142.1974  153.6630 C   0  0  0  0  0  0  0  0  0  0  0  0
  147.5596  141.6994  153.0524 C   0  0  0  0  0  0  0  0  0  0  0  0
  146.9745  140.5305  153.5782 C   0  0  0  0  0  0  0  0  0  0  0  0
  147.4744  139.8642  154.6410 N   0  0  0  0  0  0  0  0  0  0  0  0
  148.5945  140.3476  155.2197 C   0  0  0  0  0  0  0  0  0  0  0  0
  153.3952  141.8953  160.8138 C   0  0  0  0  0  0  0  0  0  0  0  0
  152.6935  143.1204  161.3745 C   0  0  0  0  0  0  0  0  0  0  0  0
  152.3360  143.2063  162.5483 O   0  0  0  0  0  0  0  0  0  0  0  0
  152.5113  145.9862  161.2444 H   0  0  0  0  0  0  0  0  0  0  0  0
  150.9165  145.2355  161.0936 H   0  0  0  0  0  0  0  0  0  0  0  0
  151.7408  145.8525  159.6608 H   0  0  0  0  0  0  0  0  0  0  0  0
  152.3911  143.8377  158.3419 H   0  0  0  0  0  0  0  0  0  0  0  0
  153.9756  144.2995  158.9523 H   0  0  0  0  0  0  0  0  0  0  0  0
  154.5569  142.0737  158.9905 H   0  0  0  0  0  0  0  0  0  0  0  0
  151.8448  142.8172  157.4942 H   0  0  0  0  0  0  0  0  0  0  0  0
  151.4780  140.1968  156.2576 H   0  0  0  0  0  0  0  0  0  0  0  0
  150.0972  140.7432  157.1689 H   0  0  0  0  0  0  0  0  0  0  0  0
  150.3850  143.0028  155.7958 H   0  0  0  0  0  0  0  0  0  0  0  0
  151.3362  142.0287  154.7078 H   0  0  0  0  0  0  0  0  0  0  0  0
  149.2053  143.0865  153.2799 H   0  0  0  0  0  0  0  0  0  0  0  0
  147.1252  142.1987  152.1990 H   0  0  0  0  0  0  0  0  0  0  0  0
  146.0800  140.1201  153.1334 H   0  0  0  0  0  0  0  0  0  0  0  0
  148.9760  139.7866  156.0601 H   0  0  0  0  0  0  0  0  0  0  0  0
  152.8223  140.9941  161.0388 H   0  0  0  0  0  0  0  0  0  0  0  0
  154.3774  141.7938  161.2764 H   0  0  0  0  0  0  0  0  0  0  0  0
  1  2  1  0  0  0  0
  1 19  1  0  0  0  0
  1 20  1  0  0  0  0
  1 21  1  0  0  0  0
  2 17  1  0  0  0  0
  2  3  1  0  0  0  0
  3  4  1  0  0  0  0
  3 22  1  0  0  0  0
  3 23  1  0  0  0  0
  4  5  1  0  0  0  0
  4 16  1  0  0  0  0
  4 24  1  0  0  0  0
  5  6  2  0  0  0  0
  5  7  1  0  0  0  0
  7  8  1  0  0  0  0
  7 25  1  0  0  0  0
  8  9  1  0  0  0  0
  8 26  1  0  0  0  0
  8 27  1  0  0  0  0
  9 10  1  0  0  0  0
  9 28  1  0  0  0  0
  9 29  1  0  0  0  0
 10 15  1  0  0  0  0
 10 11  2  0  0  0  0
 11 12  1  0  0  0  0
 11 30  1  0  0  0  0
 12 13  2  0  0  0  0
 12 31  1  0  0  0  0
 13 14  1  0  0  0  0
 13 32  1  0  0  0  0
 14 15  2  0  0  0  0
 15 33  1  0  0  0  0
 16 17  1  0  0  0  0
 16 34  1  0  0  0  0
 16 35  1  0  0  0  0
 17 18  2  0  0  0  0
M  END
> <s_m_source_file>
AV-unprocessed.smi

> <i_m_source_file_index>
3045

> <i_lp_mmshare_version>
43012

> <i_f3d_flags>
0

> <s_epik_input>
W0NIM11OMVtDSDJdW0NASF0oW0NIMl1DMT1PKUMoPU8pW05IXVtDSDJdW0NIMl1jMltjSF1bY0hdW2NIXW5bY0hdMg==

> <s_epik_cmdline>
J2VwaWtfcHl0aG9uJywgJy1waCcsICc3LjAnLCAnLXRuJywgJzgnLCAnLW1hJywgJzIwMCcsICctbWV0YWxfYmluZGluZycsICctaW1hZScsICc8aW5maWxlLm1hZT4nLCAnLW9tYWUnLCAnPG91dGZpbGUubWFlPic=

> <r_epik_Ionization_Penalty>
0.0130932

> <r_epik_Ionization_Penalty_Charging>
0

> <r_epik_Ionization_Penalty_Neutral>
0.0130932

> <r_epik_State_Penalty>
0.0101714

> <r_epik_Charging_Adjusted_Penalty>
0.0101714

> <i_epik_Tot_Q>
0

> <i_epik_Tot_abs_Q>
0

> <r_epik_Metal_State_Penalty>
0.00995082

> <b_epik_Metal_Only>
0

> <s_lp_Force_Field>
OPLS_2005

> <r_lp_Energy>
10.4335

> <b_lp_Chiralities_Consistent>
1

> <s_lp_Variant>
AV-unprocessed.smi:3045-2

> <Gold.Version>
5.8.1

> <Gold.Id.Protein>
6NUR|6NUR_protein|mol2

> <Gold.PLP.Fitness>
40.5294

> <Gold.PLP.PLP>
-38.4796

> <Gold.PLP.part.hbond>
0.0000

> <Gold.PLP.part.metal>
0.0000

> <Gold.PLP.part.buried>
-5.1612

> <Gold.PLP.part.nonpolar>
-33.4233

> <Gold.PLP.part.repulsive>
0.7730

> <Gold.PLP.ligand.clash>
0.0000

> <Gold.PLP.ligand.torsion>
0.4646

> <Gold.PLP.Chemscore.Hbond>
0.0000

> <Gold.PLP.Chemscore.CHOScore>
0.9828

> <Gold.PLP.Chemscore.Metal>
0.0000

> <Gold.Chemscore.Hbonds>
donor molecule, donor type, donor heavy atom, donor atom, acceptor molecule, acceptor atom, score
      L1  C    13    32       P1 10175  1.00

> <Gold.PLP.Chemscore.Internal.Correction>
0.0306

> <Gold.Rescore>
     Score         DG    S(hbond)    S(metal)    S(lipo)     H(rot)  DE(clash)    DE(int)     intcor
     11.46     -12.12       0.00        0.00      92.18       1.62       0.23       0.43       ----

> <Gold.Chemscore.Fitness>
11.4590

> <Gold.Chemscore.DG>
-12.1183

> <Gold.Chemscore.ZeroCoef>
-5.4800

> <Gold.Chemscore.Hbond>
0.0010

> <Gold.Chemscore.Metal>
0.0000

> <Gold.Chemscore.Lipo>
92.1761

> <Gold.Chemscore.Internal_Hbond>
0.0000

> <Gold.Chemscore.DEClash>
0.2306

> <Gold.Chemscore.DEInternal>
0.4286

> <Gold.Chemscore.Rot>
1.6210

> <Gold.Chemscore.Internal.Correction>
   9.000000E+99

> <Gold.Chemscore.Hbond.Weighted>
-0.0035

> <Gold.Chemscore.Metal.Weighted>
-0.0000

> <Gold.Chemscore.Lipo.Weighted>
-10.7846

> <Gold.Chemscore.Internal_Hbond.Weighted>
0.0000

> <Gold.Chemscore.DEClash.Weighted>
0.2306

> <Gold.Chemscore.DEInternal.Weighted>
0.4286

> <Gold.Chemscore.Rot.Weighted>
4.1498

> <Gold.Chemscore.Internal.Correction.Weighted>
   9.000000E+99

> <Gold.Protein.RotatedTorsions>
[ 6907 6896 6895 6894 ] final  -62.48 input  -60.11 | X-H torsion
[ 7974 7965 7964 7962 ] final   50.70 input  175.53 | X-H torsion
[ 8008 7997 7996 7995 ] final   55.48 input   59.86 | X-H torsion
[ 10167 10162 10161 10158 ] final   13.40 input  -65.29 | X-H torsion
[ 10718 10713 10712 10709 ] final -125.71 input   66.30 | X-H torsion
[ 10763 10752 10751 10750 ] final  -72.90 input  -60.55 | X-H torsion
[ 11005 11000 10999 10996 ] final   48.42 input  -57.11 | X-H torsion

> <Gold.Protein.ActiveResidues>
 VAL166  LYS551  ARG553  GLY616  TRP617  ASP618  TYR619  PRO620  LYS621  CYS622 
 ASP623  PHE694  ASN695  SER759  ASP760  ASP761  ALA762  ILE779  LEU786  VAL792 
 PHE793  MET794  SER795  GLU796  ALA797  LYS798  CYS799  TRP800  GLU811  SER814 

> <Gold.Protein.RotatedAtoms>
  150.7713  134.6565  159.6315 H   0  0  0  0  0  0  0  0  0  0  0  0  # atno 6907 bound_to 6896
  152.3766  134.6651  160.0166 H   0  0  0  0  0  0  0  0  0  0  0  0  # atno 6908 bound_to 6896
  151.6994  133.3274  159.3299 H   0  0  0  0  0  0  0  0  0  0  0  0  # atno 6909 bound_to 6896
  145.9986  139.4415  143.0029 H   0  0  0  0  0  0  0  0  0  0  0  0  # atno 7974 bound_to 7965
  155.5018  140.3474  155.4372 H   0  0  0  0  0  0  0  0  0  0  0  0  # atno 8008 bound_to 7997
  156.0909  140.1410  156.9621 H   0  0  0  0  0  0  0  0  0  0  0  0  # atno 8009 bound_to 7997
  154.4634  140.0926  156.6932 H   0  0  0  0  0  0  0  0  0  0  0  0  # atno 8010 bound_to 7997
  140.6005  143.8615  150.6960 H   0  0  0  0  0  0  0  0  0  0  0  0  # atno 10167 bound_to 10162
  156.1700  130.6661  151.0166 H   0  0  0  0  0  0  0  0  0  0  0  0  # atno 10718 bound_to 10713
  154.4520  135.5915  153.6198 H   0  0  0  0  0  0  0  0  0  0  0  0  # atno 10763 bound_to 10752
  152.9814  135.6023  154.3592 H   0  0  0  0  0  0  0  0  0  0  0  0  # atno 10764 bound_to 10752
  154.3455  135.2841  155.2379 H   0  0  0  0  0  0  0  0  0  0  0  0  # atno 10765 bound_to 10752
  140.1192  134.4852  155.8612 H   0  0  0  0  0  0  0  0  0  0  0  0  # atno 11005 bound_to 11000
  145.7521  140.9968  143.1245 LP  0  0  0  0  0  0  0  0  0  0  0  0  # atno 17320 bound_to 7965
  144.6912  139.9227  143.7468 LP  0  0  0  0  0  0  0  0  0  0  0  0  # atno 17321 bound_to 7965
  140.2159  143.3846  152.1681 LP  0  0  0  0  0  0  0  0  0  0  0  0  # atno 17342 bound_to 10162
  139.5287  144.7134  151.5133 LP  0  0  0  0  0  0  0  0  0  0  0  0  # atno 17343 bound_to 10162
  157.6796  131.0841  150.7406 LP  0  0  0  0  0  0  0  0  0  0  0  0  # atno 17370 bound_to 10713
  156.7465  130.4755  149.5466 LP  0  0  0  0  0  0  0  0  0  0  0  0  # atno 17371 bound_to 10713
  141.2148  133.6754  156.6855 LP  0  0  0  0  0  0  0  0  0  0  0  0  # atno 17394 bound_to 11000
  140.2988  134.8181  157.4080 LP  0  0  0  0  0  0  0  0  0  0  0  0  # atno 17395 bound_to 11000

$$$$
