AV-unprocessed.smi:1228|AV-procd|sdf|5148|dock9
  -GOLD-   22720 4213D 1   1.00000     0.00000
 Structure written by MMmdl.
 44 46  0  0  0  0  0  0  0  0  2 V2000
  152.0680  131.6653  156.8772 C   0  0  0  0  0  0  0  0  0  0  0  0
  151.3177  132.7510  156.1640 C   0  0  0  0  0  0  0  0  0  0  0  0
  150.2676  132.6110  155.2106 C   0  0  0  0  0  0  0  0  0  0  0  0
  149.9672  133.9094  154.9010 C   0  0  0  0  0  0  0  0  0  0  0  0
  149.0300  134.3889  154.0405 N   0  0  0  0  0  0  0  0  0  0  0  0
  147.7485  134.0082  153.8975 C   0  0  0  0  0  0  0  0  0  0  0  0
  147.1926  133.1142  154.5357 O   0  0  0  0  0  0  0  0  0  0  0  0
  147.1309  134.7300  152.9505 N   0  0  0  0  0  0  0  0  0  0  0  0
  145.7346  134.5727  152.5534 C   0  0  2  0  0  0  0  0  0  0  0  0
  145.4584  133.1355  152.0737 C   0  0  0  0  0  0  0  0  0  0  0  0
  144.0139  132.9881  151.5593 C   0  0  0  0  0  0  0  0  0  0  0  0
  143.6940  133.9756  150.4966 N   0  3  2  0  0  0  0  0  0  0  0  0
  144.3096  133.6503  149.1886 C   0  0  0  0  0  0  0  0  0  0  0  0
  143.4234  132.8156  148.2939 C   0  0  0  0  0  0  0  0  0  0  0  0
  144.5976  132.1787  149.0029 C   0  0  0  0  0  0  0  0  0  0  0  0
  143.9480  135.3723  150.9358 C   0  0  0  0  0  0  0  0  0  0  0  0
  145.3918  135.5706  151.4350 C   0  0  0  0  0  0  0  0  0  0  0  0
  150.7873  134.7418  155.6297 N   0  0  0  0  0  0  0  0  0  0  0  0
  150.8469  136.1903  155.6481 C   0  0  0  0  0  0  0  0  0  0  0  0
  151.6228  134.0205  156.4081 N   0  0  0  0  0  0  0  0  0  0  0  0
  151.6270  130.6877  156.6811 H   0  0  0  0  0  0  0  0  0  0  0  0
  152.0580  131.8224  157.9561 H   0  0  0  0  0  0  0  0  0  0  0  0
  153.1083  131.6309  156.5535 H   0  0  0  0  0  0  0  0  0  0  0  0
  149.8246  131.7015  154.8336 H   0  0  0  0  0  0  0  0  0  0  0  0
  149.3473  135.1269  153.4297 H   0  0  0  0  0  0  0  0  0  0  0  0
  147.6636  135.4437  152.4745 H   0  0  0  0  0  0  0  0  0  0  0  0
  145.0933  134.7901  153.4098 H   0  0  0  0  0  0  0  0  0  0  0  0
  146.1618  132.8638  151.2855 H   0  0  0  0  0  0  0  0  0  0  0  0
  145.6270  132.4289  152.8873 H   0  0  0  0  0  0  0  0  0  0  0  0
  143.8425  131.9759  151.1913 H   0  0  0  0  0  0  0  0  0  0  0  0
  143.3174  133.1356  152.3856 H   0  0  0  0  0  0  0  0  0  0  0  0
  144.9757  134.3960  148.7594 H   0  0  0  0  0  0  0  0  0  0  0  0
  142.4258  132.5610  148.6476 H   0  0  0  0  0  0  0  0  0  0  0  0
  143.5110  132.9644  147.2196 H   0  0  0  0  0  0  0  0  0  0  0  0
  145.4595  131.9090  148.3961 H   0  0  0  0  0  0  0  0  0  0  0  0
  144.3785  131.5009  149.8260 H   0  0  0  0  0  0  0  0  0  0  0  0
  143.7282  136.0648  150.1225 H   0  0  0  0  0  0  0  0  0  0  0  0
  143.2500  135.6116  151.7391 H   0  0  0  0  0  0  0  0  0  0  0  0
  145.5148  136.5918  151.7977 H   0  0  0  0  0  0  0  0  0  0  0  0
  146.0892  135.4567  150.6040 H   0  0  0  0  0  0  0  0  0  0  0  0
  151.0851  136.5593  154.6503 H   0  0  0  0  0  0  0  0  0  0  0  0
  151.6122  136.5347  156.3451 H   0  0  0  0  0  0  0  0  0  0  0  0
  149.8816  136.5927  155.9569 H   0  0  0  0  0  0  0  0  0  0  0  0
  142.6977  133.9081  150.3435 H   0  0  0  0  0  0  0  0  0  0  0  0
  1  2  1  0  0  0  0
  1 21  1  0  0  0  0
  1 22  1  0  0  0  0
  1 23  1  0  0  0  0
  2 20  2  0  0  0  0
  2  3  1  0  0  0  0
  3  4  2  0  0  0  0
  3 24  1  0  0  0  0
  4  5  1  0  0  0  0
  4 18  1  0  0  0  0
  5  6  1  0  0  0  0
  5 25  1  0  0  0  0
  6  7  2  0  0  0  0
  6  8  1  0  0  0  0
  8  9  1  0  0  0  0
  8 26  1  0  0  0  0
  9 17  1  0  0  0  0
  9 10  1  0  0  0  0
  9 27  1  0  0  0  0
 10 11  1  0  0  0  0
 10 28  1  0  0  0  0
 10 29  1  0  0  0  0
 11 12  1  0  0  0  0
 11 30  1  0  0  0  0
 11 31  1  0  0  0  0
 12 13  1  0  0  0  0
 12 16  1  0  0  0  0
 12 44  1  0  0  0  0
 13 15  1  0  0  0  0
 13 14  1  0  0  0  0
 13 32  1  0  0  0  0
 14 15  1  0  0  0  0
 14 33  1  0  0  0  0
 14 34  1  0  0  0  0
 15 35  1  0  0  0  0
 15 36  1  0  0  0  0
 16 17  1  0  0  0  0
 16 37  1  0  0  0  0
 16 38  1  0  0  0  0
 17 39  1  0  0  0  0
 17 40  1  0  0  0  0
 18 19  1  0  0  0  0
 18 20  1  0  0  0  0
 19 41  1  0  0  0  0
 19 42  1  0  0  0  0
 19 43  1  0  0  0  0
M  CHG  1  12   1
M  END
> <s_m_source_file>
AV-unprocessed.smi

> <i_m_source_file_index>
1228

> <i_lp_mmshare_version>
43012

> <i_f3d_flags>
0

> <s_epik_input>
W0NIM11jMVtjSF1jKG4objEpW0NIM10pW05IXUMoPU8pW05IXVtDSF0yW0NIMl1bQ0gyXU4oW0NIMl1bQ0gyXTIpW0NIXTNbQ0gyXVtDSDJdMw==

> <s_epik_cmdline>
J2VwaWtfcHl0aG9uJywgJy1waCcsICc3LjAnLCAnLXRuJywgJzgnLCAnLW1hJywgJzIwMCcsICctbWV0YWxfYmluZGluZycsICctaW1hZScsICc8aW5maWxlLm1hZT4nLCAnLW9tYWUnLCAnPG91dGZpbGUubWFlPic=

> <r_lp_tautomer_probability>
1

> <r_epik_Ionization_Penalty>
0.11882

> <r_epik_Ionization_Penalty_Charging>
0.11874

> <r_epik_Ionization_Penalty_Neutral>
8.03064e-05

> <r_epik_State_Penalty>
0.108313

> <r_epik_Charging_Adjusted_Penalty>
0.227053

> <i_epik_Tot_Q>
1

> <i_epik_Tot_abs_Q>
1

> <r_epik_Metal_State_Penalty>
0.108316

> <b_epik_Metal_Only>
0

> <s_lp_Force_Field>
OPLS_2005

> <r_lp_Energy>
29.8379

> <b_lp_Chiralities_Consistent>
1

> <s_lp_Variant>
AV-unprocessed.smi:1228-2

> <Gold.Version>
5.8.1

> <Gold.Id.Protein>
6NUR|6NUR_protein|mol2

> <Gold.PLP.Fitness>
42.5737

> <Gold.PLP.PLP>
-32.2298

> <Gold.PLP.part.hbond>
-3.1727

> <Gold.PLP.part.metal>
0.0000

> <Gold.PLP.part.buried>
-0.7039

> <Gold.PLP.part.nonpolar>
-29.5897

> <Gold.PLP.part.repulsive>
0.0494

> <Gold.PLP.ligand.clash>
0.2077

> <Gold.PLP.ligand.torsion>
1.2489

> <Gold.PLP.Chemscore.Hbond>
3.9280

> <Gold.PLP.Chemscore.CHOScore>
0.0000

> <Gold.PLP.Chemscore.Metal>
0.0000

> <Gold.Chemscore.Hbonds>
donor molecule, donor type, donor heavy atom, donor atom, acceptor molecule, acceptor atom, score
      L1  H     5    25       P1  7948  0.71
      L1  H     8    26       P1  7948  1.00
      L1  H    12    44       P1 10186  2.00

> <Gold.PLP.Chemscore.Internal.Correction>
1.2653

> <Gold.Rescore>
     Score         DG    S(hbond)    S(metal)    S(lipo)     H(rot)  DE(clash)    DE(int)     intcor
     17.28     -20.10       2.40        0.00      82.95       1.21       1.56       1.26       ----

> <Gold.Chemscore.Fitness>
17.2825

> <Gold.Chemscore.DG>
-20.0972

> <Gold.Chemscore.ZeroCoef>
-5.4800

> <Gold.Chemscore.Hbond>
2.3977

> <Gold.Chemscore.Metal>
0.0000

> <Gold.Chemscore.Lipo>
82.9541

> <Gold.Chemscore.Internal_Hbond>
0.0000

> <Gold.Chemscore.DEClash>
1.5587

> <Gold.Chemscore.DEInternal>
1.2559

> <Gold.Chemscore.Rot>
1.2097

> <Gold.Chemscore.Internal.Correction>
   9.000000E+99

> <Gold.Chemscore.Hbonds>
donor molecule, donor type, donor heavy atom, donor atom, acceptor molecule, acceptor atom, score
      L1  H     5    25       P1  7948  0.08
      L1  H     8    26       P1  7948  0.98
      L1  H    12    44       P1 10186  0.94

> <Gold.Chemscore.Hbond.Weighted>
-8.0084

> <Gold.Chemscore.Metal.Weighted>
-0.0000

> <Gold.Chemscore.Lipo.Weighted>
-9.7056

> <Gold.Chemscore.Internal_Hbond.Weighted>
0.0000

> <Gold.Chemscore.DEClash.Weighted>
1.5587

> <Gold.Chemscore.DEInternal.Weighted>
1.2559

> <Gold.Chemscore.Rot.Weighted>
3.0969

> <Gold.Chemscore.Internal.Correction.Weighted>
   9.000000E+99

> <Gold.Protein.RotatedTorsions>
[ 6907 6896 6895 6894 ] final   52.62 input  -60.11 | X-H torsion
[ 7974 7965 7964 7962 ] final   83.66 input  175.53 | X-H torsion
[ 8008 7997 7996 7995 ] final  -90.12 input   59.86 | X-H torsion
[ 10167 10162 10161 10158 ] final   -4.77 input  -65.29 | X-H torsion
[ 10718 10713 10712 10709 ] final -154.96 input   66.30 | X-H torsion
[ 10763 10752 10751 10750 ] final   20.19 input  -60.55 | X-H torsion
[ 11005 11000 10999 10996 ] final   -0.79 input  -57.11 | X-H torsion

> <Gold.Protein.ActiveResidues>
 VAL166  LYS551  ARG553  GLY616  TRP617  ASP618  TYR619  PRO620  LYS621  CYS622 
 ASP623  PHE694  ASN695  SER759  ASP760  ASP761  ALA762  ILE779  LEU786  VAL792 
 PHE793  MET794  SER795  GLU796  ALA797  LYS798  CYS799  TRP800  GLU811  SER814 

> <Gold.Protein.RotatedAtoms>
  152.3252  134.7329  160.0303 H   0  0  0  0  0  0  0  0  0  0  0  0  # atno 6907 bound_to 6896
  151.7764  133.3340  159.3467 H   0  0  0  0  0  0  0  0  0  0  0  0  # atno 6908 bound_to 6896
  150.7392  134.5902  159.6028 H   0  0  0  0  0  0  0  0  0  0  0  0  # atno 6909 bound_to 6896
  145.6089  139.2365  143.2203 H   0  0  0  0  0  0  0  0  0  0  0  0  # atno 7974 bound_to 7965
  154.6948  140.0534  157.0399 H   0  0  0  0  0  0  0  0  0  0  0  0  # atno 8008 bound_to 7997
  155.0766  140.3205  155.4595 H   0  0  0  0  0  0  0  0  0  0  0  0  # atno 8009 bound_to 7997
  156.2740  140.2072  156.5894 H   0  0  0  0  0  0  0  0  0  0  0  0  # atno 8010 bound_to 7997
  140.6939  143.6386  150.8457 H   0  0  0  0  0  0  0  0  0  0  0  0  # atno 10167 bound_to 10162
  156.5064  130.8415  151.2629 H   0  0  0  0  0  0  0  0  0  0  0  0  # atno 10718 bound_to 10713
  153.1098  135.6694  153.9521 H   0  0  0  0  0  0  0  0  0  0  0  0  # atno 10763 bound_to 10752
  153.9067  135.3029  155.3450 H   0  0  0  0  0  0  0  0  0  0  0  0  # atno 10764 bound_to 10752
  154.7518  135.5031  153.9380 H   0  0  0  0  0  0  0  0  0  0  0  0  # atno 10765 bound_to 10752
  140.6402  133.9496  155.8322 H   0  0  0  0  0  0  0  0  0  0  0  0  # atno 11005 bound_to 11000
  146.1519  140.6913  142.9318 LP  0  0  0  0  0  0  0  0  0  0  0  0  # atno 17320 bound_to 7965
  144.7278  140.4579  143.6960 LP  0  0  0  0  0  0  0  0  0  0  0  0  # atno 17321 bound_to 7965
  140.0102  143.5651  152.2842 LP  0  0  0  0  0  0  0  0  0  0  0  0  # atno 17342 bound_to 10162
  139.6372  144.7651  151.2413 LP  0  0  0  0  0  0  0  0  0  0  0  0  # atno 17343 bound_to 10162
  157.7456  130.9964  150.2779 LP  0  0  0  0  0  0  0  0  0  0  0  0  # atno 17370 bound_to 10713
  156.3283  130.3796  149.7514 LP  0  0  0  0  0  0  0  0  0  0  0  0  # atno 17371 bound_to 10713
  141.0612  134.0343  157.3655 LP  0  0  0  0  0  0  0  0  0  0  0  0  # atno 17394 bound_to 11000
  139.9083  135.0185  156.7582 LP  0  0  0  0  0  0  0  0  0  0  0  0  # atno 17395 bound_to 11000

$$$$
