AV-unprocessed.smi:2253|AV-procd|sdf|9120|dock5
  -GOLD-   2272012323D 1   1.00000     0.00000
 Structure written by MMmdl.
 51 53  0  0  0  0  0  0  0  0  2 V2000
  146.0575  134.2864  155.9305 C   0  0  0  0  0  0  0  0  0  0  0  0
  145.5190  135.2900  154.9876 N   0  3  2  0  0  0  0  0  0  0  0  0
  146.5430  135.7649  154.0245 C   0  0  0  0  0  0  0  0  0  0  0  0
  145.9375  136.7524  153.0104 C   0  0  0  0  0  0  0  0  0  0  0  0
  145.2873  137.9735  153.7105 C   0  0  2  0  0  0  0  0  0  0  0  0
  146.2604  138.8720  154.3742 N   0  0  0  0  0  0  0  0  0  0  0  0
  145.5852  140.0012  155.0361 C   0  0  0  0  0  0  0  0  0  0  0  0
  146.5779  140.8890  155.8058 C   0  0  0  0  0  0  0  0  0  0  0  0
  147.6485  141.4581  154.8680 C   0  0  0  0  0  0  0  0  0  0  0  0
  148.6586  142.2035  155.6135 N   0  0  0  0  0  0  0  0  0  0  0  0
  149.4480  141.6897  156.5680 C   0  0  0  0  0  0  0  0  0  0  0  0
  149.4052  140.5101  156.9154 O   0  0  0  0  0  0  0  0  0  0  0  0
  150.2653  142.6293  157.0751 N   0  0  0  0  0  0  0  0  0  0  0  0
  151.2354  142.5298  158.1122 C   0  0  0  0  0  0  0  0  0  0  0  0
  151.4991  141.3592  158.8659 C   0  0  0  0  0  0  0  0  0  0  0  0
  152.4937  141.4074  159.8636 C   0  0  0  0  0  0  0  0  0  0  0  0
  153.2172  142.5122  160.1417 N   0  0  0  0  0  0  0  0  0  0  0  0
  152.9683  143.6240  159.4187 C   0  0  0  0  0  0  0  0  0  0  0  0
  151.9963  143.6833  158.4000 C   0  0  0  0  0  0  0  0  0  0  0  0
  151.7986  144.8341  157.7123 F   0  0  0  0  0  0  0  0  0  0  0  0
  148.2977  140.2899  154.1221 C   0  0  0  0  0  0  0  0  0  0  0  0
  147.2386  139.4216  153.4202 C   0  0  0  0  0  0  0  0  0  0  0  0
  144.2211  137.3976  154.6777 C   0  0  0  0  0  0  0  0  0  0  0  0
  144.8361  136.4082  155.6839 C   0  0  0  0  0  0  0  0  0  0  0  0
  146.8367  134.7192  156.5594 H   0  0  0  0  0  0  0  0  0  0  0  0
  146.4845  133.4406  155.3907 H   0  0  0  0  0  0  0  0  0  0  0  0
  145.2683  133.9034  156.5781 H   0  0  0  0  0  0  0  0  0  0  0  0
  147.3664  136.2357  154.5638 H   0  0  0  0  0  0  0  0  0  0  0  0
  146.9614  134.9094  153.4927 H   0  0  0  0  0  0  0  0  0  0  0  0
  146.6682  137.0298  152.2537 H   0  0  0  0  0  0  0  0  0  0  0  0
  145.1644  136.2283  152.4466 H   0  0  0  0  0  0  0  0  0  0  0  0
  144.7734  138.5630  152.9494 H   0  0  0  0  0  0  0  0  0  0  0  0
  145.0387  140.5936  154.3004 H   0  0  0  0  0  0  0  0  0  0  0  0
  144.8611  139.6545  155.7683 H   0  0  0  0  0  0  0  0  0  0  0  0
  146.0376  141.7003  156.2949 H   0  0  0  0  0  0  0  0  0  0  0  0
  147.0456  140.3062  156.6010 H   0  0  0  0  0  0  0  0  0  0  0  0
  147.1762  142.1173  154.1368 H   0  0  0  0  0  0  0  0  0  0  0  0
  148.7578  143.1828  155.3899 H   0  0  0  0  0  0  0  0  0  0  0  0
  150.1589  143.5550  156.6867 H   0  0  0  0  0  0  0  0  0  0  0  0
  150.9747  140.4309  158.7064 H   0  0  0  0  0  0  0  0  0  0  0  0
  152.7153  140.5306  160.4536 H   0  0  0  0  0  0  0  0  0  0  0  0
  153.5618  144.4937  159.6588 H   0  0  0  0  0  0  0  0  0  0  0  0
  149.0085  140.6673  153.3858 H   0  0  0  0  0  0  0  0  0  0  0  0
  148.8702  139.6718  154.8159 H   0  0  0  0  0  0  0  0  0  0  0  0
  147.7867  138.6274  152.9200 H   0  0  0  0  0  0  0  0  0  0  0  0
  146.7261  139.9968  152.6474 H   0  0  0  0  0  0  0  0  0  0  0  0
  143.6466  138.1645  155.1924 H   0  0  0  0  0  0  0  0  0  0  0  0
  143.4747  136.8634  154.0879 H   0  0  0  0  0  0  0  0  0  0  0  0
  144.0499  136.0070  156.3245 H   0  0  0  0  0  0  0  0  0  0  0  0
  145.5426  136.9237  156.3365 H   0  0  0  0  0  0  0  0  0  0  0  0
  144.8110  134.8198  154.4417 H   0  0  0  0  0  0  0  0  0  0  0  0
  1  2  1  0  0  0  0
  1 25  1  0  0  0  0
  1 26  1  0  0  0  0
  1 27  1  0  0  0  0
  2 24  1  0  0  0  0
  2  3  1  0  0  0  0
  2 51  1  0  0  0  0
  3  4  1  0  0  0  0
  3 28  1  0  0  0  0
  3 29  1  0  0  0  0
  4  5  1  0  0  0  0
  4 30  1  0  0  0  0
  4 31  1  0  0  0  0
  5  6  1  0  0  0  0
  5 23  1  0  0  0  0
  5 32  1  0  0  0  0
  6 22  1  0  0  0  0
  6  7  1  0  0  0  0
  7  8  1  0  0  0  0
  7 33  1  0  0  0  0
  7 34  1  0  0  0  0
  8  9  1  0  0  0  0
  8 35  1  0  0  0  0
  8 36  1  0  0  0  0
  9 10  1  0  0  0  0
  9 21  1  0  0  0  0
  9 37  1  0  0  0  0
 10 11  1  0  0  0  0
 10 38  1  0  0  0  0
 11 12  2  0  0  0  0
 11 13  1  0  0  0  0
 13 14  1  0  0  0  0
 13 39  1  0  0  0  0
 14 19  1  0  0  0  0
 14 15  2  0  0  0  0
 15 16  1  0  0  0  0
 15 40  1  0  0  0  0
 16 17  2  0  0  0  0
 16 41  1  0  0  0  0
 17 18  1  0  0  0  0
 18 19  2  0  0  0  0
 18 42  1  0  0  0  0
 19 20  1  0  0  0  0
 21 22  1  0  0  0  0
 21 43  1  0  0  0  0
 21 44  1  0  0  0  0
 22 45  1  0  0  0  0
 22 46  1  0  0  0  0
 23 24  1  0  0  0  0
 23 47  1  0  0  0  0
 23 48  1  0  0  0  0
 24 49  1  0  0  0  0
 24 50  1  0  0  0  0
M  CHG  1   2   1
M  END
> <s_m_source_file>
AV-unprocessed.smi

> <i_m_source_file_index>
2253

> <i_lp_mmshare_version>
43012

> <i_f3d_flags>
0

> <s_epik_input>
W0NIM11OMVtDSDJdW0NIMl1bQ0hdKFtDSDJdW0NIMl0xKU4yW0NIMl1bQ0gyXVtDSF0oW0NIMl1bQ0gyXTIpW05IXUMoPU8pW05IXWMzW2NIXVtjSF1uW2NIXWMzRg==

> <s_epik_cmdline>
J2VwaWtfcHl0aG9uJywgJy1waCcsICc3LjAnLCAnLXRuJywgJzgnLCAnLW1hJywgJzIwMCcsICctbWV0YWxfYmluZGluZycsICctaW1hZScsICc8aW5maWxlLm1hZT4nLCAnLW9tYWUnLCAnPG91dGZpbGUubWFlPic=

> <r_epik_Ionization_Penalty>
1.01315

> <r_epik_Ionization_Penalty_Charging>
0.000974969

> <r_epik_Ionization_Penalty_Neutral>
1.01217

> <r_epik_State_Penalty>
1.10286

> <r_epik_Charging_Adjusted_Penalty>
1.10383

> <i_epik_Tot_Q>
1

> <i_epik_Tot_abs_Q>
1

> <r_epik_Metal_State_Penalty>
1.10232

> <b_epik_Metal_Only>
0

> <s_lp_Force_Field>
OPLS_2005

> <r_lp_Energy>
40.3277

> <b_lp_Chiralities_Consistent>
1

> <s_lp_Variant>
AV-unprocessed.smi:2253-6

> <Gold.Version>
5.8.1

> <Gold.Id.Protein>
6NUR|6NUR_protein|mol2

> <Gold.PLP.Fitness>
37.2888

> <Gold.PLP.PLP>
-31.7251

> <Gold.PLP.part.hbond>
-2.0000

> <Gold.PLP.part.metal>
0.0000

> <Gold.PLP.part.buried>
-4.3402

> <Gold.PLP.part.nonpolar>
-25.7477

> <Gold.PLP.part.repulsive>
0.2763

> <Gold.PLP.ligand.clash>
0.0000

> <Gold.PLP.ligand.torsion>
0.0037

> <Gold.PLP.Chemscore.Hbond>
1.8564

> <Gold.PLP.Chemscore.CHOScore>
0.0000

> <Gold.PLP.Chemscore.Metal>
0.0000

> <Gold.Chemscore.Hbonds>
donor molecule, donor type, donor heavy atom, donor atom, acceptor molecule, acceptor atom, score
      L1  H    10    38       P1  8028  1.00
      L1  H    13    39       P1  8028  0.88

> <Gold.PLP.Chemscore.Internal.Correction>
0.0018

> <Gold.Rescore>
     Score         DG    S(hbond)    S(metal)    S(lipo)     H(rot)  DE(clash)    DE(int)     intcor
     16.06     -18.42       1.91        0.00      83.39       1.24       0.07       2.29       ----

> <Gold.Chemscore.Fitness>
16.0564

> <Gold.Chemscore.DG>
-18.4243

> <Gold.Chemscore.ZeroCoef>
-5.4800

> <Gold.Chemscore.Hbond>
1.9080

> <Gold.Chemscore.Metal>
0.0000

> <Gold.Chemscore.Lipo>
83.3869

> <Gold.Chemscore.Internal_Hbond>
0.0000

> <Gold.Chemscore.DEClash>
0.0743

> <Gold.Chemscore.DEInternal>
2.2935

> <Gold.Chemscore.Rot>
1.2440

> <Gold.Chemscore.Internal.Correction>
   9.000000E+99

> <Gold.Chemscore.Hbonds>
donor molecule, donor type, donor heavy atom, donor atom, acceptor molecule, acceptor atom, score
      L1  H    10    38       P1  8028  0.94
      L1  H    13    39       P1  8028  0.83

> <Gold.Chemscore.Hbond.Weighted>
-6.3727

> <Gold.Chemscore.Metal.Weighted>
-0.0000

> <Gold.Chemscore.Lipo.Weighted>
-9.7563

> <Gold.Chemscore.Internal_Hbond.Weighted>
0.0000

> <Gold.Chemscore.DEClash.Weighted>
0.0743

> <Gold.Chemscore.DEInternal.Weighted>
2.2935

> <Gold.Chemscore.Rot.Weighted>
3.1847

> <Gold.Chemscore.Internal.Correction.Weighted>
   9.000000E+99

> <Gold.Protein.RotatedTorsions>
[ 6907 6896 6895 6894 ] final -174.96 input  -60.11 | X-H torsion
[ 7974 7965 7964 7962 ] final  -70.26 input  175.53 | X-H torsion
[ 8008 7997 7996 7995 ] final  149.92 input   59.86 | X-H torsion
[ 10167 10162 10161 10158 ] final -173.06 input  -65.29 | X-H torsion
[ 10718 10713 10712 10709 ] final   -7.98 input   66.30 | X-H torsion
[ 10763 10752 10751 10750 ] final -111.15 input  -60.55 | X-H torsion
[ 11005 11000 10999 10996 ] final   -8.24 input  -57.11 | X-H torsion

> <Gold.Protein.ActiveResidues>
 VAL166  LYS551  ARG553  GLY616  TRP617  ASP618  TYR619  PRO620  LYS621  CYS622 
 ASP623  PHE694  ASN695  SER759  ASP760  ASP761  ALA762  ILE779  LEU786  VAL792 
 PHE793  MET794  SER795  GLU796  ALA797  LYS798  CYS799  TRP800  GLU811  SER814 

> <Gold.Protein.RotatedAtoms>
  151.5808  133.3378  159.3007 H   0  0  0  0  0  0  0  0  0  0  0  0  # atno 6907 bound_to 6896
  150.8315  134.7573  159.6868 H   0  0  0  0  0  0  0  0  0  0  0  0  # atno 6908 bound_to 6896
  152.4397  134.5621  159.9949 H   0  0  0  0  0  0  0  0  0  0  0  0  # atno 6909 bound_to 6896
  145.6933  140.9145  143.0770 H   0  0  0  0  0  0  0  0  0  0  0  0  # atno 7974 bound_to 7965
  156.2736  140.2088  156.5935 H   0  0  0  0  0  0  0  0  0  0  0  0  # atno 8008 bound_to 7997
  154.6963  140.0525  157.0437 H   0  0  0  0  0  0  0  0  0  0  0  0  # atno 8009 bound_to 7997
  155.0796  140.3185  155.4608 H   0  0  0  0  0  0  0  0  0  0  0  0  # atno 8010 bound_to 7997
  139.5709  144.1644  152.1382 H   0  0  0  0  0  0  0  0  0  0  0  0  # atno 10167 bound_to 10162
  156.7093  130.5117  149.5896 H   0  0  0  0  0  0  0  0  0  0  0  0  # atno 10718 bound_to 10713
  154.8285  135.4538  154.0995 H   0  0  0  0  0  0  0  0  0  0  0  0  # atno 10763 bound_to 10752
  153.2288  135.6903  153.7920 H   0  0  0  0  0  0  0  0  0  0  0  0  # atno 10764 bound_to 10752
  153.7310  135.3327  155.3262 H   0  0  0  0  0  0  0  0  0  0  0  0  # atno 10765 bound_to 10752
  140.7214  133.8825  155.8823 H   0  0  0  0  0  0  0  0  0  0  0  0  # atno 11005 bound_to 11000
  144.6990  139.8850  143.7449 LP  0  0  0  0  0  0  0  0  0  0  0  0  # atno 17320 bound_to 7965
  146.0863  139.3851  143.0433 LP  0  0  0  0  0  0  0  0  0  0  0  0  # atno 17321 bound_to 7965
  140.1176  144.5401  150.6883 LP  0  0  0  0  0  0  0  0  0  0  0  0  # atno 17342 bound_to 10162
  140.6993  143.2424  151.4909 LP  0  0  0  0  0  0  0  0  0  0  0  0  # atno 17343 bound_to 10162
  156.1673  130.6413  151.0793 LP  0  0  0  0  0  0  0  0  0  0  0  0  # atno 17370 bound_to 10713
  157.6942  131.0799  150.7017 LP  0  0  0  0  0  0  0  0  0  0  0  0  # atno 17371 bound_to 10713
  141.0000  134.1163  157.4326 LP  0  0  0  0  0  0  0  0  0  0  0  0  # atno 17394 bound_to 11000
  139.8847  135.0065  156.6388 LP  0  0  0  0  0  0  0  0  0  0  0  0  # atno 17395 bound_to 11000

$$$$
