AV-unprocessed.smi:1240|AV-procd|sdf|5196|dock7
  -GOLD-   22720 4283D 1   1.00000     0.00000
 Structure written by MMmdl.
 47 49  0  0  0  0  0  0  0  0  1 V2000
  144.9082  135.7405  153.4605 O   0  0  0  0  0  0  0  0  0  0  0  0
  146.0272  135.6807  152.9520 C   0  0  0  0  0  0  0  0  0  0  0  0
  147.0477  136.4718  153.3128 N   0  0  0  0  0  0  0  0  0  0  0  0
  146.9996  137.5084  154.3407 C   0  0  0  0  0  0  0  0  0  0  0  0
  148.2257  138.4564  154.2540 C   0  0  1  0  0  0  0  0  0  0  0  0
  147.8637  139.9312  154.6170 C   0  0  2  0  0  0  0  0  0  0  0  0
  146.5251  140.4619  154.0944 C   0  0  0  0  0  0  0  0  0  0  0  0
  146.8899  141.7862  153.4254 C   0  0  0  0  0  0  0  0  0  0  0  0
  148.0778  142.1896  154.0859 O   0  0  0  0  0  0  0  0  0  0  0  0
  148.8763  141.0282  154.2460 C   0  0  0  0  0  0  0  0  0  0  0  0
  149.4594  137.9364  154.8795 N   0  0  0  0  0  0  0  0  0  0  0  0
  150.6769  138.5606  154.3651 C   0  0  0  0  0  0  0  0  0  0  0  0
  151.9238  138.1039  155.1397 C   0  0  0  0  0  0  0  0  0  0  0  0
  152.0216  136.6852  155.0783 O   0  0  0  0  0  0  0  0  0  0  0  0
  150.8781  136.0345  155.6218 C   0  0  0  0  0  0  0  0  0  0  0  0
  149.6093  136.4824  154.8746 C   0  0  0  0  0  0  0  0  0  0  0  0
  146.3911  134.8474  151.9616 N   0  0  0  0  0  0  0  0  0  0  0  0
  145.6208  133.8521  151.3000 C   0  0  0  0  0  0  0  0  0  0  0  0
  146.3160  132.8770  150.5550 C   0  0  0  0  0  0  0  0  0  0  0  0
  145.5809  131.8685  149.9007 C   0  0  0  0  0  0  0  0  0  0  0  0
  144.2355  131.7784  149.9543 N   0  0  0  0  0  0  0  0  0  0  0  0
  143.5718  132.7047  150.6775 C   0  0  0  0  0  0  0  0  0  0  0  0
  144.2098  133.7537  151.3696 C   0  0  0  0  0  0  0  0  0  0  0  0
  147.9292  136.3526  152.8354 H   0  0  0  0  0  0  0  0  0  0  0  0
  146.0745  138.0826  154.2791 H   0  0  0  0  0  0  0  0  0  0  0  0
  146.9713  136.9899  155.2977 H   0  0  0  0  0  0  0  0  0  0  0  0
  148.4586  138.5152  153.1895 H   0  0  0  0  0  0  0  0  0  0  0  0
  147.7861  139.9699  155.7048 H   0  0  0  0  0  0  0  0  0  0  0  0
  146.0080  139.7982  153.4025 H   0  0  0  0  0  0  0  0  0  0  0  0
  145.8486  140.6400  154.9313 H   0  0  0  0  0  0  0  0  0  0  0  0
  147.0983  141.6397  152.3646 H   0  0  0  0  0  0  0  0  0  0  0  0
  146.1032  142.5351  153.5185 H   0  0  0  0  0  0  0  0  0  0  0  0
  149.6250  141.1824  155.0230 H   0  0  0  0  0  0  0  0  0  0  0  0
  149.4081  140.8250  153.3188 H   0  0  0  0  0  0  0  0  0  0  0  0
  150.8164  138.3109  153.3136 H   0  0  0  0  0  0  0  0  0  0  0  0
  150.5939  139.6462  154.4243 H   0  0  0  0  0  0  0  0  0  0  0  0
  152.8223  138.5428  154.7054 H   0  0  0  0  0  0  0  0  0  0  0  0
  151.8767  138.4303  156.1797 H   0  0  0  0  0  0  0  0  0  0  0  0
  151.0069  134.9556  155.5357 H   0  0  0  0  0  0  0  0  0  0  0  0
  150.7962  136.2623  156.6858 H   0  0  0  0  0  0  0  0  0  0  0  0
  148.7605  136.0119  155.3632 H   0  0  0  0  0  0  0  0  0  0  0  0
  149.6432  136.1099  153.8504 H   0  0  0  0  0  0  0  0  0  0  0  0
  147.3268  134.9716  151.6042 H   0  0  0  0  0  0  0  0  0  0  0  0
  147.3935  132.8994  150.4791 H   0  0  0  0  0  0  0  0  0  0  0  0
  146.0885  131.1126  149.3200 H   0  0  0  0  0  0  0  0  0  0  0  0
  142.4971  132.6038  150.7116 H   0  0  0  0  0  0  0  0  0  0  0  0
  143.6085  134.4437  151.9405 H   0  0  0  0  0  0  0  0  0  0  0  0
  1  2  2  0  0  0  0
  2  3  1  0  0  0  0
  2 17  1  0  0  0  0
  3  4  1  0  0  0  0
  3 24  1  0  0  0  0
  4  5  1  0  0  0  0
  4 25  1  0  0  0  0
  4 26  1  0  0  0  0
  5  6  1  0  0  0  0
  5 11  1  0  0  0  0
  5 27  1  0  0  0  0
  6 10  1  0  0  0  0
  6  7  1  0  0  0  0
  6 28  1  0  0  0  0
  7  8  1  0  0  0  0
  7 29  1  0  0  0  0
  7 30  1  0  0  0  0
  8  9  1  0  0  0  0
  8 31  1  0  0  0  0
  8 32  1  0  0  0  0
  9 10  1  0  0  0  0
 10 33  1  0  0  0  0
 10 34  1  0  0  0  0
 11 16  1  0  0  0  0
 11 12  1  0  0  0  0
 12 13  1  0  0  0  0
 12 35  1  0  0  0  0
 12 36  1  0  0  0  0
 13 14  1  0  0  0  0
 13 37  1  0  0  0  0
 13 38  1  0  0  0  0
 14 15  1  0  0  0  0
 15 16  1  0  0  0  0
 15 39  1  0  0  0  0
 15 40  1  0  0  0  0
 16 41  1  0  0  0  0
 16 42  1  0  0  0  0
 17 18  1  0  0  0  0
 17 43  1  0  0  0  0
 18 23  1  0  0  0  0
 18 19  2  0  0  0  0
 19 20  1  0  0  0  0
 19 44  1  0  0  0  0
 20 21  2  0  0  0  0
 20 45  1  0  0  0  0
 21 22  1  0  0  0  0
 22 23  2  0  0  0  0
 22 46  1  0  0  0  0
 23 47  1  0  0  0  0
M  END
> <s_m_source_file>
AV-unprocessed.smi

> <i_m_source_file_index>
1240

> <i_lp_mmshare_version>
43012

> <i_f3d_flags>
0

> <s_epik_input>
W2NIXTFbY0hdbltjSF1bY0hdYzFbTkhdQyg9TylbTkhdW0NIMl1bQ0BIXShbQ0BASF0yW0NIMl1bQ0gyXU9bQ0gyXTIpTjNbQ0gyXVtDSDJdT1tDSDJdW0NIMl0z

> <s_epik_cmdline>
J2VwaWtfcHl0aG9uJywgJy1waCcsICc3LjAnLCAnLXRuJywgJzgnLCAnLW1hJywgJzIwMCcsICctbWV0YWxfYmluZGluZycsICctaW1hZScsICc8aW5maWxlLm1hZT4nLCAnLW9tYWUnLCAnPG91dGZpbGUubWFlPic=

> <r_epik_Ionization_Penalty>
0.238664

> <r_epik_Ionization_Penalty_Charging>
0

> <r_epik_Ionization_Penalty_Neutral>
0.238664

> <r_epik_State_Penalty>
0.217087

> <r_epik_Charging_Adjusted_Penalty>
0.217087

> <i_epik_Tot_Q>
0

> <i_epik_Tot_abs_Q>
0

> <r_epik_Metal_State_Penalty>
0.199194

> <b_epik_Metal_Only>
0

> <s_lp_Force_Field>
OPLS_2005

> <r_lp_Energy>
59.2824

> <b_lp_Chiralities_Consistent>
1

> <s_lp_Variant>
AV-unprocessed.smi:1240-2

> <Gold.Version>
5.8.1

> <Gold.Id.Protein>
6NUR|6NUR_protein|mol2

> <Gold.PLP.Fitness>
44.3594

> <Gold.PLP.PLP>
-34.4502

> <Gold.PLP.part.hbond>
-4.4580

> <Gold.PLP.part.metal>
0.0000

> <Gold.PLP.part.buried>
-6.7502

> <Gold.PLP.part.nonpolar>
-26.5704

> <Gold.PLP.part.repulsive>
1.2333

> <Gold.PLP.ligand.clash>
0.0000

> <Gold.PLP.ligand.torsion>
1.0268

> <Gold.PLP.Chemscore.Hbond>
3.0083

> <Gold.PLP.Chemscore.CHOScore>
0.8549

> <Gold.PLP.Chemscore.Metal>
0.0000

> <Gold.Chemscore.Hbonds>
donor molecule, donor type, donor heavy atom, donor atom, acceptor molecule, acceptor atom, score
      L1  H     3    24       P1  7948  0.71
      L1  H    17    43       P1  7948  0.82
      P1  H 10752 10765       L1    14  0.91
      P1  H 10785 10796       L1    21  0.26
      L1  C    22    46       P1 10186  0.63

> <Gold.PLP.Chemscore.Internal.Correction>
0.3734

> <Gold.Rescore>
     Score         DG    S(hbond)    S(metal)    S(lipo)     H(rot)  DE(clash)    DE(int)     intcor
     18.31     -21.51       2.89        0.00      90.72       1.65       0.02       3.19       ----

> <Gold.Chemscore.Fitness>
18.3056

> <Gold.Chemscore.DG>
-21.5090

> <Gold.Chemscore.ZeroCoef>
-5.4800

> <Gold.Chemscore.Hbond>
2.8866

> <Gold.Chemscore.Metal>
0.0000

> <Gold.Chemscore.Lipo>
90.7171

> <Gold.Chemscore.Internal_Hbond>
0.0000

> <Gold.Chemscore.DEClash>
0.0156

> <Gold.Chemscore.DEInternal>
3.1879

> <Gold.Chemscore.Rot>
1.6508

> <Gold.Chemscore.Internal.Correction>
   9.000000E+99

> <Gold.Chemscore.Hbonds>
donor molecule, donor type, donor heavy atom, donor atom, acceptor molecule, acceptor atom, score
      L1  H     3    24       P1  7948  0.71
      L1  H    17    43       P1  7948  0.57
      P1  H 10752 10765       L1    14  0.53
      P1  H 10785 10796       L1    21  0.25

> <Gold.Chemscore.Hbond.Weighted>
-9.6413

> <Gold.Chemscore.Metal.Weighted>
-0.0000

> <Gold.Chemscore.Lipo.Weighted>
-10.6139

> <Gold.Chemscore.Internal_Hbond.Weighted>
0.0000

> <Gold.Chemscore.DEClash.Weighted>
0.0156

> <Gold.Chemscore.DEInternal.Weighted>
3.1879

> <Gold.Chemscore.Rot.Weighted>
4.2262

> <Gold.Chemscore.Internal.Correction.Weighted>
   9.000000E+99

> <Gold.Protein.RotatedTorsions>
[ 6907 6896 6895 6894 ] final   43.23 input  -60.11 | X-H torsion
[ 7974 7965 7964 7962 ] final  -37.75 input  175.53 | X-H torsion
[ 8008 7997 7996 7995 ] final   -3.72 input   59.86 | X-H torsion
[ 10167 10162 10161 10158 ] final   73.45 input  -65.29 | X-H torsion
[ 10718 10713 10712 10709 ] final   95.09 input   66.30 | X-H torsion
[ 10763 10752 10751 10750 ] final -179.17 input  -60.55 | X-H torsion
[ 11005 11000 10999 10996 ] final -145.71 input  -57.11 | X-H torsion

> <Gold.Protein.ActiveResidues>
 VAL166  LYS551  ARG553  GLY616  TRP617  ASP618  TYR619  PRO620  LYS621  CYS622 
 ASP623  PHE694  ASN695  SER759  ASP760  ASP761  ALA762  ILE779  LEU786  VAL792 
 PHE793  MET794  SER795  GLU796  ALA797  LYS798  CYS799  TRP800  GLU811  SER814 

> <Gold.Protein.RotatedAtoms>
  152.2177  134.8442  160.0489 H   0  0  0  0  0  0  0  0  0  0  0  0  # atno 6907 bound_to 6896
  151.9237  133.3587  159.3914 H   0  0  0  0  0  0  0  0  0  0  0  0  # atno 6908 bound_to 6896
  150.6992  134.4534  159.5391 H   0  0  0  0  0  0  0  0  0  0  0  0  # atno 6909 bound_to 6896
  146.0547  140.6432  142.9025 H   0  0  0  0  0  0  0  0  0  0  0  0  # atno 7974 bound_to 7965
  154.6218  140.2502  155.7540 H   0  0  0  0  0  0  0  0  0  0  0  0  # atno 8008 bound_to 7997
  156.2431  140.2925  156.0449 H   0  0  0  0  0  0  0  0  0  0  0  0  # atno 8009 bound_to 7997
  155.1884  140.0391  157.2886 H   0  0  0  0  0  0  0  0  0  0  0  0  # atno 8010 bound_to 7997
  140.0243  144.5516  150.7557 H   0  0  0  0  0  0  0  0  0  0  0  0  # atno 10167 bound_to 10162
  157.6942  131.0534  150.4285 H   0  0  0  0  0  0  0  0  0  0  0  0  # atno 10718 bound_to 10713
  154.5385  135.2804  155.1117 H   0  0  0  0  0  0  0  0  0  0  0  0  # atno 10763 bound_to 10752
  154.2609  135.6322  153.5278 H   0  0  0  0  0  0  0  0  0  0  0  0  # atno 10764 bound_to 10752
  152.9973  135.5605  154.5918 H   0  0  0  0  0  0  0  0  0  0  0  0  # atno 10765 bound_to 10752
  140.7895  134.2985  157.5018 H   0  0  0  0  0  0  0  0  0  0  0  0  # atno 11005 bound_to 11000
  144.7141  140.4148  143.7057 LP  0  0  0  0  0  0  0  0  0  0  0  0  # atno 17320 bound_to 7965
  145.6664  139.1591  143.2779 LP  0  0  0  0  0  0  0  0  0  0  0  0  # atno 17321 bound_to 7965
  140.7329  143.2711  151.3886 LP  0  0  0  0  0  0  0  0  0  0  0  0  # atno 17342 bound_to 10162
  139.6118  144.1082  152.2307 LP  0  0  0  0  0  0  0  0  0  0  0  0  # atno 17343 bound_to 10162
  156.4654  130.4041  149.6551 LP  0  0  0  0  0  0  0  0  0  0  0  0  # atno 17370 bound_to 10713
  156.3650  130.7501  151.2478 LP  0  0  0  0  0  0  0  0  0  0  0  0  # atno 17371 bound_to 10713
  139.8733  134.9366  156.3664 LP  0  0  0  0  0  0  0  0  0  0  0  0  # atno 17394 bound_to 11000
  140.9404  133.7518  156.0139 LP  0  0  0  0  0  0  0  0  0  0  0  0  # atno 17395 bound_to 11000

$$$$
