AV-unprocessed.smi:3350|AV-procd|sdf|12941|dock8
  -GOLD-   2272019373D 1   1.00000     0.00000
 Structure written by MMmdl.
 41 42  0  0  0  0  0  0  0  0  1 V2000
  150.5969  133.0810  155.4107 C   0  0  0  0  0  0  0  0  0  0  0  0
  149.3187  133.5574  154.7076 C   0  0  2  0  0  0  0  0  0  0  0  0
  148.9710  132.6590  153.5013 C   0  0  0  0  0  0  0  0  0  0  0  0
  147.6074  132.8484  153.0357 N   0  0  0  0  0  0  0  0  0  0  0  0
  147.1550  132.9861  151.7404 C   0  0  0  0  0  0  0  0  0  0  0  0
  145.7972  133.1192  151.7961 C   0  0  0  0  0  0  0  0  0  0  0  0
  145.5086  133.0556  153.1878 C   0  0  0  0  0  0  0  0  0  0  0  0
  146.5936  132.8955  153.9275 N   0  0  0  0  0  0  0  0  0  0  0  0
  149.4940  134.9462  154.2841 N   0  0  0  0  0  0  0  0  0  0  0  0
  150.0282  135.9239  155.0305 C   0  0  0  0  0  0  0  0  0  0  0  0
  150.5153  135.7530  156.1484 O   0  0  0  0  0  0  0  0  0  0  0  0
  149.9342  137.1158  154.4252 N   0  0  0  0  0  0  0  0  0  0  0  0
  150.3332  138.3942  155.0088 C   0  0  1  0  0  0  0  0  0  0  0  0
  151.8666  138.4848  154.9790 C   0  0  0  0  0  0  0  0  0  0  0  0
  149.6640  139.5567  154.2428 C   0  0  2  0  0  0  0  0  0  0  0  0
  149.7949  140.9266  154.9146 C   0  0  0  0  0  0  0  0  0  0  0  0
  148.5582  141.6878  154.4567 C   0  0  0  0  0  0  0  0  0  0  0  0
  147.7036  140.6280  153.7614 C   0  0  0  0  0  0  0  0  0  0  0  0
  148.2547  139.3923  154.1866 O   0  0  0  0  0  0  0  0  0  0  0  0
  150.4899  132.0549  155.7635 H   0  0  0  0  0  0  0  0  0  0  0  0
  150.8250  133.7034  156.2767 H   0  0  0  0  0  0  0  0  0  0  0  0
  151.4561  133.1143  154.7395 H   0  0  0  0  0  0  0  0  0  0  0  0
  148.5077  133.4898  155.4349 H   0  0  0  0  0  0  0  0  0  0  0  0
  149.6608  132.8438  152.6757 H   0  0  0  0  0  0  0  0  0  0  0  0
  149.0862  131.6088  153.7723 H   0  0  0  0  0  0  0  0  0  0  0  0
  147.8289  132.9689  150.8966 H   0  0  0  0  0  0  0  0  0  0  0  0
  145.1138  133.2405  150.9691 H   0  0  0  0  0  0  0  0  0  0  0  0
  144.5488  133.1182  153.6791 H   0  0  0  0  0  0  0  0  0  0  0  0
  149.1218  135.1932  153.3791 H   0  0  0  0  0  0  0  0  0  0  0  0
  149.5112  137.1489  153.5094 H   0  0  0  0  0  0  0  0  0  0  0  0
  150.0190  138.4295  156.0537 H   0  0  0  0  0  0  0  0  0  0  0  0
  152.2210  139.3973  155.4589 H   0  0  0  0  0  0  0  0  0  0  0  0
  152.2453  138.4782  153.9563 H   0  0  0  0  0  0  0  0  0  0  0  0
  152.3189  137.6451  155.5071 H   0  0  0  0  0  0  0  0  0  0  0  0
  150.0488  139.6088  153.2221 H   0  0  0  0  0  0  0  0  0  0  0  0
  149.7733  140.8210  156.0001 H   0  0  0  0  0  0  0  0  0  0  0  0
  150.7225  141.4329  154.6463 H   0  0  0  0  0  0  0  0  0  0  0  0
  148.0361  142.1155  155.3132 H   0  0  0  0  0  0  0  0  0  0  0  0
  148.8058  142.5008  153.7737 H   0  0  0  0  0  0  0  0  0  0  0  0
  146.6467  140.7017  154.0178 H   0  0  0  0  0  0  0  0  0  0  0  0
  147.7985  140.7075  152.6776 H   0  0  0  0  0  0  0  0  0  0  0  0
  1  2  1  0  0  0  0
  1 20  1  0  0  0  0
  1 21  1  0  0  0  0
  1 22  1  0  0  0  0
  2  3  1  0  0  0  0
  2  9  1  0  0  0  0
  2 23  1  0  0  0  0
  3  4  1  0  0  0  0
  3 24  1  0  0  0  0
  3 25  1  0  0  0  0
  4  8  1  0  0  0  0
  4  5  1  0  0  0  0
  5  6  2  0  0  0  0
  5 26  1  0  0  0  0
  6  7  1  0  0  0  0
  6 27  1  0  0  0  0
  7  8  2  0  0  0  0
  7 28  1  0  0  0  0
  9 10  1  0  0  0  0
  9 29  1  0  0  0  0
 10 11  2  0  0  0  0
 10 12  1  0  0  0  0
 12 13  1  0  0  0  0
 12 30  1  0  0  0  0
 13 14  1  0  0  0  0
 13 15  1  0  0  0  0
 13 31  1  0  0  0  0
 14 32  1  0  0  0  0
 14 33  1  0  0  0  0
 14 34  1  0  0  0  0
 15 19  1  0  0  0  0
 15 16  1  0  0  0  0
 15 35  1  0  0  0  0
 16 17  1  0  0  0  0
 16 36  1  0  0  0  0
 16 37  1  0  0  0  0
 17 18  1  0  0  0  0
 17 38  1  0  0  0  0
 17 39  1  0  0  0  0
 18 19  1  0  0  0  0
 18 40  1  0  0  0  0
 18 41  1  0  0  0  0
M  END
> <s_m_source_file>
AV-unprocessed.smi

> <i_m_source_file_index>
3350

> <i_lp_mmshare_version>
43012

> <i_f3d_flags>
0

> <s_epik_input>
bjFbY0hdW2NIXVtjSF1uMVtDSDJdW0NAQEhdKFtDSDNdKVtOSF1DKD1PKVtOSF1bQ0BIXShbQ0gzXSlbQ0BASF0yW0NIMl1bQ0gyXVtDSDJdTzI=

> <s_epik_cmdline>
J2VwaWtfcHl0aG9uJywgJy1waCcsICc3LjAnLCAnLXRuJywgJzgnLCAnLW1hJywgJzIwMCcsICctbWV0YWxfYmluZGluZycsICctaW1hZScsICc8aW5maWxlLm1hZT4nLCAnLW9tYWUnLCAnPG91dGZpbGUubWFlPic=

> <r_lp_tautomer_probability>
1

> <r_epik_Ionization_Penalty>
6.42349e-05

> <r_epik_Ionization_Penalty_Charging>
0

> <r_epik_Ionization_Penalty_Neutral>
6.42349e-05

> <r_epik_State_Penalty>
-0

> <r_epik_Charging_Adjusted_Penalty>
0

> <i_epik_Tot_Q>
0

> <i_epik_Tot_abs_Q>
0

> <r_epik_Metal_State_Penalty>
-0

> <b_epik_Metal_Only>
0

> <s_lp_Force_Field>
OPLS_2005

> <r_lp_Energy>
14.9436

> <b_lp_Chiralities_Consistent>
1

> <s_lp_Variant>
AV-unprocessed.smi:3350-3

> <Gold.Version>
5.8.1

> <Gold.Id.Protein>
6NUR|6NUR_protein|mol2

> <Gold.PLP.Fitness>
43.4823

> <Gold.PLP.PLP>
-33.5160

> <Gold.PLP.part.hbond>
-2.0000

> <Gold.PLP.part.metal>
0.0000

> <Gold.PLP.part.buried>
-0.8356

> <Gold.PLP.part.nonpolar>
-30.5346

> <Gold.PLP.part.repulsive>
0.3180

> <Gold.PLP.ligand.clash>
0.0000

> <Gold.PLP.ligand.torsion>
0.7540

> <Gold.PLP.Chemscore.Hbond>
1.9920

> <Gold.PLP.Chemscore.CHOScore>
1.8139

> <Gold.PLP.Chemscore.Metal>
0.0000

> <Gold.Chemscore.Hbonds>
donor molecule, donor type, donor heavy atom, donor atom, acceptor molecule, acceptor atom, score
      L1  H     9    29       P1  7948  1.00
      L1  H    12    30       P1  7948  0.99
      L1  C     5    26       P1 10747  0.81
      L1  C     7    28       P1 10957  0.92

> <Gold.PLP.Chemscore.Internal.Correction>
0.0566

> <Gold.Rescore>
     Score         DG    S(hbond)    S(metal)    S(lipo)     H(rot)  DE(clash)    DE(int)     intcor
     12.23     -14.34       1.51        0.00      72.51       1.82       0.01       2.10       ----

> <Gold.Chemscore.Fitness>
12.2256

> <Gold.Chemscore.DG>
-14.3418

> <Gold.Chemscore.ZeroCoef>
-5.4800

> <Gold.Chemscore.Hbond>
1.5081

> <Gold.Chemscore.Metal>
0.0000

> <Gold.Chemscore.Lipo>
72.5066

> <Gold.Chemscore.Internal_Hbond>
0.0000

> <Gold.Chemscore.DEClash>
0.0126

> <Gold.Chemscore.DEInternal>
2.1036

> <Gold.Chemscore.Rot>
1.8197

> <Gold.Chemscore.Internal.Correction>
   9.000000E+99

> <Gold.Chemscore.Hbonds>
donor molecule, donor type, donor heavy atom, donor atom, acceptor molecule, acceptor atom, score
      L1  H     9    29       P1  7948  0.29
      L1  H    12    30       P1  7948  0.82

> <Gold.Chemscore.Hbond.Weighted>
-5.0369

> <Gold.Chemscore.Metal.Weighted>
-0.0000

> <Gold.Chemscore.Lipo.Weighted>
-8.4833

> <Gold.Chemscore.Internal_Hbond.Weighted>
0.0000

> <Gold.Chemscore.DEClash.Weighted>
0.0126

> <Gold.Chemscore.DEInternal.Weighted>
2.1036

> <Gold.Chemscore.Rot.Weighted>
4.6583

> <Gold.Chemscore.Internal.Correction.Weighted>
   9.000000E+99

> <Gold.Protein.RotatedTorsions>
[ 6907 6896 6895 6894 ] final  -52.58 input  -60.11 | X-H torsion
[ 7974 7965 7964 7962 ] final  -14.06 input  175.53 | X-H torsion
[ 8008 7997 7996 7995 ] final   57.35 input   59.86 | X-H torsion
[ 10167 10162 10161 10158 ] final -176.13 input  -65.29 | X-H torsion
[ 10718 10713 10712 10709 ] final  158.74 input   66.30 | X-H torsion
[ 10763 10752 10751 10750 ] final  -64.72 input  -60.55 | X-H torsion
[ 11005 11000 10999 10996 ] final -151.53 input  -57.11 | X-H torsion

> <Gold.Protein.ActiveResidues>
 VAL166  LYS551  ARG553  GLY616  TRP617  ASP618  TYR619  PRO620  LYS621  CYS622 
 ASP623  PHE694  ASN695  SER759  ASP760  ASP761  ALA762  ILE779  LEU786  VAL792 
 PHE793  MET794  SER795  GLU796  ALA797  LYS798  CYS799  TRP800  GLU811  SER814 

> <Gold.Protein.RotatedAtoms>
  150.8505  134.7828  159.7004 H   0  0  0  0  0  0  0  0  0  0  0  0  # atno 6907 bound_to 6896
  152.4571  134.5264  159.9808 H   0  0  0  0  0  0  0  0  0  0  0  0  # atno 6908 bound_to 6896
  151.5386  133.3398  159.2967 H   0  0  0  0  0  0  0  0  0  0  0  0  # atno 6909 bound_to 6896
  146.2089  140.3294  142.8397 H   0  0  0  0  0  0  0  0  0  0  0  0  # atno 7974 bound_to 7965
  155.5323  140.3482  155.4429 H   0  0  0  0  0  0  0  0  0  0  0  0  # atno 8008 bound_to 7997
  156.0709  140.1363  156.9856 H   0  0  0  0  0  0  0  0  0  0  0  0  # atno 8009 bound_to 7997
  154.4528  140.0966  156.6643 H   0  0  0  0  0  0  0  0  0  0  0  0  # atno 8010 bound_to 7997
  139.5545  144.2023  152.1136 H   0  0  0  0  0  0  0  0  0  0  0  0  # atno 10167 bound_to 10162
  157.1737  131.0616  151.2169 H   0  0  0  0  0  0  0  0  0  0  0  0  # atno 10718 bound_to 10713
  154.3342  135.6170  153.5566 H   0  0  0  0  0  0  0  0  0  0  0  0  # atno 10763 bound_to 10752
  152.9809  135.5754  154.4926 H   0  0  0  0  0  0  0  0  0  0  0  0  # atno 10764 bound_to 10752
  154.4618  135.2856  155.1684 H   0  0  0  0  0  0  0  0  0  0  0  0  # atno 10765 bound_to 10752
  140.7286  134.3646  157.5171 H   0  0  0  0  0  0  0  0  0  0  0  0  # atno 11005 bound_to 11000
  144.8863  140.7466  143.5954 LP  0  0  0  0  0  0  0  0  0  0  0  0  # atno 17320 bound_to 7965
  145.3215  139.1787  143.4585 LP  0  0  0  0  0  0  0  0  0  0  0  0  # atno 17321 bound_to 7965
  140.1525  144.5101  150.6679 LP  0  0  0  0  0  0  0  0  0  0  0  0  # atno 17342 bound_to 10162
  140.6815  143.2329  151.5371 LP  0  0  0  0  0  0  0  0  0  0  0  0  # atno 17343 bound_to 10162
  157.4019  130.7338  149.6773 LP  0  0  0  0  0  0  0  0  0  0  0  0  # atno 17370 bound_to 10713
  155.9734  130.4118  150.4002 LP  0  0  0  0  0  0  0  0  0  0  0  0  # atno 17371 bound_to 10713
  139.8831  134.9003  156.2786 LP  0  0  0  0  0  0  0  0  0  0  0  0  # atno 17394 bound_to 11000
  140.9941  133.7191  156.0858 LP  0  0  0  0  0  0  0  0  0  0  0  0  # atno 17395 bound_to 11000

$$$$
