AV-unprocessed.smi:17|AV-procd|sdf|102|dock4
  -GOLD-   2262015253D 1   1.00000     0.00000
 Structure written by MMmdl.
 57 59  0  0  0  0  0  0  0  0  1 V2000
  146.7765  137.0762  162.7357 C   0  0  0  0  0  0  0  0  0  0  0  0
  146.9748  135.5657  162.5450 C   0  0  0  0  0  0  0  0  0  0  0  0
  147.5169  135.2348  161.2238 N   0  0  0  0  0  0  0  0  0  0  0  0
  147.3893  136.1487  160.2233 C   0  0  0  0  0  0  0  0  0  0  0  0
  146.1360  136.5437  159.8752 N   0  0  0  0  0  0  0  0  0  0  0  0
  145.9498  137.4445  158.9073 C   0  0  0  0  0  0  0  0  0  0  0  0
  146.8630  138.0637  158.1591 N   0  0  0  0  0  0  0  0  0  0  0  0
  148.1236  137.6617  158.4859 C   0  0  0  0  0  0  0  0  0  0  0  0
  148.4763  136.7179  159.4940 C   0  0  0  0  0  0  0  0  0  0  0  0
  149.8579  136.5542  159.5130 N   0  0  0  0  0  0  0  0  0  0  0  0
  150.2944  137.3617  158.5864 C   0  0  0  0  0  0  0  0  0  0  0  0
  149.3193  138.0600  157.9141 N   0  0  0  0  0  0  0  0  0  0  0  0
  149.5266  139.0106  156.8353 C   0  0  0  0  0  0  0  0  0  0  0  0
  151.0135  139.4011  156.6470 C   0  0  1  0  0  0  0  0  0  0  0  0
  151.4912  139.2442  155.1824 C   0  0  0  0  0  0  0  0  0  0  0  0
  150.6102  139.8822  154.2808 O   0  0  0  0  0  0  0  0  0  0  0  0
  151.3118  140.8130  157.2121 C   0  0  1  0  0  0  0  0  0  0  0  0
  150.5731  141.9472  156.5235 C   0  0  0  0  0  0  0  0  0  0  0  0
  150.6922  143.0693  157.5472 C   0  0  0  0  0  0  0  0  0  0  0  0
  150.6416  142.4284  158.8161 O   0  0  0  0  0  0  0  0  0  0  0  0
  150.8688  141.0302  158.6639 C   0  0  0  0  0  0  0  0  0  0  0  0
  148.0832  133.9106  160.9426 C   0  0  2  0  0  0  0  0  0  0  0  0
  148.2918  133.7005  159.4334 C   0  0  0  0  0  0  0  0  0  0  0  0
  147.2578  132.7638  161.5656 C   0  0  0  0  0  0  0  0  0  0  0  0
  148.0383  131.0984  161.3475 S   0  0  0  0  0  0  0  0  0  0  0  0
  149.5282  131.2045  162.4232 C   0  0  0  0  0  0  0  0  0  0  0  0
  147.1384  130.0963  161.9380 O   0  0  0  0  0  0  0  0  0  0  0  0
  148.4860  130.9485  159.9544 O   0  0  0  0  0  0  0  0  0  0  0  0
  146.3479  137.2871  163.7155 H   0  0  0  0  0  0  0  0  0  0  0  0
  146.1020  137.4866  161.9843 H   0  0  0  0  0  0  0  0  0  0  0  0
  147.7218  137.6150  162.6669 H   0  0  0  0  0  0  0  0  0  0  0  0
  147.6201  135.1720  163.3304 H   0  0  0  0  0  0  0  0  0  0  0  0
  146.0145  135.0697  162.6793 H   0  0  0  0  0  0  0  0  0  0  0  0
  144.9222  137.7064  158.7030 H   0  0  0  0  0  0  0  0  0  0  0  0
  151.3456  137.4643  158.3595 H   0  0  0  0  0  0  0  0  0  0  0  0
  149.1253  138.5891  155.9130 H   0  0  0  0  0  0  0  0  0  0  0  0
  148.9234  139.8911  157.0568 H   0  0  0  0  0  0  0  0  0  0  0  0
  151.5991  138.6924  157.2346 H   0  0  0  0  0  0  0  0  0  0  0  0
  152.4874  139.6662  155.0521 H   0  0  0  0  0  0  0  0  0  0  0  0
  151.5746  138.1931  154.9061 H   0  0  0  0  0  0  0  0  0  0  0  0
  149.8226  140.1198  154.7460 H   0  0  0  0  0  0  0  0  0  0  0  0
  152.3821  141.0154  157.1437 H   0  0  0  0  0  0  0  0  0  0  0  0
  151.0015  142.2195  155.5584 H   0  0  0  0  0  0  0  0  0  0  0  0
  149.5245  141.6866  156.3728 H   0  0  0  0  0  0  0  0  0  0  0  0
  151.6554  143.5718  157.4492 H   0  0  0  0  0  0  0  0  0  0  0  0
  149.9065  143.8180  157.4434 H   0  0  0  0  0  0  0  0  0  0  0  0
  149.9310  140.5109  158.8662 H   0  0  0  0  0  0  0  0  0  0  0  0
  151.6103  140.6754  159.3801 H   0  0  0  0  0  0  0  0  0  0  0  0
  149.0671  133.8374  161.4015 H   0  0  0  0  0  0  0  0  0  0  0  0
  148.8030  132.7579  159.2374 H   0  0  0  0  0  0  0  0  0  0  0  0
  148.9004  134.4972  159.0051 H   0  0  0  0  0  0  0  0  0  0  0  0
  147.3439  133.6792  158.8951 H   0  0  0  0  0  0  0  0  0  0  0  0
  147.0430  132.9198  162.6221 H   0  0  0  0  0  0  0  0  0  0  0  0
  146.2933  132.7123  161.0600 H   0  0  0  0  0  0  0  0  0  0  0  0
  150.0218  130.2333  162.4482 H   0  0  0  0  0  0  0  0  0  0  0  0
  149.2323  131.4836  163.4341 H   0  0  0  0  0  0  0  0  0  0  0  0
  150.2237  131.9423  162.0297 H   0  0  0  0  0  0  0  0  0  0  0  0
  1  2  1  0  0  0  0
  1 29  1  0  0  0  0
  1 30  1  0  0  0  0
  1 31  1  0  0  0  0
  2  3  1  0  0  0  0
  2 32  1  0  0  0  0
  2 33  1  0  0  0  0
  3  4  1  0  0  0  0
  3 22  1  0  0  0  0
  4  9  1  0  0  0  0
  4  5  2  0  0  0  0
  5  6  1  0  0  0  0
  6  7  2  0  0  0  0
  6 34  1  0  0  0  0
  7  8  1  0  0  0  0
  8 12  1  0  0  0  0
  8  9  2  0  0  0  0
  9 10  1  0  0  0  0
 10 11  2  0  0  0  0
 11 12  1  0  0  0  0
 11 35  1  0  0  0  0
 12 13  1  0  0  0  0
 13 14  1  0  0  0  0
 13 36  1  0  0  0  0
 13 37  1  0  0  0  0
 14 15  1  0  0  0  0
 14 17  1  0  0  0  0
 14 38  1  0  0  0  0
 15 16  1  0  0  0  0
 15 39  1  0  0  0  0
 15 40  1  0  0  0  0
 16 41  1  0  0  0  0
 17 21  1  0  0  0  0
 17 18  1  0  0  0  0
 17 42  1  0  0  0  0
 18 19  1  0  0  0  0
 18 43  1  0  0  0  0
 18 44  1  0  0  0  0
 19 20  1  0  0  0  0
 19 45  1  0  0  0  0
 19 46  1  0  0  0  0
 20 21  1  0  0  0  0
 21 47  1  0  0  0  0
 21 48  1  0  0  0  0
 22 23  1  0  0  0  0
 22 24  1  0  0  0  0
 22 49  1  0  0  0  0
 23 50  1  0  0  0  0
 23 51  1  0  0  0  0
 23 52  1  0  0  0  0
 24 25  1  0  0  0  0
 24 53  1  0  0  0  0
 24 54  1  0  0  0  0
 25 26  1  0  0  0  0
 25 27  2  0  0  0  0
 25 28  2  0  0  0  0
 26 55  1  0  0  0  0
 26 56  1  0  0  0  0
 26 57  1  0  0  0  0
M  END
> <s_m_source_file>
AV-unprocessed.smi

> <i_m_source_file_index>
17

> <i_lp_mmshare_version>
43012

> <i_f3d_flags>
0

> <s_epik_input>
W0NIM11TKD1PKSg9TylbQ0gyXVtDQEBIXShbQ0gzXSlOKFtDSDJdW0NIM10pYyhuW2NIXW4xKWMoYzEyKW5bY0hdbjJbQ0gyXVtDQEhdKFtDSDJdW09IXSlbQ0BASF0zW0NIMl1bQ0gyXU9bQ0gyXTM=

> <s_epik_cmdline>
J2VwaWtfcHl0aG9uJywgJy1waCcsICc3LjAnLCAnLXRuJywgJzgnLCAnLW1hJywgJzIwMCcsICctbWV0YWxfYmluZGluZycsICctaW1hZScsICc8aW5maWxlLm1hZT4nLCAnLW9tYWUnLCAnPG91dGZpbGUubWFlPic=

> <r_lp_tautomer_probability>
1

> <r_epik_Ionization_Penalty>
0.00119955

> <r_epik_Ionization_Penalty_Charging>
0

> <r_epik_Ionization_Penalty_Neutral>
0.00119955

> <r_epik_State_Penalty>
0.000665399

> <r_epik_Charging_Adjusted_Penalty>
0.000665399

> <i_epik_Tot_Q>
0

> <i_epik_Tot_abs_Q>
0

> <r_epik_Metal_State_Penalty>
-0

> <b_epik_Metal_Only>
0

> <s_lp_Force_Field>
OPLS_2005

> <r_lp_Energy>
33.4806

> <b_lp_Chiralities_Consistent>
1

> <s_lp_Variant>
AV-unprocessed.smi:17-4

> <Gold.Version>
5.8.1

> <Gold.Id.Protein>
6NUR|6NUR_protein|mol2

> <Gold.PLP.Fitness>
44.3261

> <Gold.PLP.PLP>
-43.1527

> <Gold.PLP.part.hbond>
-2.9048

> <Gold.PLP.part.metal>
0.0000

> <Gold.PLP.part.buried>
-4.9838

> <Gold.PLP.part.nonpolar>
-34.4767

> <Gold.PLP.part.repulsive>
0.0567

> <Gold.PLP.ligand.clash>
0.9574

> <Gold.PLP.ligand.torsion>
2.7149

> <Gold.PLP.Chemscore.Hbond>
2.0000

> <Gold.PLP.Chemscore.CHOScore>
0.0000

> <Gold.PLP.Chemscore.Metal>
0.0000

> <Gold.Chemscore.Hbonds>
donor molecule, donor type, donor heavy atom, donor atom, acceptor molecule, acceptor atom, score
      P1  H  6896  6908       L1    10  1.00
      P1  H  7989  7998       L1    16  1.00

> <Gold.PLP.Chemscore.Internal.Correction>
1.5606

> <Gold.Rescore>
     Score         DG    S(hbond)    S(metal)    S(lipo)     H(rot)  DE(clash)    DE(int)     intcor
      8.66     -13.26       1.87        0.00      89.80       3.51       0.00       4.60       ----

> <Gold.Chemscore.Fitness>
8.6580

> <Gold.Chemscore.DG>
-13.2552

> <Gold.Chemscore.ZeroCoef>
-5.4800

> <Gold.Chemscore.Hbond>
1.8693

> <Gold.Chemscore.Metal>
0.0000

> <Gold.Chemscore.Lipo>
89.8018

> <Gold.Chemscore.Internal_Hbond>
0.0000

> <Gold.Chemscore.DEClash>
0.0021

> <Gold.Chemscore.DEInternal>
4.5950

> <Gold.Chemscore.Rot>
3.5059

> <Gold.Chemscore.Internal.Correction>
   9.000000E+99

> <Gold.Chemscore.Hbonds>
donor molecule, donor type, donor heavy atom, donor atom, acceptor molecule, acceptor atom, score
      P1  H  6896  6908       L1    10  0.88
      P1  H  7989  7998       L1    16  0.30

> <Gold.Chemscore.Hbond.Weighted>
-6.2434

> <Gold.Chemscore.Metal.Weighted>
-0.0000

> <Gold.Chemscore.Lipo.Weighted>
-10.5068

> <Gold.Chemscore.Internal_Hbond.Weighted>
0.0000

> <Gold.Chemscore.DEClash.Weighted>
0.0021

> <Gold.Chemscore.DEInternal.Weighted>
4.5950

> <Gold.Chemscore.Rot.Weighted>
8.9750

> <Gold.Chemscore.Internal.Correction.Weighted>
   9.000000E+99

> <Gold.Protein.RotatedTorsions>
[ 6907 6896 6895 6894 ] final -156.30 input  -60.11 | X-H torsion
[ 7974 7965 7964 7962 ] final   21.69 input  175.53 | X-H torsion
[ 8008 7997 7996 7995 ] final  102.47 input   59.86 | X-H torsion
[ 10167 10162 10161 10158 ] final  -59.00 input  -65.29 | X-H torsion
[ 10718 10713 10712 10709 ] final   81.00 input   66.30 | X-H torsion
[ 10763 10752 10751 10750 ] final  163.22 input  -60.55 | X-H torsion
[ 11005 11000 10999 10996 ] final   62.00 input  -57.11 | X-H torsion

> <Gold.Protein.ActiveResidues>
 VAL166  LYS551  ARG553  GLY616  TRP617  ASP618  TYR619  PRO620  LYS621  CYS622 
 ASP623  PHE694  ASN695  SER759  ASP760  ASP761  ALA762  ILE779  LEU786  VAL792 
 PHE793  MET794  SER795  GLU796  ALA797  LYS798  CYS799  TRP800  GLU811  SER814 

> <Gold.Protein.RotatedAtoms>
  151.2856  133.4189  159.2629 H   0  0  0  0  0  0  0  0  0  0  0  0  # atno 6907 bound_to 6896
  151.0322  134.9548  159.8127 H   0  0  0  0  0  0  0  0  0  0  0  0  # atno 6908 bound_to 6896
  152.5348  134.2817  159.9062 H   0  0  0  0  0  0  0  0  0  0  0  0  # atno 6909 bound_to 6896
  146.2061  139.7991  142.8725 H   0  0  0  0  0  0  0  0  0  0  0  0  # atno 7974 bound_to 7965
  156.1396  140.3180  155.8475 H   0  0  0  0  0  0  0  0  0  0  0  0  # atno 8008 bound_to 7997
  155.4179  140.0510  157.3044 H   0  0  0  0  0  0  0  0  0  0  0  0  # atno 8009 bound_to 7997
  154.4965  140.2113  155.9448 H   0  0  0  0  0  0  0  0  0  0  0  0  # atno 8010 bound_to 7997
  140.6162  143.2403  151.5590 H   0  0  0  0  0  0  0  0  0  0  0  0  # atno 10167 bound_to 10162
  157.6821  130.9984  150.2162 H   0  0  0  0  0  0  0  0  0  0  0  0  # atno 10718 bound_to 10713
  154.2904  135.2761  155.2657 H   0  0  0  0  0  0  0  0  0  0  0  0  # atno 10763 bound_to 10752
  154.5138  135.5775  153.6629 H   0  0  0  0  0  0  0  0  0  0  0  0  # atno 10764 bound_to 10752
  152.9915  135.6187  154.3069 H   0  0  0  0  0  0  0  0  0  0  0  0  # atno 10765 bound_to 10752
  140.0122  134.6279  155.9763 H   0  0  0  0  0  0  0  0  0  0  0  0  # atno 11005 bound_to 11000
  145.3315  141.0267  143.3443 LP  0  0  0  0  0  0  0  0  0  0  0  0  # atno 17320 bound_to 7965
  144.8795  139.4924  143.6729 LP  0  0  0  0  0  0  0  0  0  0  0  0  # atno 17321 bound_to 7965
  139.5401  144.2672  152.1333 LP  0  0  0  0  0  0  0  0  0  0  0  0  # atno 17342 bound_to 10162
  140.1882  144.4778  150.6493 LP  0  0  0  0  0  0  0  0  0  0  0  0  # atno 17343 bound_to 10162
  156.2823  130.3735  149.7923 LP  0  0  0  0  0  0  0  0  0  0  0  0  # atno 17370 bound_to 10713
  156.5608  130.8382  151.3328 LP  0  0  0  0  0  0  0  0  0  0  0  0  # atno 17371 bound_to 10713
  141.1719  133.6538  156.4682 LP  0  0  0  0  0  0  0  0  0  0  0  0  # atno 17394 bound_to 11000
  140.4534  134.6908  157.5051 LP  0  0  0  0  0  0  0  0  0  0  0  0  # atno 17395 bound_to 11000

$$$$
