AV-unprocessed.smi:3354|AV-procd|sdf|12959|dock2
  -GOLD-   2272019393D 1   1.00000     0.00000
 Structure written by MMmdl.
 38 40  0  0  0  0  0  0  0  0  1 V2000
  152.4488  139.2410  156.1237 C   0  0  0  0  0  0  0  0  0  0  0  0
  151.2776  139.7627  155.3202 C   0  0  2  0  0  0  0  0  0  0  0  0
  150.6262  141.0725  155.7006 C   0  0  0  0  0  0  0  0  0  0  0  0
  149.8762  139.7774  155.9037 C   0  0  1  0  0  0  0  0  0  0  0  0
  148.7297  139.5313  155.0822 N   0  0  0  0  0  0  0  0  0  0  0  0
  148.1581  138.1955  155.0583 C   0  0  0  0  0  0  0  0  0  0  0  0
  146.9816  138.2686  154.0698 C   0  0  2  0  0  0  0  0  0  0  0  0
  146.9702  137.1058  153.1865 N   0  0  0  0  0  0  0  0  0  0  0  0
  145.8968  136.3421  152.9407 C   0  0  0  0  0  0  0  0  0  0  0  0
  144.7893  136.5521  153.4349 O   0  0  0  0  0  0  0  0  0  0  0  0
  146.1920  135.3517  152.0812 N   0  0  0  0  0  0  0  0  0  0  0  0
  145.3443  134.3223  151.5898 C   0  0  0  0  0  0  0  0  0  0  0  0
  145.7634  133.2961  150.7084 C   0  0  0  0  0  0  0  0  0  0  0  0
  144.8200  132.3444  150.2759 C   0  0  0  0  0  0  0  0  0  0  0  0
  143.4931  132.4555  150.7346 C   0  0  0  0  0  0  0  0  0  0  0  0
  143.0768  133.4350  151.5646 N   0  0  0  0  0  0  0  0  0  0  0  0
  143.9866  134.3447  151.9739 C   0  0  0  0  0  0  0  0  0  0  0  0
  147.1749  139.5881  153.3056 C   0  0  0  0  0  0  0  0  0  0  0  0
  148.2935  140.2836  154.0625 C   0  0  0  0  0  0  0  0  0  0  0  0
  148.7251  141.3868  153.7312 O   0  0  0  0  0  0  0  0  0  0  0  0
  152.3121  139.4438  157.1864 H   0  0  0  0  0  0  0  0  0  0  0  0
  153.3711  139.7194  155.7942 H   0  0  0  0  0  0  0  0  0  0  0  0
  152.5456  138.1644  155.9849 H   0  0  0  0  0  0  0  0  0  0  0  0
  151.3743  139.5884  154.2503 H   0  0  0  0  0  0  0  0  0  0  0  0
  150.9908  141.5832  156.5897 H   0  0  0  0  0  0  0  0  0  0  0  0
  150.3068  141.7241  154.8893 H   0  0  0  0  0  0  0  0  0  0  0  0
  149.7872  139.4372  156.9338 H   0  0  0  0  0  0  0  0  0  0  0  0
  148.9236  137.4896  154.7310 H   0  0  0  0  0  0  0  0  0  0  0  0
  147.8266  137.8943  156.0530 H   0  0  0  0  0  0  0  0  0  0  0  0
  146.0481  138.3124  154.6344 H   0  0  0  0  0  0  0  0  0  0  0  0
  147.8402  136.8673  152.7331 H   0  0  0  0  0  0  0  0  0  0  0  0
  147.1254  135.3619  151.6965 H   0  0  0  0  0  0  0  0  0  0  0  0
  146.7765  133.2268  150.3447 H   0  0  0  0  0  0  0  0  0  0  0  0
  145.1064  131.5496  149.6033 H   0  0  0  0  0  0  0  0  0  0  0  0
  142.7452  131.7423  150.4208 H   0  0  0  0  0  0  0  0  0  0  0  0
  143.6167  135.1153  152.6343 H   0  0  0  0  0  0  0  0  0  0  0  0
  147.4858  139.4301  152.2720 H   0  0  0  0  0  0  0  0  0  0  0  0
  146.2681  140.1940  153.3052 H   0  0  0  0  0  0  0  0  0  0  0  0
  1  2  1  0  0  0  0
  1 21  1  0  0  0  0
  1 22  1  0  0  0  0
  1 23  1  0  0  0  0
  2  4  1  0  0  0  0
  2  3  1  0  0  0  0
  2 24  1  0  0  0  0
  3  4  1  0  0  0  0
  3 25  1  0  0  0  0
  3 26  1  0  0  0  0
  4  5  1  0  0  0  0
  4 27  1  0  0  0  0
  5 19  1  0  0  0  0
  5  6  1  0  0  0  0
  6  7  1  0  0  0  0
  6 28  1  0  0  0  0
  6 29  1  0  0  0  0
  7  8  1  0  0  0  0
  7 18  1  0  0  0  0
  7 30  1  0  0  0  0
  8  9  1  0  0  0  0
  8 31  1  0  0  0  0
  9 10  2  0  0  0  0
  9 11  1  0  0  0  0
 11 12  1  0  0  0  0
 11 32  1  0  0  0  0
 12 17  1  0  0  0  0
 12 13  2  0  0  0  0
 13 14  1  0  0  0  0
 13 33  1  0  0  0  0
 14 15  2  0  0  0  0
 14 34  1  0  0  0  0
 15 16  1  0  0  0  0
 15 35  1  0  0  0  0
 16 17  2  0  0  0  0
 17 36  1  0  0  0  0
 18 19  1  0  0  0  0
 18 37  1  0  0  0  0
 18 38  1  0  0  0  0
 19 20  2  0  0  0  0
M  END
> <s_m_source_file>
AV-unprocessed.smi

> <i_m_source_file_index>
3354

> <i_lp_mmshare_version>
43012

> <i_f3d_flags>
0

> <s_epik_input>
W0NIM11bQ0BASF0xW0NIMl1bQ0BIXTFOMltDSDJdW0NASF0oW0NIMl1DMj1PKVtOSF1DKD1PKVtOSF1jM1tjSF1bY0hdW2NIXW5bY0hdMw==

> <s_epik_cmdline>
J2VwaWtfcHl0aG9uJywgJy1waCcsICc3LjAnLCAnLXRuJywgJzgnLCAnLW1hJywgJzIwMCcsICctbWV0YWxfYmluZGluZycsICctaW1hZScsICc8aW5maWxlLm1hZT4nLCAnLW9tYWUnLCAnPG91dGZpbGUubWFlPic=

> <r_epik_Ionization_Penalty>
0.00456191

> <r_epik_Ionization_Penalty_Charging>
0

> <r_epik_Ionization_Penalty_Neutral>
0.00456191

> <r_epik_State_Penalty>
0.00327094

> <r_epik_Charging_Adjusted_Penalty>
0.00327094

> <i_epik_Tot_Q>
0

> <i_epik_Tot_abs_Q>
0

> <r_epik_Metal_State_Penalty>
-0

> <b_epik_Metal_Only>
0

> <s_lp_Force_Field>
OPLS_2005

> <r_lp_Energy>
40.1113

> <b_lp_Chiralities_Consistent>
1

> <s_lp_Variant>
AV-unprocessed.smi:3354-5

> <Gold.Version>
5.8.1

> <Gold.Id.Protein>
6NUR|6NUR_protein|mol2

> <Gold.PLP.Fitness>
41.4617

> <Gold.PLP.PLP>
-30.7346

> <Gold.PLP.part.hbond>
-3.0000

> <Gold.PLP.part.metal>
0.0000

> <Gold.PLP.part.buried>
-2.5654

> <Gold.PLP.part.nonpolar>
-25.5048

> <Gold.PLP.part.repulsive>
1.4389

> <Gold.PLP.ligand.clash>
0.0000

> <Gold.PLP.ligand.torsion>
0.3406

> <Gold.PLP.Chemscore.Hbond>
2.6764

> <Gold.PLP.Chemscore.CHOScore>
1.0000

> <Gold.PLP.Chemscore.Metal>
0.0000

> <Gold.Chemscore.Hbonds>
donor molecule, donor type, donor heavy atom, donor atom, acceptor molecule, acceptor atom, score
      L1  H     8    31       P1  7948  1.00
      L1  H    11    32       P1  7948  0.91
      P1  H  8011  8017       L1    20  0.78
      L1  C    15    35       P1 10952  1.00

> <Gold.PLP.Chemscore.Internal.Correction>
0.3790

> <Gold.Rescore>
     Score         DG    S(hbond)    S(metal)    S(lipo)     H(rot)  DE(clash)    DE(int)     intcor
     16.26     -19.54       2.62        0.00      72.34       1.24       0.06       3.22       ----

> <Gold.Chemscore.Fitness>
16.2599

> <Gold.Chemscore.DG>
-19.5449

> <Gold.Chemscore.ZeroCoef>
-5.4800

> <Gold.Chemscore.Hbond>
2.6244

> <Gold.Chemscore.Metal>
0.0000

> <Gold.Chemscore.Lipo>
72.3389

> <Gold.Chemscore.Internal_Hbond>
0.0000

> <Gold.Chemscore.DEClash>
0.0612

> <Gold.Chemscore.DEInternal>
3.2238

> <Gold.Chemscore.Rot>
1.2361

> <Gold.Chemscore.Internal.Correction>
   9.000000E+99

> <Gold.Chemscore.Hbonds>
donor molecule, donor type, donor heavy atom, donor atom, acceptor molecule, acceptor atom, score
      L1  H     8    31       P1  7948  0.95
      L1  H    11    32       P1  7948  0.84
      P1  H  8011  8017       L1    20  0.72

> <Gold.Chemscore.Hbond.Weighted>
-8.7656

> <Gold.Chemscore.Metal.Weighted>
-0.0000

> <Gold.Chemscore.Lipo.Weighted>
-8.4637

> <Gold.Chemscore.Internal_Hbond.Weighted>
0.0000

> <Gold.Chemscore.DEClash.Weighted>
0.0612

> <Gold.Chemscore.DEInternal.Weighted>
3.2238

> <Gold.Chemscore.Rot.Weighted>
3.1643

> <Gold.Chemscore.Internal.Correction.Weighted>
   9.000000E+99

> <Gold.Protein.RotatedTorsions>
[ 6907 6896 6895 6894 ] final   25.90 input  -60.11 | X-H torsion
[ 7974 7965 7964 7962 ] final -156.00 input  175.53 | X-H torsion
[ 8008 7997 7996 7995 ] final  -53.82 input   59.86 | X-H torsion
[ 10167 10162 10161 10158 ] final -170.74 input  -65.29 | X-H torsion
[ 10718 10713 10712 10709 ] final   -0.05 input   66.30 | X-H torsion
[ 10763 10752 10751 10750 ] final  -31.33 input  -60.55 | X-H torsion
[ 11005 11000 10999 10996 ] final   59.29 input  -57.11 | X-H torsion

> <Gold.Protein.ActiveResidues>
 VAL166  LYS551  ARG553  GLY616  TRP617  ASP618  TYR619  PRO620  LYS621  CYS622 
 ASP623  PHE694  ASN695  SER759  ASP760  ASP761  ALA762  ILE779  LEU786  VAL792 
 PHE793  MET794  SER795  GLU796  ALA797  LYS798  CYS799  TRP800  GLU811  SER814 

> <Gold.Protein.RotatedAtoms>
  151.9794  135.0036  160.0556 H   0  0  0  0  0  0  0  0  0  0  0  0  # atno 6907 bound_to 6896
  152.1710  133.4639  159.4917 H   0  0  0  0  0  0  0  0  0  0  0  0  # atno 6908 bound_to 6896
  150.6902  134.1870  159.4313 H   0  0  0  0  0  0  0  0  0  0  0  0  # atno 6909 bound_to 6896
  144.7613  140.4171  143.5974 H   0  0  0  0  0  0  0  0  0  0  0  0  # atno 7974 bound_to 7965
  154.4144  140.1191  156.5215 H   0  0  0  0  0  0  0  0  0  0  0  0  # atno 8008 bound_to 7997
  155.6697  140.3496  155.4794 H   0  0  0  0  0  0  0  0  0  0  0  0  # atno 8009 bound_to 7997
  155.9643  140.1129  157.0858 H   0  0  0  0  0  0  0  0  0  0  0  0  # atno 8010 bound_to 7997
  139.5843  144.1352  152.1556 H   0  0  0  0  0  0  0  0  0  0  0  0  # atno 10167 bound_to 10162
  156.8262  130.5473  149.5692 H   0  0  0  0  0  0  0  0  0  0  0  0  # atno 10718 bound_to 10713
  153.7956  135.6894  153.4864 H   0  0  0  0  0  0  0  0  0  0  0  0  # atno 10763 bound_to 10752
  153.1721  135.4538  154.9915 H   0  0  0  0  0  0  0  0  0  0  0  0  # atno 10764 bound_to 10752
  154.8027  135.3344  154.7449 H   0  0  0  0  0  0  0  0  0  0  0  0  # atno 10765 bound_to 10752
  140.0314  134.6006  155.9501 H   0  0  0  0  0  0  0  0  0  0  0  0  # atno 11005 bound_to 11000
  145.6609  139.1581  143.2808 LP  0  0  0  0  0  0  0  0  0  0  0  0  # atno 17320 bound_to 7965
  146.1679  140.6690  142.9247 LP  0  0  0  0  0  0  0  0  0  0  0  0  # atno 17321 bound_to 7965
  140.0912  144.5619  150.7053 LP  0  0  0  0  0  0  0  0  0  0  0  0  # atno 17342 bound_to 10162
  140.7117  143.2511  151.4559 LP  0  0  0  0  0  0  0  0  0  0  0  0  # atno 17343 bound_to 10162
  156.0960  130.5933  150.9815 LP  0  0  0  0  0  0  0  0  0  0  0  0  # atno 17370 bound_to 10713
  157.6431  131.0907  150.8210 LP  0  0  0  0  0  0  0  0  0  0  0  0  # atno 17371 bound_to 10713
  141.1833  133.6550  156.5112 LP  0  0  0  0  0  0  0  0  0  0  0  0  # atno 17394 bound_to 11000
  140.4219  134.7180  157.4894 LP  0  0  0  0  0  0  0  0  0  0  0  0  # atno 17395 bound_to 11000

$$$$
