AV-unprocessed.smi:2528|AV-procd|sdf|9953|dock10
  -GOLD-   2272013593D 1   1.00000     0.00000
 Structure written by MMmdl.
 44 46  0  0  0  0  0  0  0  0  2 V2000
  152.9790  140.1570  158.2461 O   0  0  0  0  0  0  0  0  0  0  0  0
  152.1863  140.5817  157.4047 C   0  0  0  0  0  0  0  0  0  0  0  0
  151.8612  139.9044  156.2940 N   0  0  0  0  0  0  0  0  0  0  0  0
  152.3773  138.5860  155.9412 C   0  0  0  0  0  0  0  0  0  0  0  0
  151.2600  137.5300  155.8680 C   0  0  1  0  0  0  0  0  0  0  0  0
  150.5322  137.5620  154.5059 C   0  0  0  0  0  0  0  0  0  0  0  0
  149.5336  136.4708  154.3964 N   0  3  2  0  0  0  0  0  0  0  0  0
  148.2772  136.7419  155.1473 C   0  0  0  0  0  0  0  0  0  0  0  0
  147.2526  135.6157  154.9484 C   0  0  0  0  0  0  0  0  0  0  0  0
  147.8460  134.2655  155.3654 C   0  0  0  0  0  0  0  0  0  0  0  0
  149.1365  133.9993  154.5789 C   0  0  0  0  0  0  0  0  0  0  0  0
  150.1544  135.1528  154.7053 C   0  0  2  0  0  0  0  0  0  0  0  0
  150.8813  135.1979  156.0660 C   0  0  0  0  0  0  0  0  0  0  0  0
  151.8459  136.2438  156.0487 O   0  0  0  0  0  0  0  0  0  0  0  0
  151.5408  141.7595  157.4660 N   0  0  0  0  0  0  0  0  0  0  0  0
  151.6155  142.7487  158.4827 C   0  0  0  0  0  0  0  0  0  0  0  0
  151.4943  144.0824  158.0308 C   0  0  0  0  0  0  0  0  0  0  0  0
  151.5534  145.1375  158.9619 C   0  0  0  0  0  0  0  0  0  0  0  0
  151.7332  144.8313  160.3227 C   0  0  0  0  0  0  0  0  0  0  0  0
  151.8471  143.4774  160.6884 C   0  0  0  0  0  0  0  0  0  0  0  0
  151.7909  142.4646  159.7977 N   0  0  0  0  0  0  0  0  0  0  0  0
  151.2054  140.3248  155.6518 H   0  0  0  0  0  0  0  0  0  0  0  0
  152.9037  138.6478  154.9871 H   0  0  0  0  0  0  0  0  0  0  0  0
  153.1202  138.2964  156.6849 H   0  0  0  0  0  0  0  0  0  0  0  0
  150.5447  137.7158  156.6701 H   0  0  0  0  0  0  0  0  0  0  0  0
  150.0512  138.5277  154.3452 H   0  0  0  0  0  0  0  0  0  0  0  0
  151.2589  137.4416  153.7011 H   0  0  0  0  0  0  0  0  0  0  0  0
  148.4824  136.8608  156.2111 H   0  0  0  0  0  0  0  0  0  0  0  0
  147.8500  137.6851  154.8052 H   0  0  0  0  0  0  0  0  0  0  0  0
  146.3539  135.8231  155.5301 H   0  0  0  0  0  0  0  0  0  0  0  0
  146.9441  135.5771  153.9028 H   0  0  0  0  0  0  0  0  0  0  0  0
  148.0500  134.2629  156.4368 H   0  0  0  0  0  0  0  0  0  0  0  0
  147.1255  133.4672  155.1848 H   0  0  0  0  0  0  0  0  0  0  0  0
  149.5868  133.0602  154.9027 H   0  0  0  0  0  0  0  0  0  0  0  0
  148.8832  133.8640  153.5263 H   0  0  0  0  0  0  0  0  0  0  0  0
  150.9197  134.9812  153.9465 H   0  0  0  0  0  0  0  0  0  0  0  0
  150.1877  135.3403  156.8955 H   0  0  0  0  0  0  0  0  0  0  0  0
  151.3985  134.2555  156.2464 H   0  0  0  0  0  0  0  0  0  0  0  0
  150.9162  141.9697  156.7014 H   0  0  0  0  0  0  0  0  0  0  0  0
  151.3551  144.2997  156.9817 H   0  0  0  0  0  0  0  0  0  0  0  0
  151.4619  146.1633  158.6366 H   0  0  0  0  0  0  0  0  0  0  0  0
  151.7832  145.6127  161.0665 H   0  0  0  0  0  0  0  0  0  0  0  0
  151.9876  143.1993  161.7226 H   0  0  0  0  0  0  0  0  0  0  0  0
  149.2593  136.4335  153.4248 H   0  0  0  0  0  0  0  0  0  0  0  0
  1  2  2  0  0  0  0
  2  3  1  0  0  0  0
  2 15  1  0  0  0  0
  3  4  1  0  0  0  0
  3 22  1  0  0  0  0
  4  5  1  0  0  0  0
  4 23  1  0  0  0  0
  4 24  1  0  0  0  0
  5 14  1  0  0  0  0
  5  6  1  0  0  0  0
  5 25  1  0  0  0  0
  6  7  1  0  0  0  0
  6 26  1  0  0  0  0
  6 27  1  0  0  0  0
  7 12  1  0  0  0  0
  7  8  1  0  0  0  0
  7 44  1  0  0  0  0
  8  9  1  0  0  0  0
  8 28  1  0  0  0  0
  8 29  1  0  0  0  0
  9 10  1  0  0  0  0
  9 30  1  0  0  0  0
  9 31  1  0  0  0  0
 10 11  1  0  0  0  0
 10 32  1  0  0  0  0
 10 33  1  0  0  0  0
 11 12  1  0  0  0  0
 11 34  1  0  0  0  0
 11 35  1  0  0  0  0
 12 13  1  0  0  0  0
 12 36  1  0  0  0  0
 13 14  1  0  0  0  0
 13 37  1  0  0  0  0
 13 38  1  0  0  0  0
 15 16  1  0  0  0  0
 15 39  1  0  0  0  0
 16 21  1  0  0  0  0
 16 17  2  0  0  0  0
 17 18  1  0  0  0  0
 17 40  1  0  0  0  0
 18 19  2  0  0  0  0
 18 41  1  0  0  0  0
 19 20  1  0  0  0  0
 19 42  1  0  0  0  0
 20 21  2  0  0  0  0
 20 43  1  0  0  0  0
M  CHG  1   7   1
M  END
> <s_m_source_file>
AV-unprocessed.smi

> <i_m_source_file_index>
2528

> <i_lp_mmshare_version>
43012

> <i_f3d_flags>
0

> <s_epik_input>
bjFbY0hdW2NIXVtjSF1bY0hdYzFbTkhdQyg9TylbTkhdW0NIMl1bQ0BIXShbQ0gyXTIpT1tDSDJdW0NAQEhdKE4yMylbQ0gyXVtDSDJdW0NIMl1bQ0gyXTM=

> <s_epik_cmdline>
J2VwaWtfcHl0aG9uJywgJy1waCcsICc3LjAnLCAnLXRuJywgJzgnLCAnLW1hJywgJzIwMCcsICctbWV0YWxfYmluZGluZycsICctaW1hZScsICc8aW5maWxlLm1hZT4nLCAnLW9tYWUnLCAnPG91dGZpbGUubWFlPic=

> <r_epik_Ionization_Penalty>
0.0932337

> <r_epik_Ionization_Penalty_Charging>
0.0931942

> <r_epik_Ionization_Penalty_Neutral>
3.9565e-05

> <r_epik_State_Penalty>
0.0834605

> <r_epik_Charging_Adjusted_Penalty>
0.176655

> <i_epik_Tot_Q>
1

> <i_epik_Tot_abs_Q>
1

> <r_epik_Metal_State_Penalty>
0.0834607

> <b_epik_Metal_Only>
0

> <s_lp_Force_Field>
OPLS_2005

> <r_lp_Energy>
28.0088

> <b_lp_Chiralities_Consistent>
1

> <s_lp_Variant>
AV-unprocessed.smi:2528-6

> <Gold.Version>
5.8.1

> <Gold.Id.Protein>
6NUR|6NUR_protein|mol2

> <Gold.PLP.Fitness>
46.2025

> <Gold.PLP.PLP>
-35.3584

> <Gold.PLP.part.hbond>
-3.0000

> <Gold.PLP.part.metal>
0.0000

> <Gold.PLP.part.buried>
-3.5705

> <Gold.PLP.part.nonpolar>
-28.2865

> <Gold.PLP.part.repulsive>
0.2577

> <Gold.PLP.ligand.clash>
0.0000

> <Gold.PLP.ligand.torsion>
0.4706

> <Gold.PLP.Chemscore.Hbond>
3.9280

> <Gold.PLP.Chemscore.CHOScore>
0.0000

> <Gold.PLP.Chemscore.Metal>
0.0000

> <Gold.Chemscore.Hbonds>
donor molecule, donor type, donor heavy atom, donor atom, acceptor molecule, acceptor atom, score
      L1  H     7    44       P1  7948  2.00
      P1  H  7997  8009       L1     1  0.87
      P1  H 10752 10765       L1    14  0.95

> <Gold.PLP.Chemscore.Internal.Correction>
0.0014

> <Gold.Rescore>
     Score         DG    S(hbond)    S(metal)    S(lipo)     H(rot)  DE(clash)    DE(int)     intcor
     18.90     -20.69       2.51        0.00      86.34       1.29       0.43       1.36       ----

> <Gold.Chemscore.Fitness>
18.9049

> <Gold.Chemscore.DG>
-20.6863

> <Gold.Chemscore.ZeroCoef>
-5.4800

> <Gold.Chemscore.Hbond>
2.5146

> <Gold.Chemscore.Metal>
0.0000

> <Gold.Chemscore.Lipo>
86.3442

> <Gold.Chemscore.Internal_Hbond>
0.0000

> <Gold.Chemscore.DEClash>
0.4263

> <Gold.Chemscore.DEInternal>
1.3551

> <Gold.Chemscore.Rot>
1.2870

> <Gold.Chemscore.Internal.Correction>
   9.000000E+99

> <Gold.Chemscore.Hbonds>
donor molecule, donor type, donor heavy atom, donor atom, acceptor molecule, acceptor atom, score
      L1  H     7    44       P1  7948  0.91
      P1  H  7997  8009       L1     1  0.21
      P1  H 10752 10765       L1    14  0.21

> <Gold.Chemscore.Hbond.Weighted>
-8.3989

> <Gold.Chemscore.Metal.Weighted>
-0.0000

> <Gold.Chemscore.Lipo.Weighted>
-10.1023

> <Gold.Chemscore.Internal_Hbond.Weighted>
0.0000

> <Gold.Chemscore.DEClash.Weighted>
0.4263

> <Gold.Chemscore.DEInternal.Weighted>
1.3551

> <Gold.Chemscore.Rot.Weighted>
3.2948

> <Gold.Chemscore.Internal.Correction.Weighted>
   9.000000E+99

> <Gold.Protein.RotatedTorsions>
[ 6907 6896 6895 6894 ] final -156.88 input  -60.11 | X-H torsion
[ 7974 7965 7964 7962 ] final   51.88 input  175.53 | X-H torsion
[ 8008 7997 7996 7995 ] final  146.27 input   59.86 | X-H torsion
[ 10167 10162 10161 10158 ] final    3.12 input  -65.29 | X-H torsion
[ 10718 10713 10712 10709 ] final   -7.64 input   66.30 | X-H torsion
[ 10763 10752 10751 10750 ] final -167.89 input  -60.55 | X-H torsion
[ 11005 11000 10999 10996 ] final  115.33 input  -57.11 | X-H torsion

> <Gold.Protein.ActiveResidues>
 VAL166  LYS551  ARG553  GLY616  TRP617  ASP618  TYR619  PRO620  LYS621  CYS622 
 ASP623  PHE694  ASN695  SER759  ASP760  ASP761  ALA762  ILE779  LEU786  VAL792 
 PHE793  MET794  SER795  GLU796  ALA797  LYS798  CYS799  TRP800  GLU811  SER814 

> <Gold.Protein.RotatedAtoms>
  151.2943  133.4151  159.2635 H   0  0  0  0  0  0  0  0  0  0  0  0  # atno 6907 bound_to 6896
  151.0250  134.9498  159.8090 H   0  0  0  0  0  0  0  0  0  0  0  0  # atno 6908 bound_to 6896
  152.5333  134.2905  159.9094 H   0  0  0  0  0  0  0  0  0  0  0  0  # atno 6909 bound_to 6896
  145.9869  139.4299  143.0097 H   0  0  0  0  0  0  0  0  0  0  0  0  # atno 7974 bound_to 7965
  156.2860  140.2187  156.5349 H   0  0  0  0  0  0  0  0  0  0  0  0  # atno 8008 bound_to 7997
  154.7418  140.0487  157.0840 H   0  0  0  0  0  0  0  0  0  0  0  0  # atno 8009 bound_to 7997
  155.0221  140.3125  155.4792 H   0  0  0  0  0  0  0  0  0  0  0  0  # atno 8010 bound_to 7997
  140.6602  143.7325  150.7724 H   0  0  0  0  0  0  0  0  0  0  0  0  # atno 10167 bound_to 10162
  156.7142  130.5131  149.5884 H   0  0  0  0  0  0  0  0  0  0  0  0  # atno 10718 bound_to 10713
  154.6686  135.2936  154.9772 H   0  0  0  0  0  0  0  0  0  0  0  0  # atno 10763 bound_to 10752
  154.0808  135.6605  153.4841 H   0  0  0  0  0  0  0  0  0  0  0  0  # atno 10764 bound_to 10752
  153.0472  135.5197  154.7670 H   0  0  0  0  0  0  0  0  0  0  0  0  # atno 10765 bound_to 10752
  139.9007  134.9582  156.7029 H   0  0  0  0  0  0  0  0  0  0  0  0  # atno 11005 bound_to 11000
  145.7687  140.9905  143.1161 LP  0  0  0  0  0  0  0  0  0  0  0  0  # atno 17320 bound_to 7965
  144.6877  139.9420  143.7475 LP  0  0  0  0  0  0  0  0  0  0  0  0  # atno 17321 bound_to 7965
  140.0992  143.4804  152.2435 LP  0  0  0  0  0  0  0  0  0  0  0  0  # atno 17342 bound_to 10162
  139.5833  144.7520  151.3583 LP  0  0  0  0  0  0  0  0  0  0  0  0  # atno 17343 bound_to 10162
  156.1639  130.6392  151.0754 LP  0  0  0  0  0  0  0  0  0  0  0  0  # atno 17370 bound_to 10713
  157.6924  131.0805  150.7069 LP  0  0  0  0  0  0  0  0  0  0  0  0  # atno 17371 bound_to 10713
  140.7136  133.9202  155.8100 LP  0  0  0  0  0  0  0  0  0  0  0  0  # atno 17394 bound_to 11000
  141.0281  134.0794  157.4045 LP  0  0  0  0  0  0  0  0  0  0  0  0  # atno 17395 bound_to 11000

$$$$
