AV-unprocessed.smi:59|AV-procd|sdf|587|dock1
  -GOLD-   2262016483D 1   1.00000     0.00000
 Structure written by MMmdl.
 29 30  0  0  0  0  0  0  0  0  2 V2000
  147.7328  142.0917  157.3136 C   0  0  0  0  0  0  0  0  0  0  0  0
  148.7532  141.4339  156.5038 N   0  0  0  0  0  0  0  0  0  0  0  0
  148.7724  141.3549  155.1658 C   0  0  0  0  0  0  0  0  0  0  0  0
  147.9472  141.8410  154.3920 O   0  0  0  0  0  0  0  0  0  0  0  0
  149.9956  140.5803  154.7054 C   0  0  2  0  0  0  0  0  0  0  0  0
  149.6987  139.7062  153.6325 O   0  0  0  0  0  0  0  0  0  0  0  0
  150.4110  139.8374  155.9907 C   0  0  1  0  0  0  0  0  0  0  0  0
  151.9057  139.4622  156.0597 C   0  0  0  0  0  0  0  0  0  0  0  0
  152.3056  138.7554  157.0115 O   0  0  0  0  0  0  0  0  0  0  0  0
  152.6334  139.9075  155.1451 O   0  5  0  0  0  0  0  0  0  0  0  0
  149.8567  140.7183  157.1439 C   0  0  1  0  0  0  0  0  0  0  0  0
  150.8641  141.6712  157.7595 C   0  0  0  0  0  0  0  0  0  0  0  0
  152.0229  141.3348  158.5173 C   0  0  0  0  0  0  0  0  0  0  0  0
  152.7032  142.3953  158.9214 N   0  0  0  0  0  0  0  0  0  0  0  0
  152.0114  143.4432  158.4310 N   0  0  0  0  0  0  0  0  0  0  0  0
  152.4840  144.7883  158.6786 C   0  0  0  0  0  0  0  0  0  0  0  0
  150.8981  143.0384  157.7281 C   0  0  0  0  0  0  0  0  0  0  0  0
  150.7459  141.3059  154.3876 H   0  0  0  0  0  0  0  0  0  0  0  0
  149.8592  138.8952  156.0131 H   0  0  0  0  0  0  0  0  0  0  0  0
  149.4403  140.0662  157.9131 H   0  0  0  0  0  0  0  0  0  0  0  0
  147.0227  142.6560  156.7078 H   0  0  0  0  0  0  0  0  0  0  0  0
  148.1949  142.7854  158.0164 H   0  0  0  0  0  0  0  0  0  0  0  0
  147.1740  141.3507  157.8854 H   0  0  0  0  0  0  0  0  0  0  0  0
  149.8024  140.1834  152.8236 H   0  0  0  0  0  0  0  0  0  0  0  0
  152.3862  140.3533  158.7832 H   0  0  0  0  0  0  0  0  0  0  0  0
  151.7895  145.5132  158.2529 H   0  0  0  0  0  0  0  0  0  0  0  0
  153.4638  144.9243  158.2200 H   0  0  0  0  0  0  0  0  0  0  0  0
  152.5630  144.9611  159.7524 H   0  0  0  0  0  0  0  0  0  0  0  0
  150.2281  143.7474  157.2647 H   0  0  0  0  0  0  0  0  0  0  0  0
  1  2  1  0  0  0  0
  1 21  1  0  0  0  0
  1 22  1  0  0  0  0
  1 23  1  0  0  0  0
  2 11  1  0  0  0  0
  2  3  1  0  0  0  0
  3  4  2  0  0  0  0
  3  5  1  0  0  0  0
  5 18  1  0  0  0  0
  5  6  1  0  0  0  0
  5  7  1  0  0  0  0
  6 24  1  0  0  0  0
  7 19  1  0  0  0  0
  7  8  1  0  0  0  0
  7 11  1  0  0  0  0
  8  9  2  0  0  0  0
  8 10  1  0  0  0  0
 11 20  1  0  0  0  0
 11 12  1  0  0  0  0
 12 17  2  0  0  0  0
 12 13  1  0  0  0  0
 13 14  2  0  0  0  0
 13 25  1  0  0  0  0
 14 15  1  0  0  0  0
 15 16  1  0  0  0  0
 15 17  1  0  0  0  0
 16 26  1  0  0  0  0
 16 27  1  0  0  0  0
 16 28  1  0  0  0  0
 17 29  1  0  0  0  0
M  CHG  1  10  -1
M  END
> <s_m_source_file>
AV-unprocessed.smi

> <i_m_source_file_index>
59

> <i_lp_mmshare_version>
43012

> <i_f3d_flags>
0

> <s_epik_input>
W0NIM11OMUMoPU8pW0NASF0oW09IXSlbQ0BIXShDKD1PKVtPSF0pW0NASF0xYzJbY0hdbm4oW0NIM10pW2NIXTI=

> <s_epik_cmdline>
J2VwaWtfcHl0aG9uJywgJy1waCcsICc3LjAnLCAnLXRuJywgJzgnLCAnLW1hJywgJzIwMCcsICctbWV0YWxfYmluZGluZycsICctaW1hZScsICc8aW5maWxlLm1hZT4nLCAnLW9tYWUnLCAnPG91dGZpbGUubWFlPic=

> <r_lp_tautomer_probability>
1

> <r_epik_Ionization_Penalty>
0.00173515

> <r_epik_Ionization_Penalty_Charging>
0.00120567

> <r_epik_Ionization_Penalty_Neutral>
0.000529476

> <r_epik_State_Penalty>
-0

> <r_epik_Charging_Adjusted_Penalty>
0.00120567

> <i_epik_Tot_Q>
-1

> <i_epik_Tot_abs_Q>
1

> <r_epik_Metal_State_Penalty>
-0

> <b_epik_Metal_Only>
0

> <s_lp_Force_Field>
OPLS_2005

> <r_lp_Energy>
8.21593

> <b_lp_Chiralities_Consistent>
1

> <s_lp_Variant>
AV-unprocessed.smi:59-3

> <Gold.Version>
5.8.1

> <Gold.Id.Protein>
6NUR|6NUR_protein|mol2

> <Gold.PLP.Fitness>
43.8404

> <Gold.PLP.PLP>
-30.9256

> <Gold.PLP.part.hbond>
-3.6726

> <Gold.PLP.part.metal>
0.0000

> <Gold.PLP.part.buried>
-3.6249

> <Gold.PLP.part.nonpolar>
-25.0839

> <Gold.PLP.part.repulsive>
0.1571

> <Gold.PLP.ligand.clash>
0.0000

> <Gold.PLP.ligand.torsion>
0.1162

> <Gold.PLP.Chemscore.Hbond>
3.3761

> <Gold.PLP.Chemscore.CHOScore>
1.0000

> <Gold.PLP.Chemscore.Metal>
0.0000

> <Gold.Chemscore.Hbonds>
donor molecule, donor type, donor heavy atom, donor atom, acceptor molecule, acceptor atom, score
      L1  H     6    24       P1  7957  0.85
      P1  H  7989  7998       L1    10  0.42
      P1  H  7997  8008       L1    10  2.00
      L1  C    17    29       P1  8028  1.00

> <Gold.PLP.Chemscore.Internal.Correction>
0.0189

> <Gold.Rescore>
     Score         DG    S(hbond)    S(metal)    S(lipo)     H(rot)  DE(clash)    DE(int)     intcor
     12.83     -13.13       2.03        0.00      52.44       2.06       0.02       0.28       ----

> <Gold.Chemscore.Fitness>
12.8324

> <Gold.Chemscore.DG>
-13.1279

> <Gold.Chemscore.ZeroCoef>
-5.4800

> <Gold.Chemscore.Hbond>
2.0349

> <Gold.Chemscore.Metal>
0.0000

> <Gold.Chemscore.Lipo>
52.4368

> <Gold.Chemscore.Internal_Hbond>
0.0000

> <Gold.Chemscore.DEClash>
0.0178

> <Gold.Chemscore.DEInternal>
0.2777

> <Gold.Chemscore.Rot>
2.0639

> <Gold.Chemscore.Internal.Correction>
   9.000000E+99

> <Gold.Chemscore.Hbonds>
donor molecule, donor type, donor heavy atom, donor atom, acceptor molecule, acceptor atom, score
      L1  H     6    24       P1  7957  0.85
      P1  H  7989  7998       L1    10  0.39
      P1  H  7997  8008       L1    10  0.29

> <Gold.Chemscore.Hbond.Weighted>
-6.7965

> <Gold.Chemscore.Metal.Weighted>
-0.0000

> <Gold.Chemscore.Lipo.Weighted>
-6.1351

> <Gold.Chemscore.Internal_Hbond.Weighted>
0.0000

> <Gold.Chemscore.DEClash.Weighted>
0.0178

> <Gold.Chemscore.DEInternal.Weighted>
0.2777

> <Gold.Chemscore.Rot.Weighted>
5.2837

> <Gold.Chemscore.Internal.Correction.Weighted>
   9.000000E+99

> <Gold.Protein.RotatedTorsions>
[ 6907 6896 6895 6894 ] final   88.80 input  -60.11 | X-H torsion
[ 7974 7965 7964 7962 ] final -173.77 input  175.53 | X-H torsion
[ 8008 7997 7996 7995 ] final  -30.84 input   59.86 | X-H torsion
[ 10167 10162 10161 10158 ] final   10.29 input  -65.29 | X-H torsion
[ 10718 10713 10712 10709 ] final   37.36 input   66.30 | X-H torsion
[ 10763 10752 10751 10750 ] final  -17.67 input  -60.55 | X-H torsion
[ 11005 11000 10999 10996 ] final -129.58 input  -57.11 | X-H torsion

> <Gold.Protein.ActiveResidues>
 VAL166  LYS551  ARG553  GLY616  TRP617  ASP618  TYR619  PRO620  LYS621  CYS622 
 ASP623  PHE694  ASN695  SER759  ASP760  ASP761  ALA762  ILE779  LEU786  VAL792 
 PHE793  MET794  SER795  GLU796  ALA797  LYS798  CYS799  TRP800  GLU811  SER814 

> <Gold.Protein.RotatedAtoms>
  152.5429  134.2066  159.8732 H   0  0  0  0  0  0  0  0  0  0  0  0  # atno 6907 bound_to 6896
  151.2051  133.4581  159.2604 H   0  0  0  0  0  0  0  0  0  0  0  0  # atno 6908 bound_to 6896
  151.0951  134.9952  159.8477 H   0  0  0  0  0  0  0  0  0  0  0  0  # atno 6909 bound_to 6896
  144.7136  140.1572  143.6379 H   0  0  0  0  0  0  0  0  0  0  0  0  # atno 7974 bound_to 7965
  154.4235  140.1780  156.1471 H   0  0  0  0  0  0  0  0  0  0  0  0  # atno 8008 bound_to 7997
  155.9945  140.3366  155.6760 H   0  0  0  0  0  0  0  0  0  0  0  0  # atno 8009 bound_to 7997
  155.6327  140.0671  157.2634 H   0  0  0  0  0  0  0  0  0  0  0  0  # atno 8010 bound_to 7997
  140.6203  143.8218  150.7167 H   0  0  0  0  0  0  0  0  0  0  0  0  # atno 10167 bound_to 10162
  157.3459  130.7573  149.6944 H   0  0  0  0  0  0  0  0  0  0  0  0  # atno 10718 bound_to 10713
  153.5774  135.7006  153.5478 H   0  0  0  0  0  0  0  0  0  0  0  0  # atno 10763 bound_to 10752
  153.3291  135.4052  155.1480 H   0  0  0  0  0  0  0  0  0  0  0  0  # atno 10764 bound_to 10752
  154.8623  135.3714  154.5300 H   0  0  0  0  0  0  0  0  0  0  0  0  # atno 10765 bound_to 10752
  140.9419  134.1181  157.4142 H   0  0  0  0  0  0  0  0  0  0  0  0  # atno 11005 bound_to 11000
  145.9063  139.2460  143.1464 LP  0  0  0  0  0  0  0  0  0  0  0  0  # atno 17320 bound_to 7965
  145.9761  140.8721  143.0138 LP  0  0  0  0  0  0  0  0  0  0  0  0  # atno 17321 bound_to 7965
  140.1807  143.4117  152.1935 LP  0  0  0  0  0  0  0  0  0  0  0  0  # atno 17342 bound_to 10162
  139.5433  144.7276  151.4663 LP  0  0  0  0  0  0  0  0  0  0  0  0  # atno 17343 bound_to 10162
  155.9714  130.4154  150.4181 LP  0  0  0  0  0  0  0  0  0  0  0  0  # atno 17370 bound_to 10713
  157.2236  131.0488  151.2532 LP  0  0  0  0  0  0  0  0  0  0  0  0  # atno 17371 bound_to 10713
  139.8823  135.0039  156.6217 LP  0  0  0  0  0  0  0  0  0  0  0  0  # atno 17394 bound_to 11000
  140.7722  133.8729  155.8501 LP  0  0  0  0  0  0  0  0  0  0  0  0  # atno 17395 bound_to 11000

$$$$
