AV-unprocessed.smi:212|AV-procd|sdf|1628|dock7
  -GOLD-   2262019573D 1   1.00000     0.00000
 Structure written by MMmdl.
 65 68  0  0  0  0  0  0  0  0  2 V2000
  143.6464  136.5200  154.6080 C   0  0  0  0  0  0  0  0  0  0  0  0
  144.5002  135.4443  153.9093 C   0  0  1  0  0  0  0  0  0  0  0  0
  144.2032  135.3080  152.3999 C   0  0  0  0  0  0  0  0  0  0  0  0
  145.0052  134.2113  151.7945 N   0  3  1  0  0  0  0  0  0  0  0  0
  144.7067  133.9904  150.3543 C   0  0  0  0  0  0  0  0  0  0  0  0
  144.3566  132.5177  150.0349 C   0  0  0  0  0  0  0  0  0  0  0  0
  144.2783  132.3115  148.5129 C   0  0  0  0  0  0  0  0  0  0  0  0
  145.3629  131.5300  150.6542 C   0  0  0  0  0  0  0  0  0  0  0  0
  143.0717  132.2234  150.5461 O   0  0  0  0  0  0  0  0  0  0  0  0
  146.4579  134.3494  152.0755 C   0  0  0  0  0  0  0  0  0  0  0  0
  146.7235  134.4733  153.5879 C   0  0  0  0  0  0  0  0  0  0  0  0
  145.9414  135.5612  154.1666 N   0  0  0  0  0  0  0  0  0  0  0  0
  146.5740  136.7605  154.0939 C   0  0  0  0  0  0  0  0  0  0  0  0
  146.0122  137.8034  153.4279 N   0  0  0  0  0  0  0  0  0  0  0  0
  146.6534  138.9731  153.3444 C   0  0  0  0  0  0  0  0  0  0  0  0
  147.8465  139.3074  153.8395 N   0  0  0  0  0  0  0  0  0  0  0  0
  148.4180  138.2610  154.5012 C   0  0  0  0  0  0  0  0  0  0  0  0
  147.8582  136.9638  154.6679 C   0  0  0  0  0  0  0  0  0  0  0  0
  148.7307  136.1575  155.3877 N   0  0  0  0  0  0  0  0  0  0  0  0
  149.7495  136.9350  155.6358 C   0  0  0  0  0  0  0  0  0  0  0  0
  149.6365  138.2213  155.1559 N   0  0  0  0  0  0  0  0  0  0  0  0
  150.6109  139.2890  155.2856 C   0  0  0  0  0  0  0  0  0  0  0  0
  150.0794  140.5785  155.9684 C   0  0  2  0  0  0  0  0  0  0  0  0
  149.3831  141.4503  154.9005 C   0  0  0  0  0  0  0  0  0  0  0  0
  148.2668  142.1309  155.4365 O   0  0  0  0  0  0  0  0  0  0  0  0
  151.1122  141.4137  156.7864 C   0  0  1  0  0  0  0  0  0  0  0  0
  150.6300  142.7047  157.4235 C   0  0  0  0  0  0  0  0  0  0  0  0
  151.7911  143.0254  158.3579 C   0  0  0  0  0  0  0  0  0  0  0  0
  152.2785  141.7645  158.8088 O   0  0  0  0  0  0  0  0  0  0  0  0
  151.8090  140.7188  157.9604 C   0  0  0  0  0  0  0  0  0  0  0  0
  142.5857  136.2836  154.5206 H   0  0  0  0  0  0  0  0  0  0  0  0
  143.7883  137.5117  154.1798 H   0  0  0  0  0  0  0  0  0  0  0  0
  143.8812  136.5771  155.6713 H   0  0  0  0  0  0  0  0  0  0  0  0
  144.2102  134.4985  154.3694 H   0  0  0  0  0  0  0  0  0  0  0  0
  143.1418  135.1052  152.2574 H   0  0  0  0  0  0  0  0  0  0  0  0
  144.4105  136.2416  151.8770 H   0  0  0  0  0  0  0  0  0  0  0  0
  143.9052  134.6563  150.0289 H   0  0  0  0  0  0  0  0  0  0  0  0
  145.5738  134.2705  149.7535 H   0  0  0  0  0  0  0  0  0  0  0  0
  145.2392  132.5128  148.0379 H   0  0  0  0  0  0  0  0  0  0  0  0
  143.5417  132.9749  148.0574 H   0  0  0  0  0  0  0  0  0  0  0  0
  143.9978  131.2877  148.2620 H   0  0  0  0  0  0  0  0  0  0  0  0
  146.3749  131.7251  150.2977 H   0  0  0  0  0  0  0  0  0  0  0  0
  145.1177  130.4993  150.3949 H   0  0  0  0  0  0  0  0  0  0  0  0
  145.3786  131.5939  151.7426 H   0  0  0  0  0  0  0  0  0  0  0  0
  142.5340  132.9985  150.4773 H   0  0  0  0  0  0  0  0  0  0  0  0
  146.9907  133.4810  151.6862 H   0  0  0  0  0  0  0  0  0  0  0  0
  146.8468  135.2241  151.5517 H   0  0  0  0  0  0  0  0  0  0  0  0
  146.4470  133.5457  154.0903 H   0  0  0  0  0  0  0  0  0  0  0  0
  147.7900  134.6126  153.7707 H   0  0  0  0  0  0  0  0  0  0  0  0
  146.1366  139.7528  152.8046 H   0  0  0  0  0  0  0  0  0  0  0  0
  150.6118  136.5907  156.1882 H   0  0  0  0  0  0  0  0  0  0  0  0
  151.4845  138.9057  155.8131 H   0  0  0  0  0  0  0  0  0  0  0  0
  150.9567  139.5256  154.2784 H   0  0  0  0  0  0  0  0  0  0  0  0
  149.3004  140.2677  156.6661 H   0  0  0  0  0  0  0  0  0  0  0  0
  150.0789  142.1730  154.4730 H   0  0  0  0  0  0  0  0  0  0  0  0
  149.0212  140.8326  154.0781 H   0  0  0  0  0  0  0  0  0  0  0  0
  148.3364  143.0465  155.2126 H   0  0  0  0  0  0  0  0  0  0  0  0
  151.9006  141.7248  156.0993 H   0  0  0  0  0  0  0  0  0  0  0  0
  150.4428  143.4956  156.6967 H   0  0  0  0  0  0  0  0  0  0  0  0
  149.7281  142.5693  158.0132 H   0  0  0  0  0  0  0  0  0  0  0  0
  152.5882  143.5326  157.8126 H   0  0  0  0  0  0  0  0  0  0  0  0
  151.4941  143.6610  159.1923 H   0  0  0  0  0  0  0  0  0  0  0  0
  151.1231  140.1082  158.5444 H   0  0  0  0  0  0  0  0  0  0  0  0
  152.6292  140.0797  157.6323 H   0  0  0  0  0  0  0  0  0  0  0  0
  144.7195  133.3645  152.2649 H   0  0  0  0  0  0  0  0  0  0  0  0
  1  2  1  0  0  0  0
  1 31  1  0  0  0  0
  1 32  1  0  0  0  0
  1 33  1  0  0  0  0
  2 12  1  0  0  0  0
  2  3  1  0  0  0  0
  2 34  1  0  0  0  0
  3  4  1  0  0  0  0
  3 35  1  0  0  0  0
  3 36  1  0  0  0  0
  4  5  1  0  0  0  0
  4 10  1  0  0  0  0
  4 65  1  0  0  0  0
  5  6  1  0  0  0  0
  5 37  1  0  0  0  0
  5 38  1  0  0  0  0
  6  7  1  0  0  0  0
  6  8  1  0  0  0  0
  6  9  1  0  0  0  0
  7 39  1  0  0  0  0
  7 40  1  0  0  0  0
  7 41  1  0  0  0  0
  8 42  1  0  0  0  0
  8 43  1  0  0  0  0
  8 44  1  0  0  0  0
  9 45  1  0  0  0  0
 10 11  1  0  0  0  0
 10 46  1  0  0  0  0
 10 47  1  0  0  0  0
 11 12  1  0  0  0  0
 11 48  1  0  0  0  0
 11 49  1  0  0  0  0
 12 13  1  0  0  0  0
 13 18  1  0  0  0  0
 13 14  2  0  0  0  0
 14 15  1  0  0  0  0
 15 16  2  0  0  0  0
 15 50  1  0  0  0  0
 16 17  1  0  0  0  0
 17 21  1  0  0  0  0
 17 18  2  0  0  0  0
 18 19  1  0  0  0  0
 19 20  2  0  0  0  0
 20 21  1  0  0  0  0
 20 51  1  0  0  0  0
 21 22  1  0  0  0  0
 22 23  1  0  0  0  0
 22 52  1  0  0  0  0
 22 53  1  0  0  0  0
 23 24  1  0  0  0  0
 23 26  1  0  0  0  0
 23 54  1  0  0  0  0
 24 25  1  0  0  0  0
 24 55  1  0  0  0  0
 24 56  1  0  0  0  0
 25 57  1  0  0  0  0
 26 30  1  0  0  0  0
 26 27  1  0  0  0  0
 26 58  1  0  0  0  0
 27 28  1  0  0  0  0
 27 59  1  0  0  0  0
 27 60  1  0  0  0  0
 28 29  1  0  0  0  0
 28 61  1  0  0  0  0
 28 62  1  0  0  0  0
 29 30  1  0  0  0  0
 30 63  1  0  0  0  0
 30 64  1  0  0  0  0
M  CHG  1   4   1
M  END
> <s_m_source_file>
AV-unprocessed.smi

> <i_m_source_file_index>
212

> <i_lp_mmshare_version>
43012

> <i_f3d_flags>
0

> <s_epik_input>
W0NIM11bQ0BASF0xW0NIMl1OKFtDSDJdQyhbQ0gzXSkoW0NIM10pW09IXSlbQ0gyXVtDSDJdTjFjKG5bY0hdbjIpYyhjMjMpbltjSF1uM1tDSDJdW0NASF0oW0NIMl1bT0hdKVtDQEBIXTRbQ0gyXVtDSDJdT1tDSDJdNA==

> <s_epik_cmdline>
J2VwaWtfcHl0aG9uJywgJy1waCcsICc3LjAnLCAnLXRuJywgJzgnLCAnLW1hJywgJzIwMCcsICctbWV0YWxfYmluZGluZycsICctaW1hZScsICc8aW5maWxlLm1hZT4nLCAnLW9tYWUnLCAnPG91dGZpbGUubWFlPic=

> <r_lp_tautomer_probability>
1

> <r_epik_Ionization_Penalty>
0.00182193

> <r_epik_Ionization_Penalty_Charging>
0.00173996

> <r_epik_Ionization_Penalty_Neutral>
8.19718e-05

> <r_epik_State_Penalty>
-0

> <r_epik_Charging_Adjusted_Penalty>
0.00173996

> <i_epik_Tot_Q>
1

> <i_epik_Tot_abs_Q>
1

> <r_epik_Metal_State_Penalty>
-0

> <b_epik_Metal_Only>
0

> <s_lp_Force_Field>
OPLS_2005

> <r_lp_Energy>
60.5032

> <b_lp_Chiralities_Consistent>
1

> <s_lp_Variant>
AV-unprocessed.smi:212-12

> <Gold.Version>
5.8.1

> <Gold.Id.Protein>
6NUR|6NUR_protein|mol2

> <Gold.PLP.Fitness>
49.4613

> <Gold.PLP.PLP>
-43.0167

> <Gold.PLP.part.hbond>
-2.9042

> <Gold.PLP.part.metal>
0.0000

> <Gold.PLP.part.buried>
-5.3409

> <Gold.PLP.part.nonpolar>
-35.4688

> <Gold.PLP.part.repulsive>
0.5486

> <Gold.PLP.ligand.clash>
0.0000

> <Gold.PLP.ligand.torsion>
1.7517

> <Gold.PLP.Chemscore.Hbond>
1.9760

> <Gold.PLP.Chemscore.CHOScore>
1.0000

> <Gold.PLP.Chemscore.Metal>
0.0000

> <Gold.Chemscore.Hbonds>
donor molecule, donor type, donor heavy atom, donor atom, acceptor molecule, acceptor atom, score
      L1  H     9    45       P1 10186  0.37
      L1  H    25    57       P1  8028  1.00
      L1  C    15    50       P1 10175  0.89

> <Gold.PLP.Chemscore.Internal.Correction>
1.0201

> <Gold.Rescore>
     Score         DG    S(hbond)    S(metal)    S(lipo)     H(rot)  DE(clash)    DE(int)     intcor
     10.26     -14.83       1.97        0.00     104.38       3.68       0.00       4.57       ----

> <Gold.Chemscore.Fitness>
10.2570

> <Gold.Chemscore.DG>
-14.8333

> <Gold.Chemscore.ZeroCoef>
-5.4800

> <Gold.Chemscore.Hbond>
1.9654

> <Gold.Chemscore.Metal>
0.0000

> <Gold.Chemscore.Lipo>
104.3842

> <Gold.Chemscore.Internal_Hbond>
0.0000

> <Gold.Chemscore.DEClash>
0.0048

> <Gold.Chemscore.DEInternal>
4.5715

> <Gold.Chemscore.Rot>
3.6812

> <Gold.Chemscore.Internal.Correction>
   9.000000E+99

> <Gold.Chemscore.Hbonds>
donor molecule, donor type, donor heavy atom, donor atom, acceptor molecule, acceptor atom, score
      L1  H     9    45       P1 10186  0.37
      L1  H    25    57       P1  8028  0.94

> <Gold.Chemscore.Hbond.Weighted>
-6.5643

> <Gold.Chemscore.Metal.Weighted>
-0.0000

> <Gold.Chemscore.Lipo.Weighted>
-12.2129

> <Gold.Chemscore.Internal_Hbond.Weighted>
0.0000

> <Gold.Chemscore.DEClash.Weighted>
0.0048

> <Gold.Chemscore.DEInternal.Weighted>
4.5715

> <Gold.Chemscore.Rot.Weighted>
9.4239

> <Gold.Chemscore.Internal.Correction.Weighted>
   9.000000E+99

> <Gold.Protein.RotatedTorsions>
[ 6907 6896 6895 6894 ] final -158.00 input  -60.11 | X-H torsion
[ 7974 7965 7964 7962 ] final  -26.81 input  175.53 | X-H torsion
[ 8008 7997 7996 7995 ] final   23.86 input   59.86 | X-H torsion
[ 10167 10162 10161 10158 ] final -154.27 input  -65.29 | X-H torsion
[ 10718 10713 10712 10709 ] final  167.13 input   66.30 | X-H torsion
[ 10763 10752 10751 10750 ] final -126.43 input  -60.55 | X-H torsion
[ 11005 11000 10999 10996 ] final  -94.94 input  -57.11 | X-H torsion

> <Gold.Protein.ActiveResidues>
 VAL166  LYS551  ARG553  GLY616  TRP617  ASP618  TYR619  PRO620  LYS621  CYS622 
 ASP623  PHE694  ASN695  SER759  ASP760  ASP761  ALA762  ILE779  LEU786  VAL792 
 PHE793  MET794  SER795  GLU796  ALA797  LYS798  CYS799  TRP800  GLU811  SER814 

> <Gold.Protein.RotatedAtoms>
  151.3114  133.4079  159.2646 H   0  0  0  0  0  0  0  0  0  0  0  0  # atno 6907 bound_to 6896
  151.0111  134.9398  159.8018 H   0  0  0  0  0  0  0  0  0  0  0  0  # atno 6908 bound_to 6896
  152.5301  134.3078  159.9155 H   0  0  0  0  0  0  0  0  0  0  0  0  # atno 6909 bound_to 6896
  146.1401  140.5068  142.8656 H   0  0  0  0  0  0  0  0  0  0  0  0  # atno 7974 bound_to 7965
  154.9874  140.3109  155.4920 H   0  0  0  0  0  0  0  0  0  0  0  0  # atno 8008 bound_to 7997
  156.2945  140.2255  156.4917 H   0  0  0  0  0  0  0  0  0  0  0  0  # atno 8009 bound_to 7997
  154.7734  140.0451  157.1058 H   0  0  0  0  0  0  0  0  0  0  0  0  # atno 8010 bound_to 7997
  139.7027  143.9236  152.2436 H   0  0  0  0  0  0  0  0  0  0  0  0  # atno 10167 bound_to 10162
  157.0560  131.0326  151.2664 H   0  0  0  0  0  0  0  0  0  0  0  0  # atno 10718 bound_to 10713
  154.8745  135.3996  154.3430 H   0  0  0  0  0  0  0  0  0  0  0  0  # atno 10763 bound_to 10752
  153.4226  135.7023  153.6289 H   0  0  0  0  0  0  0  0  0  0  0  0  # atno 10764 bound_to 10752
  153.4945  135.3741  155.2478 H   0  0  0  0  0  0  0  0  0  0  0  0  # atno 10765 bound_to 10752
  141.1456  133.7991  157.0367 H   0  0  0  0  0  0  0  0  0  0  0  0  # atno 11005 bound_to 11000
  144.7782  140.5785  143.6623 LP  0  0  0  0  0  0  0  0  0  0  0  0  # atno 17320 bound_to 7965
  145.5067  139.1481  143.3627 LP  0  0  0  0  0  0  0  0  0  0  0  0  # atno 17321 bound_to 7965
  139.9083  144.6871  150.8590 LP  0  0  0  0  0  0  0  0  0  0  0  0  # atno 17342 bound_to 10162
  140.7714  143.3462  151.2106 LP  0  0  0  0  0  0  0  0  0  0  0  0  # atno 17343 bound_to 10162
  157.4993  130.7870  149.7587 LP  0  0  0  0  0  0  0  0  0  0  0  0  # atno 17370 bound_to 10713
  155.9993  130.3889  150.2670 LP  0  0  0  0  0  0  0  0  0  0  0  0  # atno 17371 bound_to 10713
  140.0719  134.9697  157.1481 LP  0  0  0  0  0  0  0  0  0  0  0  0  # atno 17394 bound_to 11000
  140.3699  134.2402  155.7179 LP  0  0  0  0  0  0  0  0  0  0  0  0  # atno 17395 bound_to 11000

$$$$
