AV-unprocessed.smi:657|AV-procd|sdf|3226|dock4
  -GOLD-   22720 0163D 1   1.00000     0.00000
 Structure written by MMmdl.
 46 47  0  0  0  0  0  0  0  0  3 V2000
  146.4883  140.0460  154.1339 C   0  0  0  0  0  0  0  0  0  0  0  0
  147.3243  139.1367  153.2122 C   0  0  0  0  0  0  0  0  0  0  0  0
  146.5174  138.6696  151.9885 C   0  0  0  0  0  0  0  0  0  0  0  0
  147.9602  137.9766  153.9245 N   0  3  2  0  0  0  0  0  0  0  0  0
  146.9939  136.8828  154.2388 C   0  0  0  0  0  0  0  0  0  0  0  0
  147.6910  135.6342  154.7922 C   0  0  0  0  0  0  0  0  0  0  0  0
  148.4693  135.9850  156.0598 C   0  0  0  0  0  0  0  0  0  0  0  0
  149.4850  137.0812  155.7335 C   0  0  0  0  0  0  0  0  0  0  0  0
  148.8200  138.3344  155.1067 C   0  0  1  0  0  0  0  0  0  0  0  0
  149.9240  139.3684  154.7944 C   0  0  0  0  0  0  0  0  0  0  0  0
  150.8295  139.0332  154.0245 O   0  0  0  0  0  0  0  0  0  0  0  0
  149.7198  140.5426  155.4576 N   0  5  0  0  0  0  0  0  0  0  0  0
  150.7965  141.3661  155.9997 C   0  0  0  0  0  0  0  0  0  0  0  0
  150.9552  141.0860  157.5066 C   0  0  0  0  0  0  0  0  0  0  0  0
  151.5671  142.2442  158.2561 C   0  0  0  0  0  0  0  0  0  0  0  0
  152.7101  142.2319  159.1083 C   0  0  0  0  0  0  0  0  0  0  0  0
  152.9944  143.4231  159.6090 N   0  0  0  0  0  0  0  0  0  0  0  0
  152.0513  144.2374  159.0932 N   0  0  0  0  0  0  0  0  0  0  0  0
  152.0580  145.6433  159.4361 C   0  0  0  0  0  0  0  0  0  0  0  0
  151.1807  143.5565  158.2701 C   0  0  0  0  0  0  0  0  0  0  0  0
  146.1586  140.9354  153.5961 H   0  0  0  0  0  0  0  0  0  0  0  0
  147.0646  140.3870  154.9938 H   0  0  0  0  0  0  0  0  0  0  0  0
  145.5923  139.5463  154.5023 H   0  0  0  0  0  0  0  0  0  0  0  0
  148.1026  139.7682  152.7887 H   0  0  0  0  0  0  0  0  0  0  0  0
  146.2014  139.5229  151.3876 H   0  0  0  0  0  0  0  0  0  0  0  0
  145.6164  138.1242  152.2670 H   0  0  0  0  0  0  0  0  0  0  0  0
  147.1184  138.0245  151.3467 H   0  0  0  0  0  0  0  0  0  0  0  0
  146.2649  137.2300  154.9715 H   0  0  0  0  0  0  0  0  0  0  0  0
  146.4354  136.5986  153.3484 H   0  0  0  0  0  0  0  0  0  0  0  0
  146.9522  134.8625  155.0114 H   0  0  0  0  0  0  0  0  0  0  0  0
  148.3640  135.2190  154.0408 H   0  0  0  0  0  0  0  0  0  0  0  0
  147.7869  136.3258  156.8396 H   0  0  0  0  0  0  0  0  0  0  0  0
  148.9781  135.1023  156.4484 H   0  0  0  0  0  0  0  0  0  0  0  0
  150.0224  137.3574  156.6420 H   0  0  0  0  0  0  0  0  0  0  0  0
  150.2322  136.6675  155.0541 H   0  0  0  0  0  0  0  0  0  0  0  0
  148.1643  138.7720  155.8611 H   0  0  0  0  0  0  0  0  0  0  0  0
  151.7486  141.1664  155.5056 H   0  0  0  0  0  0  0  0  0  0  0  0
  150.5974  142.4279  155.8516 H   0  0  0  0  0  0  0  0  0  0  0  0
  149.9805  140.8405  157.9302 H   0  0  0  0  0  0  0  0  0  0  0  0
  151.5643  140.1908  157.6404 H   0  0  0  0  0  0  0  0  0  0  0  0
  153.3360  141.3937  159.3773 H   0  0  0  0  0  0  0  0  0  0  0  0
  151.2139  146.1479  158.9652 H   0  0  0  0  0  0  0  0  0  0  0  0
  152.9842  146.1029  159.0902 H   0  0  0  0  0  0  0  0  0  0  0  0
  151.9815  145.7598  160.5176 H   0  0  0  0  0  0  0  0  0  0  0  0
  150.3633  144.0538  157.7688 H   0  0  0  0  0  0  0  0  0  0  0  0
  148.6161  137.5930  153.2584 H   0  0  0  0  0  0  0  0  0  0  0  0
  1  2  1  0  0  0  0
  1 21  1  0  0  0  0
  1 22  1  0  0  0  0
  1 23  1  0  0  0  0
  2  3  1  0  0  0  0
  2  4  1  0  0  0  0
  2 24  1  0  0  0  0
  3 25  1  0  0  0  0
  3 26  1  0  0  0  0
  3 27  1  0  0  0  0
  4  9  1  0  0  0  0
  4  5  1  0  0  0  0
  4 46  1  0  0  0  0
  5  6  1  0  0  0  0
  5 28  1  0  0  0  0
  5 29  1  0  0  0  0
  6  7  1  0  0  0  0
  6 30  1  0  0  0  0
  6 31  1  0  0  0  0
  7  8  1  0  0  0  0
  7 32  1  0  0  0  0
  7 33  1  0  0  0  0
  8  9  1  0  0  0  0
  8 34  1  0  0  0  0
  8 35  1  0  0  0  0
  9 10  1  0  0  0  0
  9 36  1  0  0  0  0
 10 11  2  0  0  0  0
 10 12  1  0  0  0  0
 12 13  1  0  0  0  0
 13 14  1  0  0  0  0
 13 37  1  0  0  0  0
 13 38  1  0  0  0  0
 14 15  1  0  0  0  0
 14 39  1  0  0  0  0
 14 40  1  0  0  0  0
 15 20  2  0  0  0  0
 15 16  1  0  0  0  0
 16 17  2  0  0  0  0
 16 41  1  0  0  0  0
 17 18  1  0  0  0  0
 18 19  1  0  0  0  0
 18 20  1  0  0  0  0
 19 42  1  0  0  0  0
 19 43  1  0  0  0  0
 19 44  1  0  0  0  0
 20 45  1  0  0  0  0
M  CHG  1   4   1
M  CHG  1  12  -1
M  END
> <s_m_source_file>
AV-unprocessed.smi

> <i_m_source_file_index>
657

> <i_lp_mmshare_version>
43012

> <i_f3d_flags>
0

> <s_epik_input>
W0NIM11bQ0hdKFtDSDNdKU4xW0NIMl1bQ0gyXVtDSDJdW0NIMl1bQ0BIXTFDKD1PKVtOSF1bQ0gyXVtDSDJdYzJbY0hdbm4oW0NIM10pW2NIXTI=

> <s_epik_cmdline>
J2VwaWtfcHl0aG9uJywgJy1waCcsICc3LjAnLCAnLXRuJywgJzgnLCAnLW1hJywgJzIwMCcsICctbWV0YWxfYmluZGluZycsICctaW1hZScsICc8aW5maWxlLm1hZT4nLCAnLW9tYWUnLCAnPG91dGZpbGUubWFlPic=

> <r_lp_tautomer_probability>
1

> <r_epik_Ionization_Penalty>
6.1622

> <r_epik_Ionization_Penalty_Charging>
6.16146

> <r_epik_Ionization_Penalty_Neutral>
0.00073675

> <r_epik_State_Penalty>
6.18018

> <r_epik_Charging_Adjusted_Penalty>
12.3416

> <i_epik_Tot_Q>
0

> <i_epik_Tot_abs_Q>
2

> <r_epik_Metal_State_Penalty>
2.12232

> <b_epik_Metal_Only>
1

> <s_lp_Force_Field>
OPLS_2005

> <r_lp_Energy>
11.2403

> <b_lp_Chiralities_Consistent>
1

> <s_lp_Variant>
AV-unprocessed.smi:657-7

> <Gold.Version>
5.8.1

> <Gold.Id.Protein>
6NUR|6NUR_protein|mol2

> <Gold.PLP.Fitness>
43.7163

> <Gold.PLP.PLP>
-33.1701

> <Gold.PLP.part.hbond>
-2.0000

> <Gold.PLP.part.metal>
0.0000

> <Gold.PLP.part.buried>
-1.0324

> <Gold.PLP.part.nonpolar>
-30.6532

> <Gold.PLP.part.repulsive>
0.2828

> <Gold.PLP.ligand.clash>
0.0000

> <Gold.PLP.ligand.torsion>
0.7229

> <Gold.PLP.Chemscore.Hbond>
2.8788

> <Gold.PLP.Chemscore.CHOScore>
0.9958

> <Gold.PLP.Chemscore.Metal>
0.0000

> <Gold.Chemscore.Hbonds>
donor molecule, donor type, donor heavy atom, donor atom, acceptor molecule, acceptor atom, score
      L1  H     4    46       P1  7948  1.92
      P1  H  7989  7998       L1    11  0.93
      L1  C    20    45       P1  8028  0.74

> <Gold.PLP.Chemscore.Internal.Correction>
0.3685

> <Gold.Rescore>
     Score         DG    S(hbond)    S(metal)    S(lipo)     H(rot)  DE(clash)    DE(int)     intcor
     15.56     -16.29       1.47        0.00      84.89       1.57       0.10       0.63       ----

> <Gold.Chemscore.Fitness>
15.5575

> <Gold.Chemscore.DG>
-16.2854

> <Gold.Chemscore.ZeroCoef>
-5.4800

> <Gold.Chemscore.Hbond>
1.4680

> <Gold.Chemscore.Metal>
0.0000

> <Gold.Chemscore.Lipo>
84.8874

> <Gold.Chemscore.Internal_Hbond>
0.0000

> <Gold.Chemscore.DEClash>
0.0971

> <Gold.Chemscore.DEInternal>
0.6307

> <Gold.Chemscore.Rot>
1.5741

> <Gold.Chemscore.Internal.Correction>
   9.000000E+99

> <Gold.Chemscore.Hbonds>
donor molecule, donor type, donor heavy atom, donor atom, acceptor molecule, acceptor atom, score
      L1  H     4    46       P1  7948  0.91
      P1  H  7989  7998       L1    11  0.35

> <Gold.Chemscore.Hbond.Weighted>
-4.9032

> <Gold.Chemscore.Metal.Weighted>
-0.0000

> <Gold.Chemscore.Lipo.Weighted>
-9.9318

> <Gold.Chemscore.Internal_Hbond.Weighted>
0.0000

> <Gold.Chemscore.DEClash.Weighted>
0.0971

> <Gold.Chemscore.DEInternal.Weighted>
0.6307

> <Gold.Chemscore.Rot.Weighted>
4.0297

> <Gold.Chemscore.Internal.Correction.Weighted>
   9.000000E+99

> <Gold.Protein.RotatedTorsions>
[ 6907 6896 6895 6894 ] final  110.79 input  -60.11 | X-H torsion
[ 7974 7965 7964 7962 ] final  -51.55 input  175.53 | X-H torsion
[ 8008 7997 7996 7995 ] final   75.26 input   59.86 | X-H torsion
[ 10167 10162 10161 10158 ] final  -14.98 input  -65.29 | X-H torsion
[ 10718 10713 10712 10709 ] final  -52.55 input   66.30 | X-H torsion
[ 10763 10752 10751 10750 ] final  -65.07 input  -60.55 | X-H torsion
[ 11005 11000 10999 10996 ] final  -49.31 input  -57.11 | X-H torsion

> <Gold.Protein.ActiveResidues>
 VAL166  LYS551  ARG553  GLY616  TRP617  ASP618  TYR619  PRO620  LYS621  CYS622 
 ASP623  PHE694  ASN695  SER759  ASP760  ASP761  ALA762  ILE779  LEU786  VAL792 
 PHE793  MET794  SER795  GLU796  ALA797  LYS798  CYS799  TRP800  GLU811  SER814 

> <Gold.Protein.RotatedAtoms>
  152.5002  133.8750  159.7317 H   0  0  0  0  0  0  0  0  0  0  0  0  # atno 6907 bound_to 6896
  150.9227  133.6852  159.2835 H   0  0  0  0  0  0  0  0  0  0  0  0  # atno 6908 bound_to 6896
  151.4224  135.1004  159.9670 H   0  0  0  0  0  0  0  0  0  0  0  0  # atno 6909 bound_to 6896
  145.9177  140.7861  142.9663 H   0  0  0  0  0  0  0  0  0  0  0  0  # atno 7974 bound_to 7965
  155.8104  140.3473  155.5454 H   0  0  0  0  0  0  0  0  0  0  0  0  # atno 8008 bound_to 7997
  155.8447  140.0947  157.1733 H   0  0  0  0  0  0  0  0  0  0  0  0  # atno 8009 bound_to 7997
  154.4006  140.1388  156.3758 H   0  0  0  0  0  0  0  0  0  0  0  0  # atno 8010 bound_to 7997
  140.7211  143.5265  150.9571 H   0  0  0  0  0  0  0  0  0  0  0  0  # atno 10167 bound_to 10162
  156.1612  130.4149  149.9791 H   0  0  0  0  0  0  0  0  0  0  0  0  # atno 10718 bound_to 10713
  154.3395  135.6159  153.5589 H   0  0  0  0  0  0  0  0  0  0  0  0  # atno 10763 bound_to 10752
  152.9805  135.5766  154.4869 H   0  0  0  0  0  0  0  0  0  0  0  0  # atno 10764 bound_to 10752
  154.4571  135.2854  155.1717 H   0  0  0  0  0  0  0  0  0  0  0  0  # atno 10765 bound_to 10752
  141.0752  133.6668  156.3567 H   0  0  0  0  0  0  0  0  0  0  0  0  # atno 11005 bound_to 11000
  144.6749  140.1926  143.7395 LP  0  0  0  0  0  0  0  0  0  0  0  0  # atno 17320 bound_to 7965
  145.8590  139.2213  143.1727 LP  0  0  0  0  0  0  0  0  0  0  0  0  # atno 17321 bound_to 7965
  139.8984  143.6866  152.3135 LP  0  0  0  0  0  0  0  0  0  0  0  0  # atno 17342 bound_to 10162
  139.7207  144.7603  151.0960 LP  0  0  0  0  0  0  0  0  0  0  0  0  # atno 17343 bound_to 10162
  156.7620  130.9154  151.3641 LP  0  0  0  0  0  0  0  0  0  0  0  0  # atno 17370 bound_to 10713
  157.6733  130.9071  150.0092 LP  0  0  0  0  0  0  0  0  0  0  0  0  # atno 17371 bound_to 10713
  140.5589  134.5953  157.5428 LP  0  0  0  0  0  0  0  0  0  0  0  0  # atno 17394 bound_to 11000
  139.9564  134.7528  156.0333 LP  0  0  0  0  0  0  0  0  0  0  0  0  # atno 17395 bound_to 11000

$$$$
