AV-unprocessed.smi:2772|AV-procd|sdf|10674|dock3
  -GOLD-   2272015123D 1   1.00000     0.00000
 Structure written by MMmdl.
 56 58  0  0  0  0  0  0  0  0  4 V2000
  153.8776  143.2173  164.1956 C   0  0  0  0  0  0  0  0  0  0  0  0
  153.6340  142.5231  162.8723 C   0  0  0  0  0  0  0  0  0  0  0  0
  152.6195  142.9286  161.9801 C   0  0  0  0  0  0  0  0  0  0  0  0
  152.4504  142.2295  160.7668 C   0  0  0  0  0  0  0  0  0  0  0  0
  153.2885  141.1331  160.4655 C   0  0  0  0  0  0  0  0  0  0  0  0
  153.0848  140.4641  159.2267 N   0  0  0  0  0  0  0  0  0  0  0  0
  152.0566  140.5864  158.3682 C   0  0  0  0  0  0  0  0  0  0  0  0
  151.0979  141.3437  158.5146 O   0  0  0  0  0  0  0  0  0  0  0  0
  152.2105  139.7820  157.3054 N   0  0  0  0  0  0  0  0  0  0  0  0
  151.2844  139.6743  156.1794 C   0  0  2  0  0  0  0  0  0  0  0  0
  150.7407  141.0552  155.8023 C   0  0  0  0  0  0  0  0  0  0  0  0
  149.7152  140.9564  154.6601 C   0  0  0  0  0  0  0  0  0  0  0  0
  148.5790  140.0416  154.9849 N   0  3  1  0  0  0  0  0  0  0  0  0
  147.5382  139.9759  153.8998 C   0  0  2  0  0  0  0  0  0  0  0  0
  147.1918  141.3498  153.2715 C   0  0  0  0  0  0  0  0  0  0  0  0
  146.4575  142.2689  154.2658 C   0  0  0  0  0  0  0  0  0  0  0  0
  145.2114  141.6312  154.7601 N   0  3  2  0  0  0  0  0  0  0  0  0
  144.4403  142.5182  155.6579 C   0  0  0  0  0  0  0  0  0  0  0  0
  145.4594  140.2953  155.3581 C   0  0  0  0  0  0  0  0  0  0  0  0
  146.1886  139.3726  154.3637 C   0  0  0  0  0  0  0  0  0  0  0  0
  149.0854  138.6959  155.3932 C   0  0  0  0  0  0  0  0  0  0  0  0
  150.1034  138.7702  156.5437 C   0  0  0  0  0  0  0  0  0  0  0  0
  154.2988  140.7838  161.3966 C   0  0  0  0  0  0  0  0  0  0  0  0
  154.4283  141.4797  162.5471 N   0  3  0  0  0  0  0  0  0  0  0  0
  153.1624  144.0250  164.3541 H   0  0  0  0  0  0  0  0  0  0  0  0
  154.8820  143.6408  164.2234 H   0  0  0  0  0  0  0  0  0  0  0  0
  153.7793  142.5096  165.0195 H   0  0  0  0  0  0  0  0  0  0  0  0
  151.9768  143.7636  162.2192 H   0  0  0  0  0  0  0  0  0  0  0  0
  151.6760  142.5330  160.0771 H   0  0  0  0  0  0  0  0  0  0  0  0
  153.8351  139.8539  158.9361 H   0  0  0  0  0  0  0  0  0  0  0  0
  153.0335  139.1981  157.2720 H   0  0  0  0  0  0  0  0  0  0  0  0
  151.7875  139.2520  155.3073 H   0  0  0  0  0  0  0  0  0  0  0  0
  150.2745  141.5237  156.6705 H   0  0  0  0  0  0  0  0  0  0  0  0
  151.5607  141.7090  155.5018 H   0  0  0  0  0  0  0  0  0  0  0  0
  149.3619  141.9689  154.4797 H   0  0  0  0  0  0  0  0  0  0  0  0
  150.2046  140.6189  153.7451 H   0  0  0  0  0  0  0  0  0  0  0  0
  147.9424  139.3379  153.1120 H   0  0  0  0  0  0  0  0  0  0  0  0
  148.0599  141.8503  152.8471 H   0  0  0  0  0  0  0  0  0  0  0  0
  146.5383  141.1841  152.4135 H   0  0  0  0  0  0  0  0  0  0  0  0
  147.1069  142.5145  155.1074 H   0  0  0  0  0  0  0  0  0  0  0  0
  146.2085  143.2101  153.7737 H   0  0  0  0  0  0  0  0  0  0  0  0
  145.0053  142.7490  156.5620 H   0  0  0  0  0  0  0  0  0  0  0  0
  143.5016  142.0475  155.9520 H   0  0  0  0  0  0  0  0  0  0  0  0
  144.1981  143.4561  155.1569 H   0  0  0  0  0  0  0  0  0  0  0  0
  146.0410  140.4021  156.2752 H   0  0  0  0  0  0  0  0  0  0  0  0
  144.5066  139.8447  155.6391 H   0  0  0  0  0  0  0  0  0  0  0  0
  145.5489  139.2383  153.4900 H   0  0  0  0  0  0  0  0  0  0  0  0
  146.2918  138.3692  154.7712 H   0  0  0  0  0  0  0  0  0  0  0  0
  148.2740  138.0617  155.7427 H   0  0  0  0  0  0  0  0  0  0  0  0
  149.5319  138.1981  154.5310 H   0  0  0  0  0  0  0  0  0  0  0  0
  150.4616  137.7672  156.7803 H   0  0  0  0  0  0  0  0  0  0  0  0
  149.6104  139.1424  157.4432 H   0  0  0  0  0  0  0  0  0  0  0  0
  155.0159  139.9873  161.2706 H   0  0  0  0  0  0  0  0  0  0  0  0
  148.1263  140.4327  155.7983 H   0  0  0  0  0  0  0  0  0  0  0  0
  144.6290  141.4762  153.9490 H   0  0  0  0  0  0  0  0  0  0  0  0
  155.1625  141.2049  163.2003 H   0  0  0  0  0  0  0  0  0  0  0  0
  1  2  1  0  0  0  0
  1 25  1  0  0  0  0
  1 26  1  0  0  0  0
  1 27  1  0  0  0  0
  2 24  1  0  0  0  0
  2  3  2  0  0  0  0
  3  4  1  0  0  0  0
  3 28  1  0  0  0  0
  4  5  2  0  0  0  0
  4 29  1  0  0  0  0
  5  6  1  0  0  0  0
  5 23  1  0  0  0  0
  6  7  1  0  0  0  0
  6 30  1  0  0  0  0
  7  8  2  0  0  0  0
  7  9  1  0  0  0  0
  9 10  1  0  0  0  0
  9 31  1  0  0  0  0
 10 22  1  0  0  0  0
 10 11  1  0  0  0  0
 10 32  1  0  0  0  0
 11 12  1  0  0  0  0
 11 33  1  0  0  0  0
 11 34  1  0  0  0  0
 12 13  1  0  0  0  0
 12 35  1  0  0  0  0
 12 36  1  0  0  0  0
 13 14  1  0  0  0  0
 13 21  1  0  0  0  0
 13 54  1  0  0  0  0
 14 20  1  0  0  0  0
 14 15  1  0  0  0  0
 14 37  1  0  0  0  0
 15 16  1  0  0  0  0
 15 38  1  0  0  0  0
 15 39  1  0  0  0  0
 16 17  1  0  0  0  0
 16 40  1  0  0  0  0
 16 41  1  0  0  0  0
 17 18  1  0  0  0  0
 17 19  1  0  0  0  0
 17 55  1  0  0  0  0
 18 42  1  0  0  0  0
 18 43  1  0  0  0  0
 18 44  1  0  0  0  0
 19 20  1  0  0  0  0
 19 45  1  0  0  0  0
 19 46  1  0  0  0  0
 20 47  1  0  0  0  0
 20 48  1  0  0  0  0
 21 22  1  0  0  0  0
 21 49  1  0  0  0  0
 21 50  1  0  0  0  0
 22 51  1  0  0  0  0
 22 52  1  0  0  0  0
 23 24  2  0  0  0  0
 23 53  1  0  0  0  0
 24 56  1  0  0  0  0
M  CHG  1  13   1
M  CHG  1  17   1
M  CHG  1  24   1
M  END
> <s_m_source_file>
AV-unprocessed.smi

> <i_m_source_file_index>
2772

> <i_lp_mmshare_version>
43012

> <i_f3d_flags>
0

> <s_epik_input>
W0NIM11jMVtjSF1bY0hdYyhbY0hdbjEpW05IXUMoPU8pW05IXVtDSF0yW0NIMl1bQ0gyXU4oW0NIMl1bQ0gyXTIpW0NIXTNbQ0gyXVtDSDJdTihbQ0gzXSlbQ0gyXVtDSDJdMw==

> <s_epik_cmdline>
J2VwaWtfcHl0aG9uJywgJy1waCcsICc3LjAnLCAnLXRuJywgJzgnLCAnLW1hJywgJzIwMCcsICctbWV0YWxfYmluZGluZycsICctaW1hZScsICc8aW5maWxlLm1hZT4nLCAnLW9tYWUnLCAnPG91dGZpbGUubWFlPic=

> <r_epik_Ionization_Penalty>
2.34117

> <r_epik_Ionization_Penalty_Charging>
2.34115

> <r_epik_Ionization_Penalty_Neutral>
2.22786e-05

> <r_epik_State_Penalty>
2.43944

> <r_epik_Charging_Adjusted_Penalty>
4.78059

> <i_epik_Tot_Q>
3

> <i_epik_Tot_abs_Q>
3

> <r_epik_Metal_State_Penalty>
2.45906

> <b_epik_Metal_Only>
0

> <s_lp_Force_Field>
OPLS_2005

> <r_lp_Energy>
56.0688

> <b_lp_Chiralities_Consistent>
1

> <s_lp_Variant>
AV-unprocessed.smi:2772-11

> <Gold.Version>
5.8.1

> <Gold.Id.Protein>
6NUR|6NUR_protein|mol2

> <Gold.PLP.Fitness>
48.9546

> <Gold.PLP.PLP>
-43.9452

> <Gold.PLP.part.hbond>
-2.0000

> <Gold.PLP.part.metal>
0.0000

> <Gold.PLP.part.buried>
-4.4872

> <Gold.PLP.part.nonpolar>
-36.1935

> <Gold.PLP.part.repulsive>
0.2554

> <Gold.PLP.ligand.clash>
0.0000

> <Gold.PLP.ligand.torsion>
0.5107

> <Gold.PLP.Chemscore.Hbond>
2.0000

> <Gold.PLP.Chemscore.CHOScore>
0.0000

> <Gold.PLP.Chemscore.Metal>
0.0000

> <Gold.Chemscore.Hbonds>
donor molecule, donor type, donor heavy atom, donor atom, acceptor molecule, acceptor atom, score
      L1  H    17    55       P1 10175  2.00

> <Gold.PLP.Chemscore.Internal.Correction>
0.0308

> <Gold.Rescore>
     Score         DG    S(hbond)    S(metal)    S(lipo)     H(rot)  DE(clash)    DE(int)     intcor
     15.39     -19.00       0.94        0.00     115.54       1.22       0.31       3.30       ----

> <Gold.Chemscore.Fitness>
15.3932

> <Gold.Chemscore.DG>
-18.9997

> <Gold.Chemscore.ZeroCoef>
-5.4800

> <Gold.Chemscore.Hbond>
0.9373

> <Gold.Chemscore.Metal>
0.0000

> <Gold.Chemscore.Lipo>
115.5392

> <Gold.Chemscore.Internal_Hbond>
0.0000

> <Gold.Chemscore.DEClash>
0.3081

> <Gold.Chemscore.DEInternal>
3.2984

> <Gold.Chemscore.Rot>
1.2222

> <Gold.Chemscore.Internal.Correction>
   9.000000E+99

> <Gold.Chemscore.Hbonds>
donor molecule, donor type, donor heavy atom, donor atom, acceptor molecule, acceptor atom, score
      L1  H    17    55       P1 10175  0.25

> <Gold.Chemscore.Hbond.Weighted>
-3.1305

> <Gold.Chemscore.Metal.Weighted>
-0.0000

> <Gold.Chemscore.Lipo.Weighted>
-13.5181

> <Gold.Chemscore.Internal_Hbond.Weighted>
0.0000

> <Gold.Chemscore.DEClash.Weighted>
0.3081

> <Gold.Chemscore.DEInternal.Weighted>
3.2984

> <Gold.Chemscore.Rot.Weighted>
3.1289

> <Gold.Chemscore.Internal.Correction.Weighted>
   9.000000E+99

> <Gold.Protein.RotatedTorsions>
[ 6907 6896 6895 6894 ] final   -6.98 input  -60.11 | X-H torsion
[ 7974 7965 7964 7962 ] final  -11.64 input  175.53 | X-H torsion
[ 8008 7997 7996 7995 ] final  136.02 input   59.86 | X-H torsion
[ 10167 10162 10161 10158 ] final   90.31 input  -65.29 | X-H torsion
[ 10718 10713 10712 10709 ] final   72.70 input   66.30 | X-H torsion
[ 10763 10752 10751 10750 ] final -133.38 input  -60.55 | X-H torsion
[ 11005 11000 10999 10996 ] final -101.07 input  -57.11 | X-H torsion

> <Gold.Protein.ActiveResidues>
 VAL166  LYS551  ARG553  GLY616  TRP617  ASP618  TYR619  PRO620  LYS621  CYS622 
 ASP623  PHE694  ASN695  SER759  ASP760  ASP761  ALA762  ILE779  LEU786  VAL792 
 PHE793  MET794  SER795  GLU796  ALA797  LYS798  CYS799  TRP800  GLU811  SER814 

> <Gold.Protein.RotatedAtoms>
  151.4569  135.1035  159.9713 H   0  0  0  0  0  0  0  0  0  0  0  0  # atno 6907 bound_to 6896
  152.4867  133.8389  159.7152 H   0  0  0  0  0  0  0  0  0  0  0  0  # atno 6908 bound_to 6896
  150.8984  133.7091  159.2912 H   0  0  0  0  0  0  0  0  0  0  0  0  # atno 6909 bound_to 6896
  146.2180  140.2941  142.8370 H   0  0  0  0  0  0  0  0  0  0  0  0  # atno 7974 bound_to 7965
  156.3004  140.2456  156.3676 H   0  0  0  0  0  0  0  0  0  0  0  0  # atno 8008 bound_to 7997
  154.8818  140.0412  157.1806 H   0  0  0  0  0  0  0  0  0  0  0  0  # atno 8009 bound_to 7997
  154.8688  140.2932  155.5498 H   0  0  0  0  0  0  0  0  0  0  0  0  # atno 8010 bound_to 7997
  139.8486  144.6605  150.9197 H   0  0  0  0  0  0  0  0  0  0  0  0  # atno 10167 bound_to 10162
  157.6513  130.9592  150.0966 H   0  0  0  0  0  0  0  0  0  0  0  0  # atno 10718 bound_to 10713
  154.8733  135.3768  154.4564 H   0  0  0  0  0  0  0  0  0  0  0  0  # atno 10763 bound_to 10752
  153.5235  135.7028  153.5724 H   0  0  0  0  0  0  0  0  0  0  0  0  # atno 10764 bound_to 10752
  153.3960  135.3960  155.1921 H   0  0  0  0  0  0  0  0  0  0  0  0  # atno 10765 bound_to 10752
  141.1246  133.8448  157.1184 H   0  0  0  0  0  0  0  0  0  0  0  0  # atno 11005 bound_to 11000
  144.9105  140.7751  143.5810 LP  0  0  0  0  0  0  0  0  0  0  0  0  # atno 17320 bound_to 7965
  145.2872  139.1897  143.4760 LP  0  0  0  0  0  0  0  0  0  0  0  0  # atno 17321 bound_to 7965
  140.7790  143.3848  151.1413 LP  0  0  0  0  0  0  0  0  0  0  0  0  # atno 17342 bound_to 10162
  139.7488  143.8811  152.3071 LP  0  0  0  0  0  0  0  0  0  0  0  0  # atno 17343 bound_to 10162
  156.1900  130.3654  149.8922 LP  0  0  0  0  0  0  0  0  0  0  0  0  # atno 17370 bound_to 10713
  156.6853  130.8874  151.3581 LP  0  0  0  0  0  0  0  0  0  0  0  0  # atno 17371 bound_to 10713
  140.0232  134.9936  157.0634 LP  0  0  0  0  0  0  0  0  0  0  0  0  # atno 17394 bound_to 11000
  140.4405  134.1686  155.7173 LP  0  0  0  0  0  0  0  0  0  0  0  0  # atno 17395 bound_to 11000

$$$$
