AV-unprocessed.smi:502|AV-procd|sdf|2744|dock2
  -GOLD-   2262023203D 1   1.00000     0.00000
 Structure written by MMmdl.
 48 50  0  0  0  0  0  0  0  0  1 V2000
  150.1780  135.2456  154.5898 C   0  0  0  0  0  0  0  0  0  0  0  0
  151.0466  136.4345  154.9840 C   0  0  0  0  0  0  0  0  0  0  0  0
  151.3332  136.6264  156.1651 O   0  0  0  0  0  0  0  0  0  0  0  0
  151.4495  137.2320  153.9841 N   0  0  0  0  0  0  0  0  0  0  0  0
  152.2744  138.4250  154.1464 C   0  0  0  0  0  0  0  0  0  0  0  0
  151.8274  139.3023  155.3315 C   0  0  0  0  0  0  0  0  0  0  0  0
  150.4822  139.9428  155.1374 C   0  0  0  0  0  0  0  0  0  0  0  0
  149.7234  139.6521  154.0796 N   0  0  0  0  0  0  0  0  0  0  0  0
  148.6099  140.4449  154.2735 C   0  0  0  0  0  0  0  0  0  0  0  0
  147.4425  140.5962  153.4914 C   0  0  0  0  0  0  0  0  0  0  0  0
  146.4249  141.4865  153.8924 C   0  0  0  0  0  0  0  0  0  0  0  0
  146.5591  142.2357  155.0791 C   0  0  0  0  0  0  0  0  0  0  0  0
  147.7133  142.0979  155.8739 C   0  0  0  0  0  0  0  0  0  0  0  0
  148.7263  141.2075  155.4693 C   0  0  0  0  0  0  0  0  0  0  0  0
  149.9610  140.8500  156.0035 N   0  0  0  0  0  0  0  0  0  0  0  0
  150.5444  141.3814  157.2275 C   0  0  0  0  0  0  0  0  0  0  0  0
  151.4563  142.5855  156.9530 C   0  0  0  0  0  0  0  0  0  0  0  0
  151.4222  143.4556  158.0761 O   0  0  0  0  0  0  0  0  0  0  0  0
  152.0677  143.0699  159.2313 C   0  0  0  0  0  0  0  0  0  0  0  0
  152.8456  141.8895  159.3410 C   0  0  0  0  0  0  0  0  0  0  0  0
  153.4734  141.5578  160.5568 C   0  0  0  0  0  0  0  0  0  0  0  0
  153.3322  142.3978  161.6759 C   0  0  0  0  0  0  0  0  0  0  0  0
  152.5629  143.5714  161.5781 C   0  0  0  0  0  0  0  0  0  0  0  0
  151.9324  143.9088  160.3620 C   0  0  0  0  0  0  0  0  0  0  0  0
  151.1118  145.1820  160.2690 C   0  0  0  0  0  0  0  0  0  0  0  0
  150.7348  134.5643  153.9459 H   0  0  0  0  0  0  0  0  0  0  0  0
  149.2913  135.5840  154.0528 H   0  0  0  0  0  0  0  0  0  0  0  0
  149.8525  134.6935  155.4723 H   0  0  0  0  0  0  0  0  0  0  0  0
  151.1616  137.0002  153.0442 H   0  0  0  0  0  0  0  0  0  0  0  0
  153.3243  138.1489  154.2570 H   0  0  0  0  0  0  0  0  0  0  0  0
  152.2076  138.9999  153.2224 H   0  0  0  0  0  0  0  0  0  0  0  0
  151.8423  138.7186  156.2506 H   0  0  0  0  0  0  0  0  0  0  0  0
  152.5596  140.0961  155.4831 H   0  0  0  0  0  0  0  0  0  0  0  0
  147.3311  140.0282  152.5797 H   0  0  0  0  0  0  0  0  0  0  0  0
  145.5378  141.5964  153.2861 H   0  0  0  0  0  0  0  0  0  0  0  0
  145.7765  142.9173  155.3785 H   0  0  0  0  0  0  0  0  0  0  0  0
  147.8215  142.6755  156.7798 H   0  0  0  0  0  0  0  0  0  0  0  0
  149.7351  141.6759  157.8962 H   0  0  0  0  0  0  0  0  0  0  0  0
  151.0908  140.5962  157.7466 H   0  0  0  0  0  0  0  0  0  0  0  0
  152.4744  142.2390  156.7712 H   0  0  0  0  0  0  0  0  0  0  0  0
  151.1131  143.1108  156.0605 H   0  0  0  0  0  0  0  0  0  0  0  0
  152.9739  141.2182  158.5058 H   0  0  0  0  0  0  0  0  0  0  0  0
  154.0634  140.6562  160.6304 H   0  0  0  0  0  0  0  0  0  0  0  0
  153.8137  142.1420  162.6083 H   0  0  0  0  0  0  0  0  0  0  0  0
  152.4600  144.2128  162.4413 H   0  0  0  0  0  0  0  0  0  0  0  0
  151.1203  145.7332  161.2097 H   0  0  0  0  0  0  0  0  0  0  0  0
  150.0761  144.9479  160.0215 H   0  0  0  0  0  0  0  0  0  0  0  0
  151.5110  145.8342  159.4914 H   0  0  0  0  0  0  0  0  0  0  0  0
  1  2  1  0  0  0  0
  1 26  1  0  0  0  0
  1 27  1  0  0  0  0
  1 28  1  0  0  0  0
  2  3  2  0  0  0  0
  2  4  1  0  0  0  0
  4  5  1  0  0  0  0
  4 29  1  0  0  0  0
  5  6  1  0  0  0  0
  5 30  1  0  0  0  0
  5 31  1  0  0  0  0
  6  7  1  0  0  0  0
  6 32  1  0  0  0  0
  6 33  1  0  0  0  0
  7 15  1  0  0  0  0
  7  8  2  0  0  0  0
  8  9  1  0  0  0  0
  9 14  2  0  0  0  0
  9 10  1  0  0  0  0
 10 11  2  0  0  0  0
 10 34  1  0  0  0  0
 11 12  1  0  0  0  0
 11 35  1  0  0  0  0
 12 13  2  0  0  0  0
 12 36  1  0  0  0  0
 13 14  1  0  0  0  0
 13 37  1  0  0  0  0
 14 15  1  0  0  0  0
 15 16  1  0  0  0  0
 16 17  1  0  0  0  0
 16 38  1  0  0  0  0
 16 39  1  0  0  0  0
 17 18  1  0  0  0  0
 17 40  1  0  0  0  0
 17 41  1  0  0  0  0
 18 19  1  0  0  0  0
 19 24  1  0  0  0  0
 19 20  2  0  0  0  0
 20 21  1  0  0  0  0
 20 42  1  0  0  0  0
 21 22  2  0  0  0  0
 21 43  1  0  0  0  0
 22 23  1  0  0  0  0
 22 44  1  0  0  0  0
 23 24  2  0  0  0  0
 23 45  1  0  0  0  0
 24 25  1  0  0  0  0
 25 46  1  0  0  0  0
 25 47  1  0  0  0  0
 25 48  1  0  0  0  0
M  END
> <s_m_source_file>
AV-unprocessed.smi

> <i_m_source_file_index>
502

> <i_lp_mmshare_version>
43012

> <i_f3d_flags>
0

> <s_epik_input>
W0NIM11DKD1PKVtOSF1bQ0gyXVtDSDJdYyhuMSluKGMoYzEyKVtjSF1bY0hdW2NIXVtjSF0yKVtDSDJdW0NIMl1PYzNbY0hdW2NIXVtjSF1bY0hdYzNbQ0gzXQ==

> <s_epik_cmdline>
J2VwaWtfcHl0aG9uJywgJy1waCcsICc3LjAnLCAnLXRuJywgJzgnLCAnLW1hJywgJzIwMCcsICctbWV0YWxfYmluZGluZycsICctaW1hZScsICc8aW5maWxlLm1hZT4nLCAnLW9tYWUnLCAnPG91dGZpbGUubWFlPic=

> <r_lp_tautomer_probability>
1

> <r_epik_Ionization_Penalty>
0.0991824

> <r_epik_Ionization_Penalty_Charging>
0

> <r_epik_Ionization_Penalty_Neutral>
0.0991824

> <r_epik_State_Penalty>
0.0892428

> <r_epik_Charging_Adjusted_Penalty>
0.0892428

> <i_epik_Tot_Q>
0

> <i_epik_Tot_abs_Q>
0

> <r_epik_Metal_State_Penalty>
0.076345

> <b_epik_Metal_Only>
0

> <s_lp_Force_Field>
OPLS_2005

> <r_lp_Energy>
12.9543

> <b_lp_Chiralities_Consistent>
1

> <s_lp_Variant>
AV-unprocessed.smi:502-1

> <Gold.Version>
5.8.1

> <Gold.Id.Protein>
6NUR|6NUR_protein|mol2

> <Gold.PLP.Fitness>
56.2635

> <Gold.PLP.PLP>
-54.6275

> <Gold.PLP.part.hbond>
-1.1526

> <Gold.PLP.part.metal>
0.0000

> <Gold.PLP.part.buried>
-3.9004

> <Gold.PLP.part.nonpolar>
-51.4759

> <Gold.PLP.part.repulsive>
1.1657

> <Gold.PLP.ligand.clash>
0.0000

> <Gold.PLP.ligand.torsion>
0.7688

> <Gold.PLP.Chemscore.Hbond>
1.0000

> <Gold.PLP.Chemscore.CHOScore>
0.0000

> <Gold.PLP.Chemscore.Metal>
0.0000

> <Gold.Chemscore.Hbonds>
donor molecule, donor type, donor heavy atom, donor atom, acceptor molecule, acceptor atom, score
      L1  H     4    29       P1  7949  1.00

> <Gold.PLP.Chemscore.Internal.Correction>
0.1736

> <Gold.Rescore>
     Score         DG    S(hbond)    S(metal)    S(lipo)     H(rot)  DE(clash)    DE(int)     intcor
     15.32     -19.84       0.70        0.00     148.92       2.11       1.15       3.37       ----

> <Gold.Chemscore.Fitness>
15.3187

> <Gold.Chemscore.DG>
-19.8368

> <Gold.Chemscore.ZeroCoef>
-5.4800

> <Gold.Chemscore.Hbond>
0.6973

> <Gold.Chemscore.Metal>
0.0000

> <Gold.Chemscore.Lipo>
148.9225

> <Gold.Chemscore.Internal_Hbond>
0.0000

> <Gold.Chemscore.DEClash>
1.1476

> <Gold.Chemscore.DEInternal>
3.3706

> <Gold.Chemscore.Rot>
2.1078

> <Gold.Chemscore.Internal.Correction>
   9.000000E+99

> <Gold.Chemscore.Hbonds>
donor molecule, donor type, donor heavy atom, donor atom, acceptor molecule, acceptor atom, score
      L1  H     4    29       P1  7949  0.49

> <Gold.Chemscore.Hbond.Weighted>
-2.3290

> <Gold.Chemscore.Metal.Weighted>
-0.0000

> <Gold.Chemscore.Lipo.Weighted>
-17.4239

> <Gold.Chemscore.Internal_Hbond.Weighted>
0.0000

> <Gold.Chemscore.DEClash.Weighted>
1.1476

> <Gold.Chemscore.DEInternal.Weighted>
3.3706

> <Gold.Chemscore.Rot.Weighted>
5.3961

> <Gold.Chemscore.Internal.Correction.Weighted>
   9.000000E+99

> <Gold.Protein.RotatedTorsions>
[ 6907 6896 6895 6894 ] final   66.56 input  -60.11 | X-H torsion
[ 7974 7965 7964 7962 ] final  131.49 input  175.53 | X-H torsion
[ 8008 7997 7996 7995 ] final   90.31 input   59.86 | X-H torsion
[ 10167 10162 10161 10158 ] final -103.45 input  -65.29 | X-H torsion
[ 10718 10713 10712 10709 ] final   76.05 input   66.30 | X-H torsion
[ 10763 10752 10751 10750 ] final  177.86 input  -60.55 | X-H torsion
[ 11005 11000 10999 10996 ] final  134.56 input  -57.11 | X-H torsion

> <Gold.Protein.ActiveResidues>
 VAL166  LYS551  ARG553  GLY616  TRP617  ASP618  TYR619  PRO620  LYS621  CYS622 
 ASP623  PHE694  ASN695  SER759  ASP760  ASP761  ALA762  ILE779  LEU786  VAL792 
 PHE793  MET794  SER795  GLU796  ALA797  LYS798  CYS799  TRP800  GLU811  SER814 

> <Gold.Protein.RotatedAtoms>
  152.4490  134.5435  159.9845 H   0  0  0  0  0  0  0  0  0  0  0  0  # atno 6907 bound_to 6896
  151.5512  133.3411  159.2961 H   0  0  0  0  0  0  0  0  0  0  0  0  # atno 6908 bound_to 6896
  150.8413  134.7738  159.6998 H   0  0  0  0  0  0  0  0  0  0  0  0  # atno 6909 bound_to 6896
  145.0068  139.4259  143.5265 H   0  0  0  0  0  0  0  0  0  0  0  0  # atno 7974 bound_to 7965
  156.0104  140.3351  155.6935 H   0  0  0  0  0  0  0  0  0  0  0  0  # atno 8008 bound_to 7997
  155.6166  140.0670  157.2708 H   0  0  0  0  0  0  0  0  0  0  0  0  # atno 8009 bound_to 7997
  154.4279  140.1784  156.1315 H   0  0  0  0  0  0  0  0  0  0  0  0  # atno 8010 bound_to 7997
  140.2198  143.3684  152.0979 H   0  0  0  0  0  0  0  0  0  0  0  0  # atno 10167 bound_to 10162
  157.6658  130.9756  150.1442 H   0  0  0  0  0  0  0  0  0  0  0  0  # atno 10718 bound_to 10713
  154.5001  135.2783  155.1428 H   0  0  0  0  0  0  0  0  0  0  0  0  # atno 10763 bound_to 10752
  154.3064  135.6237  153.5450 H   0  0  0  0  0  0  0  0  0  0  0  0  # atno 10764 bound_to 10752
  152.9901  135.5709  154.5442 H   0  0  0  0  0  0  0  0  0  0  0  0  # atno 10765 bound_to 10752
  139.9923  134.9510  156.9884 H   0  0  0  0  0  0  0  0  0  0  0  0  # atno 11005 bound_to 11000
  146.3462  139.9488  142.8731 LP  0  0  0  0  0  0  0  0  0  0  0  0  # atno 17320 bound_to 7965
  145.2078  140.9882  143.4118 LP  0  0  0  0  0  0  0  0  0  0  0  0  # atno 17321 bound_to 7965
  139.5148  144.6954  151.5646 LP  0  0  0  0  0  0  0  0  0  0  0  0  # atno 17342 bound_to 10162
  140.6263  143.9162  150.6567 LP  0  0  0  0  0  0  0  0  0  0  0  0  # atno 17343 bound_to 10162
  156.2257  130.3677  149.8503 LP  0  0  0  0  0  0  0  0  0  0  0  0  # atno 17370 bound_to 10713
  156.6344  130.8679  151.3502 LP  0  0  0  0  0  0  0  0  0  0  0  0  # atno 17371 bound_to 10713
  140.4885  134.1217  155.7228 LP  0  0  0  0  0  0  0  0  0  0  0  0  # atno 17394 bound_to 11000
  141.1576  133.8853  157.1936 LP  0  0  0  0  0  0  0  0  0  0  0  0  # atno 17395 bound_to 11000

$$$$
