AV-unprocessed.smi:1149|AV-procd|sdf|4890|dock3
  -GOLD-   22720 3463D 1   1.00000     0.00000
 Structure written by MMmdl.
 51 52  0  0  0  0  0  0  0  0  2 V2000
  152.7236  139.8871  158.8384 C   0  0  0  0  0  0  0  0  0  0  0  0
  153.0235  139.6609  157.4655 O   0  0  0  0  0  0  0  0  0  0  0  0
  152.0568  139.0800  156.6707 C   0  0  0  0  0  0  0  0  0  0  0  0
  152.3345  138.8893  155.3026 C   0  0  0  0  0  0  0  0  0  0  0  0
  151.3515  138.3036  154.4825 C   0  0  0  0  0  0  0  0  0  0  0  0
  150.1130  137.9327  155.0582 C   0  0  0  0  0  0  0  0  0  0  0  0
  149.0498  137.3215  154.3405 N   0  0  0  0  0  0  0  0  0  0  0  0
  147.8184  137.0100  154.7799 C   0  0  0  0  0  0  0  0  0  0  0  0
  147.4024  137.1991  155.9226 O   0  0  0  0  0  0  0  0  0  0  0  0
  147.0871  136.4444  153.8091 N   0  0  0  0  0  0  0  0  0  0  0  0
  145.7068  135.9761  153.9419 C   0  0  0  0  0  0  0  0  0  0  0  0
  145.0747  135.5207  152.5919 C   0  0  0  0  0  0  0  0  0  0  0  0
  143.5685  135.2496  152.8209 C   0  0  0  0  0  0  0  0  0  0  0  0
  145.2146  136.6894  151.5832 C   0  0  0  0  0  0  0  0  0  0  0  0
  145.7784  134.3194  152.0658 N   0  0  0  0  0  0  0  0  0  0  0  0
  145.2040  133.7563  150.8322 C   0  0  0  0  0  0  0  0  0  0  0  0
  146.1465  132.6913  150.2362 C   0  0  0  0  0  0  0  0  0  0  0  0
  146.4006  131.5922  151.1947 N   0  3  0  0  0  0  0  0  0  0  0  0
  145.2770  130.6354  151.3236 C   0  0  0  0  0  0  0  0  0  0  0  0
  146.8752  132.1397  152.4860 C   0  0  0  0  0  0  0  0  0  0  0  0
  145.9142  133.2154  153.0307 C   0  0  0  0  0  0  0  0  0  0  0  0
  149.9413  138.1492  156.4410 C   0  0  0  0  0  0  0  0  0  0  0  0
  150.8790  138.7112  157.2327 N   0  0  0  0  0  0  0  0  0  0  0  0
  153.5783  140.3611  159.3207 H   0  0  0  0  0  0  0  0  0  0  0  0
  152.5255  138.9509  159.3623 H   0  0  0  0  0  0  0  0  0  0  0  0
  151.8671  140.5526  158.9562 H   0  0  0  0  0  0  0  0  0  0  0  0
  153.2872  139.1845  154.8884 H   0  0  0  0  0  0  0  0  0  0  0  0
  151.5715  138.1403  153.4391 H   0  0  0  0  0  0  0  0  0  0  0  0
  149.2747  137.0290  153.4008 H   0  0  0  0  0  0  0  0  0  0  0  0
  147.5151  136.3311  152.9023 H   0  0  0  0  0  0  0  0  0  0  0  0
  145.6951  135.1724  154.6771 H   0  0  0  0  0  0  0  0  0  0  0  0
  145.0881  136.7532  154.3946 H   0  0  0  0  0  0  0  0  0  0  0  0
  143.0696  136.1466  153.1899 H   0  0  0  0  0  0  0  0  0  0  0  0
  143.3952  134.4695  153.5620 H   0  0  0  0  0  0  0  0  0  0  0  0
  143.0536  134.9613  151.9048 H   0  0  0  0  0  0  0  0  0  0  0  0
  144.9074  137.6343  152.0328 H   0  0  0  0  0  0  0  0  0  0  0  0
  144.5846  136.5606  150.7034 H   0  0  0  0  0  0  0  0  0  0  0  0
  146.2432  136.8126  151.2424 H   0  0  0  0  0  0  0  0  0  0  0  0
  144.2188  133.3304  151.0226 H   0  0  0  0  0  0  0  0  0  0  0  0
  145.0735  134.5231  150.0717 H   0  0  0  0  0  0  0  0  0  0  0  0
  145.7334  132.2897  149.3101 H   0  0  0  0  0  0  0  0  0  0  0  0
  147.0992  133.1531  149.9725 H   0  0  0  0  0  0  0  0  0  0  0  0
  144.3831  131.1075  151.7313 H   0  0  0  0  0  0  0  0  0  0  0  0
  145.5531  129.8097  151.9800 H   0  0  0  0  0  0  0  0  0  0  0  0
  145.0230  130.2125  150.3511 H   0  0  0  0  0  0  0  0  0  0  0  0
  146.9975  131.3336  153.2102 H   0  0  0  0  0  0  0  0  0  0  0  0
  147.8653  132.5743  152.3398 H   0  0  0  0  0  0  0  0  0  0  0  0
  146.3286  133.5644  153.9737 H   0  0  0  0  0  0  0  0  0  0  0  0
  144.9422  132.7773  153.2573 H   0  0  0  0  0  0  0  0  0  0  0  0
  149.0196  137.8677  156.9293 H   0  0  0  0  0  0  0  0  0  0  0  0
  147.1664  131.0546  150.8141 H   0  0  0  0  0  0  0  0  0  0  0  0
  1  2  1  0  0  0  0
  1 24  1  0  0  0  0
  1 25  1  0  0  0  0
  1 26  1  0  0  0  0
  2  3  1  0  0  0  0
  3 23  1  0  0  0  0
  3  4  2  0  0  0  0
  4  5  1  0  0  0  0
  4 27  1  0  0  0  0
  5  6  2  0  0  0  0
  5 28  1  0  0  0  0
  6  7  1  0  0  0  0
  6 22  1  0  0  0  0
  7  8  1  0  0  0  0
  7 29  1  0  0  0  0
  8  9  2  0  0  0  0
  8 10  1  0  0  0  0
 10 11  1  0  0  0  0
 10 30  1  0  0  0  0
 11 12  1  0  0  0  0
 11 31  1  0  0  0  0
 11 32  1  0  0  0  0
 12 13  1  0  0  0  0
 12 14  1  0  0  0  0
 12 15  1  0  0  0  0
 13 33  1  0  0  0  0
 13 34  1  0  0  0  0
 13 35  1  0  0  0  0
 14 36  1  0  0  0  0
 14 37  1  0  0  0  0
 14 38  1  0  0  0  0
 15 21  1  0  0  0  0
 15 16  1  0  0  0  0
 16 17  1  0  0  0  0
 16 39  1  0  0  0  0
 16 40  1  0  0  0  0
 17 18  1  0  0  0  0
 17 41  1  0  0  0  0
 17 42  1  0  0  0  0
 18 19  1  0  0  0  0
 18 20  1  0  0  0  0
 18 51  1  0  0  0  0
 19 43  1  0  0  0  0
 19 44  1  0  0  0  0
 19 45  1  0  0  0  0
 20 21  1  0  0  0  0
 20 46  1  0  0  0  0
 20 47  1  0  0  0  0
 21 48  1  0  0  0  0
 21 49  1  0  0  0  0
 22 23  2  0  0  0  0
 22 50  1  0  0  0  0
M  CHG  1  18   1
M  END
> <s_m_source_file>
AV-unprocessed.smi

> <i_m_source_file_index>
1149

> <i_lp_mmshare_version>
43012

> <i_f3d_flags>
0

> <s_epik_input>
W0NIM11PYzFbY0hdW2NIXWMoW2NIXW4xKVtOSF1DKD1PKVtOSF1bQ0gyXUMoW0NIM10pKFtDSDNdKU4yW0NIMl1bQ0gyXU4oW0NIM10pW0NIMl1bQ0gyXTI=

> <s_epik_cmdline>
J2VwaWtfcHl0aG9uJywgJy1waCcsICc3LjAnLCAnLXRuJywgJzgnLCAnLW1hJywgJzIwMCcsICctbWV0YWxfYmluZGluZycsICctaW1hZScsICc8aW5maWxlLm1hZT4nLCAnLW9tYWUnLCAnPG91dGZpbGUubWFlPic=

> <r_lp_tautomer_probability>
1

> <r_epik_Ionization_Penalty>
0.0248754

> <r_epik_Ionization_Penalty_Charging>
0.0238192

> <r_epik_Ionization_Penalty_Neutral>
0.00105627

> <r_epik_State_Penalty>
0.139266

> <r_epik_Charging_Adjusted_Penalty>
0.163085

> <i_epik_Tot_Q>
1

> <i_epik_Tot_abs_Q>
1

> <r_epik_Metal_State_Penalty>
0.139265

> <b_epik_Metal_Only>
0

> <s_lp_Force_Field>
OPLS_2005

> <r_lp_Energy>
29.3026

> <b_lp_Chiralities_Consistent>
1

> <s_lp_Variant>
AV-unprocessed.smi:1149-1

> <Gold.Version>
5.8.1

> <Gold.Id.Protein>
6NUR|6NUR_protein|mol2

> <Gold.PLP.Fitness>
43.1704

> <Gold.PLP.PLP>
-31.4249

> <Gold.PLP.part.hbond>
-4.0000

> <Gold.PLP.part.metal>
0.0000

> <Gold.PLP.part.buried>
-2.4827

> <Gold.PLP.part.nonpolar>
-24.9796

> <Gold.PLP.part.repulsive>
0.1460

> <Gold.PLP.ligand.clash>
0.0000

> <Gold.PLP.ligand.torsion>
0.1492

> <Gold.PLP.Chemscore.Hbond>
4.0000

> <Gold.PLP.Chemscore.CHOScore>
0.0000

> <Gold.PLP.Chemscore.Metal>
0.0000

> <Gold.Chemscore.Hbonds>
donor molecule, donor type, donor heavy atom, donor atom, acceptor molecule, acceptor atom, score
      L1  H     7    29       P1  7948  1.00
      L1  H    10    30       P1  7948  1.00
      L1  H    18    51       P1 10747  1.00
      P1  H  7997  8010       L1     2  1.00

> <Gold.PLP.Chemscore.Internal.Correction>
0.0439

> <Gold.Rescore>
     Score         DG    S(hbond)    S(metal)    S(lipo)     H(rot)  DE(clash)    DE(int)     intcor
     21.77     -23.48       3.88        0.00      80.91       1.72       0.24       1.48       ----

> <Gold.Chemscore.Fitness>
21.7682

> <Gold.Chemscore.DG>
-23.4832

> <Gold.Chemscore.ZeroCoef>
-5.4800

> <Gold.Chemscore.Hbond>
3.8752

> <Gold.Chemscore.Metal>
0.0000

> <Gold.Chemscore.Lipo>
80.9109

> <Gold.Chemscore.Internal_Hbond>
0.0000

> <Gold.Chemscore.DEClash>
0.2362

> <Gold.Chemscore.DEInternal>
1.4788

> <Gold.Chemscore.Rot>
1.7213

> <Gold.Chemscore.Internal.Correction>
   9.000000E+99

> <Gold.Chemscore.Hbonds>
donor molecule, donor type, donor heavy atom, donor atom, acceptor molecule, acceptor atom, score
      L1  H     7    29       P1  7948  0.96
      L1  H    10    30       P1  7948  0.96
      L1  H    18    51       P1 10747  0.97
      P1  H  7997  8010       L1     2  0.75

> <Gold.Chemscore.Hbond.Weighted>
-12.9432

> <Gold.Chemscore.Metal.Weighted>
-0.0000

> <Gold.Chemscore.Lipo.Weighted>
-9.4666

> <Gold.Chemscore.Internal_Hbond.Weighted>
0.0000

> <Gold.Chemscore.DEClash.Weighted>
0.2362

> <Gold.Chemscore.DEInternal.Weighted>
1.4788

> <Gold.Chemscore.Rot.Weighted>
4.4066

> <Gold.Chemscore.Internal.Correction.Weighted>
   9.000000E+99

> <Gold.Protein.RotatedTorsions>
[ 6907 6896 6895 6894 ] final  121.25 input  -60.11 | X-H torsion
[ 7974 7965 7964 7962 ] final   93.24 input  175.53 | X-H torsion
[ 8008 7997 7996 7995 ] final   66.74 input   59.86 | X-H torsion
[ 10167 10162 10161 10158 ] final  113.16 input  -65.29 | X-H torsion
[ 10718 10713 10712 10709 ] final  178.72 input   66.30 | X-H torsion
[ 10763 10752 10751 10750 ] final   96.07 input  -60.55 | X-H torsion
[ 11005 11000 10999 10996 ] final  105.74 input  -57.11 | X-H torsion

> <Gold.Protein.ActiveResidues>
 VAL166  LYS551  ARG553  GLY616  TRP617  ASP618  TYR619  PRO620  LYS621  CYS622 
 ASP623  PHE694  ASN695  SER759  ASP760  ASP761  ALA762  ILE779  LEU786  VAL792 
 PHE793  MET794  SER795  GLU796  ALA797  LYS798  CYS799  TRP800  GLU811  SER814 

> <Gold.Protein.RotatedAtoms>
  152.4336  133.7321  159.6592 H   0  0  0  0  0  0  0  0  0  0  0  0  # atno 6907 bound_to 6896
  150.8217  133.8230  159.3142 H   0  0  0  0  0  0  0  0  0  0  0  0  # atno 6908 bound_to 6896
  151.5911  135.1055  160.0091 H   0  0  0  0  0  0  0  0  0  0  0  0  # atno 6909 bound_to 6896
  145.4815  139.2278  143.2880 H   0  0  0  0  0  0  0  0  0  0  0  0  # atno 7974 bound_to 7965
  155.6821  140.3496  155.4859 H   0  0  0  0  0  0  0  0  0  0  0  0  # atno 8008 bound_to 7997
  155.9598  140.1135  157.0928 H   0  0  0  0  0  0  0  0  0  0  0  0  # atno 8009 bound_to 7997
  154.4140  140.1178  156.5150 H   0  0  0  0  0  0  0  0  0  0  0  0  # atno 8010 bound_to 7997
  139.6482  144.7127  151.2100 H   0  0  0  0  0  0  0  0  0  0  0  0  # atno 10167 bound_to 10162
  156.8863  130.9832  151.3055 H   0  0  0  0  0  0  0  0  0  0  0  0  # atno 10718 bound_to 10713
  153.2606  135.4231  155.0890 H   0  0  0  0  0  0  0  0  0  0  0  0  # atno 10763 bound_to 10752
  154.8418  135.3448  154.6383 H   0  0  0  0  0  0  0  0  0  0  0  0  # atno 10764 bound_to 10752
  153.6803  135.7039  153.5177 H   0  0  0  0  0  0  0  0  0  0  0  0  # atno 10765 bound_to 10752
  139.8805  134.9346  156.5560 H   0  0  0  0  0  0  0  0  0  0  0  0  # atno 11005 bound_to 11000
  146.2338  140.5602  142.8964 LP  0  0  0  0  0  0  0  0  0  0  0  0  # atno 17320 bound_to 7965
  144.7886  140.5986  143.6557 LP  0  0  0  0  0  0  0  0  0  0  0  0  # atno 17321 bound_to 7965
  140.7525  143.6195  150.8527 LP  0  0  0  0  0  0  0  0  0  0  0  0  # atno 17342 bound_to 10162
  139.9840  143.5920  152.2933 LP  0  0  0  0  0  0  0  0  0  0  0  0  # atno 17343 bound_to 10162
  157.6110  130.8583  149.8952 LP  0  0  0  0  0  0  0  0  0  0  0  0  # atno 17370 bound_to 10713
  156.0651  130.3693  150.0896 LP  0  0  0  0  0  0  0  0  0  0  0  0  # atno 17371 bound_to 10713
  140.8204  133.8358  155.8891 LP  0  0  0  0  0  0  0  0  0  0  0  0  # atno 17394 bound_to 11000
  140.9423  134.1885  157.4788 LP  0  0  0  0  0  0  0  0  0  0  0  0  # atno 17395 bound_to 11000

$$$$
