AV-unprocessed.smi:1932|AV-procd|sdf|7814|dock3
  -GOLD-   22720 9553D 1   1.00000     0.00000
 Structure written by MMmdl.
 44 45  0  0  0  0  0  0  0  0  1 V2000
  144.8082  143.5635  156.0666 C   0  0  0  0  0  0  0  0  0  0  0  0
  145.7210  142.3338  156.0394 C   0  0  0  0  0  0  0  0  0  0  0  0
  145.7408  141.6054  157.0319 O   0  0  0  0  0  0  0  0  0  0  0  0
  146.4703  142.0871  154.9365 N   0  0  0  0  0  0  0  0  0  0  0  0
  146.4250  142.9999  153.7908 C   0  0  0  0  0  0  0  0  0  0  0  0
  147.3956  140.9475  154.8040 C   0  0  0  0  0  0  0  0  0  0  0  0
  148.8890  141.3156  154.8131 C   0  0  0  0  0  0  0  0  0  0  0  0
  149.5659  141.0840  153.8122 O   0  0  0  0  0  0  0  0  0  0  0  0
  149.4027  141.8625  155.9269 N   0  0  0  0  0  0  0  0  0  0  0  0
  150.8069  142.1933  156.1339 C   0  0  0  0  0  0  0  0  0  0  0  0
  151.4279  141.3724  157.2565 C   0  0  0  0  0  0  0  0  0  0  0  0
  151.7620  140.0214  157.0257 C   0  0  0  0  0  0  0  0  0  0  0  0
  152.2995  139.2582  158.0780 C   0  0  0  0  0  0  0  0  0  0  0  0
  152.4788  139.8789  159.3278 C   0  0  0  0  0  0  0  0  0  0  0  0
  152.1672  141.1703  159.5636 N   0  0  0  0  0  0  0  0  0  0  0  0
  151.6521  141.9102  158.5518 C   0  0  0  0  0  0  0  0  0  0  0  0
  151.3662  143.2609  158.8164 N   0  0  0  0  0  0  0  0  0  0  0  0
  152.5565  144.0545  159.0914 C   0  0  0  0  0  0  0  0  0  0  0  0
  152.1903  145.5481  159.1311 C   0  0  0  0  0  0  0  0  0  0  0  0
  151.1576  145.7618  160.0897 O   0  0  0  0  0  0  0  0  0  0  0  0
  149.9736  145.0356  159.7716 C   0  0  0  0  0  0  0  0  0  0  0  0
  150.2827  143.5282  159.7547 C   0  0  0  0  0  0  0  0  0  0  0  0
  144.0016  143.4607  155.3408 H   0  0  0  0  0  0  0  0  0  0  0  0
  145.3643  144.4752  155.8495 H   0  0  0  0  0  0  0  0  0  0  0  0
  144.3544  143.6804  157.0512 H   0  0  0  0  0  0  0  0  0  0  0  0
  145.4266  143.4019  153.6176 H   0  0  0  0  0  0  0  0  0  0  0  0
  146.7243  142.4969  152.8703 H   0  0  0  0  0  0  0  0  0  0  0  0
  147.1040  143.8374  153.9524 H   0  0  0  0  0  0  0  0  0  0  0  0
  147.2205  140.2518  155.6260 H   0  0  0  0  0  0  0  0  0  0  0  0
  147.1836  140.3681  153.9053 H   0  0  0  0  0  0  0  0  0  0  0  0
  148.7810  142.0187  156.7072 H   0  0  0  0  0  0  0  0  0  0  0  0
  151.3728  142.0633  155.2099 H   0  0  0  0  0  0  0  0  0  0  0  0
  150.8783  143.2528  156.3774 H   0  0  0  0  0  0  0  0  0  0  0  0
  151.6014  139.5706  156.0574 H   0  0  0  0  0  0  0  0  0  0  0  0
  152.5625  138.2209  157.9321 H   0  0  0  0  0  0  0  0  0  0  0  0
  152.8845  139.3238  160.1606 H   0  0  0  0  0  0  0  0  0  0  0  0
  152.9800  143.7479  160.0488 H   0  0  0  0  0  0  0  0  0  0  0  0
  153.3193  143.8757  158.3333 H   0  0  0  0  0  0  0  0  0  0  0  0
  153.0616  146.1423  159.4068 H   0  0  0  0  0  0  0  0  0  0  0  0
  151.8653  145.8944  158.1483 H   0  0  0  0  0  0  0  0  0  0  0  0
  149.2084  145.2553  160.5159 H   0  0  0  0  0  0  0  0  0  0  0  0
  149.5860  145.3658  158.8067 H   0  0  0  0  0  0  0  0  0  0  0  0
  149.3956  142.9631  159.4668 H   0  0  0  0  0  0  0  0  0  0  0  0
  150.5680  143.2002  160.7552 H   0  0  0  0  0  0  0  0  0  0  0  0
  1  2  1  0  0  0  0
  1 23  1  0  0  0  0
  1 24  1  0  0  0  0
  1 25  1  0  0  0  0
  2  3  2  0  0  0  0
  2  4  1  0  0  0  0
  4  5  1  0  0  0  0
  4  6  1  0  0  0  0
  5 26  1  0  0  0  0
  5 27  1  0  0  0  0
  5 28  1  0  0  0  0
  6  7  1  0  0  0  0
  6 29  1  0  0  0  0
  6 30  1  0  0  0  0
  7  8  2  0  0  0  0
  7  9  1  0  0  0  0
  9 10  1  0  0  0  0
  9 31  1  0  0  0  0
 10 11  1  0  0  0  0
 10 32  1  0  0  0  0
 10 33  1  0  0  0  0
 11 16  1  0  0  0  0
 11 12  2  0  0  0  0
 12 13  1  0  0  0  0
 12 34  1  0  0  0  0
 13 14  2  0  0  0  0
 13 35  1  0  0  0  0
 14 15  1  0  0  0  0
 14 36  1  0  0  0  0
 15 16  2  0  0  0  0
 16 17  1  0  0  0  0
 17 22  1  0  0  0  0
 17 18  1  0  0  0  0
 18 19  1  0  0  0  0
 18 37  1  0  0  0  0
 18 38  1  0  0  0  0
 19 20  1  0  0  0  0
 19 39  1  0  0  0  0
 19 40  1  0  0  0  0
 20 21  1  0  0  0  0
 21 22  1  0  0  0  0
 21 41  1  0  0  0  0
 21 42  1  0  0  0  0
 22 43  1  0  0  0  0
 22 44  1  0  0  0  0
M  END
> <s_m_source_file>
AV-unprocessed.smi

> <i_m_source_file_index>
1932

> <i_lp_mmshare_version>
43012

> <i_f3d_flags>
0

> <s_epik_input>
W0NIM11DKD1PKU4oW0NIM10pW0NIMl1DKD1PKVtOSF1bQ0gyXWMxW2NIXVtjSF1bY0hdbmMxTjJbQ0gyXVtDSDJdT1tDSDJdW0NIMl0y

> <s_epik_cmdline>
J2VwaWtfcHl0aG9uJywgJy1waCcsICc3LjAnLCAnLXRuJywgJzgnLCAnLW1hJywgJzIwMCcsICctbWV0YWxfYmluZGluZycsICctaW1hZScsICc8aW5maWxlLm1hZT4nLCAnLW9tYWUnLCAnPG91dGZpbGUubWFlPic=

> <r_lp_tautomer_probability>
1

> <r_epik_Ionization_Penalty>
0.00462916

> <r_epik_Ionization_Penalty_Charging>
0

> <r_epik_Ionization_Penalty_Neutral>
0.00462916

> <r_epik_State_Penalty>
0.00334737

> <r_epik_Charging_Adjusted_Penalty>
0.00334737

> <i_epik_Tot_Q>
0

> <i_epik_Tot_abs_Q>
0

> <r_epik_Metal_State_Penalty>
-0

> <b_epik_Metal_Only>
0

> <s_lp_Force_Field>
OPLS_2005

> <r_lp_Energy>
20.2877

> <b_lp_Chiralities_Consistent>
1

> <s_lp_Variant>
AV-unprocessed.smi:1932-1

> <Gold.Version>
5.8.1

> <Gold.Id.Protein>
6NUR|6NUR_protein|mol2

> <Gold.PLP.Fitness>
39.9292

> <Gold.PLP.PLP>
-36.9628

> <Gold.PLP.part.hbond>
-4.1912

> <Gold.PLP.part.metal>
0.0000

> <Gold.PLP.part.buried>
-5.4950

> <Gold.PLP.part.nonpolar>
-28.9668

> <Gold.PLP.part.repulsive>
2.2738

> <Gold.PLP.ligand.clash>
0.0000

> <Gold.PLP.ligand.torsion>
0.4178

> <Gold.PLP.Chemscore.Hbond>
1.1905

> <Gold.PLP.Chemscore.CHOScore>
0.0000

> <Gold.PLP.Chemscore.Metal>
0.0000

> <Gold.Chemscore.Hbonds>
donor molecule, donor type, donor heavy atom, donor atom, acceptor molecule, acceptor atom, score
      P1  H  7989  7998       L1     8  0.31
      P1  H  8011  8017       L1     8  0.91

> <Gold.PLP.Chemscore.Internal.Correction>
0.2306

> <Gold.Rescore>
     Score         DG    S(hbond)    S(metal)    S(lipo)     H(rot)  DE(clash)    DE(int)     intcor
     12.72     -14.78       1.22        0.00      88.27       2.00       1.81       0.26       ----

> <Gold.Chemscore.Fitness>
12.7219

> <Gold.Chemscore.DG>
-14.7835

> <Gold.Chemscore.ZeroCoef>
-5.4800

> <Gold.Chemscore.Hbond>
1.2231

> <Gold.Chemscore.Metal>
0.0000

> <Gold.Chemscore.Lipo>
88.2653

> <Gold.Chemscore.Internal_Hbond>
0.0000

> <Gold.Chemscore.DEClash>
1.8065

> <Gold.Chemscore.DEInternal>
0.2551

> <Gold.Chemscore.Rot>
1.9956

> <Gold.Chemscore.Internal.Correction>
   9.000000E+99

> <Gold.Chemscore.Hbonds>
donor molecule, donor type, donor heavy atom, donor atom, acceptor molecule, acceptor atom, score
      P1  H  7989  7998       L1     8  0.30
      P1  H  8011  8017       L1     8  0.85

> <Gold.Chemscore.Hbond.Weighted>
-4.0851

> <Gold.Chemscore.Metal.Weighted>
-0.0000

> <Gold.Chemscore.Lipo.Weighted>
-10.3270

> <Gold.Chemscore.Internal_Hbond.Weighted>
0.0000

> <Gold.Chemscore.DEClash.Weighted>
1.8065

> <Gold.Chemscore.DEInternal.Weighted>
0.2551

> <Gold.Chemscore.Rot.Weighted>
5.1087

> <Gold.Chemscore.Internal.Correction.Weighted>
   9.000000E+99

> <Gold.Protein.RotatedTorsions>
[ 6907 6896 6895 6894 ] final   27.04 input  -60.11 | X-H torsion
[ 7974 7965 7964 7962 ] final    8.87 input  175.53 | X-H torsion
[ 8008 7997 7996 7995 ] final -165.13 input   59.86 | X-H torsion
[ 10167 10162 10161 10158 ] final -172.34 input  -65.29 | X-H torsion
[ 10718 10713 10712 10709 ] final   50.10 input   66.30 | X-H torsion
[ 10763 10752 10751 10750 ] final  -12.78 input  -60.55 | X-H torsion
[ 11005 11000 10999 10996 ] final  117.10 input  -57.11 | X-H torsion

> <Gold.Protein.ActiveResidues>
 VAL166  LYS551  ARG553  GLY616  TRP617  ASP618  TYR619  PRO620  LYS621  CYS622 
 ASP623  PHE694  ASN695  SER759  ASP760  ASP761  ALA762  ILE779  LEU786  VAL792 
 PHE793  MET794  SER795  GLU796  ALA797  LYS798  CYS799  TRP800  GLU811  SER814 

> <Gold.Protein.RotatedAtoms>
  151.9964  134.9952  160.0563 H   0  0  0  0  0  0  0  0  0  0  0  0  # atno 6907 bound_to 6896
  152.1560  133.4547  159.4845 H   0  0  0  0  0  0  0  0  0  0  0  0  # atno 6908 bound_to 6896
  150.6881  134.2048  159.4379 H   0  0  0  0  0  0  0  0  0  0  0  0  # atno 6909 bound_to 6896
  146.2411  139.9869  142.8430 H   0  0  0  0  0  0  0  0  0  0  0  0  # atno 7974 bound_to 7965
  155.8455  140.0955  157.1708 H   0  0  0  0  0  0  0  0  0  0  0  0  # atno 8008 bound_to 7997
  154.3983  140.1393  156.3842 H   0  0  0  0  0  0  0  0  0  0  0  0  # atno 8009 bound_to 7997
  155.8018  140.3452  155.5410 H   0  0  0  0  0  0  0  0  0  0  0  0  # atno 8010 bound_to 7997
  139.5750  144.1553  152.1438 H   0  0  0  0  0  0  0  0  0  0  0  0  # atno 10167 bound_to 10162
  157.4852  130.8340  149.8138 H   0  0  0  0  0  0  0  0  0  0  0  0  # atno 10718 bound_to 10713
  153.5036  135.7017  153.5818 H   0  0  0  0  0  0  0  0  0  0  0  0  # atno 10763 bound_to 10752
  153.3939  135.3889  155.1942 H   0  0  0  0  0  0  0  0  0  0  0  0  # atno 10764 bound_to 10752
  154.8709  135.3865  154.4509 H   0  0  0  0  0  0  0  0  0  0  0  0  # atno 10765 bound_to 10752
  139.9063  134.9606  156.7299 H   0  0  0  0  0  0  0  0  0  0  0  0  # atno 11005 bound_to 11000
  145.1540  140.9638  143.4416 LP  0  0  0  0  0  0  0  0  0  0  0  0  # atno 17320 bound_to 7965
  145.0179  139.3451  143.6087 LP  0  0  0  0  0  0  0  0  0  0  0  0  # atno 17321 bound_to 7965
  140.1094  144.5471  150.6935 LP  0  0  0  0  0  0  0  0  0  0  0  0  # atno 17342 bound_to 10162
  140.7033  143.2450  151.4800 LP  0  0  0  0  0  0  0  0  0  0  0  0  # atno 17343 bound_to 10162
  156.0143  130.3820  150.2163 LP  0  0  0  0  0  0  0  0  0  0  0  0  # atno 17370 bound_to 10713
  157.0350  131.0018  151.3301 LP  0  0  0  0  0  0  0  0  0  0  0  0  # atno 17371 bound_to 10713
  140.6934  133.9370  155.7980 LP  0  0  0  0  0  0  0  0  0  0  0  0  # atno 17394 bound_to 11000
  141.0425  134.0601  157.3884 LP  0  0  0  0  0  0  0  0  0  0  0  0  # atno 17395 bound_to 11000

$$$$
