AV-unprocessed.smi:920|AV-procd|sdf|4168|dock4
  -GOLD-   22720 2 73D 1   1.00000     0.00000
 Structure written by MMmdl.
 37 38  0  0  0  0  0  0  0  0  1 V2000
  154.5279  134.0317  163.5064 C   0  0  0  0  0  0  0  0  0  0  0  0
  154.6518  134.2552  162.1059 O   0  0  0  0  0  0  0  0  0  0  0  0
  154.2989  135.4923  161.6067 C   0  0  0  0  0  0  0  0  0  0  0  0
  154.1508  136.5659  162.5072 C   0  0  0  0  0  0  0  0  0  0  0  0
  153.7890  137.8310  162.0061 C   0  0  0  0  0  0  0  0  0  0  0  0
  153.5770  137.9798  160.6149 C   0  0  0  0  0  0  0  0  0  0  0  0
  153.2304  139.2063  159.9868 N   0  0  0  0  0  0  0  0  0  0  0  0
  153.4190  140.4578  160.4385 C   0  0  0  0  0  0  0  0  0  0  0  0
  153.9050  140.7519  161.5306 O   0  0  0  0  0  0  0  0  0  0  0  0
  152.9859  141.3612  159.5473 N   0  0  0  0  0  0  0  0  0  0  0  0
  153.0214  142.8124  159.7106 C   0  0  0  0  0  0  0  0  0  0  0  0
  152.1330  143.2255  160.8998 C   0  0  0  0  0  0  0  0  0  0  0  0
  152.0674  144.7542  161.0501 C   0  0  0  0  0  0  0  0  0  0  0  0
  151.5961  145.4236  159.7496 C   0  0  0  0  0  0  0  0  0  0  0  0
  152.4885  145.0207  158.5652 C   0  0  0  0  0  0  0  0  0  0  0  0
  152.5528  143.4925  158.4099 C   0  0  0  0  0  0  0  0  0  0  0  0
  153.7651  136.8466  159.7971 C   0  0  0  0  0  0  0  0  0  0  0  0
  154.1121  135.6317  160.2710 N   0  0  0  0  0  0  0  0  0  0  0  0
  154.8473  133.0161  163.7392 H   0  0  0  0  0  0  0  0  0  0  0  0
  153.4932  134.1371  163.8360 H   0  0  0  0  0  0  0  0  0  0  0  0
  155.1572  134.7153  164.0779 H   0  0  0  0  0  0  0  0  0  0  0  0
  154.3169  136.4232  163.5649 H   0  0  0  0  0  0  0  0  0  0  0  0
  153.6967  138.6586  162.6921 H   0  0  0  0  0  0  0  0  0  0  0  0
  152.7338  139.1194  159.1122 H   0  0  0  0  0  0  0  0  0  0  0  0
  152.5967  141.0174  158.6816 H   0  0  0  0  0  0  0  0  0  0  0  0
  154.0401  143.1465  159.9156 H   0  0  0  0  0  0  0  0  0  0  0  0
  151.1238  142.8343  160.7616 H   0  0  0  0  0  0  0  0  0  0  0  0
  152.5128  142.7823  161.8211 H   0  0  0  0  0  0  0  0  0  0  0  0
  151.3973  145.0190  161.8686 H   0  0  0  0  0  0  0  0  0  0  0  0
  153.0523  145.1365  161.3211 H   0  0  0  0  0  0  0  0  0  0  0  0
  150.5635  145.1382  159.5438 H   0  0  0  0  0  0  0  0  0  0  0  0
  151.6000  146.5076  159.8664 H   0  0  0  0  0  0  0  0  0  0  0  0
  152.1138  145.4724  157.6464 H   0  0  0  0  0  0  0  0  0  0  0  0
  153.4944  145.4149  158.7153 H   0  0  0  0  0  0  0  0  0  0  0  0
  153.2257  143.2352  157.5910 H   0  0  0  0  0  0  0  0  0  0  0  0
  151.5672  143.1175  158.1298 H   0  0  0  0  0  0  0  0  0  0  0  0
  153.6286  136.9137  158.7276 H   0  0  0  0  0  0  0  0  0  0  0  0
  1  2  1  0  0  0  0
  1 19  1  0  0  0  0
  1 20  1  0  0  0  0
  1 21  1  0  0  0  0
  2  3  1  0  0  0  0
  3 18  1  0  0  0  0
  3  4  2  0  0  0  0
  4  5  1  0  0  0  0
  4 22  1  0  0  0  0
  5  6  2  0  0  0  0
  5 23  1  0  0  0  0
  6  7  1  0  0  0  0
  6 17  1  0  0  0  0
  7  8  1  0  0  0  0
  7 24  1  0  0  0  0
  8  9  2  0  0  0  0
  8 10  1  0  0  0  0
 10 11  1  0  0  0  0
 10 25  1  0  0  0  0
 11 16  1  0  0  0  0
 11 12  1  0  0  0  0
 11 26  1  0  0  0  0
 12 13  1  0  0  0  0
 12 27  1  0  0  0  0
 12 28  1  0  0  0  0
 13 14  1  0  0  0  0
 13 29  1  0  0  0  0
 13 30  1  0  0  0  0
 14 15  1  0  0  0  0
 14 31  1  0  0  0  0
 14 32  1  0  0  0  0
 15 16  1  0  0  0  0
 15 33  1  0  0  0  0
 15 34  1  0  0  0  0
 16 35  1  0  0  0  0
 16 36  1  0  0  0  0
 17 18  2  0  0  0  0
 17 37  1  0  0  0  0
M  END
> <s_m_source_file>
AV-unprocessed.smi

> <i_m_source_file_index>
920

> <i_lp_mmshare_version>
43012

> <i_f3d_flags>
0

> <s_epik_input>
W0NIM11PYzFbY0hdW2NIXWMoW2NIXW4xKVtOSF1DKD1PKVtOSF1bQ0hdMltDSDJdW0NIMl1bQ0gyXVtDSDJdW0NIMl0y

> <s_epik_cmdline>
J2VwaWtfcHl0aG9uJywgJy1waCcsICc3LjAnLCAnLXRuJywgJzgnLCAnLW1hJywgJzIwMCcsICctbWV0YWxfYmluZGluZycsICctaW1hZScsICc8aW5maWxlLm1hZT4nLCAnLW9tYWUnLCAnPG91dGZpbGUubWFlPic=

> <r_lp_tautomer_probability>
1

> <r_epik_Ionization_Penalty>
9.99378e-05

> <r_epik_Ionization_Penalty_Charging>
0

> <r_epik_Ionization_Penalty_Neutral>
9.99378e-05

> <r_epik_State_Penalty>
-0

> <r_epik_Charging_Adjusted_Penalty>
0

> <i_epik_Tot_Q>
0

> <i_epik_Tot_abs_Q>
0

> <r_epik_Metal_State_Penalty>
-0

> <b_epik_Metal_Only>
0

> <s_lp_Force_Field>
OPLS_2005

> <r_lp_Energy>
12.0005

> <b_lp_Chiralities_Consistent>
1

> <s_lp_Variant>
AV-unprocessed.smi:920-1

> <Gold.Version>
5.8.1

> <Gold.Id.Protein>
6NUR|6NUR_protein|mol2

> <Gold.PLP.Fitness>
41.3970

> <Gold.PLP.PLP>
-39.0721

> <Gold.PLP.part.hbond>
-0.9524

> <Gold.PLP.part.metal>
0.0000

> <Gold.PLP.part.buried>
-5.3767

> <Gold.PLP.part.nonpolar>
-32.5979

> <Gold.PLP.part.repulsive>
0.1705

> <Gold.PLP.ligand.clash>
0.0000

> <Gold.PLP.ligand.torsion>
0.3260

> <Gold.PLP.Chemscore.Hbond>
0.9913

> <Gold.PLP.Chemscore.CHOScore>
0.0000

> <Gold.PLP.Chemscore.Metal>
0.0000

> <Gold.Chemscore.Hbonds>
donor molecule, donor type, donor heavy atom, donor atom, acceptor molecule, acceptor atom, score
      P1  H  6896  6908       L1    18  1.00

> <Gold.PLP.Chemscore.Internal.Correction>
0.0031

> <Gold.Rescore>
     Score         DG    S(hbond)    S(metal)    S(lipo)     H(rot)  DE(clash)    DE(int)     intcor
     14.29     -16.24       0.55        0.00     103.13       1.23       0.40       1.55       ----

> <Gold.Chemscore.Fitness>
14.2870

> <Gold.Chemscore.DG>
-16.2438

> <Gold.Chemscore.ZeroCoef>
-5.4800

> <Gold.Chemscore.Hbond>
0.5490

> <Gold.Chemscore.Metal>
0.0000

> <Gold.Chemscore.Lipo>
103.1291

> <Gold.Chemscore.Internal_Hbond>
0.0000

> <Gold.Chemscore.DEClash>
0.4049

> <Gold.Chemscore.DEInternal>
1.5518

> <Gold.Chemscore.Rot>
1.2250

> <Gold.Chemscore.Internal.Correction>
   9.000000E+99

> <Gold.Chemscore.Hbonds>
donor molecule, donor type, donor heavy atom, donor atom, acceptor molecule, acceptor atom, score
      P1  H  6896  6908       L1    18  0.12

> <Gold.Chemscore.Hbond.Weighted>
-1.8337

> <Gold.Chemscore.Metal.Weighted>
-0.0000

> <Gold.Chemscore.Lipo.Weighted>
-12.0661

> <Gold.Chemscore.Internal_Hbond.Weighted>
0.0000

> <Gold.Chemscore.DEClash.Weighted>
0.4049

> <Gold.Chemscore.DEInternal.Weighted>
1.5518

> <Gold.Chemscore.Rot.Weighted>
3.1360

> <Gold.Chemscore.Internal.Correction.Weighted>
   9.000000E+99

> <Gold.Protein.RotatedTorsions>
[ 6907 6896 6895 6894 ] final  -54.22 input  -60.11 | X-H torsion
[ 7974 7965 7964 7962 ] final  144.14 input  175.53 | X-H torsion
[ 8008 7997 7996 7995 ] final   44.19 input   59.86 | X-H torsion
[ 10167 10162 10161 10158 ] final  -31.72 input  -65.29 | X-H torsion
[ 10718 10713 10712 10709 ] final  117.99 input   66.30 | X-H torsion
[ 10763 10752 10751 10750 ] final  129.05 input  -60.55 | X-H torsion
[ 11005 11000 10999 10996 ] final  160.08 input  -57.11 | X-H torsion

> <Gold.Protein.ActiveResidues>
 VAL166  LYS551  ARG553  GLY616  TRP617  ASP618  TYR619  PRO620  LYS621  CYS622 
 ASP623  PHE694  ASN695  SER759  ASP760  ASP761  ALA762  ILE779  LEU786  VAL792 
 PHE793  MET794  SER795  GLU796  ALA797  LYS798  CYS799  TRP800  GLU811  SER814 

> <Gold.Protein.RotatedAtoms>
  150.8357  134.7629  159.6890 H   0  0  0  0  0  0  0  0  0  0  0  0  # atno 6907 bound_to 6896
  152.4454  134.5502  159.9874 H   0  0  0  0  0  0  0  0  0  0  0  0  # atno 6908 bound_to 6896
  151.5653  133.3359  159.3015 H   0  0  0  0  0  0  0  0  0  0  0  0  # atno 6909 bound_to 6896
  144.8861  139.5626  143.5820 H   0  0  0  0  0  0  0  0  0  0  0  0  # atno 7974 bound_to 7965
  155.3153  140.3393  155.4242 H   0  0  0  0  0  0  0  0  0  0  0  0  # atno 8008 bound_to 7997
  156.1936  140.1706  156.8081 H   0  0  0  0  0  0  0  0  0  0  0  0  # atno 8009 bound_to 7997
  154.5471  140.0713  156.8591 H   0  0  0  0  0  0  0  0  0  0  0  0  # atno 8010 bound_to 7997
  140.7232  143.3749  151.1708 H   0  0  0  0  0  0  0  0  0  0  0  0  # atno 10167 bound_to 10162
  157.6060  131.1043  150.7693 H   0  0  0  0  0  0  0  0  0  0  0  0  # atno 10718 bound_to 10713
  153.7354  135.3232  155.3294 H   0  0  0  0  0  0  0  0  0  0  0  0  # atno 10763 bound_to 10752
  154.8312  135.4532  154.1079 H   0  0  0  0  0  0  0  0  0  0  0  0  # atno 10764 bound_to 10752
  153.2239  135.6951  153.8049 H   0  0  0  0  0  0  0  0  0  0  0  0  # atno 10765 bound_to 10752
  140.2024  134.8328  157.3032 H   0  0  0  0  0  0  0  0  0  0  0  0  # atno 11005 bound_to 11000
  146.3025  139.7473  142.9080 LP  0  0  0  0  0  0  0  0  0  0  0  0  # atno 17320 bound_to 7965
  145.3866  141.0366  143.3147 LP  0  0  0  0  0  0  0  0  0  0  0  0  # atno 17321 bound_to 7965
  139.7327  143.9047  152.3025 LP  0  0  0  0  0  0  0  0  0  0  0  0  # atno 17342 bound_to 10162
  139.8841  144.7001  150.8844 LP  0  0  0  0  0  0  0  0  0  0  0  0  # atno 17343 bound_to 10162
  156.8081  130.4943  149.5360 LP  0  0  0  0  0  0  0  0  0  0  0  0  # atno 17370 bound_to 10713
  156.1147  130.6066  151.0101 LP  0  0  0  0  0  0  0  0  0  0  0  0  # atno 17371 bound_to 10713
  140.2040  134.4220  155.7647 LP  0  0  0  0  0  0  0  0  0  0  0  0  # atno 17394 bound_to 11000
  141.2227  133.7085  156.8229 LP  0  0  0  0  0  0  0  0  0  0  0  0  # atno 17395 bound_to 11000

$$$$
