AV-unprocessed.smi:1963|AV-procd|sdf|7926|dock1
  -GOLD-   2272010 93D 1   1.00000     0.00000
 Structure written by MMmdl.
 47 48  0  0  0  0  0  0  0  0  1 V2000
  142.9776  141.9289  155.8310 C   0  0  0  0  0  0  0  0  0  0  0  0
  141.6528  141.1849  155.7061 C   0  0  0  0  0  0  0  0  0  0  0  0
  140.8368  141.2163  156.6271 O   0  0  0  0  0  0  0  0  0  0  0  0
  141.4505  140.5203  154.5575 N   0  0  0  0  0  0  0  0  0  0  0  0
  140.2600  139.7310  154.2325 C   0  0  2  0  0  0  0  0  0  0  0  0
  140.7065  138.3597  153.6880 C   0  0  0  0  0  0  0  0  0  0  0  0
  139.8746  137.4695  153.5069 O   0  0  0  0  0  0  0  0  0  0  0  0
  142.0230  138.2363  153.4378 N   0  0  0  0  0  0  0  0  0  0  0  0
  142.7355  137.0996  152.9704 C   0  0  0  0  0  0  0  0  0  0  0  0
  142.0367  135.8811  152.8607 C   0  0  0  0  0  0  0  0  0  0  0  0
  142.7078  134.7454  152.3695 C   0  0  0  0  0  0  0  0  0  0  0  0
  144.0639  134.8702  151.9912 C   0  0  0  0  0  0  0  0  0  0  0  0
  144.7909  133.7818  151.4902 N   0  0  0  0  0  0  0  0  0  0  0  0
  144.3162  133.2864  150.2042 C   0  0  0  0  0  0  0  0  0  0  0  0
  145.2609  132.1885  149.6861 C   0  0  0  0  0  0  0  0  0  0  0  0
  145.3635  131.1525  150.6593 O   0  0  0  0  0  0  0  0  0  0  0  0
  145.8970  131.6280  151.8925 C   0  0  0  0  0  0  0  0  0  0  0  0
  144.9779  132.7195  152.4692 C   0  0  0  0  0  0  0  0  0  0  0  0
  144.7399  136.0353  152.0877 N   0  0  0  0  0  0  0  0  0  0  0  0
  144.0909  137.1208  152.5607 C   0  0  0  0  0  0  0  0  0  0  0  0
  139.4292  140.4904  153.1559 C   0  0  0  0  0  0  0  0  0  0  0  0
  139.0596  141.9146  153.6160 C   0  0  0  0  0  0  0  0  0  0  0  0
  138.1410  139.7450  152.7478 C   0  0  0  0  0  0  0  0  0  0  0  0
  143.8087  141.2870  155.5370 H   0  0  0  0  0  0  0  0  0  0  0  0
  143.1444  142.2517  156.8591 H   0  0  0  0  0  0  0  0  0  0  0  0
  142.9772  142.8110  155.1905 H   0  0  0  0  0  0  0  0  0  0  0  0
  142.1806  140.5463  153.8603 H   0  0  0  0  0  0  0  0  0  0  0  0
  139.6522  139.5980  155.1303 H   0  0  0  0  0  0  0  0  0  0  0  0
  142.5722  139.0766  153.5471 H   0  0  0  0  0  0  0  0  0  0  0  0
  140.9982  135.8132  153.1509 H   0  0  0  0  0  0  0  0  0  0  0  0
  142.1877  133.8025  152.2876 H   0  0  0  0  0  0  0  0  0  0  0  0
  143.3081  132.8831  150.3070 H   0  0  0  0  0  0  0  0  0  0  0  0
  144.2653  134.1077  149.4881 H   0  0  0  0  0  0  0  0  0  0  0  0
  144.8762  131.7677  148.7571 H   0  0  0  0  0  0  0  0  0  0  0  0
  146.2491  132.5964  149.4672 H   0  0  0  0  0  0  0  0  0  0  0  0
  145.9752  130.7945  152.5906 H   0  0  0  0  0  0  0  0  0  0  0  0
  146.9073  132.0110  151.7390 H   0  0  0  0  0  0  0  0  0  0  0  0
  145.4107  133.1294  153.3827 H   0  0  0  0  0  0  0  0  0  0  0  0
  144.0109  132.2895  152.7341 H   0  0  0  0  0  0  0  0  0  0  0  0
  144.6804  138.0239  152.5806 H   0  0  0  0  0  0  0  0  0  0  0  0
  140.0398  140.5940  152.2571 H   0  0  0  0  0  0  0  0  0  0  0  0
  138.4665  141.8917  154.5307 H   0  0  0  0  0  0  0  0  0  0  0  0
  138.4747  142.4332  152.8560 H   0  0  0  0  0  0  0  0  0  0  0  0
  139.9418  142.5255  153.8070 H   0  0  0  0  0  0  0  0  0  0  0  0
  137.5015  139.5611  153.6116 H   0  0  0  0  0  0  0  0  0  0  0  0
  138.3512  138.7843  152.2777 H   0  0  0  0  0  0  0  0  0  0  0  0
  137.5637  140.3256  152.0279 H   0  0  0  0  0  0  0  0  0  0  0  0
  1  2  1  0  0  0  0
  1 24  1  0  0  0  0
  1 25  1  0  0  0  0
  1 26  1  0  0  0  0
  2  3  2  0  0  0  0
  2  4  1  0  0  0  0
  4  5  1  0  0  0  0
  4 27  1  0  0  0  0
  5  6  1  0  0  0  0
  5 21  1  0  0  0  0
  5 28  1  0  0  0  0
  6  7  2  0  0  0  0
  6  8  1  0  0  0  0
  8  9  1  0  0  0  0
  8 29  1  0  0  0  0
  9 20  1  0  0  0  0
  9 10  2  0  0  0  0
 10 11  1  0  0  0  0
 10 30  1  0  0  0  0
 11 12  2  0  0  0  0
 11 31  1  0  0  0  0
 12 13  1  0  0  0  0
 12 19  1  0  0  0  0
 13 18  1  0  0  0  0
 13 14  1  0  0  0  0
 14 15  1  0  0  0  0
 14 32  1  0  0  0  0
 14 33  1  0  0  0  0
 15 16  1  0  0  0  0
 15 34  1  0  0  0  0
 15 35  1  0  0  0  0
 16 17  1  0  0  0  0
 17 18  1  0  0  0  0
 17 36  1  0  0  0  0
 17 37  1  0  0  0  0
 18 38  1  0  0  0  0
 18 39  1  0  0  0  0
 19 20  2  0  0  0  0
 20 40  1  0  0  0  0
 21 22  1  0  0  0  0
 21 23  1  0  0  0  0
 21 41  1  0  0  0  0
 22 42  1  0  0  0  0
 22 43  1  0  0  0  0
 22 44  1  0  0  0  0
 23 45  1  0  0  0  0
 23 46  1  0  0  0  0
 23 47  1  0  0  0  0
M  END
> <s_m_source_file>
AV-unprocessed.smi

> <i_m_source_file_index>
1963

> <i_lp_mmshare_version>
43012

> <i_f3d_flags>
0

> <s_epik_input>
W0NIM11DKD1PKVtOSF1bQ0BASF0oW0NIXShbQ0gzXSlbQ0gzXSlDKD1PKVtOSF1jMVtjSF1bY0hdYyhuW2NIXTEpTjJbQ0gyXVtDSDJdT1tDSDJdW0NIMl0y

> <s_epik_cmdline>
J2VwaWtfcHl0aG9uJywgJy1waCcsICc3LjAnLCAnLXRuJywgJzgnLCAnLW1hJywgJzIwMCcsICctbWV0YWxfYmluZGluZycsICctaW1hZScsICc8aW5maWxlLm1hZT4nLCAnLW9tYWUnLCAnPG91dGZpbGUubWFlPic=

> <r_lp_tautomer_probability>
1

> <r_epik_Ionization_Penalty>
0.00051446

> <r_epik_Ionization_Penalty_Charging>
0

> <r_epik_Ionization_Penalty_Neutral>
0.00051446

> <r_epik_State_Penalty>
0.00031949

> <r_epik_Charging_Adjusted_Penalty>
0.00031949

> <i_epik_Tot_Q>
0

> <i_epik_Tot_abs_Q>
0

> <r_epik_Metal_State_Penalty>
-0

> <b_epik_Metal_Only>
0

> <s_lp_Force_Field>
OPLS_2005

> <r_lp_Energy>
27.6856

> <b_lp_Chiralities_Consistent>
1

> <s_lp_Variant>
AV-unprocessed.smi:1963-1

> <Gold.Version>
5.8.1

> <Gold.Id.Protein>
6NUR|6NUR_protein|mol2

> <Gold.PLP.Fitness>
39.8504

> <Gold.PLP.PLP>
-30.4991

> <Gold.PLP.part.hbond>
-2.5062

> <Gold.PLP.part.metal>
0.0000

> <Gold.PLP.part.buried>
-3.2992

> <Gold.PLP.part.nonpolar>
-24.6145

> <Gold.PLP.part.repulsive>
0.4715

> <Gold.PLP.ligand.clash>
0.0000

> <Gold.PLP.ligand.torsion>
0.3733

> <Gold.PLP.Chemscore.Hbond>
1.9500

> <Gold.PLP.Chemscore.CHOScore>
1.3687

> <Gold.PLP.Chemscore.Metal>
0.0000

> <Gold.Chemscore.Hbonds>
donor molecule, donor type, donor heavy atom, donor atom, acceptor molecule, acceptor atom, score
      L1  H     4    27       P1 10175  1.00
      L1  H     8    29       P1 10175  0.83
      L1  C    20    40       P1 10175  0.66

> <Gold.PLP.Chemscore.Internal.Correction>
0.1419

> <Gold.Rescore>
     Score         DG    S(hbond)    S(metal)    S(lipo)     H(rot)  DE(clash)    DE(int)     intcor
     12.54     -14.94       1.70        0.00      70.31       1.74       0.09       2.31       ----

> <Gold.Chemscore.Fitness>
12.5359

> <Gold.Chemscore.DG>
-14.9361

> <Gold.Chemscore.ZeroCoef>
-5.4800

> <Gold.Chemscore.Hbond>
1.7012

> <Gold.Chemscore.Metal>
0.0000

> <Gold.Chemscore.Lipo>
70.3141

> <Gold.Chemscore.Internal_Hbond>
0.0000

> <Gold.Chemscore.DEClash>
0.0937

> <Gold.Chemscore.DEInternal>
2.3065

> <Gold.Chemscore.Rot>
1.7394

> <Gold.Chemscore.Internal.Correction>
   9.000000E+99

> <Gold.Chemscore.Hbonds>
donor molecule, donor type, donor heavy atom, donor atom, acceptor molecule, acceptor atom, score
      L1  H     4    27       P1 10175  0.39
      L1  H     8    29       P1 10175  0.79

> <Gold.Chemscore.Hbond.Weighted>
-5.6821

> <Gold.Chemscore.Metal.Weighted>
-0.0000

> <Gold.Chemscore.Lipo.Weighted>
-8.2267

> <Gold.Chemscore.Internal_Hbond.Weighted>
0.0000

> <Gold.Chemscore.DEClash.Weighted>
0.0937

> <Gold.Chemscore.DEInternal.Weighted>
2.3065

> <Gold.Chemscore.Rot.Weighted>
4.4528

> <Gold.Chemscore.Internal.Correction.Weighted>
   9.000000E+99

> <Gold.Protein.RotatedTorsions>
[ 6907 6896 6895 6894 ] final   68.81 input  -60.11 | X-H torsion
[ 7974 7965 7964 7962 ] final  -16.12 input  175.53 | X-H torsion
[ 8008 7997 7996 7995 ] final   13.59 input   59.86 | X-H torsion
[ 10167 10162 10161 10158 ] final   55.82 input  -65.29 | X-H torsion
[ 10718 10713 10712 10709 ] final -132.52 input   66.30 | X-H torsion
[ 10763 10752 10751 10750 ] final    8.39 input  -60.55 | X-H torsion
[ 11005 11000 10999 10996 ] final  -24.88 input  -57.11 | X-H torsion

> <Gold.Protein.ActiveResidues>
 VAL166  LYS551  ARG553  GLY616  TRP617  ASP618  TYR619  PRO620  LYS621  CYS622 
 ASP623  PHE694  ASN695  SER759  ASP760  ASP761  ALA762  ILE779  LEU786  VAL792 
 PHE793  MET794  SER795  GLU796  ALA797  LYS798  CYS799  TRP800  GLU811  SER814 

> <Gold.Protein.RotatedAtoms>
  152.4645  134.5108  159.9752 H   0  0  0  0  0  0  0  0  0  0  0  0  # atno 6907 bound_to 6896
  151.5149  133.3472  159.2899 H   0  0  0  0  0  0  0  0  0  0  0  0  # atno 6908 bound_to 6896
  150.8623  134.8006  159.7154 H   0  0  0  0  0  0  0  0  0  0  0  0  # atno 6909 bound_to 6896
  146.2002  140.3591  142.8426 H   0  0  0  0  0  0  0  0  0  0  0  0  # atno 7974 bound_to 7965
  154.8366  140.2908  155.5687 H   0  0  0  0  0  0  0  0  0  0  0  0  # atno 8008 bound_to 7997
  156.3009  140.2522  156.3232 H   0  0  0  0  0  0  0  0  0  0  0  0  # atno 8009 bound_to 7997
  154.9172  140.0387  157.1967 H   0  0  0  0  0  0  0  0  0  0  0  0  # atno 8010 bound_to 7997
  140.2153  144.3845  150.6472 H   0  0  0  0  0  0  0  0  0  0  0  0  # atno 10167 bound_to 10162
  156.2354  130.7063  151.0902 H   0  0  0  0  0  0  0  0  0  0  0  0  # atno 10718 bound_to 10713
  153.2256  135.6886  153.7949 H   0  0  0  0  0  0  0  0  0  0  0  0  # atno 10763 bound_to 10752
  153.7132  135.3279  155.3251 H   0  0  0  0  0  0  0  0  0  0  0  0  # atno 10764 bound_to 10752
  154.8290  135.4595  154.1121 H   0  0  0  0  0  0  0  0  0  0  0  0  # atno 10765 bound_to 10752
  140.8886  133.7604  156.0392 H   0  0  0  0  0  0  0  0  0  0  0  0  # atno 11005 bound_to 11000
  144.8666  140.7214  143.6073 LP  0  0  0  0  0  0  0  0  0  0  0  0  # atno 17320 bound_to 7965
  145.3511  139.1706  143.4434 LP  0  0  0  0  0  0  0  0  0  0  0  0  # atno 17321 bound_to 7965
  140.6294  143.2185  151.6528 LP  0  0  0  0  0  0  0  0  0  0  0  0  # atno 17342 bound_to 10162
  139.5164  144.3347  152.0794 LP  0  0  0  0  0  0  0  0  0  0  0  0  # atno 17343 bound_to 10162
  157.7152  131.0713  150.6354 LP  0  0  0  0  0  0  0  0  0  0  0  0  # atno 17370 bound_to 10713
  156.6424  130.4462  149.5747 LP  0  0  0  0  0  0  0  0  0  0  0  0  # atno 17371 bound_to 10713
  140.8374  134.3107  157.5326 LP  0  0  0  0  0  0  0  0  0  0  0  0  # atno 17394 bound_to 11000
  139.8727  134.9397  156.3749 LP  0  0  0  0  0  0  0  0  0  0  0  0  # atno 17395 bound_to 11000

$$$$
