AV-unprocessed.smi:1200|AV-procd|sdf|5025|dock3
  -GOLD-   22720 4 43D 1   1.00000     0.00000
 Structure written by MMmdl.
 42 43  0  0  0  0  0  0  0  0  3 V2000
  154.5020  133.1159  163.1820 C   0  0  0  0  0  0  0  0  0  0  0  0
  155.4049  133.9552  162.4035 N   0  5  0  0  0  0  0  0  0  0  0  0
  155.0117  134.6751  161.3188 C   0  0  0  0  0  0  0  0  0  0  0  0
  153.9574  134.6525  160.6750 O   0  0  0  0  0  0  0  0  0  0  0  0
  156.0937  135.6759  160.8972 C   0  0  0  0  0  0  0  0  0  0  0  0
  155.5635  137.0596  160.9745 N   0  3  2  0  0  0  0  0  0  0  0  0
  156.6085  138.0812  160.7125 C   0  0  0  0  0  0  0  0  0  0  0  0
  155.9997  139.4920  160.6455 C   0  0  0  0  0  0  0  0  0  0  0  0
  155.2302  139.8286  161.9330 C   0  0  1  0  0  0  0  0  0  0  0  0
  154.5864  141.1325  161.8001 N   0  0  0  0  0  0  0  0  0  0  0  0
  153.7289  141.4756  160.8281 C   0  0  0  0  0  0  0  0  0  0  0  0
  153.3725  140.7041  159.9384 O   0  0  0  0  0  0  0  0  0  0  0  0
  153.3209  142.7486  160.9712 N   0  0  0  0  0  0  0  0  0  0  0  0
  152.4412  143.5104  160.1530 C   0  0  0  0  0  0  0  0  0  0  0  0
  152.1474  143.2264  158.7962 C   0  0  0  0  0  0  0  0  0  0  0  0
  151.2647  144.0739  158.0993 C   0  0  0  0  0  0  0  0  0  0  0  0
  150.7118  145.1763  158.7789 C   0  0  0  0  0  0  0  0  0  0  0  0
  150.9889  145.4651  160.0674 N   0  0  0  0  0  0  0  0  0  0  0  0
  151.8356  144.6477  160.7293 C   0  0  0  0  0  0  0  0  0  0  0  0
  154.1854  138.7327  162.2110 C   0  0  0  0  0  0  0  0  0  0  0  0
  154.8322  137.3384  162.2400 C   0  0  0  0  0  0  0  0  0  0  0  0
  155.0193  132.6124  163.9983 H   0  0  0  0  0  0  0  0  0  0  0  0
  154.0377  132.3335  162.5809 H   0  0  0  0  0  0  0  0  0  0  0  0
  153.6923  133.6876  163.6363 H   0  0  0  0  0  0  0  0  0  0  0  0
  157.0120  135.5840  161.4816 H   0  0  0  0  0  0  0  0  0  0  0  0
  156.3602  135.4347  159.8672 H   0  0  0  0  0  0  0  0  0  0  0  0
  157.3699  138.0334  161.4928 H   0  0  0  0  0  0  0  0  0  0  0  0
  157.1078  137.8637  159.7674 H   0  0  0  0  0  0  0  0  0  0  0  0
  156.7893  140.2257  160.4783 H   0  0  0  0  0  0  0  0  0  0  0  0
  155.3313  139.5551  159.7851 H   0  0  0  0  0  0  0  0  0  0  0  0
  155.9436  139.8598  162.7591 H   0  0  0  0  0  0  0  0  0  0  0  0
  154.8194  141.8280  162.4937 H   0  0  0  0  0  0  0  0  0  0  0  0
  153.6670  143.2315  161.7874 H   0  0  0  0  0  0  0  0  0  0  0  0
  152.5808  142.3912  158.2702 H   0  0  0  0  0  0  0  0  0  0  0  0
  151.0199  143.8846  157.0647 H   0  0  0  0  0  0  0  0  0  0  0  0
  150.0325  145.8460  158.2726 H   0  0  0  0  0  0  0  0  0  0  0  0
  152.0354  144.9122  161.7576 H   0  0  0  0  0  0  0  0  0  0  0  0
  153.6837  138.9219  163.1610 H   0  0  0  0  0  0  0  0  0  0  0  0
  153.4102  138.7548  161.4432 H   0  0  0  0  0  0  0  0  0  0  0  0
  154.0537  136.5921  162.4001 H   0  0  0  0  0  0  0  0  0  0  0  0
  155.5196  137.2610  163.0836 H   0  0  0  0  0  0  0  0  0  0  0  0
  154.8931  137.1370  160.2228 H   0  0  0  0  0  0  0  0  0  0  0  0
  1  2  1  0  0  0  0
  1 22  1  0  0  0  0
  1 23  1  0  0  0  0
  1 24  1  0  0  0  0
  2  3  1  0  0  0  0
  3  4  2  0  0  0  0
  3  5  1  0  0  0  0
  5  6  1  0  0  0  0
  5 25  1  0  0  0  0
  5 26  1  0  0  0  0
  6 21  1  0  0  0  0
  6  7  1  0  0  0  0
  6 42  1  0  0  0  0
  7  8  1  0  0  0  0
  7 27  1  0  0  0  0
  7 28  1  0  0  0  0
  8  9  1  0  0  0  0
  8 29  1  0  0  0  0
  8 30  1  0  0  0  0
  9 10  1  0  0  0  0
  9 20  1  0  0  0  0
  9 31  1  0  0  0  0
 10 11  1  0  0  0  0
 10 32  1  0  0  0  0
 11 12  2  0  0  0  0
 11 13  1  0  0  0  0
 13 14  1  0  0  0  0
 13 33  1  0  0  0  0
 14 19  1  0  0  0  0
 14 15  2  0  0  0  0
 15 16  1  0  0  0  0
 15 34  1  0  0  0  0
 16 17  2  0  0  0  0
 16 35  1  0  0  0  0
 17 18  1  0  0  0  0
 17 36  1  0  0  0  0
 18 19  2  0  0  0  0
 19 37  1  0  0  0  0
 20 21  1  0  0  0  0
 20 38  1  0  0  0  0
 20 39  1  0  0  0  0
 21 40  1  0  0  0  0
 21 41  1  0  0  0  0
M  CHG  1   2  -1
M  CHG  1   6   1
M  END
> <s_m_source_file>
AV-unprocessed.smi

> <i_m_source_file_index>
1200

> <i_lp_mmshare_version>
43012

> <i_f3d_flags>
0

> <s_epik_input>
W0NIM11bTkhdQyg9TylbQ0gyXU4xW0NIMl1bQ0gyXVtDSF0oW0NIMl1bQ0gyXTEpW05IXUMoPU8pW05IXWMyW2NIXVtjSF1bY0hdbltjSF0y

> <s_epik_cmdline>
J2VwaWtfcHl0aG9uJywgJy1waCcsICc3LjAnLCAnLXRuJywgJzgnLCAnLW1hJywgJzIwMCcsICctbWV0YWxfYmluZGluZycsICctaW1hZScsICc8aW5maWxlLm1hZT4nLCAnLW9tYWUnLCAnPG91dGZpbGUubWFlPic=

> <r_epik_Ionization_Penalty>
6.14345

> <r_epik_Ionization_Penalty_Charging>
6.13946

> <r_epik_Ionization_Penalty_Neutral>
0.00398477

> <r_epik_State_Penalty>
6.94483

> <r_epik_Charging_Adjusted_Penalty>
13.0843

> <i_epik_Tot_Q>
0

> <i_epik_Tot_abs_Q>
2

> <r_epik_Metal_State_Penalty>
2.87819

> <b_epik_Metal_Only>
1

> <s_lp_Force_Field>
OPLS_2005

> <r_lp_Energy>
13.1486

> <b_lp_Chiralities_Consistent>
1

> <s_lp_Variant>
AV-unprocessed.smi:1200-4

> <Gold.Version>
5.8.1

> <Gold.Id.Protein>
6NUR|6NUR_protein|mol2

> <Gold.PLP.Fitness>
41.0553

> <Gold.PLP.PLP>
-35.3774

> <Gold.PLP.part.hbond>
-2.1454

> <Gold.PLP.part.metal>
0.0000

> <Gold.PLP.part.buried>
-4.1491

> <Gold.PLP.part.nonpolar>
-28.2136

> <Gold.PLP.part.repulsive>
0.2192

> <Gold.PLP.ligand.clash>
0.0000

> <Gold.PLP.ligand.torsion>
0.1972

> <Gold.PLP.Chemscore.Hbond>
1.0000

> <Gold.PLP.Chemscore.CHOScore>
1.0000

> <Gold.PLP.Chemscore.Metal>
0.0000

> <Gold.Chemscore.Hbonds>
donor molecule, donor type, donor heavy atom, donor atom, acceptor molecule, acceptor atom, score
      P1  H  6896  6908       L1     4  1.00
      L1  C    17    36       P1  8029  1.00

> <Gold.PLP.Chemscore.Internal.Correction>
0.0723

> <Gold.Rescore>
     Score         DG    S(hbond)    S(metal)    S(lipo)     H(rot)  DE(clash)    DE(int)     intcor
     12.68     -15.32       1.00        0.00      91.24       1.63       0.38       2.26       ----

> <Gold.Chemscore.Fitness>
12.6782

> <Gold.Chemscore.DG>
-15.3164

> <Gold.Chemscore.ZeroCoef>
-5.4800

> <Gold.Chemscore.Hbond>
1.0000

> <Gold.Chemscore.Metal>
0.0000

> <Gold.Chemscore.Lipo>
91.2387

> <Gold.Chemscore.Internal_Hbond>
0.0000

> <Gold.Chemscore.DEClash>
0.3773

> <Gold.Chemscore.DEInternal>
2.2608

> <Gold.Chemscore.Rot>
1.6323

> <Gold.Chemscore.Internal.Correction>
   9.000000E+99

> <Gold.Chemscore.Hbonds>
donor molecule, donor type, donor heavy atom, donor atom, acceptor molecule, acceptor atom, score
      P1  H  6896  6908       L1     4  0.93

> <Gold.Chemscore.Hbond.Weighted>
-3.3400

> <Gold.Chemscore.Metal.Weighted>
-0.0000

> <Gold.Chemscore.Lipo.Weighted>
-10.6749

> <Gold.Chemscore.Internal_Hbond.Weighted>
0.0000

> <Gold.Chemscore.DEClash.Weighted>
0.3773

> <Gold.Chemscore.DEInternal.Weighted>
2.2608

> <Gold.Chemscore.Rot.Weighted>
4.1786

> <Gold.Chemscore.Internal.Correction.Weighted>
   9.000000E+99

> <Gold.Protein.RotatedTorsions>
[ 6907 6896 6895 6894 ] final  -48.50 input  -60.11 | X-H torsion
[ 7974 7965 7964 7962 ] final -146.75 input  175.53 | X-H torsion
[ 8008 7997 7996 7995 ] final -106.88 input   59.86 | X-H torsion
[ 10167 10162 10161 10158 ] final   24.45 input  -65.29 | X-H torsion
[ 10718 10713 10712 10709 ] final   42.33 input   66.30 | X-H torsion
[ 10763 10752 10751 10750 ] final -137.20 input  -60.55 | X-H torsion
[ 11005 11000 10999 10996 ] final   -0.47 input  -57.11 | X-H torsion

> <Gold.Protein.ActiveResidues>
 VAL166  LYS551  ARG553  GLY616  TRP617  ASP618  TYR619  PRO620  LYS621  CYS622 
 ASP623  PHE694  ASN695  SER759  ASP760  ASP761  ALA762  ILE779  LEU786  VAL792 
 PHE793  MET794  SER795  GLU796  ALA797  LYS798  CYS799  TRP800  GLU811  SER814 

> <Gold.Protein.RotatedAtoms>
  150.8899  134.8302  159.7285 H   0  0  0  0  0  0  0  0  0  0  0  0  # atno 6907 bound_to 6896
  152.4831  134.4664  159.9631 H   0  0  0  0  0  0  0  0  0  0  0  0  # atno 6908 bound_to 6896
  151.4728  133.3526  159.2861 H   0  0  0  0  0  0  0  0  0  0  0  0  # atno 6909 bound_to 6896
  144.8138  140.5415  143.5624 H   0  0  0  0  0  0  0  0  0  0  0  0  # atno 7974 bound_to 7965
  154.9210  140.0407  157.1998 H   0  0  0  0  0  0  0  0  0  0  0  0  # atno 8008 bound_to 7997
  154.8254  140.2890  155.5737 H   0  0  0  0  0  0  0  0  0  0  0  0  # atno 8009 bound_to 7997
  156.2983  140.2511  156.3169 H   0  0  0  0  0  0  0  0  0  0  0  0  # atno 8010 bound_to 7997
  140.5187  144.0039  150.6406 H   0  0  0  0  0  0  0  0  0  0  0  0  # atno 10167 bound_to 10162
  157.4036  130.7874  149.7369 H   0  0  0  0  0  0  0  0  0  0  0  0  # atno 10718 bound_to 10713
  154.8667  135.3649  154.5185 H   0  0  0  0  0  0  0  0  0  0  0  0  # atno 10763 bound_to 10752
  153.5816  135.7018  153.5466 H   0  0  0  0  0  0  0  0  0  0  0  0  # atno 10764 bound_to 10752
  153.3452  135.4087  155.1565 H   0  0  0  0  0  0  0  0  0  0  0  0  # atno 10765 bound_to 10752
  140.6366  133.9527  155.8303 H   0  0  0  0  0  0  0  0  0  0  0  0  # atno 11005 bound_to 11000
  145.5261  139.1476  143.3525 LP  0  0  0  0  0  0  0  0  0  0  0  0  # atno 17320 bound_to 7965
  146.2440  140.5402  142.8922 LP  0  0  0  0  0  0  0  0  0  0  0  0  # atno 17321 bound_to 7965
  140.3381  143.3036  152.0617 LP  0  0  0  0  0  0  0  0  0  0  0  0  # atno 17342 bound_to 10162
  139.4917  144.6462  151.6774 LP  0  0  0  0  0  0  0  0  0  0  0  0  # atno 17343 bound_to 10162
  155.9830  130.4004  150.3387 LP  0  0  0  0  0  0  0  0  0  0  0  0  # atno 17370 bound_to 10713
  157.1517  131.0322  151.2882 LP  0  0  0  0  0  0  0  0  0  0  0  0  # atno 17371 bound_to 10713
  141.0637  134.0309  157.3624 LP  0  0  0  0  0  0  0  0  0  0  0  0  # atno 17394 bound_to 11000
  139.9096  135.0187  156.7634 LP  0  0  0  0  0  0  0  0  0  0  0  0  # atno 17395 bound_to 11000

$$$$
