AV-unprocessed.smi:2151|AV-procd|sdf|8758|dock6
  -GOLD-   2272011533D 1   1.00000     0.00000
 Structure written by MMmdl.
 39 40  0  0  0  0  0  0  0  0  1 V2000
  146.8562  141.9128  153.8542 C   0  0  0  0  0  0  0  0  0  0  0  0
  147.3508  140.7703  154.7589 C   0  0  2  0  0  0  0  0  0  0  0  0
  148.7961  140.8766  154.9406 N   0  0  0  0  0  0  0  0  0  0  0  0
  149.4097  141.3819  156.0214 C   0  0  0  0  0  0  0  0  0  0  0  0
  148.8018  141.8430  156.9886 O   0  0  0  0  0  0  0  0  0  0  0  0
  150.9445  141.3801  155.9830 C   0  0  0  0  0  0  0  0  0  0  0  0
  151.5602  141.6677  157.2892 N   0  0  0  0  0  0  0  0  0  0  0  0
  151.2706  142.9168  157.8728 C   0  0  0  0  0  0  0  0  0  0  0  0
  151.7727  143.3049  159.0608 C   0  0  0  0  0  0  0  0  0  0  0  0
  151.3891  144.6316  159.6979 C   0  0  0  0  0  0  0  0  0  0  0  0
  151.9086  144.7436  160.9205 F   0  0  0  0  0  0  0  0  0  0  0  0
  151.8498  145.6390  158.9579 F   0  0  0  0  0  0  0  0  0  0  0  0
  150.0648  144.7574  159.7924 F   0  0  0  0  0  0  0  0  0  0  0  0
  152.6211  142.3494  159.7454 C   0  0  0  0  0  0  0  0  0  0  0  0
  152.8965  141.1449  159.2079 C   0  0  0  0  0  0  0  0  0  0  0  0
  152.3545  140.7435  157.9078 C   0  0  0  0  0  0  0  0  0  0  0  0
  152.5984  139.6455  157.4068 O   0  0  0  0  0  0  0  0  0  0  0  0
  147.0171  139.3825  154.1788 C   0  0  2  0  0  0  0  0  0  0  0  0
  147.1508  139.2729  152.6574 C   0  0  0  0  0  0  0  0  0  0  0  0
  146.1419  138.2002  152.2723 C   0  0  0  0  0  0  0  0  0  0  0  0
  145.3455  137.9565  153.5553 C   0  0  0  0  0  0  0  0  0  0  0  0
  145.6469  139.0706  154.3810 O   0  0  0  0  0  0  0  0  0  0  0  0
  145.7736  141.8810  153.7306 H   0  0  0  0  0  0  0  0  0  0  0  0
  147.3064  141.8569  152.8627 H   0  0  0  0  0  0  0  0  0  0  0  0
  147.1029  142.8873  154.2767 H   0  0  0  0  0  0  0  0  0  0  0  0
  146.8637  140.8589  155.7320 H   0  0  0  0  0  0  0  0  0  0  0  0
  149.3732  140.5186  154.1932 H   0  0  0  0  0  0  0  0  0  0  0  0
  151.2954  140.4183  155.6040 H   0  0  0  0  0  0  0  0  0  0  0  0
  151.2667  142.1122  155.2412 H   0  0  0  0  0  0  0  0  0  0  0  0
  150.6001  143.5363  157.2950 H   0  0  0  0  0  0  0  0  0  0  0  0
  153.0457  142.6045  160.7051 H   0  0  0  0  0  0  0  0  0  0  0  0
  153.5333  140.4584  159.7465 H   0  0  0  0  0  0  0  0  0  0  0  0
  147.6249  138.6127  154.6590 H   0  0  0  0  0  0  0  0  0  0  0  0
  146.8760  140.2155  152.1819 H   0  0  0  0  0  0  0  0  0  0  0  0
  148.1664  139.0261  152.3471 H   0  0  0  0  0  0  0  0  0  0  0  0
  145.4962  138.5566  151.4690 H   0  0  0  0  0  0  0  0  0  0  0  0
  146.6267  137.2845  151.9325 H   0  0  0  0  0  0  0  0  0  0  0  0
  144.2735  137.8724  153.3758 H   0  0  0  0  0  0  0  0  0  0  0  0
  145.6816  137.0434  154.0486 H   0  0  0  0  0  0  0  0  0  0  0  0
  1  2  1  0  0  0  0
  1 23  1  0  0  0  0
  1 24  1  0  0  0  0
  1 25  1  0  0  0  0
  2  3  1  0  0  0  0
  2 18  1  0  0  0  0
  2 26  1  0  0  0  0
  3  4  1  0  0  0  0
  3 27  1  0  0  0  0
  4  5  2  0  0  0  0
  4  6  1  0  0  0  0
  6  7  1  0  0  0  0
  6 28  1  0  0  0  0
  6 29  1  0  0  0  0
  7 16  1  0  0  0  0
  7  8  1  0  0  0  0
  8  9  2  0  0  0  0
  8 30  1  0  0  0  0
  9 10  1  0  0  0  0
  9 14  1  0  0  0  0
 10 11  1  0  0  0  0
 10 12  1  0  0  0  0
 10 13  1  0  0  0  0
 14 15  2  0  0  0  0
 14 31  1  0  0  0  0
 15 16  1  0  0  0  0
 15 32  1  0  0  0  0
 16 17  2  0  0  0  0
 18 22  1  0  0  0  0
 18 19  1  0  0  0  0
 18 33  1  0  0  0  0
 19 20  1  0  0  0  0
 19 34  1  0  0  0  0
 19 35  1  0  0  0  0
 20 21  1  0  0  0  0
 20 36  1  0  0  0  0
 20 37  1  0  0  0  0
 21 22  1  0  0  0  0
 21 38  1  0  0  0  0
 21 39  1  0  0  0  0
M  END
> <s_m_source_file>
AV-unprocessed.smi

> <i_m_source_file_index>
2151

> <i_lp_mmshare_version>
43012

> <i_f3d_flags>
0

> <s_epik_input>
TzFbQ0gyXVtDSDJdW0NIMl1bQ0BIXTFbQ0BIXShbQ0gzXSlbTkhdQyg9TylbQ0gyXW4yW2NIXWMoQyhGKShGKUYpW2NIXVtjSF1jMj1P

> <s_epik_cmdline>
J2VwaWtfcHl0aG9uJywgJy1waCcsICc3LjAnLCAnLXRuJywgJzgnLCAnLW1hJywgJzIwMCcsICctbWV0YWxfYmluZGluZycsICctaW1hZScsICc8aW5maWxlLm1hZT4nLCAnLW9tYWUnLCAnPG91dGZpbGUubWFlPic=

> <r_lp_tautomer_probability>
1

> <r_epik_Ionization_Penalty>
4.20109e-08

> <r_epik_Ionization_Penalty_Charging>
1.89977e-08

> <r_epik_Ionization_Penalty_Neutral>
2.30132e-08

> <r_epik_State_Penalty>
-0

> <r_epik_Charging_Adjusted_Penalty>
1.89977e-08

> <i_epik_Tot_Q>
0

> <i_epik_Tot_abs_Q>
0

> <r_epik_Metal_State_Penalty>
-0

> <b_epik_Metal_Only>
0

> <s_lp_Force_Field>
OPLS_2005

> <r_lp_Energy>
29.9007

> <b_lp_Chiralities_Consistent>
1

> <s_lp_Variant>
AV-unprocessed.smi:2151-1

> <Gold.Version>
5.8.1

> <Gold.Id.Protein>
6NUR|6NUR_protein|mol2

> <Gold.PLP.Fitness>
45.5119

> <Gold.PLP.PLP>
-42.5908

> <Gold.PLP.part.hbond>
-1.0000

> <Gold.PLP.part.metal>
0.0000

> <Gold.PLP.part.buried>
-3.4152

> <Gold.PLP.part.nonpolar>
-38.0097

> <Gold.PLP.part.repulsive>
0.3368

> <Gold.PLP.ligand.clash>
0.0000

> <Gold.PLP.ligand.torsion>
0.8343

> <Gold.PLP.Chemscore.Hbond>
0.8500

> <Gold.PLP.Chemscore.CHOScore>
0.6427

> <Gold.PLP.Chemscore.Metal>
0.0000

> <Gold.Chemscore.Hbonds>
donor molecule, donor type, donor heavy atom, donor atom, acceptor molecule, acceptor atom, score
      P1  H  7997  8008       L1    17  0.85
      L1  C     8    30       P1  8028  0.74

> <Gold.PLP.Chemscore.Internal.Correction>
0.1116

> <Gold.Rescore>
     Score         DG    S(hbond)    S(metal)    S(lipo)     H(rot)  DE(clash)    DE(int)     intcor
     10.76     -13.50       0.74        0.00      87.24       1.82       0.20       2.54       ----

> <Gold.Chemscore.Fitness>
10.7550

> <Gold.Chemscore.DG>
-13.4991

> <Gold.Chemscore.ZeroCoef>
-5.4800

> <Gold.Chemscore.Hbond>
0.7419

> <Gold.Chemscore.Metal>
0.0000

> <Gold.Chemscore.Lipo>
87.2436

> <Gold.Chemscore.Internal_Hbond>
0.0000

> <Gold.Chemscore.DEClash>
0.2043

> <Gold.Chemscore.DEInternal>
2.5398

> <Gold.Chemscore.Rot>
1.8228

> <Gold.Chemscore.Internal.Correction>
   9.000000E+99

> <Gold.Chemscore.Hbonds>
donor molecule, donor type, donor heavy atom, donor atom, acceptor molecule, acceptor atom, score
      P1  H  7997  8008       L1    17  0.14

> <Gold.Chemscore.Hbond.Weighted>
-2.4781

> <Gold.Chemscore.Metal.Weighted>
-0.0000

> <Gold.Chemscore.Lipo.Weighted>
-10.2075

> <Gold.Chemscore.Internal_Hbond.Weighted>
0.0000

> <Gold.Chemscore.DEClash.Weighted>
0.2043

> <Gold.Chemscore.DEInternal.Weighted>
2.5398

> <Gold.Chemscore.Rot.Weighted>
4.6665

> <Gold.Chemscore.Internal.Correction.Weighted>
   9.000000E+99

> <Gold.Protein.RotatedTorsions>
[ 6907 6896 6895 6894 ] final   21.69 input  -60.11 | X-H torsion
[ 7974 7965 7964 7962 ] final -155.94 input  175.53 | X-H torsion
[ 8008 7997 7996 7995 ] final  -70.25 input   59.86 | X-H torsion
[ 10167 10162 10161 10158 ] final  146.43 input  -65.29 | X-H torsion
[ 10718 10713 10712 10709 ] final    5.34 input   66.30 | X-H torsion
[ 10763 10752 10751 10750 ] final  -71.05 input  -60.55 | X-H torsion
[ 11005 11000 10999 10996 ] final  127.18 input  -57.11 | X-H torsion

> <Gold.Protein.ActiveResidues>
 VAL166  LYS551  ARG553  GLY616  TRP617  ASP618  TYR619  PRO620  LYS621  CYS622 
 ASP623  PHE694  ASN695  SER759  ASP760  ASP761  ALA762  ILE779  LEU786  VAL792 
 PHE793  MET794  SER795  GLU796  ALA797  LYS798  CYS799  TRP800  GLU811  SER814 

> <Gold.Protein.RotatedAtoms>
  151.9157  135.0320  160.0517 H   0  0  0  0  0  0  0  0  0  0  0  0  # atno 6907 bound_to 6896
  152.2242  133.5002  159.5187 H   0  0  0  0  0  0  0  0  0  0  0  0  # atno 6908 bound_to 6896
  150.7008  134.1219  159.4081 H   0  0  0  0  0  0  0  0  0  0  0  0  # atno 6909 bound_to 6896
  144.7616  140.4179  143.5972 H   0  0  0  0  0  0  0  0  0  0  0  0  # atno 7974 bound_to 7965
  154.4998  140.0838  156.7774 H   0  0  0  0  0  0  0  0  0  0  0  0  # atno 8008 bound_to 7997
  155.4030  140.3438  155.4240 H   0  0  0  0  0  0  0  0  0  0  0  0  # atno 8009 bound_to 7997
  156.1441  140.1538  156.8861 H   0  0  0  0  0  0  0  0  0  0  0  0  # atno 8010 bound_to 7997
  139.4907  144.5830  151.6834 H   0  0  0  0  0  0  0  0  0  0  0  0  # atno 10167 bound_to 10162
  156.9060  130.5739  149.5647 H   0  0  0  0  0  0  0  0  0  0  0  0  # atno 10718 bound_to 10713
  154.4263  135.5974  153.6041 H   0  0  0  0  0  0  0  0  0  0  0  0  # atno 10763 bound_to 10752
  152.9796  135.5964  154.3894 H   0  0  0  0  0  0  0  0  0  0  0  0  # atno 10764 bound_to 10752
  154.3726  135.2841  155.2236 H   0  0  0  0  0  0  0  0  0  0  0  0  # atno 10765 bound_to 10752
  139.9494  134.9624  156.8816 H   0  0  0  0  0  0  0  0  0  0  0  0  # atno 11005 bound_to 11000
  145.6601  139.1580  143.2813 LP  0  0  0  0  0  0  0  0  0  0  0  0  # atno 17320 bound_to 7965
  146.1684  140.6682  142.9244 LP  0  0  0  0  0  0  0  0  0  0  0  0  # atno 17321 bound_to 7965
  140.5440  144.0533  150.6099 LP  0  0  0  0  0  0  0  0  0  0  0  0  # atno 17342 bound_to 10162
  140.3565  143.2933  152.0430 LP  0  0  0  0  0  0  0  0  0  0  0  0  # atno 17343 bound_to 10162
  156.0559  130.5620  150.9090 LP  0  0  0  0  0  0  0  0  0  0  0  0  # atno 17370 bound_to 10713
  157.5997  131.0941  150.8981 LP  0  0  0  0  0  0  0  0  0  0  0  0  # atno 17371 bound_to 10713
  140.5755  134.0402  155.7445 LP  0  0  0  0  0  0  0  0  0  0  0  0  # atno 17394 bound_to 11000
  141.1153  133.9550  157.2834 LP  0  0  0  0  0  0  0  0  0  0  0  0  # atno 17395 bound_to 11000

$$$$
