AV-unprocessed.smi:256|AV-procd|sdf|1960|dock1
  -GOLD-   2262021103D 1   1.00000     0.00000
 Structure written by MMmdl.
 62 65  0  0  0  0  0  0  0  0  2 V2000
  146.1160  132.3020  155.7859 C   0  0  0  0  0  0  0  0  0  0  0  0
  147.2384  133.3390  155.9390 C   0  0  0  0  0  0  0  0  0  0  0  0
  146.7550  134.8116  155.8536 C   0  0  1  0  0  0  0  0  0  0  0  0
  147.8446  135.7336  156.4609 C   0  0  0  0  0  0  0  0  0  0  0  0
  147.5764  137.1477  156.2289 N   0  0  0  0  0  0  0  0  0  0  0  0
  148.2429  138.0669  156.9731 C   0  0  0  0  0  0  0  0  0  0  0  0
  147.8961  138.2682  158.2726 N   0  0  0  0  0  0  0  0  0  0  0  0
  148.5460  139.1716  159.0124 C   0  0  0  0  0  0  0  0  0  0  0  0
  149.5520  139.9727  158.6571 N   0  0  0  0  0  0  0  0  0  0  0  0
  149.8994  139.7834  157.3523 C   0  0  0  0  0  0  0  0  0  0  0  0
  149.3045  138.8577  156.4490 C   0  0  0  0  0  0  0  0  0  0  0  0
  149.9149  138.9537  155.2041 N   0  0  0  0  0  0  0  0  0  0  0  0
  150.8243  139.8756  155.3649 C   0  0  0  0  0  0  0  0  0  0  0  0
  150.8763  140.4372  156.6208 N   0  0  0  0  0  0  0  0  0  0  0  0
  151.7807  141.4867  157.0681 C   0  0  0  0  0  0  0  0  0  0  0  0
  151.0748  142.8285  157.4064 C   0  0  0  0  0  0  0  0  0  0  0  0
  150.0306  143.0106  156.4674 O   0  0  0  0  0  0  0  0  0  0  0  0
  150.4456  142.8701  158.8160 C   0  0  0  0  0  0  0  0  0  0  0  0
  151.5231  142.9983  159.9070 C   0  0  0  0  0  0  0  0  0  0  0  0
  152.3138  144.1584  159.6725 O   0  0  0  0  0  0  0  0  0  0  0  0
  153.0221  144.1110  158.4385 C   0  0  0  0  0  0  0  0  0  0  0  0
  152.0307  144.0298  157.2633 C   0  0  0  0  0  0  0  0  0  0  0  0
  147.3884  137.4849  154.8277 C   0  0  0  0  0  0  0  0  0  0  0  0
  146.2255  136.6692  154.2610 C   0  0  0  0  0  0  0  0  0  0  0  0
  146.4156  135.2044  154.4468 N   0  3  2  0  0  0  0  0  0  0  0  0
  145.2713  134.4536  153.8564 C   0  0  0  0  0  0  0  0  0  0  0  0
  145.2728  134.5585  152.3268 C   0  0  0  0  0  0  0  0  0  0  0  0
  144.1797  133.8168  151.8126 O   0  0  0  0  0  0  0  0  0  0  0  0
  144.4986  132.4519  151.6076 C   0  0  0  0  0  0  0  0  0  0  0  0
  146.5265  131.2922  155.7646 H   0  0  0  0  0  0  0  0  0  0  0  0
  145.5633  132.4532  154.8581 H   0  0  0  0  0  0  0  0  0  0  0  0
  145.4071  132.3436  156.6127 H   0  0  0  0  0  0  0  0  0  0  0  0
  147.7515  133.1765  156.8877 H   0  0  0  0  0  0  0  0  0  0  0  0
  147.9759  133.1146  155.1715 H   0  0  0  0  0  0  0  0  0  0  0  0
  145.8448  134.9265  156.4450 H   0  0  0  0  0  0  0  0  0  0  0  0
  147.9163  135.5548  157.5343 H   0  0  0  0  0  0  0  0  0  0  0  0
  148.8181  135.4933  156.0307 H   0  0  0  0  0  0  0  0  0  0  0  0
  148.2115  139.2675  160.0350 H   0  0  0  0  0  0  0  0  0  0  0  0
  151.4807  140.1814  154.5631 H   0  0  0  0  0  0  0  0  0  0  0  0
  152.3303  141.1110  157.9307 H   0  0  0  0  0  0  0  0  0  0  0  0
  152.5263  141.6422  156.2870 H   0  0  0  0  0  0  0  0  0  0  0  0
  150.3695  143.4988  155.7324 H   0  0  0  0  0  0  0  0  0  0  0  0
  149.7825  143.7330  158.8935 H   0  0  0  0  0  0  0  0  0  0  0  0
  149.8193  141.9971  159.0004 H   0  0  0  0  0  0  0  0  0  0  0  0
  151.0517  143.0886  160.8857 H   0  0  0  0  0  0  0  0  0  0  0  0
  152.1597  142.1141  159.9453 H   0  0  0  0  0  0  0  0  0  0  0  0
  153.6277  145.0130  158.3503 H   0  0  0  0  0  0  0  0  0  0  0  0
  153.7148  143.2688  158.4356 H   0  0  0  0  0  0  0  0  0  0  0  0
  152.5702  143.9822  156.3166 H   0  0  0  0  0  0  0  0  0  0  0  0
  151.4550  144.9566  157.2403 H   0  0  0  0  0  0  0  0  0  0  0  0
  147.1927  138.5470  154.6851 H   0  0  0  0  0  0  0  0  0  0  0  0
  148.3061  137.2607  154.2819 H   0  0  0  0  0  0  0  0  0  0  0  0
  145.3028  136.9802  154.7542 H   0  0  0  0  0  0  0  0  0  0  0  0
  146.1085  136.8902  153.1995 H   0  0  0  0  0  0  0  0  0  0  0  0
  145.2589  133.4058  154.1507 H   0  0  0  0  0  0  0  0  0  0  0  0
  144.3283  134.8475  154.2384 H   0  0  0  0  0  0  0  0  0  0  0  0
  145.1729  135.6049  152.0342 H   0  0  0  0  0  0  0  0  0  0  0  0
  146.2151  134.1928  151.9156 H   0  0  0  0  0  0  0  0  0  0  0  0
  143.6258  131.9260  151.2211 H   0  0  0  0  0  0  0  0  0  0  0  0
  144.7956  131.9712  152.5406 H   0  0  0  0  0  0  0  0  0  0  0  0
  145.3067  132.3399  150.8836 H   0  0  0  0  0  0  0  0  0  0  0  0
  147.2288  134.9553  153.9018 H   0  0  0  0  0  0  0  0  0  0  0  0
  1  2  1  0  0  0  0
  1 30  1  0  0  0  0
  1 31  1  0  0  0  0
  1 32  1  0  0  0  0
  2  3  1  0  0  0  0
  2 33  1  0  0  0  0
  2 34  1  0  0  0  0
  3 25  1  0  0  0  0
  3  4  1  0  0  0  0
  3 35  1  0  0  0  0
  4  5  1  0  0  0  0
  4 36  1  0  0  0  0
  4 37  1  0  0  0  0
  5  6  1  0  0  0  0
  5 23  1  0  0  0  0
  6 11  1  0  0  0  0
  6  7  2  0  0  0  0
  7  8  1  0  0  0  0
  8  9  2  0  0  0  0
  8 38  1  0  0  0  0
  9 10  1  0  0  0  0
 10 14  1  0  0  0  0
 10 11  2  0  0  0  0
 11 12  1  0  0  0  0
 12 13  2  0  0  0  0
 13 14  1  0  0  0  0
 13 39  1  0  0  0  0
 14 15  1  0  0  0  0
 15 16  1  0  0  0  0
 15 40  1  0  0  0  0
 15 41  1  0  0  0  0
 16 22  1  0  0  0  0
 16 17  1  0  0  0  0
 16 18  1  0  0  0  0
 17 42  1  0  0  0  0
 18 19  1  0  0  0  0
 18 43  1  0  0  0  0
 18 44  1  0  0  0  0
 19 20  1  0  0  0  0
 19 45  1  0  0  0  0
 19 46  1  0  0  0  0
 20 21  1  0  0  0  0
 21 22  1  0  0  0  0
 21 47  1  0  0  0  0
 21 48  1  0  0  0  0
 22 49  1  0  0  0  0
 22 50  1  0  0  0  0
 23 24  1  0  0  0  0
 23 51  1  0  0  0  0
 23 52  1  0  0  0  0
 24 25  1  0  0  0  0
 24 53  1  0  0  0  0
 24 54  1  0  0  0  0
 25 26  1  0  0  0  0
 25 62  1  0  0  0  0
 26 27  1  0  0  0  0
 26 55  1  0  0  0  0
 26 56  1  0  0  0  0
 27 28  1  0  0  0  0
 27 57  1  0  0  0  0
 27 58  1  0  0  0  0
 28 29  1  0  0  0  0
 29 59  1  0  0  0  0
 29 60  1  0  0  0  0
 29 61  1  0  0  0  0
M  CHG  1  25   1
M  END
> <s_m_source_file>
AV-unprocessed.smi

> <i_m_source_file_index>
256

> <i_lp_mmshare_version>
43012

> <i_f3d_flags>
0

> <s_epik_input>
W0NIM11PW0NIMl1bQ0gyXU4xW0NIMl1bQ0gyXU4oW0NIMl1bQ0BIXTFbQ0gyXVtDSDNdKWMobltjSF1uMiljKGMyMyluW2NIXW4zW0NIMl1DNChbT0hdKVtDSDJdW0NIMl1PW0NIMl1bQ0gyXTQ=

> <s_epik_cmdline>
J2VwaWtfcHl0aG9uJywgJy1waCcsICc3LjAnLCAnLXRuJywgJzgnLCAnLW1hJywgJzIwMCcsICctbWV0YWxfYmluZGluZycsICctaW1hZScsICc8aW5maWxlLm1hZT4nLCAnLW9tYWUnLCAnPG91dGZpbGUubWFlPic=

> <r_lp_tautomer_probability>
1

> <r_epik_Ionization_Penalty>
0.233023

> <r_epik_Ionization_Penalty_Charging>
0.23295

> <r_epik_Ionization_Penalty_Neutral>
7.2493e-05

> <r_epik_State_Penalty>
0.223667

> <r_epik_Charging_Adjusted_Penalty>
0.456618

> <i_epik_Tot_Q>
1

> <i_epik_Tot_abs_Q>
1

> <r_epik_Metal_State_Penalty>
0.226879

> <b_epik_Metal_Only>
0

> <s_lp_Force_Field>
OPLS_2005

> <r_lp_Energy>
45.9613

> <b_lp_Chiralities_Consistent>
1

> <s_lp_Variant>
AV-unprocessed.smi:256-4

> <Gold.Version>
5.8.1

> <Gold.Id.Protein>
6NUR|6NUR_protein|mol2

> <Gold.PLP.Fitness>
46.6251

> <Gold.PLP.PLP>
-39.5628

> <Gold.PLP.part.hbond>
-2.0000

> <Gold.PLP.part.metal>
0.0000

> <Gold.PLP.part.buried>
-3.8631

> <Gold.PLP.part.nonpolar>
-34.2762

> <Gold.PLP.part.repulsive>
0.2914

> <Gold.PLP.ligand.clash>
0.0000

> <Gold.PLP.ligand.torsion>
1.3241

> <Gold.PLP.Chemscore.Hbond>
3.0000

> <Gold.PLP.Chemscore.CHOScore>
0.0000

> <Gold.PLP.Chemscore.Metal>
0.0000

> <Gold.PLP.Chemscore.Internal.Correction>
0.7105

> <Gold.Rescore>
     Score         DG    S(hbond)    S(metal)    S(lipo)     H(rot)  DE(clash)    DE(int)     intcor
     11.54     -16.81       1.97        0.00     104.59       2.92       2.64       2.64       ----

> <Gold.Chemscore.Fitness>
11.5380

> <Gold.Chemscore.DG>
-16.8148

> <Gold.Chemscore.ZeroCoef>
-5.4800

> <Gold.Chemscore.Hbond>
1.9715

> <Gold.Chemscore.Metal>
0.0000

> <Gold.Chemscore.Lipo>
104.5931

> <Gold.Chemscore.Internal_Hbond>
0.0000

> <Gold.Chemscore.DEClash>
2.6358

> <Gold.Chemscore.DEInternal>
2.6409

> <Gold.Chemscore.Rot>
2.9247

> <Gold.Chemscore.Internal.Correction>
   9.000000E+99

> <Gold.Chemscore.Hbonds>
donor molecule, donor type, donor heavy atom, donor atom, acceptor molecule, acceptor atom, score
      L1  H    17    42       P1  8028  0.02

> <Gold.Chemscore.Hbond.Weighted>
-6.5847

> <Gold.Chemscore.Metal.Weighted>
-0.0000

> <Gold.Chemscore.Lipo.Weighted>
-12.2374

> <Gold.Chemscore.Internal_Hbond.Weighted>
0.0000

> <Gold.Chemscore.DEClash.Weighted>
2.6358

> <Gold.Chemscore.DEInternal.Weighted>
2.6409

> <Gold.Chemscore.Rot.Weighted>
7.4873

> <Gold.Chemscore.Internal.Correction.Weighted>
   9.000000E+99

> <Gold.Protein.RotatedTorsions>
[ 6907 6896 6895 6894 ] final  123.36 input  -60.11 | X-H torsion
[ 7974 7965 7964 7962 ] final   14.00 input  175.53 | X-H torsion
[ 8008 7997 7996 7995 ] final  -73.12 input   59.86 | X-H torsion
[ 10167 10162 10161 10158 ] final   80.25 input  -65.29 | X-H torsion
[ 10718 10713 10712 10709 ] final -128.08 input   66.30 | X-H torsion
[ 10763 10752 10751 10750 ] final -131.93 input  -60.55 | X-H torsion
[ 11005 11000 10999 10996 ] final -109.40 input  -57.11 | X-H torsion

> <Gold.Protein.ActiveResidues>
 VAL166  LYS551  ARG553  GLY616  TRP617  ASP618  TYR619  PRO620  LYS621  CYS622 
 ASP623  PHE694  ASN695  SER759  ASP760  ASP761  ALA762  ILE779  LEU786  VAL792 
 PHE793  MET794  SER795  GLU796  ALA797  LYS798  CYS799  TRP800  GLU811  SER814 

> <Gold.Protein.RotatedAtoms>
  152.4168  133.7051  159.6445 H   0  0  0  0  0  0  0  0  0  0  0  0  # atno 6907 bound_to 6896
  150.8045  133.8525  159.3218 H   0  0  0  0  0  0  0  0  0  0  0  0  # atno 6908 bound_to 6896
  151.6253  135.1030  160.0162 H   0  0  0  0  0  0  0  0  0  0  0  0  # atno 6909 bound_to 6896
  146.2316  139.9105  142.8525 H   0  0  0  0  0  0  0  0  0  0  0  0  # atno 7974 bound_to 7965
  154.5221  140.0785  156.8191 H   0  0  0  0  0  0  0  0  0  0  0  0  # atno 8008 bound_to 7997
  155.3554  140.3415  155.4221 H   0  0  0  0  0  0  0  0  0  0  0  0  # atno 8009 bound_to 7997
  156.1692  140.1614  156.8464 H   0  0  0  0  0  0  0  0  0  0  0  0  # atno 8010 bound_to 7997
  139.9518  144.6021  150.8154 H   0  0  0  0  0  0  0  0  0  0  0  0  # atno 10167 bound_to 10162
  156.1917  130.6800  151.0432 H   0  0  0  0  0  0  0  0  0  0  0  0  # atno 10718 bound_to 10713
  154.8747  135.3814  154.4326 H   0  0  0  0  0  0  0  0  0  0  0  0  # atno 10763 bound_to 10752
  153.5019  135.7030  153.5832 H   0  0  0  0  0  0  0  0  0  0  0  0  # atno 10764 bound_to 10752
  153.4160  135.3913  155.2048 H   0  0  0  0  0  0  0  0  0  0  0  0  # atno 10765 bound_to 10752
  141.0850  133.9155  157.2206 H   0  0  0  0  0  0  0  0  0  0  0  0  # atno 11005 bound_to 11000
  145.2234  140.9944  143.4032 LP  0  0  0  0  0  0  0  0  0  0  0  0  # atno 17320 bound_to 7965
  144.9591  139.3999  143.6365 LP  0  0  0  0  0  0  0  0  0  0  0  0  # atno 17321 bound_to 7965
  140.7580  143.3099  151.2870 LP  0  0  0  0  0  0  0  0  0  0  0  0  # atno 17342 bound_to 10162
  139.6623  144.0168  152.2700 LP  0  0  0  0  0  0  0  0  0  0  0  0  # atno 17343 bound_to 10162
  157.6933  131.0802  150.7043 LP  0  0  0  0  0  0  0  0  0  0  0  0  # atno 17370 bound_to 10713
  156.7100  130.4649  149.5550 LP  0  0  0  0  0  0  0  0  0  0  0  0  # atno 17371 bound_to 10713
  139.9667  135.0140  156.9405 LP  0  0  0  0  0  0  0  0  0  0  0  0  # atno 17394 bound_to 11000
  140.5384  134.0744  155.7334 LP  0  0  0  0  0  0  0  0  0  0  0  0  # atno 17395 bound_to 11000

$$$$
