AV-unprocessed.smi:46|AV-procd|sdf|422|dock3
  -GOLD-   2262016303D 1   1.00000     0.00000
 Structure written by MMmdl.
 35 36  0  0  0  0  0  0  0  0  2 V2000
  152.0724  144.1538  158.3592 C   0  0  0  0  0  0  0  0  0  0  0  0
  151.6694  142.7811  158.9181 C   0  0  0  0  0  0  0  0  0  0  0  0
  152.7203  142.2234  159.8898 C   0  0  0  0  0  0  0  0  0  0  0  0
  151.4103  141.8399  157.8392 N   0  0  0  0  0  0  0  0  0  0  0  0
  150.5449  141.9661  156.7717 C   0  0  0  0  0  0  0  0  0  0  0  0
  150.6400  140.8264  156.0222 C   0  0  0  0  0  0  0  0  0  0  0  0
  149.9178  140.4547  154.7529 C   0  0  1  0  0  0  0  0  0  0  0  0
  150.3965  139.1319  154.1531 C   0  0  0  0  0  0  0  0  0  0  0  0
  149.3279  138.7260  153.2244 N   0  3  0  0  0  0  0  0  0  0  0  0
  148.0797  139.3955  153.6472 C   0  0  0  0  0  0  0  0  0  0  0  0
  148.4152  140.2065  154.9124 C   0  0  2  0  0  0  0  0  0  0  0  0
  147.5809  141.4886  155.0783 C   0  0  0  0  0  0  0  0  0  0  0  0
  148.0061  142.4672  154.1546 O   0  0  0  0  0  0  0  0  0  0  0  0
  151.6043  140.0518  156.7272 C   0  0  0  0  0  0  0  0  0  0  0  0
  152.0604  140.6573  157.8103 N   0  0  0  0  0  0  0  0  0  0  0  0
  150.0587  141.2345  154.0020 H   0  0  0  0  0  0  0  0  0  0  0  0
  148.2604  139.5608  155.7792 H   0  0  0  0  0  0  0  0  0  0  0  0
  152.2078  144.8781  159.1628 H   0  0  0  0  0  0  0  0  0  0  0  0
  151.3059  144.5446  157.6894 H   0  0  0  0  0  0  0  0  0  0  0  0
  153.0074  144.0993  157.8008 H   0  0  0  0  0  0  0  0  0  0  0  0
  150.7414  142.9125  159.4778 H   0  0  0  0  0  0  0  0  0  0  0  0
  152.8732  142.9004  160.7306 H   0  0  0  0  0  0  0  0  0  0  0  0
  153.6841  142.0818  159.3998 H   0  0  0  0  0  0  0  0  0  0  0  0
  152.4078  141.2606  160.2953 H   0  0  0  0  0  0  0  0  0  0  0  0
  149.9393  142.8499  156.6346 H   0  0  0  0  0  0  0  0  0  0  0  0
  151.3635  139.2135  153.6560 H   0  0  0  0  0  0  0  0  0  0  0  0
  150.4777  138.3647  154.9245 H   0  0  0  0  0  0  0  0  0  0  0  0
  149.5601  139.0364  152.2916 H   0  0  0  0  0  0  0  0  0  0  0  0
  147.7549  140.0489  152.8365 H   0  0  0  0  0  0  0  0  0  0  0  0
  147.2861  138.6698  153.8281 H   0  0  0  0  0  0  0  0  0  0  0  0
  146.5260  141.2803  154.8977 H   0  0  0  0  0  0  0  0  0  0  0  0
  147.6631  141.8855  156.0906 H   0  0  0  0  0  0  0  0  0  0  0  0
  148.5424  143.0991  154.6100 H   0  0  0  0  0  0  0  0  0  0  0  0
  151.9848  139.0709  156.4835 H   0  0  0  0  0  0  0  0  0  0  0  0
  149.2196  137.7219  153.2322 H   0  0  0  0  0  0  0  0  0  0  0  0
  1  2  1  0  0  0  0
  1 18  1  0  0  0  0
  1 19  1  0  0  0  0
  1 20  1  0  0  0  0
  2  3  1  0  0  0  0
  2  4  1  0  0  0  0
  2 21  1  0  0  0  0
  3 22  1  0  0  0  0
  3 23  1  0  0  0  0
  3 24  1  0  0  0  0
  4 15  1  0  0  0  0
  4  5  1  0  0  0  0
  5  6  2  0  0  0  0
  5 25  1  0  0  0  0
  6  7  1  0  0  0  0
  6 14  1  0  0  0  0
  7 16  1  0  0  0  0
  7 11  1  0  0  0  0
  7  8  1  0  0  0  0
  8  9  1  0  0  0  0
  8 26  1  0  0  0  0
  8 27  1  0  0  0  0
  9 10  1  0  0  0  0
  9 28  1  0  0  0  0
  9 35  1  0  0  0  0
 10 11  1  0  0  0  0
 10 29  1  0  0  0  0
 10 30  1  0  0  0  0
 11 17  1  0  0  0  0
 11 12  1  0  0  0  0
 12 13  1  0  0  0  0
 12 31  1  0  0  0  0
 12 32  1  0  0  0  0
 13 33  1  0  0  0  0
 14 15  2  0  0  0  0
 14 34  1  0  0  0  0
M  CHG  1   9   1
M  END
> <s_m_source_file>
AV-unprocessed.smi

> <i_m_source_file_index>
46

> <i_lp_mmshare_version>
43012

> <i_f3d_flags>
0

> <s_epik_input>
W0NIM11bQ0hdKFtDSDNdKW4xW2NIXWMoW2NIXW4xKVtDQEBIXTJbQ0gyXVtOSF1bQ0gyXVtDQEhdMltDSDJdW09IXQ==

> <s_epik_cmdline>
J2VwaWtfcHl0aG9uJywgJy1waCcsICc3LjAnLCAnLXRuJywgJzgnLCAnLW1hJywgJzIwMCcsICctbWV0YWxfYmluZGluZycsICctaW1hZScsICc8aW5maWxlLm1hZT4nLCAnLW9tYWUnLCAnPG91dGZpbGUubWFlPic=

> <r_lp_tautomer_probability>
1

> <r_epik_Ionization_Penalty>
0.000236226

> <r_epik_Ionization_Penalty_Charging>
0.00021985

> <r_epik_Ionization_Penalty_Neutral>
1.63752e-05

> <r_epik_State_Penalty>
-0

> <r_epik_Charging_Adjusted_Penalty>
0.00021985

> <i_epik_Tot_Q>
1

> <i_epik_Tot_abs_Q>
1

> <r_epik_Metal_State_Penalty>
-0

> <b_epik_Metal_Only>
0

> <s_lp_Force_Field>
OPLS_2005

> <r_lp_Energy>
29.3902

> <b_lp_Chiralities_Consistent>
1

> <s_lp_Variant>
AV-unprocessed.smi:46-4

> <Gold.Version>
5.8.1

> <Gold.Id.Protein>
6NUR|6NUR_protein|mol2

> <Gold.PLP.Fitness>
46.6911

> <Gold.PLP.PLP>
-33.9706

> <Gold.PLP.part.hbond>
-4.1223

> <Gold.PLP.part.metal>
0.0000

> <Gold.PLP.part.buried>
-0.2231

> <Gold.PLP.part.nonpolar>
-29.2052

> <Gold.PLP.part.repulsive>
0.0977

> <Gold.PLP.ligand.clash>
0.0000

> <Gold.PLP.ligand.torsion>
0.2236

> <Gold.PLP.Chemscore.Hbond>
3.3760

> <Gold.PLP.Chemscore.CHOScore>
1.0000

> <Gold.PLP.Chemscore.Metal>
0.0000

> <Gold.Chemscore.Hbonds>
donor molecule, donor type, donor heavy atom, donor atom, acceptor molecule, acceptor atom, score
      L1  H     9    28       P1  7957  0.91
      L1  H     9    35       P1  7948  1.47
      L1  H    13    33       P1  8028  1.00
      L1  C     5    25       P1  8028  1.00

> <Gold.PLP.Chemscore.Internal.Correction>
0.0397

> <Gold.Rescore>
     Score         DG    S(hbond)    S(metal)    S(lipo)     H(rot)  DE(clash)    DE(int)     intcor
     18.82     -19.00       2.55        0.00      84.21       1.90       0.02       0.16       ----

> <Gold.Chemscore.Fitness>
18.8236

> <Gold.Chemscore.DG>
-19.0037

> <Gold.Chemscore.ZeroCoef>
-5.4800

> <Gold.Chemscore.Hbond>
2.5536

> <Gold.Chemscore.Metal>
0.0000

> <Gold.Chemscore.Lipo>
84.2089

> <Gold.Chemscore.Internal_Hbond>
0.0000

> <Gold.Chemscore.DEClash>
0.0222

> <Gold.Chemscore.DEInternal>
0.1579

> <Gold.Chemscore.Rot>
1.8976

> <Gold.Chemscore.Internal.Correction>
   9.000000E+99

> <Gold.Chemscore.Hbonds>
donor molecule, donor type, donor heavy atom, donor atom, acceptor molecule, acceptor atom, score
      L1  H     9    28       P1  7957  0.68
      L1  H     9    35       P1  7948  0.67
      L1  H    13    33       P1  8028  0.97

> <Gold.Chemscore.Hbond.Weighted>
-8.5291

> <Gold.Chemscore.Metal.Weighted>
-0.0000

> <Gold.Chemscore.Lipo.Weighted>
-9.8524

> <Gold.Chemscore.Internal_Hbond.Weighted>
0.0000

> <Gold.Chemscore.DEClash.Weighted>
0.0222

> <Gold.Chemscore.DEInternal.Weighted>
0.1579

> <Gold.Chemscore.Rot.Weighted>
4.8579

> <Gold.Chemscore.Internal.Correction.Weighted>
   9.000000E+99

> <Gold.Protein.RotatedTorsions>
[ 6907 6896 6895 6894 ] final -148.22 input  -60.11 | X-H torsion
[ 7974 7965 7964 7962 ] final -172.11 input  175.53 | X-H torsion
[ 8008 7997 7996 7995 ] final -126.81 input   59.86 | X-H torsion
[ 10167 10162 10161 10158 ] final -123.93 input  -65.29 | X-H torsion
[ 10718 10713 10712 10709 ] final  -26.60 input   66.30 | X-H torsion
[ 10763 10752 10751 10750 ] final -153.72 input  -60.55 | X-H torsion
[ 11005 11000 10999 10996 ] final   27.27 input  -57.11 | X-H torsion

> <Gold.Protein.ActiveResidues>
 VAL166  LYS551  ARG553  GLY616  TRP617  ASP618  TYR619  PRO620  LYS621  CYS622 
 ASP623  PHE694  ASN695  SER759  ASP760  ASP761  ALA762  ILE779  LEU786  VAL792 
 PHE793  MET794  SER795  GLU796  ALA797  LYS798  CYS799  TRP800  GLU811  SER814 

> <Gold.Protein.RotatedAtoms>
  151.1668  133.4810  159.2593 H   0  0  0  0  0  0  0  0  0  0  0  0  # atno 6907 bound_to 6896
  151.1397  135.0173  159.8630 H   0  0  0  0  0  0  0  0  0  0  0  0  # atno 6908 bound_to 6896
  152.5462  134.1562  159.8592 H   0  0  0  0  0  0  0  0  0  0  0  0  # atno 6909 bound_to 6896
  144.7149  140.1821  143.6357 H   0  0  0  0  0  0  0  0  0  0  0  0  # atno 7974 bound_to 7965
  155.2359  140.0427  157.2968 H   0  0  0  0  0  0  0  0  0  0  0  0  # atno 8008 bound_to 7997
  154.5859  140.2413  155.7958 H   0  0  0  0  0  0  0  0  0  0  0  0  # atno 8009 bound_to 7997
  156.2226  140.2965  155.9997 H   0  0  0  0  0  0  0  0  0  0  0  0  # atno 8010 bound_to 7997
  139.9982  143.5568  152.2314 H   0  0  0  0  0  0  0  0  0  0  0  0  # atno 10167 bound_to 10162
  156.4491  130.4480  149.7002 H   0  0  0  0  0  0  0  0  0  0  0  0  # atno 10718 bound_to 10713
  154.7908  135.3206  154.7780 H   0  0  0  0  0  0  0  0  0  0  0  0  # atno 10763 bound_to 10752
  153.8470  135.6866  153.4801 H   0  0  0  0  0  0  0  0  0  0  0  0  # atno 10764 bound_to 10752
  153.1578  135.4673  154.9669 H   0  0  0  0  0  0  0  0  0  0  0  0  # atno 10765 bound_to 10752
  140.3281  134.2468  155.7706 H   0  0  0  0  0  0  0  0  0  0  0  0  # atno 11005 bound_to 11000
  145.8847  139.2342  143.1585 LP  0  0  0  0  0  0  0  0  0  0  0  0  # atno 17320 bound_to 7965
  145.9961  140.8560  143.0042 LP  0  0  0  0  0  0  0  0  0  0  0  0  # atno 17321 bound_to 7965
  139.6290  144.7641  151.2576 LP  0  0  0  0  0  0  0  0  0  0  0  0  # atno 17342 bound_to 10162
  140.7429  143.6512  150.8247 LP  0  0  0  0  0  0  0  0  0  0  0  0  # atno 17343 bound_to 10162
  156.3836  130.7591  151.2586 LP  0  0  0  0  0  0  0  0  0  0  0  0  # atno 17370 bound_to 10713
  157.7503  131.0288  150.4067 LP  0  0  0  0  0  0  0  0  0  0  0  0  # atno 17371 bound_to 10713
  141.2070  133.7817  157.0144 LP  0  0  0  0  0  0  0  0  0  0  0  0  # atno 17394 bound_to 11000
  140.0884  134.9607  157.1737 LP  0  0  0  0  0  0  0  0  0  0  0  0  # atno 17395 bound_to 11000

$$$$
