AV-unprocessed.smi:72|AV-procd|sdf|680|dock8
  -GOLD-   2262016593D 1   1.00000     0.00000
 Structure written by MMmdl.
 29 30  0  0  0  0  0  0  0  0  1 V2000
  153.5226  143.4820  159.7489 N   0  0  0  0  0  0  0  0  0  0  0  0
  152.6541  142.8685  159.0281 C   0  0  0  0  0  0  0  0  0  0  0  0
  151.9070  143.4455  157.9903 N   0  0  0  0  0  0  0  0  0  0  0  0
  151.0610  142.7023  157.3457 C   0  0  0  0  0  0  0  0  0  0  0  0
  150.8621  141.2957  157.6667 N   0  0  0  0  0  0  0  0  0  0  0  0
  149.8758  140.4247  156.9109 C   0  0  1  0  0  0  0  0  0  0  0  0
  149.0185  141.2315  156.1514 O   0  0  0  0  0  0  0  0  0  0  0  0
  149.2542  141.0106  154.7657 C   0  0  2  0  0  0  0  0  0  0  0  0
  148.0279  141.4205  153.9302 C   0  0  0  0  0  0  0  0  0  0  0  0
  147.7495  140.4933  152.9014 O   0  0  0  0  0  0  0  0  0  0  0  0
  149.6911  139.5469  154.6985 C   0  0  1  0  0  0  0  0  0  0  0  0
  150.3676  139.2208  153.4986 O   0  0  0  0  0  0  0  0  0  0  0  0
  150.5592  139.4207  155.9472 C   0  0  1  0  0  0  0  0  0  0  0  0
  151.9229  139.7222  155.6884 O   0  0  0  0  0  0  0  0  0  0  0  0
  151.6176  140.6971  158.7041 C   0  0  0  0  0  0  0  0  0  0  0  0
  151.5045  139.5076  158.9990 O   0  0  0  0  0  0  0  0  0  0  0  0
  152.4789  141.5156  159.3458 N   0  0  0  0  0  0  0  0  0  0  0  0
  149.2662  139.9367  157.6733 H   0  0  0  0  0  0  0  0  0  0  0  0
  150.0943  141.6461  154.4799 H   0  0  0  0  0  0  0  0  0  0  0  0
  148.8299  138.8871  154.8083 H   0  0  0  0  0  0  0  0  0  0  0  0
  150.5067  138.4164  156.3684 H   0  0  0  0  0  0  0  0  0  0  0  0
  153.5916  144.4477  159.4608 H   0  0  0  0  0  0  0  0  0  0  0  0
  150.4533  143.0866  156.5266 H   0  0  0  0  0  0  0  0  0  0  0  0
  147.1509  141.5349  154.5678 H   0  0  0  0  0  0  0  0  0  0  0  0
  148.2101  142.3886  153.4633 H   0  0  0  0  0  0  0  0  0  0  0  0
  148.3858  140.6085  152.2120 H   0  0  0  0  0  0  0  0  0  0  0  0
  149.7916  139.4014  152.7718 H   0  0  0  0  0  0  0  0  0  0  0  0
  151.9998  140.0120  154.7924 H   0  0  0  0  0  0  0  0  0  0  0  0
  153.0311  141.1222  160.0940 H   0  0  0  0  0  0  0  0  0  0  0  0
  1  2  2  0  0  0  0
  1 22  1  0  0  0  0
  2 17  1  0  0  0  0
  2  3  1  0  0  0  0
  3  4  2  0  0  0  0
  4  5  1  0  0  0  0
  4 23  1  0  0  0  0
  5  6  1  0  0  0  0
  5 15  1  0  0  0  0
  6 18  1  0  0  0  0
  6 13  1  0  0  0  0
  6  7  1  0  0  0  0
  7  8  1  0  0  0  0
  8 19  1  0  0  0  0
  8  9  1  0  0  0  0
  8 11  1  0  0  0  0
  9 10  1  0  0  0  0
  9 24  1  0  0  0  0
  9 25  1  0  0  0  0
 10 26  1  0  0  0  0
 11 20  1  0  0  0  0
 11 12  1  0  0  0  0
 11 13  1  0  0  0  0
 12 27  1  0  0  0  0
 13 21  1  0  0  0  0
 13 14  1  0  0  0  0
 14 28  1  0  0  0  0
 15 16  2  0  0  0  0
 15 17  1  0  0  0  0
 17 29  1  0  0  0  0
M  END
> <s_m_source_file>
AV-unprocessed.smi

> <i_m_source_file_index>
72

> <i_lp_mmshare_version>
43012

> <i_f3d_flags>
0

> <s_epik_input>
W05IMl1jMW5bY0hdbihjKD1PKW4xKVtDQEBIXTJPW0NASF0oW0NIMl1bT0hdKVtDQEBIXShbT0hdKVtDQEhdMltPSF0=

> <s_epik_cmdline>
J2VwaWtfcHl0aG9uJywgJy1waCcsICc3LjAnLCAnLXRuJywgJzgnLCAnLW1hJywgJzIwMCcsICctbWV0YWxfYmluZGluZycsICctaW1hZScsICc8aW5maWxlLm1hZT4nLCAnLW9tYWUnLCAnPG91dGZpbGUubWFlPic=

> <r_lp_tautomer_probability>
7.17554e-07

> <r_epik_Ionization_Penalty>
0.0066451

> <r_epik_Ionization_Penalty_Charging>
0.00663793

> <r_epik_Ionization_Penalty_Neutral>
7.17052e-06

> <r_epik_State_Penalty>
0.419231

> <r_epik_Charging_Adjusted_Penalty>
0.425868

> <i_epik_Tot_Q>
0

> <i_epik_Tot_abs_Q>
0

> <r_epik_Metal_State_Penalty>
1.44144

> <b_epik_Metal_Only>
0

> <s_epik_Chemistry_Notes>
This compound contains an acetal/aminal-like group ( X-CH(R)-Y where X, Y are N, S, or O) that may be acid/base labile, releasing an aldehyde.

> <s_lp_Force_Field>
OPLS_2005

> <r_lp_Energy>
48.597

> <b_lp_Chiralities_Consistent>
1

> <s_lp_Variant>
AV-unprocessed.smi:72-18

> <Gold.Version>
5.8.1

> <Gold.Id.Protein>
6NUR|6NUR_protein|mol2

> <Gold.PLP.Fitness>
34.4739

> <Gold.PLP.PLP>
-24.8343

> <Gold.PLP.part.hbond>
-3.0000

> <Gold.PLP.part.metal>
0.0000

> <Gold.PLP.part.buried>
-2.3578

> <Gold.PLP.part.nonpolar>
-19.0379

> <Gold.PLP.part.repulsive>
0.2600

> <Gold.PLP.ligand.clash>
0.0000

> <Gold.PLP.ligand.torsion>
0.9007

> <Gold.PLP.Chemscore.Hbond>
2.7976

> <Gold.PLP.Chemscore.CHOScore>
1.0000

> <Gold.PLP.Chemscore.Metal>
0.0000

> <Gold.Chemscore.Hbonds>
donor molecule, donor type, donor heavy atom, donor atom, acceptor molecule, acceptor atom, score
      L1  H    10    26       P1  7957  1.00
      L1  H    12    27       P1  7957  0.94
      P1  H  7989  7998       L1    12  0.67
      L1  C     4    23       P1  8028  1.00

> <Gold.PLP.Chemscore.Internal.Correction>
0.0482

> <Gold.Rescore>
     Score         DG    S(hbond)    S(metal)    S(lipo)     H(rot)  DE(clash)    DE(int)     intcor
      3.48      -4.76       1.97        0.00      26.36       4.06       0.52       0.76       ----

> <Gold.Chemscore.Fitness>
3.4761

> <Gold.Chemscore.DG>
-4.7609

> <Gold.Chemscore.ZeroCoef>
-5.4800

> <Gold.Chemscore.Hbond>
1.9733

> <Gold.Chemscore.Metal>
0.0000

> <Gold.Chemscore.Lipo>
26.3570

> <Gold.Chemscore.Internal_Hbond>
0.0000

> <Gold.Chemscore.DEClash>
0.5209

> <Gold.Chemscore.DEInternal>
0.7639

> <Gold.Chemscore.Rot>
4.0600

> <Gold.Chemscore.Internal.Correction>
   9.000000E+99

> <Gold.Chemscore.Hbonds>
donor molecule, donor type, donor heavy atom, donor atom, acceptor molecule, acceptor atom, score
      L1  H    10    26       P1  7957  0.98
      L1  H    12    27       P1  7957  0.90
      P1  H  7989  7998       L1    12  0.04

> <Gold.Chemscore.Hbond.Weighted>
-6.5907

> <Gold.Chemscore.Metal.Weighted>
-0.0000

> <Gold.Chemscore.Lipo.Weighted>
-3.0838

> <Gold.Chemscore.Internal_Hbond.Weighted>
0.0000

> <Gold.Chemscore.DEClash.Weighted>
0.5209

> <Gold.Chemscore.DEInternal.Weighted>
0.7639

> <Gold.Chemscore.Rot.Weighted>
10.3936

> <Gold.Chemscore.Internal.Correction.Weighted>
   9.000000E+99

> <Gold.Protein.RotatedTorsions>
[ 6907 6896 6895 6894 ] final  154.85 input  -60.11 | X-H torsion
[ 7974 7965 7964 7962 ] final  147.85 input  175.53 | X-H torsion
[ 8008 7997 7996 7995 ] final  171.12 input   59.86 | X-H torsion
[ 10167 10162 10161 10158 ] final  176.52 input  -65.29 | X-H torsion
[ 10718 10713 10712 10709 ] final  159.16 input   66.30 | X-H torsion
[ 10763 10752 10751 10750 ] final   69.19 input  -60.55 | X-H torsion
[ 11005 11000 10999 10996 ] final  130.49 input  -57.11 | X-H torsion

> <Gold.Protein.ActiveResidues>
 VAL166  LYS551  ARG553  GLY616  TRP617  ASP618  TYR619  PRO620  LYS621  CYS622 
 ASP623  PHE694  ASN695  SER759  ASP760  ASP761  ALA762  ILE779  LEU786  VAL792 
 PHE793  MET794  SER795  GLU796  ALA797  LYS798  CYS799  TRP800  GLU811  SER814 

> <Gold.Protein.RotatedAtoms>
  152.0525  133.4025  159.4382 H   0  0  0  0  0  0  0  0  0  0  0  0  # atno 6907 bound_to 6896
  150.6869  134.3291  159.4829 H   0  0  0  0  0  0  0  0  0  0  0  0  # atno 6908 bound_to 6896
  152.1103  134.9278  160.0617 H   0  0  0  0  0  0  0  0  0  0  0  0  # atno 6909 bound_to 6896
  144.8559  139.6080  143.5952 H   0  0  0  0  0  0  0  0  0  0  0  0  # atno 7974 bound_to 7965
  156.1301  140.1520  156.9078 H   0  0  0  0  0  0  0  0  0  0  0  0  # atno 8008 bound_to 7997
  154.4902  140.0853  156.7618 H   0  0  0  0  0  0  0  0  0  0  0  0  # atno 8009 bound_to 7997
  155.4271  140.3425  155.4279 H   0  0  0  0  0  0  0  0  0  0  0  0  # atno 8010 bound_to 7997
  139.5217  144.2905  152.0467 H   0  0  0  0  0  0  0  0  0  0  0  0  # atno 10167 bound_to 10162
  157.1680  131.0603  151.2198 H   0  0  0  0  0  0  0  0  0  0  0  0  # atno 10718 bound_to 10713
  153.0274  135.5220  154.7249 H   0  0  0  0  0  0  0  0  0  0  0  0  # atno 10763 bound_to 10752
  154.6294  135.2898  155.0236 H   0  0  0  0  0  0  0  0  0  0  0  0  # atno 10764 bound_to 10752
  154.1194  135.6610  153.4952 H   0  0  0  0  0  0  0  0  0  0  0  0  # atno 10765 bound_to 10752
  139.9675  134.9586  156.9301 H   0  0  0  0  0  0  0  0  0  0  0  0  # atno 11005 bound_to 11000
  146.2823  139.6909  142.9220 LP  0  0  0  0  0  0  0  0  0  0  0  0  # atno 17320 bound_to 7965
  145.4407  141.0422  143.2859 LP  0  0  0  0  0  0  0  0  0  0  0  0  # atno 17321 bound_to 7965
  140.2357  144.4322  150.6281 LP  0  0  0  0  0  0  0  0  0  0  0  0  # atno 17342 bound_to 10162
  140.6325  143.2189  151.6465 LP  0  0  0  0  0  0  0  0  0  0  0  0  # atno 17343 bound_to 10162
  157.4070  130.7364  149.6810 LP  0  0  0  0  0  0  0  0  0  0  0  0  # atno 17370 bound_to 10713
  155.9743  130.4105  150.3935 LP  0  0  0  0  0  0  0  0  0  0  0  0  # atno 17371 bound_to 10713
  140.5365  134.0762  155.7329 LP  0  0  0  0  0  0  0  0  0  0  0  0  # atno 17394 bound_to 11000
  141.1355  133.9229  157.2443 LP  0  0  0  0  0  0  0  0  0  0  0  0  # atno 17395 bound_to 11000

$$$$
