AV-unprocessed.smi:1738|AV-procd|sdf|6998|dock2
  -GOLD-   22720 8213D 1   1.00000     0.00000
 Structure written by MMmdl.
 46 48  0  0  0  0  0  0  0  0  2 V2000
  154.4428  135.7422  157.8450 C   0  0  0  0  0  0  0  0  0  0  0  0
  153.2918  137.1241  158.2300 S   0  0  0  0  0  0  0  0  0  0  0  0
  152.7389  136.9035  159.5753 O   0  0  0  0  0  0  0  0  0  0  0  0
  153.9852  138.3862  157.9277 O   0  0  0  0  0  0  0  0  0  0  0  0
  151.9648  136.9146  157.0483 C   0  0  0  0  0  0  0  0  0  0  0  0
  151.8809  137.7474  155.9143 C   0  0  0  0  0  0  0  0  0  0  0  0
  150.8379  137.5167  154.9972 C   0  0  0  0  0  0  0  0  0  0  0  0
  149.9248  136.4633  155.2486 C   0  0  0  0  0  0  0  0  0  0  0  0
  148.8439  136.1209  154.3920 N   0  0  0  0  0  0  0  0  0  0  0  0
  147.6546  135.5875  154.7191 C   0  0  0  0  0  0  0  0  0  0  0  0
  147.2988  135.2779  155.8558 O   0  0  0  0  0  0  0  0  0  0  0  0
  146.8895  135.4012  153.6342 N   0  0  0  0  0  0  0  0  0  0  0  0
  145.5407  134.8406  153.6557 C   0  0  1  0  0  0  0  0  0  0  0  0
  144.4884  135.7716  153.0676 C   0  0  0  0  0  0  0  0  0  0  0  0
  143.3186  134.8274  152.7708 C   0  0  0  0  0  0  0  0  0  0  0  0
  143.8991  133.4795  152.5511 N   0  3  1  0  0  0  0  0  0  0  0  0
  143.5287  132.8661  151.2473 C   0  0  0  0  0  0  0  0  0  0  0  0
  144.4539  131.6872  150.9121 C   0  0  0  0  0  0  0  0  0  0  0  0
  145.9189  132.1426  150.7717 C   0  0  0  0  0  0  0  0  0  0  0  0
  146.2091  133.4442  151.5439 C   0  0  0  0  0  0  0  0  0  0  0  0
  145.3611  133.5479  152.8356 C   0  0  1  0  0  0  0  0  0  0  0  0
  150.1276  135.6760  156.4027 C   0  0  0  0  0  0  0  0  0  0  0  0
  151.1231  135.8872  157.2889 N   0  0  0  0  0  0  0  0  0  0  0  0
  155.3002  135.7869  158.5159 H   0  0  0  0  0  0  0  0  0  0  0  0
  154.7825  135.8285  156.8132 H   0  0  0  0  0  0  0  0  0  0  0  0
  153.9270  134.7916  157.9788 H   0  0  0  0  0  0  0  0  0  0  0  0
  152.5941  138.5403  155.7447 H   0  0  0  0  0  0  0  0  0  0  0  0
  150.7706  138.1380  154.1178 H   0  0  0  0  0  0  0  0  0  0  0  0
  149.0204  136.2433  153.4053 H   0  0  0  0  0  0  0  0  0  0  0  0
  147.2597  135.6740  152.7352 H   0  0  0  0  0  0  0  0  0  0  0  0
  145.2617  134.6392  154.6925 H   0  0  0  0  0  0  0  0  0  0  0  0
  144.2134  136.5828  153.7425 H   0  0  0  0  0  0  0  0  0  0  0  0
  144.8511  136.2147  152.1387 H   0  0  0  0  0  0  0  0  0  0  0  0
  142.6569  134.7681  153.6355 H   0  0  0  0  0  0  0  0  0  0  0  0
  142.7213  135.1815  151.9295 H   0  0  0  0  0  0  0  0  0  0  0  0
  142.4894  132.5389  151.2915 H   0  0  0  0  0  0  0  0  0  0  0  0
  143.5927  133.6081  150.4495 H   0  0  0  0  0  0  0  0  0  0  0  0
  144.3776  130.9408  151.7041 H   0  0  0  0  0  0  0  0  0  0  0  0
  144.1286  131.1926  149.9962 H   0  0  0  0  0  0  0  0  0  0  0  0
  146.5729  131.3442  151.1245 H   0  0  0  0  0  0  0  0  0  0  0  0
  146.1654  132.2935  149.7202 H   0  0  0  0  0  0  0  0  0  0  0  0
  147.2755  133.4926  151.7656 H   0  0  0  0  0  0  0  0  0  0  0  0
  145.9945  134.2998  150.9022 H   0  0  0  0  0  0  0  0  0  0  0  0
  145.6203  132.6955  153.4654 H   0  0  0  0  0  0  0  0  0  0  0  0
  149.4678  134.8500  156.6247 H   0  0  0  0  0  0  0  0  0  0  0  0
  143.5094  132.8851  153.2688 H   0  0  0  0  0  0  0  0  0  0  0  0
  1  2  1  0  0  0  0
  1 24  1  0  0  0  0
  1 25  1  0  0  0  0
  1 26  1  0  0  0  0
  2  3  2  0  0  0  0
  2  4  2  0  0  0  0
  2  5  1  0  0  0  0
  5 23  1  0  0  0  0
  5  6  2  0  0  0  0
  6  7  1  0  0  0  0
  6 27  1  0  0  0  0
  7  8  2  0  0  0  0
  7 28  1  0  0  0  0
  8  9  1  0  0  0  0
  8 22  1  0  0  0  0
  9 10  1  0  0  0  0
  9 29  1  0  0  0  0
 10 11  2  0  0  0  0
 10 12  1  0  0  0  0
 12 13  1  0  0  0  0
 12 30  1  0  0  0  0
 13 21  1  0  0  0  0
 13 14  1  0  0  0  0
 13 31  1  0  0  0  0
 14 15  1  0  0  0  0
 14 32  1  0  0  0  0
 14 33  1  0  0  0  0
 15 16  1  0  0  0  0
 15 34  1  0  0  0  0
 15 35  1  0  0  0  0
 16 21  1  0  0  0  0
 16 17  1  0  0  0  0
 16 46  1  0  0  0  0
 17 18  1  0  0  0  0
 17 36  1  0  0  0  0
 17 37  1  0  0  0  0
 18 19  1  0  0  0  0
 18 38  1  0  0  0  0
 18 39  1  0  0  0  0
 19 20  1  0  0  0  0
 19 40  1  0  0  0  0
 19 41  1  0  0  0  0
 20 21  1  0  0  0  0
 20 42  1  0  0  0  0
 20 43  1  0  0  0  0
 21 44  1  0  0  0  0
 22 23  2  0  0  0  0
 22 45  1  0  0  0  0
M  CHG  1  16   1
M  END
> <s_m_source_file>
AV-unprocessed.smi

> <i_m_source_file_index>
1738

> <i_lp_mmshare_version>
43012

> <i_f3d_flags>
0

> <s_epik_input>
W0NIM11TKD1PKSg9TyljMVtjSF1bY0hdYyhbY0hdbjEpW05IXUMoPU8pW05IXVtDQEhdKFtDSDJdW0NIMl0yKVtDQEBIXShOMjMpW0NIMl1bQ0gyXVtDSDJdW0NIMl0z

> <s_epik_cmdline>
J2VwaWtfcHl0aG9uJywgJy1waCcsICc3LjAnLCAnLXRuJywgJzgnLCAnLW1hJywgJzIwMCcsICctbWV0YWxfYmluZGluZycsICctaW1hZScsICc8aW5maWxlLm1hZT4nLCAnLW9tYWUnLCAnPG91dGZpbGUubWFlPic=

> <r_epik_Ionization_Penalty>
0.00100042

> <r_epik_Ionization_Penalty_Charging>
0.000974069

> <r_epik_Ionization_Penalty_Neutral>
2.63543e-05

> <r_epik_State_Penalty>
0.000633842

> <r_epik_Charging_Adjusted_Penalty>
0.00160791

> <i_epik_Tot_Q>
1

> <i_epik_Tot_abs_Q>
1

> <r_epik_Metal_State_Penalty>
-0

> <b_epik_Metal_Only>
0

> <s_lp_Force_Field>
OPLS_2005

> <r_lp_Energy>
43.9485

> <b_lp_Chiralities_Consistent>
1

> <s_lp_Variant>
AV-unprocessed.smi:1738-2

> <Gold.Version>
5.8.1

> <Gold.Id.Protein>
6NUR|6NUR_protein|mol2

> <Gold.PLP.Fitness>
46.8009

> <Gold.PLP.PLP>
-29.8168

> <Gold.PLP.part.hbond>
-5.5866

> <Gold.PLP.part.metal>
0.0000

> <Gold.PLP.part.buried>
-6.0994

> <Gold.PLP.part.nonpolar>
-18.4684

> <Gold.PLP.part.repulsive>
0.0284

> <Gold.PLP.ligand.clash>
0.0000

> <Gold.PLP.ligand.torsion>
1.2315

> <Gold.PLP.Chemscore.Hbond>
5.8080

> <Gold.PLP.Chemscore.CHOScore>
0.0000

> <Gold.PLP.Chemscore.Metal>
0.0000

> <Gold.Chemscore.Hbonds>
donor molecule, donor type, donor heavy atom, donor atom, acceptor molecule, acceptor atom, score
      L1  H     9    29       P1  7948  0.99
      L1  H    12    30       P1  7948  0.83
      L1  H    16    46       P1 10957  1.89
      P1  H  6896  6907       L1     3  0.96
      P1  H  7997  8010       L1     4  1.00

> <Gold.PLP.Chemscore.Internal.Correction>
2.0231

> <Gold.Rescore>
     Score         DG    S(hbond)    S(metal)    S(lipo)     H(rot)  DE(clash)    DE(int)     intcor
     23.36     -25.83       4.68        0.00      62.32       1.00       0.00       2.47       ----

> <Gold.Chemscore.Fitness>
23.3626

> <Gold.Chemscore.DG>
-25.8334

> <Gold.Chemscore.ZeroCoef>
-5.4800

> <Gold.Chemscore.Hbond>
4.6771

> <Gold.Chemscore.Metal>
0.0000

> <Gold.Chemscore.Lipo>
62.3231

> <Gold.Chemscore.Internal_Hbond>
0.0000

> <Gold.Chemscore.DEClash>
0.0029

> <Gold.Chemscore.DEInternal>
2.4679

> <Gold.Chemscore.Rot>
1.0000

> <Gold.Chemscore.Internal.Correction>
   9.000000E+99

> <Gold.Chemscore.Hbonds>
donor molecule, donor type, donor heavy atom, donor atom, acceptor molecule, acceptor atom, score
      L1  H     9    29       P1  7948  0.91
      L1  H    12    30       P1  7948  0.82
      L1  H    16    46       P1 10957  0.54
      P1  H  6896  6907       L1     3  0.87
      P1  H  7997  8010       L1     4  0.96

> <Gold.Chemscore.Hbond.Weighted>
-15.6216

> <Gold.Chemscore.Metal.Weighted>
-0.0000

> <Gold.Chemscore.Lipo.Weighted>
-7.2918

> <Gold.Chemscore.Internal_Hbond.Weighted>
0.0000

> <Gold.Chemscore.DEClash.Weighted>
0.0029

> <Gold.Chemscore.DEInternal.Weighted>
2.4679

> <Gold.Chemscore.Rot.Weighted>
2.5600

> <Gold.Chemscore.Internal.Correction.Weighted>
   9.000000E+99

> <Gold.Protein.RotatedTorsions>
[ 6907 6896 6895 6894 ] final   32.40 input  -60.11 | X-H torsion
[ 7974 7965 7964 7962 ] final -118.76 input  175.53 | X-H torsion
[ 8008 7997 7996 7995 ] final   22.62 input   59.86 | X-H torsion
[ 10167 10162 10161 10158 ] final   25.84 input  -65.29 | X-H torsion
[ 10718 10713 10712 10709 ] final   43.67 input   66.30 | X-H torsion
[ 10763 10752 10751 10750 ] final   79.39 input  -60.55 | X-H torsion
[ 11005 11000 10999 10996 ] final  -57.39 input  -57.11 | X-H torsion

> <Gold.Protein.ActiveResidues>
 VAL166  LYS551  ARG553  GLY616  TRP617  ASP618  TYR619  PRO620  LYS621  CYS622 
 ASP623  PHE694  ASN695  SER759  ASP760  ASP761  ALA762  ILE779  LEU786  VAL792 
 PHE793  MET794  SER795  GLU796  ALA797  LYS798  CYS799  TRP800  GLU811  SER814 

> <Gold.Protein.RotatedAtoms>
  152.0739  134.9515  160.0574 H   0  0  0  0  0  0  0  0  0  0  0  0  # atno 6907 bound_to 6896
  152.0830  133.4157  159.4518 H   0  0  0  0  0  0  0  0  0  0  0  0  # atno 6908 bound_to 6896
  150.6836  134.2879  159.4698 H   0  0  0  0  0  0  0  0  0  0  0  0  # atno 6909 bound_to 6896
  145.0702  140.8353  143.4100 H   0  0  0  0  0  0  0  0  0  0  0  0  # atno 7974 bound_to 7965
  154.9685  140.3087  155.4999 H   0  0  0  0  0  0  0  0  0  0  0  0  # atno 8008 bound_to 7997
  156.2969  140.2288  156.4714 H   0  0  0  0  0  0  0  0  0  0  0  0  # atno 8009 bound_to 7997
  154.7899  140.0440  157.1181 H   0  0  0  0  0  0  0  0  0  0  0  0  # atno 8010 bound_to 7997
  140.5073  144.0218  150.6357 H   0  0  0  0  0  0  0  0  0  0  0  0  # atno 10167 bound_to 10162
  157.4184  130.7955  149.7493 H   0  0  0  0  0  0  0  0  0  0  0  0  # atno 10718 bound_to 10713
  153.0949  135.4842  154.8759 H   0  0  0  0  0  0  0  0  0  0  0  0  # atno 10763 bound_to 10752
  154.7312  135.3060  154.8890 H   0  0  0  0  0  0  0  0  0  0  0  0  # atno 10764 bound_to 10752
  153.9525  135.6821  153.4797 H   0  0  0  0  0  0  0  0  0  0  0  0  # atno 10765 bound_to 10752
  141.1163  133.6610  156.4763 H   0  0  0  0  0  0  0  0  0  0  0  0  # atno 11005 bound_to 11000
  145.1302  139.2637  143.5543 LP  0  0  0  0  0  0  0  0  0  0  0  0  # atno 17320 bound_to 7965
  146.3528  140.0951  142.8610 LP  0  0  0  0  0  0  0  0  0  0  0  0  # atno 17321 bound_to 7965
  140.3531  143.2951  152.0466 LP  0  0  0  0  0  0  0  0  0  0  0  0  # atno 17342 bound_to 10162
  139.4887  144.6359  151.6976 LP  0  0  0  0  0  0  0  0  0  0  0  0  # atno 17343 bound_to 10162
  155.9872  130.3968  150.3173 LP  0  0  0  0  0  0  0  0  0  0  0  0  # atno 17370 bound_to 10713
  157.1319  131.0274  151.2965 LP  0  0  0  0  0  0  0  0  0  0  0  0  # atno 17371 bound_to 10713
  140.4637  134.6817  157.5097 LP  0  0  0  0  0  0  0  0  0  0  0  0  # atno 17394 bound_to 11000
  140.0087  134.6724  155.9414 LP  0  0  0  0  0  0  0  0  0  0  0  0  # atno 17395 bound_to 11000

$$$$
