AV-unprocessed.smi:2206|AV-procd|sdf|8942|dock3
  -GOLD-   2272012163D 1   1.00000     0.00000
 Structure written by MMmdl.
 26 27  0  0  0  0  0  0  0  0  2 V2000
  152.3872  136.8100  156.0996 O   0  0  0  0  0  0  0  0  0  0  0  0
  152.3658  137.8069  155.3440 C   0  0  0  0  0  0  0  0  0  0  0  0
  153.1403  138.7868  155.4093 O   0  5  0  0  0  0  0  0  0  0  0  0
  151.3045  137.8275  154.2422 C   0  0  0  0  0  0  0  0  0  0  0  0
  150.3837  138.9835  154.5066 C   0  0  0  0  0  0  0  0  0  0  0  0
  149.0546  139.0775  154.1703 C   0  0  0  0  0  0  0  0  0  0  0  0
  148.3588  140.5971  154.6675 S   0  0  0  0  0  0  0  0  0  0  0  0
  149.9263  141.0632  155.3096 C   0  0  0  0  0  0  0  0  0  0  0  0
  150.1334  142.3213  155.9453 N   0  0  0  0  0  0  0  0  0  0  0  0
  151.0138  142.6942  156.8991 C   0  0  0  0  0  0  0  0  0  0  0  0
  151.8085  141.8878  157.3804 O   0  0  0  0  0  0  0  0  0  0  0  0
  150.9483  143.9775  157.2890 N   0  0  0  0  0  0  0  0  0  0  0  0
  151.7624  144.5980  158.2814 C   0  0  0  0  0  0  0  0  0  0  0  0
  151.7662  143.9842  159.6650 C   0  0  0  0  0  0  0  0  0  0  0  0
  151.0580  145.2891  159.4287 C   0  0  0  0  0  0  0  0  0  0  0  0
  150.8603  140.1150  155.1758 N   0  0  0  0  0  0  0  0  0  0  0  0
  151.7868  137.9236  153.2687 H   0  0  0  0  0  0  0  0  0  0  0  0
  150.7598  136.8824  154.2351 H   0  0  0  0  0  0  0  0  0  0  0  0
  148.4481  138.3465  153.6568 H   0  0  0  0  0  0  0  0  0  0  0  0
  149.5089  143.0525  155.6383 H   0  0  0  0  0  0  0  0  0  0  0  0
  150.2599  144.5650  156.8389 H   0  0  0  0  0  0  0  0  0  0  0  0
  152.7004  145.0436  157.9536 H   0  0  0  0  0  0  0  0  0  0  0  0
  151.1486  143.1037  159.8344 H   0  0  0  0  0  0  0  0  0  0  0  0
  152.6986  144.0136  160.2249 H   0  0  0  0  0  0  0  0  0  0  0  0
  151.5173  146.1900  159.8302 H   0  0  0  0  0  0  0  0  0  0  0  0
  149.9693  145.2772  159.4390 H   0  0  0  0  0  0  0  0  0  0  0  0
  1  2  2  0  0  0  0
  2  3  1  0  0  0  0
  2  4  1  0  0  0  0
  4  5  1  0  0  0  0
  4 17  1  0  0  0  0
  4 18  1  0  0  0  0
  5 16  1  0  0  0  0
  5  6  2  0  0  0  0
  6  7  1  0  0  0  0
  6 19  1  0  0  0  0
  7  8  1  0  0  0  0
  8  9  1  0  0  0  0
  8 16  2  0  0  0  0
  9 10  1  0  0  0  0
  9 20  1  0  0  0  0
 10 11  2  0  0  0  0
 10 12  1  0  0  0  0
 12 13  1  0  0  0  0
 12 21  1  0  0  0  0
 13 15  1  0  0  0  0
 13 14  1  0  0  0  0
 13 22  1  0  0  0  0
 14 15  1  0  0  0  0
 14 23  1  0  0  0  0
 14 24  1  0  0  0  0
 15 25  1  0  0  0  0
 15 26  1  0  0  0  0
M  CHG  1   3  -1
M  END
> <s_m_source_file>
AV-unprocessed.smi

> <i_m_source_file_index>
2206

> <i_lp_mmshare_version>
43012

> <i_f3d_flags>
0

> <s_epik_input>
Tz1DKFtPSF0pW0NIMl1jMVtjSF1zYyhuMSlbTkhdQyg9TylbTkhdW0NIXTJbQ0gyXVtDSDJdMg==

> <s_epik_cmdline>
J2VwaWtfcHl0aG9uJywgJy1waCcsICc3LjAnLCAnLXRuJywgJzgnLCAnLW1hJywgJzIwMCcsICctbWV0YWxfYmluZGluZycsICctaW1hZScsICc8aW5maWxlLm1hZT4nLCAnLW9tYWUnLCAnPG91dGZpbGUubWFlPic=

> <r_lp_tautomer_probability>
0.999

> <r_epik_Ionization_Penalty>
0.000960535

> <r_epik_Ionization_Penalty_Charging>
0.000722293

> <r_epik_Ionization_Penalty_Neutral>
0.000238243

> <r_epik_State_Penalty>
0.000460635

> <r_epik_Charging_Adjusted_Penalty>
0.00118293

> <i_epik_Tot_Q>
-1

> <i_epik_Tot_abs_Q>
1

> <r_epik_Metal_State_Penalty>
0.0174946

> <b_epik_Metal_Only>
0

> <s_lp_Force_Field>
OPLS_2005

> <r_lp_Energy>
19.4031

> <b_lp_Chiralities_Consistent>
1

> <s_lp_Variant>
AV-unprocessed.smi:2206-1

> <Gold.Version>
5.8.1

> <Gold.Id.Protein>
6NUR|6NUR_protein|mol2

> <Gold.PLP.Fitness>
53.5526

> <Gold.PLP.PLP>
-34.0814

> <Gold.PLP.part.hbond>
-5.0000

> <Gold.PLP.part.metal>
0.0000

> <Gold.PLP.part.buried>
-1.5517

> <Gold.PLP.part.nonpolar>
-28.1781

> <Gold.PLP.part.repulsive>
0.2303

> <Gold.PLP.ligand.clash>
0.0000

> <Gold.PLP.ligand.torsion>
0.5570

> <Gold.PLP.Chemscore.Hbond>
6.4200

> <Gold.PLP.Chemscore.CHOScore>
0.4268

> <Gold.PLP.Chemscore.Metal>
0.0000

> <Gold.Chemscore.Hbonds>
donor molecule, donor type, donor heavy atom, donor atom, acceptor molecule, acceptor atom, score
      L1  H     9    20       P1  8028  1.00
      L1  H    12    21       P1  8028  1.00
      P1  H  7989  7998       L1    16  0.45
      P1  H  7997  8008       L1     3  2.00
      P1  H 10752 10765       L1     1  1.95
      L1  C     6    19       P1  7948  0.32

> <Gold.PLP.Chemscore.Internal.Correction>
0.0448

> <Gold.Rescore>
     Score         DG    S(hbond)    S(metal)    S(lipo)     H(rot)  DE(clash)    DE(int)     intcor
     15.26     -19.57       3.41        0.00      65.67       1.95       1.00       3.30       ----

> <Gold.Chemscore.Fitness>
15.2642

> <Gold.Chemscore.DG>
-19.5657

> <Gold.Chemscore.ZeroCoef>
-5.4800

> <Gold.Chemscore.Hbond>
3.4138

> <Gold.Chemscore.Metal>
0.0000

> <Gold.Chemscore.Lipo>
65.6684

> <Gold.Chemscore.Internal_Hbond>
0.0000

> <Gold.Chemscore.DEClash>
1.0029

> <Gold.Chemscore.DEInternal>
3.2986

> <Gold.Chemscore.Rot>
1.9530

> <Gold.Chemscore.Internal.Correction>
   9.000000E+99

> <Gold.Chemscore.Hbonds>
donor molecule, donor type, donor heavy atom, donor atom, acceptor molecule, acceptor atom, score
      L1  H     9    20       P1  8028  0.97
      L1  H    12    21       P1  8028  0.78
      P1  H  7997  8008       L1     3  0.97
      P1  H 10752 10765       L1     1  0.24

> <Gold.Chemscore.Hbond.Weighted>
-11.4021

> <Gold.Chemscore.Metal.Weighted>
-0.0000

> <Gold.Chemscore.Lipo.Weighted>
-7.6832

> <Gold.Chemscore.Internal_Hbond.Weighted>
0.0000

> <Gold.Chemscore.DEClash.Weighted>
1.0029

> <Gold.Chemscore.DEInternal.Weighted>
3.2986

> <Gold.Chemscore.Rot.Weighted>
4.9996

> <Gold.Chemscore.Internal.Correction.Weighted>
   9.000000E+99

> <Gold.Protein.RotatedTorsions>
[ 6907 6896 6895 6894 ] final -179.03 input  -60.11 | X-H torsion
[ 7974 7965 7964 7962 ] final  111.66 input  175.53 | X-H torsion
[ 8008 7997 7996 7995 ] final  -22.19 input   59.86 | X-H torsion
[ 10167 10162 10161 10158 ] final  138.74 input  -65.29 | X-H torsion
[ 10718 10713 10712 10709 ] final  -51.90 input   66.30 | X-H torsion
[ 10763 10752 10751 10750 ] final -158.25 input  -60.55 | X-H torsion
[ 11005 11000 10999 10996 ] final  -55.99 input  -57.11 | X-H torsion

> <Gold.Protein.ActiveResidues>
 VAL166  LYS551  ARG553  GLY616  TRP617  ASP618  TYR619  PRO620  LYS621  CYS622 
 ASP623  PHE694  ASN695  SER759  ASP760  ASP761  ALA762  ILE779  LEU786  VAL792 
 PHE793  MET794  SER795  GLU796  ALA797  LYS798  CYS799  TRP800  GLU811  SER814 

> <Gold.Protein.RotatedAtoms>
  151.6468  133.3323  159.3142 H   0  0  0  0  0  0  0  0  0  0  0  0  # atno 6907 bound_to 6896
  150.7980  134.7057  159.6585 H   0  0  0  0  0  0  0  0  0  0  0  0  # atno 6908 bound_to 6896
  152.4069  134.6195  160.0098 H   0  0  0  0  0  0  0  0  0  0  0  0  # atno 6909 bound_to 6896
  145.2394  139.2785  143.4126 H   0  0  0  0  0  0  0  0  0  0  0  0  # atno 7974 bound_to 7965
  154.4659  140.2014  156.0120 H   0  0  0  0  0  0  0  0  0  0  0  0  # atno 8008 bound_to 7997
  156.0925  140.3256  155.7806 H   0  0  0  0  0  0  0  0  0  0  0  0  # atno 8009 bound_to 7997
  155.4932  140.0548  157.2941 H   0  0  0  0  0  0  0  0  0  0  0  0  # atno 8010 bound_to 7997
  139.5101  144.6336  151.5755 H   0  0  0  0  0  0  0  0  0  0  0  0  # atno 10167 bound_to 10162
  156.1669  130.4149  149.9706 H   0  0  0  0  0  0  0  0  0  0  0  0  # atno 10718 bound_to 10713
  154.7571  135.3108  154.8449 H   0  0  0  0  0  0  0  0  0  0  0  0  # atno 10763 bound_to 10752
  153.9220  135.6794  153.4751 H   0  0  0  0  0  0  0  0  0  0  0  0  # atno 10764 bound_to 10752
  153.1169  135.4840  154.9061 H   0  0  0  0  0  0  0  0  0  0  0  0  # atno 10765 bound_to 10752
  141.1099  133.6611  156.4552 H   0  0  0  0  0  0  0  0  0  0  0  0  # atno 11005 bound_to 11000
  146.3332  140.2752  142.8607 LP  0  0  0  0  0  0  0  0  0  0  0  0  # atno 17320 bound_to 7965
  144.9603  140.8268  143.5517 LP  0  0  0  0  0  0  0  0  0  0  0  0  # atno 17321 bound_to 7965
  140.6077  143.9494  150.6430 LP  0  0  0  0  0  0  0  0  0  0  0  0  # atno 17342 bound_to 10162
  140.2726  143.3445  152.1224 LP  0  0  0  0  0  0  0  0  0  0  0  0  # atno 17343 bound_to 10162
  156.7519  130.9118  151.3638 LP  0  0  0  0  0  0  0  0  0  0  0  0  # atno 17370 bound_to 10713
  157.6774  130.9108  150.0184 LP  0  0  0  0  0  0  0  0  0  0  0  0  # atno 17371 bound_to 10713
  140.4802  134.6671  157.5168 LP  0  0  0  0  0  0  0  0  0  0  0  0  # atno 17394 bound_to 11000
  139.9988  134.6869  155.9565 LP  0  0  0  0  0  0  0  0  0  0  0  0  # atno 17395 bound_to 11000

$$$$
