AV-unprocessed.smi:107|AV-procd|sdf|1016|dock7
  -GOLD-   2262018 13D 1   1.00000     0.00000
 Structure written by MMmdl.
 31 32  0  0  0  0  0  0  0  0  1 V2000
  152.0783  141.0661  159.5180 C   0  0  0  0  0  0  0  0  0  0  0  0
  152.1093  139.9129  158.5288 C   0  0  0  0  0  0  0  0  0  0  0  0
  151.7193  140.0526  157.2361 C   0  0  0  0  0  0  0  0  0  0  0  0
  151.7328  139.0194  156.3098 N   0  0  0  0  0  0  0  0  0  0  0  0
  151.2837  139.2517  154.8844 C   0  0  1  0  0  0  0  0  0  0  0  0
  150.3149  138.1547  154.4313 C   0  0  0  0  0  0  0  0  0  0  0  0
  148.9779  138.8713  154.4560 C   0  0  2  0  0  0  0  0  0  0  0  0
  148.0947  138.3305  153.4946 O   0  0  0  0  0  0  0  0  0  0  0  0
  149.3729  140.3159  154.1394 C   0  0  1  0  0  0  0  0  0  0  0  0
  148.3612  141.3551  154.6453 C   0  0  0  0  0  0  0  0  0  0  0  0
  148.6119  142.6060  154.0411 O   0  0  0  0  0  0  0  0  0  0  0  0
  150.6115  140.4739  154.8254 O   0  0  0  0  0  0  0  0  0  0  0  0
  152.1641  137.7374  156.7117 C   0  0  0  0  0  0  0  0  0  0  0  0
  152.1861  136.7663  155.9566 O   0  0  0  0  0  0  0  0  0  0  0  0
  152.5691  137.5944  158.0378 N   0  0  0  0  0  0  0  0  0  0  0  0
  152.5768  138.6067  159.0005 C   0  0  0  0  0  0  0  0  0  0  0  0
  152.9579  138.3558  160.1426 O   0  0  0  0  0  0  0  0  0  0  0  0
  152.8810  136.6793  158.3286 H   0  0  0  0  0  0  0  0  0  0  0  0
  151.7272  141.9880  159.0537 H   0  0  0  0  0  0  0  0  0  0  0  0
  153.0752  141.2523  159.9184 H   0  0  0  0  0  0  0  0  0  0  0  0
  151.4120  140.8360  160.3501 H   0  0  0  0  0  0  0  0  0  0  0  0
  151.3789  141.0252  156.9134 H   0  0  0  0  0  0  0  0  0  0  0  0
  152.1746  139.3179  154.2586 H   0  0  0  0  0  0  0  0  0  0  0  0
  150.5868  137.8601  153.4166 H   0  0  0  0  0  0  0  0  0  0  0  0
  150.3538  137.2744  155.0748 H   0  0  0  0  0  0  0  0  0  0  0  0
  148.5324  138.8000  155.4490 H   0  0  0  0  0  0  0  0  0  0  0  0
  148.4558  137.5169  153.1770 H   0  0  0  0  0  0  0  0  0  0  0  0
  149.5469  140.4203  153.0663 H   0  0  0  0  0  0  0  0  0  0  0  0
  147.3484  141.0578  154.3717 H   0  0  0  0  0  0  0  0  0  0  0  0
  148.3912  141.4427  155.7318 H   0  0  0  0  0  0  0  0  0  0  0  0
  148.6650  143.2623  154.7189 H   0  0  0  0  0  0  0  0  0  0  0  0
  1  2  1  0  0  0  0
  1 19  1  0  0  0  0
  1 20  1  0  0  0  0
  1 21  1  0  0  0  0
  2 16  1  0  0  0  0
  2  3  2  0  0  0  0
  3  4  1  0  0  0  0
  3 22  1  0  0  0  0
  4  5  1  0  0  0  0
  4 13  1  0  0  0  0
  5 12  1  0  0  0  0
  5  6  1  0  0  0  0
  5 23  1  0  0  0  0
  6  7  1  0  0  0  0
  6 24  1  0  0  0  0
  6 25  1  0  0  0  0
  7  8  1  0  0  0  0
  7  9  1  0  0  0  0
  7 26  1  0  0  0  0
  8 27  1  0  0  0  0
  9 10  1  0  0  0  0
  9 12  1  0  0  0  0
  9 28  1  0  0  0  0
 10 11  1  0  0  0  0
 10 29  1  0  0  0  0
 10 30  1  0  0  0  0
 11 31  1  0  0  0  0
 13 14  2  0  0  0  0
 13 15  1  0  0  0  0
 15 18  1  0  0  0  0
 15 16  1  0  0  0  0
 16 17  2  0  0  0  0
M  END
> <s_m_source_file>
AV-unprocessed.smi

> <i_m_source_file_index>
107

> <i_lp_mmshare_version>
43012

> <i_f3d_flags>
0

> <s_epik_input>
Tz1jMVtuSF1jKD1PKW4oW2NIXWMxW0NIM10pW0NAQEhdMltDSDJdW0NAQEhdKFtPSF0pW0NASF0oTzIpW0NIMl1bT0hd

> <s_epik_cmdline>
J2VwaWtfcHl0aG9uJywgJy1waCcsICc3LjAnLCAnLXRuJywgJzgnLCAnLW1hJywgJzIwMCcsICctbWV0YWxfYmluZGluZycsICctaW1hZScsICc8aW5maWxlLm1hZT4nLCAnLW9tYWUnLCAnPG91dGZpbGUubWFlPic=

> <r_lp_tautomer_probability>
0.999537

> <r_epik_Ionization_Penalty>
0.00121888

> <r_epik_Ionization_Penalty_Charging>
0.00121876

> <r_epik_Ionization_Penalty_Neutral>
1.19946e-07

> <r_epik_State_Penalty>
0.000805124

> <r_epik_Charging_Adjusted_Penalty>
0.00202389

> <i_epik_Tot_Q>
0

> <i_epik_Tot_abs_Q>
0

> <r_epik_Metal_State_Penalty>
0.662472

> <b_epik_Metal_Only>
0

> <s_epik_Chemistry_Notes>
This compound contains an acetal/aminal-like group ( X-CH(R)-Y where X, Y are N, S, or O) that may be acid/base labile, releasing an aldehyde.

> <s_lp_Force_Field>
OPLS_2005

> <r_lp_Energy>
24.9253

> <b_lp_Chiralities_Consistent>
1

> <s_lp_Variant>
AV-unprocessed.smi:107-4

> <Gold.Version>
5.8.1

> <Gold.Id.Protein>
6NUR|6NUR_protein|mol2

> <Gold.PLP.Fitness>
37.1839

> <Gold.PLP.PLP>
-27.6630

> <Gold.PLP.part.hbond>
-5.6669

> <Gold.PLP.part.metal>
0.0000

> <Gold.PLP.part.buried>
-1.3445

> <Gold.PLP.part.nonpolar>
-20.2716

> <Gold.PLP.part.repulsive>
0.2123

> <Gold.PLP.ligand.clash>
0.0000

> <Gold.PLP.ligand.torsion>
0.4516

> <Gold.PLP.Chemscore.Hbond>
3.4718

> <Gold.PLP.Chemscore.CHOScore>
0.0000

> <Gold.PLP.Chemscore.Metal>
0.0000

> <Gold.Chemscore.Hbonds>
donor molecule, donor type, donor heavy atom, donor atom, acceptor molecule, acceptor atom, score
      L1  H     8    27       P1  7948  1.00
      L1  H    11    31       P1  8028  1.00
      P1  H  7989  7998       L1    12  0.40
      P1  H  8011  8017       L1    11  0.07
      P1  H 10752 10763       L1    14  1.00

> <Gold.PLP.Chemscore.Internal.Correction>
0.0089

> <Gold.Rescore>
     Score         DG    S(hbond)    S(metal)    S(lipo)     H(rot)  DE(clash)    DE(int)     intcor
     11.98     -14.23       3.09        0.00      46.06       2.73       0.39       1.86       ----

> <Gold.Chemscore.Fitness>
11.9785

> <Gold.Chemscore.DG>
-14.2288

> <Gold.Chemscore.ZeroCoef>
-5.4800

> <Gold.Chemscore.Hbond>
3.0948

> <Gold.Chemscore.Metal>
0.0000

> <Gold.Chemscore.Lipo>
46.0596

> <Gold.Chemscore.Internal_Hbond>
0.0000

> <Gold.Chemscore.DEClash>
0.3879

> <Gold.Chemscore.DEInternal>
1.8623

> <Gold.Chemscore.Rot>
2.7253

> <Gold.Chemscore.Internal.Correction>
   9.000000E+99

> <Gold.Chemscore.Hbonds>
donor molecule, donor type, donor heavy atom, donor atom, acceptor molecule, acceptor atom, score
      L1  H     8    27       P1  7948  0.98
      L1  H    11    31       P1  8028  1.00
      P1  H  8011  8017       L1    11  0.08
      P1  H 10752 10763       L1    14  0.97

> <Gold.Chemscore.Hbond.Weighted>
-10.3367

> <Gold.Chemscore.Metal.Weighted>
-0.0000

> <Gold.Chemscore.Lipo.Weighted>
-5.3890

> <Gold.Chemscore.Internal_Hbond.Weighted>
0.0000

> <Gold.Chemscore.DEClash.Weighted>
0.3879

> <Gold.Chemscore.DEInternal.Weighted>
1.8623

> <Gold.Chemscore.Rot.Weighted>
6.9769

> <Gold.Chemscore.Internal.Correction.Weighted>
   9.000000E+99

> <Gold.Protein.RotatedTorsions>
[ 6907 6896 6895 6894 ] final  135.68 input  -60.11 | X-H torsion
[ 7974 7965 7964 7962 ] final  100.14 input  175.53 | X-H torsion
[ 8008 7997 7996 7995 ] final  -72.80 input   59.86 | X-H torsion
[ 10167 10162 10161 10158 ] final  -22.74 input  -65.29 | X-H torsion
[ 10718 10713 10712 10709 ] final  -11.79 input   66.30 | X-H torsion
[ 10763 10752 10751 10750 ] final   80.90 input  -60.55 | X-H torsion
[ 11005 11000 10999 10996 ] final  129.09 input  -57.11 | X-H torsion

> <Gold.Protein.ActiveResidues>
 VAL166  LYS551  ARG553  GLY616  TRP617  ASP618  TYR619  PRO620  LYS621  CYS622 
 ASP623  PHE694  ASN695  SER759  ASP760  ASP761  ALA762  ILE779  LEU786  VAL792 
 PHE793  MET794  SER795  GLU796  ALA797  LYS798  CYS799  TRP800  GLU811  SER814 

> <Gold.Protein.RotatedAtoms>
  152.2977  133.5624  159.5597 H   0  0  0  0  0  0  0  0  0  0  0  0  # atno 6907 bound_to 6896
  150.7263  134.0337  159.3751 H   0  0  0  0  0  0  0  0  0  0  0  0  # atno 6908 bound_to 6896
  151.8239  135.0643  160.0479 H   0  0  0  0  0  0  0  0  0  0  0  0  # atno 6909 bound_to 6896
  145.3895  139.2365  143.3359 H   0  0  0  0  0  0  0  0  0  0  0  0  # atno 7974 bound_to 7965
  154.5195  140.0790  156.8145 H   0  0  0  0  0  0  0  0  0  0  0  0  # atno 8008 bound_to 7997
  155.3606  140.3417  155.4222 H   0  0  0  0  0  0  0  0  0  0  0  0  # atno 8009 bound_to 7997
  156.1666  140.1605  156.8508 H   0  0  0  0  0  0  0  0  0  0  0  0  # atno 8010 bound_to 7997
  140.7286  143.4507  151.0521 H   0  0  0  0  0  0  0  0  0  0  0  0  # atno 10167 bound_to 10162
  156.6539  130.4962  149.6053 H   0  0  0  0  0  0  0  0  0  0  0  0  # atno 10718 bound_to 10713
  153.1072  135.4785  154.8971 H   0  0  0  0  0  0  0  0  0  0  0  0  # atno 10763 bound_to 10752
  154.7442  135.3090  154.8677 H   0  0  0  0  0  0  0  0  0  0  0  0  # atno 10764 bound_to 10752
  153.9276  135.6848  153.4799 H   0  0  0  0  0  0  0  0  0  0  0  0  # atno 10765 bound_to 10752
  139.9596  134.9605  156.9097 H   0  0  0  0  0  0  0  0  0  0  0  0  # atno 11005 bound_to 11000
  146.2804  140.4576  142.8778 LP  0  0  0  0  0  0  0  0  0  0  0  0  # atno 17320 bound_to 7965
  144.8450  140.6915  143.6205 LP  0  0  0  0  0  0  0  0  0  0  0  0  # atno 17321 bound_to 7965
  139.8183  143.7855  152.3175 LP  0  0  0  0  0  0  0  0  0  0  0  0  # atno 17342 bound_to 10162
  139.7929  144.7403  150.9930 LP  0  0  0  0  0  0  0  0  0  0  0  0  # atno 17343 bound_to 10162
  156.2063  130.6651  151.1221 LP  0  0  0  0  0  0  0  0  0  0  0  0  # atno 17370 bound_to 10713
  157.7132  131.0723  150.6425 LP  0  0  0  0  0  0  0  0  0  0  0  0  # atno 17371 bound_to 10713
  140.5530  134.0609  155.7375 LP  0  0  0  0  0  0  0  0  0  0  0  0  # atno 17394 bound_to 11000
  141.1272  133.9363  157.2611 LP  0  0  0  0  0  0  0  0  0  0  0  0  # atno 17395 bound_to 11000

$$$$
