AV-unprocessed.smi:552|AV-procd|sdf|2902|dock9
  -GOLD-   2262023393D 1   1.00000     0.00000
 Structure written by MMmdl.
 42 43  0  0  0  0  0  0  0  0  1 V2000
  149.7380  130.9820  154.7913 C   0  0  0  0  0  0  0  0  0  0  0  0
  150.0366  132.4862  154.7106 C   0  0  0  0  0  0  0  0  0  0  0  0
  148.8311  133.3332  154.2613 C   0  0  2  0  0  0  0  0  0  0  0  0
  148.2310  132.8104  152.9465 C   0  0  0  0  0  0  0  0  0  0  0  0
  149.2256  134.7321  154.1069 N   0  0  0  0  0  0  0  0  0  0  0  0
  149.7355  135.5081  155.0742 C   0  0  0  0  0  0  0  0  0  0  0  0
  149.9272  135.1219  156.2271 O   0  0  0  0  0  0  0  0  0  0  0  0
  149.9811  136.7494  154.6211 N   0  0  0  0  0  0  0  0  0  0  0  0
  150.5283  137.8519  155.3304 C   0  0  0  0  0  0  0  0  0  0  0  0
  150.8724  139.0872  154.7351 C   0  0  0  0  0  0  0  0  0  0  0  0
  151.3905  140.1144  155.5467 C   0  0  0  0  0  0  0  0  0  0  0  0
  151.5502  139.8890  156.9346 C   0  0  0  0  0  0  0  0  0  0  0  0
  152.0749  140.9033  157.7660 N   0  0  0  0  0  0  0  0  0  0  0  0
  151.3268  142.1549  157.8765 C   0  0  0  0  0  0  0  0  0  0  0  0
  152.1764  143.2297  158.5753 C   0  0  0  0  0  0  0  0  0  0  0  0
  152.6221  142.7435  159.8367 O   0  0  0  0  0  0  0  0  0  0  0  0
  153.4433  141.5892  159.6974 C   0  0  0  0  0  0  0  0  0  0  0  0
  152.6418  140.4546  159.0360 C   0  0  0  0  0  0  0  0  0  0  0  0
  151.1976  138.7098  157.5037 N   0  0  0  0  0  0  0  0  0  0  0  0
  150.7001  137.7283  156.7230 C   0  0  0  0  0  0  0  0  0  0  0  0
  150.6327  130.4254  155.0709 H   0  0  0  0  0  0  0  0  0  0  0  0
  149.3962  130.5980  153.8297 H   0  0  0  0  0  0  0  0  0  0  0  0
  148.9691  130.7631  155.5326 H   0  0  0  0  0  0  0  0  0  0  0  0
  150.3943  132.8358  155.6799 H   0  0  0  0  0  0  0  0  0  0  0  0
  150.8604  132.6379  154.0121 H   0  0  0  0  0  0  0  0  0  0  0  0
  148.0662  133.2588  155.0366 H   0  0  0  0  0  0  0  0  0  0  0  0
  147.9129  131.7723  153.0463 H   0  0  0  0  0  0  0  0  0  0  0  0
  148.9544  132.8598  152.1321 H   0  0  0  0  0  0  0  0  0  0  0  0
  147.3571  133.3923  152.6514 H   0  0  0  0  0  0  0  0  0  0  0  0
  149.1002  135.1381  153.1912 H   0  0  0  0  0  0  0  0  0  0  0  0
  149.6853  136.9453  153.6759 H   0  0  0  0  0  0  0  0  0  0  0  0
  150.7337  139.2727  153.6813 H   0  0  0  0  0  0  0  0  0  0  0  0
  151.6397  141.0640  155.0977 H   0  0  0  0  0  0  0  0  0  0  0  0
  151.0379  142.5124  156.8873 H   0  0  0  0  0  0  0  0  0  0  0  0
  150.4101  141.9783  158.4410 H   0  0  0  0  0  0  0  0  0  0  0  0
  153.0316  143.5118  157.9587 H   0  0  0  0  0  0  0  0  0  0  0  0
  151.5852  144.1323  158.7312 H   0  0  0  0  0  0  0  0  0  0  0  0
  154.3318  141.8301  159.1115 H   0  0  0  0  0  0  0  0  0  0  0  0
  153.7880  141.2788  160.6839 H   0  0  0  0  0  0  0  0  0  0  0  0
  151.8283  140.1417  159.6919 H   0  0  0  0  0  0  0  0  0  0  0  0
  153.2940  139.5923  158.9079 H   0  0  0  0  0  0  0  0  0  0  0  0
  150.4362  136.8112  157.2292 H   0  0  0  0  0  0  0  0  0  0  0  0
  1  2  1  0  0  0  0
  1 21  1  0  0  0  0
  1 22  1  0  0  0  0
  1 23  1  0  0  0  0
  2  3  1  0  0  0  0
  2 24  1  0  0  0  0
  2 25  1  0  0  0  0
  3  4  1  0  0  0  0
  3  5  1  0  0  0  0
  3 26  1  0  0  0  0
  4 27  1  0  0  0  0
  4 28  1  0  0  0  0
  4 29  1  0  0  0  0
  5  6  1  0  0  0  0
  5 30  1  0  0  0  0
  6  7  2  0  0  0  0
  6  8  1  0  0  0  0
  8  9  1  0  0  0  0
  8 31  1  0  0  0  0
  9 20  1  0  0  0  0
  9 10  2  0  0  0  0
 10 11  1  0  0  0  0
 10 32  1  0  0  0  0
 11 12  2  0  0  0  0
 11 33  1  0  0  0  0
 12 13  1  0  0  0  0
 12 19  1  0  0  0  0
 13 18  1  0  0  0  0
 13 14  1  0  0  0  0
 14 15  1  0  0  0  0
 14 34  1  0  0  0  0
 14 35  1  0  0  0  0
 15 16  1  0  0  0  0
 15 36  1  0  0  0  0
 15 37  1  0  0  0  0
 16 17  1  0  0  0  0
 17 18  1  0  0  0  0
 17 38  1  0  0  0  0
 17 39  1  0  0  0  0
 18 40  1  0  0  0  0
 18 41  1  0  0  0  0
 19 20  2  0  0  0  0
 20 42  1  0  0  0  0
M  END
> <s_m_source_file>
AV-unprocessed.smi

> <i_m_source_file_index>
552

> <i_lp_mmshare_version>
43012

> <i_f3d_flags>
0

> <s_epik_input>
W0NIM11bQ0gyXVtDQEhdKFtDSDNdKVtOSF1DKD1PKVtOSF1jMVtjSF1bY0hdYyhuW2NIXTEpTjJbQ0gyXVtDSDJdT1tDSDJdW0NIMl0y

> <s_epik_cmdline>
J2VwaWtfcHl0aG9uJywgJy1waCcsICc3LjAnLCAnLXRuJywgJzgnLCAnLW1hJywgJzIwMCcsICctbWV0YWxfYmluZGluZycsICctaW1hZScsICc8aW5maWxlLm1hZT4nLCAnLW9tYWUnLCAnPG91dGZpbGUubWFlPic=

> <r_lp_tautomer_probability>
1

> <r_epik_Ionization_Penalty>
0.00215965

> <r_epik_Ionization_Penalty_Charging>
0

> <r_epik_Ionization_Penalty_Neutral>
0.00215965

> <r_epik_State_Penalty>
0.00145276

> <r_epik_Charging_Adjusted_Penalty>
0.00145276

> <i_epik_Tot_Q>
0

> <i_epik_Tot_abs_Q>
0

> <r_epik_Metal_State_Penalty>
-0

> <b_epik_Metal_Only>
0

> <s_lp_Force_Field>
OPLS_2005

> <r_lp_Energy>
20.9108

> <b_lp_Chiralities_Consistent>
1

> <s_lp_Variant>
AV-unprocessed.smi:552-1

> <Gold.Version>
5.8.1

> <Gold.Id.Protein>
6NUR|6NUR_protein|mol2

> <Gold.PLP.Fitness>
39.7867

> <Gold.PLP.PLP>
-34.6129

> <Gold.PLP.part.hbond>
-2.0000

> <Gold.PLP.part.metal>
0.0000

> <Gold.PLP.part.buried>
-3.6855

> <Gold.PLP.part.nonpolar>
-28.5090

> <Gold.PLP.part.repulsive>
0.0812

> <Gold.PLP.ligand.clash>
0.0000

> <Gold.PLP.ligand.torsion>
0.3418

> <Gold.PLP.Chemscore.Hbond>
1.8357

> <Gold.PLP.Chemscore.CHOScore>
0.0000

> <Gold.PLP.Chemscore.Metal>
0.0000

> <Gold.Chemscore.Hbonds>
donor molecule, donor type, donor heavy atom, donor atom, acceptor molecule, acceptor atom, score
      L1  H     5    30       P1  7948  0.90
      L1  H     8    31       P1  7948  0.94

> <Gold.PLP.Chemscore.Internal.Correction>
0.3502

> <Gold.Rescore>
     Score         DG    S(hbond)    S(metal)    S(lipo)     H(rot)  DE(clash)    DE(int)     intcor
     15.07     -16.85       1.71        0.00      77.88       1.35       0.02       1.76       ----

> <Gold.Chemscore.Fitness>
15.0717

> <Gold.Chemscore.DG>
-16.8486

> <Gold.Chemscore.ZeroCoef>
-5.4800

> <Gold.Chemscore.Hbond>
1.7127

> <Gold.Chemscore.Metal>
0.0000

> <Gold.Chemscore.Lipo>
77.8801

> <Gold.Chemscore.Internal_Hbond>
0.0000

> <Gold.Chemscore.DEClash>
0.0185

> <Gold.Chemscore.DEInternal>
1.7584

> <Gold.Chemscore.Rot>
1.3530

> <Gold.Chemscore.Internal.Correction>
   9.000000E+99

> <Gold.Chemscore.Hbonds>
donor molecule, donor type, donor heavy atom, donor atom, acceptor molecule, acceptor atom, score
      L1  H     5    30       P1  7948  0.18
      L1  H     8    31       P1  7948  0.59

> <Gold.Chemscore.Hbond.Weighted>
-5.7204

> <Gold.Chemscore.Metal.Weighted>
-0.0000

> <Gold.Chemscore.Lipo.Weighted>
-9.1120

> <Gold.Chemscore.Internal_Hbond.Weighted>
0.0000

> <Gold.Chemscore.DEClash.Weighted>
0.0185

> <Gold.Chemscore.DEInternal.Weighted>
1.7584

> <Gold.Chemscore.Rot.Weighted>
3.4638

> <Gold.Chemscore.Internal.Correction.Weighted>
   9.000000E+99

> <Gold.Protein.RotatedTorsions>
[ 6907 6896 6895 6894 ] final  158.52 input  -60.11 | X-H torsion
[ 7974 7965 7964 7962 ] final -154.49 input  175.53 | X-H torsion
[ 8008 7997 7996 7995 ] final  -64.00 input   59.86 | X-H torsion
[ 10167 10162 10161 10158 ] final  -10.54 input  -65.29 | X-H torsion
[ 10718 10713 10712 10709 ] final  -44.85 input   66.30 | X-H torsion
[ 10763 10752 10751 10750 ] final    1.10 input  -60.55 | X-H torsion
[ 11005 11000 10999 10996 ] final   80.73 input  -57.11 | X-H torsion

> <Gold.Protein.ActiveResidues>
 VAL166  LYS551  ARG553  GLY616  TRP617  ASP618  TYR619  PRO620  LYS621  CYS622 
 ASP623  PHE694  ASN695  SER759  ASP760  ASP761  ALA762  ILE779  LEU786  VAL792 
 PHE793  MET794  SER795  GLU796  ALA797  LYS798  CYS799  TRP800  GLU811  SER814 

> <Gold.Protein.RotatedAtoms>
  151.9992  133.3819  159.4174 H   0  0  0  0  0  0  0  0  0  0  0  0  # atno 6907 bound_to 6896
  150.6912  134.3852  159.5061 H   0  0  0  0  0  0  0  0  0  0  0  0  # atno 6908 bound_to 6896
  152.1597  134.8922  160.0593 H   0  0  0  0  0  0  0  0  0  0  0  0  # atno 6909 bound_to 6896
  144.7687  140.4381  143.5923 H   0  0  0  0  0  0  0  0  0  0  0  0  # atno 7974 bound_to 7965
  154.4586  140.0963  156.6830 H   0  0  0  0  0  0  0  0  0  0  0  0  # atno 8008 bound_to 7997
  155.5061  140.3475  155.4361 H   0  0  0  0  0  0  0  0  0  0  0  0  # atno 8009 bound_to 7997
  156.0827  140.1377  156.9680 H   0  0  0  0  0  0  0  0  0  0  0  0  # atno 8010 bound_to 7997
  140.7116  143.5737  150.9065 H   0  0  0  0  0  0  0  0  0  0  0  0  # atno 10167 bound_to 10162
  156.2344  130.4175  149.8836 H   0  0  0  0  0  0  0  0  0  0  0  0  # atno 10718 bound_to 10713
  153.3123  135.6963  153.7105 H   0  0  0  0  0  0  0  0  0  0  0  0  # atno 10763 bound_to 10752
  153.5977  135.3468  155.2935 H   0  0  0  0  0  0  0  0  0  0  0  0  # atno 10764 bound_to 10752
  154.8578  135.4333  154.2264 H   0  0  0  0  0  0  0  0  0  0  0  0  # atno 10765 bound_to 10752
  139.9124  134.7942  156.1947 H   0  0  0  0  0  0  0  0  0  0  0  0  # atno 11005 bound_to 11000
  145.6391  139.1547  143.2926 LP  0  0  0  0  0  0  0  0  0  0  0  0  # atno 17320 bound_to 7965
  146.1815  140.6489  142.9187 LP  0  0  0  0  0  0  0  0  0  0  0  0  # atno 17321 bound_to 7965
  139.9463  143.6323  152.3041 LP  0  0  0  0  0  0  0  0  0  0  0  0  # atno 17342 bound_to 10162
  139.6826  144.7654  151.1581 LP  0  0  0  0  0  0  0  0  0  0  0  0  # atno 17343 bound_to 10162
  156.6439  130.8716  151.3519 LP  0  0  0  0  0  0  0  0  0  0  0  0  # atno 17370 bound_to 10713
  157.7147  130.9483  150.1214 LP  0  0  0  0  0  0  0  0  0  0  0  0  # atno 17371 bound_to 10713
  141.0562  133.6864  156.1864 LP  0  0  0  0  0  0  0  0  0  0  0  0  # atno 17394 bound_to 11000
  140.6733  134.4844  157.5588 LP  0  0  0  0  0  0  0  0  0  0  0  0  # atno 17395 bound_to 11000

$$$$
