AV-unprocessed.smi:37|AV-procd|sdf|326|dock6
  -GOLD-   2262016153D 1   1.00000     0.00000
 Structure written by MMmdl.
 43 44  0  0  0  0  0  0  0  0  2 V2000
  146.6685  135.1141  162.2143 C   0  0  0  0  0  0  0  0  0  0  0  0
  146.5615  136.3909  161.3698 C   0  0  0  0  0  0  0  0  0  0  0  0
  147.3654  136.2938  160.0755 C   0  0  0  0  0  0  0  0  0  0  0  0
  147.1068  135.4457  159.2212 O   0  0  0  0  0  0  0  0  0  0  0  0
  148.3439  137.2090  160.0054 O   0  0  0  0  0  0  0  0  0  0  0  0
  149.0838  137.3544  158.8051 C   0  0  0  0  0  0  0  0  0  0  0  0
  150.3920  138.0966  159.1069 C   0  0  1  0  0  0  0  0  0  0  0  0
  151.4561  137.1851  159.3547 O   0  0  0  0  0  0  0  0  0  0  0  0
  152.6805  137.7832  159.0376 C   0  0  2  0  0  0  0  0  0  0  0  0
  153.5227  137.9211  160.2861 N   0  0  0  0  0  0  0  0  0  0  0  0
  153.0729  137.4631  161.5139 C   0  0  0  0  0  0  0  0  0  0  0  0
  153.8296  137.5854  162.6235 C   0  0  0  0  0  0  0  0  0  0  0  0
  153.3655  137.1367  163.8026 F   0  0  0  0  0  0  0  0  0  0  0  0
  155.1491  138.2083  162.5348 C   0  0  0  0  0  0  0  0  0  0  0  0
  155.8370  138.3114  163.5493 O   0  0  0  0  0  0  0  0  0  0  0  0
  155.5637  138.6536  161.3132 N   0  5  0  0  0  0  0  0  0  0  0  0
  154.7996  138.5368  160.1881 C   0  0  0  0  0  0  0  0  0  0  0  0
  155.1574  138.9462  159.0834 O   0  0  0  0  0  0  0  0  0  0  0  0
  152.3764  139.1360  158.3571 C   0  0  2  0  0  0  0  0  0  0  0  0
  152.4958  140.7020  159.5952 Br  0  0  0  0  0  0  0  0  0  0  0  0
  150.9206  138.9618  157.9602 C   0  0  1  0  0  0  0  0  0  0  0  0
  150.8116  138.2572  156.7273 O   0  0  0  0  0  0  0  0  0  0  0  0
  151.4701  138.6864  155.6357 C   0  0  0  0  0  0  0  0  0  0  0  0
  152.4232  139.4655  155.6267 O   0  0  0  0  0  0  0  0  0  0  0  0
  150.9195  138.0872  154.3433 C   0  0  0  0  0  0  0  0  0  0  0  0
  149.5120  138.6050  154.0163 C   0  0  0  0  0  0  0  0  0  0  0  0
  146.1057  135.2200  163.1416 H   0  0  0  0  0  0  0  0  0  0  0  0
  147.7046  134.9010  162.4798 H   0  0  0  0  0  0  0  0  0  0  0  0
  146.2704  134.2478  161.6843 H   0  0  0  0  0  0  0  0  0  0  0  0
  145.5185  136.5896  161.1224 H   0  0  0  0  0  0  0  0  0  0  0  0
  146.9189  137.2460  161.9443 H   0  0  0  0  0  0  0  0  0  0  0  0
  149.2879  136.3809  158.3565 H   0  0  0  0  0  0  0  0  0  0  0  0
  148.4887  137.9279  158.0931 H   0  0  0  0  0  0  0  0  0  0  0  0
  150.2626  138.7269  159.9884 H   0  0  0  0  0  0  0  0  0  0  0  0
  153.2164  137.0876  158.3895 H   0  0  0  0  0  0  0  0  0  0  0  0
  152.0988  137.0059  161.6009 H   0  0  0  0  0  0  0  0  0  0  0  0
  153.0517  139.3156  157.5199 H   0  0  0  0  0  0  0  0  0  0  0  0
  150.3878  139.9126  157.9030 H   0  0  0  0  0  0  0  0  0  0  0  0
  151.6001  138.3279  153.5261 H   0  0  0  0  0  0  0  0  0  0  0  0
  150.9073  137.0009  154.4353 H   0  0  0  0  0  0  0  0  0  0  0  0
  149.1660  138.2008  153.0649 H   0  0  0  0  0  0  0  0  0  0  0  0
  149.4977  139.6927  153.9377 H   0  0  0  0  0  0  0  0  0  0  0  0
  148.7902  138.3129  154.7799 H   0  0  0  0  0  0  0  0  0  0  0  0
  1  2  1  0  0  0  0
  1 27  1  0  0  0  0
  1 28  1  0  0  0  0
  1 29  1  0  0  0  0
  2  3  1  0  0  0  0
  2 30  1  0  0  0  0
  2 31  1  0  0  0  0
  3  4  2  0  0  0  0
  3  5  1  0  0  0  0
  5  6  1  0  0  0  0
  6  7  1  0  0  0  0
  6 32  1  0  0  0  0
  6 33  1  0  0  0  0
  7 21  1  0  0  0  0
  7  8  1  0  0  0  0
  7 34  1  0  0  0  0
  8  9  1  0  0  0  0
  9 10  1  0  0  0  0
  9 19  1  0  0  0  0
  9 35  1  0  0  0  0
 10 17  1  0  0  0  0
 10 11  1  0  0  0  0
 11 12  2  0  0  0  0
 11 36  1  0  0  0  0
 12 13  1  0  0  0  0
 12 14  1  0  0  0  0
 14 15  2  0  0  0  0
 14 16  1  0  0  0  0
 16 17  1  0  0  0  0
 17 18  2  0  0  0  0
 19 20  1  0  0  0  0
 19 21  1  0  0  0  0
 19 37  1  0  0  0  0
 21 22  1  0  0  0  0
 21 38  1  0  0  0  0
 22 23  1  0  0  0  0
 23 24  2  0  0  0  0
 23 25  1  0  0  0  0
 25 26  1  0  0  0  0
 25 39  1  0  0  0  0
 25 40  1  0  0  0  0
 26 41  1  0  0  0  0
 26 42  1  0  0  0  0
 26 43  1  0  0  0  0
M  CHG  1  16  -1
M  END
> <s_m_source_file>
AV-unprocessed.smi

> <i_m_source_file_index>
37

> <i_lp_mmshare_version>
43012

> <i_f3d_flags>
0

> <s_epik_input>
W0NIM11bQ0gyXUMoPU8pT1tDSDJdW0NAQEhdMU9bQ0BASF0objJbY0hdYyhGKWMoPU8pW25IXWMyPU8pW0NAQEhdKEJyKVtDQEhdMU9DKD1PKVtDSDJdW0NIM10=

> <s_epik_cmdline>
J2VwaWtfcHl0aG9uJywgJy1waCcsICc3LjAnLCAnLXRuJywgJzgnLCAnLW1hJywgJzIwMCcsICctbWV0YWxfYmluZGluZycsICctaW1hZScsICc8aW5maWxlLm1hZT4nLCAnLW9tYWUnLCAnPG91dGZpbGUubWFlPic=

> <r_epik_Ionization_Penalty>
1.08158

> <r_epik_Ionization_Penalty_Charging>
9.05154e-09

> <r_epik_Ionization_Penalty_Neutral>
1.08158

> <r_epik_State_Penalty>
1.13706

> <r_epik_Charging_Adjusted_Penalty>
1.13706

> <i_epik_Tot_Q>
-1

> <i_epik_Tot_abs_Q>
1

> <r_epik_Metal_State_Penalty>
0.00343535

> <b_epik_Metal_Only>
0

> <s_epik_Chemistry_Notes>
This compound has an ester and may undergo hydrolysis at high or low pH. This compound contains an acetal/aminal-like group ( X-CH(R)-Y where X, Y are N, S, or O) that may be acid/base labile, releasing an aldehyde.

> <s_lp_Force_Field>
OPLS_2005

> <r_lp_Energy>
32.8467

> <b_lp_Chiralities_Consistent>
1

> <s_lp_Variant>
AV-unprocessed.smi:37-24

> <Gold.Version>
5.8.1

> <Gold.Id.Protein>
6NUR|6NUR_protein|mol2

> <Gold.PLP.Fitness>
50.3225

> <Gold.PLP.PLP>
-42.9769

> <Gold.PLP.part.hbond>
-4.0000

> <Gold.PLP.part.metal>
0.0000

> <Gold.PLP.part.buried>
-6.4106

> <Gold.PLP.part.nonpolar>
-32.7587

> <Gold.PLP.part.repulsive>
0.0126

> <Gold.PLP.ligand.clash>
0.0000

> <Gold.PLP.ligand.torsion>
0.9273

> <Gold.PLP.Chemscore.Hbond>
3.0000

> <Gold.PLP.Chemscore.CHOScore>
0.0000

> <Gold.PLP.Chemscore.Metal>
0.0000

> <Gold.Chemscore.Hbonds>
donor molecule, donor type, donor heavy atom, donor atom, acceptor molecule, acceptor atom, score
      P1  H  6896  6907       L1     8  0.76
      P1  H  7997  8008       L1    24  0.78
      P1  H  7997  8010       L1    18  0.64

> <Gold.PLP.Chemscore.Internal.Correction>
0.2002

> <Gold.Rescore>
     Score         DG    S(hbond)    S(metal)    S(lipo)     H(rot)  DE(clash)    DE(int)     intcor
     12.13     -14.70       2.81        0.00      70.12       3.27       0.03       2.55       ----

> <Gold.Chemscore.Fitness>
12.1272

> <Gold.Chemscore.DG>
-14.6998

> <Gold.Chemscore.ZeroCoef>
-5.4800

> <Gold.Chemscore.Hbond>
2.8080

> <Gold.Chemscore.Metal>
0.0000

> <Gold.Chemscore.Lipo>
70.1224

> <Gold.Chemscore.Internal_Hbond>
0.0000

> <Gold.Chemscore.DEClash>
0.0272

> <Gold.Chemscore.DEInternal>
2.5454

> <Gold.Chemscore.Rot>
3.2669

> <Gold.Chemscore.Internal.Correction>
   9.000000E+99

> <Gold.Chemscore.Hbonds>
donor molecule, donor type, donor heavy atom, donor atom, acceptor molecule, acceptor atom, score
      P1  H  6896  6907       L1     8  0.63
      P1  H  7997  8008       L1    24  0.77
      P1  H  7997  8010       L1    18  0.63

> <Gold.Chemscore.Hbond.Weighted>
-9.3789

> <Gold.Chemscore.Metal.Weighted>
-0.0000

> <Gold.Chemscore.Lipo.Weighted>
-8.2043

> <Gold.Chemscore.Internal_Hbond.Weighted>
0.0000

> <Gold.Chemscore.DEClash.Weighted>
0.0272

> <Gold.Chemscore.DEInternal.Weighted>
2.5454

> <Gold.Chemscore.Rot.Weighted>
8.3634

> <Gold.Chemscore.Internal.Correction.Weighted>
   9.000000E+99

> <Gold.Protein.RotatedTorsions>
[ 6907 6896 6895 6894 ] final    4.72 input  -60.11 | X-H torsion
[ 7974 7965 7964 7962 ] final  -89.67 input  175.53 | X-H torsion
[ 8008 7997 7996 7995 ] final  -34.08 input   59.86 | X-H torsion
[ 10167 10162 10161 10158 ] final -112.37 input  -65.29 | X-H torsion
[ 10718 10713 10712 10709 ] final   85.92 input   66.30 | X-H torsion
[ 10763 10752 10751 10750 ] final   27.19 input  -60.55 | X-H torsion
[ 11005 11000 10999 10996 ] final -177.17 input  -57.11 | X-H torsion

> <Gold.Protein.ActiveResidues>
 VAL166  LYS551  ARG553  GLY616  TRP617  ASP618  TYR619  PRO620  LYS621  CYS622 
 ASP623  PHE694  ASN695  SER759  ASP760  ASP761  ALA762  ILE779  LEU786  VAL792 
 PHE793  MET794  SER795  GLU796  ALA797  LYS798  CYS799  TRP800  GLU811  SER814 

> <Gold.Protein.RotatedAtoms>
  151.6458  135.1007  160.0150 H   0  0  0  0  0  0  0  0  0  0  0  0  # atno 6907 bound_to 6896
  152.4028  133.6840  159.6339 H   0  0  0  0  0  0  0  0  0  0  0  0  # atno 6908 bound_to 6896
  150.7926  133.8677  159.3291 H   0  0  0  0  0  0  0  0  0  0  0  0  # atno 6909 bound_to 6896
  145.4367  140.9558  143.2098 H   0  0  0  0  0  0  0  0  0  0  0  0  # atno 7974 bound_to 7965
  154.4130  140.1693  156.1992 H   0  0  0  0  0  0  0  0  0  0  0  0  # atno 8008 bound_to 7997
  155.9538  140.3399  155.6408 H   0  0  0  0  0  0  0  0  0  0  0  0  # atno 8009 bound_to 7997
  155.6835  140.0725  157.2466 H   0  0  0  0  0  0  0  0  0  0  0  0  # atno 8010 bound_to 7997
  140.1235  143.4423  152.1675 H   0  0  0  0  0  0  0  0  0  0  0  0  # atno 10167 bound_to 10162
  157.6921  131.0194  150.2895 H   0  0  0  0  0  0  0  0  0  0  0  0  # atno 10718 bound_to 10713
  153.0572  135.6542  154.0549 H   0  0  0  0  0  0  0  0  0  0  0  0  # atno 10763 bound_to 10752
  154.0225  135.2918  155.3380 H   0  0  0  0  0  0  0  0  0  0  0  0  # atno 10764 bound_to 10752
  154.6893  135.5289  153.8437 H   0  0  0  0  0  0  0  0  0  0  0  0  # atno 10765 bound_to 10752
  140.4439  134.6406  157.4770 H   0  0  0  0  0  0  0  0  0  0  0  0  # atno 11005 bound_to 11000
  144.8148  139.5897  143.7013 LP  0  0  0  0  0  0  0  0  0  0  0  0  # atno 17320 bound_to 7965
  146.2578  139.6342  142.9383 LP  0  0  0  0  0  0  0  0  0  0  0  0  # atno 17321 bound_to 7965
  139.5556  144.7370  151.4303 LP  0  0  0  0  0  0  0  0  0  0  0  0  # atno 17342 bound_to 10162
  140.6858  143.7976  150.7185 LP  0  0  0  0  0  0  0  0  0  0  0  0  # atno 17343 bound_to 10162
  156.3428  130.3818  149.7394 LP  0  0  0  0  0  0  0  0  0  0  0  0  # atno 17370 bound_to 10713
  156.4898  130.8079  151.3090 LP  0  0  0  0  0  0  0  0  0  0  0  0  # atno 17371 bound_to 10713
  140.0052  134.6775  155.9467 LP  0  0  0  0  0  0  0  0  0  0  0  0  # atno 17394 bound_to 11000
  141.1694  133.6537  156.4595 LP  0  0  0  0  0  0  0  0  0  0  0  0  # atno 17395 bound_to 11000

$$$$
