AV-unprocessed.smi:114|AV-procd|sdf|1112|dock5
  -GOLD-   2262018233D 1   1.00000     0.00000
 Structure written by MMmdl.
 32 34  0  0  0  0  0  0  0  0  1 V2000
  142.7038  144.6398  155.8442 N   0  0  0  0  0  0  0  0  0  0  0  0
  143.7201  144.3918  155.0062 C   0  0  0  0  0  0  0  0  0  0  0  0
  143.8644  145.1800  153.9150 N   0  0  0  0  0  0  0  0  0  0  0  0
  144.8683  144.9677  153.0544 C   0  0  0  0  0  0  0  0  0  0  0  0
  144.9362  145.8036  151.9918 F   0  0  0  0  0  0  0  0  0  0  0  0
  145.8121  144.0221  153.1256 N   0  0  0  0  0  0  0  0  0  0  0  0
  145.6665  143.2255  154.2238 C   0  0  0  0  0  0  0  0  0  0  0  0
  144.6518  143.3447  155.2093 C   0  0  0  0  0  0  0  0  0  0  0  0
  144.8207  142.3681  156.1814 N   0  0  0  0  0  0  0  0  0  0  0  0
  145.8812  141.7132  155.7886 C   0  0  0  0  0  0  0  0  0  0  0  0
  146.4466  142.1577  154.6103 N   0  0  0  0  0  0  0  0  0  0  0  0
  147.6598  141.6606  153.8855 C   0  0  1  0  0  0  0  0  0  0  0  0
  148.7910  142.1241  154.5597 O   0  0  0  0  0  0  0  0  0  0  0  0
  149.2509  141.1195  155.4574 C   0  0  2  0  0  0  0  0  0  0  0  0
  150.6927  141.3959  155.9176 C   0  0  0  0  0  0  0  0  0  0  0  0
  150.7591  142.6482  156.5659 O   0  0  0  0  0  0  0  0  0  0  0  0
  149.0474  139.8464  154.6278 C   0  0  2  0  0  0  0  0  0  0  0  0
  150.1148  139.6775  153.7087 O   0  0  0  0  0  0  0  0  0  0  0  0
  147.7116  140.1209  153.9371 C   0  0  2  0  0  0  0  0  0  0  0  0
  147.6185  139.5120  152.6628 O   0  0  0  0  0  0  0  0  0  0  0  0
  147.5850  142.0887  152.8851 H   0  0  0  0  0  0  0  0  0  0  0  0
  148.5855  141.0737  156.3217 H   0  0  0  0  0  0  0  0  0  0  0  0
  148.9972  138.9571  155.2565 H   0  0  0  0  0  0  0  0  0  0  0  0
  146.8998  139.7496  154.5651 H   0  0  0  0  0  0  0  0  0  0  0  0
  142.5783  144.0649  156.6653 H   0  0  0  0  0  0  0  0  0  0  0  0
  142.0670  145.4003  155.6552 H   0  0  0  0  0  0  0  0  0  0  0  0
  146.2779  140.8842  156.3569 H   0  0  0  0  0  0  0  0  0  0  0  0
  151.0090  140.6388  156.6358 H   0  0  0  0  0  0  0  0  0  0  0  0
  151.3920  141.3661  155.0813 H   0  0  0  0  0  0  0  0  0  0  0  0
  150.1625  143.2411  156.1351 H   0  0  0  0  0  0  0  0  0  0  0  0
  149.7506  139.6248  152.8381 H   0  0  0  0  0  0  0  0  0  0  0  0
  148.1829  139.9806  152.0666 H   0  0  0  0  0  0  0  0  0  0  0  0
  1  2  1  0  0  0  0
  1 25  1  0  0  0  0
  1 26  1  0  0  0  0
  2  8  1  0  0  0  0
  2  3  2  0  0  0  0
  3  4  1  0  0  0  0
  4  5  1  0  0  0  0
  4  6  2  0  0  0  0
  6  7  1  0  0  0  0
  7 11  1  0  0  0  0
  7  8  2  0  0  0  0
  8  9  1  0  0  0  0
  9 10  2  0  0  0  0
 10 11  1  0  0  0  0
 10 27  1  0  0  0  0
 11 12  1  0  0  0  0
 12 21  1  0  0  0  0
 12 19  1  0  0  0  0
 12 13  1  0  0  0  0
 13 14  1  0  0  0  0
 14 22  1  0  0  0  0
 14 15  1  0  0  0  0
 14 17  1  0  0  0  0
 15 16  1  0  0  0  0
 15 28  1  0  0  0  0
 15 29  1  0  0  0  0
 16 30  1  0  0  0  0
 17 23  1  0  0  0  0
 17 18  1  0  0  0  0
 17 19  1  0  0  0  0
 18 31  1  0  0  0  0
 19 24  1  0  0  0  0
 19 20  1  0  0  0  0
 20 32  1  0  0  0  0
M  END
> <s_m_source_file>
AV-unprocessed.smi

> <i_m_source_file_index>
114

> <i_lp_mmshare_version>
43012

> <i_f3d_flags>
0

> <s_epik_input>
RmMobjEpbmMoW05IMl0pYyhjMTIpbltjSF1uMltDQEBIXTNPW0NASF0oW0NIMl1bT0hdKVtDQEBIXShbT0hdKVtDQEBIXTNbT0hd

> <s_epik_cmdline>
J2VwaWtfcHl0aG9uJywgJy1waCcsICc3LjAnLCAnLXRuJywgJzgnLCAnLW1hJywgJzIwMCcsICctbWV0YWxfYmluZGluZycsICctaW1hZScsICc8aW5maWxlLm1hZT4nLCAnLW9tYWUnLCAnPG91dGZpbGUubWFlPic=

> <r_lp_tautomer_probability>
1

> <r_epik_Ionization_Penalty>
1.13199e-05

> <r_epik_Ionization_Penalty_Charging>
0

> <r_epik_Ionization_Penalty_Neutral>
1.13199e-05

> <r_epik_State_Penalty>
-0

> <r_epik_Charging_Adjusted_Penalty>
0

> <i_epik_Tot_Q>
0

> <i_epik_Tot_abs_Q>
0

> <r_epik_Metal_State_Penalty>
-0

> <b_epik_Metal_Only>
0

> <s_epik_Chemistry_Notes>
This compound contains an acetal/aminal-like group ( X-CH(R)-Y where X, Y are N, S, or O) that may be acid/base labile, releasing an aldehyde.

> <s_lp_Force_Field>
OPLS_2005

> <r_lp_Energy>
39.4962

> <b_lp_Chiralities_Consistent>
1

> <s_lp_Variant>
AV-unprocessed.smi:114-6

> <Gold.Version>
5.8.1

> <Gold.Id.Protein>
6NUR|6NUR_protein|mol2

> <Gold.PLP.Fitness>
46.6701

> <Gold.PLP.PLP>
-35.9341

> <Gold.PLP.part.hbond>
-6.4096

> <Gold.PLP.part.metal>
0.0000

> <Gold.PLP.part.buried>
-3.6945

> <Gold.PLP.part.nonpolar>
-28.4724

> <Gold.PLP.part.repulsive>
2.5328

> <Gold.PLP.ligand.clash>
0.0000

> <Gold.PLP.ligand.torsion>
0.5363

> <Gold.PLP.Chemscore.Hbond>
3.9283

> <Gold.PLP.Chemscore.CHOScore>
0.0000

> <Gold.PLP.Chemscore.Metal>
0.0000

> <Gold.Chemscore.Hbonds>
donor molecule, donor type, donor heavy atom, donor atom, acceptor molecule, acceptor atom, score
      L1  H    16    30       P1  8028  1.00
      L1  H    18    31       P1  7957  1.00
      L1  H    20    32       P1  7957  0.99
      P1  H  7989  7998       L1    18  0.88

> <Gold.PLP.Chemscore.Internal.Correction>
0.0236

> <Gold.Rescore>
     Score         DG    S(hbond)    S(metal)    S(lipo)     H(rot)  DE(clash)    DE(int)     intcor
      7.80     -10.55       3.53        0.00      30.69       4.03       2.25       0.50       ----

> <Gold.Chemscore.Fitness>
7.7996

> <Gold.Chemscore.DG>
-10.5526

> <Gold.Chemscore.ZeroCoef>
-5.4800

> <Gold.Chemscore.Hbond>
3.5307

> <Gold.Chemscore.Metal>
0.0000

> <Gold.Chemscore.Lipo>
30.6915

> <Gold.Chemscore.Internal_Hbond>
0.0000

> <Gold.Chemscore.DEClash>
2.2484

> <Gold.Chemscore.DEInternal>
0.5046

> <Gold.Chemscore.Rot>
4.0277

> <Gold.Chemscore.Internal.Correction>
   9.000000E+99

> <Gold.Chemscore.Hbonds>
donor molecule, donor type, donor heavy atom, donor atom, acceptor molecule, acceptor atom, score
      L1  H    16    30       P1  8028  0.95
      L1  H    18    31       P1  7957  0.98
      L1  H    20    32       P1  7957  0.94
      P1  H  7989  7998       L1    18  0.30

> <Gold.Chemscore.Hbond.Weighted>
-11.7927

> <Gold.Chemscore.Metal.Weighted>
-0.0000

> <Gold.Chemscore.Lipo.Weighted>
-3.5909

> <Gold.Chemscore.Internal_Hbond.Weighted>
0.0000

> <Gold.Chemscore.DEClash.Weighted>
2.2484

> <Gold.Chemscore.DEInternal.Weighted>
0.5046

> <Gold.Chemscore.Rot.Weighted>
10.3110

> <Gold.Chemscore.Internal.Correction.Weighted>
   9.000000E+99

> <Gold.Protein.RotatedTorsions>
[ 6907 6896 6895 6894 ] final  -58.86 input  -60.11 | X-H torsion
[ 7974 7965 7964 7962 ] final  -79.26 input  175.53 | X-H torsion
[ 8008 7997 7996 7995 ] final -112.25 input   59.86 | X-H torsion
[ 10167 10162 10161 10158 ] final  -16.65 input  -65.29 | X-H torsion
[ 10718 10713 10712 10709 ] final   -3.82 input   66.30 | X-H torsion
[ 10763 10752 10751 10750 ] final  176.58 input  -60.55 | X-H torsion
[ 11005 11000 10999 10996 ] final  -48.80 input  -57.11 | X-H torsion

> <Gold.Protein.ActiveResidues>
 VAL166  LYS551  ARG553  GLY616  TRP617  ASP618  TYR619  PRO620  LYS621  CYS622 
 ASP623  PHE694  ASN695  SER759  ASP760  ASP761  ALA762  ILE779  LEU786  VAL792 
 PHE793  MET794  SER795  GLU796  ALA797  LYS798  CYS799  TRP800  GLU811  SER814 

> <Gold.Protein.RotatedAtoms>
  150.7974  134.7043  159.6567 H   0  0  0  0  0  0  0  0  0  0  0  0  # atno 6907 bound_to 6896
  152.4087  134.6158  160.0047 H   0  0  0  0  0  0  0  0  0  0  0  0  # atno 6908 bound_to 6896
  151.6407  133.3289  159.3166 H   0  0  0  0  0  0  0  0  0  0  0  0  # atno 6909 bound_to 6896
  145.5756  140.9458  143.1372 H   0  0  0  0  0  0  0  0  0  0  0  0  # atno 7974 bound_to 7965
  155.0023  140.0394  157.2365 H   0  0  0  0  0  0  0  0  0  0  0  0  # atno 8008 bound_to 7997
  154.7533  140.2771  155.6251 H   0  0  0  0  0  0  0  0  0  0  0  0  # atno 8009 bound_to 7997
  156.2889  140.2642  156.2292 H   0  0  0  0  0  0  0  0  0  0  0  0  # atno 8010 bound_to 7997
  140.7236  143.5095  150.9768 H   0  0  0  0  0  0  0  0  0  0  0  0  # atno 10167 bound_to 10162
  156.7704  130.5298  149.5768 H   0  0  0  0  0  0  0  0  0  0  0  0  # atno 10718 bound_to 10713
  154.4830  135.2775  155.1555 H   0  0  0  0  0  0  0  0  0  0  0  0  # atno 10763 bound_to 10752
  154.3258  135.6200  153.5532 H   0  0  0  0  0  0  0  0  0  0  0  0  # atno 10764 bound_to 10752
  152.9878  135.5753  154.5235 H   0  0  0  0  0  0  0  0  0  0  0  0  # atno 10765 bound_to 10752
  141.0722  133.6676  156.3493 H   0  0  0  0  0  0  0  0  0  0  0  0  # atno 11005 bound_to 11000
  144.7417  139.7430  143.7308 LP  0  0  0  0  0  0  0  0  0  0  0  0  # atno 17320 bound_to 7965
  146.1753  139.4921  142.9901 LP  0  0  0  0  0  0  0  0  0  0  0  0  # atno 17321 bound_to 7965
  139.8808  143.7074  152.3157 LP  0  0  0  0  0  0  0  0  0  0  0  0  # atno 17342 bound_to 10162
  139.7356  144.7572  151.0733 LP  0  0  0  0  0  0  0  0  0  0  0  0  # atno 17343 bound_to 10162
  156.1282  130.6159  151.0294 LP  0  0  0  0  0  0  0  0  0  0  0  0  # atno 17370 bound_to 10713
  157.6694  131.0865  150.7650 LP  0  0  0  0  0  0  0  0  0  0  0  0  # atno 17371 bound_to 10713
  140.5650  134.5897  157.5443 LP  0  0  0  0  0  0  0  0  0  0  0  0  # atno 17394 bound_to 11000
  139.9535  134.7576  156.0395 LP  0  0  0  0  0  0  0  0  0  0  0  0  # atno 17395 bound_to 11000

$$$$
