AV-unprocessed.smi:72|AV-procd|sdf|696|dock4
  -GOLD-   2262017 13D 1   1.00000     0.00000
 Structure written by MMmdl.
 30 31  0  0  0  0  0  0  0  0  2 V2000
  148.3105  131.2888  153.3816 N   0  0  0  0  0  0  0  0  0  0  0  0
  148.9329  132.2459  154.1556 C   0  0  0  0  0  0  0  0  0  0  0  0
  148.9483  133.5459  153.6825 N   0  3  0  0  0  0  0  0  0  0  0  0
  149.5125  134.5873  154.3092 C   0  0  0  0  0  0  0  0  0  0  0  0
  150.1087  134.3905  155.4674 N   0  0  0  0  0  0  0  0  0  0  0  0
  150.7478  135.5248  156.2305 C   0  0  1  0  0  0  0  0  0  0  0  0
  151.3902  136.3641  155.3171 O   0  0  0  0  0  0  0  0  0  0  0  0
  150.6925  137.6025  155.2058 C   0  0  2  0  0  0  0  0  0  0  0  0
  151.6618  138.7037  154.7507 C   0  0  0  0  0  0  0  0  0  0  0  0
  151.0106  139.9558  154.7771 O   0  0  0  0  0  0  0  0  0  0  0  0
  150.1667  137.7918  156.6277 C   0  0  1  0  0  0  0  0  0  0  0  0
  149.1299  138.7510  156.7192 O   0  0  0  0  0  0  0  0  0  0  0  0
  149.7196  136.3830  157.0012 C   0  0  1  0  0  0  0  0  0  0  0  0
  148.3754  136.1332  156.6146 O   0  0  0  0  0  0  0  0  0  0  0  0
  150.1320  133.0933  156.0403 C   0  0  0  0  0  0  0  0  0  0  0  0
  150.6644  132.9046  157.1337 O   0  0  0  0  0  0  0  0  0  0  0  0
  149.5205  132.0665  155.3063 N   0  0  0  0  0  0  0  0  0  0  0  0
  151.5125  135.0767  156.8671 H   0  0  0  0  0  0  0  0  0  0  0  0
  149.8523  137.5058  154.5158 H   0  0  0  0  0  0  0  0  0  0  0  0
  150.9869  138.0943  157.2811 H   0  0  0  0  0  0  0  0  0  0  0  0
  149.8147  136.2004  158.0722 H   0  0  0  0  0  0  0  0  0  0  0  0
  148.2505  130.3162  153.6484 H   0  0  0  0  0  0  0  0  0  0  0  0
  147.8629  131.4816  152.4971 H   0  0  0  0  0  0  0  0  0  0  0  0
  149.4664  135.5670  153.8536 H   0  0  0  0  0  0  0  0  0  0  0  0
  152.5117  138.7619  155.4313 H   0  0  0  0  0  0  0  0  0  0  0  0
  152.0568  138.5004  153.7550 H   0  0  0  0  0  0  0  0  0  0  0  0
  150.0854  139.8105  154.9049 H   0  0  0  0  0  0  0  0  0  0  0  0
  148.3152  138.3383  156.4759 H   0  0  0  0  0  0  0  0  0  0  0  0
  147.9617  136.9606  156.4188 H   0  0  0  0  0  0  0  0  0  0  0  0
  148.4973  133.7211  152.7960 H   0  0  0  0  0  0  0  0  0  0  0  0
  1  2  1  0  0  0  0
  1 22  1  0  0  0  0
  1 23  1  0  0  0  0
  2 17  2  0  0  0  0
  2  3  1  0  0  0  0
  3  4  2  0  0  0  0
  3 30  1  0  0  0  0
  4  5  1  0  0  0  0
  4 24  1  0  0  0  0
  5  6  1  0  0  0  0
  5 15  1  0  0  0  0
  6 18  1  0  0  0  0
  6 13  1  0  0  0  0
  6  7  1  0  0  0  0
  7  8  1  0  0  0  0
  8 19  1  0  0  0  0
  8  9  1  0  0  0  0
  8 11  1  0  0  0  0
  9 10  1  0  0  0  0
  9 25  1  0  0  0  0
  9 26  1  0  0  0  0
 10 27  1  0  0  0  0
 11 20  1  0  0  0  0
 11 12  1  0  0  0  0
 11 13  1  0  0  0  0
 12 28  1  0  0  0  0
 13 21  1  0  0  0  0
 13 14  1  0  0  0  0
 14 29  1  0  0  0  0
 15 16  2  0  0  0  0
 15 17  1  0  0  0  0
M  CHG  1   3   1
M  END
> <s_m_source_file>
AV-unprocessed.smi

> <i_m_source_file_index>
72

> <i_lp_mmshare_version>
43012

> <i_f3d_flags>
0

> <s_epik_input>
W05IMl1jMW5bY0hdbihjKD1PKW4xKVtDQEBIXTJPW0NASF0oW0NIMl1bT0hdKVtDQEBIXShbT0hdKVtDQEhdMltPSF0=

> <s_epik_cmdline>
J2VwaWtfcHl0aG9uJywgJy1waCcsICc3LjAnLCAnLXRuJywgJzgnLCAnLW1hJywgJzIwMCcsICctbWV0YWxfYmluZGluZycsICctaW1hZScsICc8aW5maWxlLm1hZT4nLCAnLW9tYWUnLCAnPG91dGZpbGUubWFlPic=

> <r_lp_tautomer_probability>
4.77166e-05

> <r_epik_Ionization_Penalty>
0.104979

> <r_epik_Ionization_Penalty_Charging>
0.0999619

> <r_epik_Ionization_Penalty_Neutral>
0.00501745

> <r_epik_State_Penalty>
2.51541

> <r_epik_Charging_Adjusted_Penalty>
2.61537

> <i_epik_Tot_Q>
1

> <i_epik_Tot_abs_Q>
1

> <r_epik_Metal_State_Penalty>
3.53763

> <b_epik_Metal_Only>
0

> <s_epik_Chemistry_Notes>
This compound contains an acetal/aminal-like group ( X-CH(R)-Y where X, Y are N, S, or O) that may be acid/base labile, releasing an aldehyde.

> <s_lp_Force_Field>
OPLS_2005

> <r_lp_Energy>
36.6563

> <b_lp_Chiralities_Consistent>
1

> <s_lp_Variant>
AV-unprocessed.smi:72-34

> <Gold.Version>
5.8.1

> <Gold.Id.Protein>
6NUR|6NUR_protein|mol2

> <Gold.PLP.Fitness>
31.8199

> <Gold.PLP.PLP>
-19.9079

> <Gold.PLP.part.hbond>
-4.0792

> <Gold.PLP.part.metal>
0.0000

> <Gold.PLP.part.buried>
-3.3879

> <Gold.PLP.part.nonpolar>
-12.7533

> <Gold.PLP.part.repulsive>
0.1121

> <Gold.PLP.ligand.clash>
0.0123

> <Gold.PLP.ligand.torsion>
0.5861

> <Gold.PLP.Chemscore.Hbond>
3.6878

> <Gold.PLP.Chemscore.CHOScore>
0.6387

> <Gold.PLP.Chemscore.Metal>
0.0000

> <Gold.Chemscore.Hbonds>
donor molecule, donor type, donor heavy atom, donor atom, acceptor molecule, acceptor atom, score
      P1  H  6896  6908       L1    16  0.60
      P1  H  7989  7998       L1    10  1.00
      P1  H 10752 10765       L1     7  1.00
      L1  C     4    24       P1  7948  1.00

> <Gold.PLP.Chemscore.Internal.Correction>
0.1170

> <Gold.Rescore>
     Score         DG    S(hbond)    S(metal)    S(lipo)     H(rot)  DE(clash)    DE(int)     intcor
      7.95      -8.95       3.53        0.00      18.18       4.08       0.26       0.74       ----

> <Gold.Chemscore.Fitness>
7.9513

> <Gold.Chemscore.DG>
-8.9492

> <Gold.Chemscore.ZeroCoef>
-5.4800

> <Gold.Chemscore.Hbond>
3.5278

> <Gold.Chemscore.Metal>
0.0000

> <Gold.Chemscore.Lipo>
18.1773

> <Gold.Chemscore.Internal_Hbond>
0.0000

> <Gold.Chemscore.DEClash>
0.2584

> <Gold.Chemscore.DEInternal>
0.7395

> <Gold.Chemscore.Rot>
4.0783

> <Gold.Chemscore.Internal.Correction>
   9.000000E+99

> <Gold.Chemscore.Hbonds>
donor molecule, donor type, donor heavy atom, donor atom, acceptor molecule, acceptor atom, score
      P1  H  6896  6908       L1    16  0.59
      P1  H  7989  7998       L1    10  0.60
      P1  H 10752 10765       L1     7  0.78

> <Gold.Chemscore.Hbond.Weighted>
-11.7829

> <Gold.Chemscore.Metal.Weighted>
-0.0000

> <Gold.Chemscore.Lipo.Weighted>
-2.1267

> <Gold.Chemscore.Internal_Hbond.Weighted>
0.0000

> <Gold.Chemscore.DEClash.Weighted>
0.2584

> <Gold.Chemscore.DEInternal.Weighted>
0.7395

> <Gold.Chemscore.Rot.Weighted>
10.4404

> <Gold.Chemscore.Internal.Correction.Weighted>
   9.000000E+99

> <Gold.Protein.RotatedTorsions>
[ 6907 6896 6895 6894 ] final   94.56 input  -60.11 | X-H torsion
[ 7974 7965 7964 7962 ] final   80.27 input  175.53 | X-H torsion
[ 8008 7997 7996 7995 ] final  -92.64 input   59.86 | X-H torsion
[ 10167 10162 10161 10158 ] final  -45.71 input  -65.29 | X-H torsion
[ 10718 10713 10712 10709 ] final  104.58 input   66.30 | X-H torsion
[ 10763 10752 10751 10750 ] final -174.27 input  -60.55 | X-H torsion
[ 11005 11000 10999 10996 ] final -167.89 input  -57.11 | X-H torsion

> <Gold.Protein.ActiveResidues>
 VAL166  LYS551  ARG553  GLY616  TRP617  ASP618  TYR619  PRO620  LYS621  CYS622 
 ASP623  PHE694  ASN695  SER759  ASP760  ASP761  ALA762  ILE779  LEU786  VAL792 
 PHE793  MET794  SER795  GLU796  ALA797  LYS798  CYS799  TRP800  GLU811  SER814 

> <Gold.Protein.RotatedAtoms>
  152.5449  134.1175  159.8384 H   0  0  0  0  0  0  0  0  0  0  0  0  # atno 6907 bound_to 6896
  151.1235  133.5080  159.2608 H   0  0  0  0  0  0  0  0  0  0  0  0  # atno 6908 bound_to 6896
  151.1753  135.0346  159.8824 H   0  0  0  0  0  0  0  0  0  0  0  0  # atno 6909 bound_to 6896
  145.6533  139.2453  143.1964 H   0  0  0  0  0  0  0  0  0  0  0  0  # atno 7974 bound_to 7965
  154.7257  140.0507  157.0680 H   0  0  0  0  0  0  0  0  0  0  0  0  # atno 8008 bound_to 7997
  155.0368  140.3164  155.4719 H   0  0  0  0  0  0  0  0  0  0  0  0  # atno 8009 bound_to 7997
  156.2828  140.2140  156.5491 H   0  0  0  0  0  0  0  0  0  0  0  0  # atno 8010 bound_to 7997
  140.6847  143.2866  151.3678 H   0  0  0  0  0  0  0  0  0  0  0  0  # atno 10167 bound_to 10162
  157.6735  131.0807  150.5728 H   0  0  0  0  0  0  0  0  0  0  0  0  # atno 10718 bound_to 10713
  154.5982  135.2852  155.0563 H   0  0  0  0  0  0  0  0  0  0  0  0  # atno 10763 bound_to 10752
  154.1838  135.6452  153.5045 H   0  0  0  0  0  0  0  0  0  0  0  0  # atno 10764 bound_to 10752
  153.0147  135.5430  154.6692 H   0  0  0  0  0  0  0  0  0  0  0  0  # atno 10765 bound_to 10752
  140.5481  134.5455  157.5116 H   0  0  0  0  0  0  0  0  0  0  0  0  # atno 11005 bound_to 11000
  146.1185  140.7339  142.9469 LP  0  0  0  0  0  0  0  0  0  0  0  0  # atno 17320 bound_to 7965
  144.7115  140.4054  143.7077 LP  0  0  0  0  0  0  0  0  0  0  0  0  # atno 17321 bound_to 7965
  139.6196  144.0934  152.2378 LP  0  0  0  0  0  0  0  0  0  0  0  0  # atno 17342 bound_to 10162
  140.0374  144.6034  150.7439 LP  0  0  0  0  0  0  0  0  0  0  0  0  # atno 17343 bound_to 10162
  156.6029  130.4359  149.5890 LP  0  0  0  0  0  0  0  0  0  0  0  0  # atno 17370 bound_to 10713
  156.2492  130.6897  151.1628 LP  0  0  0  0  0  0  0  0  0  0  0  0  # atno 17371 bound_to 10713
  139.9469  134.7686  156.0540 LP  0  0  0  0  0  0  0  0  0  0  0  0  # atno 17394 bound_to 11000
  141.1188  133.6619  156.3161 LP  0  0  0  0  0  0  0  0  0  0  0  0  # atno 17395 bound_to 11000

$$$$
