AV-unprocessed.smi:713|AV-procd|sdf|3475|dock3
  -GOLD-   22720 0463D 1   1.00000     0.00000
 Structure written by MMmdl.
 41 42  0  0  0  0  0  0  0  0  1 V2000
  153.5863  141.7831  161.7100 C   0  0  0  0  0  0  0  0  0  0  0  0
  153.7122  142.1785  160.2245 C   0  0  1  0  0  0  0  0  0  0  0  0
  153.5223  140.9902  159.2651 C   0  0  0  0  0  0  0  0  0  0  0  0
  154.4063  140.1441  159.1237 O   0  0  0  0  0  0  0  0  0  0  0  0
  152.3548  140.9429  158.6022 N   0  0  0  0  0  0  0  0  0  0  0  0
  151.9612  139.9037  157.6566 C   0  0  2  0  0  0  0  0  0  0  0  0
  151.5798  140.5572  156.3152 C   0  0  0  0  0  0  0  0  0  0  0  0
  151.0560  139.5266  155.3027 C   0  0  0  0  0  0  0  0  0  0  0  0
  149.8671  138.7379  155.8758 C   0  0  0  0  0  0  0  0  0  0  0  0
  150.1977  138.0572  157.2189 C   0  0  1  0  0  0  0  0  0  0  0  0
  151.2728  136.5573  156.9715 S   0  0  0  0  0  0  0  0  0  0  0  0
  152.7943  136.9894  157.9129 C   0  0  0  0  0  0  0  0  0  0  0  0
  150.6250  135.4225  157.6465 O   0  0  0  0  0  0  0  0  0  0  0  0
  151.6458  136.4301  155.5552 O   0  0  0  0  0  0  0  0  0  0  0  0
  150.7825  139.0776  158.2210 C   0  0  0  0  0  0  0  0  0  0  0  0
  152.8113  143.2729  159.8775 N   0  0  0  0  0  0  0  0  0  0  0  0
  151.9171  143.9293  160.6991 C   0  0  0  0  0  0  0  0  0  0  0  0
  151.3137  144.9023  159.9552 C   0  0  0  0  0  0  0  0  0  0  0  0
  151.9167  144.7710  158.6738 C   0  0  0  0  0  0  0  0  0  0  0  0
  152.8163  143.8021  158.6316 N   0  0  0  0  0  0  0  0  0  0  0  0
  154.3170  141.0194  161.9783 H   0  0  0  0  0  0  0  0  0  0  0  0
  152.5960  141.3912  161.9456 H   0  0  0  0  0  0  0  0  0  0  0  0
  153.7629  142.6430  162.3566 H   0  0  0  0  0  0  0  0  0  0  0  0
  154.7302  142.5411  160.0734 H   0  0  0  0  0  0  0  0  0  0  0  0
  151.6840  141.6773  158.7747 H   0  0  0  0  0  0  0  0  0  0  0  0
  152.8240  139.2599  157.4916 H   0  0  0  0  0  0  0  0  0  0  0  0
  150.8123  141.3151  156.4798 H   0  0  0  0  0  0  0  0  0  0  0  0
  152.4413  141.0779  155.8954 H   0  0  0  0  0  0  0  0  0  0  0  0
  150.7508  140.0349  154.3878 H   0  0  0  0  0  0  0  0  0  0  0  0
  151.8580  138.8475  155.0158 H   0  0  0  0  0  0  0  0  0  0  0  0
  149.0302  139.4219  156.0223 H   0  0  0  0  0  0  0  0  0  0  0  0
  149.5259  137.9978  155.1515 H   0  0  0  0  0  0  0  0  0  0  0  0
  149.2663  137.6727  157.6353 H   0  0  0  0  0  0  0  0  0  0  0  0
  153.4485  136.1188  157.9543 H   0  0  0  0  0  0  0  0  0  0  0  0
  152.5271  137.2877  158.9262 H   0  0  0  0  0  0  0  0  0  0  0  0
  153.3227  137.8026  157.4166 H   0  0  0  0  0  0  0  0  0  0  0  0
  151.0735  138.5782  159.1437 H   0  0  0  0  0  0  0  0  0  0  0  0
  149.9850  139.7659  158.5051 H   0  0  0  0  0  0  0  0  0  0  0  0
  151.7863  143.6525  161.7349 H   0  0  0  0  0  0  0  0  0  0  0  0
  150.5585  145.6035  160.2782 H   0  0  0  0  0  0  0  0  0  0  0  0
  151.7318  145.3493  157.7806 H   0  0  0  0  0  0  0  0  0  0  0  0
  1  2  1  0  0  0  0
  1 21  1  0  0  0  0
  1 22  1  0  0  0  0
  1 23  1  0  0  0  0
  2  3  1  0  0  0  0
  2 16  1  0  0  0  0
  2 24  1  0  0  0  0
  3  4  2  0  0  0  0
  3  5  1  0  0  0  0
  5  6  1  0  0  0  0
  5 25  1  0  0  0  0
  6 15  1  0  0  0  0
  6  7  1  0  0  0  0
  6 26  1  0  0  0  0
  7  8  1  0  0  0  0
  7 27  1  0  0  0  0
  7 28  1  0  0  0  0
  8  9  1  0  0  0  0
  8 29  1  0  0  0  0
  8 30  1  0  0  0  0
  9 10  1  0  0  0  0
  9 31  1  0  0  0  0
  9 32  1  0  0  0  0
 10 11  1  0  0  0  0
 10 15  1  0  0  0  0
 10 33  1  0  0  0  0
 11 12  1  0  0  0  0
 11 13  2  0  0  0  0
 11 14  2  0  0  0  0
 12 34  1  0  0  0  0
 12 35  1  0  0  0  0
 12 36  1  0  0  0  0
 15 37  1  0  0  0  0
 15 38  1  0  0  0  0
 16 20  1  0  0  0  0
 16 17  1  0  0  0  0
 17 18  2  0  0  0  0
 17 39  1  0  0  0  0
 18 19  1  0  0  0  0
 18 40  1  0  0  0  0
 19 20  2  0  0  0  0
 19 41  1  0  0  0  0
M  END
> <s_m_source_file>
AV-unprocessed.smi

> <i_m_source_file_index>
713

> <i_lp_mmshare_version>
43012

> <i_f3d_flags>
0

> <s_epik_input>
bjFbY0hdW2NIXVtjSF1uMVtDQEhdKFtDSDNdKUMoPU8pW05IXVtDQEBIXTJbQ0gyXVtDSDJdW0NIMl1bQ0BIXShbQ0gyXTIpUyg9TykoPU8pW0NIM10=

> <s_epik_cmdline>
J2VwaWtfcHl0aG9uJywgJy1waCcsICc3LjAnLCAnLXRuJywgJzgnLCAnLW1hJywgJzIwMCcsICctbWV0YWxfYmluZGluZycsICctaW1hZScsICc8aW5maWxlLm1hZT4nLCAnLW9tYWUnLCAnPG91dGZpbGUubWFlPic=

> <r_lp_tautomer_probability>
1

> <r_epik_Ionization_Penalty>
4.07816e-05

> <r_epik_Ionization_Penalty_Charging>
0

> <r_epik_Ionization_Penalty_Neutral>
4.07816e-05

> <r_epik_State_Penalty>
-0

> <r_epik_Charging_Adjusted_Penalty>
0

> <i_epik_Tot_Q>
0

> <i_epik_Tot_abs_Q>
0

> <r_epik_Metal_State_Penalty>
-0

> <b_epik_Metal_Only>
0

> <s_lp_Force_Field>
OPLS_2005

> <r_lp_Energy>
4.9413

> <b_lp_Chiralities_Consistent>
1

> <s_lp_Variant>
AV-unprocessed.smi:713-2

> <Gold.Version>
5.8.1

> <Gold.Id.Protein>
6NUR|6NUR_protein|mol2

> <Gold.PLP.Fitness>
47.3845

> <Gold.PLP.PLP>
-40.6088

> <Gold.PLP.part.hbond>
-3.0000

> <Gold.PLP.part.metal>
0.0000

> <Gold.PLP.part.buried>
-6.0009

> <Gold.PLP.part.nonpolar>
-31.6781

> <Gold.PLP.part.repulsive>
0.1723

> <Gold.PLP.ligand.clash>
0.0000

> <Gold.PLP.ligand.torsion>
0.6767

> <Gold.PLP.Chemscore.Hbond>
2.6136

> <Gold.PLP.Chemscore.CHOScore>
0.0000

> <Gold.PLP.Chemscore.Metal>
0.0000

> <Gold.Chemscore.Hbonds>
donor molecule, donor type, donor heavy atom, donor atom, acceptor molecule, acceptor atom, score
      P1  H  6896  6908       L1    13  0.47
      P1  H  7997  8009       L1     4  0.96
      P1  H 10752 10763       L1    14  1.00

> <Gold.PLP.Chemscore.Internal.Correction>
0.2883

> <Gold.Rescore>
     Score         DG    S(hbond)    S(metal)    S(lipo)     H(rot)  DE(clash)    DE(int)     intcor
     18.90     -19.77       2.51        0.00      88.34       1.72       0.00       0.87       ----

> <Gold.Chemscore.Fitness>
18.8974

> <Gold.Chemscore.DG>
-19.7717

> <Gold.Chemscore.ZeroCoef>
-5.4800

> <Gold.Chemscore.Hbond>
2.5064

> <Gold.Chemscore.Metal>
0.0000

> <Gold.Chemscore.Lipo>
88.3436

> <Gold.Chemscore.Internal_Hbond>
0.0000

> <Gold.Chemscore.DEClash>
0.0004

> <Gold.Chemscore.DEInternal>
0.8739

> <Gold.Chemscore.Rot>
1.7249

> <Gold.Chemscore.Internal.Correction>
   9.000000E+99

> <Gold.Chemscore.Hbonds>
donor molecule, donor type, donor heavy atom, donor atom, acceptor molecule, acceptor atom, score
      P1  H  6896  6908       L1    13  0.45
      P1  H  7997  8009       L1     4  0.76
      P1  H 10752 10763       L1    14  0.97

> <Gold.Chemscore.Hbond.Weighted>
-8.3712

> <Gold.Chemscore.Metal.Weighted>
-0.0000

> <Gold.Chemscore.Lipo.Weighted>
-10.3362

> <Gold.Chemscore.Internal_Hbond.Weighted>
0.0000

> <Gold.Chemscore.DEClash.Weighted>
0.0004

> <Gold.Chemscore.DEInternal.Weighted>
0.8739

> <Gold.Chemscore.Rot.Weighted>
4.4157

> <Gold.Chemscore.Internal.Correction.Weighted>
   9.000000E+99

> <Gold.Protein.RotatedTorsions>
[ 6907 6896 6895 6894 ] final  165.73 input  -60.11 | X-H torsion
[ 7974 7965 7964 7962 ] final  149.81 input  175.53 | X-H torsion
[ 8008 7997 7996 7995 ] final  126.62 input   59.86 | X-H torsion
[ 10167 10162 10161 10158 ] final -177.39 input  -65.29 | X-H torsion
[ 10718 10713 10712 10709 ] final   58.90 input   66.30 | X-H torsion
[ 10763 10752 10751 10750 ] final   88.47 input  -60.55 | X-H torsion
[ 11005 11000 10999 10996 ] final  132.79 input  -57.11 | X-H torsion

> <Gold.Protein.ActiveResidues>
 VAL166  LYS551  ARG553  GLY616  TRP617  ASP618  TYR619  PRO620  LYS621  CYS622 
 ASP623  PHE694  ASN695  SER759  ASP760  ASP761  ALA762  ILE779  LEU786  VAL792 
 PHE793  MET794  SER795  GLU796  ALA797  LYS798  CYS799  TRP800  GLU811  SER814 

> <Gold.Protein.RotatedAtoms>
  151.8899  133.3514  159.3794 H   0  0  0  0  0  0  0  0  0  0  0  0  # atno 6907 bound_to 6896
  150.7106  134.4934  159.5536 H   0  0  0  0  0  0  0  0  0  0  0  0  # atno 6908 bound_to 6896
  152.2502  134.8140  160.0498 H   0  0  0  0  0  0  0  0  0  0  0  0  # atno 6909 bound_to 6896
  144.8410  139.6328  143.6016 H   0  0  0  0  0  0  0  0  0  0  0  0  # atno 7974 bound_to 7965
  156.2869  140.2688  156.2141 H   0  0  0  0  0  0  0  0  0  0  0  0  # atno 8008 bound_to 7997
  155.0235  140.0386  157.2464 H   0  0  0  0  0  0  0  0  0  0  0  0  # atno 8009 bound_to 7997
  154.7416  140.2726  155.6374 H   0  0  0  0  0  0  0  0  0  0  0  0  # atno 8010 bound_to 7997
  139.5483  144.2177  152.1029 H   0  0  0  0  0  0  0  0  0  0  0  0  # atno 10167 bound_to 10162
  157.5633  130.8852  149.9147 H   0  0  0  0  0  0  0  0  0  0  0  0  # atno 10718 bound_to 10713
  153.1772  135.4505  154.9981 H   0  0  0  0  0  0  0  0  0  0  0  0  # atno 10763 bound_to 10752
  154.8006  135.3254  154.7562 H   0  0  0  0  0  0  0  0  0  0  0  0  # atno 10764 bound_to 10752
  153.8030  135.6961  153.4907 H   0  0  0  0  0  0  0  0  0  0  0  0  # atno 10765 bound_to 10752
  139.9812  134.9547  156.9632 H   0  0  0  0  0  0  0  0  0  0  0  0  # atno 11005 bound_to 11000
  146.2703  139.6618  142.9301 LP  0  0  0  0  0  0  0  0  0  0  0  0  # atno 17320 bound_to 7965
  145.4693  141.0435  143.2707 LP  0  0  0  0  0  0  0  0  0  0  0  0  # atno 17321 bound_to 7965
  140.1668  144.4974  150.6602 LP  0  0  0  0  0  0  0  0  0  0  0  0  # atno 17342 bound_to 10162
  140.6738  143.2296  151.5559 LP  0  0  0  0  0  0  0  0  0  0  0  0  # atno 17343 bound_to 10162
  156.0684  130.3689  150.0829 LP  0  0  0  0  0  0  0  0  0  0  0  0  # atno 17370 bound_to 10713
  156.8990  130.9614  151.3579 LP  0  0  0  0  0  0  0  0  0  0  0  0  # atno 17371 bound_to 10713
  140.5094  134.1018  155.7267 LP  0  0  0  0  0  0  0  0  0  0  0  0  # atno 17394 bound_to 11000
  141.1483  133.9015  157.2160 LP  0  0  0  0  0  0  0  0  0  0  0  0  # atno 17395 bound_to 11000

$$$$
