AV-unprocessed.smi:2526|AV-procd|sdf|9939|dock1
  -GOLD-   2272013583D 1   1.00000     0.00000
 Structure written by MMmdl.
 28 29  0  0  0  0  0  0  0  0  1 V2000
  141.8538  135.0783  153.3942 C   0  0  0  0  0  0  0  0  0  0  0  0
  143.0644  135.1332  152.6032 N   0  0  0  0  0  0  0  0  0  0  0  0
  144.0012  134.1450  152.3943 C   0  0  0  0  0  0  0  0  0  0  0  0
  144.9683  134.6560  151.5715 C   0  0  0  0  0  0  0  0  0  0  0  0
  146.2205  133.9973  151.0245 C   0  0  1  0  0  0  0  0  0  0  0  0
  147.2197  133.8272  152.0831 N   0  0  0  0  0  0  0  0  0  0  0  0
  147.4633  132.7038  152.7847 C   0  0  0  0  0  0  0  0  0  0  0  0
  148.2440  132.6992  153.7334 O   0  0  0  0  0  0  0  0  0  0  0  0
  146.7893  131.3881  152.3580 C   0  0  0  0  0  0  0  0  0  0  0  0
  145.6168  131.5653  151.3768 C   0  0  0  0  0  0  0  0  0  0  0  0
  145.9396  132.6409  150.3320 C   0  0  1  0  0  0  0  0  0  0  0  0
  144.8857  132.7304  149.3373 N   0  0  0  0  0  0  0  0  0  0  0  0
  144.5198  135.9887  151.3385 C   0  0  0  0  0  0  0  0  0  0  0  0
  143.3838  136.2707  151.9548 N   0  0  0  0  0  0  0  0  0  0  0  0
  141.7345  134.0845  153.8267 H   0  0  0  0  0  0  0  0  0  0  0  0
  140.9909  135.2959  152.7643 H   0  0  0  0  0  0  0  0  0  0  0  0
  141.9052  135.8117  154.1995 H   0  0  0  0  0  0  0  0  0  0  0  0
  143.9017  133.1661  152.8400 H   0  0  0  0  0  0  0  0  0  0  0  0
  146.6754  134.6573  150.2851 H   0  0  0  0  0  0  0  0  0  0  0  0
  147.7152  134.6610  152.3643 H   0  0  0  0  0  0  0  0  0  0  0  0
  147.5577  130.7733  151.8883 H   0  0  0  0  0  0  0  0  0  0  0  0
  146.4569  130.8446  153.2427 H   0  0  0  0  0  0  0  0  0  0  0  0
  145.4104  130.6133  150.8866 H   0  0  0  0  0  0  0  0  0  0  0  0
  144.7115  131.8277  151.9262 H   0  0  0  0  0  0  0  0  0  0  0  0
  146.8423  132.3328  149.8024 H   0  0  0  0  0  0  0  0  0  0  0  0
  145.2535  133.1283  148.4850 H   0  0  0  0  0  0  0  0  0  0  0  0
  144.5554  131.8043  149.1059 H   0  0  0  0  0  0  0  0  0  0  0  0
  144.9861  136.7558  150.7382 H   0  0  0  0  0  0  0  0  0  0  0  0
  1  2  1  0  0  0  0
  1 15  1  0  0  0  0
  1 16  1  0  0  0  0
  1 17  1  0  0  0  0
  2 14  1  0  0  0  0
  2  3  1  0  0  0  0
  3  4  2  0  0  0  0
  3 18  1  0  0  0  0
  4  5  1  0  0  0  0
  4 13  1  0  0  0  0
  5 11  1  0  0  0  0
  5  6  1  0  0  0  0
  5 19  1  0  0  0  0
  6  7  1  0  0  0  0
  6 20  1  0  0  0  0
  7  8  2  0  0  0  0
  7  9  1  0  0  0  0
  9 10  1  0  0  0  0
  9 21  1  0  0  0  0
  9 22  1  0  0  0  0
 10 11  1  0  0  0  0
 10 23  1  0  0  0  0
 10 24  1  0  0  0  0
 11 12  1  0  0  0  0
 11 25  1  0  0  0  0
 12 26  1  0  0  0  0
 12 27  1  0  0  0  0
 13 14  2  0  0  0  0
 13 28  1  0  0  0  0
M  END
> <s_m_source_file>
AV-unprocessed.smi

> <i_m_source_file_index>
2526

> <i_lp_mmshare_version>
43012

> <i_f3d_flags>
0

> <s_epik_input>
W0NIM11uMVtjSF1jKFtjSF1uMSlbQ0BASF0yW05IXUMoPU8pW0NIMl1bQ0gyXVtDQEhdMltOSDJd

> <s_epik_cmdline>
J2VwaWtfcHl0aG9uJywgJy1waCcsICc3LjAnLCAnLXRuJywgJzgnLCAnLW1hJywgJzIwMCcsICctbWV0YWxfYmluZGluZycsICctaW1hZScsICc8aW5maWxlLm1hZT4nLCAnLW9tYWUnLCAnPG91dGZpbGUubWFlPic=

> <r_lp_tautomer_probability>
1

> <r_epik_Ionization_Penalty>
2.50279

> <r_epik_Ionization_Penalty_Charging>
0

> <r_epik_Ionization_Penalty_Neutral>
2.50279

> <r_epik_State_Penalty>
2.66754

> <r_epik_Charging_Adjusted_Penalty>
2.66754

> <i_epik_Tot_Q>
0

> <i_epik_Tot_abs_Q>
0

> <r_epik_Metal_State_Penalty>
2.66721

> <b_epik_Metal_Only>
0

> <s_lp_Force_Field>
OPLS_2005

> <r_lp_Energy>
9.07018

> <b_lp_Chiralities_Consistent>
1

> <s_lp_Variant>
AV-unprocessed.smi:2526-6

> <Gold.Version>
5.8.1

> <Gold.Id.Protein>
6NUR|6NUR_protein|mol2

> <Gold.PLP.Fitness>
33.7037

> <Gold.PLP.PLP>
-23.4700

> <Gold.PLP.part.hbond>
-2.0000

> <Gold.PLP.part.metal>
0.0000

> <Gold.PLP.part.buried>
-2.3602

> <Gold.PLP.part.nonpolar>
-19.4113

> <Gold.PLP.part.repulsive>
0.3590

> <Gold.PLP.ligand.clash>
0.0000

> <Gold.PLP.ligand.torsion>
0.1925

> <Gold.PLP.Chemscore.Hbond>
1.9040

> <Gold.PLP.Chemscore.CHOScore>
1.6296

> <Gold.PLP.Chemscore.Metal>
0.0000

> <Gold.Chemscore.Hbonds>
donor molecule, donor type, donor heavy atom, donor atom, acceptor molecule, acceptor atom, score
      L1  H     6    20       P1  7948  0.94
      L1  H    12    26       P1  7921  0.82
      L1  C     3    18       P1 10957  0.61
      L1  C    13    28       P1 10171  0.90

> <Gold.PLP.Chemscore.Internal.Correction>
0.0179

> <Gold.Rescore>
     Score         DG    S(hbond)    S(metal)    S(lipo)     H(rot)  DE(clash)    DE(int)     intcor
     12.86     -13.06       1.24        0.00      51.28       1.00       0.06       0.14       ----

> <Gold.Chemscore.Fitness>
12.8593

> <Gold.Chemscore.DG>
-13.0567

> <Gold.Chemscore.ZeroCoef>
-5.4800

> <Gold.Chemscore.Hbond>
1.2385

> <Gold.Chemscore.Metal>
0.0000

> <Gold.Chemscore.Lipo>
51.2825

> <Gold.Chemscore.Internal_Hbond>
0.0000

> <Gold.Chemscore.DEClash>
0.0582

> <Gold.Chemscore.DEInternal>
0.1392

> <Gold.Chemscore.Rot>
1.0000

> <Gold.Chemscore.Internal.Correction>
   9.000000E+99

> <Gold.Chemscore.Hbonds>
donor molecule, donor type, donor heavy atom, donor atom, acceptor molecule, acceptor atom, score
      L1  H     6    20       P1  7948  0.64
      L1  H    12    26       P1  7921  0.17

> <Gold.Chemscore.Hbond.Weighted>
-4.1366

> <Gold.Chemscore.Metal.Weighted>
-0.0000

> <Gold.Chemscore.Lipo.Weighted>
-6.0001

> <Gold.Chemscore.Internal_Hbond.Weighted>
0.0000

> <Gold.Chemscore.DEClash.Weighted>
0.0582

> <Gold.Chemscore.DEInternal.Weighted>
0.1392

> <Gold.Chemscore.Rot.Weighted>
2.5600

> <Gold.Chemscore.Internal.Correction.Weighted>
   9.000000E+99

> <Gold.Protein.RotatedTorsions>
[ 6907 6896 6895 6894 ] final -154.68 input  -60.11 | X-H torsion
[ 7974 7965 7964 7962 ] final -150.30 input  175.53 | X-H torsion
[ 8008 7997 7996 7995 ] final  112.61 input   59.86 | X-H torsion
[ 10167 10162 10161 10158 ] final   98.03 input  -65.29 | X-H torsion
[ 10718 10713 10712 10709 ] final -113.62 input   66.30 | X-H torsion
[ 10763 10752 10751 10750 ] final  -77.44 input  -60.55 | X-H torsion
[ 11005 11000 10999 10996 ] final  -46.58 input  -57.11 | X-H torsion

> <Gold.Protein.ActiveResidues>
 VAL166  LYS551  ARG553  GLY616  TRP617  ASP618  TYR619  PRO620  LYS621  CYS622 
 ASP623  PHE694  ASN695  SER759  ASP760  ASP761  ALA762  ILE779  LEU786  VAL792 
 PHE793  MET794  SER795  GLU796  ALA797  LYS798  CYS799  TRP800  GLU811  SER814 

> <Gold.Protein.RotatedAtoms>
  151.2610  133.4302  159.2615 H   0  0  0  0  0  0  0  0  0  0  0  0  # atno 6907 bound_to 6896
  151.0530  134.9686  159.8231 H   0  0  0  0  0  0  0  0  0  0  0  0  # atno 6908 bound_to 6896
  152.5386  134.2564  159.8971 H   0  0  0  0  0  0  0  0  0  0  0  0  # atno 6909 bound_to 6896
  144.7916  140.4950  143.5769 H   0  0  0  0  0  0  0  0  0  0  0  0  # atno 7974 bound_to 7965
  156.2203  140.2996  155.9937 H   0  0  0  0  0  0  0  0  0  0  0  0  # atno 8008 bound_to 7997
  155.2498  140.0425  157.3002 H   0  0  0  0  0  0  0  0  0  0  0  0  # atno 8009 bound_to 7997
  154.5831  140.2380  155.8034 H   0  0  0  0  0  0  0  0  0  0  0  0  # atno 8010 bound_to 7997
  139.7746  144.6910  151.0107 H   0  0  0  0  0  0  0  0  0  0  0  0  # atno 10167 bound_to 10162
  156.0778  130.5983  150.8667 H   0  0  0  0  0  0  0  0  0  0  0  0  # atno 10718 bound_to 10713
  154.5129  135.5764  153.6619 H   0  0  0  0  0  0  0  0  0  0  0  0  # atno 10763 bound_to 10752
  152.9901  135.6163  154.2855 H   0  0  0  0  0  0  0  0  0  0  0  0  # atno 10764 bound_to 10752
  154.2771  135.2852  155.2693 H   0  0  0  0  0  0  0  0  0  0  0  0  # atno 10765 bound_to 10752
  141.0588  133.6716  156.3175 H   0  0  0  0  0  0  0  0  0  0  0  0  # atno 11005 bound_to 11000
  145.5781  139.1487  143.3251 LP  0  0  0  0  0  0  0  0  0  0  0  0  # atno 17320 bound_to 7965
  146.2169  140.5911  142.9034 LP  0  0  0  0  0  0  0  0  0  0  0  0  # atno 17321 bound_to 7965
  140.7816  143.4550  151.0358 LP  0  0  0  0  0  0  0  0  0  0  0  0  # atno 17342 bound_to 10162
  139.8233  143.7791  152.3177 LP  0  0  0  0  0  0  0  0  0  0  0  0  # atno 17343 bound_to 10162
  157.5882  131.0945  150.9162 LP  0  0  0  0  0  0  0  0  0  0  0  0  # atno 17370 bound_to 10713
  156.9344  130.5361  149.5279 LP  0  0  0  0  0  0  0  0  0  0  0  0  # atno 17371 bound_to 10713
  140.5911  134.5649  157.5499 LP  0  0  0  0  0  0  0  0  0  0  0  0  # atno 17394 bound_to 11000
  139.9413  134.7781  156.0670 LP  0  0  0  0  0  0  0  0  0  0  0  0  # atno 17395 bound_to 11000

$$$$
