AV-unprocessed.smi:308|AV-procd|sdf|2289|dock7
  -GOLD-   2262022193D 1   1.00000     0.00000
 Structure written by MMmdl.
 50 51  0  0  0  0  0  0  0  0  4 V2000
  144.9365  133.6860  151.8223 C   0  0  0  0  0  0  0  0  0  0  0  0
  146.1342  133.4647  152.7570 C   0  0  2  0  0  0  0  0  0  0  0  0
  146.3604  134.6696  153.6861 C   0  0  0  0  0  0  0  0  0  0  0  0
  147.5812  134.4517  154.5949 C   0  0  0  0  0  0  0  0  0  0  0  0
  148.8030  134.1800  153.7903 N   0  3  1  0  0  0  0  0  0  0  0  0
  150.0524  134.1266  154.5965 C   0  0  0  0  0  0  0  0  0  0  0  0
  150.1552  135.3100  155.5823 C   0  0  0  0  0  0  0  0  0  0  0  0
  151.1137  136.3054  155.0932 N   0  5  0  0  0  0  0  0  0  0  0  0
  150.9965  137.6500  155.2632 C   0  0  0  0  0  0  0  0  0  0  0  0
  150.4514  138.4587  154.5042 O   0  0  0  0  0  0  0  0  0  0  0  0
  151.5732  138.0653  156.4052 N   0  0  0  0  0  0  0  0  0  0  0  0
  151.6743  139.3781  156.9407 C   0  0  0  0  0  0  0  0  0  0  0  0
  152.1470  139.5102  158.2622 C   0  0  0  0  0  0  0  0  0  0  0  0
  152.2497  140.7887  158.8468 C   0  0  0  0  0  0  0  0  0  0  0  0
  151.8681  141.9346  158.1067 C   0  0  0  0  0  0  0  0  0  0  0  0
  151.9422  143.2469  158.6217 N   0  0  0  0  0  0  0  0  0  0  0  0
  151.8110  144.3858  157.7200 C   0  0  0  0  0  0  0  0  0  0  0  0
  152.2783  143.4556  160.0240 C   0  0  0  0  0  0  0  0  0  0  0  0
  151.4045  141.7557  156.8454 N   0  3  0  0  0  0  0  0  0  0  0  0
  151.2910  140.5501  156.2471 C   0  0  0  0  0  0  0  0  0  0  0  0
  148.6280  132.9955  152.9115 C   0  0  0  0  0  0  0  0  0  0  0  0
  147.4253  133.1790  151.9705 C   0  0  0  0  0  0  0  0  0  0  0  0
  145.0966  134.5426  151.1666 H   0  0  0  0  0  0  0  0  0  0  0  0
  144.0235  133.8680  152.3904 H   0  0  0  0  0  0  0  0  0  0  0  0
  144.7635  132.8128  151.1927 H   0  0  0  0  0  0  0  0  0  0  0  0
  145.9142  132.5946  153.3774 H   0  0  0  0  0  0  0  0  0  0  0  0
  146.5064  135.5739  153.0935 H   0  0  0  0  0  0  0  0  0  0  0  0
  145.4743  134.8413  154.2982 H   0  0  0  0  0  0  0  0  0  0  0  0
  147.7301  135.3376  155.2131 H   0  0  0  0  0  0  0  0  0  0  0  0
  147.3991  133.6186  155.2756 H   0  0  0  0  0  0  0  0  0  0  0  0
  150.1122  133.1794  155.1343 H   0  0  0  0  0  0  0  0  0  0  0  0
  150.9261  134.1459  153.9431 H   0  0  0  0  0  0  0  0  0  0  0  0
  149.1655  135.7509  155.7018 H   0  0  0  0  0  0  0  0  0  0  0  0
  150.4226  134.9307  156.5690 H   0  0  0  0  0  0  0  0  0  0  0  0
  152.0635  137.3489  156.9206 H   0  0  0  0  0  0  0  0  0  0  0  0
  152.4365  138.6365  158.8278 H   0  0  0  0  0  0  0  0  0  0  0  0
  152.6207  140.8671  159.8575 H   0  0  0  0  0  0  0  0  0  0  0  0
  150.8461  144.3648  157.2128 H   0  0  0  0  0  0  0  0  0  0  0  0
  152.5999  144.3704  156.9676 H   0  0  0  0  0  0  0  0  0  0  0  0
  151.8818  145.3298  158.2605 H   0  0  0  0  0  0  0  0  0  0  0  0
  153.2617  143.0408  160.2483 H   0  0  0  0  0  0  0  0  0  0  0  0
  151.5416  142.9775  160.6701 H   0  0  0  0  0  0  0  0  0  0  0  0
  152.2978  144.5165  160.2736 H   0  0  0  0  0  0  0  0  0  0  0  0
  150.8872  140.5773  155.2462 H   0  0  0  0  0  0  0  0  0  0  0  0
  149.5281  132.8479  152.3126 H   0  0  0  0  0  0  0  0  0  0  0  0
  148.5004  132.1012  153.5234 H   0  0  0  0  0  0  0  0  0  0  0  0
  147.3006  132.2856  151.3577 H   0  0  0  0  0  0  0  0  0  0  0  0
  147.6283  134.0001  151.2813 H   0  0  0  0  0  0  0  0  0  0  0  0
  148.9297  134.9679  153.1698 H   0  0  0  0  0  0  0  0  0  0  0  0
  151.1214  142.5798  156.3152 H   0  0  0  0  0  0  0  0  0  0  0  0
  1  2  1  0  0  0  0
  1 23  1  0  0  0  0
  1 24  1  0  0  0  0
  1 25  1  0  0  0  0
  2 22  1  0  0  0  0
  2  3  1  0  0  0  0
  2 26  1  0  0  0  0
  3  4  1  0  0  0  0
  3 27  1  0  0  0  0
  3 28  1  0  0  0  0
  4  5  1  0  0  0  0
  4 29  1  0  0  0  0
  4 30  1  0  0  0  0
  5  6  1  0  0  0  0
  5 21  1  0  0  0  0
  5 49  1  0  0  0  0
  6  7  1  0  0  0  0
  6 31  1  0  0  0  0
  6 32  1  0  0  0  0
  7  8  1  0  0  0  0
  7 33  1  0  0  0  0
  7 34  1  0  0  0  0
  8  9  1  0  0  0  0
  9 10  2  0  0  0  0
  9 11  1  0  0  0  0
 11 12  1  0  0  0  0
 11 35  1  0  0  0  0
 12 20  1  0  0  0  0
 12 13  2  0  0  0  0
 13 14  1  0  0  0  0
 13 36  1  0  0  0  0
 14 15  2  0  0  0  0
 14 37  1  0  0  0  0
 15 16  1  0  0  0  0
 15 19  1  0  0  0  0
 16 17  1  0  0  0  0
 16 18  1  0  0  0  0
 17 38  1  0  0  0  0
 17 39  1  0  0  0  0
 17 40  1  0  0  0  0
 18 41  1  0  0  0  0
 18 42  1  0  0  0  0
 18 43  1  0  0  0  0
 19 20  2  0  0  0  0
 19 50  1  0  0  0  0
 20 44  1  0  0  0  0
 21 22  1  0  0  0  0
 21 45  1  0  0  0  0
 21 46  1  0  0  0  0
 22 47  1  0  0  0  0
 22 48  1  0  0  0  0
M  CHG  1   5   1
M  CHG  1   8  -1
M  CHG  1  19   1
M  END
> <s_m_source_file>
AV-unprocessed.smi

> <i_m_source_file_index>
308

> <i_lp_mmshare_version>
43012

> <i_f3d_flags>
0

> <s_epik_input>
W0NIM11bQ0hdMVtDSDJdW0NIMl1OKFtDSDJdW0NIMl0xKVtDSDJdW0NIMl1bTkhdQyg9TylbTkhdYzJbY0hdW2NIXWMoTihbQ0gzXSlbQ0gzXSluW2NIXTI=

> <s_epik_cmdline>
J2VwaWtfcHl0aG9uJywgJy1waCcsICc3LjAnLCAnLXRuJywgJzgnLCAnLW1hJywgJzIwMCcsICctbWV0YWxfYmluZGluZycsICctaW1hZScsICc8aW5maWxlLm1hZT4nLCAnLW9tYWUnLCAnPG91dGZpbGUubWFlPic=

> <r_lp_tautomer_probability>
0.999994

> <r_epik_Ionization_Penalty>
7.42107

> <r_epik_Ionization_Penalty_Charging>
7.42107

> <r_epik_Ionization_Penalty_Neutral>
3.68925e-06

> <r_epik_State_Penalty>
7.0982

> <r_epik_Charging_Adjusted_Penalty>
14.5193

> <i_epik_Tot_Q>
1

> <i_epik_Tot_abs_Q>
3

> <r_epik_Metal_State_Penalty>
3.28646

> <b_epik_Metal_Only>
1

> <s_lp_Force_Field>
OPLS_2005

> <r_lp_Energy>
19.707

> <b_lp_Chiralities_Consistent>
1

> <s_lp_Variant>
AV-unprocessed.smi:308-5

> <Gold.Version>
5.8.1

> <Gold.Id.Protein>
6NUR|6NUR_protein|mol2

> <Gold.PLP.Fitness>
47.4304

> <Gold.PLP.PLP>
-38.0223

> <Gold.PLP.part.hbond>
-1.9951

> <Gold.PLP.part.metal>
0.0000

> <Gold.PLP.part.buried>
-4.2329

> <Gold.PLP.part.nonpolar>
-31.6771

> <Gold.PLP.part.repulsive>
0.4869

> <Gold.PLP.ligand.clash>
0.0000

> <Gold.PLP.ligand.torsion>
1.3597

> <Gold.PLP.Chemscore.Hbond>
4.0000

> <Gold.PLP.Chemscore.CHOScore>
0.0000

> <Gold.PLP.Chemscore.Metal>
0.0000

> <Gold.Chemscore.Hbonds>
donor molecule, donor type, donor heavy atom, donor atom, acceptor molecule, acceptor atom, score
      L1  H     5    49       P1  7948  1.90
      P1  H 10752 10765       L1     8  2.00

> <Gold.PLP.Chemscore.Internal.Correction>
0.1275

> <Gold.Rescore>
     Score         DG    S(hbond)    S(metal)    S(lipo)     H(rot)  DE(clash)    DE(int)     intcor
     14.12     -16.82       1.62        0.00      81.74       1.42       0.01       2.70       ----

> <Gold.Chemscore.Fitness>
14.1169

> <Gold.Chemscore.DG>
-16.8224

> <Gold.Chemscore.ZeroCoef>
-5.4800

> <Gold.Chemscore.Hbond>
1.6241

> <Gold.Chemscore.Metal>
0.0000

> <Gold.Chemscore.Lipo>
81.7396

> <Gold.Chemscore.Internal_Hbond>
0.0000

> <Gold.Chemscore.DEClash>
0.0093

> <Gold.Chemscore.DEInternal>
2.6962

> <Gold.Chemscore.Rot>
1.4241

> <Gold.Chemscore.Internal.Correction>
   9.000000E+99

> <Gold.Chemscore.Hbonds>
donor molecule, donor type, donor heavy atom, donor atom, acceptor molecule, acceptor atom, score
      L1  H     5    49       P1  7948  0.22
      P1  H 10752 10765       L1     8  0.79

> <Gold.Chemscore.Hbond.Weighted>
-5.4245

> <Gold.Chemscore.Metal.Weighted>
-0.0000

> <Gold.Chemscore.Lipo.Weighted>
-9.5635

> <Gold.Chemscore.Internal_Hbond.Weighted>
0.0000

> <Gold.Chemscore.DEClash.Weighted>
0.0093

> <Gold.Chemscore.DEInternal.Weighted>
2.6962

> <Gold.Chemscore.Rot.Weighted>
3.6456

> <Gold.Chemscore.Internal.Correction.Weighted>
   9.000000E+99

> <Gold.Protein.RotatedTorsions>
[ 6907 6896 6895 6894 ] final  -96.85 input  -60.11 | X-H torsion
[ 7974 7965 7964 7962 ] final  179.11 input  175.53 | X-H torsion
[ 8008 7997 7996 7995 ] final   78.07 input   59.86 | X-H torsion
[ 10167 10162 10161 10158 ] final  129.54 input  -65.29 | X-H torsion
[ 10718 10713 10712 10709 ] final   43.65 input   66.30 | X-H torsion
[ 10763 10752 10751 10750 ] final -173.43 input  -60.55 | X-H torsion
[ 11005 11000 10999 10996 ] final  118.16 input  -57.11 | X-H torsion

> <Gold.Protein.ActiveResidues>
 VAL166  LYS551  ARG553  GLY616  TRP617  ASP618  TYR619  PRO620  LYS621  CYS622 
 ASP623  PHE694  ASN695  SER759  ASP760  ASP761  ALA762  ILE779  LEU786  VAL792 
 PHE793  MET794  SER795  GLU796  ALA797  LYS798  CYS799  TRP800  GLU811  SER814 

> <Gold.Protein.RotatedAtoms>
  150.7000  134.1439  159.4114 H   0  0  0  0  0  0  0  0  0  0  0  0  # atno 6907 bound_to 6896
  151.9423  135.0205  160.0546 H   0  0  0  0  0  0  0  0  0  0  0  0  # atno 6908 bound_to 6896
  152.2083  133.4857  159.5133 H   0  0  0  0  0  0  0  0  0  0  0  0  # atno 6909 bound_to 6896
  144.7149  140.0498  143.6435 H   0  0  0  0  0  0  0  0  0  0  0  0  # atno 7974 bound_to 7965
  155.8505  140.3458  155.5690 H   0  0  0  0  0  0  0  0  0  0  0  0  # atno 8008 bound_to 7997
  155.8043  140.0889  157.1959 H   0  0  0  0  0  0  0  0  0  0  0  0  # atno 8009 bound_to 7997
  154.4007  140.1459  156.3298 H   0  0  0  0  0  0  0  0  0  0  0  0  # atno 8010 bound_to 7997
  139.5473  144.6784  151.4434 H   0  0  0  0  0  0  0  0  0  0  0  0  # atno 10167 bound_to 10162
  157.4183  130.7954  149.7492 H   0  0  0  0  0  0  0  0  0  0  0  0  # atno 10718 bound_to 10713
  154.6080  135.2861  155.0463 H   0  0  0  0  0  0  0  0  0  0  0  0  # atno 10763 bound_to 10752
  154.1704  135.6473  153.5012 H   0  0  0  0  0  0  0  0  0  0  0  0  # atno 10764 bound_to 10752
  153.0183  135.5399  154.6823 H   0  0  0  0  0  0  0  0  0  0  0  0  # atno 10765 bound_to 10752
  139.9099  134.9617  156.7461 H   0  0  0  0  0  0  0  0  0  0  0  0  # atno 11005 bound_to 11000
  145.9953  139.3047  143.0960 LP  0  0  0  0  0  0  0  0  0  0  0  0  # atno 17320 bound_to 7965
  145.8856  140.9336  143.0579 LP  0  0  0  0  0  0  0  0  0  0  0  0  # atno 17321 bound_to 7965
  140.6725  143.8263  150.7016 LP  0  0  0  0  0  0  0  0  0  0  0  0  # atno 17342 bound_to 10162
  140.1691  143.4209  152.2013 LP  0  0  0  0  0  0  0  0  0  0  0  0  # atno 17343 bound_to 10162
  155.9872  130.3968  150.3176 LP  0  0  0  0  0  0  0  0  0  0  0  0  # atno 17370 bound_to 10713
  157.1321  131.0274  151.2965 LP  0  0  0  0  0  0  0  0  0  0  0  0  # atno 17371 bound_to 10713
  140.6811  133.9474  155.7911 LP  0  0  0  0  0  0  0  0  0  0  0  0  # atno 17394 bound_to 11000
  141.0509  134.0485  157.3784 LP  0  0  0  0  0  0  0  0  0  0  0  0  # atno 17395 bound_to 11000

$$$$
