AV-unprocessed.smi:3244|AV-procd|sdf|12398|dock2
  -GOLD-   2272018273D 1   1.00000     0.00000
 Structure written by MMmdl.
 41 42  0  0  0  0  0  0  0  0  2 V2000
  153.3788  141.8841  160.1663 C   0  0  0  0  0  0  0  0  0  0  0  0
  153.1096  142.9455  159.0869 C   0  0  0  0  0  0  0  0  0  0  0  0
  151.6736  143.0966  158.8073 N   0  0  0  0  0  0  0  0  0  0  0  0
  150.9803  142.2596  157.9941 C   0  0  0  0  0  0  0  0  0  0  0  0
  149.8358  142.5112  157.6124 O   0  0  0  0  0  0  0  0  0  0  0  0
  151.6312  140.9395  157.5470 C   0  0  0  0  0  0  0  0  0  0  0  0
  151.3652  140.6381  156.1235 N   0  3  0  0  0  0  0  0  0  0  0  0
  150.4761  139.4812  155.8703 C   0  0  2  0  0  0  0  0  0  0  0  0
  151.1916  138.1569  156.1849 C   0  0  0  0  0  0  0  0  0  0  0  0
  149.9786  139.5028  154.4115 C   0  0  0  0  0  0  0  0  0  0  0  0
  148.7232  140.2189  154.2668 N   0  0  0  0  0  0  0  0  0  0  0  0
  148.4570  141.5452  154.5341 C   0  0  0  0  0  0  0  0  0  0  0  0
  147.1419  141.7630  154.2381 C   0  0  0  0  0  0  0  0  0  0  0  0
  146.6802  140.4936  153.7908 C   0  0  0  0  0  0  0  0  0  0  0  0
  147.6297  139.5720  153.8075 N   0  0  0  0  0  0  0  0  0  0  0  0
  151.1312  144.3344  159.3049 C   0  0  0  0  0  0  0  0  0  0  0  0
  151.7906  145.6377  158.9051 C   0  0  0  0  0  0  0  0  0  0  0  0
  151.8800  145.1652  160.3332 C   0  0  0  0  0  0  0  0  0  0  0  0
  154.4486  141.7886  160.3526 H   0  0  0  0  0  0  0  0  0  0  0  0
  153.0124  140.9059  159.8535 H   0  0  0  0  0  0  0  0  0  0  0  0
  152.9009  142.1272  161.1142 H   0  0  0  0  0  0  0  0  0  0  0  0
  153.5589  143.8958  159.3749 H   0  0  0  0  0  0  0  0  0  0  0  0
  153.6364  142.6574  158.1764 H   0  0  0  0  0  0  0  0  0  0  0  0
  152.7072  140.9796  157.7046 H   0  0  0  0  0  0  0  0  0  0  0  0
  151.2312  140.1308  158.1598 H   0  0  0  0  0  0  0  0  0  0  0  0
  150.9162  141.4535  155.7291 H   0  0  0  0  0  0  0  0  0  0  0  0
  149.6042  139.5665  156.5208 H   0  0  0  0  0  0  0  0  0  0  0  0
  150.5422  137.3049  155.9821 H   0  0  0  0  0  0  0  0  0  0  0  0
  151.4836  138.0933  157.2329 H   0  0  0  0  0  0  0  0  0  0  0  0
  152.0908  138.0382  155.5795 H   0  0  0  0  0  0  0  0  0  0  0  0
  150.7232  139.9539  153.7534 H   0  0  0  0  0  0  0  0  0  0  0  0
  149.8248  138.4840  154.0526 H   0  0  0  0  0  0  0  0  0  0  0  0
  149.2163  142.2166  154.9076 H   0  0  0  0  0  0  0  0  0  0  0  0
  146.5921  142.6883  154.3287 H   0  0  0  0  0  0  0  0  0  0  0  0
  145.6911  140.2168  153.4561 H   0  0  0  0  0  0  0  0  0  0  0  0
  150.0464  144.3596  159.3892 H   0  0  0  0  0  0  0  0  0  0  0  0
  152.6988  145.5887  158.3073 H   0  0  0  0  0  0  0  0  0  0  0  0
  151.1406  146.4846  158.6951 H   0  0  0  0  0  0  0  0  0  0  0  0
  151.2875  145.6962  161.0754 H   0  0  0  0  0  0  0  0  0  0  0  0
  152.8582  144.8316  160.6739 H   0  0  0  0  0  0  0  0  0  0  0  0
  152.2415  140.5000  155.6409 H   0  0  0  0  0  0  0  0  0  0  0  0
  1  2  1  0  0  0  0
  1 19  1  0  0  0  0
  1 20  1  0  0  0  0
  1 21  1  0  0  0  0
  2  3  1  0  0  0  0
  2 22  1  0  0  0  0
  2 23  1  0  0  0  0
  3  4  1  0  0  0  0
  3 16  1  0  0  0  0
  4  5  2  0  0  0  0
  4  6  1  0  0  0  0
  6  7  1  0  0  0  0
  6 24  1  0  0  0  0
  6 25  1  0  0  0  0
  7  8  1  0  0  0  0
  7 26  1  0  0  0  0
  7 41  1  0  0  0  0
  8  9  1  0  0  0  0
  8 10  1  0  0  0  0
  8 27  1  0  0  0  0
  9 28  1  0  0  0  0
  9 29  1  0  0  0  0
  9 30  1  0  0  0  0
 10 11  1  0  0  0  0
 10 31  1  0  0  0  0
 10 32  1  0  0  0  0
 11 15  1  0  0  0  0
 11 12  1  0  0  0  0
 12 13  2  0  0  0  0
 12 33  1  0  0  0  0
 13 14  1  0  0  0  0
 13 34  1  0  0  0  0
 14 15  2  0  0  0  0
 14 35  1  0  0  0  0
 16 18  1  0  0  0  0
 16 17  1  0  0  0  0
 16 36  1  0  0  0  0
 17 18  1  0  0  0  0
 17 37  1  0  0  0  0
 17 38  1  0  0  0  0
 18 39  1  0  0  0  0
 18 40  1  0  0  0  0
M  CHG  1   7   1
M  END
> <s_m_source_file>
AV-unprocessed.smi

> <i_m_source_file_index>
3244

> <i_lp_mmshare_version>
43012

> <i_f3d_flags>
0

> <s_epik_input>
W0NIMl0xW0NIMl1bQ0hdMU4oW0NIMl1bQ0gzXSlDKD1PKVtDSDJdW05IXVtDQEhdKFtDSDNdKVtDSDJdbjJbY0hdW2NIXVtjSF1uMg==

> <s_epik_cmdline>
J2VwaWtfcHl0aG9uJywgJy1waCcsICc3LjAnLCAnLXRuJywgJzgnLCAnLW1hJywgJzIwMCcsICctbWV0YWxfYmluZGluZycsICctaW1hZScsICc8aW5maWxlLm1hZT4nLCAnLW9tYWUnLCAnPG91dGZpbGUubWFlPic=

> <r_lp_tautomer_probability>
1

> <r_epik_Ionization_Penalty>
0.115625

> <r_epik_Ionization_Penalty_Charging>
0.115622

> <r_epik_Ionization_Penalty_Neutral>
3.43793e-06

> <r_epik_State_Penalty>
0.105255

> <r_epik_Charging_Adjusted_Penalty>
0.220877

> <i_epik_Tot_Q>
1

> <i_epik_Tot_abs_Q>
1

> <r_epik_Metal_State_Penalty>
0.105264

> <b_epik_Metal_Only>
0

> <s_lp_Force_Field>
OPLS_2005

> <r_lp_Energy>
33.3923

> <b_lp_Chiralities_Consistent>
1

> <s_lp_Variant>
AV-unprocessed.smi:3244-1

> <Gold.Version>
5.8.1

> <Gold.Id.Protein>
6NUR|6NUR_protein|mol2

> <Gold.PLP.Fitness>
43.6991

> <Gold.PLP.PLP>
-40.9003

> <Gold.PLP.part.hbond>
0.0000

> <Gold.PLP.part.metal>
0.0000

> <Gold.PLP.part.buried>
-3.0585

> <Gold.PLP.part.nonpolar>
-38.6495

> <Gold.PLP.part.repulsive>
0.4978

> <Gold.PLP.ligand.clash>
0.0000

> <Gold.PLP.ligand.torsion>
1.5292

> <Gold.PLP.Chemscore.Hbond>
0.0000

> <Gold.PLP.Chemscore.CHOScore>
1.8068

> <Gold.PLP.Chemscore.Metal>
0.0000

> <Gold.Chemscore.Hbonds>
donor molecule, donor type, donor heavy atom, donor atom, acceptor molecule, acceptor atom, score
      L1  C    12    33       P1  8028  0.71
      L1  C    14    35       P1 10175  1.00

> <Gold.PLP.Chemscore.Internal.Correction>
0.4367

> <Gold.Rescore>
     Score         DG    S(hbond)    S(metal)    S(lipo)     H(rot)  DE(clash)    DE(int)     intcor
     10.50     -12.21       0.00        0.00     102.25       2.04       0.16       1.55       ----

> <Gold.Chemscore.Fitness>
10.5013

> <Gold.Chemscore.DG>
-12.2112

> <Gold.Chemscore.ZeroCoef>
-5.4800

> <Gold.Chemscore.Hbond>
0.0000

> <Gold.Chemscore.Metal>
0.0000

> <Gold.Chemscore.Lipo>
102.2543

> <Gold.Chemscore.Internal_Hbond>
0.0000

> <Gold.Chemscore.DEClash>
0.1596

> <Gold.Chemscore.DEInternal>
1.5503

> <Gold.Chemscore.Rot>
2.0440

> <Gold.Chemscore.Internal.Correction>
   9.000000E+99

> <Gold.Chemscore.Hbond.Weighted>
-0.0000

> <Gold.Chemscore.Metal.Weighted>
-0.0000

> <Gold.Chemscore.Lipo.Weighted>
-11.9638

> <Gold.Chemscore.Internal_Hbond.Weighted>
0.0000

> <Gold.Chemscore.DEClash.Weighted>
0.1596

> <Gold.Chemscore.DEInternal.Weighted>
1.5503

> <Gold.Chemscore.Rot.Weighted>
5.2325

> <Gold.Chemscore.Internal.Correction.Weighted>
   9.000000E+99

> <Gold.Protein.RotatedTorsions>
[ 6907 6896 6895 6894 ] final  -94.30 input  -60.11 | X-H torsion
[ 7974 7965 7964 7962 ] final  -72.53 input  175.53 | X-H torsion
[ 8008 7997 7996 7995 ] final  -30.20 input   59.86 | X-H torsion
[ 10167 10162 10161 10158 ] final -152.40 input  -65.29 | X-H torsion
[ 10718 10713 10712 10709 ] final  115.89 input   66.30 | X-H torsion
[ 10763 10752 10751 10750 ] final  -11.14 input  -60.55 | X-H torsion
[ 11005 11000 10999 10996 ] final  134.33 input  -57.11 | X-H torsion

> <Gold.Protein.ActiveResidues>
 VAL166  LYS551  ARG553  GLY616  TRP617  ASP618  TYR619  PRO620  LYS621  CYS622 
 ASP623  PHE694  ASN695  SER759  ASP760  ASP761  ALA762  ILE779  LEU786  VAL792 
 PHE793  MET794  SER795  GLU796  ALA797  LYS798  CYS799  TRP800  GLU811  SER814 

> <Gold.Protein.RotatedAtoms>
  150.6939  134.1833  159.4256 H   0  0  0  0  0  0  0  0  0  0  0  0  # atno 6907 bound_to 6896
  151.9807  135.0027  160.0566 H   0  0  0  0  0  0  0  0  0  0  0  0  # atno 6908 bound_to 6896
  152.1758  133.4639  159.4969 H   0  0  0  0  0  0  0  0  0  0  0  0  # atno 6909 bound_to 6896
  145.6640  140.9243  143.0919 H   0  0  0  0  0  0  0  0  0  0  0  0  # atno 7974 bound_to 7965
  154.4259  140.1797  156.1370 H   0  0  0  0  0  0  0  0  0  0  0  0  # atno 8008 bound_to 7997
  156.0022  140.3359  155.6832 H   0  0  0  0  0  0  0  0  0  0  0  0  # atno 8009 bound_to 7997
  155.6227  140.0661  157.2664 H   0  0  0  0  0  0  0  0  0  0  0  0  # atno 8010 bound_to 7997
  139.7184  143.8996  152.2494 H   0  0  0  0  0  0  0  0  0  0  0  0  # atno 10167 bound_to 10162
  157.6194  131.1018  150.7394 H   0  0  0  0  0  0  0  0  0  0  0  0  # atno 10718 bound_to 10713
  153.4795  135.7017  153.5946 H   0  0  0  0  0  0  0  0  0  0  0  0  # atno 10763 bound_to 10752
  153.4166  135.3835  155.2085 H   0  0  0  0  0  0  0  0  0  0  0  0  # atno 10764 bound_to 10752
  154.8722  135.3917  154.4242 H   0  0  0  0  0  0  0  0  0  0  0  0  # atno 10765 bound_to 10752
  139.9908  134.9516  156.9851 H   0  0  0  0  0  0  0  0  0  0  0  0  # atno 11005 bound_to 11000
  144.7079  139.8486  143.7424 LP  0  0  0  0  0  0  0  0  0  0  0  0  # atno 17320 bound_to 7965
  146.1101  139.4105  143.0293 LP  0  0  0  0  0  0  0  0  0  0  0  0  # atno 17321 bound_to 7965
  139.8885  144.6979  150.8797 LP  0  0  0  0  0  0  0  0  0  0  0  0  # atno 17342 bound_to 10162
  140.7748  143.3605  151.1837 LP  0  0  0  0  0  0  0  0  0  0  0  0  # atno 17343 bound_to 10162
  156.7754  130.4842  149.5410 LP  0  0  0  0  0  0  0  0  0  0  0  0  # atno 17370 bound_to 10713
  156.1332  130.6193  151.0364 LP  0  0  0  0  0  0  0  0  0  0  0  0  # atno 17371 bound_to 10713
  140.4913  134.1190  155.7233 LP  0  0  0  0  0  0  0  0  0  0  0  0  # atno 17394 bound_to 11000
  141.1564  133.8875  157.1966 LP  0  0  0  0  0  0  0  0  0  0  0  0  # atno 17395 bound_to 11000

$$$$
