AV-unprocessed.smi:498|AV-procd|sdf|2728|dock9
  -GOLD-   2262023173D 1   1.00000     0.00000
 Structure written by MMmdl.
 42 44  0  0  0  0  0  0  0  0  1 V2000
  147.0790  140.5128  153.1491 C   0  0  0  0  0  0  0  0  0  0  0  0
  147.9880  140.9771  154.2888 C   0  0  0  0  0  0  0  0  0  0  0  0
  148.9219  139.9503  154.5728 O   0  0  0  0  0  0  0  0  0  0  0  0
  150.0628  140.4223  155.2709 C   0  0  0  0  0  0  0  0  0  0  0  0
  149.6214  141.2266  156.5014 C   0  0  0  0  0  0  0  0  0  0  0  0
  150.4683  140.9737  157.6595 N   0  0  0  0  0  0  0  0  0  0  0  0
  150.7400  139.7932  158.2748 C   0  0  0  0  0  0  0  0  0  0  0  0
  150.1573  138.4817  157.8251 C   0  0  0  0  0  0  0  0  0  0  0  0
  149.4182  137.8946  158.9392 N   0  0  0  0  0  0  0  0  0  0  0  0
  149.2399  136.5833  159.1618 C   0  0  0  0  0  0  0  0  0  0  0  0
  149.7505  135.6988  158.4756 O   0  0  0  0  0  0  0  0  0  0  0  0
  148.3807  136.2398  160.3104 C   0  0  0  0  0  0  0  0  0  0  0  0
  147.8468  135.0456  160.7190 C   0  0  0  0  0  0  0  0  0  0  0  0
  147.1111  135.3135  161.9064 C   0  0  0  0  0  0  0  0  0  0  0  0
  147.2493  136.6513  162.1400 C   0  0  0  0  0  0  0  0  0  0  0  0
  148.0211  137.2287  161.1795 O   0  0  0  0  0  0  0  0  0  0  0  0
  151.5780  139.8647  159.3123 N   0  0  0  0  0  0  0  0  0  0  0  0
  151.8554  141.2142  159.3924 C   0  0  0  0  0  0  0  0  0  0  0  0
  152.6750  141.9308  160.2934 C   0  0  0  0  0  0  0  0  0  0  0  0
  152.8053  143.3305  160.1812 C   0  0  0  0  0  0  0  0  0  0  0  0
  152.1186  144.0318  159.1689 C   0  0  0  0  0  0  0  0  0  0  0  0
  151.2989  143.3358  158.2599 C   0  0  0  0  0  0  0  0  0  0  0  0
  151.1736  141.9380  158.3746 C   0  0  0  0  0  0  0  0  0  0  0  0
  146.3432  141.2781  152.9014 H   0  0  0  0  0  0  0  0  0  0  0  0
  146.5402  139.6054  153.4233 H   0  0  0  0  0  0  0  0  0  0  0  0
  147.6577  140.3009  152.2496 H   0  0  0  0  0  0  0  0  0  0  0  0
  148.5092  141.8906  153.9983 H   0  0  0  0  0  0  0  0  0  0  0  0
  147.3930  141.2010  155.1754 H   0  0  0  0  0  0  0  0  0  0  0  0
  150.6814  139.5824  155.5821 H   0  0  0  0  0  0  0  0  0  0  0  0
  150.6725  141.0450  154.6151 H   0  0  0  0  0  0  0  0  0  0  0  0
  149.6071  142.2948  156.2856 H   0  0  0  0  0  0  0  0  0  0  0  0
  148.5961  140.9614  156.7603 H   0  0  0  0  0  0  0  0  0  0  0  0
  149.5275  138.5953  156.9437 H   0  0  0  0  0  0  0  0  0  0  0  0
  150.9716  137.8116  157.5491 H   0  0  0  0  0  0  0  0  0  0  0  0
  148.9566  138.5421  159.5613 H   0  0  0  0  0  0  0  0  0  0  0  0
  147.9710  134.0926  160.2262 H   0  0  0  0  0  0  0  0  0  0  0  0
  146.5533  134.6160  162.5136 H   0  0  0  0  0  0  0  0  0  0  0  0
  146.8862  137.3217  162.9051 H   0  0  0  0  0  0  0  0  0  0  0  0
  153.2035  141.4030  161.0734 H   0  0  0  0  0  0  0  0  0  0  0  0
  153.4336  143.8684  160.8758 H   0  0  0  0  0  0  0  0  0  0  0  0
  152.2214  145.1043  159.0902 H   0  0  0  0  0  0  0  0  0  0  0  0
  150.7699  143.8717  157.4861 H   0  0  0  0  0  0  0  0  0  0  0  0
  1  2  1  0  0  0  0
  1 24  1  0  0  0  0
  1 25  1  0  0  0  0
  1 26  1  0  0  0  0
  2  3  1  0  0  0  0
  2 27  1  0  0  0  0
  2 28  1  0  0  0  0
  3  4  1  0  0  0  0
  4  5  1  0  0  0  0
  4 29  1  0  0  0  0
  4 30  1  0  0  0  0
  5  6  1  0  0  0  0
  5 31  1  0  0  0  0
  5 32  1  0  0  0  0
  6 23  1  0  0  0  0
  6  7  1  0  0  0  0
  7  8  1  0  0  0  0
  7 17  2  0  0  0  0
  8  9  1  0  0  0  0
  8 33  1  0  0  0  0
  8 34  1  0  0  0  0
  9 10  1  0  0  0  0
  9 35  1  0  0  0  0
 10 11  2  0  0  0  0
 10 12  1  0  0  0  0
 12 16  1  0  0  0  0
 12 13  2  0  0  0  0
 13 14  1  0  0  0  0
 13 36  1  0  0  0  0
 14 15  2  0  0  0  0
 14 37  1  0  0  0  0
 15 16  1  0  0  0  0
 15 38  1  0  0  0  0
 17 18  1  0  0  0  0
 18 23  2  0  0  0  0
 18 19  1  0  0  0  0
 19 20  2  0  0  0  0
 19 39  1  0  0  0  0
 20 21  1  0  0  0  0
 20 40  1  0  0  0  0
 21 22  2  0  0  0  0
 21 41  1  0  0  0  0
 22 23  1  0  0  0  0
 22 42  1  0  0  0  0
M  END
> <s_m_source_file>
AV-unprocessed.smi

> <i_m_source_file_index>
498

> <i_lp_mmshare_version>
43012

> <i_f3d_flags>
0

> <s_epik_input>
W0NIM11bQ0gyXU9bQ0gyXVtDSDJdbihjKGMxMilbY0hdW2NIXVtjSF1bY0hdMiljKG4xKVtDSDJdW05IXUMoPU8pYzNbY0hdW2NIXVtjSF1vMw==

> <s_epik_cmdline>
J2VwaWtfcHl0aG9uJywgJy1waCcsICc3LjAnLCAnLXRuJywgJzgnLCAnLW1hJywgJzIwMCcsICctbWV0YWxfYmluZGluZycsICctaW1hZScsICc8aW5maWxlLm1hZT4nLCAnLW9tYWUnLCAnPG91dGZpbGUubWFlPic=

> <r_epik_Ionization_Penalty>
0.0701438

> <r_epik_Ionization_Penalty_Charging>
0

> <r_epik_Ionization_Penalty_Neutral>
0.0701438

> <r_epik_State_Penalty>
0.061475

> <r_epik_Charging_Adjusted_Penalty>
0.061475

> <i_epik_Tot_Q>
0

> <i_epik_Tot_abs_Q>
0

> <r_epik_Metal_State_Penalty>
0.0666689

> <b_epik_Metal_Only>
0

> <s_lp_Force_Field>
OPLS_2005

> <r_lp_Energy>
6.14226

> <b_lp_Chiralities_Consistent>
1

> <s_lp_Variant>
AV-unprocessed.smi:498-1

> <Gold.Version>
5.8.1

> <Gold.Id.Protein>
6NUR|6NUR_protein|mol2

> <Gold.PLP.Fitness>
53.3952

> <Gold.PLP.PLP>
-46.8453

> <Gold.PLP.part.hbond>
-3.0000

> <Gold.PLP.part.metal>
0.0000

> <Gold.PLP.part.buried>
-5.0081

> <Gold.PLP.part.nonpolar>
-39.0880

> <Gold.PLP.part.repulsive>
0.3122

> <Gold.PLP.ligand.clash>
0.0000

> <Gold.PLP.ligand.torsion>
0.6340

> <Gold.PLP.Chemscore.Hbond>
2.5889

> <Gold.PLP.Chemscore.CHOScore>
0.0000

> <Gold.PLP.Chemscore.Metal>
0.0000

> <Gold.Chemscore.Hbonds>
donor molecule, donor type, donor heavy atom, donor atom, acceptor molecule, acceptor atom, score
      P1  H  6896  6907       L1    11  1.00
      P1  H  6931  6943       L1    16  1.00
      P1  H  6934  6947       L1    16  0.69

> <Gold.PLP.Chemscore.Internal.Correction>
0.0510

> <Gold.Rescore>
     Score         DG    S(hbond)    S(metal)    S(lipo)     H(rot)  DE(clash)    DE(int)     intcor
     19.12     -20.11       1.93        0.00     113.34       1.98       0.17       0.82       ----

> <Gold.Chemscore.Fitness>
19.1195

> <Gold.Chemscore.DG>
-20.1091

> <Gold.Chemscore.ZeroCoef>
-5.4800

> <Gold.Chemscore.Hbond>
1.9283

> <Gold.Chemscore.Metal>
0.0000

> <Gold.Chemscore.Lipo>
113.3375

> <Gold.Chemscore.Internal_Hbond>
0.0000

> <Gold.Chemscore.DEClash>
0.1704

> <Gold.Chemscore.DEInternal>
0.8192

> <Gold.Chemscore.Rot>
1.9813

> <Gold.Chemscore.Internal.Correction>
   9.000000E+99

> <Gold.Chemscore.Hbonds>
donor molecule, donor type, donor heavy atom, donor atom, acceptor molecule, acceptor atom, score
      P1  H  6896  6907       L1    11  0.65
      P1  H  6931  6943       L1    16  0.61
      P1  H  6934  6947       L1    16  0.30

> <Gold.Chemscore.Hbond.Weighted>
-6.4406

> <Gold.Chemscore.Metal.Weighted>
-0.0000

> <Gold.Chemscore.Lipo.Weighted>
-13.2605

> <Gold.Chemscore.Internal_Hbond.Weighted>
0.0000

> <Gold.Chemscore.DEClash.Weighted>
0.1704

> <Gold.Chemscore.DEInternal.Weighted>
0.8192

> <Gold.Chemscore.Rot.Weighted>
5.0720

> <Gold.Chemscore.Internal.Correction.Weighted>
   9.000000E+99

> <Gold.Protein.RotatedTorsions>
[ 6907 6896 6895 6894 ] final  -67.66 input  -60.11 | X-H torsion
[ 7974 7965 7964 7962 ] final  -74.96 input  175.53 | X-H torsion
[ 8008 7997 7996 7995 ] final  -77.73 input   59.86 | X-H torsion
[ 10167 10162 10161 10158 ] final -123.58 input  -65.29 | X-H torsion
[ 10718 10713 10712 10709 ] final  121.68 input   66.30 | X-H torsion
[ 10763 10752 10751 10750 ] final  135.61 input  -60.55 | X-H torsion
[ 11005 11000 10999 10996 ] final  127.68 input  -57.11 | X-H torsion

> <Gold.Protein.ActiveResidues>
 VAL166  LYS551  ARG553  GLY616  TRP617  ASP618  TYR619  PRO620  LYS621  CYS622 
 ASP623  PHE694  ASN695  SER759  ASP760  ASP761  ALA762  ILE779  LEU786  VAL792 
 PHE793  MET794  SER795  GLU796  ALA797  LYS798  CYS799  TRP800  GLU811  SER814 

> <Gold.Protein.RotatedAtoms>
  150.7397  134.5849  159.5957 H   0  0  0  0  0  0  0  0  0  0  0  0  # atno 6907 bound_to 6896
  152.3253  134.7326  160.0312 H   0  0  0  0  0  0  0  0  0  0  0  0  # atno 6908 bound_to 6896
  151.7828  133.3315  159.3513 H   0  0  0  0  0  0  0  0  0  0  0  0  # atno 6909 bound_to 6896
  145.6323  140.9334  143.1080 H   0  0  0  0  0  0  0  0  0  0  0  0  # atno 7974 bound_to 7965
  154.5623  140.0706  156.8838 H   0  0  0  0  0  0  0  0  0  0  0  0  # atno 8008 bound_to 7997
  155.2788  140.3370  155.4241 H   0  0  0  0  0  0  0  0  0  0  0  0  # atno 8009 bound_to 7997
  156.2052  140.1737  156.7800 H   0  0  0  0  0  0  0  0  0  0  0  0  # atno 8010 bound_to 7997
  140.0019  143.5531  152.2300 H   0  0  0  0  0  0  0  0  0  0  0  0  # atno 10167 bound_to 10162
  157.5799  131.1076  150.8206 H   0  0  0  0  0  0  0  0  0  0  0  0  # atno 10718 bound_to 10713
  153.8428  135.3089  155.3427 H   0  0  0  0  0  0  0  0  0  0  0  0  # atno 10763 bound_to 10752
  154.7925  135.4774  154.0088 H   0  0  0  0  0  0  0  0  0  0  0  0  # atno 10764 bound_to 10752
  153.1565  135.6853  153.8897 H   0  0  0  0  0  0  0  0  0  0  0  0  # atno 10765 bound_to 10752
  139.9520  134.9620  156.8891 H   0  0  0  0  0  0  0  0  0  0  0  0  # atno 11005 bound_to 11000
  144.7189  139.8099  143.7389 LP  0  0  0  0  0  0  0  0  0  0  0  0  # atno 17320 bound_to 7965
  146.1347  139.4390  143.0147 LP  0  0  0  0  0  0  0  0  0  0  0  0  # atno 17321 bound_to 7965
  139.6265  144.7638  151.2627 LP  0  0  0  0  0  0  0  0  0  0  0  0  # atno 17342 bound_to 10162
  140.7415  143.6554  150.8211 LP  0  0  0  0  0  0  0  0  0  0  0  0  # atno 17343 bound_to 10162
  156.8655  130.5128  149.5300 LP  0  0  0  0  0  0  0  0  0  0  0  0  # atno 17370 bound_to 10713
  156.0845  130.5847  150.9623 LP  0  0  0  0  0  0  0  0  0  0  0  0  # atno 17371 bound_to 10713
  140.5696  134.0456  155.7426 LP  0  0  0  0  0  0  0  0  0  0  0  0  # atno 17394 bound_to 11000
  141.1185  133.9500  157.2776 LP  0  0  0  0  0  0  0  0  0  0  0  0  # atno 17395 bound_to 11000

$$$$
