AV-unprocessed.smi:2733|AV-procd|sdf|10536|dock2
  -GOLD-   2272014583D 1   1.00000     0.00000
 Structure written by MMmdl.
 44 45  0  0  0  0  0  0  0  0  1 V2000
  143.9953  137.0851  152.9215 C   0  0  0  0  0  0  0  0  0  0  0  0
  145.1457  137.0808  152.2281 C   0  0  0  0  0  0  0  0  0  0  0  0
  145.6824  135.8207  151.5742 C   0  0  0  0  0  0  0  0  0  0  0  0
  145.9787  138.3410  152.0458 C   0  0  0  0  0  0  0  0  0  0  0  0
  147.3484  138.1758  152.5211 N   0  0  0  0  0  0  0  0  0  0  0  0
  147.8950  138.8610  153.5355 C   0  0  0  0  0  0  0  0  0  0  0  0
  147.2908  139.7220  154.1749 O   0  0  0  0  0  0  0  0  0  0  0  0
  149.1598  138.4672  153.7629 N   0  0  0  0  0  0  0  0  0  0  0  0
  150.0651  138.9333  154.7539 C   0  0  0  0  0  0  0  0  0  0  0  0
  151.4692  138.9895  154.5869 C   0  0  0  0  0  0  0  0  0  0  0  0
  152.2619  139.4601  155.6506 C   0  0  0  0  0  0  0  0  0  0  0  0
  151.6282  139.8611  156.8479 C   0  0  0  0  0  0  0  0  0  0  0  0
  152.4392  140.3559  158.0098 C   0  0  0  0  0  0  0  0  0  0  0  0
  153.3925  139.6763  158.3924 O   0  0  0  0  0  0  0  0  0  0  0  0
  152.0895  141.5347  158.5849 N   0  0  0  0  0  0  0  0  0  0  0  0
  150.8821  142.3215  158.2864 C   0  0  0  0  0  0  0  0  0  0  0  0
  151.2944  143.6802  157.6910 C   0  0  0  0  0  0  0  0  0  0  0  0
  152.2519  144.4266  158.6373 C   0  0  0  0  0  0  0  0  0  0  0  0
  153.4229  143.5300  159.0794 C   0  0  0  0  0  0  0  0  0  0  0  0
  152.9139  142.1796  159.6162 C   0  0  0  0  0  0  0  0  0  0  0  0
  150.2902  139.7816  157.0233 N   0  0  0  0  0  0  0  0  0  0  0  0
  149.5360  139.3288  155.9998 C   0  0  0  0  0  0  0  0  0  0  0  0
  143.4095  136.1857  153.0430 H   0  0  0  0  0  0  0  0  0  0  0  0
  143.6220  137.9889  153.3805 H   0  0  0  0  0  0  0  0  0  0  0  0
  145.8085  135.9760  150.5025 H   0  0  0  0  0  0  0  0  0  0  0  0
  145.0039  134.9791  151.7168 H   0  0  0  0  0  0  0  0  0  0  0  0
  146.6487  135.5477  151.9988 H   0  0  0  0  0  0  0  0  0  0  0  0
  146.0098  138.5885  150.9846 H   0  0  0  0  0  0  0  0  0  0  0  0
  145.5094  139.1887  152.5485 H   0  0  0  0  0  0  0  0  0  0  0  0
  147.9144  137.4848  152.0508 H   0  0  0  0  0  0  0  0  0  0  0  0
  149.4909  137.6938  153.2047 H   0  0  0  0  0  0  0  0  0  0  0  0
  151.9537  138.6692  153.6777 H   0  0  0  0  0  0  0  0  0  0  0  0
  153.3362  139.5053  155.5480 H   0  0  0  0  0  0  0  0  0  0  0  0
  150.1831  141.8164  157.6207 H   0  0  0  0  0  0  0  0  0  0  0  0
  150.3275  142.4794  159.2124 H   0  0  0  0  0  0  0  0  0  0  0  0
  151.7802  143.5282  156.7269 H   0  0  0  0  0  0  0  0  0  0  0  0
  150.4106  144.2892  157.4989 H   0  0  0  0  0  0  0  0  0  0  0  0
  152.6282  145.3305  158.1573 H   0  0  0  0  0  0  0  0  0  0  0  0
  151.6999  144.7525  159.5199 H   0  0  0  0  0  0  0  0  0  0  0  0
  154.0894  143.3564  158.2335 H   0  0  0  0  0  0  0  0  0  0  0  0
  154.0149  144.0382  159.8410 H   0  0  0  0  0  0  0  0  0  0  0  0
  152.3148  142.3323  160.5150 H   0  0  0  0  0  0  0  0  0  0  0  0
  153.7639  141.5695  159.9245 H   0  0  0  0  0  0  0  0  0  0  0  0
  148.4719  139.2867  156.1818 H   0  0  0  0  0  0  0  0  0  0  0  0
  1  2  2  0  0  0  0
  1 23  1  0  0  0  0
  1 24  1  0  0  0  0
  2  3  1  0  0  0  0
  2  4  1  0  0  0  0
  3 25  1  0  0  0  0
  3 26  1  0  0  0  0
  3 27  1  0  0  0  0
  4  5  1  0  0  0  0
  4 28  1  0  0  0  0
  4 29  1  0  0  0  0
  5  6  1  0  0  0  0
  5 30  1  0  0  0  0
  6  7  2  0  0  0  0
  6  8  1  0  0  0  0
  8  9  1  0  0  0  0
  8 31  1  0  0  0  0
  9 22  1  0  0  0  0
  9 10  2  0  0  0  0
 10 11  1  0  0  0  0
 10 32  1  0  0  0  0
 11 12  2  0  0  0  0
 11 33  1  0  0  0  0
 12 13  1  0  0  0  0
 12 21  1  0  0  0  0
 13 14  2  0  0  0  0
 13 15  1  0  0  0  0
 15 20  1  0  0  0  0
 15 16  1  0  0  0  0
 16 17  1  0  0  0  0
 16 34  1  0  0  0  0
 16 35  1  0  0  0  0
 17 18  1  0  0  0  0
 17 36  1  0  0  0  0
 17 37  1  0  0  0  0
 18 19  1  0  0  0  0
 18 38  1  0  0  0  0
 18 39  1  0  0  0  0
 19 20  1  0  0  0  0
 19 40  1  0  0  0  0
 19 41  1  0  0  0  0
 20 42  1  0  0  0  0
 20 43  1  0  0  0  0
 21 22  2  0  0  0  0
 22 44  1  0  0  0  0
M  END
> <s_m_source_file>
AV-unprocessed.smi

> <i_m_source_file_index>
2733

> <i_lp_mmshare_version>
43012

> <i_f3d_flags>
0

> <s_epik_input>
W0NIMl09QyhbQ0gzXSlbQ0gyXVtOSF1DKD1PKVtOSF1jMVtjSF1bY0hdYyhuW2NIXTEpQyg9TylOMltDSDJdW0NIMl1bQ0gyXVtDSDJdW0NIMl0y

> <s_epik_cmdline>
J2VwaWtfcHl0aG9uJywgJy1waCcsICc3LjAnLCAnLXRuJywgJzgnLCAnLW1hJywgJzIwMCcsICctbWV0YWxfYmluZGluZycsICctaW1hZScsICc8aW5maWxlLm1hZT4nLCAnLW9tYWUnLCAnPG91dGZpbGUubWFlPic=

> <r_lp_tautomer_probability>
1

> <r_epik_Ionization_Penalty>
4.66871e-05

> <r_epik_Ionization_Penalty_Charging>
0

> <r_epik_Ionization_Penalty_Neutral>
4.66871e-05

> <r_epik_State_Penalty>
-0

> <r_epik_Charging_Adjusted_Penalty>
0

> <i_epik_Tot_Q>
0

> <i_epik_Tot_abs_Q>
0

> <r_epik_Metal_State_Penalty>
-0

> <b_epik_Metal_Only>
0

> <s_lp_Force_Field>
OPLS_2005

> <r_lp_Energy>
34.8173

> <b_lp_Chiralities_Consistent>
1

> <s_lp_Variant>
AV-unprocessed.smi:2733-1

> <Gold.Version>
5.8.1

> <Gold.Id.Protein>
6NUR|6NUR_protein|mol2

> <Gold.PLP.Fitness>
49.3471

> <Gold.PLP.PLP>
-41.6788

> <Gold.PLP.part.hbond>
-4.4789

> <Gold.PLP.part.metal>
0.0000

> <Gold.PLP.part.buried>
1.3377

> <Gold.PLP.part.nonpolar>
-39.2728

> <Gold.PLP.part.repulsive>
0.2572

> <Gold.PLP.ligand.clash>
0.0000

> <Gold.PLP.ligand.torsion>
1.1838

> <Gold.PLP.Chemscore.Hbond>
2.9280

> <Gold.PLP.Chemscore.CHOScore>
0.0000

> <Gold.PLP.Chemscore.Metal>
0.0000

> <Gold.Chemscore.Hbonds>
donor molecule, donor type, donor heavy atom, donor atom, acceptor molecule, acceptor atom, score
      L1  H     5    30       P1  7948  1.00
      L1  H     8    31       P1  7948  0.93
      P1  H  7997  8008       L1    14  1.00

> <Gold.PLP.Chemscore.Internal.Correction>
1.2517

> <Gold.Rescore>
     Score         DG    S(hbond)    S(metal)    S(lipo)     H(rot)  DE(clash)    DE(int)     intcor
     20.48     -24.47       2.80        0.00     107.40       1.15       0.32       3.67       ----

> <Gold.Chemscore.Fitness>
20.4771

> <Gold.Chemscore.DG>
-24.4748

> <Gold.Chemscore.ZeroCoef>
-5.4800

> <Gold.Chemscore.Hbond>
2.8026

> <Gold.Chemscore.Metal>
0.0000

> <Gold.Chemscore.Lipo>
107.3987

> <Gold.Chemscore.Internal_Hbond>
0.0000

> <Gold.Chemscore.DEClash>
0.3229

> <Gold.Chemscore.DEInternal>
3.6747

> <Gold.Chemscore.Rot>
1.1452

> <Gold.Chemscore.Internal.Correction>
   9.000000E+99

> <Gold.Chemscore.Hbonds>
donor molecule, donor type, donor heavy atom, donor atom, acceptor molecule, acceptor atom, score
      L1  H     5    30       P1  7948  0.99
      L1  H     8    31       P1  7948  0.77
      P1  H  7997  8008       L1    14  0.26

> <Gold.Chemscore.Hbond.Weighted>
-9.3608

> <Gold.Chemscore.Metal.Weighted>
-0.0000

> <Gold.Chemscore.Lipo.Weighted>
-12.5657

> <Gold.Chemscore.Internal_Hbond.Weighted>
0.0000

> <Gold.Chemscore.DEClash.Weighted>
0.3229

> <Gold.Chemscore.DEInternal.Weighted>
3.6747

> <Gold.Chemscore.Rot.Weighted>
2.9317

> <Gold.Chemscore.Internal.Correction.Weighted>
   9.000000E+99

> <Gold.Protein.RotatedTorsions>
[ 6907 6896 6895 6894 ] final   84.11 input  -60.11 | X-H torsion
[ 7974 7965 7964 7962 ] final   23.89 input  175.53 | X-H torsion
[ 8008 7997 7996 7995 ] final  -86.44 input   59.86 | X-H torsion
[ 10167 10162 10161 10158 ] final  -34.10 input  -65.29 | X-H torsion
[ 10718 10713 10712 10709 ] final  -96.96 input   66.30 | X-H torsion
[ 10763 10752 10751 10750 ] final  -95.77 input  -60.55 | X-H torsion
[ 11005 11000 10999 10996 ] final  -94.12 input  -57.11 | X-H torsion

> <Gold.Protein.ActiveResidues>
 VAL166  LYS551  ARG553  GLY616  TRP617  ASP618  TYR619  PRO620  LYS621  CYS622 
 ASP623  PHE694  ASN695  SER759  ASP760  ASP761  ALA762  ILE779  LEU786  VAL792 
 PHE793  MET794  SER795  GLU796  ALA797  LYS798  CYS799  TRP800  GLU811  SER814 

> <Gold.Protein.RotatedAtoms>
  152.5344  134.2791  159.9000 H   0  0  0  0  0  0  0  0  0  0  0  0  # atno 6907 bound_to 6896
  151.2746  133.4232  159.2631 H   0  0  0  0  0  0  0  0  0  0  0  0  # atno 6908 bound_to 6896
  151.0337  134.9573  159.8181 H   0  0  0  0  0  0  0  0  0  0  0  0  # atno 6909 bound_to 6896
  146.1963  139.7682  142.8794 H   0  0  0  0  0  0  0  0  0  0  0  0  # atno 7974 bound_to 7965
  154.6519  140.0578  156.9965 H   0  0  0  0  0  0  0  0  0  0  0  0  # atno 8008 bound_to 7997
  155.1359  140.3261  155.4445 H   0  0  0  0  0  0  0  0  0  0  0  0  # atno 8009 bound_to 7997
  156.2580  140.1972  156.6476 H   0  0  0  0  0  0  0  0  0  0  0  0  # atno 8010 bound_to 7997
  140.7192  143.3572  151.2036 H   0  0  0  0  0  0  0  0  0  0  0  0  # atno 10167 bound_to 10162
  156.0073  130.5174  150.6304 H   0  0  0  0  0  0  0  0  0  0  0  0  # atno 10718 bound_to 10713
  154.7179  135.5108  153.8766 H   0  0  0  0  0  0  0  0  0  0  0  0  # atno 10763 bound_to 10752
  153.0836  135.6639  154.0002 H   0  0  0  0  0  0  0  0  0  0  0  0  # atno 10764 bound_to 10752
  153.9831  135.3027  155.3398 H   0  0  0  0  0  0  0  0  0  0  0  0  # atno 10765 bound_to 10752
  141.1479  133.7934  157.0254 H   0  0  0  0  0  0  0  0  0  0  0  0  # atno 11005 bound_to 11000
  145.3631  141.0329  143.3273 LP  0  0  0  0  0  0  0  0  0  0  0  0  # atno 17320 bound_to 7965
  144.8588  139.5208  143.6822 LP  0  0  0  0  0  0  0  0  0  0  0  0  # atno 17321 bound_to 7965
  139.7116  143.9368  152.2950 LP  0  0  0  0  0  0  0  0  0  0  0  0  # atno 17342 bound_to 10162
  139.9094  144.6865  150.8578 LP  0  0  0  0  0  0  0  0  0  0  0  0  # atno 17343 bound_to 10162
  157.4103  131.0822  151.1227 LP  0  0  0  0  0  0  0  0  0  0  0  0  # atno 17370 bound_to 10713
  157.1861  130.6331  149.5688 LP  0  0  0  0  0  0  0  0  0  0  0  0  # atno 17371 bound_to 10713
  140.0788  134.9660  157.1590 LP  0  0  0  0  0  0  0  0  0  0  0  0  # atno 17394 bound_to 11000
  140.3606  134.2498  155.7187 LP  0  0  0  0  0  0  0  0  0  0  0  0  # atno 17395 bound_to 11000

$$$$
