AV-unprocessed.smi:3243|AV-procd|sdf|12394|dock2
  -GOLD-   2272018263D 1   1.00000     0.00000
 Structure written by MMmdl.
 37 38  0  0  0  0  0  0  0  0  1 V2000
  153.4243  140.8067  160.4184 C   0  0  0  0  0  0  0  0  0  0  0  0
  153.2187  142.2949  160.7345 C   0  0  0  0  0  0  0  0  0  0  0  0
  153.0801  142.5788  162.2370 C   0  0  0  0  0  0  0  0  0  0  0  0
  152.0954  142.8888  159.9440 C   0  0  0  0  0  0  0  0  0  0  0  0
  151.1732  142.1631  159.3037 N   0  0  0  0  0  0  0  0  0  0  0  0
  150.2282  142.9521  158.6413 C   0  0  0  0  0  0  0  0  0  0  0  0
  149.1118  142.3038  157.8807 C   0  0  0  0  0  0  0  0  0  0  0  0
  149.6120  141.6003  156.6080 C   0  0  0  0  0  0  0  0  0  0  0  0
  148.5223  141.3250  155.6786 N   0  0  0  0  0  0  0  0  0  0  0  0
  148.6633  141.1510  154.3555 C   0  0  0  0  0  0  0  0  0  0  0  0
  149.7544  141.2003  153.7851 O   0  0  0  0  0  0  0  0  0  0  0  0
  147.3791  140.8926  153.6373 C   0  0  2  0  0  0  0  0  0  0  0  0
  146.4524  139.8418  154.2144 C   0  0  0  0  0  0  0  0  0  0  0  0
  147.2149  139.5527  152.9444 C   0  0  1  0  0  0  0  0  0  0  0  0
  146.5012  139.4620  151.6129 C   0  0  0  0  0  0  0  0  0  0  0  0
  150.4502  144.2986  158.7872 C   0  0  0  0  0  0  0  0  0  0  0  0
  151.8552  144.6234  159.7644 S   0  0  0  0  0  0  0  0  0  0  0  0
  153.6038  140.6533  159.3538 H   0  0  0  0  0  0  0  0  0  0  0  0
  152.5504  140.2173  160.6978 H   0  0  0  0  0  0  0  0  0  0  0  0
  154.2821  140.4055  160.9587 H   0  0  0  0  0  0  0  0  0  0  0  0
  154.1257  142.8056  160.4088 H   0  0  0  0  0  0  0  0  0  0  0  0
  153.0202  143.6505  162.4296 H   0  0  0  0  0  0  0  0  0  0  0  0
  153.9354  142.1911  162.7909 H   0  0  0  0  0  0  0  0  0  0  0  0
  152.1819  142.1158  162.6469 H   0  0  0  0  0  0  0  0  0  0  0  0
  148.6005  141.5847  158.5220 H   0  0  0  0  0  0  0  0  0  0  0  0
  148.3625  143.0502  157.6138 H   0  0  0  0  0  0  0  0  0  0  0  0
  150.3402  142.2304  156.0963 H   0  0  0  0  0  0  0  0  0  0  0  0
  150.1288  140.6732  156.8623 H   0  0  0  0  0  0  0  0  0  0  0  0
  147.5926  141.2686  156.0688 H   0  0  0  0  0  0  0  0  0  0  0  0
  146.9055  141.7529  153.1663 H   0  0  0  0  0  0  0  0  0  0  0  0
  146.7613  139.3123  155.1139 H   0  0  0  0  0  0  0  0  0  0  0  0
  145.3841  140.0351  154.1416 H   0  0  0  0  0  0  0  0  0  0  0  0
  148.0366  138.8443  153.0372 H   0  0  0  0  0  0  0  0  0  0  0  0
  145.6790  140.1764  151.5640 H   0  0  0  0  0  0  0  0  0  0  0  0
  146.0986  138.4590  151.4719 H   0  0  0  0  0  0  0  0  0  0  0  0
  147.1963  139.6759  150.8013 H   0  0  0  0  0  0  0  0  0  0  0  0
  149.8722  145.1164  158.3826 H   0  0  0  0  0  0  0  0  0  0  0  0
  1  2  1  0  0  0  0
  1 18  1  0  0  0  0
  1 19  1  0  0  0  0
  1 20  1  0  0  0  0
  2  3  1  0  0  0  0
  2  4  1  0  0  0  0
  2 21  1  0  0  0  0
  3 22  1  0  0  0  0
  3 23  1  0  0  0  0
  3 24  1  0  0  0  0
  4 17  1  0  0  0  0
  4  5  2  0  0  0  0
  5  6  1  0  0  0  0
  6  7  1  0  0  0  0
  6 16  2  0  0  0  0
  7  8  1  0  0  0  0
  7 25  1  0  0  0  0
  7 26  1  0  0  0  0
  8  9  1  0  0  0  0
  8 27  1  0  0  0  0
  8 28  1  0  0  0  0
  9 10  1  0  0  0  0
  9 29  1  0  0  0  0
 10 11  2  0  0  0  0
 10 12  1  0  0  0  0
 12 14  1  0  0  0  0
 12 13  1  0  0  0  0
 12 30  1  0  0  0  0
 13 14  1  0  0  0  0
 13 31  1  0  0  0  0
 13 32  1  0  0  0  0
 14 15  1  0  0  0  0
 14 33  1  0  0  0  0
 15 34  1  0  0  0  0
 15 35  1  0  0  0  0
 15 36  1  0  0  0  0
 16 17  1  0  0  0  0
 16 37  1  0  0  0  0
M  END
> <s_m_source_file>
AV-unprocessed.smi

> <i_m_source_file_index>
3243

> <i_lp_mmshare_version>
43012

> <i_f3d_flags>
0

> <s_epik_input>
W0NIM11bQ0hdKFtDSDNdKWMxbmMoW2NIXXMxKVtDSDJdW0NIMl1bTkhdQyg9TylbQ0BASF0yW0NIMl1bQ0BIXTJbQ0gzXQ==

> <s_epik_cmdline>
J2VwaWtfcHl0aG9uJywgJy1waCcsICc3LjAnLCAnLXRuJywgJzgnLCAnLW1hJywgJzIwMCcsICctbWV0YWxfYmluZGluZycsICctaW1hZScsICc8aW5maWxlLm1hZT4nLCAnLW9tYWUnLCAnPG91dGZpbGUubWFlPic=

> <r_epik_Ionization_Penalty>
0.00084212

> <r_epik_Ionization_Penalty_Charging>
0

> <r_epik_Ionization_Penalty_Neutral>
0.00084212

> <r_epik_State_Penalty>
0.000542609

> <r_epik_Charging_Adjusted_Penalty>
0.000542609

> <i_epik_Tot_Q>
0

> <i_epik_Tot_abs_Q>
0

> <r_epik_Metal_State_Penalty>
-0

> <b_epik_Metal_Only>
0

> <s_lp_Force_Field>
OPLS_2005

> <r_lp_Energy>
-2.76955

> <b_lp_Chiralities_Consistent>
1

> <s_lp_Variant>
AV-unprocessed.smi:3243-1

> <Gold.Version>
5.8.1

> <Gold.Id.Protein>
6NUR|6NUR_protein|mol2

> <Gold.PLP.Fitness>
44.0625

> <Gold.PLP.PLP>
-38.3544

> <Gold.PLP.part.hbond>
-2.1143

> <Gold.PLP.part.metal>
0.0000

> <Gold.PLP.part.buried>
-1.8659

> <Gold.PLP.part.nonpolar>
-36.4882

> <Gold.PLP.part.repulsive>
2.1552

> <Gold.PLP.ligand.clash>
0.0000

> <Gold.PLP.ligand.torsion>
0.7148

> <Gold.PLP.Chemscore.Hbond>
1.2800

> <Gold.PLP.Chemscore.CHOScore>
1.0402

> <Gold.PLP.Chemscore.Metal>
0.0000

> <Gold.Chemscore.Hbonds>
donor molecule, donor type, donor heavy atom, donor atom, acceptor molecule, acceptor atom, score
      P1  H  7989  7998       L1    11  0.27
      P1  H  8011  8017       L1    11  0.85
      L1  C    16    37       P1  8028  0.01
      L1  C    16    37       P1  8029  1.00

> <Gold.PLP.Chemscore.Internal.Correction>
0.1771

> <Gold.Rescore>
     Score         DG    S(hbond)    S(metal)    S(lipo)     H(rot)  DE(clash)    DE(int)     intcor
     15.97     -17.70       1.11        0.00     105.38       1.49       0.45       1.28       ----

> <Gold.Chemscore.Fitness>
15.9739

> <Gold.Chemscore.DG>
-17.7011

> <Gold.Chemscore.ZeroCoef>
-5.4800

> <Gold.Chemscore.Hbond>
1.1073

> <Gold.Chemscore.Metal>
0.0000

> <Gold.Chemscore.Lipo>
105.3790

> <Gold.Chemscore.Internal_Hbond>
0.0000

> <Gold.Chemscore.DEClash>
0.4508

> <Gold.Chemscore.DEInternal>
1.2764

> <Gold.Chemscore.Rot>
1.4870

> <Gold.Chemscore.Internal.Correction>
   9.000000E+99

> <Gold.Chemscore.Hbonds>
donor molecule, donor type, donor heavy atom, donor atom, acceptor molecule, acceptor atom, score
      P1  H  7989  7998       L1    11  0.28
      P1  H  8011  8017       L1    11  0.73

> <Gold.Chemscore.Hbond.Weighted>
-3.6984

> <Gold.Chemscore.Metal.Weighted>
-0.0000

> <Gold.Chemscore.Lipo.Weighted>
-12.3293

> <Gold.Chemscore.Internal_Hbond.Weighted>
0.0000

> <Gold.Chemscore.DEClash.Weighted>
0.4508

> <Gold.Chemscore.DEInternal.Weighted>
1.2764

> <Gold.Chemscore.Rot.Weighted>
3.8067

> <Gold.Chemscore.Internal.Correction.Weighted>
   9.000000E+99

> <Gold.Protein.RotatedTorsions>
[ 6907 6896 6895 6894 ] final -161.01 input  -60.11 | X-H torsion
[ 7974 7965 7964 7962 ] final -146.81 input  175.53 | X-H torsion
[ 8008 7997 7996 7995 ] final   13.36 input   59.86 | X-H torsion
[ 10167 10162 10161 10158 ] final   85.87 input  -65.29 | X-H torsion
[ 10718 10713 10712 10709 ] final  158.48 input   66.30 | X-H torsion
[ 10763 10752 10751 10750 ] final  -64.36 input  -60.55 | X-H torsion
[ 11005 11000 10999 10996 ] final   70.50 input  -57.11 | X-H torsion

> <Gold.Protein.ActiveResidues>
 VAL166  LYS551  ARG553  GLY616  TRP617  ASP618  TYR619  PRO620  LYS621  CYS622 
 ASP623  PHE694  ASN695  SER759  ASP760  ASP761  ALA762  ILE779  LEU786  VAL792 
 PHE793  MET794  SER795  GLU796  ALA797  LYS798  CYS799  TRP800  GLU811  SER814 

> <Gold.Protein.RotatedAtoms>
  151.3580  133.3900  159.2686 H   0  0  0  0  0  0  0  0  0  0  0  0  # atno 6907 bound_to 6896
  150.9748  134.9115  159.7820 H   0  0  0  0  0  0  0  0  0  0  0  0  # atno 6908 bound_to 6896
  152.5197  134.3543  159.9314 H   0  0  0  0  0  0  0  0  0  0  0  0  # atno 6909 bound_to 6896
  144.8134  140.5407  143.5627 H   0  0  0  0  0  0  0  0  0  0  0  0  # atno 7974 bound_to 7965
  154.8334  140.2903  155.5707 H   0  0  0  0  0  0  0  0  0  0  0  0  # atno 8008 bound_to 7997
  156.3007  140.2527  156.3195 H   0  0  0  0  0  0  0  0  0  0  0  0  # atno 8009 bound_to 7997
  154.9206  140.0386  157.1985 H   0  0  0  0  0  0  0  0  0  0  0  0  # atno 8010 bound_to 7997
  139.8934  144.6372  150.8715 H   0  0  0  0  0  0  0  0  0  0  0  0  # atno 10167 bound_to 10162
  157.1772  131.0624  151.2151 H   0  0  0  0  0  0  0  0  0  0  0  0  # atno 10718 bound_to 10713
  154.3289  135.6181  153.5542 H   0  0  0  0  0  0  0  0  0  0  0  0  # atno 10763 bound_to 10752
  152.9813  135.5742  154.4985 H   0  0  0  0  0  0  0  0  0  0  0  0  # atno 10764 bound_to 10752
  154.4667  135.2858  155.1650 H   0  0  0  0  0  0  0  0  0  0  0  0  # atno 10765 bound_to 10752
  139.9594  134.7087  156.0680 H   0  0  0  0  0  0  0  0  0  0  0  0  # atno 11005 bound_to 11000
  145.5270  139.1476  143.3521 LP  0  0  0  0  0  0  0  0  0  0  0  0  # atno 17320 bound_to 7965
  146.2435  140.5411  142.8924 LP  0  0  0  0  0  0  0  0  0  0  0  0  # atno 17321 bound_to 7965
  140.7722  143.3493  151.2047 LP  0  0  0  0  0  0  0  0  0  0  0  0  # atno 17342 bound_to 10162
  139.7090  143.9408  152.2939 LP  0  0  0  0  0  0  0  0  0  0  0  0  # atno 17343 bound_to 10162
  157.3987  130.7321  149.6751 LP  0  0  0  0  0  0  0  0  0  0  0  0  # atno 17370 bound_to 10713
  155.9729  130.4127  150.4043 LP  0  0  0  0  0  0  0  0  0  0  0  0  # atno 17371 bound_to 10713
  141.1269  133.6596  156.3362 LP  0  0  0  0  0  0  0  0  0  0  0  0  # atno 17394 bound_to 11000
  140.5534  134.6005  157.5414 LP  0  0  0  0  0  0  0  0  0  0  0  0  # atno 17395 bound_to 11000

$$$$
