AV-unprocessed.smi:713|AV-procd|sdf|3477|dock3
  -GOLD-   22720 0473D 1   1.00000     0.00000
 Structure written by MMmdl.
 41 42  0  0  0  0  0  0  0  0  1 V2000
  144.6963  135.6741  151.7723 C   0  0  0  0  0  0  0  0  0  0  0  0
  145.8506  134.6875  151.5177 C   0  0  1  0  0  0  0  0  0  0  0  0
  146.3588  134.0313  152.8098 C   0  0  0  0  0  0  0  0  0  0  0  0
  145.6785  133.1867  153.3941 O   0  0  0  0  0  0  0  0  0  0  0  0
  147.5651  134.4301  153.2432 N   0  0  0  0  0  0  0  0  0  0  0  0
  148.2406  133.9314  154.4368 C   0  0  1  0  0  0  0  0  0  0  0  0
  149.1104  132.7161  154.0681 C   0  0  0  0  0  0  0  0  0  0  0  0
  149.8756  132.1867  155.2907 C   0  0  0  0  0  0  0  0  0  0  0  0
  150.7241  133.2917  155.9387 C   0  0  0  0  0  0  0  0  0  0  0  0
  149.8664  134.5142  156.3137 C   0  0  1  0  0  0  0  0  0  0  0  0
  150.9416  135.8303  157.0460 S   0  0  0  0  0  0  0  0  0  0  0  0
  150.8716  137.1655  155.7802 C   0  0  0  0  0  0  0  0  0  0  0  0
  150.2975  136.3203  158.2741 O   0  0  0  0  0  0  0  0  0  0  0  0
  152.3241  135.3313  157.1019 O   0  0  0  0  0  0  0  0  0  0  0  0
  149.0966  135.0391  155.0853 C   0  0  0  0  0  0  0  0  0  0  0  0
  145.4669  133.6683  150.5495 N   0  0  0  0  0  0  0  0  0  0  0  0
  144.2546  133.4900  149.9108 C   0  0  0  0  0  0  0  0  0  0  0  0
  144.3775  132.4023  149.0947 C   0  0  0  0  0  0  0  0  0  0  0  0
  145.7175  131.9736  149.3037 C   0  0  0  0  0  0  0  0  0  0  0  0
  146.3660  132.7316  150.1730 N   0  0  0  0  0  0  0  0  0  0  0  0
  144.9845  136.4407  152.4922 H   0  0  0  0  0  0  0  0  0  0  0  0
  143.8083  135.1721  152.1584 H   0  0  0  0  0  0  0  0  0  0  0  0
  144.4119  136.1826  150.8506 H   0  0  0  0  0  0  0  0  0  0  0  0
  146.6780  135.2620  151.0954 H   0  0  0  0  0  0  0  0  0  0  0  0
  148.0557  135.1257  152.6994 H   0  0  0  0  0  0  0  0  0  0  0  0
  147.4863  133.6023  155.1543 H   0  0  0  0  0  0  0  0  0  0  0  0
  148.4885  131.9222  153.6526 H   0  0  0  0  0  0  0  0  0  0  0  0
  149.8219  132.9920  153.2883 H   0  0  0  0  0  0  0  0  0  0  0  0
  149.1692  131.7923  156.0222 H   0  0  0  0  0  0  0  0  0  0  0  0
  150.5139  131.3532  154.9968 H   0  0  0  0  0  0  0  0  0  0  0  0
  151.2216  132.8977  156.8253 H   0  0  0  0  0  0  0  0  0  0  0  0
  151.5147  133.5946  155.2511 H   0  0  0  0  0  0  0  0  0  0  0  0
  149.1537  134.2209  157.0853 H   0  0  0  0  0  0  0  0  0  0  0  0
  151.4009  138.0415  156.1542 H   0  0  0  0  0  0  0  0  0  0  0  0
  149.8330  137.4302  155.5836 H   0  0  0  0  0  0  0  0  0  0  0  0
  151.3472  136.8332  154.8584 H   0  0  0  0  0  0  0  0  0  0  0  0
  149.8009  135.4326  154.3510 H   0  0  0  0  0  0  0  0  0  0  0  0
  148.4564  135.8713  155.3756 H   0  0  0  0  0  0  0  0  0  0  0  0
  143.4146  134.1456  150.0883 H   0  0  0  0  0  0  0  0  0  0  0  0
  143.6246  131.9783  148.4471 H   0  0  0  0  0  0  0  0  0  0  0  0
  146.2353  131.1403  148.8521 H   0  0  0  0  0  0  0  0  0  0  0  0
  1  2  1  0  0  0  0
  1 21  1  0  0  0  0
  1 22  1  0  0  0  0
  1 23  1  0  0  0  0
  2  3  1  0  0  0  0
  2 16  1  0  0  0  0
  2 24  1  0  0  0  0
  3  4  2  0  0  0  0
  3  5  1  0  0  0  0
  5  6  1  0  0  0  0
  5 25  1  0  0  0  0
  6 15  1  0  0  0  0
  6  7  1  0  0  0  0
  6 26  1  0  0  0  0
  7  8  1  0  0  0  0
  7 27  1  0  0  0  0
  7 28  1  0  0  0  0
  8  9  1  0  0  0  0
  8 29  1  0  0  0  0
  8 30  1  0  0  0  0
  9 10  1  0  0  0  0
  9 31  1  0  0  0  0
  9 32  1  0  0  0  0
 10 11  1  0  0  0  0
 10 15  1  0  0  0  0
 10 33  1  0  0  0  0
 11 12  1  0  0  0  0
 11 13  2  0  0  0  0
 11 14  2  0  0  0  0
 12 34  1  0  0  0  0
 12 35  1  0  0  0  0
 12 36  1  0  0  0  0
 15 37  1  0  0  0  0
 15 38  1  0  0  0  0
 16 20  1  0  0  0  0
 16 17  1  0  0  0  0
 17 18  2  0  0  0  0
 17 39  1  0  0  0  0
 18 19  1  0  0  0  0
 18 40  1  0  0  0  0
 19 20  2  0  0  0  0
 19 41  1  0  0  0  0
M  END
> <s_m_source_file>
AV-unprocessed.smi

> <i_m_source_file_index>
713

> <i_lp_mmshare_version>
43012

> <i_f3d_flags>
0

> <s_epik_input>
bjFbY0hdW2NIXVtjSF1uMVtDQEhdKFtDSDNdKUMoPU8pW05IXVtDQEBIXTJbQ0gyXVtDSDJdW0NIMl1bQ0BIXShbQ0gyXTIpUyg9TykoPU8pW0NIM10=

> <s_epik_cmdline>
J2VwaWtfcHl0aG9uJywgJy1waCcsICc3LjAnLCAnLXRuJywgJzgnLCAnLW1hJywgJzIwMCcsICctbWV0YWxfYmluZGluZycsICctaW1hZScsICc8aW5maWxlLm1hZT4nLCAnLW9tYWUnLCAnPG91dGZpbGUubWFlPic=

> <r_lp_tautomer_probability>
1

> <r_epik_Ionization_Penalty>
4.07816e-05

> <r_epik_Ionization_Penalty_Charging>
0

> <r_epik_Ionization_Penalty_Neutral>
4.07816e-05

> <r_epik_State_Penalty>
-0

> <r_epik_Charging_Adjusted_Penalty>
0

> <i_epik_Tot_Q>
0

> <i_epik_Tot_abs_Q>
0

> <r_epik_Metal_State_Penalty>
-0

> <b_epik_Metal_Only>
0

> <s_lp_Force_Field>
OPLS_2005

> <r_lp_Energy>
7.49251

> <b_lp_Chiralities_Consistent>
1

> <s_lp_Variant>
AV-unprocessed.smi:713-4

> <Gold.Version>
5.8.1

> <Gold.Id.Protein>
6NUR|6NUR_protein|mol2

> <Gold.PLP.Fitness>
44.4707

> <Gold.PLP.PLP>
-34.6245

> <Gold.PLP.part.hbond>
-3.0848

> <Gold.PLP.part.metal>
0.0000

> <Gold.PLP.part.buried>
-4.8362

> <Gold.PLP.part.nonpolar>
-27.7645

> <Gold.PLP.part.repulsive>
0.3132

> <Gold.PLP.ligand.clash>
0.0000

> <Gold.PLP.ligand.torsion>
0.8196

> <Gold.PLP.Chemscore.Hbond>
2.7613

> <Gold.PLP.Chemscore.CHOScore>
1.0000

> <Gold.PLP.Chemscore.Metal>
0.0000

> <Gold.Chemscore.Hbonds>
donor molecule, donor type, donor heavy atom, donor atom, acceptor molecule, acceptor atom, score
      L1  H     5    25       P1  7948  1.00
      P1  H  6896  6908       L1    13  0.77
      P1  H 10752 10764       L1    14  0.78
      L1  C    17    39       P1 10186  1.00

> <Gold.PLP.Chemscore.Internal.Correction>
0.2015

> <Gold.Rescore>
     Score         DG    S(hbond)    S(metal)    S(lipo)     H(rot)  DE(clash)    DE(int)     intcor
     18.57     -19.27       2.80        0.00      75.74       1.72       0.00       0.69       ----

> <Gold.Chemscore.Fitness>
18.5698

> <Gold.Chemscore.DG>
-19.2676

> <Gold.Chemscore.ZeroCoef>
-5.4800

> <Gold.Chemscore.Hbond>
2.7970

> <Gold.Chemscore.Metal>
0.0000

> <Gold.Chemscore.Lipo>
75.7389

> <Gold.Chemscore.Internal_Hbond>
0.0000

> <Gold.Chemscore.DEClash>
0.0044

> <Gold.Chemscore.DEInternal>
0.6935

> <Gold.Chemscore.Rot>
1.7249

> <Gold.Chemscore.Internal.Correction>
   9.000000E+99

> <Gold.Chemscore.Hbonds>
donor molecule, donor type, donor heavy atom, donor atom, acceptor molecule, acceptor atom, score
      L1  H     5    25       P1  7948  0.95
      P1  H  6896  6908       L1    13  0.26
      P1  H 10752 10764       L1    14  0.69

> <Gold.Chemscore.Hbond.Weighted>
-9.3419

> <Gold.Chemscore.Metal.Weighted>
-0.0000

> <Gold.Chemscore.Lipo.Weighted>
-8.8615

> <Gold.Chemscore.Internal_Hbond.Weighted>
0.0000

> <Gold.Chemscore.DEClash.Weighted>
0.0044

> <Gold.Chemscore.DEInternal.Weighted>
0.6935

> <Gold.Chemscore.Rot.Weighted>
4.4157

> <Gold.Chemscore.Internal.Correction.Weighted>
   9.000000E+99

> <Gold.Protein.RotatedTorsions>
[ 6907 6896 6895 6894 ] final -168.77 input  -60.11 | X-H torsion
[ 7974 7965 7964 7962 ] final   -8.01 input  175.53 | X-H torsion
[ 8008 7997 7996 7995 ] final -168.02 input   59.86 | X-H torsion
[ 10167 10162 10161 10158 ] final  -93.18 input  -65.29 | X-H torsion
[ 10718 10713 10712 10709 ] final  175.14 input   66.30 | X-H torsion
[ 10763 10752 10751 10750 ] final  -12.64 input  -60.55 | X-H torsion
[ 11005 11000 10999 10996 ] final  125.95 input  -57.11 | X-H torsion

> <Gold.Protein.ActiveResidues>
 VAL166  LYS551  ARG553  GLY616  TRP617  ASP618  TYR619  PRO620  LYS621  CYS622 
 ASP623  PHE694  ASN695  SER759  ASP760  ASP761  ALA762  ILE779  LEU786  VAL792 
 PHE793  MET794  SER795  GLU796  ALA797  LYS798  CYS799  TRP800  GLU811  SER814 

> <Gold.Protein.RotatedAtoms>
  151.4809  133.3547  159.2837 H   0  0  0  0  0  0  0  0  0  0  0  0  # atno 6907 bound_to 6896
  150.8898  134.8302  159.7296 H   0  0  0  0  0  0  0  0  0  0  0  0  # atno 6908 bound_to 6896
  152.4816  134.4717  159.9689 H   0  0  0  0  0  0  0  0  0  0  0  0  # atno 6909 bound_to 6896
  146.2292  140.2405  142.8343 H   0  0  0  0  0  0  0  0  0  0  0  0  # atno 7974 bound_to 7965
  155.8857  140.1016  157.1454 H   0  0  0  0  0  0  0  0  0  0  0  0  # atno 8008 bound_to 7997
  154.4009  140.1320  156.4316 H   0  0  0  0  0  0  0  0  0  0  0  0  # atno 8009 bound_to 7997
  155.7592  140.3463  155.5191 H   0  0  0  0  0  0  0  0  0  0  0  0  # atno 8010 bound_to 7997
  140.3273  143.3015  151.9981 H   0  0  0  0  0  0  0  0  0  0  0  0  # atno 10167 bound_to 10162
  156.9392  130.9996  151.2972 H   0  0  0  0  0  0  0  0  0  0  0  0  # atno 10718 bound_to 10713
  153.5014  135.7017  153.5829 H   0  0  0  0  0  0  0  0  0  0  0  0  # atno 10763 bound_to 10752
  153.3959  135.3884  155.1955 H   0  0  0  0  0  0  0  0  0  0  0  0  # atno 10764 bound_to 10752
  154.8710  135.3869  154.4485 H   0  0  0  0  0  0  0  0  0  0  0  0  # atno 10765 bound_to 10752
  139.9431  134.9633  156.8634 H   0  0  0  0  0  0  0  0  0  0  0  0  # atno 11005 bound_to 11000
  144.9488  140.8156  143.5585 LP  0  0  0  0  0  0  0  0  0  0  0  0  # atno 17320 bound_to 7965
  145.2364  139.2092  143.5016 LP  0  0  0  0  0  0  0  0  0  0  0  0  # atno 17321 bound_to 7965
  139.4863  144.6263  151.7157 LP  0  0  0  0  0  0  0  0  0  0  0  0  # atno 17342 bound_to 10162
  140.5429  144.0549  150.6095 LP  0  0  0  0  0  0  0  0  0  0  0  0  # atno 17343 bound_to 10162
  157.5796  130.8367  149.8504 LP  0  0  0  0  0  0  0  0  0  0  0  0  # atno 17370 bound_to 10713
  156.0412  130.3738  150.1431 LP  0  0  0  0  0  0  0  0  0  0  0  0  # atno 17371 bound_to 10713
  140.5901  134.0270  155.7496 LP  0  0  0  0  0  0  0  0  0  0  0  0  # atno 17394 bound_to 11000
  141.1073  133.9673  157.2974 LP  0  0  0  0  0  0  0  0  0  0  0  0  # atno 17395 bound_to 11000

$$$$
