AV-unprocessed.smi:2849|AV-procd|sdf|10962|dock4
  -GOLD-   2272015413D 1   1.00000     0.00000
 Structure written by MMmdl.
 56 59  0  0  0  0  0  0  0  0  3 V2000
  144.3747  134.8322  155.8238 C   0  0  0  0  0  0  0  0  0  0  0  0
  144.2996  134.3085  154.4391 N   0  3  2  0  0  0  0  0  0  0  0  0
  145.6011  133.9068  153.8515 C   0  0  1  0  0  0  0  0  0  0  0  0
  145.3389  132.9980  152.6274 C   0  0  0  0  0  0  0  0  0  0  0  0
  144.3754  133.6095  151.5892 C   0  0  0  0  0  0  0  0  0  0  0  0
  143.1766  134.3246  152.2459 C   0  0  0  0  0  0  0  0  0  0  0  0
  143.5532  135.1669  153.4874 C   0  0  2  0  0  0  0  0  0  0  0  0
  144.3292  136.4725  153.1783 C   0  0  0  0  0  0  0  0  0  0  0  0
  145.8025  136.2624  152.7575 C   0  0  1  0  0  0  0  0  0  0  0  0
  146.5408  137.5121  152.9387 N   0  0  0  0  0  0  0  0  0  0  0  0
  147.0602  137.9596  154.0918 C   0  0  0  0  0  0  0  0  0  0  0  0
  146.9743  137.3549  155.1602 O   0  0  0  0  0  0  0  0  0  0  0  0
  147.6572  139.1524  153.9247 N   0  0  0  0  0  0  0  0  0  0  0  0
  148.3750  139.9201  154.8812 C   0  0  0  0  0  0  0  0  0  0  0  0
  149.0976  139.2272  155.8764 C   0  0  0  0  0  0  0  0  0  0  0  0
  149.8042  139.9499  156.8591 C   0  0  0  0  0  0  0  0  0  0  0  0
  149.7676  141.3636  156.8415 C   0  0  0  0  0  0  0  0  0  0  0  0
  150.4350  142.1745  157.7704 N   0  0  0  0  0  0  0  0  0  0  0  0
  151.2532  141.4691  158.7433 C   0  0  0  0  0  0  0  0  0  0  0  0
  152.1805  142.5294  159.3418 C   0  0  0  0  0  0  0  0  0  0  0  0
  152.2321  143.6454  158.2918 C   0  0  0  0  0  0  0  0  0  0  0  0
  151.2957  143.1809  157.1726 C   0  0  0  0  0  0  0  0  0  0  0  0
  149.0585  141.9899  155.8773 N   0  3  0  0  0  0  0  0  0  0  0  0
  148.3708  141.3362  154.9160 C   0  0  0  0  0  0  0  0  0  0  0  0
  146.4941  135.1398  153.5651 C   0  0  0  0  0  0  0  0  0  0  0  0
  144.9296  135.7681  155.8830 H   0  0  0  0  0  0  0  0  0  0  0  0
  144.8621  134.1088  156.4778 H   0  0  0  0  0  0  0  0  0  0  0  0
  143.3731  135.0084  156.2172 H   0  0  0  0  0  0  0  0  0  0  0  0
  146.1231  133.2919  154.5863 H   0  0  0  0  0  0  0  0  0  0  0  0
  146.2791  132.7225  152.1483 H   0  0  0  0  0  0  0  0  0  0  0  0
  144.9037  132.0639  152.9852 H   0  0  0  0  0  0  0  0  0  0  0  0
  144.9085  134.2894  150.9300 H   0  0  0  0  0  0  0  0  0  0  0  0
  144.0100  132.8234  150.9277 H   0  0  0  0  0  0  0  0  0  0  0  0
  142.6582  134.9397  151.5095 H   0  0  0  0  0  0  0  0  0  0  0  0
  142.4577  133.5652  152.5564 H   0  0  0  0  0  0  0  0  0  0  0  0
  142.6135  135.4528  153.9624 H   0  0  0  0  0  0  0  0  0  0  0  0
  143.8052  137.0442  152.4115 H   0  0  0  0  0  0  0  0  0  0  0  0
  144.3020  137.0995  154.0703 H   0  0  0  0  0  0  0  0  0  0  0  0
  145.8200  135.9940  151.7047 H   0  0  0  0  0  0  0  0  0  0  0  0
  146.6603  138.0870  152.1173 H   0  0  0  0  0  0  0  0  0  0  0  0
  147.5625  139.5740  153.0124 H   0  0  0  0  0  0  0  0  0  0  0  0
  149.1177  138.1471  155.8870 H   0  0  0  0  0  0  0  0  0  0  0  0
  150.3667  139.4186  157.6129 H   0  0  0  0  0  0  0  0  0  0  0  0
  150.6343  141.0019  159.5099 H   0  0  0  0  0  0  0  0  0  0  0  0
  151.8420  140.6865  158.2640 H   0  0  0  0  0  0  0  0  0  0  0  0
  151.7625  142.9160  160.2721 H   0  0  0  0  0  0  0  0  0  0  0  0
  153.1669  142.1220  159.5657 H   0  0  0  0  0  0  0  0  0  0  0  0
  151.8754  144.5806  158.7249 H   0  0  0  0  0  0  0  0  0  0  0  0
  153.2425  143.8164  157.9195 H   0  0  0  0  0  0  0  0  0  0  0  0
  151.8729  142.7510  156.3526 H   0  0  0  0  0  0  0  0  0  0  0  0
  150.7092  144.0088  156.7728 H   0  0  0  0  0  0  0  0  0  0  0  0
  147.8369  141.9740  154.2279 H   0  0  0  0  0  0  0  0  0  0  0  0
  146.8241  135.5453  154.5225 H   0  0  0  0  0  0  0  0  0  0  0  0
  147.4075  134.8287  153.0564 H   0  0  0  0  0  0  0  0  0  0  0  0
  143.7621  133.4567  154.5164 H   0  0  0  0  0  0  0  0  0  0  0  0
  149.0368  143.0099  155.8773 H   0  0  0  0  0  0  0  0  0  0  0  0
  1  2  1  0  0  0  0
  1 26  1  0  0  0  0
  1 27  1  0  0  0  0
  1 28  1  0  0  0  0
  2  7  1  0  0  0  0
  2  3  1  0  0  0  0
  2 55  1  0  0  0  0
  3 25  1  0  0  0  0
  3  4  1  0  0  0  0
  3 29  1  0  0  0  0
  4  5  1  0  0  0  0
  4 30  1  0  0  0  0
  4 31  1  0  0  0  0
  5  6  1  0  0  0  0
  5 32  1  0  0  0  0
  5 33  1  0  0  0  0
  6  7  1  0  0  0  0
  6 34  1  0  0  0  0
  6 35  1  0  0  0  0
  7  8  1  0  0  0  0
  7 36  1  0  0  0  0
  8  9  1  0  0  0  0
  8 37  1  0  0  0  0
  8 38  1  0  0  0  0
  9 10  1  0  0  0  0
  9 25  1  0  0  0  0
  9 39  1  0  0  0  0
 10 11  1  0  0  0  0
 10 40  1  0  0  0  0
 11 12  2  0  0  0  0
 11 13  1  0  0  0  0
 13 14  1  0  0  0  0
 13 41  1  0  0  0  0
 14 24  1  0  0  0  0
 14 15  2  0  0  0  0
 15 16  1  0  0  0  0
 15 42  1  0  0  0  0
 16 17  2  0  0  0  0
 16 43  1  0  0  0  0
 17 18  1  0  0  0  0
 17 23  1  0  0  0  0
 18 22  1  0  0  0  0
 18 19  1  0  0  0  0
 19 20  1  0  0  0  0
 19 44  1  0  0  0  0
 19 45  1  0  0  0  0
 20 21  1  0  0  0  0
 20 46  1  0  0  0  0
 20 47  1  0  0  0  0
 21 22  1  0  0  0  0
 21 48  1  0  0  0  0
 21 49  1  0  0  0  0
 22 50  1  0  0  0  0
 22 51  1  0  0  0  0
 23 24  2  0  0  0  0
 23 56  1  0  0  0  0
 24 52  1  0  0  0  0
 25 53  1  0  0  0  0
 25 54  1  0  0  0  0
M  CHG  1   2   1
M  CHG  1  23   1
M  END
> <s_m_source_file>
AV-unprocessed.smi

> <i_m_source_file_index>
2849

> <i_lp_mmshare_version>
43012

> <i_f3d_flags>
0

> <s_epik_input>
W0NIMl0xW0NIMl1bQ0gyXVtDQEhdKE4oW0NIM10pW0NIXTEyKVtDSDJdW0NASF0oW0NIMl0yKVtOSF1DKD1PKVtOSF1jM1tjSF1bY0hdYyhuW2NIXTMpTjRbQ0gyXVtDSDJdW0NIMl1bQ0gyXTQ=

> <s_epik_cmdline>
J2VwaWtfcHl0aG9uJywgJy1waCcsICc3LjAnLCAnLXRuJywgJzgnLCAnLW1hJywgJzIwMCcsICctbWV0YWxfYmluZGluZycsICctaW1hZScsICc8aW5maWxlLm1hZT4nLCAnLW9tYWUnLCAnPG91dGZpbGUubWFlPic=

> <r_lp_tautomer_probability>
0.999994

> <r_epik_Ionization_Penalty>
1.2404

> <r_epik_Ionization_Penalty_Charging>
1.24038

> <r_epik_Ionization_Penalty_Neutral>
1.86921e-05

> <r_epik_State_Penalty>
1.30821

> <r_epik_Charging_Adjusted_Penalty>
2.54859

> <i_epik_Tot_Q>
2

> <i_epik_Tot_abs_Q>
2

> <r_epik_Metal_State_Penalty>
1.37823

> <b_epik_Metal_Only>
0

> <s_lp_Force_Field>
OPLS_2005

> <r_lp_Energy>
73.3774

> <b_lp_Chiralities_Consistent>
1

> <s_lp_Variant>
AV-unprocessed.smi:2849-6

> <Gold.Version>
5.8.1

> <Gold.Id.Protein>
6NUR|6NUR_protein|mol2

> <Gold.PLP.Fitness>
42.0227

> <Gold.PLP.PLP>
-31.1453

> <Gold.PLP.part.hbond>
-2.9690

> <Gold.PLP.part.metal>
0.0000

> <Gold.PLP.part.buried>
-5.1054

> <Gold.PLP.part.nonpolar>
-23.6175

> <Gold.PLP.part.repulsive>
0.2673

> <Gold.PLP.ligand.clash>
0.0000

> <Gold.PLP.ligand.torsion>
0.5712

> <Gold.PLP.Chemscore.Hbond>
4.0000

> <Gold.PLP.Chemscore.CHOScore>
0.0000

> <Gold.PLP.Chemscore.Metal>
0.0000

> <Gold.Chemscore.Hbonds>
donor molecule, donor type, donor heavy atom, donor atom, acceptor molecule, acceptor atom, score
      L1  H     2    55       P1 10957  1.98
      L1  H    23    56       P1  8028  2.00

> <Gold.PLP.Chemscore.Internal.Correction>
0.0197

> <Gold.Rescore>
     Score         DG    S(hbond)    S(metal)    S(lipo)     H(rot)  DE(clash)    DE(int)     intcor
     16.10     -19.18       1.99        0.00      86.19       1.19       0.04       3.03       ----

> <Gold.Chemscore.Fitness>
16.1038

> <Gold.Chemscore.DG>
-19.1752

> <Gold.Chemscore.ZeroCoef>
-5.4800

> <Gold.Chemscore.Hbond>
1.9916

> <Gold.Chemscore.Metal>
0.0000

> <Gold.Chemscore.Lipo>
86.1894

> <Gold.Chemscore.Internal_Hbond>
0.0000

> <Gold.Chemscore.DEClash>
0.0383

> <Gold.Chemscore.DEInternal>
3.0330

> <Gold.Chemscore.Rot>
1.1879

> <Gold.Chemscore.Internal.Correction>
   9.000000E+99

> <Gold.Chemscore.Hbonds>
donor molecule, donor type, donor heavy atom, donor atom, acceptor molecule, acceptor atom, score
      L1  H     2    55       P1 10957  0.92
      L1  H    23    56       P1  8028  1.00

> <Gold.Chemscore.Hbond.Weighted>
-6.6520

> <Gold.Chemscore.Metal.Weighted>
-0.0000

> <Gold.Chemscore.Lipo.Weighted>
-10.0842

> <Gold.Chemscore.Internal_Hbond.Weighted>
0.0000

> <Gold.Chemscore.DEClash.Weighted>
0.0383

> <Gold.Chemscore.DEInternal.Weighted>
3.0330

> <Gold.Chemscore.Rot.Weighted>
3.0410

> <Gold.Chemscore.Internal.Correction.Weighted>
   9.000000E+99

> <Gold.Protein.RotatedTorsions>
[ 6907 6896 6895 6894 ] final   41.67 input  -60.11 | X-H torsion
[ 7974 7965 7964 7962 ] final  110.82 input  175.53 | X-H torsion
[ 8008 7997 7996 7995 ] final  -30.67 input   59.86 | X-H torsion
[ 10167 10162 10161 10158 ] final  -75.20 input  -65.29 | X-H torsion
[ 10718 10713 10712 10709 ] final -103.18 input   66.30 | X-H torsion
[ 10763 10752 10751 10750 ] final  135.89 input  -60.55 | X-H torsion
[ 11005 11000 10999 10996 ] final -139.10 input  -57.11 | X-H torsion

> <Gold.Protein.ActiveResidues>
 VAL166  LYS551  ARG553  GLY616  TRP617  ASP618  TYR619  PRO620  LYS621  CYS622 
 ASP623  PHE694  ASN695  SER759  ASP760  ASP761  ALA762  ILE779  LEU786  VAL792 
 PHE793  MET794  SER795  GLU796  ALA797  LYS798  CYS799  TRP800  GLU811  SER814 

> <Gold.Protein.RotatedAtoms>
  152.1983  134.8611  160.0510 H   0  0  0  0  0  0  0  0  0  0  0  0  # atno 6907 bound_to 6896
  151.9474  133.3651  159.3995 H   0  0  0  0  0  0  0  0  0  0  0  0  # atno 6908 bound_to 6896
  150.6949  134.4300  159.5288 H   0  0  0  0  0  0  0  0  0  0  0  0  # atno 6909 bound_to 6896
  145.2501  139.2743  143.4072 H   0  0  0  0  0  0  0  0  0  0  0  0  # atno 7974 bound_to 7965
  154.4242  140.1785  156.1444 H   0  0  0  0  0  0  0  0  0  0  0  0  # atno 8008 bound_to 7997
  155.9966  140.3364  155.6779 H   0  0  0  0  0  0  0  0  0  0  0  0  # atno 8009 bound_to 7997
  155.6300  140.0669  157.2642 H   0  0  0  0  0  0  0  0  0  0  0  0  # atno 8010 bound_to 7997
  140.4963  143.2370  151.7825 H   0  0  0  0  0  0  0  0  0  0  0  0  # atno 10167 bound_to 10162
  156.0255  130.5455  150.7215 H   0  0  0  0  0  0  0  0  0  0  0  0  # atno 10718 bound_to 10713
  153.8475  135.3083  155.3430 H   0  0  0  0  0  0  0  0  0  0  0  0  # atno 10763 bound_to 10752
  154.7906  135.4785  154.0047 H   0  0  0  0  0  0  0  0  0  0  0  0  # atno 10764 bound_to 10752
  153.1538  135.6848  153.8935 H   0  0  0  0  0  0  0  0  0  0  0  0  # atno 10765 bound_to 10752
  140.8552  134.2237  157.4738 H   0  0  0  0  0  0  0  0  0  0  0  0  # atno 11005 bound_to 11000
  146.3305  140.2890  142.8614 LP  0  0  0  0  0  0  0  0  0  0  0  0  # atno 17320 bound_to 7965
  144.9510  140.8178  143.5572 LP  0  0  0  0  0  0  0  0  0  0  0  0  # atno 17321 bound_to 7965
  139.4862  144.4582  151.9573 LP  0  0  0  0  0  0  0  0  0  0  0  0  # atno 17342 bound_to 10162
  140.3670  144.2903  150.5925 LP  0  0  0  0  0  0  0  0  0  0  0  0  # atno 17343 bound_to 10162
  157.4829  131.0904  151.0515 LP  0  0  0  0  0  0  0  0  0  0  0  0  # atno 17370 bound_to 10713
  157.0943  130.5955  149.5446 LP  0  0  0  0  0  0  0  0  0  0  0  0  # atno 17371 bound_to 10713
  139.8705  134.9703  156.4695 LP  0  0  0  0  0  0  0  0  0  0  0  0  # atno 17394 bound_to 11000
  140.8745  133.7963  155.9400 LP  0  0  0  0  0  0  0  0  0  0  0  0  # atno 17395 bound_to 11000

$$$$
