AV-unprocessed.smi:1247|AV-procd|sdf|5246|dock10
  -GOLD-   22720 4353D 1   1.00000     0.00000
 Structure written by MMmdl.
 47 48  0  0  0  0  0  0  0  0  2 V2000
  150.9318  142.5425  157.1277 C   0  0  0  0  0  0  0  0  0  0  0  0
  150.4884  141.5489  156.0950 C   0  0  0  0  0  0  0  0  0  0  0  0
  149.3352  141.6055  155.2596 C   0  0  0  0  0  0  0  0  0  0  0  0
  149.4354  140.4532  154.5286 C   0  0  0  0  0  0  0  0  0  0  0  0
  148.6065  139.9882  153.5562 N   0  0  0  0  0  0  0  0  0  0  0  0
  147.4688  139.2842  153.6882 C   0  0  0  0  0  0  0  0  0  0  0  0
  146.9838  138.9002  154.7528 O   0  0  0  0  0  0  0  0  0  0  0  0
  146.9140  139.0301  152.4942 N   0  0  0  0  0  0  0  0  0  0  0  0
  145.6785  138.2824  152.2919 C   0  0  0  0  0  0  0  0  0  0  0  0
  145.5980  137.0650  153.2323 C   0  0  0  0  0  0  0  0  0  0  0  0
  145.7494  135.7802  152.5055 N   0  3  1  0  0  0  0  0  0  0  0  0
  146.0307  134.6446  153.4154 C   0  0  0  0  0  0  0  0  0  0  0  0
  146.2456  133.3484  152.6114 C   0  0  1  0  0  0  0  0  0  0  0  0
  146.4659  132.1335  153.5195 C   0  0  0  0  0  0  0  0  0  0  0  0
  145.0943  133.1027  151.8117 O   0  0  0  0  0  0  0  0  0  0  0  0
  144.8512  134.1405  150.8683 C   0  0  1  0  0  0  0  0  0  0  0  0
  143.6526  133.7305  150.0061 C   0  0  0  0  0  0  0  0  0  0  0  0
  144.6001  135.4597  151.6238 C   0  0  0  0  0  0  0  0  0  0  0  0
  150.5757  139.7802  154.9129 N   0  0  0  0  0  0  0  0  0  0  0  0
  151.1256  138.5231  154.4431 C   0  0  0  0  0  0  0  0  0  0  0  0
  151.2198  140.4604  155.8850 N   0  0  0  0  0  0  0  0  0  0  0  0
  150.3054  143.4346  157.1114 H   0  0  0  0  0  0  0  0  0  0  0  0
  151.9612  142.8575  156.9544 H   0  0  0  0  0  0  0  0  0  0  0  0
  150.8771  142.1163  158.1297 H   0  0  0  0  0  0  0  0  0  0  0  0
  148.5778  142.3734  155.2174 H   0  0  0  0  0  0  0  0  0  0  0  0
  148.8950  140.1964  152.6117 H   0  0  0  0  0  0  0  0  0  0  0  0
  147.3763  139.3818  151.6682 H   0  0  0  0  0  0  0  0  0  0  0  0
  144.8278  138.9509  152.4279 H   0  0  0  0  0  0  0  0  0  0  0  0
  145.6490  137.9518  151.2533 H   0  0  0  0  0  0  0  0  0  0  0  0
  146.3969  137.1559  153.9699 H   0  0  0  0  0  0  0  0  0  0  0  0
  144.6617  137.0606  153.7927 H   0  0  0  0  0  0  0  0  0  0  0  0
  146.9207  134.8599  154.0083 H   0  0  0  0  0  0  0  0  0  0  0  0
  145.2009  134.5240  154.1141 H   0  0  0  0  0  0  0  0  0  0  0  0
  147.1169  133.4573  151.9627 H   0  0  0  0  0  0  0  0  0  0  0  0
  147.3516  132.2635  154.1418 H   0  0  0  0  0  0  0  0  0  0  0  0
  146.6052  131.2269  152.9300 H   0  0  0  0  0  0  0  0  0  0  0  0
  145.6130  131.9730  154.1796 H   0  0  0  0  0  0  0  0  0  0  0  0
  145.7232  134.2482  150.2204 H   0  0  0  0  0  0  0  0  0  0  0  0
  143.4292  134.4911  149.2575 H   0  0  0  0  0  0  0  0  0  0  0  0
  142.7590  133.5862  150.6143 H   0  0  0  0  0  0  0  0  0  0  0  0
  143.8522  132.7961  149.4808 H   0  0  0  0  0  0  0  0  0  0  0  0
  143.6917  135.3818  152.2237 H   0  0  0  0  0  0  0  0  0  0  0  0
  144.4383  136.2619  150.9046 H   0  0  0  0  0  0  0  0  0  0  0  0
  150.5710  138.1577  153.5789 H   0  0  0  0  0  0  0  0  0  0  0  0
  151.0702  137.7794  155.2386 H   0  0  0  0  0  0  0  0  0  0  0  0
  152.1687  138.6611  154.1566 H   0  0  0  0  0  0  0  0  0  0  0  0
  146.5618  135.8756  151.9130 H   0  0  0  0  0  0  0  0  0  0  0  0
  1  2  1  0  0  0  0
  1 22  1  0  0  0  0
  1 23  1  0  0  0  0
  1 24  1  0  0  0  0
  2 21  2  0  0  0  0
  2  3  1  0  0  0  0
  3  4  2  0  0  0  0
  3 25  1  0  0  0  0
  4  5  1  0  0  0  0
  4 19  1  0  0  0  0
  5  6  1  0  0  0  0
  5 26  1  0  0  0  0
  6  7  2  0  0  0  0
  6  8  1  0  0  0  0
  8  9  1  0  0  0  0
  8 27  1  0  0  0  0
  9 10  1  0  0  0  0
  9 28  1  0  0  0  0
  9 29  1  0  0  0  0
 10 11  1  0  0  0  0
 10 30  1  0  0  0  0
 10 31  1  0  0  0  0
 11 18  1  0  0  0  0
 11 12  1  0  0  0  0
 11 47  1  0  0  0  0
 12 13  1  0  0  0  0
 12 32  1  0  0  0  0
 12 33  1  0  0  0  0
 13 14  1  0  0  0  0
 13 15  1  0  0  0  0
 13 34  1  0  0  0  0
 14 35  1  0  0  0  0
 14 36  1  0  0  0  0
 14 37  1  0  0  0  0
 15 16  1  0  0  0  0
 16 17  1  0  0  0  0
 16 18  1  0  0  0  0
 16 38  1  0  0  0  0
 17 39  1  0  0  0  0
 17 40  1  0  0  0  0
 17 41  1  0  0  0  0
 18 42  1  0  0  0  0
 18 43  1  0  0  0  0
 19 20  1  0  0  0  0
 19 21  1  0  0  0  0
 20 44  1  0  0  0  0
 20 45  1  0  0  0  0
 20 46  1  0  0  0  0
M  CHG  1  11   1
M  END
> <s_m_source_file>
AV-unprocessed.smi

> <i_m_source_file_index>
1247

> <i_lp_mmshare_version>
43012

> <i_f3d_flags>
0

> <s_epik_input>
W0NIM11jMVtjSF1jKG4objEpW0NIM10pW05IXUMoPU8pW05IXVtDSDJdW0NIMl1OMltDSDJdW0NAQEhdKFtDSDNdKU9bQ0BASF0oW0NIM10pW0NIMl0y

> <s_epik_cmdline>
J2VwaWtfcHl0aG9uJywgJy1waCcsICc3LjAnLCAnLXRuJywgJzgnLCAnLW1hJywgJzIwMCcsICctbWV0YWxfYmluZGluZycsICctaW1hZScsICc8aW5maWxlLm1hZT4nLCAnLW9tYWUnLCAnPG91dGZpbGUubWFlPic=

> <r_lp_tautomer_probability>
1

> <r_epik_Ionization_Penalty>
0.663902

> <r_epik_Ionization_Penalty_Charging>
0.663826

> <r_epik_Ionization_Penalty_Neutral>
7.65444e-05

> <r_epik_State_Penalty>
0.683414

> <r_epik_Charging_Adjusted_Penalty>
1.34724

> <i_epik_Tot_Q>
1

> <i_epik_Tot_abs_Q>
1

> <r_epik_Metal_State_Penalty>
0.683419

> <b_epik_Metal_Only>
0

> <s_lp_Force_Field>
OPLS_2005

> <r_lp_Energy>
16.001

> <b_lp_Chiralities_Consistent>
1

> <s_lp_Variant>
AV-unprocessed.smi:1247-4

> <Gold.Version>
5.8.1

> <Gold.Id.Protein>
6NUR|6NUR_protein|mol2

> <Gold.PLP.Fitness>
46.7993

> <Gold.PLP.PLP>
-37.7352

> <Gold.PLP.part.hbond>
-3.8117

> <Gold.PLP.part.metal>
0.0000

> <Gold.PLP.part.buried>
-2.9921

> <Gold.PLP.part.nonpolar>
-31.6258

> <Gold.PLP.part.repulsive>
0.4100

> <Gold.PLP.ligand.clash>
0.0000

> <Gold.PLP.ligand.torsion>
1.3007

> <Gold.PLP.Chemscore.Hbond>
3.8800

> <Gold.PLP.Chemscore.CHOScore>
0.0000

> <Gold.PLP.Chemscore.Metal>
0.0000

> <Gold.Chemscore.Hbonds>
donor molecule, donor type, donor heavy atom, donor atom, acceptor molecule, acceptor atom, score
      L1  H     5    26       P1  7957  1.00
      L1  H     8    27       P1  7957  0.16
      L1  H    11    47       P1  7948  0.18

> <Gold.PLP.Chemscore.Internal.Correction>
0.0255

> <Gold.Rescore>
     Score         DG    S(hbond)    S(metal)    S(lipo)     H(rot)  DE(clash)    DE(int)     intcor
     16.69     -19.41       2.95        0.00      68.25       1.52       0.05       2.67       ----

> <Gold.Chemscore.Fitness>
16.6929

> <Gold.Chemscore.DG>
-19.4076

> <Gold.Chemscore.ZeroCoef>
-5.4800

> <Gold.Chemscore.Hbond>
2.9457

> <Gold.Chemscore.Metal>
0.0000

> <Gold.Chemscore.Lipo>
68.2528

> <Gold.Chemscore.Internal_Hbond>
0.0000

> <Gold.Chemscore.DEClash>
0.0472

> <Gold.Chemscore.DEInternal>
2.6675

> <Gold.Chemscore.Rot>
1.5221

> <Gold.Chemscore.Internal.Correction>
   9.000000E+99

> <Gold.Chemscore.Hbonds>
donor molecule, donor type, donor heavy atom, donor atom, acceptor molecule, acceptor atom, score
      L1  H     5    26       P1  7957  0.99
      L1  H     8    27       P1  7957  0.16
      L1  H    11    47       P1  7948  0.11

> <Gold.Chemscore.Hbond.Weighted>
-9.8387

> <Gold.Chemscore.Metal.Weighted>
-0.0000

> <Gold.Chemscore.Lipo.Weighted>
-7.9856

> <Gold.Chemscore.Internal_Hbond.Weighted>
0.0000

> <Gold.Chemscore.DEClash.Weighted>
0.0472

> <Gold.Chemscore.DEInternal.Weighted>
2.6675

> <Gold.Chemscore.Rot.Weighted>
3.8967

> <Gold.Chemscore.Internal.Correction.Weighted>
   9.000000E+99

> <Gold.Protein.RotatedTorsions>
[ 6907 6896 6895 6894 ] final   10.62 input  -60.11 | X-H torsion
[ 7974 7965 7964 7962 ] final -125.14 input  175.53 | X-H torsion
[ 8008 7997 7996 7995 ] final  -16.06 input   59.86 | X-H torsion
[ 10167 10162 10161 10158 ] final  -11.04 input  -65.29 | X-H torsion
[ 10718 10713 10712 10709 ] final   63.87 input   66.30 | X-H torsion
[ 10763 10752 10751 10750 ] final   93.75 input  -60.55 | X-H torsion
[ 11005 11000 10999 10996 ] final   17.95 input  -57.11 | X-H torsion

> <Gold.Protein.ActiveResidues>
 VAL166  LYS551  ARG553  GLY616  TRP617  ASP618  TYR619  PRO620  LYS621  CYS622 
 ASP623  PHE694  ASN695  SER759  ASP760  ASP761  ALA762  ILE779  LEU786  VAL792 
 PHE793  MET794  SER795  GLU796  ALA797  LYS798  CYS799  TRP800  GLU811  SER814 

> <Gold.Protein.RotatedAtoms>
  151.7412  135.0854  160.0315 H   0  0  0  0  0  0  0  0  0  0  0  0  # atno 6907 bound_to 6896
  152.3478  133.6139  159.5931 H   0  0  0  0  0  0  0  0  0  0  0  0  # atno 6908 bound_to 6896
  150.7520  133.9537  159.3535 H   0  0  0  0  0  0  0  0  0  0  0  0  # atno 6909 bound_to 6896
  145.0007  140.7817  143.4498 H   0  0  0  0  0  0  0  0  0  0  0  0  # atno 7974 bound_to 7965
  154.5082  140.2179  155.9209 H   0  0  0  0  0  0  0  0  0  0  0  0  # atno 8008 bound_to 7997
  156.1520  140.3159  155.8630 H   0  0  0  0  0  0  0  0  0  0  0  0  # atno 8009 bound_to 7997
  155.3920  140.0479  157.3031 H   0  0  0  0  0  0  0  0  0  0  0  0  # atno 8010 bound_to 7997
  140.7129  143.5682  150.9121 H   0  0  0  0  0  0  0  0  0  0  0  0  # atno 10167 bound_to 10162
  157.6001  130.9129  149.9772 H   0  0  0  0  0  0  0  0  0  0  0  0  # atno 10718 bound_to 10713
  153.2338  135.4314  155.0624 H   0  0  0  0  0  0  0  0  0  0  0  0  # atno 10763 bound_to 10752
  154.8309  135.3386  154.6748 H   0  0  0  0  0  0  0  0  0  0  0  0  # atno 10764 bound_to 10752
  153.7174  135.7019  153.5078 H   0  0  0  0  0  0  0  0  0  0  0  0  # atno 10765 bound_to 10752
  140.4302  134.1427  155.7680 H   0  0  0  0  0  0  0  0  0  0  0  0  # atno 11005 bound_to 11000
  145.2157  139.2183  143.5119 LP  0  0  0  0  0  0  0  0  0  0  0  0  # atno 17320 bound_to 7965
  146.3451  140.2005  142.8589 LP  0  0  0  0  0  0  0  0  0  0  0  0  # atno 17321 bound_to 7965
  139.9408  143.6384  152.3054 LP  0  0  0  0  0  0  0  0  0  0  0  0  # atno 17342 bound_to 10162
  139.6868  144.7651  151.1510 LP  0  0  0  0  0  0  0  0  0  0  0  0  # atno 17343 bound_to 10162
  156.1072  130.3652  150.0112 LP  0  0  0  0  0  0  0  0  0  0  0  0  # atno 17370 bound_to 10713
  156.8217  130.9361  151.3641 LP  0  0  0  0  0  0  0  0  0  0  0  0  # atno 17371 bound_to 10713
  141.1748  133.8535  157.1455 LP  0  0  0  0  0  0  0  0  0  0  0  0  # atno 17394 bound_to 11000
  140.0139  134.9976  157.0453 LP  0  0  0  0  0  0  0  0  0  0  0  0  # atno 17395 bound_to 11000

$$$$
