AV-unprocessed.smi:281|AV-procd|sdf|2112|dock1
  -GOLD-   2262021403D 1   1.00000     0.00000
 Structure written by MMmdl.
 55 59  0  0  0  0  0  0  0  0  1 V2000
  147.1254  142.5179  153.9271 C   0  0  0  0  0  0  0  0  0  0  0  0
  147.3477  141.1966  154.6698 C   0  0  1  0  0  0  0  0  0  0  0  0
  146.4015  140.0936  154.1752 C   0  0  0  0  0  0  0  0  0  0  0  0
  146.7055  138.8347  154.8478 N   0  0  0  0  0  0  0  0  0  0  0  0
  145.8157  137.8170  154.7086 C   0  0  0  0  0  0  0  0  0  0  0  0
  145.0495  137.4363  155.7668 N   0  0  0  0  0  0  0  0  0  0  0  0
  144.1637  136.4443  155.6412 C   0  0  0  0  0  0  0  0  0  0  0  0
  143.8851  135.7068  154.5656 N   0  0  0  0  0  0  0  0  0  0  0  0
  144.6507  136.0780  153.5003 C   0  0  0  0  0  0  0  0  0  0  0  0
  145.6332  137.1090  153.4858 C   0  0  0  0  0  0  0  0  0  0  0  0
  146.2208  137.1786  152.2282 N   0  0  0  0  0  0  0  0  0  0  0  0
  145.6157  136.2513  151.5384 C   0  0  0  0  0  0  0  0  0  0  0  0
  144.6486  135.5496  152.2209 N   0  0  0  0  0  0  0  0  0  0  0  0
  143.8239  134.4690  151.7024 C   0  0  0  0  0  0  0  0  0  0  0  0
  144.3877  133.8085  150.4180 C   0  0  2  0  0  0  0  0  0  0  0  0
  144.1943  134.6684  149.3108 O   0  0  0  0  0  0  0  0  0  0  0  0
  143.7356  132.4655  150.1320 C   0  0  0  0  0  0  0  0  0  0  0  0
  144.5623  131.5017  150.9788 C   0  0  0  0  0  0  0  0  0  0  0  0
  145.8659  132.0704  151.0546 O   0  0  0  0  0  0  0  0  0  0  0  0
  145.8614  133.3903  150.5182 C   0  0  0  0  0  0  0  0  0  0  0  0
  148.1040  138.4398  154.7063 C   0  0  0  0  0  0  0  0  0  0  0  0
  149.0736  139.5782  155.1202 C   0  0  2  0  0  0  0  0  0  0  0  0
  150.4926  139.2602  154.6571 C   0  0  0  0  0  0  0  0  0  0  0  0
  151.3673  139.9488  155.6908 C   0  0  0  0  0  0  0  0  0  0  0  0
  150.6693  139.6741  156.8897 O   0  0  0  0  0  0  0  0  0  0  0  0
  149.2784  139.8489  156.6424 C   0  0  2  0  0  0  0  0  0  0  0  0
  148.4987  138.9654  157.6265 C   0  0  0  0  0  0  0  0  0  0  0  0
  148.6975  140.7874  154.4520 O   0  0  0  0  0  0  0  0  0  0  0  0
  146.1069  142.8805  154.0686 H   0  0  0  0  0  0  0  0  0  0  0  0
  147.2943  142.4025  152.8561 H   0  0  0  0  0  0  0  0  0  0  0  0
  147.8057  143.2883  154.2908 H   0  0  0  0  0  0  0  0  0  0  0  0
  147.1745  141.3688  155.7324 H   0  0  0  0  0  0  0  0  0  0  0  0
  145.3685  140.3836  154.3718 H   0  0  0  0  0  0  0  0  0  0  0  0
  146.5064  139.9655  153.0967 H   0  0  0  0  0  0  0  0  0  0  0  0
  143.5960  136.2089  156.5293 H   0  0  0  0  0  0  0  0  0  0  0  0
  145.8580  136.0553  150.5039 H   0  0  0  0  0  0  0  0  0  0  0  0
  143.7047  133.7275  152.4933 H   0  0  0  0  0  0  0  0  0  0  0  0
  142.8270  134.8682  151.5100 H   0  0  0  0  0  0  0  0  0  0  0  0
  144.9446  134.5978  148.7406 H   0  0  0  0  0  0  0  0  0  0  0  0
  142.6709  132.4365  150.3667 H   0  0  0  0  0  0  0  0  0  0  0  0
  143.8506  132.2014  149.0793 H   0  0  0  0  0  0  0  0  0  0  0  0
  144.1551  131.4296  151.9878 H   0  0  0  0  0  0  0  0  0  0  0  0
  144.5902  130.4977  150.5549 H   0  0  0  0  0  0  0  0  0  0  0  0
  146.3092  133.3332  149.5247 H   0  0  0  0  0  0  0  0  0  0  0  0
  146.4776  134.0668  151.1084 H   0  0  0  0  0  0  0  0  0  0  0  0
  148.3295  137.5319  155.2638 H   0  0  0  0  0  0  0  0  0  0  0  0
  148.2680  138.1946  153.6560 H   0  0  0  0  0  0  0  0  0  0  0  0
  150.6747  138.1853  154.7030 H   0  0  0  0  0  0  0  0  0  0  0  0
  150.6993  139.5876  153.6375 H   0  0  0  0  0  0  0  0  0  0  0  0
  152.3839  139.5561  155.7155 H   0  0  0  0  0  0  0  0  0  0  0  0
  151.4110  141.0257  155.5202 H   0  0  0  0  0  0  0  0  0  0  0  0
  149.0592  140.8938  156.8649 H   0  0  0  0  0  0  0  0  0  0  0  0
  147.4225  139.0794  157.4996 H   0  0  0  0  0  0  0  0  0  0  0  0
  148.7342  139.2375  158.6554 H   0  0  0  0  0  0  0  0  0  0  0  0
  148.7510  137.9124  157.5034 H   0  0  0  0  0  0  0  0  0  0  0  0
  1  2  1  0  0  0  0
  1 29  1  0  0  0  0
  1 30  1  0  0  0  0
  1 31  1  0  0  0  0
  2 28  1  0  0  0  0
  2  3  1  0  0  0  0
  2 32  1  0  0  0  0
  3  4  1  0  0  0  0
  3 33  1  0  0  0  0
  3 34  1  0  0  0  0
  4  5  1  0  0  0  0
  4 21  1  0  0  0  0
  5 10  1  0  0  0  0
  5  6  2  0  0  0  0
  6  7  1  0  0  0  0
  7  8  2  0  0  0  0
  7 35  1  0  0  0  0
  8  9  1  0  0  0  0
  9 13  1  0  0  0  0
  9 10  2  0  0  0  0
 10 11  1  0  0  0  0
 11 12  2  0  0  0  0
 12 13  1  0  0  0  0
 12 36  1  0  0  0  0
 13 14  1  0  0  0  0
 14 15  1  0  0  0  0
 14 37  1  0  0  0  0
 14 38  1  0  0  0  0
 15 20  1  0  0  0  0
 15 16  1  0  0  0  0
 15 17  1  0  0  0  0
 16 39  1  0  0  0  0
 17 18  1  0  0  0  0
 17 40  1  0  0  0  0
 17 41  1  0  0  0  0
 18 19  1  0  0  0  0
 18 42  1  0  0  0  0
 18 43  1  0  0  0  0
 19 20  1  0  0  0  0
 20 44  1  0  0  0  0
 20 45  1  0  0  0  0
 21 22  1  0  0  0  0
 21 46  1  0  0  0  0
 21 47  1  0  0  0  0
 22 26  1  0  0  0  0
 22 23  1  0  0  0  0
 22 28  1  0  0  0  0
 23 24  1  0  0  0  0
 23 48  1  0  0  0  0
 23 49  1  0  0  0  0
 24 25  1  0  0  0  0
 24 50  1  0  0  0  0
 24 51  1  0  0  0  0
 25 26  1  0  0  0  0
 26 27  1  0  0  0  0
 26 52  1  0  0  0  0
 27 53  1  0  0  0  0
 27 54  1  0  0  0  0
 27 55  1  0  0  0  0
M  END
> <s_m_source_file>
AV-unprocessed.smi

> <i_m_source_file_index>
281

> <i_lp_mmshare_version>
43012

> <i_f3d_flags>
0

> <s_epik_input>
W0NIM11bQ0BASF0xT1tDSDJdW0NIMl1bQ0BAXTEyW0NIMl1OKFtDSDJdW0NASF0oTzIpW0NIM10pYyhuW2NIXW4zKWMoYzM0KW5bY0hdbjRbQ0gyXVtDQEBdNShbT0hdKVtDSDJdW0NIMl1PW0NIMl01

> <s_epik_cmdline>
J2VwaWtfcHl0aG9uJywgJy1waCcsICc3LjAnLCAnLXRuJywgJzgnLCAnLW1hJywgJzIwMCcsICctbWV0YWxfYmluZGluZycsICctaW1hZScsICc8aW5maWxlLm1hZT4nLCAnLW9tYWUnLCAnPG91dGZpbGUubWFlPic=

> <r_lp_tautomer_probability>
1

> <r_epik_Ionization_Penalty>
0.00571331

> <r_epik_Ionization_Penalty_Charging>
0

> <r_epik_Ionization_Penalty_Neutral>
0.00571331

> <r_epik_State_Penalty>
0.00399586

> <r_epik_Charging_Adjusted_Penalty>
0.00399586

> <i_epik_Tot_Q>
0

> <i_epik_Tot_abs_Q>
0

> <r_epik_Metal_State_Penalty>
-0

> <b_epik_Metal_Only>
0

> <s_lp_Force_Field>
OPLS_2005

> <r_lp_Energy>
53.9998

> <b_lp_Chiralities_Consistent>
1

> <s_lp_Variant>
AV-unprocessed.smi:281-12

> <Gold.Version>
5.8.1

> <Gold.Id.Protein>
6NUR|6NUR_protein|mol2

> <Gold.PLP.Fitness>
37.7231

> <Gold.PLP.PLP>
-35.5262

> <Gold.PLP.part.hbond>
-1.6209

> <Gold.PLP.part.metal>
0.0000

> <Gold.PLP.part.buried>
-6.7638

> <Gold.PLP.part.nonpolar>
-28.4519

> <Gold.PLP.part.repulsive>
1.9735

> <Gold.PLP.ligand.clash>
0.0000

> <Gold.PLP.ligand.torsion>
0.5380

> <Gold.PLP.Chemscore.Hbond>
1.0000

> <Gold.PLP.Chemscore.CHOScore>
0.0000

> <Gold.PLP.Chemscore.Metal>
0.0000

> <Gold.Chemscore.Hbonds>
donor molecule, donor type, donor heavy atom, donor atom, acceptor molecule, acceptor atom, score
      L1  H    16    39       P1  7921  1.00

> <Gold.PLP.Chemscore.Internal.Correction>
0.2728

> <Gold.Rescore>
     Score         DG    S(hbond)    S(metal)    S(lipo)     H(rot)  DE(clash)    DE(int)     intcor
     10.76     -13.34       0.99        0.00      84.61       2.09       1.11       1.48       ----

> <Gold.Chemscore.Fitness>
10.7569

> <Gold.Chemscore.DG>
-13.3429

> <Gold.Chemscore.ZeroCoef>
-5.4800

> <Gold.Chemscore.Hbond>
0.9944

> <Gold.Chemscore.Metal>
0.0000

> <Gold.Chemscore.Lipo>
84.6062

> <Gold.Chemscore.Internal_Hbond>
0.0000

> <Gold.Chemscore.DEClash>
1.1055

> <Gold.Chemscore.DEInternal>
1.4805

> <Gold.Chemscore.Rot>
2.0927

> <Gold.Chemscore.Internal.Correction>
   9.000000E+99

> <Gold.Chemscore.Hbonds>
donor molecule, donor type, donor heavy atom, donor atom, acceptor molecule, acceptor atom, score
      L1  H    16    39       P1  7921  1.00

> <Gold.Chemscore.Hbond.Weighted>
-3.3214

> <Gold.Chemscore.Metal.Weighted>
-0.0000

> <Gold.Chemscore.Lipo.Weighted>
-9.8989

> <Gold.Chemscore.Internal_Hbond.Weighted>
0.0000

> <Gold.Chemscore.DEClash.Weighted>
1.1055

> <Gold.Chemscore.DEInternal.Weighted>
1.4805

> <Gold.Chemscore.Rot.Weighted>
5.3573

> <Gold.Chemscore.Internal.Correction.Weighted>
   9.000000E+99

> <Gold.Protein.RotatedTorsions>
[ 6907 6896 6895 6894 ] final   66.74 input  -60.11 | X-H torsion
[ 7974 7965 7964 7962 ] final  -14.24 input  175.53 | X-H torsion
[ 8008 7997 7996 7995 ] final  -35.62 input   59.86 | X-H torsion
[ 10167 10162 10161 10158 ] final  125.92 input  -65.29 | X-H torsion
[ 10718 10713 10712 10709 ] final  167.31 input   66.30 | X-H torsion
[ 10763 10752 10751 10750 ] final  179.91 input  -60.55 | X-H torsion
[ 11005 11000 10999 10996 ] final  -99.55 input  -57.11 | X-H torsion

> <Gold.Protein.ActiveResidues>
 VAL166  LYS551  ARG553  GLY616  TRP617  ASP618  TYR619  PRO620  LYS621  CYS622 
 ASP623  PHE694  ASN695  SER759  ASP760  ASP761  ALA762  ILE779  LEU786  VAL792 
 PHE793  MET794  SER795  GLU796  ALA797  LYS798  CYS799  TRP800  GLU811  SER814 

> <Gold.Protein.RotatedAtoms>
  152.4503  134.5408  159.9838 H   0  0  0  0  0  0  0  0  0  0  0  0  # atno 6907 bound_to 6896
  151.5482  133.3416  159.2956 H   0  0  0  0  0  0  0  0  0  0  0  0  # atno 6908 bound_to 6896
  150.8430  134.7760  159.7011 H   0  0  0  0  0  0  0  0  0  0  0  0  # atno 6909 bound_to 6896
  146.2082  140.3320  142.8400 H   0  0  0  0  0  0  0  0  0  0  0  0  # atno 7974 bound_to 7965
  154.4091  140.1652  156.2241 H   0  0  0  0  0  0  0  0  0  0  0  0  # atno 8008 bound_to 7997
  155.9338  140.3413  155.6248 H   0  0  0  0  0  0  0  0  0  0  0  0  # atno 8009 bound_to 7997
  155.7073  140.0752  157.2376 H   0  0  0  0  0  0  0  0  0  0  0  0  # atno 8010 bound_to 7997
  139.5659  144.6911  151.3911 H   0  0  0  0  0  0  0  0  0  0  0  0  # atno 10167 bound_to 10162
  157.0534  131.0320  151.2672 H   0  0  0  0  0  0  0  0  0  0  0  0  # atno 10718 bound_to 10713
  154.5268  135.2797  155.1215 H   0  0  0  0  0  0  0  0  0  0  0  0  # atno 10763 bound_to 10752
  154.2751  135.6296  153.5329 H   0  0  0  0  0  0  0  0  0  0  0  0  # atno 10764 bound_to 10752
  152.9948  135.5637  154.5771 H   0  0  0  0  0  0  0  0  0  0  0  0  # atno 10765 bound_to 10752
  141.1304  133.8330  157.0986 H   0  0  0  0  0  0  0  0  0  0  0  0  # atno 11005 bound_to 11000
  144.8845  140.7444  143.5965 LP  0  0  0  0  0  0  0  0  0  0  0  0  # atno 17320 bound_to 7965
  145.3241  139.1779  143.4572 LP  0  0  0  0  0  0  0  0  0  0  0  0  # atno 17321 bound_to 7965
  140.6943  143.7788  150.7302 LP  0  0  0  0  0  0  0  0  0  0  0  0  # atno 17342 bound_to 10162
  140.1279  143.4552  152.2272 LP  0  0  0  0  0  0  0  0  0  0  0  0  # atno 17343 bound_to 10162
  157.5012  130.7881  149.7606 LP  0  0  0  0  0  0  0  0  0  0  0  0  # atno 17370 bound_to 10713
  156.0000  130.3885  150.2642 LP  0  0  0  0  0  0  0  0  0  0  0  0  # atno 17371 bound_to 10713
  140.0347  134.9884  157.0849 LP  0  0  0  0  0  0  0  0  0  0  0  0  # atno 17394 bound_to 11000
  140.4229  134.1862  155.7165 LP  0  0  0  0  0  0  0  0  0  0  0  0  # atno 17395 bound_to 11000

$$$$
