AV-unprocessed.smi:2397|AV-procd|sdf|9494|dock4
  -GOLD-   2272013123D 1   1.00000     0.00000
 Structure written by MMmdl.
 36 37  0  0  0  0  0  0  0  0  1 V2000
  153.9368  141.6823  160.1414 C   0  0  0  0  0  0  0  0  0  0  0  0
  153.0161  142.8815  160.4161 C   0  0  0  0  0  0  0  0  0  0  0  0
  152.6433  143.0239  161.9002 C   0  0  0  0  0  0  0  0  0  0  0  0
  151.7848  142.8710  159.5196 C   0  0  0  0  0  0  0  0  0  0  0  0
  150.8725  143.8246  159.7302 N   0  0  0  0  0  0  0  0  0  0  0  0
  149.7792  143.8082  158.9389 C   0  0  0  0  0  0  0  0  0  0  0  0
  149.5995  142.8315  157.9392 C   0  0  0  0  0  0  0  0  0  0  0  0
  150.6219  141.8661  157.8024 C   0  0  0  0  0  0  0  0  0  0  0  0
  150.5145  140.8591  156.8190 N   0  0  0  0  0  0  0  0  0  0  0  0
  149.8837  141.3933  155.6125 C   0  0  0  0  0  0  0  0  0  0  0  0
  149.6213  140.2807  154.5894 C   0  0  0  0  0  0  0  0  0  0  0  0
  150.8465  139.6257  154.2977 O   0  0  0  0  0  0  0  0  0  0  0  0
  151.3788  138.9854  155.4500 C   0  0  0  0  0  0  0  0  0  0  0  0
  151.6985  140.0163  156.5597 C   0  0  2  0  0  0  0  0  0  0  0  0
  152.2637  139.2360  157.7667 C   0  0  0  0  0  0  0  0  0  0  0  0
  151.4929  138.3114  158.3494 N   0  0  0  0  0  0  0  0  0  0  0  0
  153.3964  139.4800  158.1771 O   0  0  0  0  0  0  0  0  0  0  0  0
  151.7177  141.9050  158.5982 N   0  0  0  0  0  0  0  0  0  0  0  0
  154.2393  141.6524  159.0943 H   0  0  0  0  0  0  0  0  0  0  0  0
  153.4412  140.7388  160.3727 H   0  0  0  0  0  0  0  0  0  0  0  0
  154.8428  141.7370  160.7455 H   0  0  0  0  0  0  0  0  0  0  0  0
  153.5926  143.7725  160.1609 H   0  0  0  0  0  0  0  0  0  0  0  0
  152.0518  143.9237  162.0707 H   0  0  0  0  0  0  0  0  0  0  0  0
  153.5350  143.0912  162.5238 H   0  0  0  0  0  0  0  0  0  0  0  0
  152.0594  142.1712  162.2487 H   0  0  0  0  0  0  0  0  0  0  0  0
  149.0405  144.5781  159.1054 H   0  0  0  0  0  0  0  0  0  0  0  0
  148.7183  142.8230  157.3148 H   0  0  0  0  0  0  0  0  0  0  0  0
  148.9388  141.8831  155.8507 H   0  0  0  0  0  0  0  0  0  0  0  0
  150.5328  142.1529  155.1729 H   0  0  0  0  0  0  0  0  0  0  0  0
  148.8850  139.5668  154.9625 H   0  0  0  0  0  0  0  0  0  0  0  0
  149.2179  140.7035  153.6692 H   0  0  0  0  0  0  0  0  0  0  0  0
  150.6747  138.2293  155.8035 H   0  0  0  0  0  0  0  0  0  0  0  0
  152.2836  138.4540  155.1516 H   0  0  0  0  0  0  0  0  0  0  0  0
  152.4938  140.6640  156.1859 H   0  0  0  0  0  0  0  0  0  0  0  0
  151.8455  137.7883  159.1378 H   0  0  0  0  0  0  0  0  0  0  0  0
  150.5629  138.1384  157.9963 H   0  0  0  0  0  0  0  0  0  0  0  0
  1  2  1  0  0  0  0
  1 19  1  0  0  0  0
  1 20  1  0  0  0  0
  1 21  1  0  0  0  0
  2  3  1  0  0  0  0
  2  4  1  0  0  0  0
  2 22  1  0  0  0  0
  3 23  1  0  0  0  0
  3 24  1  0  0  0  0
  3 25  1  0  0  0  0
  4 18  1  0  0  0  0
  4  5  2  0  0  0  0
  5  6  1  0  0  0  0
  6  7  2  0  0  0  0
  6 26  1  0  0  0  0
  7  8  1  0  0  0  0
  7 27  1  0  0  0  0
  8  9  1  0  0  0  0
  8 18  2  0  0  0  0
  9 14  1  0  0  0  0
  9 10  1  0  0  0  0
 10 11  1  0  0  0  0
 10 28  1  0  0  0  0
 10 29  1  0  0  0  0
 11 12  1  0  0  0  0
 11 30  1  0  0  0  0
 11 31  1  0  0  0  0
 12 13  1  0  0  0  0
 13 14  1  0  0  0  0
 13 32  1  0  0  0  0
 13 33  1  0  0  0  0
 14 15  1  0  0  0  0
 14 34  1  0  0  0  0
 15 16  1  0  0  0  0
 15 17  2  0  0  0  0
 16 35  1  0  0  0  0
 16 36  1  0  0  0  0
M  END
> <s_m_source_file>
AV-unprocessed.smi

> <i_m_source_file_index>
2397

> <i_lp_mmshare_version>
43012

> <i_f3d_flags>
0

> <s_epik_input>
W0NIM11bQ0hdKFtDSDNdKWMxbltjSF1bY0hdYyhuMSlOMltDSDJdW0NIMl1PW0NIMl1bQ0BIXTJDKD1PKVtOSDJd

> <s_epik_cmdline>
J2VwaWtfcHl0aG9uJywgJy1waCcsICc3LjAnLCAnLXRuJywgJzgnLCAnLW1hJywgJzIwMCcsICctbWV0YWxfYmluZGluZycsICctaW1hZScsICc8aW5maWxlLm1hZT4nLCAnLW9tYWUnLCAnPG91dGZpbGUubWFlPic=

> <r_lp_tautomer_probability>
1

> <r_epik_Ionization_Penalty>
0.0323151

> <r_epik_Ionization_Penalty_Charging>
0

> <r_epik_Ionization_Penalty_Neutral>
0.0323151

> <r_epik_State_Penalty>
0.0267324

> <r_epik_Charging_Adjusted_Penalty>
0.0267324

> <i_epik_Tot_Q>
0

> <i_epik_Tot_abs_Q>
0

> <r_epik_Metal_State_Penalty>
0.0253461

> <b_epik_Metal_Only>
0

> <s_lp_Force_Field>
OPLS_2005

> <r_lp_Energy>
6.15108

> <b_lp_Chiralities_Consistent>
1

> <s_lp_Variant>
AV-unprocessed.smi:2397-2

> <Gold.Version>
5.8.1

> <Gold.Id.Protein>
6NUR|6NUR_protein|mol2

> <Gold.PLP.Fitness>
41.1074

> <Gold.PLP.PLP>
-33.3194

> <Gold.PLP.part.hbond>
-2.0000

> <Gold.PLP.part.metal>
0.0000

> <Gold.PLP.part.buried>
-2.6688

> <Gold.PLP.part.nonpolar>
-28.6124

> <Gold.PLP.part.repulsive>
0.3377

> <Gold.PLP.ligand.clash>
0.0000

> <Gold.PLP.ligand.torsion>
0.5720

> <Gold.PLP.Chemscore.Hbond>
2.0000

> <Gold.PLP.Chemscore.CHOScore>
0.8878

> <Gold.PLP.Chemscore.Metal>
0.0000

> <Gold.Chemscore.Hbonds>
donor molecule, donor type, donor heavy atom, donor atom, acceptor molecule, acceptor atom, score
      P1  H  7989  7998       L1    12  1.00
      P1  H  7997  8010       L1    17  1.00
      L1  C     6    26       P1  8029  0.85

> <Gold.PLP.Chemscore.Internal.Correction>
0.2685

> <Gold.Rescore>
     Score         DG    S(hbond)    S(metal)    S(lipo)     H(rot)  DE(clash)    DE(int)     intcor
     13.67     -15.35       1.80        0.00      71.26       1.74       0.04       1.65       ----

> <Gold.Chemscore.Fitness>
13.6655

> <Gold.Chemscore.DG>
-15.3524

> <Gold.Chemscore.ZeroCoef>
-5.4800

> <Gold.Chemscore.Hbond>
1.7952

> <Gold.Chemscore.Metal>
0.0000

> <Gold.Chemscore.Lipo>
71.2610

> <Gold.Chemscore.Internal_Hbond>
0.0000

> <Gold.Chemscore.DEClash>
0.0359

> <Gold.Chemscore.DEInternal>
1.6511

> <Gold.Chemscore.Rot>
1.7426

> <Gold.Chemscore.Internal.Correction>
   9.000000E+99

> <Gold.Chemscore.Hbonds>
donor molecule, donor type, donor heavy atom, donor atom, acceptor molecule, acceptor atom, score
      P1  H  7989  7998       L1    12  0.25
      P1  H  7997  8010       L1    17  0.88

> <Gold.Chemscore.Hbond.Weighted>
-5.9959

> <Gold.Chemscore.Metal.Weighted>
-0.0000

> <Gold.Chemscore.Lipo.Weighted>
-8.3375

> <Gold.Chemscore.Internal_Hbond.Weighted>
0.0000

> <Gold.Chemscore.DEClash.Weighted>
0.0359

> <Gold.Chemscore.DEInternal.Weighted>
1.6511

> <Gold.Chemscore.Rot.Weighted>
4.4610

> <Gold.Chemscore.Internal.Correction.Weighted>
   9.000000E+99

> <Gold.Protein.RotatedTorsions>
[ 6907 6896 6895 6894 ] final -130.84 input  -60.11 | X-H torsion
[ 7974 7965 7964 7962 ] final   83.76 input  175.53 | X-H torsion
[ 8008 7997 7996 7995 ] final   43.80 input   59.86 | X-H torsion
[ 10167 10162 10161 10158 ] final -154.32 input  -65.29 | X-H torsion
[ 10718 10713 10712 10709 ] final -131.85 input   66.30 | X-H torsion
[ 10763 10752 10751 10750 ] final   65.49 input  -60.55 | X-H torsion
[ 11005 11000 10999 10996 ] final   22.47 input  -57.11 | X-H torsion

> <Gold.Protein.ActiveResidues>
 VAL166  LYS551  ARG553  GLY616  TRP617  ASP618  TYR619  PRO620  LYS621  CYS622 
 ASP623  PHE694  ASN695  SER759  ASP760  ASP761  ALA762  ILE779  LEU786  VAL792 
 PHE793  MET794  SER795  GLU796  ALA797  LYS798  CYS799  TRP800  GLU811  SER814 

> <Gold.Protein.RotatedAtoms>
  150.9442  133.6622  159.2784 H   0  0  0  0  0  0  0  0  0  0  0  0  # atno 6907 bound_to 6896
  151.4000  135.0968  159.9562 H   0  0  0  0  0  0  0  0  0  0  0  0  # atno 6908 bound_to 6896
  152.5082  133.8938  159.7462 H   0  0  0  0  0  0  0  0  0  0  0  0  # atno 6909 bound_to 6896
  145.6077  139.2363  143.2210 H   0  0  0  0  0  0  0  0  0  0  0  0  # atno 7974 bound_to 7965
  155.3087  140.3389  155.4245 H   0  0  0  0  0  0  0  0  0  0  0  0  # atno 8008 bound_to 7997
  156.1966  140.1717  156.8023 H   0  0  0  0  0  0  0  0  0  0  0  0  # atno 8009 bound_to 7997
  154.5507  140.0706  156.8646 H   0  0  0  0  0  0  0  0  0  0  0  0  # atno 8010 bound_to 7997
  139.7023  143.9243  152.2434 H   0  0  0  0  0  0  0  0  0  0  0  0  # atno 10167 bound_to 10162
  156.2286  130.7023  151.0834 H   0  0  0  0  0  0  0  0  0  0  0  0  # atno 10718 bound_to 10713
  153.0099  135.5355  154.6675 H   0  0  0  0  0  0  0  0  0  0  0  0  # atno 10763 bound_to 10752
  154.5868  135.2855  155.0679 H   0  0  0  0  0  0  0  0  0  0  0  0  # atno 10764 bound_to 10752
  154.1787  135.6520  153.5081 H   0  0  0  0  0  0  0  0  0  0  0  0  # atno 10765 bound_to 10752
  140.3802  134.1928  155.7664 H   0  0  0  0  0  0  0  0  0  0  0  0  # atno 11005 bound_to 11000
  146.1528  140.6901  142.9314 LP  0  0  0  0  0  0  0  0  0  0  0  0  # atno 17320 bound_to 7965
  144.7283  140.4593  143.6957 LP  0  0  0  0  0  0  0  0  0  0  0  0  # atno 17321 bound_to 7965
  139.9089  144.6868  150.8584 LP  0  0  0  0  0  0  0  0  0  0  0  0  # atno 17342 bound_to 10162
  140.7713  143.3458  151.2114 LP  0  0  0  0  0  0  0  0  0  0  0  0  # atno 17343 bound_to 10162
  157.7122  131.0728  150.6458 LP  0  0  0  0  0  0  0  0  0  0  0  0  # atno 17370 bound_to 10713
  156.6525  130.4489  149.5714 LP  0  0  0  0  0  0  0  0  0  0  0  0  # atno 17371 bound_to 10713
  141.1926  133.8170  157.0834 LP  0  0  0  0  0  0  0  0  0  0  0  0  # atno 17394 bound_to 11000
  140.0484  134.9818  157.1091 LP  0  0  0  0  0  0  0  0  0  0  0  0  # atno 17395 bound_to 11000

$$$$
