AV-unprocessed.smi:2340|AV-procd|sdf|9349|dock1
  -GOLD-   2272012573D 1   1.00000     0.00000
 Structure written by MMmdl.
 40 41  0  0  0  0  0  0  0  0  1 V2000
  151.0502  144.8780  158.2032 C   0  0  0  0  0  0  0  0  0  0  0  0
  151.8053  144.1150  159.2455 C   0  0  0  0  0  0  0  0  0  0  0  0
  152.0156  144.4841  160.5505 C   0  0  0  0  0  0  0  0  0  0  0  0
  152.9473  143.2957  161.4190 S   0  0  0  0  0  0  0  0  0  0  0  0
  153.0193  142.3228  159.9519 C   0  0  0  0  0  0  0  0  0  0  0  0
  153.7056  140.9920  159.8712 C   0  0  1  0  0  0  0  0  0  0  0  0
  155.1170  141.0398  160.4732 C   0  0  0  0  0  0  0  0  0  0  0  0
  152.8580  139.8414  160.4578 C   0  0  0  0  0  0  0  0  0  0  0  0
  151.5496  139.7190  159.8209 N   0  0  0  0  0  0  0  0  0  0  0  0
  151.3280  139.1656  158.6212 C   0  0  0  0  0  0  0  0  0  0  0  0
  152.2059  138.6593  157.9226 O   0  0  0  0  0  0  0  0  0  0  0  0
  150.0350  139.2357  158.2762 N   0  0  0  0  0  0  0  0  0  0  0  0
  149.4639  138.7443  157.0223 C   0  0  2  0  0  0  0  0  0  0  0  0
  147.9901  139.1331  156.9178 C   0  0  0  0  0  0  0  0  0  0  0  0
  147.2852  137.8311  156.5527 C   0  0  0  0  0  0  0  0  0  0  0  0
  148.0971  136.8405  157.1575 O   0  0  0  0  0  0  0  0  0  0  0  0
  149.4482  137.2018  156.9117 C   0  0  2  0  0  0  0  0  0  0  0  0
  150.3835  136.4122  157.8419 C   0  0  0  0  0  0  0  0  0  0  0  0
  152.3821  142.8845  158.9203 N   0  0  0  0  0  0  0  0  0  0  0  0
  150.7011  145.8375  158.5855 H   0  0  0  0  0  0  0  0  0  0  0  0
  150.1765  144.3208  157.8642 H   0  0  0  0  0  0  0  0  0  0  0  0
  151.6746  145.0788  157.3323 H   0  0  0  0  0  0  0  0  0  0  0  0
  151.6797  145.3792  161.0528 H   0  0  0  0  0  0  0  0  0  0  0  0
  153.8371  140.7752  158.8097 H   0  0  0  0  0  0  0  0  0  0  0  0
  155.7264  141.7999  159.9836 H   0  0  0  0  0  0  0  0  0  0  0  0
  155.6258  140.0827  160.3553 H   0  0  0  0  0  0  0  0  0  0  0  0
  155.0885  141.2709  161.5382 H   0  0  0  0  0  0  0  0  0  0  0  0
  153.3976  138.8953  160.3916 H   0  0  0  0  0  0  0  0  0  0  0  0
  152.6833  140.0203  161.5191 H   0  0  0  0  0  0  0  0  0  0  0  0
  150.7622  140.1080  160.3187 H   0  0  0  0  0  0  0  0  0  0  0  0
  149.3940  139.6681  158.9249 H   0  0  0  0  0  0  0  0  0  0  0  0
  150.0081  139.1577  156.1711 H   0  0  0  0  0  0  0  0  0  0  0  0
  147.6103  139.4899  157.8764 H   0  0  0  0  0  0  0  0  0  0  0  0
  147.8134  139.9174  156.1815 H   0  0  0  0  0  0  0  0  0  0  0  0
  146.2588  137.7905  156.9179 H   0  0  0  0  0  0  0  0  0  0  0  0
  147.2732  137.6839  155.4714 H   0  0  0  0  0  0  0  0  0  0  0  0
  149.6735  136.9285  155.8792 H   0  0  0  0  0  0  0  0  0  0  0  0
  151.4253  136.6886  157.6784 H   0  0  0  0  0  0  0  0  0  0  0  0
  150.2943  135.3413  157.6594 H   0  0  0  0  0  0  0  0  0  0  0  0
  150.1469  136.5852  158.8919 H   0  0  0  0  0  0  0  0  0  0  0  0
  1  2  1  0  0  0  0
  1 20  1  0  0  0  0
  1 21  1  0  0  0  0
  1 22  1  0  0  0  0
  2 19  1  0  0  0  0
  2  3  2  0  0  0  0
  3  4  1  0  0  0  0
  3 23  1  0  0  0  0
  4  5  1  0  0  0  0
  5  6  1  0  0  0  0
  5 19  2  0  0  0  0
  6  7  1  0  0  0  0
  6  8  1  0  0  0  0
  6 24  1  0  0  0  0
  7 25  1  0  0  0  0
  7 26  1  0  0  0  0
  7 27  1  0  0  0  0
  8  9  1  0  0  0  0
  8 28  1  0  0  0  0
  8 29  1  0  0  0  0
  9 10  1  0  0  0  0
  9 30  1  0  0  0  0
 10 11  2  0  0  0  0
 10 12  1  0  0  0  0
 12 13  1  0  0  0  0
 12 31  1  0  0  0  0
 13 17  1  0  0  0  0
 13 14  1  0  0  0  0
 13 32  1  0  0  0  0
 14 15  1  0  0  0  0
 14 33  1  0  0  0  0
 14 34  1  0  0  0  0
 15 16  1  0  0  0  0
 15 35  1  0  0  0  0
 15 36  1  0  0  0  0
 16 17  1  0  0  0  0
 17 18  1  0  0  0  0
 17 37  1  0  0  0  0
 18 38  1  0  0  0  0
 18 39  1  0  0  0  0
 18 40  1  0  0  0  0
M  END
> <s_m_source_file>
AV-unprocessed.smi

> <i_m_source_file_index>
2340

> <i_lp_mmshare_version>
43012

> <i_f3d_flags>
0

> <s_epik_input>
W0NIM11jMVtjSF1zYyhuMSlbQ0BIXShbQ0gzXSlbQ0gyXVtOSF1DKD1PKVtOSF1bQ0BASF0yW0NIMl1bQ0gyXU9bQ0BIXTJbQ0gzXQ==

> <s_epik_cmdline>
J2VwaWtfcHl0aG9uJywgJy1waCcsICc3LjAnLCAnLXRuJywgJzgnLCAnLW1hJywgJzIwMCcsICctbWV0YWxfYmluZGluZycsICctaW1hZScsICc8aW5maWxlLm1hZT4nLCAnLW9tYWUnLCAnPG91dGZpbGUubWFlPic=

> <r_epik_Ionization_Penalty>
0.00156622

> <r_epik_Ionization_Penalty_Charging>
0

> <r_epik_Ionization_Penalty_Neutral>
0.00156622

> <r_epik_State_Penalty>
0.00101902

> <r_epik_Charging_Adjusted_Penalty>
0.00101902

> <i_epik_Tot_Q>
0

> <i_epik_Tot_abs_Q>
0

> <r_epik_Metal_State_Penalty>
-0

> <b_epik_Metal_Only>
0

> <s_lp_Force_Field>
OPLS_2005

> <r_lp_Energy>
5.61614

> <b_lp_Chiralities_Consistent>
1

> <s_lp_Variant>
AV-unprocessed.smi:2340-6

> <Gold.Version>
5.8.1

> <Gold.Id.Protein>
6NUR|6NUR_protein|mol2

> <Gold.PLP.Fitness>
45.8780

> <Gold.PLP.PLP>
-43.9375

> <Gold.PLP.part.hbond>
-1.0000

> <Gold.PLP.part.metal>
0.0000

> <Gold.PLP.part.buried>
-3.2802

> <Gold.PLP.part.nonpolar>
-38.4036

> <Gold.PLP.part.repulsive>
0.3348

> <Gold.PLP.ligand.clash>
0.0000

> <Gold.PLP.ligand.torsion>
0.5966

> <Gold.PLP.Chemscore.Hbond>
1.0000

> <Gold.PLP.Chemscore.CHOScore>
0.0000

> <Gold.PLP.Chemscore.Metal>
0.0000

> <Gold.PLP.Chemscore.Internal.Correction>
0.1336

> <Gold.Rescore>
     Score         DG    S(hbond)    S(metal)    S(lipo)     H(rot)  DE(clash)    DE(int)     intcor
     16.61     -18.80       0.99        0.00     119.01       1.53       0.01       2.17       ----

> <Gold.Chemscore.Fitness>
16.6139

> <Gold.Chemscore.DG>
-18.7987

> <Gold.Chemscore.ZeroCoef>
-5.4800

> <Gold.Chemscore.Hbond>
0.9932

> <Gold.Chemscore.Metal>
0.0000

> <Gold.Chemscore.Lipo>
119.0147

> <Gold.Chemscore.Internal_Hbond>
0.0000

> <Gold.Chemscore.DEClash>
0.0124

> <Gold.Chemscore.DEInternal>
2.1724

> <Gold.Chemscore.Rot>
1.5325

> <Gold.Chemscore.Internal.Correction>
   9.000000E+99

> <Gold.Chemscore.Hbond.Weighted>
-3.3173

> <Gold.Chemscore.Metal.Weighted>
-0.0000

> <Gold.Chemscore.Lipo.Weighted>
-13.9247

> <Gold.Chemscore.Internal_Hbond.Weighted>
0.0000

> <Gold.Chemscore.DEClash.Weighted>
0.0124

> <Gold.Chemscore.DEInternal.Weighted>
2.1724

> <Gold.Chemscore.Rot.Weighted>
3.9233

> <Gold.Chemscore.Internal.Correction.Weighted>
   9.000000E+99

> <Gold.Protein.RotatedTorsions>
[ 6907 6896 6895 6894 ] final   -7.19 input  -60.11 | X-H torsion
[ 7974 7965 7964 7962 ] final -158.33 input  175.53 | X-H torsion
[ 8008 7997 7996 7995 ] final  170.67 input   59.86 | X-H torsion
[ 10167 10162 10161 10158 ] final  178.02 input  -65.29 | X-H torsion
[ 10718 10713 10712 10709 ] final  -45.49 input   66.30 | X-H torsion
[ 10763 10752 10751 10750 ] final   47.01 input  -60.55 | X-H torsion
[ 11005 11000 10999 10996 ] final -159.87 input  -57.11 | X-H torsion

> <Gold.Protein.ActiveResidues>
 VAL166  LYS551  ARG553  GLY616  TRP617  ASP618  TYR619  PRO620  LYS621  CYS622 
 ASP623  PHE694  ASN695  SER759  ASP760  ASP761  ALA762  ILE779  LEU786  VAL792 
 PHE793  MET794  SER795  GLU796  ALA797  LYS798  CYS799  TRP800  GLU811  SER814 

> <Gold.Protein.RotatedAtoms>
  151.4535  135.1032  159.9704 H   0  0  0  0  0  0  0  0  0  0  0  0  # atno 6907 bound_to 6896
  152.4879  133.8418  159.7167 H   0  0  0  0  0  0  0  0  0  0  0  0  # atno 6908 bound_to 6896
  150.9006  133.7064  159.2907 H   0  0  0  0  0  0  0  0  0  0  0  0  # atno 6909 bound_to 6896
  144.7510  140.3843  143.6048 H   0  0  0  0  0  0  0  0  0  0  0  0  # atno 7974 bound_to 7965
  156.1344  140.1532  156.9017 H   0  0  0  0  0  0  0  0  0  0  0  0  # atno 8008 bound_to 7997
  154.4935  140.0844  156.7685 H   0  0  0  0  0  0  0  0  0  0  0  0  # atno 8009 bound_to 7997
  155.4197  140.3422  155.4272 H   0  0  0  0  0  0  0  0  0  0  0  0  # atno 8010 bound_to 7997
  139.5276  144.2730  152.0612 H   0  0  0  0  0  0  0  0  0  0  0  0  # atno 10167 bound_to 10162
  156.2278  130.4170  149.8912 H   0  0  0  0  0  0  0  0  0  0  0  0  # atno 10718 bound_to 10713
  152.9804  135.5990  154.3693 H   0  0  0  0  0  0  0  0  0  0  0  0  # atno 10763 bound_to 10752
  154.3368  135.2768  155.2445 H   0  0  0  0  0  0  0  0  0  0  0  0  # atno 10764 bound_to 10752
  154.4545  135.5981  153.6269 H   0  0  0  0  0  0  0  0  0  0  0  0  # atno 10765 bound_to 10752
  140.6378  134.4583  157.5232 H   0  0  0  0  0  0  0  0  0  0  0  0  # atno 11005 bound_to 11000
  145.6944  139.1646  143.2628 LP  0  0  0  0  0  0  0  0  0  0  0  0  # atno 17320 bound_to 7965
  146.1460  140.6992  142.9344 LP  0  0  0  0  0  0  0  0  0  0  0  0  # atno 17321 bound_to 7965
  140.2189  144.4487  150.6351 LP  0  0  0  0  0  0  0  0  0  0  0  0  # atno 17342 bound_to 10162
  140.6432  143.2208  151.6245 LP  0  0  0  0  0  0  0  0  0  0  0  0  # atno 17343 bound_to 10162
  156.6536  130.8753  151.3535 LP  0  0  0  0  0  0  0  0  0  0  0  0  # atno 17370 bound_to 10713
  157.7119  130.9450  150.1118 LP  0  0  0  0  0  0  0  0  0  0  0  0  # atno 17371 bound_to 10713
  139.9091  134.8383  156.1593 LP  0  0  0  0  0  0  0  0  0  0  0  0  # atno 17394 bound_to 11000
  141.0628  133.6833  156.1987 LP  0  0  0  0  0  0  0  0  0  0  0  0  # atno 17395 bound_to 11000

$$$$
