AV-unprocessed.smi:1596|AV-procd|sdf|6416|dock5
  -GOLD-   22720 7 53D 1   1.00000     0.00000
 Structure written by MMmdl.
 49 50  0  0  0  0  0  0  0  0  2 V2000
  152.1973  145.0193  158.6644 C   0  0  0  0  0  0  0  0  0  0  0  0
  151.6031  143.9308  157.7578 C   0  0  0  0  0  0  0  0  0  0  0  0
  151.9835  142.5740  158.1585 N   0  0  0  0  0  0  0  0  0  0  0  0
  153.0187  142.3894  159.1757 C   0  0  0  0  0  0  0  0  0  0  0  0
  152.5167  142.6402  160.6053 C   0  0  0  0  0  0  0  0  0  0  0  0
  151.4848  141.4600  157.4395 C   0  0  0  0  0  0  0  0  0  0  0  0
  150.7243  141.5711  156.2481 C   0  0  0  0  0  0  0  0  0  0  0  0
  150.2654  140.4098  155.5930 C   0  0  0  0  0  0  0  0  0  0  0  0
  150.5733  139.1381  156.1183 C   0  0  0  0  0  0  0  0  0  0  0  0
  150.0758  137.9964  155.4331 N   0  0  0  0  0  0  0  0  0  0  0  0
  150.5779  136.7495  155.4115 C   0  0  0  0  0  0  0  0  0  0  0  0
  151.6166  136.3925  155.9667 O   0  0  0  0  0  0  0  0  0  0  0  0
  149.8091  135.9287  154.6812 N   0  0  0  0  0  0  0  0  0  0  0  0
  150.0757  134.5126  154.4453 C   0  0  2  0  0  0  0  0  0  0  0  0
  148.8502  133.8291  153.8035 C   0  0  0  0  0  0  0  0  0  0  0  0
  149.0826  132.3212  153.6142 C   0  0  0  0  0  0  0  0  0  0  0  0
  149.4581  131.6462  154.9445 C   0  0  1  0  0  0  0  0  0  0  0  0
  149.7331  130.2798  154.7194 O   0  0  0  0  0  0  0  0  0  0  0  0
  150.6861  132.3205  155.5801 C   0  0  0  0  0  0  0  0  0  0  0  0
  150.4518  133.8277  155.7729 C   0  0  0  0  0  0  0  0  0  0  0  0
  151.3267  139.0760  157.3140 C   0  0  0  0  0  0  0  0  0  0  0  0
  151.7431  140.2144  157.9088 N   0  3  0  0  0  0  0  0  0  0  0  0
  151.9074  146.0091  158.3120 H   0  0  0  0  0  0  0  0  0  0  0  0
  153.2868  144.9820  158.6773 H   0  0  0  0  0  0  0  0  0  0  0  0
  151.8468  144.9256  159.6912 H   0  0  0  0  0  0  0  0  0  0  0  0
  150.5160  144.0120  157.7744 H   0  0  0  0  0  0  0  0  0  0  0  0
  151.8887  144.1088  156.7207 H   0  0  0  0  0  0  0  0  0  0  0  0
  153.3961  141.3686  159.1097 H   0  0  0  0  0  0  0  0  0  0  0  0
  153.8779  143.0225  158.9557 H   0  0  0  0  0  0  0  0  0  0  0  0
  153.3337  142.5355  161.3195 H   0  0  0  0  0  0  0  0  0  0  0  0
  151.7448  141.9270  160.8911 H   0  0  0  0  0  0  0  0  0  0  0  0
  152.1058  143.6431  160.7203 H   0  0  0  0  0  0  0  0  0  0  0  0
  150.4742  142.5299  155.8209 H   0  0  0  0  0  0  0  0  0  0  0  0
  149.6827  140.5006  154.6880 H   0  0  0  0  0  0  0  0  0  0  0  0
  149.2599  138.1551  154.8601 H   0  0  0  0  0  0  0  0  0  0  0  0
  148.9761  136.3087  154.2561 H   0  0  0  0  0  0  0  0  0  0  0  0
  150.9262  134.4184  153.7671 H   0  0  0  0  0  0  0  0  0  0  0  0
  147.9705  133.9822  154.4305 H   0  0  0  0  0  0  0  0  0  0  0  0
  148.6250  134.2863  152.8392 H   0  0  0  0  0  0  0  0  0  0  0  0
  148.1862  131.8594  153.1987 H   0  0  0  0  0  0  0  0  0  0  0  0
  149.8774  132.1687  152.8824 H   0  0  0  0  0  0  0  0  0  0  0  0
  148.6142  131.7088  155.6329 H   0  0  0  0  0  0  0  0  0  0  0  0
  149.3895  129.7804  155.4444 H   0  0  0  0  0  0  0  0  0  0  0  0
  150.9143  131.8570  156.5406 H   0  0  0  0  0  0  0  0  0  0  0  0
  151.5620  132.1700  154.9471 H   0  0  0  0  0  0  0  0  0  0  0  0
  151.3491  134.2871  156.1896 H   0  0  0  0  0  0  0  0  0  0  0  0
  149.6581  133.9783  156.5063 H   0  0  0  0  0  0  0  0  0  0  0  0
  151.6050  138.1693  157.8294 H   0  0  0  0  0  0  0  0  0  0  0  0
  152.2843  140.1300  158.7695 H   0  0  0  0  0  0  0  0  0  0  0  0
  1  2  1  0  0  0  0
  1 23  1  0  0  0  0
  1 24  1  0  0  0  0
  1 25  1  0  0  0  0
  2  3  1  0  0  0  0
  2 26  1  0  0  0  0
  2 27  1  0  0  0  0
  3  4  1  0  0  0  0
  3  6  1  0  0  0  0
  4  5  1  0  0  0  0
  4 28  1  0  0  0  0
  4 29  1  0  0  0  0
  5 30  1  0  0  0  0
  5 31  1  0  0  0  0
  5 32  1  0  0  0  0
  6 22  1  0  0  0  0
  6  7  2  0  0  0  0
  7  8  1  0  0  0  0
  7 33  1  0  0  0  0
  8  9  2  0  0  0  0
  8 34  1  0  0  0  0
  9 10  1  0  0  0  0
  9 21  1  0  0  0  0
 10 11  1  0  0  0  0
 10 35  1  0  0  0  0
 11 12  2  0  0  0  0
 11 13  1  0  0  0  0
 13 14  1  0  0  0  0
 13 36  1  0  0  0  0
 14 20  1  0  0  0  0
 14 15  1  0  0  0  0
 14 37  1  0  0  0  0
 15 16  1  0  0  0  0
 15 38  1  0  0  0  0
 15 39  1  0  0  0  0
 16 17  1  0  0  0  0
 16 40  1  0  0  0  0
 16 41  1  0  0  0  0
 17 18  1  0  0  0  0
 17 19  1  0  0  0  0
 17 42  1  0  0  0  0
 18 43  1  0  0  0  0
 19 20  1  0  0  0  0
 19 44  1  0  0  0  0
 19 45  1  0  0  0  0
 20 46  1  0  0  0  0
 20 47  1  0  0  0  0
 21 22  2  0  0  0  0
 21 48  1  0  0  0  0
 22 49  1  0  0  0  0
M  CHG  1  22   1
M  END
> <s_m_source_file>
AV-unprocessed.smi

> <i_m_source_file_index>
1596

> <i_lp_mmshare_version>
43012

> <i_f3d_flags>
0

> <s_epik_input>
W0NIM11bQ0gyXU4oW0NIMl1bQ0gzXSljMVtjSF1bY0hdYyhbY0hdbjEpW05IXUMoPU8pW05IXVtDQEBIXTJbQ0gyXVtDSDJdW0NAQEhdKFtPSF0pW0NIMl1bQ0gyXTI=

> <s_epik_cmdline>
J2VwaWtfcHl0aG9uJywgJy1waCcsICc3LjAnLCAnLXRuJywgJzgnLCAnLW1hJywgJzIwMCcsICctbWV0YWxfYmluZGluZycsICctaW1hZScsICc8aW5maWxlLm1hZT4nLCAnLW9tYWUnLCAnPG91dGZpbGUubWFlPic=

> <r_lp_tautomer_probability>
0.999994

> <r_epik_Ionization_Penalty>
0.224167

> <r_epik_Ionization_Penalty_Charging>
0.224146

> <r_epik_Ionization_Penalty_Neutral>
2.1696e-05

> <r_epik_State_Penalty>
0.0144855

> <r_epik_Charging_Adjusted_Penalty>
0.238631

> <i_epik_Tot_Q>
1

> <i_epik_Tot_abs_Q>
1

> <r_epik_Metal_State_Penalty>
0.0446449

> <b_epik_Metal_Only>
0

> <s_lp_Force_Field>
OPLS_2005

> <r_lp_Energy>
22.6617

> <b_lp_Chiralities_Consistent>
1

> <s_lp_Variant>
AV-unprocessed.smi:1596-1

> <Gold.Version>
5.8.1

> <Gold.Id.Protein>
6NUR|6NUR_protein|mol2

> <Gold.PLP.Fitness>
45.6261

> <Gold.PLP.PLP>
-43.5173

> <Gold.PLP.part.hbond>
-2.0000

> <Gold.PLP.part.metal>
0.0000

> <Gold.PLP.part.buried>
-4.4598

> <Gold.PLP.part.nonpolar>
-36.8559

> <Gold.PLP.part.repulsive>
0.1672

> <Gold.PLP.ligand.clash>
0.0000

> <Gold.PLP.ligand.torsion>
0.5565

> <Gold.PLP.Chemscore.Hbond>
1.0395

> <Gold.PLP.Chemscore.CHOScore>
0.0000

> <Gold.PLP.Chemscore.Metal>
0.0000

> <Gold.Chemscore.Hbonds>
donor molecule, donor type, donor heavy atom, donor atom, acceptor molecule, acceptor atom, score
      L1  H    13    36       P1  7948  0.04
      P1  H 10752 10765       L1    12  1.00

> <Gold.PLP.Chemscore.Internal.Correction>
0.1032

> <Gold.Rescore>
     Score         DG    S(hbond)    S(metal)    S(lipo)     H(rot)  DE(clash)    DE(int)     intcor
     13.67     -16.44       1.00        0.00     105.15       1.83       0.02       2.76       ----

> <Gold.Chemscore.Fitness>
13.6662

> <Gold.Chemscore.DG>
-16.4436

> <Gold.Chemscore.ZeroCoef>
-5.4800

> <Gold.Chemscore.Hbond>
1.0032

> <Gold.Chemscore.Metal>
0.0000

> <Gold.Chemscore.Lipo>
105.1461

> <Gold.Chemscore.Internal_Hbond>
0.0000

> <Gold.Chemscore.DEClash>
0.0170

> <Gold.Chemscore.DEInternal>
2.7604

> <Gold.Chemscore.Rot>
1.8317

> <Gold.Chemscore.Internal.Correction>
   9.000000E+99

> <Gold.Chemscore.Hbonds>
donor molecule, donor type, donor heavy atom, donor atom, acceptor molecule, acceptor atom, score
      L1  H    13    36       P1  7948  0.04
      P1  H 10752 10765       L1    12  0.92

> <Gold.Chemscore.Hbond.Weighted>
-3.3506

> <Gold.Chemscore.Metal.Weighted>
-0.0000

> <Gold.Chemscore.Lipo.Weighted>
-12.3021

> <Gold.Chemscore.Internal_Hbond.Weighted>
0.0000

> <Gold.Chemscore.DEClash.Weighted>
0.0170

> <Gold.Chemscore.DEInternal.Weighted>
2.7604

> <Gold.Chemscore.Rot.Weighted>
4.6892

> <Gold.Chemscore.Internal.Correction.Weighted>
   9.000000E+99

> <Gold.Protein.RotatedTorsions>
[ 6907 6896 6895 6894 ] final -179.47 input  -60.11 | X-H torsion
[ 7974 7965 7964 7962 ] final  157.70 input  175.53 | X-H torsion
[ 8008 7997 7996 7995 ] final  153.93 input   59.86 | X-H torsion
[ 10167 10162 10161 10158 ] final   55.29 input  -65.29 | X-H torsion
[ 10718 10713 10712 10709 ] final  123.77 input   66.30 | X-H torsion
[ 10763 10752 10751 10750 ] final -166.89 input  -60.55 | X-H torsion
[ 11005 11000 10999 10996 ] final   66.91 input  -57.11 | X-H torsion

> <Gold.Protein.ActiveResidues>
 VAL166  LYS551  ARG553  GLY616  TRP617  ASP618  TYR619  PRO620  LYS621  CYS622 
 ASP623  PHE694  ASN695  SER759  ASP760  ASP761  ALA762  ILE779  LEU786  VAL792 
 PHE793  MET794  SER795  GLU796  ALA797  LYS798  CYS799  TRP800  GLU811  SER814 

> <Gold.Protein.RotatedAtoms>
  151.6540  133.3319  159.3158 H   0  0  0  0  0  0  0  0  0  0  0  0  # atno 6907 bound_to 6896
  150.7946  134.7000  159.6554 H   0  0  0  0  0  0  0  0  0  0  0  0  # atno 6908 bound_to 6896
  152.4031  134.6256  160.0113 H   0  0  0  0  0  0  0  0  0  0  0  0  # atno 6909 bound_to 6896
  144.7888  139.7376  143.6230 H   0  0  0  0  0  0  0  0  0  0  0  0  # atno 7974 bound_to 7965
  156.2557  140.1980  156.6567 H   0  0  0  0  0  0  0  0  0  0  0  0  # atno 8008 bound_to 7997
  154.6495  140.0573  156.9964 H   0  0  0  0  0  0  0  0  0  0  0  0  # atno 8009 bound_to 7997
  155.1440  140.3245  155.4448 H   0  0  0  0  0  0  0  0  0  0  0  0  # atno 8010 bound_to 7997
  140.2210  144.3788  150.6451 H   0  0  0  0  0  0  0  0  0  0  0  0  # atno 10167 bound_to 10162
  157.5639  131.1088  150.8490 H   0  0  0  0  0  0  0  0  0  0  0  0  # atno 10718 bound_to 10713
  154.6787  135.2951  154.9643 H   0  0  0  0  0  0  0  0  0  0  0  0  # atno 10763 bound_to 10752
  154.0645  135.6627  153.4820 H   0  0  0  0  0  0  0  0  0  0  0  0  # atno 10764 bound_to 10752
  153.0533  135.5160  154.7819 H   0  0  0  0  0  0  0  0  0  0  0  0  # atno 10765 bound_to 10752
  139.9803  134.6755  156.0275 H   0  0  0  0  0  0  0  0  0  0  0  0  # atno 11005 bound_to 11000
  146.2132  139.5502  142.9667 LP  0  0  0  0  0  0  0  0  0  0  0  0  # atno 17320 bound_to 7965
  145.5849  141.0377  143.2102 LP  0  0  0  0  0  0  0  0  0  0  0  0  # atno 17321 bound_to 7965
  140.6255  143.2181  151.6606 LP  0  0  0  0  0  0  0  0  0  0  0  0  # atno 17342 bound_to 10162
  139.5144  144.3411  152.0739 LP  0  0  0  0  0  0  0  0  0  0  0  0  # atno 17343 bound_to 10162
  156.8980  130.5236  149.5283 LP  0  0  0  0  0  0  0  0  0  0  0  0  # atno 17370 bound_to 10713
  156.0688  130.5726  150.9343 LP  0  0  0  0  0  0  0  0  0  0  0  0  # atno 17371 bound_to 10713
  141.1476  133.6553  156.3914 LP  0  0  0  0  0  0  0  0  0  0  0  0  # atno 17394 bound_to 11000
  140.5110  134.6395  157.5284 LP  0  0  0  0  0  0  0  0  0  0  0  0  # atno 17395 bound_to 11000

$$$$
