AV-unprocessed.smi:2976|AV-procd|sdf|11361|dock7
  -GOLD-   2272016273D 1   1.00000     0.00000
 Structure written by MMmdl.
 40 41  0  0  0  0  0  0  0  0  1 V2000
  151.9421  145.2744  160.3968 C   0  0  0  0  0  0  0  0  0  0  0  0
  152.2657  144.1824  159.3604 C   0  0  2  0  0  0  0  0  0  0  0  0
  151.3466  144.3508  158.1337 C   0  0  0  0  0  0  0  0  0  0  0  0
  151.6413  143.3085  157.0496 C   0  0  0  0  0  0  0  0  0  0  0  0
  151.5050  141.8920  157.6149 C   0  0  0  0  0  0  0  0  0  0  0  0
  152.4276  141.6841  158.8287 C   0  0  2  0  0  0  0  0  0  0  0  0
  152.2235  140.3287  159.3394 N   0  0  0  0  0  0  0  0  0  0  0  0
  153.0421  139.2822  159.1479 C   0  0  0  0  0  0  0  0  0  0  0  0
  154.0742  139.3398  158.4783 O   0  0  0  0  0  0  0  0  0  0  0  0
  152.6162  137.9640  159.8092 C   0  0  0  0  0  0  0  0  0  0  0  0
  153.5862  137.4851  160.8049 N   0  0  0  0  0  0  0  0  0  0  0  0
  153.8435  138.3865  161.8231 N   0  0  0  0  0  0  0  0  0  0  0  0
  154.6587  138.0619  162.7666 C   0  0  0  0  0  0  0  0  0  0  0  0
  155.3275  136.7798  162.7999 C   0  0  0  0  0  0  0  0  0  0  0  0
  156.4099  136.4000  164.0930 Cl  0  0  0  0  0  0  0  0  0  0  0  0
  155.0752  135.9068  161.7921 C   0  0  0  0  0  0  0  0  0  0  0  0
  155.8394  134.3544  161.7622 Cl  0  0  0  0  0  0  0  0  0  0  0  0
  154.1510  136.2425  160.6998 C   0  0  0  0  0  0  0  0  0  0  0  0
  153.8966  135.4791  159.7669 O   0  0  0  0  0  0  0  0  0  0  0  0
  152.1733  142.7411  159.9389 C   0  0  1  0  0  0  0  0  0  0  0  0
  153.1303  142.5356  161.1344 C   0  0  0  0  0  0  0  0  0  0  0  0
  150.9587  145.1206  160.8418 H   0  0  0  0  0  0  0  0  0  0  0  0
  151.9448  146.2627  159.9360 H   0  0  0  0  0  0  0  0  0  0  0  0
  152.6761  145.3042  161.2014 H   0  0  0  0  0  0  0  0  0  0  0  0
  153.2916  144.3445  159.0256 H   0  0  0  0  0  0  0  0  0  0  0  0
  150.3026  144.2703  158.4401 H   0  0  0  0  0  0  0  0  0  0  0  0
  151.4668  145.3496  157.7124 H   0  0  0  0  0  0  0  0  0  0  0  0
  150.9588  143.4412  156.2097 H   0  0  0  0  0  0  0  0  0  0  0  0
  152.6488  143.4556  156.6582 H   0  0  0  0  0  0  0  0  0  0  0  0
  150.4671  141.7145  157.9009 H   0  0  0  0  0  0  0  0  0  0  0  0
  151.7407  141.1647  156.8370 H   0  0  0  0  0  0  0  0  0  0  0  0
  153.4565  141.8038  158.4837 H   0  0  0  0  0  0  0  0  0  0  0  0
  151.3975  140.1799  159.9006 H   0  0  0  0  0  0  0  0  0  0  0  0
  151.6347  138.0797  160.2733 H   0  0  0  0  0  0  0  0  0  0  0  0
  152.4816  137.2206  159.0213 H   0  0  0  0  0  0  0  0  0  0  0  0
  154.8882  138.7371  163.5909 H   0  0  0  0  0  0  0  0  0  0  0  0
  151.1564  142.5970  160.3078 H   0  0  0  0  0  0  0  0  0  0  0  0
  154.1675  142.7015  160.8416 H   0  0  0  0  0  0  0  0  0  0  0  0
  153.0614  141.5278  161.5432 H   0  0  0  0  0  0  0  0  0  0  0  0
  152.9029  143.2098  161.9588 H   0  0  0  0  0  0  0  0  0  0  0  0
  1  2  1  0  0  0  0
  1 22  1  0  0  0  0
  1 23  1  0  0  0  0
  1 24  1  0  0  0  0
  2 20  1  0  0  0  0
  2  3  1  0  0  0  0
  2 25  1  0  0  0  0
  3  4  1  0  0  0  0
  3 26  1  0  0  0  0
  3 27  1  0  0  0  0
  4  5  1  0  0  0  0
  4 28  1  0  0  0  0
  4 29  1  0  0  0  0
  5  6  1  0  0  0  0
  5 30  1  0  0  0  0
  5 31  1  0  0  0  0
  6  7  1  0  0  0  0
  6 20  1  0  0  0  0
  6 32  1  0  0  0  0
  7  8  1  0  0  0  0
  7 33  1  0  0  0  0
  8  9  2  0  0  0  0
  8 10  1  0  0  0  0
 10 11  1  0  0  0  0
 10 34  1  0  0  0  0
 10 35  1  0  0  0  0
 11 18  1  0  0  0  0
 11 12  1  0  0  0  0
 12 13  2  0  0  0  0
 13 14  1  0  0  0  0
 13 36  1  0  0  0  0
 14 15  1  0  0  0  0
 14 16  2  0  0  0  0
 16 17  1  0  0  0  0
 16 18  1  0  0  0  0
 18 19  2  0  0  0  0
 20 21  1  0  0  0  0
 20 37  1  0  0  0  0
 21 38  1  0  0  0  0
 21 39  1  0  0  0  0
 21 40  1  0  0  0  0
M  END
> <s_m_source_file>
AV-unprocessed.smi

> <i_m_source_file_index>
2976

> <i_lp_mmshare_version>
43012

> <i_f3d_flags>
0

> <s_epik_input>
W0NIM11bQ0BASF0xW0NIMl1bQ0gyXVtDSDJdW0NASF0oW0NASF0xW0NIM10pW05IXUMoPU8pW0NIMl1uMm5bY0hdYyhDbCljKENsKWMyPU8=

> <s_epik_cmdline>
J2VwaWtfcHl0aG9uJywgJy1waCcsICc3LjAnLCAnLXRuJywgJzgnLCAnLW1hJywgJzIwMCcsICctbWV0YWxfYmluZGluZycsICctaW1hZScsICc8aW5maWxlLm1hZT4nLCAnLW9tYWUnLCAnPG91dGZpbGUubWFlPic=

> <r_lp_tautomer_probability>
1

> <r_epik_Ionization_Penalty>
1.90777e-08

> <r_epik_Ionization_Penalty_Charging>
3.07942e-11

> <r_epik_Ionization_Penalty_Neutral>
1.90469e-08

> <r_epik_State_Penalty>
-0

> <r_epik_Charging_Adjusted_Penalty>
3.07942e-11

> <i_epik_Tot_Q>
0

> <i_epik_Tot_abs_Q>
0

> <r_epik_Metal_State_Penalty>
-0

> <b_epik_Metal_Only>
0

> <s_lp_Force_Field>
OPLS_2005

> <r_lp_Energy>
26.5415

> <b_lp_Chiralities_Consistent>
1

> <s_lp_Variant>
AV-unprocessed.smi:2976-3

> <Gold.Version>
5.8.1

> <Gold.Id.Protein>
6NUR|6NUR_protein|mol2

> <Gold.PLP.Fitness>
43.8481

> <Gold.PLP.PLP>
-38.2602

> <Gold.PLP.part.hbond>
-2.0000

> <Gold.PLP.part.metal>
0.0000

> <Gold.PLP.part.buried>
-4.5314

> <Gold.PLP.part.nonpolar>
-31.6542

> <Gold.PLP.part.repulsive>
0.1416

> <Gold.PLP.ligand.clash>
0.0000

> <Gold.PLP.ligand.torsion>
0.2094

> <Gold.PLP.Chemscore.Hbond>
2.0000

> <Gold.PLP.Chemscore.CHOScore>
0.0000

> <Gold.PLP.Chemscore.Metal>
0.0000

> <Gold.Chemscore.Hbonds>
donor molecule, donor type, donor heavy atom, donor atom, acceptor molecule, acceptor atom, score
      P1  H  6896  6908       L1    19  1.00
      P1  H  7997  8010       L1     9  1.00

> <Gold.PLP.Chemscore.Internal.Correction>
0.0067

> <Gold.Rescore>
     Score         DG    S(hbond)    S(metal)    S(lipo)     H(rot)  DE(clash)    DE(int)     intcor
     21.61     -21.86       2.00        0.00     115.47       1.49       0.05       0.20       ----

> <Gold.Chemscore.Fitness>
21.6141

> <Gold.Chemscore.DG>
-21.8606

> <Gold.Chemscore.ZeroCoef>
-5.4800

> <Gold.Chemscore.Hbond>
1.9988

> <Gold.Chemscore.Metal>
0.0000

> <Gold.Chemscore.Lipo>
115.4717

> <Gold.Chemscore.Internal_Hbond>
0.0000

> <Gold.Chemscore.DEClash>
0.0466

> <Gold.Chemscore.DEInternal>
0.1998

> <Gold.Chemscore.Rot>
1.4866

> <Gold.Chemscore.Internal.Correction>
   9.000000E+99

> <Gold.Chemscore.Hbonds>
donor molecule, donor type, donor heavy atom, donor atom, acceptor molecule, acceptor atom, score
      P1  H  6896  6908       L1    19  0.88
      P1  H  7997  8010       L1     9  0.99

> <Gold.Chemscore.Hbond.Weighted>
-6.6760

> <Gold.Chemscore.Metal.Weighted>
-0.0000

> <Gold.Chemscore.Lipo.Weighted>
-13.5102

> <Gold.Chemscore.Internal_Hbond.Weighted>
0.0000

> <Gold.Chemscore.DEClash.Weighted>
0.0466

> <Gold.Chemscore.DEInternal.Weighted>
0.1998

> <Gold.Chemscore.Rot.Weighted>
3.8057

> <Gold.Chemscore.Internal.Correction.Weighted>
   9.000000E+99

> <Gold.Protein.RotatedTorsions>
[ 6907 6896 6895 6894 ] final  -54.12 input  -60.11 | X-H torsion
[ 7974 7965 7964 7962 ] final  107.68 input  175.53 | X-H torsion
[ 8008 7997 7996 7995 ] final   19.02 input   59.86 | X-H torsion
[ 10167 10162 10161 10158 ] final   65.43 input  -65.29 | X-H torsion
[ 10718 10713 10712 10709 ] final   38.99 input   66.30 | X-H torsion
[ 10763 10752 10751 10750 ] final   36.08 input  -60.55 | X-H torsion
[ 11005 11000 10999 10996 ] final   16.30 input  -57.11 | X-H torsion

> <Gold.Protein.ActiveResidues>
 VAL166  LYS551  ARG553  GLY616  TRP617  ASP618  TYR619  PRO620  LYS621  CYS622 
 ASP623  PHE694  ASN695  SER759  ASP760  ASP761  ALA762  ILE779  LEU786  VAL792 
 PHE793  MET794  SER795  GLU796  ALA797  LYS798  CYS799  TRP800  GLU811  SER814 

> <Gold.Protein.RotatedAtoms>
  150.8366  134.7641  159.6897 H   0  0  0  0  0  0  0  0  0  0  0  0  # atno 6907 bound_to 6896
  152.4461  134.5487  159.9870 H   0  0  0  0  0  0  0  0  0  0  0  0  # atno 6908 bound_to 6896
  151.5636  133.3362  159.3012 H   0  0  0  0  0  0  0  0  0  0  0  0  # atno 6909 bound_to 6896
  145.2905  139.2602  143.3867 H   0  0  0  0  0  0  0  0  0  0  0  0  # atno 7974 bound_to 7965
  154.9145  140.3019  155.5248 H   0  0  0  0  0  0  0  0  0  0  0  0  # atno 8008 bound_to 7997
  156.3013  140.2383  156.4124 H   0  0  0  0  0  0  0  0  0  0  0  0  # atno 8009 bound_to 7997
  154.8392  140.0414  157.1518 H   0  0  0  0  0  0  0  0  0  0  0  0  # atno 8010 bound_to 7997
  140.1113  144.4815  150.6976 H   0  0  0  0  0  0  0  0  0  0  0  0  # atno 10167 bound_to 10162
  157.3653  130.7671  149.7078 H   0  0  0  0  0  0  0  0  0  0  0  0  # atno 10718 bound_to 10713
  153.0092  135.6315  154.1929 H   0  0  0  0  0  0  0  0  0  0  0  0  # atno 10763 bound_to 10752
  154.1671  135.2820  155.3093 H   0  0  0  0  0  0  0  0  0  0  0  0  # atno 10764 bound_to 10752
  154.5937  135.5609  153.7364 H   0  0  0  0  0  0  0  0  0  0  0  0  # atno 10765 bound_to 10752
  140.4487  134.1247  155.7699 H   0  0  0  0  0  0  0  0  0  0  0  0  # atno 11005 bound_to 11000
  146.3186  140.3395  142.8647 LP  0  0  0  0  0  0  0  0  0  0  0  0  # atno 17320 bound_to 7965
  144.9176  140.7831  143.5768 LP  0  0  0  0  0  0  0  0  0  0  0  0  # atno 17321 bound_to 7965
  140.6924  143.2383  151.5095 LP  0  0  0  0  0  0  0  0  0  0  0  0  # atno 17342 bound_to 10162
  139.5617  144.2139  152.1702 LP  0  0  0  0  0  0  0  0  0  0  0  0  # atno 17343 bound_to 10162
  155.9745  130.4102  150.3919 LP  0  0  0  0  0  0  0  0  0  0  0  0  # atno 17370 bound_to 10713
  157.2003  131.0436  151.2654 LP  0  0  0  0  0  0  0  0  0  0  0  0  # atno 17371 bound_to 10713
  141.1674  133.8676  157.1674 LP  0  0  0  0  0  0  0  0  0  0  0  0  # atno 17394 bound_to 11000
  140.0021  135.0023  157.0213 LP  0  0  0  0  0  0  0  0  0  0  0  0  # atno 17395 bound_to 11000

$$$$
