AV-unprocessed.smi:54|AV-procd|sdf|543|dock8
  -GOLD-   2262016433D 1   1.00000     0.00000
 Structure written by MMmdl.
 44 46  0  0  0  0  0  0  0  0  1 V2000
  147.4333  132.8052  150.6345 C   0  0  0  0  0  0  0  0  0  0  0  0
  146.6516  133.0284  151.9390 C   0  0  0  0  0  0  0  0  0  0  0  0
  145.9911  134.4165  151.9633 C   0  0  0  0  0  0  0  0  0  0  0  0
  147.5674  132.8436  153.1544 C   0  0  0  0  0  0  0  0  0  0  0  0
  147.4091  131.9226  153.9568 O   0  0  0  0  0  0  0  0  0  0  0  0
  148.6317  133.8233  153.2855 N   0  0  0  0  0  0  0  0  0  0  0  0
  149.5765  133.8886  154.2524 C   0  0  0  0  0  0  0  0  0  0  0  0
  149.9455  135.0218  154.8321 N   0  0  0  0  0  0  0  0  0  0  0  0
  150.9067  134.8830  155.7950 C   0  0  0  0  0  0  0  0  0  0  0  0
  151.5109  133.7079  156.1887 C   0  0  0  0  0  0  0  0  0  0  0  0
  152.4435  133.9608  157.1871 N   0  0  0  0  0  0  0  0  0  0  0  0
  152.3741  135.2508  157.3652 C   0  0  0  0  0  0  0  0  0  0  0  0
  151.4511  135.8882  156.5665 N   0  0  0  0  0  0  0  0  0  0  0  0
  151.0963  137.3459  156.4752 C   0  0  2  0  0  0  0  0  0  0  0  0
  149.9512  137.4755  155.6907 O   0  0  0  0  0  0  0  0  0  0  0  0
  150.2792  137.7648  154.3254 C   0  0  1  0  0  0  0  0  0  0  0  0
  149.4919  139.0213  153.9166 C   0  0  0  0  0  0  0  0  0  0  0  0
  150.0420  140.1625  154.5393 O   0  0  0  0  0  0  0  0  0  0  0  0
  151.8058  137.9864  154.2896 C   0  0  2  0  0  0  0  0  0  0  0  0
  152.4376  136.8601  153.7069 O   0  0  0  0  0  0  0  0  0  0  0  0
  152.1734  138.1664  155.7572 C   0  0  2  0  0  0  0  0  0  0  0  0
  153.5140  137.8219  156.0590 O   0  0  0  0  0  0  0  0  0  0  0  0
  151.1318  132.4742  155.5629 C   0  0  0  0  0  0  0  0  0  0  0  0
  151.5623  131.3442  155.7828 O   0  0  0  0  0  0  0  0  0  0  0  0
  150.1403  132.6583  154.5901 N   0  0  0  0  0  0  0  0  0  0  0  0
  150.9142  137.6495  157.5069 H   0  0  0  0  0  0  0  0  0  0  0  0
  149.9968  136.9301  153.6816 H   0  0  0  0  0  0  0  0  0  0  0  0
  152.0922  138.8615  153.7053 H   0  0  0  0  0  0  0  0  0  0  0  0
  152.0142  139.2089  156.0357 H   0  0  0  0  0  0  0  0  0  0  0  0
  147.9026  131.8206  150.6167 H   0  0  0  0  0  0  0  0  0  0  0  0
  148.2187  133.5511  150.5042 H   0  0  0  0  0  0  0  0  0  0  0  0
  146.7730  132.8673  149.7691 H   0  0  0  0  0  0  0  0  0  0  0  0
  145.8606  132.2786  151.9913 H   0  0  0  0  0  0  0  0  0  0  0  0
  145.4487  134.5821  152.8948 H   0  0  0  0  0  0  0  0  0  0  0  0
  145.2766  134.5219  151.1465 H   0  0  0  0  0  0  0  0  0  0  0  0
  146.7283  135.2143  151.8611 H   0  0  0  0  0  0  0  0  0  0  0  0
  148.6761  134.5253  152.5616 H   0  0  0  0  0  0  0  0  0  0  0  0
  152.9953  135.7614  158.0853 H   0  0  0  0  0  0  0  0  0  0  0  0
  149.4769  139.1481  152.8337 H   0  0  0  0  0  0  0  0  0  0  0  0
  148.4561  138.9436  154.2479 H   0  0  0  0  0  0  0  0  0  0  0  0
  149.6703  140.2419  155.4045 H   0  0  0  0  0  0  0  0  0  0  0  0
  152.0896  136.7429  152.8358 H   0  0  0  0  0  0  0  0  0  0  0  0
  153.7540  138.2401  156.8722 H   0  0  0  0  0  0  0  0  0  0  0  0
  149.8211  131.8293  154.1106 H   0  0  0  0  0  0  0  0  0  0  0  0
  1  2  1  0  0  0  0
  1 30  1  0  0  0  0
  1 31  1  0  0  0  0
  1 32  1  0  0  0  0
  2  3  1  0  0  0  0
  2  4  1  0  0  0  0
  2 33  1  0  0  0  0
  3 34  1  0  0  0  0
  3 35  1  0  0  0  0
  3 36  1  0  0  0  0
  4  5  2  0  0  0  0
  4  6  1  0  0  0  0
  6 37  1  0  0  0  0
  6  7  1  0  0  0  0
  7 25  1  0  0  0  0
  7  8  2  0  0  0  0
  8  9  1  0  0  0  0
  9 13  1  0  0  0  0
  9 10  2  0  0  0  0
 10 11  1  0  0  0  0
 10 23  1  0  0  0  0
 11 12  2  0  0  0  0
 12 13  1  0  0  0  0
 12 38  1  0  0  0  0
 13 14  1  0  0  0  0
 14 26  1  0  0  0  0
 14 21  1  0  0  0  0
 14 15  1  0  0  0  0
 15 16  1  0  0  0  0
 16 27  1  0  0  0  0
 16 17  1  0  0  0  0
 16 19  1  0  0  0  0
 17 18  1  0  0  0  0
 17 39  1  0  0  0  0
 17 40  1  0  0  0  0
 18 41  1  0  0  0  0
 19 28  1  0  0  0  0
 19 20  1  0  0  0  0
 19 21  1  0  0  0  0
 20 42  1  0  0  0  0
 21 29  1  0  0  0  0
 21 22  1  0  0  0  0
 22 43  1  0  0  0  0
 23 24  2  0  0  0  0
 23 25  1  0  0  0  0
 25 44  1  0  0  0  0
M  END
> <s_m_source_file>
AV-unprocessed.smi

> <i_m_source_file_index>
54

> <i_lp_mmshare_version>
43012

> <i_f3d_flags>
0

> <s_epik_input>
W0NIM11bQ0hdKFtDSDNdKUMoPU8pW05IXWMobjEpW25IXWMoPU8pYyhjMTIpbltjSF1uMltDQEBIXTNPW0NASF0oW0NIMl1bT0hdKVtDQEBIXShbT0hdKVtDQEhdM1tPSF0=

> <s_epik_cmdline>
J2VwaWtfcHl0aG9uJywgJy1waCcsICc3LjAnLCAnLXRuJywgJzgnLCAnLW1hJywgJzIwMCcsICctbWV0YWxfYmluZGluZycsICctaW1hZScsICc8aW5maWxlLm1hZT4nLCAnLW9tYWUnLCAnPG91dGZpbGUubWFlPic=

> <r_lp_tautomer_probability>
0.85571

> <r_epik_Ionization_Penalty>
0.0316551

> <r_epik_Ionization_Penalty_Charging>
0.0316043

> <r_epik_Ionization_Penalty_Neutral>
5.07097e-05

> <r_epik_State_Penalty>
3.15494e-07

> <r_epik_Charging_Adjusted_Penalty>
0.0316047

> <i_epik_Tot_Q>
0

> <i_epik_Tot_abs_Q>
0

> <r_epik_Metal_State_Penalty>
0.421206

> <b_epik_Metal_Only>
0

> <s_epik_Chemistry_Notes>
This compound contains an acetal/aminal-like group ( X-CH(R)-Y where X, Y are N, S, or O) that may be acid/base labile, releasing an aldehyde.

> <s_lp_Force_Field>
OPLS_2005

> <r_lp_Energy>
46.2687

> <b_lp_Chiralities_Consistent>
1

> <s_lp_Variant>
AV-unprocessed.smi:54-15

> <Gold.Version>
5.8.1

> <Gold.Id.Protein>
6NUR|6NUR_protein|mol2

> <Gold.PLP.Fitness>
41.9861

> <Gold.PLP.PLP>
-31.2685

> <Gold.PLP.part.hbond>
-6.1768

> <Gold.PLP.part.metal>
0.0000

> <Gold.PLP.part.buried>
-3.4849

> <Gold.PLP.part.nonpolar>
-22.2417

> <Gold.PLP.part.repulsive>
0.2715

> <Gold.PLP.ligand.clash>
0.0000

> <Gold.PLP.ligand.torsion>
0.7779

> <Gold.PLP.Chemscore.Hbond>
4.0432

> <Gold.PLP.Chemscore.CHOScore>
0.0000

> <Gold.PLP.Chemscore.Metal>
0.0000

> <Gold.Chemscore.Hbonds>
donor molecule, donor type, donor heavy atom, donor atom, acceptor molecule, acceptor atom, score
      L1  H     6    37       P1  7948  0.55
      L1  H    20    42       P1  7949  1.00
      P1  H  6896  6909       L1    11  0.10
      P1  H  7989  7998       L1    18  1.00
      P1  H 10752 10763       L1    20  0.47

> <Gold.PLP.Chemscore.Internal.Correction>
0.1439

> <Gold.Rescore>
     Score         DG    S(hbond)    S(metal)    S(lipo)     H(rot)  DE(clash)    DE(int)     intcor
      8.41     -12.98       3.74        0.00      45.85       4.05       0.54       4.04       ----

> <Gold.Chemscore.Fitness>
8.4052

> <Gold.Chemscore.DG>
-12.9815

> <Gold.Chemscore.ZeroCoef>
-5.4800

> <Gold.Chemscore.Hbond>
3.7436

> <Gold.Chemscore.Metal>
0.0000

> <Gold.Chemscore.Lipo>
45.8466

> <Gold.Chemscore.Internal_Hbond>
0.0000

> <Gold.Chemscore.DEClash>
0.5406

> <Gold.Chemscore.DEInternal>
4.0357

> <Gold.Chemscore.Rot>
4.0493

> <Gold.Chemscore.Internal.Correction>
   9.000000E+99

> <Gold.Chemscore.Hbonds>
donor molecule, donor type, donor heavy atom, donor atom, acceptor molecule, acceptor atom, score
      L1  H     6    37       P1  7948  0.03
      L1  H    20    42       P1  7949  0.99
      P1  H  6896  6909       L1    11  0.02
      P1  H  7989  7998       L1    18  0.71
      P1  H 10752 10763       L1    20  0.20

> <Gold.Chemscore.Hbond.Weighted>
-12.5037

> <Gold.Chemscore.Metal.Weighted>
-0.0000

> <Gold.Chemscore.Lipo.Weighted>
-5.3641

> <Gold.Chemscore.Internal_Hbond.Weighted>
0.0000

> <Gold.Chemscore.DEClash.Weighted>
0.5406

> <Gold.Chemscore.DEInternal.Weighted>
4.0357

> <Gold.Chemscore.Rot.Weighted>
10.3662

> <Gold.Chemscore.Internal.Correction.Weighted>
   9.000000E+99

> <Gold.Protein.RotatedTorsions>
[ 6907 6896 6895 6894 ] final  -70.65 input  -60.11 | X-H torsion
[ 7974 7965 7964 7962 ] final  -24.93 input  175.53 | X-H torsion
[ 8008 7997 7996 7995 ] final  111.54 input   59.86 | X-H torsion
[ 10167 10162 10161 10158 ] final  153.53 input  -65.29 | X-H torsion
[ 10718 10713 10712 10709 ] final    0.42 input   66.30 | X-H torsion
[ 10763 10752 10751 10750 ] final   20.92 input  -60.55 | X-H torsion
[ 11005 11000 10999 10996 ] final -140.88 input  -57.11 | X-H torsion

> <Gold.Protein.ActiveResidues>
 VAL166  LYS551  ARG553  GLY616  TRP617  ASP618  TYR619  PRO620  LYS621  CYS622 
 ASP623  PHE694  ASN695  SER759  ASP760  ASP761  ALA762  ILE779  LEU786  VAL792 
 PHE793  MET794  SER795  GLU796  ALA797  LYS798  CYS799  TRP800  GLU811  SER814 

> <Gold.Protein.RotatedAtoms>
  150.7248  134.5422  159.5752 H   0  0  0  0  0  0  0  0  0  0  0  0  # atno 6907 bound_to 6896
  152.2930  134.7697  160.0383 H   0  0  0  0  0  0  0  0  0  0  0  0  # atno 6908 bound_to 6896
  151.8304  133.3372  159.3648 H   0  0  0  0  0  0  0  0  0  0  0  0  # atno 6909 bound_to 6896
  146.1523  140.4818  142.8606 H   0  0  0  0  0  0  0  0  0  0  0  0  # atno 7974 bound_to 7965
  156.2131  140.3017  155.9778 H   0  0  0  0  0  0  0  0  0  0  0  0  # atno 8008 bound_to 7997
  155.2674  140.0432  157.3020 H   0  0  0  0  0  0  0  0  0  0  0  0  # atno 8009 bound_to 7997
  154.5728  140.2353  155.8174 H   0  0  0  0  0  0  0  0  0  0  0  0  # atno 8010 bound_to 7997
  139.4827  144.5265  151.7792 H   0  0  0  0  0  0  0  0  0  0  0  0  # atno 10167 bound_to 10162
  156.8331  130.5495  149.5685 H   0  0  0  0  0  0  0  0  0  0  0  0  # atno 10718 bound_to 10713
  153.1038  135.6679  153.9624 H   0  0  0  0  0  0  0  0  0  0  0  0  # atno 10763 bound_to 10752
  153.9187  135.3017  155.3449 H   0  0  0  0  0  0  0  0  0  0  0  0  # atno 10764 bound_to 10752
  154.7459  135.5058  153.9279 H   0  0  0  0  0  0  0  0  0  0  0  0  # atno 10765 bound_to 10752
  140.8379  134.2437  157.4825 H   0  0  0  0  0  0  0  0  0  0  0  0  # atno 11005 bound_to 11000
  144.7920  140.6050  143.6535 LP  0  0  0  0  0  0  0  0  0  0  0  0  # atno 17320 bound_to 7965
  145.4792  139.1497  143.3771 LP  0  0  0  0  0  0  0  0  0  0  0  0  # atno 17321 bound_to 7965
  140.4786  144.1483  150.5929 LP  0  0  0  0  0  0  0  0  0  0  0  0  # atno 17342 bound_to 10162
  140.4303  143.2571  151.9603 LP  0  0  0  0  0  0  0  0  0  0  0  0  # atno 17343 bound_to 10162
  156.0923  130.5905  150.9753 LP  0  0  0  0  0  0  0  0  0  0  0  0  # atno 17370 bound_to 10713
  157.6396  131.0912  150.8279 LP  0  0  0  0  0  0  0  0  0  0  0  0  # atno 17371 bound_to 10713
  139.8704  134.9620  156.4415 LP  0  0  0  0  0  0  0  0  0  0  0  0  # atno 17394 bound_to 11000
  140.8927  133.7836  155.9590 LP  0  0  0  0  0  0  0  0  0  0  0  0  # atno 17395 bound_to 11000

$$$$
