AV-unprocessed.smi:1512|AV-procd|sdf|6101|dock1
  -GOLD-   22720 6233D 1   1.00000     0.00000
 Structure written by MMmdl.
 44 46  0  0  0  0  0  0  0  0  3 V2000
  151.5740  140.0802  157.8055 C   0  0  0  0  0  0  0  0  0  0  0  0
  151.4369  141.5573  157.3996 C   0  0  1  0  0  0  0  0  0  0  0  0
  150.2667  141.6902  156.5333 N   0  0  0  0  0  0  0  0  0  0  0  0
  150.0811  141.0708  155.3576 C   0  0  0  0  0  0  0  0  0  0  0  0
  150.8682  140.2481  154.8884 O   0  0  0  0  0  0  0  0  0  0  0  0
  148.7997  141.4383  154.5981 C   0  0  0  0  0  0  0  0  0  0  0  0
  147.9023  140.2850  154.4145 N   0  0  0  0  0  0  0  0  0  0  0  0
  147.5531  139.9508  153.0928 C   0  0  0  0  0  0  0  0  0  0  0  0
  146.7338  138.9270  152.8137 C   0  0  0  0  0  0  0  0  0  0  0  0
  146.2067  138.1552  153.9125 C   0  0  0  0  0  0  0  0  0  0  0  0
  146.5279  138.4571  155.1917 C   0  0  0  0  0  0  0  0  0  0  0  0
  145.9673  137.6413  156.2446 N   0  3  0  0  0  0  0  0  0  0  0  0
  145.2209  136.7149  155.9435 O   0  0  0  0  0  0  0  0  0  0  0  0
  146.2475  137.9133  157.4084 O   0  5  0  0  0  0  0  0  0  0  0  0
  147.4255  139.5911  155.4953 C   0  0  0  0  0  0  0  0  0  0  0  0
  147.7300  139.9139  156.6455 O   0  0  0  0  0  0  0  0  0  0  0  0
  151.2884  142.5075  158.6142 C   0  0  2  0  0  0  0  0  0  0  0  0
  150.7550  143.9171  158.2478 C   0  0  0  0  0  0  0  0  0  0  0  0
  151.7949  144.8642  158.8704 C   0  0  1  0  0  0  0  0  0  0  0  0
  151.6957  144.8058  160.4055 C   0  0  0  0  0  0  0  0  0  0  0  0
  152.2925  143.4238  160.7300 C   0  0  0  0  0  0  0  0  0  0  0  0
  152.6158  142.8563  159.3343 C   0  0  2  0  0  0  0  0  0  0  0  0
  153.0891  144.1089  158.6032 C   0  0  0  0  0  0  0  0  0  0  0  0
  152.4755  139.9016  158.3902 H   0  0  0  0  0  0  0  0  0  0  0  0
  151.6330  139.4383  156.9258 H   0  0  0  0  0  0  0  0  0  0  0  0
  150.7206  139.7506  158.3992 H   0  0  0  0  0  0  0  0  0  0  0  0
  152.3384  141.8374  156.8526 H   0  0  0  0  0  0  0  0  0  0  0  0
  149.5573  142.3422  156.8351 H   0  0  0  0  0  0  0  0  0  0  0  0
  148.3005  142.2390  155.1453 H   0  0  0  0  0  0  0  0  0  0  0  0
  149.0510  141.8698  153.6270 H   0  0  0  0  0  0  0  0  0  0  0  0
  147.9828  140.5810  152.3276 H   0  0  0  0  0  0  0  0  0  0  0  0
  146.4726  138.6883  151.7932 H   0  0  0  0  0  0  0  0  0  0  0  0
  145.5534  137.3224  153.6958 H   0  0  0  0  0  0  0  0  0  0  0  0
  150.6041  142.0378  159.3229 H   0  0  0  0  0  0  0  0  0  0  0  0
  150.7257  144.0697  157.1682 H   0  0  0  0  0  0  0  0  0  0  0  0
  149.7492  144.0932  158.6304 H   0  0  0  0  0  0  0  0  0  0  0  0
  151.7595  145.8766  158.4672 H   0  0  0  0  0  0  0  0  0  0  0  0
  152.2885  145.5974  160.8657 H   0  0  0  0  0  0  0  0  0  0  0  0
  150.6682  144.9082  160.7560 H   0  0  0  0  0  0  0  0  0  0  0  0
  153.2017  143.5308  161.3231 H   0  0  0  0  0  0  0  0  0  0  0  0
  151.6034  142.7914  161.2908 H   0  0  0  0  0  0  0  0  0  0  0  0
  153.3447  142.0478  159.3678 H   0  0  0  0  0  0  0  0  0  0  0  0
  153.2864  143.9486  157.5419 H   0  0  0  0  0  0  0  0  0  0  0  0
  153.9634  144.5745  159.0620 H   0  0  0  0  0  0  0  0  0  0  0  0
  1  2  1  0  0  0  0
  1 24  1  0  0  0  0
  1 25  1  0  0  0  0
  1 26  1  0  0  0  0
  2  3  1  0  0  0  0
  2 17  1  0  0  0  0
  2 27  1  0  0  0  0
  3  4  1  0  0  0  0
  3 28  1  0  0  0  0
  4  5  2  0  0  0  0
  4  6  1  0  0  0  0
  6  7  1  0  0  0  0
  6 29  1  0  0  0  0
  6 30  1  0  0  0  0
  7 15  1  0  0  0  0
  7  8  1  0  0  0  0
  8  9  2  0  0  0  0
  8 31  1  0  0  0  0
  9 10  1  0  0  0  0
  9 32  1  0  0  0  0
 10 11  2  0  0  0  0
 10 33  1  0  0  0  0
 11 12  1  0  0  0  0
 11 15  1  0  0  0  0
 12 13  2  0  0  0  0
 12 14  1  0  0  0  0
 15 16  2  0  0  0  0
 17 22  1  0  0  0  0
 17 18  1  0  0  0  0
 17 34  1  0  0  0  0
 18 19  1  0  0  0  0
 18 35  1  0  0  0  0
 18 36  1  0  0  0  0
 19 23  1  0  0  0  0
 19 20  1  0  0  0  0
 19 37  1  0  0  0  0
 20 21  1  0  0  0  0
 20 38  1  0  0  0  0
 20 39  1  0  0  0  0
 21 22  1  0  0  0  0
 21 40  1  0  0  0  0
 21 41  1  0  0  0  0
 22 23  1  0  0  0  0
 22 42  1  0  0  0  0
 23 43  1  0  0  0  0
 23 44  1  0  0  0  0
M  CHG  1  12   1
M  CHG  1  14  -1
M  END
> <s_m_source_file>
AV-unprocessed.smi

> <i_m_source_file_index>
1512

> <i_lp_mmshare_version>
43012

> <i_f3d_flags>
0

> <s_epik_input>
W0NIMl0xW0NIMl1bQ0BIXShbQ0gyXTIpW0NAQEhdKFtDSDJdW0NAQEhdMTIpW0NASF0oW0NIM10pW05IXUMoPU8pW0NIMl1uM1tjSF1bY0hdW2NIXWMoW04rXSg9TylbTy1dKWMzPU8=

> <s_epik_cmdline>
J2VwaWtfcHl0aG9uJywgJy1waCcsICc3LjAnLCAnLXRuJywgJzgnLCAnLW1hJywgJzIwMCcsICctbWV0YWxfYmluZGluZycsICctaW1hZScsICc8aW5maWxlLm1hZT4nLCAnLW9tYWUnLCAnPG91dGZpbGUubWFlPic=

> <r_lp_tautomer_probability>
1

> <r_epik_Ionization_Penalty>
2.17697e-08

> <r_epik_Ionization_Penalty_Charging>
1.42735e-10

> <r_epik_Ionization_Penalty_Neutral>
2.16269e-08

> <r_epik_State_Penalty>
-0

> <r_epik_Charging_Adjusted_Penalty>
1.42735e-10

> <i_epik_Tot_Q>
0

> <i_epik_Tot_abs_Q>
2

> <r_epik_Metal_State_Penalty>
-0

> <b_epik_Metal_Only>
0

> <s_lp_Force_Field>
OPLS_2005

> <r_lp_Energy>
64.6124

> <b_lp_Chiralities_Consistent>
1

> <s_lp_Variant>
AV-unprocessed.smi:1512-2

> <Gold.Version>
5.8.1

> <Gold.Id.Protein>
6NUR|6NUR_protein|mol2

> <Gold.PLP.Fitness>
46.4025

> <Gold.PLP.PLP>
-41.2960

> <Gold.PLP.part.hbond>
-1.0000

> <Gold.PLP.part.metal>
0.0000

> <Gold.PLP.part.buried>
-3.3169

> <Gold.PLP.part.nonpolar>
-37.3579

> <Gold.PLP.part.repulsive>
0.1204

> <Gold.PLP.ligand.clash>
0.0000

> <Gold.PLP.ligand.torsion>
0.3416

> <Gold.PLP.Chemscore.Hbond>
1.0000

> <Gold.PLP.Chemscore.CHOScore>
0.8997

> <Gold.PLP.Chemscore.Metal>
0.0000

> <Gold.Chemscore.Hbonds>
donor molecule, donor type, donor heavy atom, donor atom, acceptor molecule, acceptor atom, score
      P1  H  7989  7998       L1     5  1.00
      L1  C     8    31       P1  7957  0.90

> <Gold.PLP.Chemscore.Internal.Correction>
0.0906

> <Gold.Rescore>
     Score         DG    S(hbond)    S(metal)    S(lipo)     H(rot)  DE(clash)    DE(int)     intcor
     14.67     -17.72       0.96        0.00     115.43       1.75       0.11       2.95       ----

> <Gold.Chemscore.Fitness>
14.6689

> <Gold.Chemscore.DG>
-17.7245

> <Gold.Chemscore.ZeroCoef>
-5.4800

> <Gold.Chemscore.Hbond>
0.9618

> <Gold.Chemscore.Metal>
0.0000

> <Gold.Chemscore.Lipo>
115.4318

> <Gold.Chemscore.Internal_Hbond>
0.0000

> <Gold.Chemscore.DEClash>
0.1081

> <Gold.Chemscore.DEInternal>
2.9475

> <Gold.Chemscore.Rot>
1.7474

> <Gold.Chemscore.Internal.Correction>
   9.000000E+99

> <Gold.Chemscore.Hbonds>
donor molecule, donor type, donor heavy atom, donor atom, acceptor molecule, acceptor atom, score
      P1  H  7989  7998       L1     5  0.74

> <Gold.Chemscore.Hbond.Weighted>
-3.2123

> <Gold.Chemscore.Metal.Weighted>
-0.0000

> <Gold.Chemscore.Lipo.Weighted>
-13.5055

> <Gold.Chemscore.Internal_Hbond.Weighted>
0.0000

> <Gold.Chemscore.DEClash.Weighted>
0.1081

> <Gold.Chemscore.DEInternal.Weighted>
2.9475

> <Gold.Chemscore.Rot.Weighted>
4.4733

> <Gold.Chemscore.Internal.Correction.Weighted>
   9.000000E+99

> <Gold.Protein.RotatedTorsions>
[ 6907 6896 6895 6894 ] final  157.10 input  -60.11 | X-H torsion
[ 7974 7965 7964 7962 ] final  -94.64 input  175.53 | X-H torsion
[ 8008 7997 7996 7995 ] final  115.09 input   59.86 | X-H torsion
[ 10167 10162 10161 10158 ] final  -57.15 input  -65.29 | X-H torsion
[ 10718 10713 10712 10709 ] final   54.97 input   66.30 | X-H torsion
[ 10763 10752 10751 10750 ] final  -92.99 input  -60.55 | X-H torsion
[ 11005 11000 10999 10996 ] final   -7.57 input  -57.11 | X-H torsion

> <Gold.Protein.ActiveResidues>
 VAL166  LYS551  ARG553  GLY616  TRP617  ASP618  TYR619  PRO620  LYS621  CYS622 
 ASP623  PHE694  ASN695  SER759  ASP760  ASP761  ALA762  ILE779  LEU786  VAL792 
 PHE793  MET794  SER795  GLU796  ALA797  LYS798  CYS799  TRP800  GLU811  SER814 

> <Gold.Protein.RotatedAtoms>
  152.0200  133.3895  159.4254 H   0  0  0  0  0  0  0  0  0  0  0  0  # atno 6907 bound_to 6896
  150.6891  134.3636  159.4970 H   0  0  0  0  0  0  0  0  0  0  0  0  # atno 6908 bound_to 6896
  152.1409  134.9063  160.0604 H   0  0  0  0  0  0  0  0  0  0  0  0  # atno 6909 bound_to 6896
  145.3706  140.9505  143.2449 H   0  0  0  0  0  0  0  0  0  0  0  0  # atno 7974 bound_to 7965
  156.2361  140.2945  156.0316 H   0  0  0  0  0  0  0  0  0  0  0  0  # atno 8008 bound_to 7997
  155.2088  140.0412  157.2947 H   0  0  0  0  0  0  0  0  0  0  0  0  # atno 8009 bound_to 7997
  154.6081  140.2444  155.7712 H   0  0  0  0  0  0  0  0  0  0  0  0  # atno 8010 bound_to 7997
  140.6275  143.2444  151.5327 H   0  0  0  0  0  0  0  0  0  0  0  0  # atno 10167 bound_to 10162
  157.5304  130.8626  149.8679 H   0  0  0  0  0  0  0  0  0  0  0  0  # atno 10718 bound_to 10713
  154.6916  135.5211  153.8400 H   0  0  0  0  0  0  0  0  0  0  0  0  # atno 10763 bound_to 10752
  153.0636  135.6577  154.0415 H   0  0  0  0  0  0  0  0  0  0  0  0  # atno 10764 bound_to 10752
  154.0288  135.2987  155.3351 H   0  0  0  0  0  0  0  0  0  0  0  0  # atno 10765 bound_to 10752
  140.7142  133.8883  155.8772 H   0  0  0  0  0  0  0  0  0  0  0  0  # atno 11005 bound_to 11000
  144.8579  139.5221  143.6826 LP  0  0  0  0  0  0  0  0  0  0  0  0  # atno 17320 bound_to 7965
  146.2887  139.7077  142.9177 LP  0  0  0  0  0  0  0  0  0  0  0  0  # atno 17321 bound_to 7965
  139.5493  144.2437  152.1501 LP  0  0  0  0  0  0  0  0  0  0  0  0  # atno 17342 bound_to 10162
  140.1672  144.4970  150.6599 LP  0  0  0  0  0  0  0  0  0  0  0  0  # atno 17343 bound_to 10162
  156.0418  130.3737  150.1416 LP  0  0  0  0  0  0  0  0  0  0  0  0  # atno 17370 bound_to 10713
  156.9601  130.9802  151.3481 LP  0  0  0  0  0  0  0  0  0  0  0  0  # atno 17371 bound_to 10713
  141.0059  134.1087  157.4271 LP  0  0  0  0  0  0  0  0  0  0  0  0  # atno 17394 bound_to 11000
  139.8864  135.0081  156.6496 LP  0  0  0  0  0  0  0  0  0  0  0  0  # atno 17395 bound_to 11000

$$$$
