AV-unprocessed.smi:1047|AV-procd|sdf|4589|dock1
  -GOLD-   22720 3 63D 1   1.00000     0.00000
 Structure written by MMmdl.
 57 59  0  0  0  0  0  0  0  0  3 V2000
  146.9217  133.2540  151.5491 C   0  0  0  0  0  0  0  0  0  0  0  0
  147.3124  132.2122  152.6069 C   0  0  0  0  0  0  0  0  0  0  0  0
  148.5520  132.4991  153.3272 N   0  0  0  0  0  0  0  0  0  0  0  0
  148.7588  131.5420  154.4087 C   0  0  0  0  0  0  0  0  0  0  0  0
  150.0555  131.8238  155.1857 C   0  0  0  0  0  0  0  0  0  0  0  0
  150.0293  133.1589  155.6797 O   0  0  0  0  0  0  0  0  0  0  0  0
  149.8873  134.1302  154.6464 C   0  0  2  0  0  0  0  0  0  0  0  0
  149.9046  135.5249  155.2861 C   0  0  0  0  0  0  0  0  0  0  0  0
  150.3753  136.5231  154.3095 N   0  3  0  0  0  0  0  0  0  0  0  0
  150.2411  137.9312  154.7301 C   0  0  0  0  0  0  0  0  0  0  0  0
  151.6263  138.5970  154.8718 C   0  0  2  0  0  0  0  0  0  0  0  0
  152.6210  137.6269  154.6230 O   0  0  0  0  0  0  0  0  0  0  0  0
  151.9232  139.2305  156.2542 C   0  0  0  0  0  0  0  0  0  0  0  0
  151.3539  140.5724  156.4470 N   0  0  0  0  0  0  0  0  0  0  0  0
  150.5106  141.2846  155.6497 C   0  0  0  0  0  0  0  0  0  0  0  0
  150.2903  142.4849  156.2540 N   0  3  0  0  0  0  0  0  0  0  0  0
  150.9899  142.5344  157.4616 C   0  0  0  0  0  0  0  0  0  0  0  0
  151.0878  143.5390  158.4162 C   0  0  0  0  0  0  0  0  0  0  0  0
  151.8931  143.2769  159.5472 C   0  0  0  0  0  0  0  0  0  0  0  0
  152.0297  144.3582  160.6056 C   0  0  0  0  0  0  0  0  0  0  0  0
  152.5607  142.0334  159.6964 C   0  0  0  0  0  0  0  0  0  0  0  0
  153.4222  141.7625  160.9181 C   0  0  0  0  0  0  0  0  0  0  0  0
  152.4444  141.0218  158.7163 C   0  0  0  0  0  0  0  0  0  0  0  0
  151.6585  141.3024  157.6016 C   0  0  0  0  0  0  0  0  0  0  0  0
  148.5805  133.8520  153.8782 C   0  0  0  0  0  0  0  0  0  0  0  0
  146.0522  132.9166  150.9851 H   0  0  0  0  0  0  0  0  0  0  0  0
  147.7324  133.4171  150.8387 H   0  0  0  0  0  0  0  0  0  0  0  0
  146.6632  134.2137  151.9957 H   0  0  0  0  0  0  0  0  0  0  0  0
  146.4918  132.0865  153.3147 H   0  0  0  0  0  0  0  0  0  0  0  0
  147.4165  131.2536  152.0969 H   0  0  0  0  0  0  0  0  0  0  0  0
  147.9128  131.5732  155.0972 H   0  0  0  0  0  0  0  0  0  0  0  0
  148.7938  130.5292  154.0057 H   0  0  0  0  0  0  0  0  0  0  0  0
  150.1533  131.1349  156.0246 H   0  0  0  0  0  0  0  0  0  0  0  0
  150.9296  131.6799  154.5485 H   0  0  0  0  0  0  0  0  0  0  0  0
  150.7317  134.0452  153.9592 H   0  0  0  0  0  0  0  0  0  0  0  0
  148.8969  135.7906  155.6082 H   0  0  0  0  0  0  0  0  0  0  0  0
  150.5448  135.5413  156.1690 H   0  0  0  0  0  0  0  0  0  0  0  0
  151.3462  136.3362  154.1013 H   0  0  0  0  0  0  0  0  0  0  0  0
  149.6215  138.4853  154.0238 H   0  0  0  0  0  0  0  0  0  0  0  0
  149.7186  137.9370  155.6880 H   0  0  0  0  0  0  0  0  0  0  0  0
  151.7335  139.3517  154.0923 H   0  0  0  0  0  0  0  0  0  0  0  0
  153.4198  137.8886  155.0554 H   0  0  0  0  0  0  0  0  0  0  0  0
  151.5079  138.6027  157.0445 H   0  0  0  0  0  0  0  0  0  0  0  0
  152.9977  139.2836  156.4359 H   0  0  0  0  0  0  0  0  0  0  0  0
  150.1002  140.9620  154.7033 H   0  0  0  0  0  0  0  0  0  0  0  0
  150.5726  144.4815  158.2993 H   0  0  0  0  0  0  0  0  0  0  0  0
  153.0720  144.6596  160.7125 H   0  0  0  0  0  0  0  0  0  0  0  0
  151.6723  143.9979  161.5705 H   0  0  0  0  0  0  0  0  0  0  0  0
  151.4513  145.2458  160.3471 H   0  0  0  0  0  0  0  0  0  0  0  0
  153.8662  140.7673  160.8822 H   0  0  0  0  0  0  0  0  0  0  0  0
  152.8271  141.8284  161.8291 H   0  0  0  0  0  0  0  0  0  0  0  0
  154.2342  142.4870  160.9815 H   0  0  0  0  0  0  0  0  0  0  0  0
  152.9506  140.0746  158.8315 H   0  0  0  0  0  0  0  0  0  0  0  0
  148.4833  134.5852  153.0781 H   0  0  0  0  0  0  0  0  0  0  0  0
  147.7274  133.9986  154.5427 H   0  0  0  0  0  0  0  0  0  0  0  0
  149.8382  136.4059  153.4624 H   0  0  0  0  0  0  0  0  0  0  0  0
  149.6985  143.2120  155.8717 H   0  0  0  0  0  0  0  0  0  0  0  0
  1  2  1  0  0  0  0
  1 26  1  0  0  0  0
  1 27  1  0  0  0  0
  1 28  1  0  0  0  0
  2  3  1  0  0  0  0
  2 29  1  0  0  0  0
  2 30  1  0  0  0  0
  3 25  1  0  0  0  0
  3  4  1  0  0  0  0
  4  5  1  0  0  0  0
  4 31  1  0  0  0  0
  4 32  1  0  0  0  0
  5  6  1  0  0  0  0
  5 33  1  0  0  0  0
  5 34  1  0  0  0  0
  6  7  1  0  0  0  0
  7  8  1  0  0  0  0
  7 25  1  0  0  0  0
  7 35  1  0  0  0  0
  8  9  1  0  0  0  0
  8 36  1  0  0  0  0
  8 37  1  0  0  0  0
  9 10  1  0  0  0  0
  9 38  1  0  0  0  0
  9 56  1  0  0  0  0
 10 11  1  0  0  0  0
 10 39  1  0  0  0  0
 10 40  1  0  0  0  0
 11 12  1  0  0  0  0
 11 13  1  0  0  0  0
 11 41  1  0  0  0  0
 12 42  1  0  0  0  0
 13 14  1  0  0  0  0
 13 43  1  0  0  0  0
 13 44  1  0  0  0  0
 14 24  1  0  0  0  0
 14 15  1  0  0  0  0
 15 16  2  0  0  0  0
 15 45  1  0  0  0  0
 16 17  1  0  0  0  0
 16 57  1  0  0  0  0
 17 24  2  0  0  0  0
 17 18  1  0  0  0  0
 18 19  2  0  0  0  0
 18 46  1  0  0  0  0
 19 20  1  0  0  0  0
 19 21  1  0  0  0  0
 20 47  1  0  0  0  0
 20 48  1  0  0  0  0
 20 49  1  0  0  0  0
 21 22  1  0  0  0  0
 21 23  2  0  0  0  0
 22 50  1  0  0  0  0
 22 51  1  0  0  0  0
 22 52  1  0  0  0  0
 23 24  1  0  0  0  0
 23 53  1  0  0  0  0
 25 54  1  0  0  0  0
 25 55  1  0  0  0  0
M  CHG  1   9   1
M  CHG  1  16   1
M  END
> <s_m_source_file>
AV-unprocessed.smi

> <i_m_source_file_index>
1047

> <i_lp_mmshare_version>
43012

> <i_f3d_flags>
0

> <s_epik_input>
W0NIM11bQ0gyXU4xW0NIMl1bQ0gyXU9bQ0BIXShbQ0gyXTEpW0NIMl1bTkhdW0NIMl1bQ0BIXShbT0hdKVtDSDJdbihbY0hdbjIpYyhjMjMpW2NIXWMoW0NIM10pYyhbY0hdMylbQ0gzXQ==

> <s_epik_cmdline>
J2VwaWtfcHl0aG9uJywgJy1waCcsICc3LjAnLCAnLXRuJywgJzgnLCAnLW1hJywgJzIwMCcsICctbWV0YWxfYmluZGluZycsICctaW1hZScsICc8aW5maWxlLm1hZT4nLCAnLW9tYWUnLCAnPG91dGZpbGUubWFlPic=

> <r_epik_Ionization_Penalty>
1.75732

> <r_epik_Ionization_Penalty_Charging>
1.18089

> <r_epik_Ionization_Penalty_Neutral>
0.576429

> <r_epik_State_Penalty>
1.69377

> <r_epik_Charging_Adjusted_Penalty>
2.87466

> <i_epik_Tot_Q>
2

> <i_epik_Tot_abs_Q>
2

> <r_epik_Metal_State_Penalty>
5.70174

> <b_epik_Metal_Only>
0

> <s_lp_Force_Field>
OPLS_2005

> <r_lp_Energy>
41.9229

> <b_lp_Chiralities_Consistent>
1

> <s_lp_Variant>
AV-unprocessed.smi:1047-30

> <Gold.Version>
5.8.1

> <Gold.Id.Protein>
6NUR|6NUR_protein|mol2

> <Gold.PLP.Fitness>
66.3825

> <Gold.PLP.PLP>
-55.9050

> <Gold.PLP.part.hbond>
-4.0000

> <Gold.PLP.part.metal>
0.0000

> <Gold.PLP.part.buried>
-7.5907

> <Gold.PLP.part.nonpolar>
-45.6153

> <Gold.PLP.part.repulsive>
0.3020

> <Gold.PLP.ligand.clash>
0.0000

> <Gold.PLP.ligand.torsion>
1.7227

> <Gold.PLP.Chemscore.Hbond>
4.5039

> <Gold.PLP.Chemscore.CHOScore>
0.0000

> <Gold.PLP.Chemscore.Metal>
0.0000

> <Gold.Chemscore.Hbonds>
donor molecule, donor type, donor heavy atom, donor atom, acceptor molecule, acceptor atom, score
      L1  H     9    56       P1  7948  1.80
      L1  H    16    57       P1  8028  2.00
      P1  H 10752 10765       L1    12  0.53

> <Gold.PLP.Chemscore.Internal.Correction>
0.4113

> <Gold.Rescore>
     Score         DG    S(hbond)    S(metal)    S(lipo)     H(rot)  DE(clash)    DE(int)     intcor
     18.41     -20.16       1.85        0.00     131.70       2.69       0.06       1.69       ----

> <Gold.Chemscore.Fitness>
18.4088

> <Gold.Chemscore.DG>
-20.1629

> <Gold.Chemscore.ZeroCoef>
-5.4800

> <Gold.Chemscore.Hbond>
1.8456

> <Gold.Chemscore.Metal>
0.0000

> <Gold.Chemscore.Lipo>
131.7033

> <Gold.Chemscore.Internal_Hbond>
0.0000

> <Gold.Chemscore.DEClash>
0.0609

> <Gold.Chemscore.DEInternal>
1.6933

> <Gold.Chemscore.Rot>
2.6917

> <Gold.Chemscore.Internal.Correction>
   9.000000E+99

> <Gold.Chemscore.Hbonds>
donor molecule, donor type, donor heavy atom, donor atom, acceptor molecule, acceptor atom, score
      L1  H     9    56       P1  7948  0.18
      L1  H    16    57       P1  8028  1.00
      P1  H 10752 10765       L1    12  0.15

> <Gold.Chemscore.Hbond.Weighted>
-6.1643

> <Gold.Chemscore.Metal.Weighted>
-0.0000

> <Gold.Chemscore.Lipo.Weighted>
-15.4093

> <Gold.Chemscore.Internal_Hbond.Weighted>
0.0000

> <Gold.Chemscore.DEClash.Weighted>
0.0609

> <Gold.Chemscore.DEInternal.Weighted>
1.6933

> <Gold.Chemscore.Rot.Weighted>
6.8907

> <Gold.Chemscore.Internal.Correction.Weighted>
   9.000000E+99

> <Gold.Protein.RotatedTorsions>
[ 6907 6896 6895 6894 ] final -163.54 input  -60.11 | X-H torsion
[ 7974 7965 7964 7962 ] final -102.11 input  175.53 | X-H torsion
[ 8008 7997 7996 7995 ] final -171.96 input   59.86 | X-H torsion
[ 10167 10162 10161 10158 ] final   87.49 input  -65.29 | X-H torsion
[ 10718 10713 10712 10709 ] final -122.87 input   66.30 | X-H torsion
[ 10763 10752 10751 10750 ] final  159.39 input  -60.55 | X-H torsion
[ 11005 11000 10999 10996 ] final   43.18 input  -57.11 | X-H torsion

> <Gold.Protein.ActiveResidues>
 VAL166  LYS551  ARG553  GLY616  TRP617  ASP618  TYR619  PRO620  LYS621  CYS622 
 ASP623  PHE694  ASN695  SER759  ASP760  ASP761  ALA762  ILE779  LEU786  VAL792 
 PHE793  MET794  SER795  GLU796  ALA797  LYS798  CYS799  TRP800  GLU811  SER814 

> <Gold.Protein.RotatedAtoms>
  151.3977  133.3768  159.2728 H   0  0  0  0  0  0  0  0  0  0  0  0  # atno 6907 bound_to 6896
  150.9457  134.8863  159.7651 H   0  0  0  0  0  0  0  0  0  0  0  0  # atno 6908 bound_to 6896
  152.5090  134.3930  159.9442 H   0  0  0  0  0  0  0  0  0  0  0  0  # atno 6909 bound_to 6896
  145.2729  140.9304  143.2976 H   0  0  0  0  0  0  0  0  0  0  0  0  # atno 7974 bound_to 7965
  155.9384  140.1104  157.1075 H   0  0  0  0  0  0  0  0  0  0  0  0  # atno 8008 bound_to 7997
  154.4084  140.1224  156.4961 H   0  0  0  0  0  0  0  0  0  0  0  0  # atno 8009 bound_to 7997
  155.6992  140.3472  155.4928 H   0  0  0  0  0  0  0  0  0  0  0  0  # atno 8010 bound_to 7997
  139.8768  144.6462  150.8887 H   0  0  0  0  0  0  0  0  0  0  0  0  # atno 10167 bound_to 10162
  156.1454  130.6496  150.9835 H   0  0  0  0  0  0  0  0  0  0  0  0  # atno 10718 bound_to 10713
  154.2310  135.2778  155.2890 H   0  0  0  0  0  0  0  0  0  0  0  0  # atno 10763 bound_to 10752
  154.5624  135.5643  153.7022 H   0  0  0  0  0  0  0  0  0  0  0  0  # atno 10764 bound_to 10752
  153.0020  135.6301  154.2452 H   0  0  0  0  0  0  0  0  0  0  0  0  # atno 10765 bound_to 10752
  140.1669  134.4270  155.8281 H   0  0  0  0  0  0  0  0  0  0  0  0  # atno 11005 bound_to 11000
  144.9319  139.4288  143.6491 LP  0  0  0  0  0  0  0  0  0  0  0  0  # atno 17320 bound_to 7965
  146.3241  139.8234  142.8922 LP  0  0  0  0  0  0  0  0  0  0  0  0  # atno 17321 bound_to 7965
  140.7751  143.3618  151.1814 LP  0  0  0  0  0  0  0  0  0  0  0  0  # atno 17342 bound_to 10162
  139.7232  143.9189  152.2993 LP  0  0  0  0  0  0  0  0  0  0  0  0  # atno 17343 bound_to 10162
  157.6612  131.0880  150.7833 LP  0  0  0  0  0  0  0  0  0  0  0  0  # atno 17370 bound_to 10713
  156.7905  130.4888  149.5385 LP  0  0  0  0  0  0  0  0  0  0  0  0  # atno 17371 bound_to 10713
  141.2214  133.6938  156.7695 LP  0  0  0  0  0  0  0  0  0  0  0  0  # atno 17394 bound_to 11000
  140.2423  134.8604  157.3585 LP  0  0  0  0  0  0  0  0  0  0  0  0  # atno 17395 bound_to 11000

$$$$
