AV-unprocessed.smi:769|AV-procd|sdf|3675|dock8
  -GOLD-   22720 1 83D 1   1.00000     0.00000
 Structure written by MMmdl.
 50 52  0  0  0  0  0  0  0  0  2 V2000
  144.7454  136.6238  152.8944 O   0  0  0  0  0  0  0  0  0  0  0  0
  145.9528  136.4000  152.8115 C   0  0  0  0  0  0  0  0  0  0  0  0
  146.8862  137.2276  153.3038 N   0  0  0  0  0  0  0  0  0  0  0  0
  146.6054  138.4700  154.0145 C   0  0  0  0  0  0  0  0  0  0  0  0
  147.1682  139.6935  153.2647 C   0  0  0  0  0  0  0  0  0  0  0  0
  148.5216  140.0782  153.7375 N   0  3  0  0  0  0  0  0  0  0  0  0
  148.4653  141.0651  154.8505 C   0  0  0  0  0  0  0  0  0  0  0  0
  149.8736  141.4554  155.3364 C   0  0  0  0  0  0  0  0  0  0  0  0
  150.6001  140.2383  155.7083 N   0  0  0  0  0  0  0  0  0  0  0  0
  150.9501  139.9506  156.9858 C   0  0  0  0  0  0  0  0  0  0  0  0
  151.4725  138.8781  157.2920 O   0  0  0  0  0  0  0  0  0  0  0  0
  150.7288  141.0174  158.0800 C   0  0  0  0  0  0  0  0  0  0  0  0
  151.4149  142.3807  157.8610 C   0  0  0  0  0  0  0  0  0  0  0  0
  152.5049  141.9745  158.8573 C   0  0  0  0  0  0  0  0  0  0  0  0
  151.6076  140.8254  159.3277 C   0  0  0  0  0  0  0  0  0  0  0  0
  150.7768  139.3576  154.5500 C   0  0  0  0  0  0  0  0  0  0  0  0
  149.3923  138.9092  154.0483 C   0  0  0  0  0  0  0  0  0  0  0  0
  146.5136  135.3323  152.2170 N   0  0  0  0  0  0  0  0  0  0  0  0
  145.8841  134.2268  151.5812 C   0  0  0  0  0  0  0  0  0  0  0  0
  144.4788  134.2561  151.4649 C   0  0  0  0  0  0  0  0  0  0  0  0
  143.8260  133.1819  150.8279 C   0  0  0  0  0  0  0  0  0  0  0  0
  144.4779  132.1193  150.3116 N   0  0  0  0  0  0  0  0  0  0  0  0
  145.8236  132.0978  150.4122 C   0  0  0  0  0  0  0  0  0  0  0  0
  146.5733  133.1197  151.0290 C   0  0  0  0  0  0  0  0  0  0  0  0
  147.8570  136.9726  153.1920 H   0  0  0  0  0  0  0  0  0  0  0  0
  145.5290  138.5529  154.1673 H   0  0  0  0  0  0  0  0  0  0  0  0
  147.0551  138.4022  155.0053 H   0  0  0  0  0  0  0  0  0  0  0  0
  147.2180  139.4449  152.2034 H   0  0  0  0  0  0  0  0  0  0  0  0
  146.4986  140.5510  153.3474 H   0  0  0  0  0  0  0  0  0  0  0  0
  147.9331  141.9587  154.5219 H   0  0  0  0  0  0  0  0  0  0  0  0
  147.8942  140.6416  155.6788 H   0  0  0  0  0  0  0  0  0  0  0  0
  150.4165  141.9709  154.5428 H   0  0  0  0  0  0  0  0  0  0  0  0
  149.7936  142.1724  156.1544 H   0  0  0  0  0  0  0  0  0  0  0  0
  149.6714  141.1519  158.3108 H   0  0  0  0  0  0  0  0  0  0  0  0
  151.7880  142.5850  156.8569 H   0  0  0  0  0  0  0  0  0  0  0  0
  150.8063  143.2111  158.2218 H   0  0  0  0  0  0  0  0  0  0  0  0
  153.4135  141.6240  158.3659 H   0  0  0  0  0  0  0  0  0  0  0  0
  152.7207  142.7223  159.6209 H   0  0  0  0  0  0  0  0  0  0  0  0
  151.0744  141.0515  160.2521 H   0  0  0  0  0  0  0  0  0  0  0  0
  152.1226  139.8659  159.3933 H   0  0  0  0  0  0  0  0  0  0  0  0
  151.2942  139.9083  153.7630 H   0  0  0  0  0  0  0  0  0  0  0  0
  151.4032  138.4894  154.7479 H   0  0  0  0  0  0  0  0  0  0  0  0
  148.9106  138.2884  154.8055 H   0  0  0  0  0  0  0  0  0  0  0  0
  149.5212  138.2867  153.1639 H   0  0  0  0  0  0  0  0  0  0  0  0
  147.5222  135.3293  152.1776 H   0  0  0  0  0  0  0  0  0  0  0  0
  143.9054  135.0826  151.8587 H   0  0  0  0  0  0  0  0  0  0  0  0
  142.7506  133.1778  150.7298 H   0  0  0  0  0  0  0  0  0  0  0  0
  146.3208  131.2407  149.9826 H   0  0  0  0  0  0  0  0  0  0  0  0
  147.6483  133.0346  151.0521 H   0  0  0  0  0  0  0  0  0  0  0  0
  148.9628  140.5641  152.9698 H   0  0  0  0  0  0  0  0  0  0  0  0
  1  2  2  0  0  0  0
  2  3  1  0  0  0  0
  2 18  1  0  0  0  0
  3  4  1  0  0  0  0
  3 25  1  0  0  0  0
  4  5  1  0  0  0  0
  4 26  1  0  0  0  0
  4 27  1  0  0  0  0
  5  6  1  0  0  0  0
  5 28  1  0  0  0  0
  5 29  1  0  0  0  0
  6 17  1  0  0  0  0
  6  7  1  0  0  0  0
  6 50  1  0  0  0  0
  7  8  1  0  0  0  0
  7 30  1  0  0  0  0
  7 31  1  0  0  0  0
  8  9  1  0  0  0  0
  8 32  1  0  0  0  0
  8 33  1  0  0  0  0
  9 10  1  0  0  0  0
  9 16  1  0  0  0  0
 10 11  2  0  0  0  0
 10 12  1  0  0  0  0
 12 15  1  0  0  0  0
 12 13  1  0  0  0  0
 12 34  1  0  0  0  0
 13 14  1  0  0  0  0
 13 35  1  0  0  0  0
 13 36  1  0  0  0  0
 14 15  1  0  0  0  0
 14 37  1  0  0  0  0
 14 38  1  0  0  0  0
 15 39  1  0  0  0  0
 15 40  1  0  0  0  0
 16 17  1  0  0  0  0
 16 41  1  0  0  0  0
 16 42  1  0  0  0  0
 17 43  1  0  0  0  0
 17 44  1  0  0  0  0
 18 19  1  0  0  0  0
 18 45  1  0  0  0  0
 19 24  1  0  0  0  0
 19 20  2  0  0  0  0
 20 21  1  0  0  0  0
 20 46  1  0  0  0  0
 21 22  2  0  0  0  0
 21 47  1  0  0  0  0
 22 23  1  0  0  0  0
 23 24  2  0  0  0  0
 23 48  1  0  0  0  0
 24 49  1  0  0  0  0
M  CHG  1   6   1
M  END
> <s_m_source_file>
AV-unprocessed.smi

> <i_m_source_file_index>
769

> <i_lp_mmshare_version>
43012

> <i_f3d_flags>
0

> <s_epik_input>
W2NIXTFbY0hdbltjSF1bY0hdYzFbTkhdQyg9TylbTkhdW0NIMl1bQ0gyXU4yW0NIMl1bQ0gyXU4oW0NIMl1bQ0gyXTIpQyg9TylbQ0hdM1tDSDJdW0NIMl1bQ0gyXTM=

> <s_epik_cmdline>
J2VwaWtfcHl0aG9uJywgJy1waCcsICc3LjAnLCAnLXRuJywgJzgnLCAnLW1hJywgJzIwMCcsICctbWV0YWxfYmluZGluZycsICctaW1hZScsICc8aW5maWxlLm1hZT4nLCAnLW9tYWUnLCAnPG91dGZpbGUubWFlPic=

> <r_epik_Ionization_Penalty>
0.680309

> <r_epik_Ionization_Penalty_Charging>
0.581996

> <r_epik_Ionization_Penalty_Neutral>
0.0983131

> <r_epik_State_Penalty>
0.686881

> <r_epik_Charging_Adjusted_Penalty>
1.26888

> <i_epik_Tot_Q>
1

> <i_epik_Tot_abs_Q>
1

> <r_epik_Metal_State_Penalty>
0.68612

> <b_epik_Metal_Only>
0

> <s_lp_Force_Field>
OPLS_2005

> <r_lp_Energy>
56.1037

> <b_lp_Chiralities_Consistent>
1

> <s_lp_Variant>
AV-unprocessed.smi:769-2

> <Gold.Version>
5.8.1

> <Gold.Id.Protein>
6NUR|6NUR_protein|mol2

> <Gold.PLP.Fitness>
52.1197

> <Gold.PLP.PLP>
-40.9920

> <Gold.PLP.part.hbond>
-3.0000

> <Gold.PLP.part.metal>
0.0000

> <Gold.PLP.part.buried>
-2.7755

> <Gold.PLP.part.nonpolar>
-35.4176

> <Gold.PLP.part.repulsive>
0.4536

> <Gold.PLP.ligand.clash>
0.0000

> <Gold.PLP.ligand.torsion>
0.8357

> <Gold.PLP.Chemscore.Hbond>
2.4560

> <Gold.PLP.Chemscore.CHOScore>
1.6710

> <Gold.PLP.Chemscore.Metal>
0.0000

> <Gold.Chemscore.Hbonds>
donor molecule, donor type, donor heavy atom, donor atom, acceptor molecule, acceptor atom, score
      L1  H     3    25       P1  7948  0.75
      L1  H     6    50       P1  7957  0.70
      L1  H    18    45       P1  7948  0.94
      L1  C    21    47       P1 10186  1.00
      L1  C    23    48       P1 10747  0.52

> <Gold.PLP.Chemscore.Internal.Correction>
0.4183

> <Gold.Rescore>
     Score         DG    S(hbond)    S(metal)    S(lipo)     H(rot)  DE(clash)    DE(int)     intcor
     19.30     -21.73       2.65        0.00     100.89       1.72       0.22       2.20       ----

> <Gold.Chemscore.Fitness>
19.3014

> <Gold.Chemscore.DG>
-21.7265

> <Gold.Chemscore.ZeroCoef>
-5.4800

> <Gold.Chemscore.Hbond>
2.6481

> <Gold.Chemscore.Metal>
0.0000

> <Gold.Chemscore.Lipo>
100.8881

> <Gold.Chemscore.Internal_Hbond>
0.0000

> <Gold.Chemscore.DEClash>
0.2220

> <Gold.Chemscore.DEInternal>
2.2031

> <Gold.Chemscore.Rot>
1.7195

> <Gold.Chemscore.Internal.Correction>
   9.000000E+99

> <Gold.Chemscore.Hbonds>
donor molecule, donor type, donor heavy atom, donor atom, acceptor molecule, acceptor atom, score
      L1  H     3    25       P1  7948  0.76
      L1  H     6    50       P1  7957  0.68
      L1  H    18    45       P1  7948  0.92

> <Gold.Chemscore.Hbond.Weighted>
-8.8446

> <Gold.Chemscore.Metal.Weighted>
-0.0000

> <Gold.Chemscore.Lipo.Weighted>
-11.8039

> <Gold.Chemscore.Internal_Hbond.Weighted>
0.0000

> <Gold.Chemscore.DEClash.Weighted>
0.2220

> <Gold.Chemscore.DEInternal.Weighted>
2.2031

> <Gold.Chemscore.Rot.Weighted>
4.4020

> <Gold.Chemscore.Internal.Correction.Weighted>
   9.000000E+99

> <Gold.Protein.RotatedTorsions>
[ 6907 6896 6895 6894 ] final  -24.71 input  -60.11 | X-H torsion
[ 7974 7965 7964 7962 ] final   54.75 input  175.53 | X-H torsion
[ 8008 7997 7996 7995 ] final  -45.42 input   59.86 | X-H torsion
[ 10167 10162 10161 10158 ] final   90.44 input  -65.29 | X-H torsion
[ 10718 10713 10712 10709 ] final -146.71 input   66.30 | X-H torsion
[ 10763 10752 10751 10750 ] final  -29.25 input  -60.55 | X-H torsion
[ 11005 11000 10999 10996 ] final  151.63 input  -57.11 | X-H torsion

> <Gold.Protein.ActiveResidues>
 VAL166  LYS551  ARG553  GLY616  TRP617  ASP618  TYR619  PRO620  LYS621  CYS622 
 ASP623  PHE694  ASN695  SER759  ASP760  ASP761  ALA762  ILE779  LEU786  VAL792 
 PHE793  MET794  SER795  GLU796  ALA797  LYS798  CYS799  TRP800  GLU811  SER814 

> <Gold.Protein.RotatedAtoms>
  151.1856  135.0380  159.8810 H   0  0  0  0  0  0  0  0  0  0  0  0  # atno 6907 bound_to 6896
  152.5442  134.1013  159.8329 H   0  0  0  0  0  0  0  0  0  0  0  0  # atno 6908 bound_to 6896
  151.1135  133.5108  159.2637 H   0  0  0  0  0  0  0  0  0  0  0  0  # atno 6909 bound_to 6896
  145.9576  139.4029  143.0268 H   0  0  0  0  0  0  0  0  0  0  0  0  # atno 7974 bound_to 7965
  154.4001  140.1397  156.3844 H   0  0  0  0  0  0  0  0  0  0  0  0  # atno 8008 bound_to 7997
  155.7973  140.3477  155.5362 H   0  0  0  0  0  0  0  0  0  0  0  0  # atno 8009 bound_to 7997
  155.8519  140.0943  157.1660 H   0  0  0  0  0  0  0  0  0  0  0  0  # atno 8010 bound_to 7997
  139.8473  144.6611  150.9212 H   0  0  0  0  0  0  0  0  0  0  0  0  # atno 10167 bound_to 10162
  156.3984  130.7921  151.2129 H   0  0  0  0  0  0  0  0  0  0  0  0  # atno 10718 bound_to 10713
  153.7616  135.6919  153.4924 H   0  0  0  0  0  0  0  0  0  0  0  0  # atno 10763 bound_to 10752
  153.1934  135.4462  155.0177 H   0  0  0  0  0  0  0  0  0  0  0  0  # atno 10764 bound_to 10752
  154.8151  135.3395  154.7131 H   0  0  0  0  0  0  0  0  0  0  0  0  # atno 10765 bound_to 10752
  140.1236  134.8848  157.2106 H   0  0  0  0  0  0  0  0  0  0  0  0  # atno 11005 bound_to 11000
  145.8085  140.9737  143.0961 LP  0  0  0  0  0  0  0  0  0  0  0  0  # atno 17320 bound_to 7965
  144.6808  139.9891  143.7484 LP  0  0  0  0  0  0  0  0  0  0  0  0  # atno 17321 bound_to 7965
  140.7791  143.3859  151.1395 LP  0  0  0  0  0  0  0  0  0  0  0  0  # atno 17342 bound_to 10162
  139.7500  143.8793  152.3074 LP  0  0  0  0  0  0  0  0  0  0  0  0  # atno 17343 bound_to 10162
  157.7503  131.0294  150.4092 LP  0  0  0  0  0  0  0  0  0  0  0  0  # atno 17370 bound_to 10713
  156.4367  130.3983  149.6724 LP  0  0  0  0  0  0  0  0  0  0  0  0  # atno 17371 bound_to 10713
  140.2933  134.3215  155.7309 LP  0  0  0  0  0  0  0  0  0  0  0  0  # atno 17394 bound_to 11000
  141.2156  133.7548  156.9535 LP  0  0  0  0  0  0  0  0  0  0  0  0  # atno 17395 bound_to 11000

$$$$
