AV-unprocessed.smi:107|AV-procd|sdf|1017|dock8
  -GOLD-   2262018 13D 1   1.00000     0.00000
 Structure written by MMmdl.
 31 32  0  0  0  0  0  0  0  0  1 V2000
  152.4669  138.2270  154.4355 C   0  0  0  0  0  0  0  0  0  0  0  0
  151.7177  139.3112  155.1921 C   0  0  0  0  0  0  0  0  0  0  0  0
  150.6587  139.9714  154.6585 C   0  0  0  0  0  0  0  0  0  0  0  0
  149.9548  140.9667  155.3212 N   0  0  0  0  0  0  0  0  0  0  0  0
  148.8010  141.6682  154.6408 C   0  0  2  0  0  0  0  0  0  0  0  0
  147.4970  141.4859  155.4258 C   0  0  0  0  0  0  0  0  0  0  0  0
  146.6982  140.5593  154.5265 C   0  0  1  0  0  0  0  0  0  0  0  0
  145.3130  140.8161  154.6361 O   0  0  0  0  0  0  0  0  0  0  0  0
  147.2446  140.8875  153.1343 C   0  0  2  0  0  0  0  0  0  0  0  0
  147.0630  139.7480  152.1201 C   0  0  0  0  0  0  0  0  0  0  0  0
  147.4860  138.5253  152.6844 O   0  0  0  0  0  0  0  0  0  0  0  0
  148.6310  141.1010  153.3778 O   0  0  0  0  0  0  0  0  0  0  0  0
  150.3507  141.3421  156.6229 C   0  0  0  0  0  0  0  0  0  0  0  0
  149.7810  142.2140  157.2781 O   0  0  0  0  0  0  0  0  0  0  0  0
  151.4383  140.6644  157.1717 N   0  0  0  0  0  0  0  0  0  0  0  0
  152.1687  139.6523  156.5440 C   0  0  0  0  0  0  0  0  0  0  0  0
  153.1101  139.1262  157.1353 O   0  0  0  0  0  0  0  0  0  0  0  0
  151.7230  140.9281  158.1037 H   0  0  0  0  0  0  0  0  0  0  0  0
  152.0383  138.0528  153.4483 H   0  0  0  0  0  0  0  0  0  0  0  0
  152.4333  137.2855  154.9847 H   0  0  0  0  0  0  0  0  0  0  0  0
  153.5118  138.5092  154.3016 H   0  0  0  0  0  0  0  0  0  0  0  0
  150.3492  139.7097  153.6577 H   0  0  0  0  0  0  0  0  0  0  0  0
  149.0643  142.7186  154.5130 H   0  0  0  0  0  0  0  0  0  0  0  0
  147.6667  141.0843  156.4257 H   0  0  0  0  0  0  0  0  0  0  0  0
  147.0179  142.4619  155.5180 H   0  0  0  0  0  0  0  0  0  0  0  0
  146.9008  139.5195  154.7853 H   0  0  0  0  0  0  0  0  0  0  0  0
  144.8918  140.5487  153.8334 H   0  0  0  0  0  0  0  0  0  0  0  0
  146.7991  141.8171  152.7740 H   0  0  0  0  0  0  0  0  0  0  0  0
  146.0276  139.6760  151.7855 H   0  0  0  0  0  0  0  0  0  0  0  0
  147.6771  139.9292  151.2375 H   0  0  0  0  0  0  0  0  0  0  0  0
  147.9381  138.0281  152.0199 H   0  0  0  0  0  0  0  0  0  0  0  0
  1  2  1  0  0  0  0
  1 19  1  0  0  0  0
  1 20  1  0  0  0  0
  1 21  1  0  0  0  0
  2 16  1  0  0  0  0
  2  3  2  0  0  0  0
  3  4  1  0  0  0  0
  3 22  1  0  0  0  0
  4  5  1  0  0  0  0
  4 13  1  0  0  0  0
  5 12  1  0  0  0  0
  5  6  1  0  0  0  0
  5 23  1  0  0  0  0
  6  7  1  0  0  0  0
  6 24  1  0  0  0  0
  6 25  1  0  0  0  0
  7  8  1  0  0  0  0
  7  9  1  0  0  0  0
  7 26  1  0  0  0  0
  8 27  1  0  0  0  0
  9 10  1  0  0  0  0
  9 12  1  0  0  0  0
  9 28  1  0  0  0  0
 10 11  1  0  0  0  0
 10 29  1  0  0  0  0
 10 30  1  0  0  0  0
 11 31  1  0  0  0  0
 13 14  2  0  0  0  0
 13 15  1  0  0  0  0
 15 18  1  0  0  0  0
 15 16  1  0  0  0  0
 16 17  2  0  0  0  0
M  END
> <s_m_source_file>
AV-unprocessed.smi

> <i_m_source_file_index>
107

> <i_lp_mmshare_version>
43012

> <i_f3d_flags>
0

> <s_epik_input>
Tz1jMVtuSF1jKD1PKW4oW2NIXWMxW0NIM10pW0NAQEhdMltDSDJdW0NAQEhdKFtPSF0pW0NASF0oTzIpW0NIMl1bT0hd

> <s_epik_cmdline>
J2VwaWtfcHl0aG9uJywgJy1waCcsICc3LjAnLCAnLXRuJywgJzgnLCAnLW1hJywgJzIwMCcsICctbWV0YWxfYmluZGluZycsICctaW1hZScsICc8aW5maWxlLm1hZT4nLCAnLW9tYWUnLCAnPG91dGZpbGUubWFlPic=

> <r_lp_tautomer_probability>
0.999537

> <r_epik_Ionization_Penalty>
0.00121888

> <r_epik_Ionization_Penalty_Charging>
0.00121876

> <r_epik_Ionization_Penalty_Neutral>
1.19946e-07

> <r_epik_State_Penalty>
0.000805124

> <r_epik_Charging_Adjusted_Penalty>
0.00202389

> <i_epik_Tot_Q>
0

> <i_epik_Tot_abs_Q>
0

> <r_epik_Metal_State_Penalty>
0.662472

> <b_epik_Metal_Only>
0

> <s_epik_Chemistry_Notes>
This compound contains an acetal/aminal-like group ( X-CH(R)-Y where X, Y are N, S, or O) that may be acid/base labile, releasing an aldehyde.

> <s_lp_Force_Field>
OPLS_2005

> <r_lp_Energy>
24.9707

> <b_lp_Chiralities_Consistent>
1

> <s_lp_Variant>
AV-unprocessed.smi:107-5

> <Gold.Version>
5.8.1

> <Gold.Id.Protein>
6NUR|6NUR_protein|mol2

> <Gold.PLP.Fitness>
39.9008

> <Gold.PLP.PLP>
-26.5367

> <Gold.PLP.part.hbond>
-5.0000

> <Gold.PLP.part.metal>
0.0000

> <Gold.PLP.part.buried>
4.2368

> <Gold.PLP.part.nonpolar>
-27.4766

> <Gold.PLP.part.repulsive>
3.3196

> <Gold.PLP.ligand.clash>
0.0000

> <Gold.PLP.ligand.torsion>
0.0512

> <Gold.PLP.Chemscore.Hbond>
3.6970

> <Gold.PLP.Chemscore.CHOScore>
0.7876

> <Gold.PLP.Chemscore.Metal>
0.0000

> <Gold.Chemscore.Hbonds>
donor molecule, donor type, donor heavy atom, donor atom, acceptor molecule, acceptor atom, score
      L1  H     8    27       P1 10175  1.00
      L1  H    11    31       P1  7948  0.78
      P1  H  7997  8008       L1    17  1.00
      P1  H  8011  8017       L1    12  0.86
      L1  C     3    22       P1  7957  0.78

> <Gold.PLP.Chemscore.Internal.Correction>
0.0127

> <Gold.Rescore>
     Score         DG    S(hbond)    S(metal)    S(lipo)     H(rot)  DE(clash)    DE(int)     intcor
     12.79     -13.15       2.80        0.00      45.21       2.73       0.20       0.16       ----

> <Gold.Chemscore.Fitness>
12.7860

> <Gold.Chemscore.DG>
-13.1526

> <Gold.Chemscore.ZeroCoef>
-5.4800

> <Gold.Chemscore.Hbond>
2.8022

> <Gold.Chemscore.Metal>
0.0000

> <Gold.Chemscore.Lipo>
45.2140

> <Gold.Chemscore.Internal_Hbond>
0.0000

> <Gold.Chemscore.DEClash>
0.2044

> <Gold.Chemscore.DEInternal>
0.1623

> <Gold.Chemscore.Rot>
2.7253

> <Gold.Chemscore.Internal.Correction>
   9.000000E+99

> <Gold.Chemscore.Hbonds>
donor molecule, donor type, donor heavy atom, donor atom, acceptor molecule, acceptor atom, score
      L1  H     8    27       P1 10175  0.99
      L1  H    11    31       P1  7948  0.73
      P1  H  7997  8008       L1    17  0.70
      P1  H  8011  8017       L1    12  0.15

> <Gold.Chemscore.Hbond.Weighted>
-9.3594

> <Gold.Chemscore.Metal.Weighted>
-0.0000

> <Gold.Chemscore.Lipo.Weighted>
-5.2900

> <Gold.Chemscore.Internal_Hbond.Weighted>
0.0000

> <Gold.Chemscore.DEClash.Weighted>
0.2044

> <Gold.Chemscore.DEInternal.Weighted>
0.1623

> <Gold.Chemscore.Rot.Weighted>
6.9769

> <Gold.Chemscore.Internal.Correction.Weighted>
   9.000000E+99

> <Gold.Protein.RotatedTorsions>
[ 6907 6896 6895 6894 ] final  162.83 input  -60.11 | X-H torsion
[ 7974 7965 7964 7962 ] final  -78.45 input  175.53 | X-H torsion
[ 8008 7997 7996 7995 ] final  -75.59 input   59.86 | X-H torsion
[ 10167 10162 10161 10158 ] final   33.48 input  -65.29 | X-H torsion
[ 10718 10713 10712 10709 ] final   53.58 input   66.30 | X-H torsion
[ 10763 10752 10751 10750 ] final   76.29 input  -60.55 | X-H torsion
[ 11005 11000 10999 10996 ] final   84.33 input  -57.11 | X-H torsion

> <Gold.Protein.ActiveResidues>
 VAL166  LYS551  ARG553  GLY616  TRP617  ASP618  TYR619  PRO620  LYS621  CYS622 
 ASP623  PHE694  ASN695  SER759  ASP760  ASP761  ALA762  ILE779  LEU786  VAL792 
 PHE793  MET794  SER795  GLU796  ALA797  LYS798  CYS799  TRP800  GLU811  SER814 

> <Gold.Protein.RotatedAtoms>
  151.9344  133.3620  159.3942 H   0  0  0  0  0  0  0  0  0  0  0  0  # atno 6907 bound_to 6896
  150.7010  134.4504  159.5343 H   0  0  0  0  0  0  0  0  0  0  0  0  # atno 6908 bound_to 6896
  152.2150  134.8466  160.0543 H   0  0  0  0  0  0  0  0  0  0  0  0  # atno 6909 bound_to 6896
  145.5863  140.9438  143.1316 H   0  0  0  0  0  0  0  0  0  0  0  0  # atno 7974 bound_to 7965
  154.5430  140.0741  156.8542 H   0  0  0  0  0  0  0  0  0  0  0  0  # atno 8008 bound_to 7997
  155.3143  140.3392  155.4225 H   0  0  0  0  0  0  0  0  0  0  0  0  # atno 8009 bound_to 7997
  156.1892  140.1680  156.8111 H   0  0  0  0  0  0  0  0  0  0  0  0  # atno 8010 bound_to 7997
  140.4403  144.1196  150.6173 H   0  0  0  0  0  0  0  0  0  0  0  0  # atno 10167 bound_to 10162
  157.5180  130.8545  149.8521 H   0  0  0  0  0  0  0  0  0  0  0  0  # atno 10718 bound_to 10713
  153.0715  135.4957  154.8315 H   0  0  0  0  0  0  0  0  0  0  0  0  # atno 10763 bound_to 10752
  154.7029  135.3005  154.9316 H   0  0  0  0  0  0  0  0  0  0  0  0  # atno 10764 bound_to 10752
  154.0034  135.6763  153.4813 H   0  0  0  0  0  0  0  0  0  0  0  0  # atno 10765 bound_to 10752
  139.9004  134.8208  156.2430 H   0  0  0  0  0  0  0  0  0  0  0  0  # atno 11005 bound_to 11000
  144.7371  139.7554  143.7325 LP  0  0  0  0  0  0  0  0  0  0  0  0  # atno 17320 bound_to 7965
  146.1680  139.4818  142.9946 LP  0  0  0  0  0  0  0  0  0  0  0  0  # atno 17321 bound_to 7965
  140.4325  143.2561  151.9577 LP  0  0  0  0  0  0  0  0  0  0  0  0  # atno 17342 bound_to 10162
  139.4789  144.5730  151.8057 LP  0  0  0  0  0  0  0  0  0  0  0  0  # atno 17343 bound_to 10162
  156.0334  130.3758  150.1627 LP  0  0  0  0  0  0  0  0  0  0  0  0  # atno 17370 bound_to 10713
  156.9815  130.9865  151.3436 LP  0  0  0  0  0  0  0  0  0  0  0  0  # atno 17371 bound_to 10713
  141.0273  133.7008  156.1369 LP  0  0  0  0  0  0  0  0  0  0  0  0  # atno 17394 bound_to 11000
  140.7148  134.4422  157.5579 LP  0  0  0  0  0  0  0  0  0  0  0  0  # atno 17395 bound_to 11000

$$$$
