AV-unprocessed.smi:2530|AV-procd|sdf|9963|dock6
  -GOLD-   2272014 03D 1   1.00000     0.00000
 Structure written by MMmdl.
 44 46  0  0  0  0  0  0  0  0  1 V2000
  153.0460  142.8126  162.8364 C   0  0  0  0  0  0  0  0  0  0  0  0
  152.6847  143.0939  161.3926 C   0  0  0  0  0  0  0  0  0  0  0  0
  152.3865  144.4057  160.9799 C   0  0  0  0  0  0  0  0  0  0  0  0
  152.0473  144.6601  159.6388 C   0  0  0  0  0  0  0  0  0  0  0  0
  152.0080  143.6114  158.6950 C   0  0  0  0  0  0  0  0  0  0  0  0
  151.6185  143.9392  157.2637 C   0  0  0  0  0  0  0  0  0  0  0  0
  152.3228  142.2870  159.1007 C   0  0  0  0  0  0  0  0  0  0  0  0
  152.2941  141.1148  158.1190 C   0  0  1  0  0  0  0  0  0  0  0  0
  153.2611  140.1361  158.4507 O   0  0  0  0  0  0  0  0  0  0  0  0
  150.9009  140.4468  158.1021 C   0  0  0  0  0  0  0  0  0  0  0  0
  150.8896  139.1796  157.3509 N   0  0  0  0  0  0  0  0  0  0  0  0
  150.6767  138.0082  158.1030 C   0  0  0  0  0  0  0  0  0  0  0  0
  150.6443  136.8379  157.5493 N   0  0  0  0  0  0  0  0  0  0  0  0
  150.8267  136.7169  156.1670 C   0  0  0  0  0  0  0  0  0  0  0  0
  150.8055  135.3145  155.5743 C   0  0  0  0  0  0  0  0  0  0  0  0
  149.5567  134.9421  154.7570 C   0  0  0  0  0  0  0  0  0  0  0  0
  149.6446  133.5444  155.3796 C   0  0  0  0  0  0  0  0  0  0  0  0
  150.4185  134.1817  156.5392 C   0  0  0  0  0  0  0  0  0  0  0  0
  151.0441  137.8135  155.4026 C   0  0  0  0  0  0  0  0  0  0  0  0
  151.0809  139.1485  155.9998 C   0  0  0  0  0  0  0  0  0  0  0  0
  151.2726  140.1658  155.3339 O   0  0  0  0  0  0  0  0  0  0  0  0
  152.6509  142.0434  160.4548 C   0  0  0  0  0  0  0  0  0  0  0  0
  152.5920  143.5470  163.5024 H   0  0  0  0  0  0  0  0  0  0  0  0
  154.1275  142.8518  162.9669 H   0  0  0  0  0  0  0  0  0  0  0  0
  152.6987  141.8238  163.1375 H   0  0  0  0  0  0  0  0  0  0  0  0
  152.4128  145.2197  161.6897 H   0  0  0  0  0  0  0  0  0  0  0  0
  151.8138  145.6709  159.3380 H   0  0  0  0  0  0  0  0  0  0  0  0
  152.4526  143.7545  156.5866 H   0  0  0  0  0  0  0  0  0  0  0  0
  151.3309  144.9858  157.1595 H   0  0  0  0  0  0  0  0  0  0  0  0
  150.7695  143.3323  156.9503 H   0  0  0  0  0  0  0  0  0  0  0  0
  152.5514  141.4658  157.1211 H   0  0  0  0  0  0  0  0  0  0  0  0
  153.0975  139.8430  159.3343 H   0  0  0  0  0  0  0  0  0  0  0  0
  150.5279  140.3231  159.1210 H   0  0  0  0  0  0  0  0  0  0  0  0
  150.1859  141.1252  157.6330 H   0  0  0  0  0  0  0  0  0  0  0  0
  150.5461  138.1570  159.1764 H   0  0  0  0  0  0  0  0  0  0  0  0
  151.7263  135.0907  155.0326 H   0  0  0  0  0  0  0  0  0  0  0  0
  148.6554  135.4755  155.0651 H   0  0  0  0  0  0  0  0  0  0  0  0
  149.6934  134.9709  153.6757 H   0  0  0  0  0  0  0  0  0  0  0  0
  148.6856  133.1054  155.6559 H   0  0  0  0  0  0  0  0  0  0  0  0
  150.2529  132.8553  154.7915 H   0  0  0  0  0  0  0  0  0  0  0  0
  151.2567  133.5905  156.9090 H   0  0  0  0  0  0  0  0  0  0  0  0
  149.7620  134.5044  157.3496 H   0  0  0  0  0  0  0  0  0  0  0  0
  151.1923  137.7109  154.3375 H   0  0  0  0  0  0  0  0  0  0  0  0
  152.8785  141.0391  160.7821 H   0  0  0  0  0  0  0  0  0  0  0  0
  1  2  1  0  0  0  0
  1 23  1  0  0  0  0
  1 24  1  0  0  0  0
  1 25  1  0  0  0  0
  2 22  1  0  0  0  0
  2  3  2  0  0  0  0
  3  4  1  0  0  0  0
  3 26  1  0  0  0  0
  4  5  2  0  0  0  0
  4 27  1  0  0  0  0
  5  6  1  0  0  0  0
  5  7  1  0  0  0  0
  6 28  1  0  0  0  0
  6 29  1  0  0  0  0
  6 30  1  0  0  0  0
  7  8  1  0  0  0  0
  7 22  2  0  0  0  0
  8  9  1  0  0  0  0
  8 10  1  0  0  0  0
  8 31  1  0  0  0  0
  9 32  1  0  0  0  0
 10 11  1  0  0  0  0
 10 33  1  0  0  0  0
 10 34  1  0  0  0  0
 11 20  1  0  0  0  0
 11 12  1  0  0  0  0
 12 13  2  0  0  0  0
 12 35  1  0  0  0  0
 13 14  1  0  0  0  0
 14 15  1  0  0  0  0
 14 19  2  0  0  0  0
 15 18  1  0  0  0  0
 15 16  1  0  0  0  0
 15 36  1  0  0  0  0
 16 17  1  0  0  0  0
 16 37  1  0  0  0  0
 16 38  1  0  0  0  0
 17 18  1  0  0  0  0
 17 39  1  0  0  0  0
 17 40  1  0  0  0  0
 18 41  1  0  0  0  0
 18 42  1  0  0  0  0
 19 20  1  0  0  0  0
 19 43  1  0  0  0  0
 20 21  2  0  0  0  0
 22 44  1  0  0  0  0
M  END
> <s_m_source_file>
AV-unprocessed.smi

> <i_m_source_file_index>
2530

> <i_lp_mmshare_version>
43012

> <i_f3d_flags>
0

> <s_epik_input>
W0NIM11jMVtjSF1bY0hdYyhbQ0gzXSljKFtjSF0xKVtDQEhdKFtPSF0pW0NIMl1uMltjSF1uYyhbY0hdYzI9TylbQ0hdM1tDSDJdW0NIMl1bQ0gyXTM=

> <s_epik_cmdline>
J2VwaWtfcHl0aG9uJywgJy1waCcsICc3LjAnLCAnLXRuJywgJzgnLCAnLW1hJywgJzIwMCcsICctbWV0YWxfYmluZGluZycsICctaW1hZScsICc8aW5maWxlLm1hZT4nLCAnLW9tYWUnLCAnPG91dGZpbGUubWFlPic=

> <r_lp_tautomer_probability>
1

> <r_epik_Ionization_Penalty>
2.57341e-05

> <r_epik_Ionization_Penalty_Charging>
5.39435e-08

> <r_epik_Ionization_Penalty_Neutral>
2.56801e-05

> <r_epik_State_Penalty>
-0

> <r_epik_Charging_Adjusted_Penalty>
5.39435e-08

> <i_epik_Tot_Q>
0

> <i_epik_Tot_abs_Q>
0

> <r_epik_Metal_State_Penalty>
-0

> <b_epik_Metal_Only>
0

> <s_lp_Force_Field>
OPLS_2005

> <r_lp_Energy>
28.9103

> <b_lp_Chiralities_Consistent>
1

> <s_lp_Variant>
AV-unprocessed.smi:2530-2

> <Gold.Version>
5.8.1

> <Gold.Id.Protein>
6NUR|6NUR_protein|mol2

> <Gold.PLP.Fitness>
50.7956

> <Gold.PLP.PLP>
-46.5978

> <Gold.PLP.part.hbond>
-2.0000

> <Gold.PLP.part.metal>
0.0000

> <Gold.PLP.part.buried>
-3.5832

> <Gold.PLP.part.nonpolar>
-39.3150

> <Gold.PLP.part.repulsive>
0.0239

> <Gold.PLP.ligand.clash>
0.0000

> <Gold.PLP.ligand.torsion>
1.0538

> <Gold.PLP.Chemscore.Hbond>
1.9760

> <Gold.PLP.Chemscore.CHOScore>
0.0000

> <Gold.PLP.Chemscore.Metal>
0.0000

> <Gold.Chemscore.Hbonds>
donor molecule, donor type, donor heavy atom, donor atom, acceptor molecule, acceptor atom, score
      P1  H  7989  7998       L1    21  1.00
      P1  H  7997  8009       L1     9  0.99

> <Gold.PLP.Chemscore.Internal.Correction>
0.3775

> <Gold.Rescore>
     Score         DG    S(hbond)    S(metal)    S(lipo)     H(rot)  DE(clash)    DE(int)     intcor
     21.13     -22.18       1.82        0.00     133.74       1.97       0.06       0.98       ----

> <Gold.Chemscore.Fitness>
21.1321

> <Gold.Chemscore.DG>
-22.1799

> <Gold.Chemscore.ZeroCoef>
-5.4800

> <Gold.Chemscore.Hbond>
1.8237

> <Gold.Chemscore.Metal>
0.0000

> <Gold.Chemscore.Lipo>
133.7418

> <Gold.Chemscore.Internal_Hbond>
0.0000

> <Gold.Chemscore.DEClash>
0.0634

> <Gold.Chemscore.DEInternal>
0.9843

> <Gold.Chemscore.Rot>
1.9684

> <Gold.Chemscore.Internal.Correction>
   9.000000E+99

> <Gold.Chemscore.Hbonds>
donor molecule, donor type, donor heavy atom, donor atom, acceptor molecule, acceptor atom, score
      P1  H  7989  7998       L1    21  0.94
      P1  H  7997  8009       L1     9  0.70

> <Gold.Chemscore.Hbond.Weighted>
-6.0912

> <Gold.Chemscore.Metal.Weighted>
-0.0000

> <Gold.Chemscore.Lipo.Weighted>
-15.6478

> <Gold.Chemscore.Internal_Hbond.Weighted>
0.0000

> <Gold.Chemscore.DEClash.Weighted>
0.0634

> <Gold.Chemscore.DEInternal.Weighted>
0.9843

> <Gold.Chemscore.Rot.Weighted>
5.0391

> <Gold.Chemscore.Internal.Correction.Weighted>
   9.000000E+99

> <Gold.Protein.RotatedTorsions>
[ 6907 6896 6895 6894 ] final  -44.97 input  -60.11 | X-H torsion
[ 7974 7965 7964 7962 ] final  160.54 input  175.53 | X-H torsion
[ 8008 7997 7996 7995 ] final  152.80 input   59.86 | X-H torsion
[ 10167 10162 10161 10158 ] final   50.74 input  -65.29 | X-H torsion
[ 10718 10713 10712 10709 ] final   82.94 input   66.30 | X-H torsion
[ 10763 10752 10751 10750 ] final  -78.05 input  -60.55 | X-H torsion
[ 11005 11000 10999 10996 ] final -152.17 input  -57.11 | X-H torsion

> <Gold.Protein.ActiveResidues>
 VAL166  LYS551  ARG553  GLY616  TRP617  ASP618  TYR619  PRO620  LYS621  CYS622 
 ASP623  PHE694  ASN695  SER759  ASP760  ASP761  ALA762  ILE779  LEU786  VAL792 
 PHE793  MET794  SER795  GLU796  ALA797  LYS798  CYS799  TRP800  GLU811  SER814 

> <Gold.Protein.RotatedAtoms>
  150.9270  134.8687  159.7526 H   0  0  0  0  0  0  0  0  0  0  0  0  # atno 6907 bound_to 6896
  152.5020  134.4134  159.9466 H   0  0  0  0  0  0  0  0  0  0  0  0  # atno 6908 bound_to 6896
  151.4164  133.3672  159.2785 H   0  0  0  0  0  0  0  0  0  0  0  0  # atno 6909 bound_to 6896
  144.7731  139.7772  143.6289 H   0  0  0  0  0  0  0  0  0  0  0  0  # atno 7974 bound_to 7965
  156.2612  140.2011  156.6390 H   0  0  0  0  0  0  0  0  0  0  0  0  # atno 8008 bound_to 7997
  154.6624  140.0559  157.0101 H   0  0  0  0  0  0  0  0  0  0  0  0  # atno 8009 bound_to 7997
  155.1256  140.3229  155.4489 H   0  0  0  0  0  0  0  0  0  0  0  0  # atno 8010 bound_to 7997
  140.2692  144.3285  150.6295 H   0  0  0  0  0  0  0  0  0  0  0  0  # atno 10167 bound_to 10162
  157.6868  131.0069  150.2449 H   0  0  0  0  0  0  0  0  0  0  0  0  # atno 10718 bound_to 10713
  154.5209  135.5743  153.6680 H   0  0  0  0  0  0  0  0  0  0  0  0  # atno 10763 bound_to 10752
  152.9917  135.6181  154.2755 H   0  0  0  0  0  0  0  0  0  0  0  0  # atno 10764 bound_to 10752
  154.2676  135.2854  155.2731 H   0  0  0  0  0  0  0  0  0  0  0  0  # atno 10765 bound_to 10752
  140.7218  134.3719  157.5182 H   0  0  0  0  0  0  0  0  0  0  0  0  # atno 11005 bound_to 11000
  146.1893  139.5124  142.9816 LP  0  0  0  0  0  0  0  0  0  0  0  0  # atno 17320 bound_to 7965
  145.6264  141.0313  143.1887 LP  0  0  0  0  0  0  0  0  0  0  0  0  # atno 17321 bound_to 7965
  140.5903  143.2168  151.7265 LP  0  0  0  0  0  0  0  0  0  0  0  0  # atno 17342 bound_to 10162
  139.4994  144.3948  152.0242 LP  0  0  0  0  0  0  0  0  0  0  0  0  # atno 17343 bound_to 10162
  156.3056  130.3764  149.7709 LP  0  0  0  0  0  0  0  0  0  0  0  0  # atno 17370 bound_to 10713
  156.5325  130.8264  151.3242 LP  0  0  0  0  0  0  0  0  0  0  0  0  # atno 17371 bound_to 10713
  139.8846  134.8960  156.2691 LP  0  0  0  0  0  0  0  0  0  0  0  0  # atno 17394 bound_to 11000
  140.9997  133.7159  156.0941 LP  0  0  0  0  0  0  0  0  0  0  0  0  # atno 17395 bound_to 11000

$$$$
