AV-unprocessed.smi:878|AV-procd|sdf|4032|dock3
  -GOLD-   22720 1523D 1   1.00000     0.00000
 Structure written by MMmdl.
 32 33  0  0  0  0  0  0  0  0  2 V2000
  153.1356  143.7634  163.2605 C   0  0  0  0  0  0  0  0  0  0  0  0
  153.6423  142.2693  162.3662 S   0  0  0  0  0  0  0  0  0  0  0  0
  152.8834  142.2993  160.7674 C   0  0  0  0  0  0  0  0  0  0  0  0
  152.9970  141.2123  159.8751 C   0  0  0  0  0  0  0  0  0  0  0  0
  152.3835  141.2699  158.6081 C   0  0  0  0  0  0  0  0  0  0  0  0
  151.6457  142.4154  158.2175 C   0  0  0  0  0  0  0  0  0  0  0  0
  151.0121  142.5534  157.0022 O   0  0  0  0  0  0  0  0  0  0  0  0
  150.6095  141.3787  156.3113 C   0  0  0  0  0  0  0  0  0  0  0  0
  151.8388  140.7165  155.6686 C   0  0  0  0  0  0  0  0  0  0  0  0
  151.5910  139.3044  155.3438 N   0  0  0  0  0  0  0  0  0  0  0  0
  150.2520  138.8888  155.2524 C   0  0  0  0  0  0  0  0  0  0  0  0
  149.9151  137.6161  154.9669 C   0  0  0  0  0  0  0  0  0  0  0  0
  148.2591  137.1340  154.8640 Cl  0  0  0  0  0  0  0  0  0  0  0  0
  150.9934  136.6538  154.7495 C   0  0  0  0  0  0  0  0  0  0  0  0
  150.7214  135.4839  154.4839 O   0  0  0  0  0  0  0  0  0  0  0  0
  152.2772  137.1064  154.8539 N   0  5  0  0  0  0  0  0  0  0  0  0
  152.6000  138.4041  155.1469 C   0  0  0  0  0  0  0  0  0  0  0  0
  153.7671  138.7851  155.2384 O   0  0  0  0  0  0  0  0  0  0  0  0
  151.5385  143.4940  159.1183 C   0  0  0  0  0  0  0  0  0  0  0  0
  152.1544  143.4405  160.3830 C   0  0  0  0  0  0  0  0  0  0  0  0
  153.6377  143.8065  164.2270 H   0  0  0  0  0  0  0  0  0  0  0  0
  152.0598  143.7625  163.4353 H   0  0  0  0  0  0  0  0  0  0  0  0
  153.4021  144.6561  162.6945 H   0  0  0  0  0  0  0  0  0  0  0  0
  153.5527  140.3274  160.1420 H   0  0  0  0  0  0  0  0  0  0  0  0
  152.4920  140.4189  157.9531 H   0  0  0  0  0  0  0  0  0  0  0  0
  150.1198  140.6799  156.9918 H   0  0  0  0  0  0  0  0  0  0  0  0
  149.8963  141.6402  155.5285 H   0  0  0  0  0  0  0  0  0  0  0  0
  152.0950  141.2520  154.7534 H   0  0  0  0  0  0  0  0  0  0  0  0
  152.7095  140.8345  156.3152 H   0  0  0  0  0  0  0  0  0  0  0  0
  149.5210  139.6638  155.4321 H   0  0  0  0  0  0  0  0  0  0  0  0
  150.9802  144.3739  158.8338 H   0  0  0  0  0  0  0  0  0  0  0  0
  152.0634  144.2788  161.0580 H   0  0  0  0  0  0  0  0  0  0  0  0
  1  2  1  0  0  0  0
  1 21  1  0  0  0  0
  1 22  1  0  0  0  0
  1 23  1  0  0  0  0
  2  3  1  0  0  0  0
  3 20  1  0  0  0  0
  3  4  2  0  0  0  0
  4  5  1  0  0  0  0
  4 24  1  0  0  0  0
  5  6  2  0  0  0  0
  5 25  1  0  0  0  0
  6  7  1  0  0  0  0
  6 19  1  0  0  0  0
  7  8  1  0  0  0  0
  8  9  1  0  0  0  0
  8 26  1  0  0  0  0
  8 27  1  0  0  0  0
  9 10  1  0  0  0  0
  9 28  1  0  0  0  0
  9 29  1  0  0  0  0
 10 17  1  0  0  0  0
 10 11  1  0  0  0  0
 11 12  2  0  0  0  0
 11 30  1  0  0  0  0
 12 13  1  0  0  0  0
 12 14  1  0  0  0  0
 14 15  2  0  0  0  0
 14 16  1  0  0  0  0
 16 17  1  0  0  0  0
 17 18  2  0  0  0  0
 19 20  2  0  0  0  0
 19 31  1  0  0  0  0
 20 32  1  0  0  0  0
M  CHG  1  16  -1
M  END
> <s_m_source_file>
AV-unprocessed.smi

> <i_m_source_file_index>
878

> <i_lp_mmshare_version>
43012

> <i_f3d_flags>
0

> <s_epik_input>
W0NIM11TYzFbY0hdW2NIXWMoW2NIXVtjSF0xKU9bQ0gyXVtDSDJdbjJbY0hdYyhDbCljKD1PKVtuSF1jMj1P

> <s_epik_cmdline>
J2VwaWtfcHl0aG9uJywgJy1waCcsICc3LjAnLCAnLXRuJywgJzgnLCAnLW1hJywgJzIwMCcsICctbWV0YWxfYmluZGluZycsICctaW1hZScsICc8aW5maWxlLm1hZT4nLCAnLW9tYWUnLCAnPG91dGZpbGUubWFlPic=

> <r_lp_tautomer_probability>
1

> <r_epik_Ionization_Penalty>
1.65349

> <r_epik_Ionization_Penalty_Charging>
1.22116e-08

> <r_epik_Ionization_Penalty_Neutral>
1.65349

> <r_epik_State_Penalty>
1.75578

> <r_epik_Charging_Adjusted_Penalty>
1.75578

> <i_epik_Tot_Q>
-1

> <i_epik_Tot_abs_Q>
1

> <r_epik_Metal_State_Penalty>
0.0107816

> <b_epik_Metal_Only>
0

> <s_lp_Force_Field>
OPLS_2005

> <r_lp_Energy>
23.8138

> <b_lp_Chiralities_Consistent>
1

> <s_lp_Variant>
AV-unprocessed.smi:878-2

> <Gold.Version>
5.8.1

> <Gold.Id.Protein>
6NUR|6NUR_protein|mol2

> <Gold.PLP.Fitness>
46.7304

> <Gold.PLP.PLP>
-40.5373

> <Gold.PLP.part.hbond>
-2.0000

> <Gold.PLP.part.metal>
0.0000

> <Gold.PLP.part.buried>
-5.5204

> <Gold.PLP.part.nonpolar>
-33.7565

> <Gold.PLP.part.repulsive>
0.3892

> <Gold.PLP.ligand.clash>
0.7510

> <Gold.PLP.ligand.torsion>
0.8147

> <Gold.PLP.Chemscore.Hbond>
2.8480

> <Gold.PLP.Chemscore.CHOScore>
0.0000

> <Gold.PLP.Chemscore.Metal>
0.0000

> <Gold.Chemscore.Hbonds>
donor molecule, donor type, donor heavy atom, donor atom, acceptor molecule, acceptor atom, score
      P1  H  7997  8009       L1    18  0.83
      P1  H 10752 10763       L1    16  1.10

> <Gold.PLP.Chemscore.Internal.Correction>
0.0296

> <Gold.Rescore>
     Score         DG    S(hbond)    S(metal)    S(lipo)     H(rot)  DE(clash)    DE(int)     intcor
     16.33     -18.39       1.57        0.00     107.21       1.91       0.49       1.57       ----

> <Gold.Chemscore.Fitness>
16.3331

> <Gold.Chemscore.DG>
-18.3878

> <Gold.Chemscore.ZeroCoef>
-5.4800

> <Gold.Chemscore.Hbond>
1.5710

> <Gold.Chemscore.Metal>
0.0000

> <Gold.Chemscore.Lipo>
107.2080

> <Gold.Chemscore.Internal_Hbond>
0.0000

> <Gold.Chemscore.DEClash>
0.4850

> <Gold.Chemscore.DEInternal>
1.5697

> <Gold.Chemscore.Rot>
1.9073

> <Gold.Chemscore.Internal.Correction>
   9.000000E+99

> <Gold.Chemscore.Hbonds>
donor molecule, donor type, donor heavy atom, donor atom, acceptor molecule, acceptor atom, score
      P1  H  7997  8009       L1    18  0.81
      P1  H 10752 10763       L1    16  0.06

> <Gold.Chemscore.Hbond.Weighted>
-5.2471

> <Gold.Chemscore.Metal.Weighted>
-0.0000

> <Gold.Chemscore.Lipo.Weighted>
-12.5433

> <Gold.Chemscore.Internal_Hbond.Weighted>
0.0000

> <Gold.Chemscore.DEClash.Weighted>
0.4850

> <Gold.Chemscore.DEInternal.Weighted>
1.5697

> <Gold.Chemscore.Rot.Weighted>
4.8826

> <Gold.Chemscore.Internal.Correction.Weighted>
   9.000000E+99

> <Gold.Protein.RotatedTorsions>
[ 6907 6896 6895 6894 ] final -101.01 input  -60.11 | X-H torsion
[ 7974 7965 7964 7962 ] final    1.11 input  175.53 | X-H torsion
[ 8008 7997 7996 7995 ] final -139.20 input   59.86 | X-H torsion
[ 10167 10162 10161 10158 ] final  -99.35 input  -65.29 | X-H torsion
[ 10718 10713 10712 10709 ] final  -46.01 input   66.30 | X-H torsion
[ 10763 10752 10751 10750 ] final   57.79 input  -60.55 | X-H torsion
[ 11005 11000 10999 10996 ] final   95.15 input  -57.11 | X-H torsion

> <Gold.Protein.ActiveResidues>
 VAL166  LYS551  ARG553  GLY616  TRP617  ASP618  TYR619  PRO620  LYS621  CYS622 
 ASP623  PHE694  ASN695  SER759  ASP760  ASP761  ALA762  ILE779  LEU786  VAL792 
 PHE793  MET794  SER795  GLU796  ALA797  LYS798  CYS799  TRP800  GLU811  SER814 

> <Gold.Protein.RotatedAtoms>
  150.7138  134.0800  159.3894 H   0  0  0  0  0  0  0  0  0  0  0  0  # atno 6907 bound_to 6896
  151.8784  135.0461  160.0495 H   0  0  0  0  0  0  0  0  0  0  0  0  # atno 6908 bound_to 6896
  152.2588  133.5243  159.5405 H   0  0  0  0  0  0  0  0  0  0  0  0  # atno 6909 bound_to 6896
  146.2438  140.1036  142.8346 H   0  0  0  0  0  0  0  0  0  0  0  0  # atno 7974 bound_to 7965
  155.4410  140.0532  157.3010 H   0  0  0  0  0  0  0  0  0  0  0  0  # atno 8008 bound_to 7997
  154.4818  140.2084  155.9703 H   0  0  0  0  0  0  0  0  0  0  0  0  # atno 8009 bound_to 7997
  156.1217  140.3187  155.8223 H   0  0  0  0  0  0  0  0  0  0  0  0  # atno 8010 bound_to 7997
  140.2633  143.3392  152.0604 H   0  0  0  0  0  0  0  0  0  0  0  0  # atno 10167 bound_to 10162
  156.2226  130.4167  149.8974 H   0  0  0  0  0  0  0  0  0  0  0  0  # atno 10718 bound_to 10713
  152.9857  135.5629  154.5447 H   0  0  0  0  0  0  0  0  0  0  0  0  # atno 10763 bound_to 10752
  154.4895  135.2792  155.1509 H   0  0  0  0  0  0  0  0  0  0  0  0  # atno 10764 bound_to 10752
  154.2984  135.6312  153.5467 H   0  0  0  0  0  0  0  0  0  0  0  0  # atno 10765 bound_to 10752
  139.8792  134.8883  156.3968 H   0  0  0  0  0  0  0  0  0  0  0  0  # atno 11005 bound_to 11000
  145.0547  140.9044  143.4974 LP  0  0  0  0  0  0  0  0  0  0  0  0  # atno 17320 bound_to 7965
  145.1141  139.2737  143.5622 LP  0  0  0  0  0  0  0  0  0  0  0  0  # atno 17321 bound_to 7965
  139.5010  144.6704  151.6256 LP  0  0  0  0  0  0  0  0  0  0  0  0  # atno 17342 bound_to 10162
  140.5948  143.9715  150.6347 LP  0  0  0  0  0  0  0  0  0  0  0  0  # atno 17343 bound_to 10162
  156.6615  130.8784  151.3548 LP  0  0  0  0  0  0  0  0  0  0  0  0  # atno 17370 bound_to 10713
  157.7095  130.9423  150.1041 LP  0  0  0  0  0  0  0  0  0  0  0  0  # atno 17371 bound_to 10713
  140.9294  133.7589  156.0006 LP  0  0  0  0  0  0  0  0  0  0  0  0  # atno 17394 bound_to 11000
  140.8348  134.3136  157.5336 LP  0  0  0  0  0  0  0  0  0  0  0  0  # atno 17395 bound_to 11000

$$$$
