AV-unprocessed.smi:1005|AV-procd|sdf|4368|dock5
  -GOLD-   22720 2273D 1   1.00000     0.00000
 Structure written by MMmdl.
 57 59  0  0  0  0  0  0  0  0  3 V2000
  152.8047  143.3739  161.5360 C   0  0  0  0  0  0  0  0  0  0  0  0
  152.1874  142.9223  160.2241 C   0  0  0  0  0  0  0  0  0  0  0  0
  152.6935  141.7662  159.5884 C   0  0  0  0  0  0  0  0  0  0  0  0
  152.1479  141.3137  158.3673 C   0  0  0  0  0  0  0  0  0  0  0  0
  152.4842  140.2255  157.5803 N   0  0  0  0  0  0  0  0  0  0  0  0
  151.6174  140.3400  156.5790 C   0  0  0  0  0  0  0  0  0  0  0  0
  150.7597  141.3776  156.6212 N   0  0  0  0  0  0  0  0  0  0  0  0
  149.7358  141.7045  155.6446 C   0  0  0  0  0  0  0  0  0  0  0  0
  149.7463  140.7470  154.4375 C   0  0  2  0  0  0  0  0  0  0  0  0
  149.0086  141.3220  153.3762 O   0  0  0  0  0  0  0  0  0  0  0  0
  149.1186  139.3835  154.7874 C   0  0  0  0  0  0  0  0  0  0  0  0
  147.6511  139.4762  155.0165 N   0  3  2  0  0  0  0  0  0  0  0  0
  147.1938  138.7827  156.2448 C   0  0  0  0  0  0  0  0  0  0  0  0
  147.1004  137.2639  156.0223 C   0  0  0  0  0  0  0  0  0  0  0  0
  146.2273  137.0026  154.9299 O   0  0  0  0  0  0  0  0  0  0  0  0
  146.7017  137.5525  153.7048 C   0  0  1  0  0  0  0  0  0  0  0  0
  145.7081  137.1625  152.5938 C   0  0  0  0  0  0  0  0  0  0  0  0
  145.9356  135.7919  152.0673 N   0  3  0  0  0  0  0  0  0  0  0  0
  145.0820  135.4568  150.9036 C   0  0  0  0  0  0  0  0  0  0  0  0
  145.8299  134.7653  153.1282 C   0  0  0  0  0  0  0  0  0  0  0  0
  146.8099  139.0880  153.8545 C   0  0  0  0  0  0  0  0  0  0  0  0
  151.0727  142.0546  157.7953 C   0  0  0  0  0  0  0  0  0  0  0  0
  150.5606  143.2067  158.4179 C   0  0  0  0  0  0  0  0  0  0  0  0
  151.1175  143.6451  159.6376 C   0  0  0  0  0  0  0  0  0  0  0  0
  150.5578  144.8905  160.3021 C   0  0  0  0  0  0  0  0  0  0  0  0
  153.6110  142.7087  161.8468 H   0  0  0  0  0  0  0  0  0  0  0  0
  152.0554  143.3831  162.3277 H   0  0  0  0  0  0  0  0  0  0  0  0
  153.2187  144.3775  161.4383 H   0  0  0  0  0  0  0  0  0  0  0  0
  153.5085  141.2156  160.0350 H   0  0  0  0  0  0  0  0  0  0  0  0
  151.6066  139.6298  155.7650 H   0  0  0  0  0  0  0  0  0  0  0  0
  148.7668  141.6694  156.1444 H   0  0  0  0  0  0  0  0  0  0  0  0
  149.8796  142.7357  155.3189 H   0  0  0  0  0  0  0  0  0  0  0  0
  150.7764  140.6199  154.1057 H   0  0  0  0  0  0  0  0  0  0  0  0
  148.1976  141.6635  153.7230 H   0  0  0  0  0  0  0  0  0  0  0  0
  149.3301  138.6560  154.0040 H   0  0  0  0  0  0  0  0  0  0  0  0
  149.6077  139.0042  155.6861 H   0  0  0  0  0  0  0  0  0  0  0  0
  147.8470  139.0143  157.0870 H   0  0  0  0  0  0  0  0  0  0  0  0
  146.2082  139.1681  156.5097 H   0  0  0  0  0  0  0  0  0  0  0  0
  148.0832  136.8278  155.8372 H   0  0  0  0  0  0  0  0  0  0  0  0
  146.7018  136.7796  156.9139 H   0  0  0  0  0  0  0  0  0  0  0  0
  147.6848  137.1408  153.4784 H   0  0  0  0  0  0  0  0  0  0  0  0
  144.6981  137.2303  153.0013 H   0  0  0  0  0  0  0  0  0  0  0  0
  145.7535  137.8767  151.7700 H   0  0  0  0  0  0  0  0  0  0  0  0
  144.0249  135.4964  151.1695 H   0  0  0  0  0  0  0  0  0  0  0  0
  145.3020  134.4506  150.5449 H   0  0  0  0  0  0  0  0  0  0  0  0
  145.2506  136.1375  150.0701 H   0  0  0  0  0  0  0  0  0  0  0  0
  144.8243  134.7411  153.5506 H   0  0  0  0  0  0  0  0  0  0  0  0
  146.5358  134.9657  153.9351 H   0  0  0  0  0  0  0  0  0  0  0  0
  146.0580  133.7751  152.7323 H   0  0  0  0  0  0  0  0  0  0  0  0
  145.8146  139.5062  154.0118 H   0  0  0  0  0  0  0  0  0  0  0  0
  147.1840  139.5378  152.9354 H   0  0  0  0  0  0  0  0  0  0  0  0
  149.7469  143.7494  157.9602 H   0  0  0  0  0  0  0  0  0  0  0  0
  149.7377  145.3161  159.7229 H   0  0  0  0  0  0  0  0  0  0  0  0
  151.3314  145.6527  160.3969 H   0  0  0  0  0  0  0  0  0  0  0  0
  150.1779  144.6555  161.2966 H   0  0  0  0  0  0  0  0  0  0  0  0
  146.8942  135.7611  151.7486 H   0  0  0  0  0  0  0  0  0  0  0  0
  147.4833  140.4594  155.1812 H   0  0  0  0  0  0  0  0  0  0  0  0
  1  2  1  0  0  0  0
  1 26  1  0  0  0  0
  1 27  1  0  0  0  0
  1 28  1  0  0  0  0
  2 24  1  0  0  0  0
  2  3  2  0  0  0  0
  3  4  1  0  0  0  0
  3 29  1  0  0  0  0
  4 22  2  0  0  0  0
  4  5  1  0  0  0  0
  5  6  2  0  0  0  0
  6  7  1  0  0  0  0
  6 30  1  0  0  0  0
  7  8  1  0  0  0  0
  7 22  1  0  0  0  0
  8  9  1  0  0  0  0
  8 31  1  0  0  0  0
  8 32  1  0  0  0  0
  9 10  1  0  0  0  0
  9 11  1  0  0  0  0
  9 33  1  0  0  0  0
 10 34  1  0  0  0  0
 11 12  1  0  0  0  0
 11 35  1  0  0  0  0
 11 36  1  0  0  0  0
 12 21  1  0  0  0  0
 12 13  1  0  0  0  0
 12 57  1  0  0  0  0
 13 14  1  0  0  0  0
 13 37  1  0  0  0  0
 13 38  1  0  0  0  0
 14 15  1  0  0  0  0
 14 39  1  0  0  0  0
 14 40  1  0  0  0  0
 15 16  1  0  0  0  0
 16 17  1  0  0  0  0
 16 21  1  0  0  0  0
 16 41  1  0  0  0  0
 17 18  1  0  0  0  0
 17 42  1  0  0  0  0
 17 43  1  0  0  0  0
 18 19  1  0  0  0  0
 18 20  1  0  0  0  0
 18 56  1  0  0  0  0
 19 44  1  0  0  0  0
 19 45  1  0  0  0  0
 19 46  1  0  0  0  0
 20 47  1  0  0  0  0
 20 48  1  0  0  0  0
 20 49  1  0  0  0  0
 21 50  1  0  0  0  0
 21 51  1  0  0  0  0
 22 23  1  0  0  0  0
 23 24  2  0  0  0  0
 23 52  1  0  0  0  0
 24 25  1  0  0  0  0
 25 53  1  0  0  0  0
 25 54  1  0  0  0  0
 25 55  1  0  0  0  0
M  CHG  1  12   1
M  CHG  1  18   1
M  END
> <s_m_source_file>
AV-unprocessed.smi

> <i_m_source_file_index>
1005

> <i_lp_mmshare_version>
43012

> <i_f3d_flags>
0

> <s_epik_input>
W0NIM11jKFtjSF0xKWMoW0NIM10pW2NIXWMoYzEyKW4oW2NIXW4yKVtDSDJdW0NASF0oW09IXSlbQ0gyXU4zW0NIMl1bQ0gyXU9bQ0BIXShbQ0gyXTMpW0NIMl1OKFtDSDNdKVtDSDNd

> <s_epik_cmdline>
J2VwaWtfcHl0aG9uJywgJy1waCcsICc3LjAnLCAnLXRuJywgJzgnLCAnLW1hJywgJzIwMCcsICctbWV0YWxfYmluZGluZycsICctaW1hZScsICc8aW5maWxlLm1hZT4nLCAnLW9tYWUnLCAnPG91dGZpbGUubWFlPic=

> <r_epik_Ionization_Penalty>
1.0968

> <r_epik_Ionization_Penalty_Charging>
1.0096

> <r_epik_Ionization_Penalty_Neutral>
0.0871956

> <r_epik_State_Penalty>
1.31185

> <r_epik_Charging_Adjusted_Penalty>
2.32145

> <i_epik_Tot_Q>
2

> <i_epik_Tot_abs_Q>
2

> <r_epik_Metal_State_Penalty>
1.22442

> <b_epik_Metal_Only>
0

> <s_lp_Force_Field>
OPLS_2005

> <r_lp_Energy>
35.7023

> <b_lp_Chiralities_Consistent>
1

> <s_lp_Variant>
AV-unprocessed.smi:1005-7

> <Gold.Version>
5.8.1

> <Gold.Id.Protein>
6NUR|6NUR_protein|mol2

> <Gold.PLP.Fitness>
52.8052

> <Gold.PLP.PLP>
-42.6310

> <Gold.PLP.part.hbond>
-4.9438

> <Gold.PLP.part.metal>
0.0000

> <Gold.PLP.part.buried>
-1.9781

> <Gold.PLP.part.nonpolar>
-35.8654

> <Gold.PLP.part.repulsive>
0.0811

> <Gold.PLP.ligand.clash>
0.0000

> <Gold.PLP.ligand.torsion>
1.0072

> <Gold.PLP.Chemscore.Hbond>
3.9760

> <Gold.PLP.Chemscore.CHOScore>
0.0000

> <Gold.PLP.Chemscore.Metal>
0.0000

> <Gold.Chemscore.Hbonds>
donor molecule, donor type, donor heavy atom, donor atom, acceptor molecule, acceptor atom, score
      L1  H    18    56       P1  7948  1.76
      P1  H  7997  8008       L1     5  0.81
      P1  H  8011  8017       L1    10  0.96

> <Gold.PLP.Chemscore.Internal.Correction>
0.2606

> <Gold.Rescore>
     Score         DG    S(hbond)    S(metal)    S(lipo)     H(rot)  DE(clash)    DE(int)     intcor
     18.13     -21.78       2.48        0.00     122.81       2.48       1.35       2.29       ----

> <Gold.Chemscore.Fitness>
18.1315

> <Gold.Chemscore.DG>
-21.7776

> <Gold.Chemscore.ZeroCoef>
-5.4800

> <Gold.Chemscore.Hbond>
2.4794

> <Gold.Chemscore.Metal>
0.0000

> <Gold.Chemscore.Lipo>
122.8091

> <Gold.Chemscore.Internal_Hbond>
0.0000

> <Gold.Chemscore.DEClash>
1.3513

> <Gold.Chemscore.DEInternal>
2.2948

> <Gold.Chemscore.Rot>
2.4814

> <Gold.Chemscore.Internal.Correction>
   9.000000E+99

> <Gold.Chemscore.Hbonds>
donor molecule, donor type, donor heavy atom, donor atom, acceptor molecule, acceptor atom, score
      L1  H    18    56       P1  7948  0.84
      P1  H  7997  8008       L1     5  0.49
      P1  H  8011  8017       L1    10  0.76

> <Gold.Chemscore.Hbond.Weighted>
-8.2813

> <Gold.Chemscore.Metal.Weighted>
-0.0000

> <Gold.Chemscore.Lipo.Weighted>
-14.3687

> <Gold.Chemscore.Internal_Hbond.Weighted>
0.0000

> <Gold.Chemscore.DEClash.Weighted>
1.3513

> <Gold.Chemscore.DEInternal.Weighted>
2.2948

> <Gold.Chemscore.Rot.Weighted>
6.3524

> <Gold.Chemscore.Internal.Correction.Weighted>
   9.000000E+99

> <Gold.Protein.RotatedTorsions>
[ 6907 6896 6895 6894 ] final  -38.57 input  -60.11 | X-H torsion
[ 7974 7965 7964 7962 ] final   37.38 input  175.53 | X-H torsion
[ 8008 7997 7996 7995 ] final  -67.98 input   59.86 | X-H torsion
[ 10167 10162 10161 10158 ] final   84.35 input  -65.29 | X-H torsion
[ 10718 10713 10712 10709 ] final  -11.25 input   66.30 | X-H torsion
[ 10763 10752 10751 10750 ] final  129.29 input  -60.55 | X-H torsion
[ 11005 11000 10999 10996 ] final   -8.34 input  -57.11 | X-H torsion

> <Gold.Protein.ActiveResidues>
 VAL166  LYS551  ARG553  GLY616  TRP617  ASP618  TYR619  PRO620  LYS621  CYS622 
 ASP623  PHE694  ASN695  SER759  ASP760  ASP761  ALA762  ILE779  LEU786  VAL792 
 PHE793  MET794  SER795  GLU796  ALA797  LYS798  CYS799  TRP800  GLU811  SER814 

> <Gold.Protein.RotatedAtoms>
  151.0008  134.9320  159.7952 H   0  0  0  0  0  0  0  0  0  0  0  0  # atno 6907 bound_to 6896
  152.5277  134.3157  159.9140 H   0  0  0  0  0  0  0  0  0  0  0  0  # atno 6908 bound_to 6896
  151.3162  133.4017  159.2685 H   0  0  0  0  0  0  0  0  0  0  0  0  # atno 6909 bound_to 6896
  146.1142  139.5902  142.9332 H   0  0  0  0  0  0  0  0  0  0  0  0  # atno 7974 bound_to 7965
  154.4836  140.0882  156.7435 H   0  0  0  0  0  0  0  0  0  0  0  0  # atno 8008 bound_to 7997
  155.4406  140.3453  155.4271 H   0  0  0  0  0  0  0  0  0  0  0  0  # atno 8009 bound_to 7997
  156.1229  140.1479  156.9167 H   0  0  0  0  0  0  0  0  0  0  0  0  # atno 8010 bound_to 7997
  139.9090  144.6284  150.8558 H   0  0  0  0  0  0  0  0  0  0  0  0  # atno 10167 bound_to 10162
  156.6618  130.4984  149.6028 H   0  0  0  0  0  0  0  0  0  0  0  0  # atno 10718 bound_to 10713
  153.7394  135.3226  155.3301 H   0  0  0  0  0  0  0  0  0  0  0  0  # atno 10763 bound_to 10752
  154.8300  135.4541  154.1042 H   0  0  0  0  0  0  0  0  0  0  0  0  # atno 10764 bound_to 10752
  153.2212  135.6948  153.8080 H   0  0  0  0  0  0  0  0  0  0  0  0  # atno 10765 bound_to 10752
  140.7224  133.8817  155.8831 H   0  0  0  0  0  0  0  0  0  0  0  0  # atno 11005 bound_to 11000
  145.5601  141.0405  143.2231 LP  0  0  0  0  0  0  0  0  0  0  0  0  # atno 17320 bound_to 7965
  144.7538  139.7126  143.7262 LP  0  0  0  0  0  0  0  0  0  0  0  0  # atno 17321 bound_to 7965
  140.7690  143.3380  151.2268 LP  0  0  0  0  0  0  0  0  0  0  0  0  # atno 17342 bound_to 10162
  139.6959  143.9613  152.2882 LP  0  0  0  0  0  0  0  0  0  0  0  0  # atno 17343 bound_to 10162
  156.2005  130.6617  151.1162 LP  0  0  0  0  0  0  0  0  0  0  0  0  # atno 17370 bound_to 10713
  157.7107  131.0735  150.6511 LP  0  0  0  0  0  0  0  0  0  0  0  0  # atno 17371 bound_to 10713
  140.9992  134.1174  157.4334 LP  0  0  0  0  0  0  0  0  0  0  0  0  # atno 17394 bound_to 11000
  139.8845  135.0063  156.6372 LP  0  0  0  0  0  0  0  0  0  0  0  0  # atno 17395 bound_to 11000

$$$$
