AV-unprocessed.smi:273|AV-procd|sdf|2055|dock7
  -GOLD-   2262021293D 1   1.00000     0.00000
 Structure written by MMmdl.
 59 62  0  0  0  0  0  0  0  0  1 V2000
  148.2732  127.5499  150.7980 C   0  0  0  0  0  0  0  0  0  0  0  0
  147.3705  128.2983  151.7877 C   0  0  0  0  0  0  0  0  0  0  0  0
  148.0607  129.4356  152.3838 N   0  0  0  0  0  0  0  0  0  0  0  0
  148.2006  129.6510  153.7010 C   0  0  0  0  0  0  0  0  0  0  0  0
  147.7390  128.8997  154.5606 O   0  0  0  0  0  0  0  0  0  0  0  0
  148.9878  130.9033  154.1077 C   0  0  0  0  0  0  0  0  0  0  0  0
  148.9214  131.1333  155.6321 C   0  0  0  0  0  0  0  0  0  0  0  0
  149.6788  132.4106  156.0298 C   0  0  0  0  0  0  0  0  0  0  0  0
  149.1917  133.5580  155.2705 N   0  0  0  0  0  0  0  0  0  0  0  0
  149.6475  134.7338  155.7527 C   0  0  0  0  0  0  0  0  0  0  0  0
  150.9363  134.7684  156.1716 N   0  0  0  0  0  0  0  0  0  0  0  0
  151.4550  135.9049  156.6465 C   0  0  0  0  0  0  0  0  0  0  0  0
  150.8720  137.0986  156.7776 N   0  0  0  0  0  0  0  0  0  0  0  0
  149.5789  137.0690  156.3441 C   0  0  0  0  0  0  0  0  0  0  0  0
  148.8904  135.9380  155.8212 C   0  0  0  0  0  0  0  0  0  0  0  0
  147.5918  136.2940  155.4758 N   0  0  0  0  0  0  0  0  0  0  0  0
  147.5134  137.5589  155.7869 C   0  0  0  0  0  0  0  0  0  0  0  0
  148.6607  138.1041  156.3168 N   0  0  0  0  0  0  0  0  0  0  0  0
  148.8490  139.4827  156.7359 C   0  0  0  0  0  0  0  0  0  0  0  0
  149.7159  140.3103  155.7539 C   0  0  1  0  0  0  0  0  0  0  0  0
  148.8342  141.0032  154.6835 C   0  0  0  0  0  0  0  0  0  0  0  0
  149.5120  141.1414  153.4526 O   0  0  0  0  0  0  0  0  0  0  0  0
  150.5987  141.3219  156.5362 C   0  0  2  0  0  0  0  0  0  0  0  0
  151.5082  140.7239  157.5965 C   0  0  0  0  0  0  0  0  0  0  0  0
  151.8513  141.9350  158.4555 C   0  0  0  0  0  0  0  0  0  0  0  0
  150.6997  142.7682  158.4163 O   0  0  0  0  0  0  0  0  0  0  0  0
  149.8159  142.3273  157.3906 C   0  0  0  0  0  0  0  0  0  0  0  0
  149.2399  133.4087  153.8180 C   0  0  0  0  0  0  0  0  0  0  0  0
  148.4630  132.1573  153.3773 C   0  0  0  0  0  0  0  0  0  0  0  0
  147.7345  126.7259  150.3301 H   0  0  0  0  0  0  0  0  0  0  0  0
  149.1488  127.1322  151.2961 H   0  0  0  0  0  0  0  0  0  0  0  0
  148.6224  128.2115  150.0047 H   0  0  0  0  0  0  0  0  0  0  0  0
  146.4863  128.6706  151.2700 H   0  0  0  0  0  0  0  0  0  0  0  0
  147.0131  127.6207  152.5648 H   0  0  0  0  0  0  0  0  0  0  0  0
  148.4721  130.1035  151.7480 H   0  0  0  0  0  0  0  0  0  0  0  0
  150.0339  130.7605  153.8298 H   0  0  0  0  0  0  0  0  0  0  0  0
  147.8829  131.2191  155.9564 H   0  0  0  0  0  0  0  0  0  0  0  0
  149.3419  130.2786  156.1638 H   0  0  0  0  0  0  0  0  0  0  0  0
  149.5591  132.5913  157.0991 H   0  0  0  0  0  0  0  0  0  0  0  0
  150.7466  132.2845  155.8446 H   0  0  0  0  0  0  0  0  0  0  0  0
  152.4854  135.8497  156.9652 H   0  0  0  0  0  0  0  0  0  0  0  0
  146.6110  138.1338  155.6372 H   0  0  0  0  0  0  0  0  0  0  0  0
  147.8717  139.9503  156.8616 H   0  0  0  0  0  0  0  0  0  0  0  0
  149.3035  139.4527  157.7258 H   0  0  0  0  0  0  0  0  0  0  0  0
  150.3764  139.6092  155.2409 H   0  0  0  0  0  0  0  0  0  0  0  0
  147.9363  140.4262  154.4681 H   0  0  0  0  0  0  0  0  0  0  0  0
  148.5002  141.9815  155.0305 H   0  0  0  0  0  0  0  0  0  0  0  0
  149.3048  140.3953  152.9107 H   0  0  0  0  0  0  0  0  0  0  0  0
  151.2180  141.8790  155.8309 H   0  0  0  0  0  0  0  0  0  0  0  0
  150.9679  139.9852  158.1904 H   0  0  0  0  0  0  0  0  0  0  0  0
  152.3988  140.2491  157.1844 H   0  0  0  0  0  0  0  0  0  0  0  0
  152.1129  141.6617  159.4778 H   0  0  0  0  0  0  0  0  0  0  0  0
  152.6906  142.4819  158.0239 H   0  0  0  0  0  0  0  0  0  0  0  0
  149.4499  143.1738  156.8090 H   0  0  0  0  0  0  0  0  0  0  0  0
  148.9580  141.8477  157.8640 H   0  0  0  0  0  0  0  0  0  0  0  0
  148.8208  134.2955  153.3407 H   0  0  0  0  0  0  0  0  0  0  0  0
  150.2746  133.3224  153.4864 H   0  0  0  0  0  0  0  0  0  0  0  0
  148.5533  132.0327  152.2976 H   0  0  0  0  0  0  0  0  0  0  0  0
  147.4014  132.3014  153.5855 H   0  0  0  0  0  0  0  0  0  0  0  0
  1  2  1  0  0  0  0
  1 30  1  0  0  0  0
  1 31  1  0  0  0  0
  1 32  1  0  0  0  0
  2  3  1  0  0  0  0
  2 33  1  0  0  0  0
  2 34  1  0  0  0  0
  3  4  1  0  0  0  0
  3 35  1  0  0  0  0
  4  5  2  0  0  0  0
  4  6  1  0  0  0  0
  6 29  1  0  0  0  0
  6  7  1  0  0  0  0
  6 36  1  0  0  0  0
  7  8  1  0  0  0  0
  7 37  1  0  0  0  0
  7 38  1  0  0  0  0
  8  9  1  0  0  0  0
  8 39  1  0  0  0  0
  8 40  1  0  0  0  0
  9 10  1  0  0  0  0
  9 28  1  0  0  0  0
 10 15  1  0  0  0  0
 10 11  2  0  0  0  0
 11 12  1  0  0  0  0
 12 13  2  0  0  0  0
 12 41  1  0  0  0  0
 13 14  1  0  0  0  0
 14 18  1  0  0  0  0
 14 15  2  0  0  0  0
 15 16  1  0  0  0  0
 16 17  2  0  0  0  0
 17 18  1  0  0  0  0
 17 42  1  0  0  0  0
 18 19  1  0  0  0  0
 19 20  1  0  0  0  0
 19 43  1  0  0  0  0
 19 44  1  0  0  0  0
 20 21  1  0  0  0  0
 20 23  1  0  0  0  0
 20 45  1  0  0  0  0
 21 22  1  0  0  0  0
 21 46  1  0  0  0  0
 21 47  1  0  0  0  0
 22 48  1  0  0  0  0
 23 27  1  0  0  0  0
 23 24  1  0  0  0  0
 23 49  1  0  0  0  0
 24 25  1  0  0  0  0
 24 50  1  0  0  0  0
 24 51  1  0  0  0  0
 25 26  1  0  0  0  0
 25 52  1  0  0  0  0
 25 53  1  0  0  0  0
 26 27  1  0  0  0  0
 27 54  1  0  0  0  0
 27 55  1  0  0  0  0
 28 29  1  0  0  0  0
 28 56  1  0  0  0  0
 28 57  1  0  0  0  0
 29 58  1  0  0  0  0
 29 59  1  0  0  0  0
M  END
> <s_m_source_file>
AV-unprocessed.smi

> <i_m_source_file_index>
273

> <i_lp_mmshare_version>
43012

> <i_f3d_flags>
0

> <s_epik_input>
W0NIM11bQ0gyXVtOSF1DKD1PKVtDSF0xW0NIMl1bQ0gyXU4oW0NIMl1bQ0gyXTEpYyhuW2NIXW4yKWMoYzIzKW5bY0hdbjNbQ0gyXVtDQEhdKFtDSDJdW09IXSlbQ0BASF00W0NIMl1bQ0gyXU9bQ0gyXTQ=

> <s_epik_cmdline>
J2VwaWtfcHl0aG9uJywgJy1waCcsICc3LjAnLCAnLXRuJywgJzgnLCAnLW1hJywgJzIwMCcsICctbWV0YWxfYmluZGluZycsICctaW1hZScsICc8aW5maWxlLm1hZT4nLCAnLW9tYWUnLCAnPG91dGZpbGUubWFlPic=

> <r_lp_tautomer_probability>
1

> <r_epik_Ionization_Penalty>
0.00226556

> <r_epik_Ionization_Penalty_Charging>
0

> <r_epik_Ionization_Penalty_Neutral>
0.00226556

> <r_epik_State_Penalty>
0.00139883

> <r_epik_Charging_Adjusted_Penalty>
0.00139883

> <i_epik_Tot_Q>
0

> <i_epik_Tot_abs_Q>
0

> <r_epik_Metal_State_Penalty>
-0

> <b_epik_Metal_Only>
0

> <s_lp_Force_Field>
OPLS_2005

> <r_lp_Energy>
43.4567

> <b_lp_Chiralities_Consistent>
1

> <s_lp_Variant>
AV-unprocessed.smi:273-2

> <Gold.Version>
5.8.1

> <Gold.Id.Protein>
6NUR|6NUR_protein|mol2

> <Gold.PLP.Fitness>
45.1383

> <Gold.PLP.PLP>
-39.8071

> <Gold.PLP.part.hbond>
-4.2988

> <Gold.PLP.part.metal>
0.0000

> <Gold.PLP.part.buried>
-4.3994

> <Gold.PLP.part.nonpolar>
-31.5164

> <Gold.PLP.part.repulsive>
0.2606

> <Gold.PLP.ligand.clash>
0.0000

> <Gold.PLP.ligand.torsion>
1.7579

> <Gold.PLP.Chemscore.Hbond>
2.7878

> <Gold.PLP.Chemscore.CHOScore>
0.0000

> <Gold.PLP.Chemscore.Metal>
0.0000

> <Gold.Chemscore.Hbonds>
donor molecule, donor type, donor heavy atom, donor atom, acceptor molecule, acceptor atom, score
      L1  H     3    35       P1 10747  1.00
      L1  H    22    48       P1  7957  0.64
      P1  H  7989  7998       L1    22  0.14
      P1  H  8011  8017       L1    22  1.00

> <Gold.PLP.Chemscore.Internal.Correction>
0.4836

> <Gold.Rescore>
     Score         DG    S(hbond)    S(metal)    S(lipo)     H(rot)  DE(clash)    DE(int)     intcor
     13.98     -15.84       2.38        0.00      91.31       3.22       0.10       1.76       ----

> <Gold.Chemscore.Fitness>
13.9763

> <Gold.Chemscore.DG>
-15.8438

> <Gold.Chemscore.ZeroCoef>
-5.4800

> <Gold.Chemscore.Hbond>
2.3757

> <Gold.Chemscore.Metal>
0.0000

> <Gold.Chemscore.Lipo>
91.3112

> <Gold.Chemscore.Internal_Hbond>
0.0000

> <Gold.Chemscore.DEClash>
0.1027

> <Gold.Chemscore.DEInternal>
1.7649

> <Gold.Chemscore.Rot>
3.2244

> <Gold.Chemscore.Internal.Correction>
   9.000000E+99

> <Gold.Chemscore.Hbonds>
donor molecule, donor type, donor heavy atom, donor atom, acceptor molecule, acceptor atom, score
      L1  H     3    35       P1 10747  0.65
      L1  H    22    48       P1  7957  0.64
      P1  H  7989  7998       L1    22  0.02
      P1  H  8011  8017       L1    22  0.43

> <Gold.Chemscore.Hbond.Weighted>
-7.9349

> <Gold.Chemscore.Metal.Weighted>
-0.0000

> <Gold.Chemscore.Lipo.Weighted>
-10.6834

> <Gold.Chemscore.Internal_Hbond.Weighted>
0.0000

> <Gold.Chemscore.DEClash.Weighted>
0.1027

> <Gold.Chemscore.DEInternal.Weighted>
1.7649

> <Gold.Chemscore.Rot.Weighted>
8.2545

> <Gold.Chemscore.Internal.Correction.Weighted>
   9.000000E+99

> <Gold.Protein.RotatedTorsions>
[ 6907 6896 6895 6894 ] final  -72.59 input  -60.11 | X-H torsion
[ 7974 7965 7964 7962 ] final -104.48 input  175.53 | X-H torsion
[ 8008 7997 7996 7995 ] final  124.76 input   59.86 | X-H torsion
[ 10167 10162 10161 10158 ] final -100.18 input  -65.29 | X-H torsion
[ 10718 10713 10712 10709 ] final   45.35 input   66.30 | X-H torsion
[ 10763 10752 10751 10750 ] final   -6.93 input  -60.55 | X-H torsion
[ 11005 11000 10999 10996 ] final  131.89 input  -57.11 | X-H torsion

> <Gold.Protein.ActiveResidues>
 VAL166  LYS551  ARG553  GLY616  TRP617  ASP618  TYR619  PRO620  LYS621  CYS622 
 ASP623  PHE694  ASN695  SER759  ASP760  ASP761  ALA762  ILE779  LEU786  VAL792 
 PHE793  MET794  SER795  GLU796  ALA797  LYS798  CYS799  TRP800  GLU811  SER814 

> <Gold.Protein.RotatedAtoms>
  150.7164  134.5141  159.5621 H   0  0  0  0  0  0  0  0  0  0  0  0  # atno 6907 bound_to 6896
  152.2711  134.7929  160.0423 H   0  0  0  0  0  0  0  0  0  0  0  0  # atno 6908 bound_to 6896
  151.8608  133.3421  159.3740 H   0  0  0  0  0  0  0  0  0  0  0  0  # atno 6909 bound_to 6896
  145.2426  140.9210  143.3141 H   0  0  0  0  0  0  0  0  0  0  0  0  # atno 7974 bound_to 7965
  156.2812  140.2732  156.1840 H   0  0  0  0  0  0  0  0  0  0  0  0  # atno 8008 bound_to 7997
  155.0527  140.0386  157.2567 H   0  0  0  0  0  0  0  0  0  0  0  0  # atno 8009 bound_to 7997
  154.7182  140.2682  155.6571 H   0  0  0  0  0  0  0  0  0  0  0  0  # atno 8010 bound_to 7997
  140.2546  143.3449  152.0683 H   0  0  0  0  0  0  0  0  0  0  0  0  # atno 10167 bound_to 10162
  157.4366  130.8056  149.7654 H   0  0  0  0  0  0  0  0  0  0  0  0  # atno 10718 bound_to 10713
  153.4192  135.7009  153.6305 H   0  0  0  0  0  0  0  0  0  0  0  0  # atno 10763 bound_to 10752
  153.4767  135.3702  155.2420 H   0  0  0  0  0  0  0  0  0  0  0  0  # atno 10764 bound_to 10752
  154.8721  135.4056  154.3558 H   0  0  0  0  0  0  0  0  0  0  0  0  # atno 10765 bound_to 10752
  139.9757  134.9564  156.9503 H   0  0  0  0  0  0  0  0  0  0  0  0  # atno 11005 bound_to 11000
  144.9575  139.4016  143.6372 LP  0  0  0  0  0  0  0  0  0  0  0  0  # atno 17320 bound_to 7965
  146.3324  139.8612  142.8856 LP  0  0  0  0  0  0  0  0  0  0  0  0  # atno 17321 bound_to 7965
  139.5035  144.6757  151.6133 LP  0  0  0  0  0  0  0  0  0  0  0  0  # atno 17342 bound_to 10162
  140.6014  143.9603  150.6388 LP  0  0  0  0  0  0  0  0  0  0  0  0  # atno 17343 bound_to 10162
  155.9933  130.3925  150.2907 LP  0  0  0  0  0  0  0  0  0  0  0  0  # atno 17370 bound_to 10713
  157.1068  131.0210  151.3064 LP  0  0  0  0  0  0  0  0  0  0  0  0  # atno 17371 bound_to 10713
  140.5200  134.0917  155.7290 LP  0  0  0  0  0  0  0  0  0  0  0  0  # atno 17394 bound_to 11000
  141.1434  133.9098  157.2273 LP  0  0  0  0  0  0  0  0  0  0  0  0  # atno 17395 bound_to 11000

$$$$
