AV-unprocessed.smi:2107|AV-procd|sdf|8603|dock10
  -GOLD-   2272011343D 1   1.00000     0.00000
 Structure written by MMmdl.
 46 47  0  0  0  0  0  0  0  0  3 V2000
  147.4303  135.8288  163.0251 C   0  0  0  0  0  0  0  0  0  0  0  0
  146.4148  135.1733  162.0798 C   0  0  0  0  0  0  0  0  0  0  0  0
  147.0345  134.8462  160.7854 N   0  0  0  0  0  0  0  0  0  0  0  0
  147.3402  133.4266  160.5381 C   0  0  0  0  0  0  0  0  0  0  0  0
  148.0797  132.8001  161.7278 C   0  0  0  0  0  0  0  0  0  0  0  0
  147.8127  136.0857  159.8397 S   0  0  0  0  0  0  0  0  0  0  0  0
  147.9552  137.2676  160.7078 O   0  0  0  0  0  0  0  0  0  0  0  0
  149.0468  135.4685  159.3308 O   0  0  0  0  0  0  0  0  0  0  0  0
  146.6809  136.2419  158.6775 N   0  5  0  0  0  0  0  0  0  0  0  0
  146.8571  137.1569  157.5569 C   0  0  0  0  0  0  0  0  0  0  0  0
  146.8694  136.4138  156.2151 C   0  0  0  0  0  0  0  0  0  0  0  0
  145.9884  135.3155  156.0472 C   0  0  0  0  0  0  0  0  0  0  0  0
  145.9547  134.6144  154.8259 C   0  0  0  0  0  0  0  0  0  0  0  0
  146.8048  135.0192  153.7826 C   0  0  0  0  0  0  0  0  0  0  0  0
  147.6369  136.0644  153.9658 N   0  3  0  0  0  0  0  0  0  0  0  0
  147.7158  136.7773  155.1182 C   0  0  0  0  0  0  0  0  0  0  0  0
  148.6582  137.8264  155.1513 N   0  0  0  0  0  0  0  0  0  0  0  0
  150.0367  137.3680  155.0305 C   0  0  0  0  0  0  0  0  0  0  0  0
  151.0067  138.5438  155.2390 C   0  0  0  0  0  0  0  0  0  0  0  0
  150.6845  139.5986  154.3363 O   0  0  0  0  0  0  0  0  0  0  0  0
  149.3620  140.0894  154.5376 C   0  0  0  0  0  0  0  0  0  0  0  0
  148.3540  138.9564  154.2838 C   0  0  0  0  0  0  0  0  0  0  0  0
  146.9619  136.0892  163.9740 H   0  0  0  0  0  0  0  0  0  0  0  0
  147.8371  136.7435  162.5933 H   0  0  0  0  0  0  0  0  0  0  0  0
  148.2660  135.1639  163.2424 H   0  0  0  0  0  0  0  0  0  0  0  0
  146.0122  134.2632  162.5255 H   0  0  0  0  0  0  0  0  0  0  0  0
  145.5670  135.8433  161.9328 H   0  0  0  0  0  0  0  0  0  0  0  0
  146.4131  132.8790  160.3646 H   0  0  0  0  0  0  0  0  0  0  0  0
  147.9273  133.3334  159.6240 H   0  0  0  0  0  0  0  0  0  0  0  0
  148.2646  131.7405  161.5516 H   0  0  0  0  0  0  0  0  0  0  0  0
  147.4937  132.8862  162.6432 H   0  0  0  0  0  0  0  0  0  0  0  0
  149.0437  133.2785  161.8998 H   0  0  0  0  0  0  0  0  0  0  0  0
  146.0733  137.9147  157.5418 H   0  0  0  0  0  0  0  0  0  0  0  0
  147.7899  137.7175  157.6179 H   0  0  0  0  0  0  0  0  0  0  0  0
  145.3284  134.9933  156.8417 H   0  0  0  0  0  0  0  0  0  0  0  0
  145.2854  133.7770  154.6942 H   0  0  0  0  0  0  0  0  0  0  0  0
  146.8479  134.5409  152.8153 H   0  0  0  0  0  0  0  0  0  0  0  0
  150.2335  136.5880  155.7670 H   0  0  0  0  0  0  0  0  0  0  0  0
  150.1917  136.9283  154.0443 H   0  0  0  0  0  0  0  0  0  0  0  0
  150.9669  138.9067  156.2666 H   0  0  0  0  0  0  0  0  0  0  0  0
  152.0318  138.2205  155.0579 H   0  0  0  0  0  0  0  0  0  0  0  0
  149.2582  140.4843  155.5500 H   0  0  0  0  0  0  0  0  0  0  0  0
  149.1803  140.9164  153.8513 H   0  0  0  0  0  0  0  0  0  0  0  0
  148.4010  138.6476  153.2389 H   0  0  0  0  0  0  0  0  0  0  0  0
  147.3387  139.3053  154.4754 H   0  0  0  0  0  0  0  0  0  0  0  0
  148.2485  136.3314  153.1946 H   0  0  0  0  0  0  0  0  0  0  0  0
  1  2  1  0  0  0  0
  1 23  1  0  0  0  0
  1 24  1  0  0  0  0
  1 25  1  0  0  0  0
  2  3  1  0  0  0  0
  2 26  1  0  0  0  0
  2 27  1  0  0  0  0
  3  4  1  0  0  0  0
  3  6  1  0  0  0  0
  4  5  1  0  0  0  0
  4 28  1  0  0  0  0
  4 29  1  0  0  0  0
  5 30  1  0  0  0  0
  5 31  1  0  0  0  0
  5 32  1  0  0  0  0
  6  7  2  0  0  0  0
  6  8  2  0  0  0  0
  6  9  1  0  0  0  0
  9 10  1  0  0  0  0
 10 11  1  0  0  0  0
 10 33  1  0  0  0  0
 10 34  1  0  0  0  0
 11 16  1  0  0  0  0
 11 12  2  0  0  0  0
 12 13  1  0  0  0  0
 12 35  1  0  0  0  0
 13 14  2  0  0  0  0
 13 36  1  0  0  0  0
 14 15  1  0  0  0  0
 14 37  1  0  0  0  0
 15 16  2  0  0  0  0
 15 46  1  0  0  0  0
 16 17  1  0  0  0  0
 17 22  1  0  0  0  0
 17 18  1  0  0  0  0
 18 19  1  0  0  0  0
 18 38  1  0  0  0  0
 18 39  1  0  0  0  0
 19 20  1  0  0  0  0
 19 40  1  0  0  0  0
 19 41  1  0  0  0  0
 20 21  1  0  0  0  0
 21 22  1  0  0  0  0
 21 42  1  0  0  0  0
 21 43  1  0  0  0  0
 22 44  1  0  0  0  0
 22 45  1  0  0  0  0
M  CHG  1   9  -1
M  CHG  1  15   1
M  END
> <s_m_source_file>
AV-unprocessed.smi

> <i_m_source_file_index>
2107

> <i_lp_mmshare_version>
43012

> <i_f3d_flags>
0

> <s_epik_input>
W0NIM11bQ0gyXU4oW0NIMl1bQ0gzXSlTKD1PKSg9TylbTkhdW0NIMl1jMVtjSF1bY0hdW2NIXW5jMU4yW0NIMl1bQ0gyXU9bQ0gyXVtDSDJdMg==

> <s_epik_cmdline>
J2VwaWtfcHl0aG9uJywgJy1waCcsICc3LjAnLCAnLXRuJywgJzgnLCAnLW1hJywgJzIwMCcsICctbWV0YWxfYmluZGluZycsICctaW1hZScsICc8aW5maWxlLm1hZT4nLCAnLW9tYWUnLCAnPG91dGZpbGUubWFlPic=

> <r_lp_tautomer_probability>
0.999994

> <r_epik_Ionization_Penalty>
2.67026

> <r_epik_Ionization_Penalty_Charging>
2.67026

> <r_epik_Ionization_Penalty_Neutral>
4.07977e-08

> <r_epik_State_Penalty>
4.05768

> <r_epik_Charging_Adjusted_Penalty>
6.72795

> <i_epik_Tot_Q>
0

> <i_epik_Tot_abs_Q>
2

> <r_epik_Metal_State_Penalty>
2.91237

> <b_epik_Metal_Only>
1

> <s_lp_Force_Field>
OPLS_2005

> <r_lp_Energy>
19.7011

> <b_lp_Chiralities_Consistent>
1

> <s_lp_Variant>
AV-unprocessed.smi:2107-4

> <Gold.Version>
5.8.1

> <Gold.Id.Protein>
6NUR|6NUR_protein|mol2

> <Gold.PLP.Fitness>
44.0729

> <Gold.PLP.PLP>
-28.3127

> <Gold.PLP.part.hbond>
-5.0000

> <Gold.PLP.part.metal>
0.0000

> <Gold.PLP.part.buried>
-3.8858

> <Gold.PLP.part.nonpolar>
-20.0649

> <Gold.PLP.part.repulsive>
0.2178

> <Gold.PLP.ligand.clash>
0.0000

> <Gold.PLP.ligand.torsion>
2.2920

> <Gold.PLP.Chemscore.Hbond>
5.5680

> <Gold.PLP.Chemscore.CHOScore>
0.0000

> <Gold.PLP.Chemscore.Metal>
0.0000

> <Gold.Chemscore.Hbonds>
donor molecule, donor type, donor heavy atom, donor atom, acceptor molecule, acceptor atom, score
      L1  H    15    46       P1  7948  1.89
      P1  H  6896  6908       L1     8  0.96
      P1  H  6931  6943       L1     7  0.80
      P1  H  6934  6947       L1     7  0.77
      P1  H  7989  7998       L1    20  1.00

> <Gold.PLP.Chemscore.Internal.Correction>
3.6402

> <Gold.Rescore>
     Score         DG    S(hbond)    S(metal)    S(lipo)     H(rot)  DE(clash)    DE(int)     intcor
     18.88     -22.64       4.48        0.00      56.31       1.72       0.01       3.74       ----

> <Gold.Chemscore.Fitness>
18.8836

> <Gold.Chemscore.DG>
-22.6386

> <Gold.Chemscore.ZeroCoef>
-5.4800

> <Gold.Chemscore.Hbond>
4.4801

> <Gold.Chemscore.Metal>
0.0000

> <Gold.Chemscore.Lipo>
56.3057

> <Gold.Chemscore.Internal_Hbond>
0.0000

> <Gold.Chemscore.DEClash>
0.0148

> <Gold.Chemscore.DEInternal>
3.7402

> <Gold.Chemscore.Rot>
1.7159

> <Gold.Chemscore.Internal.Correction>
   9.000000E+99

> <Gold.Chemscore.Hbonds>
donor molecule, donor type, donor heavy atom, donor atom, acceptor molecule, acceptor atom, score
      L1  H    15    46       P1  7948  0.89
      P1  H  6896  6908       L1     8  0.91
      P1  H  6931  6943       L1     7  0.79
      P1  H  6934  6947       L1     7  0.75
      P1  H  7989  7998       L1    20  0.65

> <Gold.Chemscore.Hbond.Weighted>
-14.9635

> <Gold.Chemscore.Metal.Weighted>
-0.0000

> <Gold.Chemscore.Lipo.Weighted>
-6.5878

> <Gold.Chemscore.Internal_Hbond.Weighted>
0.0000

> <Gold.Chemscore.DEClash.Weighted>
0.0148

> <Gold.Chemscore.DEInternal.Weighted>
3.7402

> <Gold.Chemscore.Rot.Weighted>
4.3926

> <Gold.Chemscore.Internal.Correction.Weighted>
   9.000000E+99

> <Gold.Protein.RotatedTorsions>
[ 6907 6896 6895 6894 ] final  153.99 input  -60.11 | X-H torsion
[ 7974 7965 7964 7962 ] final  160.04 input  175.53 | X-H torsion
[ 8008 7997 7996 7995 ] final  -80.10 input   59.86 | X-H torsion
[ 10167 10162 10161 10158 ] final  -91.59 input  -65.29 | X-H torsion
[ 10718 10713 10712 10709 ] final  170.12 input   66.30 | X-H torsion
[ 10763 10752 10751 10750 ] final  -66.45 input  -60.55 | X-H torsion
[ 11005 11000 10999 10996 ] final   -1.59 input  -57.11 | X-H torsion

> <Gold.Protein.ActiveResidues>
 VAL166  LYS551  ARG553  GLY616  TRP617  ASP618  TYR619  PRO620  LYS621  CYS622 
 ASP623  PHE694  ASN695  SER759  ASP760  ASP761  ALA762  ILE779  LEU786  VAL792 
 PHE793  MET794  SER795  GLU796  ALA797  LYS798  CYS799  TRP800  GLU811  SER814 

> <Gold.Protein.RotatedAtoms>
  152.0648  133.4079  159.4433 H   0  0  0  0  0  0  0  0  0  0  0  0  # atno 6907 bound_to 6896
  150.6865  134.3159  159.4775 H   0  0  0  0  0  0  0  0  0  0  0  0  # atno 6908 bound_to 6896
  152.0984  134.9358  160.0621 H   0  0  0  0  0  0  0  0  0  0  0  0  # atno 6909 bound_to 6896
  144.7758  139.7702  143.6279 H   0  0  0  0  0  0  0  0  0  0  0  0  # atno 7974 bound_to 7965
  154.5850  140.0668  156.9158 H   0  0  0  0  0  0  0  0  0  0  0  0  # atno 8008 bound_to 7997
  155.2395  140.3343  155.4275 H   0  0  0  0  0  0  0  0  0  0  0  0  # atno 8009 bound_to 7997
  156.2216  140.1801  156.7447 H   0  0  0  0  0  0  0  0  0  0  0  0  # atno 8010 bound_to 7997
  140.3433  143.2930  151.9810 H   0  0  0  0  0  0  0  0  0  0  0  0  # atno 10167 bound_to 10162
  157.0128  131.0209  151.2798 H   0  0  0  0  0  0  0  0  0  0  0  0  # atno 10718 bound_to 10713
  154.3599  135.6118  153.5685 H   0  0  0  0  0  0  0  0  0  0  0  0  # atno 10763 bound_to 10752
  152.9794  135.5813  154.4645 H   0  0  0  0  0  0  0  0  0  0  0  0  # atno 10764 bound_to 10752
  154.4380  135.2849  155.1844 H   0  0  0  0  0  0  0  0  0  0  0  0  # atno 10765 bound_to 10752
  140.6490  133.9421  155.8369 H   0  0  0  0  0  0  0  0  0  0  0  0  # atno 11005 bound_to 11000
  146.1936  139.5189  142.9789 LP  0  0  0  0  0  0  0  0  0  0  0  0  # atno 17320 bound_to 7965
  145.6191  141.0326  143.1924 LP  0  0  0  0  0  0  0  0  0  0  0  0  # atno 17321 bound_to 7965
  139.4837  144.6138  151.7384 LP  0  0  0  0  0  0  0  0  0  0  0  0  # atno 17342 bound_to 10162
  140.5288  144.0763  150.6046 LP  0  0  0  0  0  0  0  0  0  0  0  0  # atno 17343 bound_to 10162
  157.5308  130.8057  149.7914 LP  0  0  0  0  0  0  0  0  0  0  0  0  # atno 17370 bound_to 10713
  156.0130  130.3825  150.2202 LP  0  0  0  0  0  0  0  0  0  0  0  0  # atno 17371 bound_to 10713
  141.0550  134.0429  157.3733 LP  0  0  0  0  0  0  0  0  0  0  0  0  # atno 17394 bound_to 11000
  139.9052  135.0177  156.7455 LP  0  0  0  0  0  0  0  0  0  0  0  0  # atno 17395 bound_to 11000

$$$$
