AV-unprocessed.smi:2510|AV-procd|sdf|9881|dock7
  -GOLD-   2272013513D 1   1.00000     0.00000
 Structure written by MMmdl.
 48 49  0  0  0  0  0  0  0  0  1 V2000
  142.8702  134.8552  152.9112 C   0  0  0  0  0  0  0  0  0  0  0  0
  144.1440  134.0353  152.6463 C   0  0  0  0  0  0  0  0  0  0  0  0
  145.4297  134.8725  152.4361 C   0  0  0  0  0  0  0  0  0  0  0  0
  145.2638  135.7496  151.1702 C   0  0  0  0  0  0  0  0  0  0  0  0
  144.4516  135.1072  150.0351 C   0  0  0  0  0  0  0  0  0  0  0  0
  145.9352  135.5572  153.7429 C   0  0  2  0  0  0  0  0  0  0  0  0
  146.6692  136.8014  153.5129 N   0  0  0  0  0  0  0  0  0  0  0  0
  146.3191  137.9981  154.0077 C   0  0  0  0  0  0  0  0  0  0  0  0
  145.3793  138.1634  154.7848 O   0  0  0  0  0  0  0  0  0  0  0  0
  147.1383  139.1963  153.5275 C   0  0  0  0  0  0  0  0  0  0  0  0
  148.5411  139.1120  154.0397 C   0  0  0  0  0  0  0  0  0  0  0  0
  149.2062  138.1087  154.6874 C   0  0  0  0  0  0  0  0  0  0  0  0
  150.5217  138.6236  154.8781 C   0  0  0  0  0  0  0  0  0  0  0  0
  151.6932  137.9514  155.5310 C   0  0  0  0  0  0  0  0  0  0  0  0
  150.6603  139.8492  154.3955 N   0  0  0  0  0  0  0  0  0  0  0  0
  149.4474  140.1374  153.8893 N   0  0  0  0  0  0  0  0  0  0  0  0
  146.8822  134.3679  153.9862 C   0  0  2  0  0  0  0  0  0  0  0  0
  148.2591  134.5857  154.6088 C   0  0  0  0  0  0  0  0  0  0  0  0
  146.7560  134.0735  152.4847 C   0  0  1  0  0  0  0  0  0  0  0  0
  146.5869  132.7040  152.1496 O   0  0  0  0  0  0  0  0  0  0  0  0
  146.2514  132.5013  150.7884 C   0  0  0  0  0  0  0  0  0  0  0  0
  149.2571  141.0224  153.4411 H   0  0  0  0  0  0  0  0  0  0  0  0
  142.0397  134.1970  153.1662 H   0  0  0  0  0  0  0  0  0  0  0  0
  142.5671  135.4278  152.0353 H   0  0  0  0  0  0  0  0  0  0  0  0
  143.0029  135.5512  153.7392 H   0  0  0  0  0  0  0  0  0  0  0  0
  144.2773  133.3651  153.4957 H   0  0  0  0  0  0  0  0  0  0  0  0
  143.9704  133.3682  151.8026 H   0  0  0  0  0  0  0  0  0  0  0  0
  144.8390  136.7212  151.4208 H   0  0  0  0  0  0  0  0  0  0  0  0
  146.2419  135.9765  150.7468 H   0  0  0  0  0  0  0  0  0  0  0  0
  144.4942  135.7266  149.1391 H   0  0  0  0  0  0  0  0  0  0  0  0
  143.4000  134.9964  150.2975 H   0  0  0  0  0  0  0  0  0  0  0  0
  144.8428  134.1237  149.7741 H   0  0  0  0  0  0  0  0  0  0  0  0
  145.1793  135.6381  154.5255 H   0  0  0  0  0  0  0  0  0  0  0  0
  147.4567  136.7588  152.8826 H   0  0  0  0  0  0  0  0  0  0  0  0
  147.1370  139.2305  152.4372 H   0  0  0  0  0  0  0  0  0  0  0  0
  146.6649  140.1162  153.8722 H   0  0  0  0  0  0  0  0  0  0  0  0
  148.8143  137.1440  154.9736 H   0  0  0  0  0  0  0  0  0  0  0  0
  151.5082  136.8861  155.6695 H   0  0  0  0  0  0  0  0  0  0  0  0
  151.8956  138.3838  156.5110 H   0  0  0  0  0  0  0  0  0  0  0  0
  152.5950  138.0541  154.9269 H   0  0  0  0  0  0  0  0  0  0  0  0
  146.3369  133.6075  154.5478 H   0  0  0  0  0  0  0  0  0  0  0  0
  148.8976  135.2002  153.9736 H   0  0  0  0  0  0  0  0  0  0  0  0
  148.7748  133.6395  154.7703 H   0  0  0  0  0  0  0  0  0  0  0  0
  148.1785  135.0816  155.5761 H   0  0  0  0  0  0  0  0  0  0  0  0
  147.5407  134.5569  151.8982 H   0  0  0  0  0  0  0  0  0  0  0  0
  146.0926  131.4383  150.6072 H   0  0  0  0  0  0  0  0  0  0  0  0
  147.0505  132.8361  150.1275 H   0  0  0  0  0  0  0  0  0  0  0  0
  145.3331  133.0277  150.5249 H   0  0  0  0  0  0  0  0  0  0  0  0
  1  2  1  0  0  0  0
  1 23  1  0  0  0  0
  1 24  1  0  0  0  0
  1 25  1  0  0  0  0
  2  3  1  0  0  0  0
  2 26  1  0  0  0  0
  2 27  1  0  0  0  0
  3 19  1  0  0  0  0
  3  4  1  0  0  0  0
  3  6  1  0  0  0  0
  4  5  1  0  0  0  0
  4 28  1  0  0  0  0
  4 29  1  0  0  0  0
  5 30  1  0  0  0  0
  5 31  1  0  0  0  0
  5 32  1  0  0  0  0
  6  7  1  0  0  0  0
  6 17  1  0  0  0  0
  6 33  1  0  0  0  0
  7  8  1  0  0  0  0
  7 34  1  0  0  0  0
  8  9  2  0  0  0  0
  8 10  1  0  0  0  0
 10 35  1  0  0  0  0
 10 36  1  0  0  0  0
 10 11  1  0  0  0  0
 11 16  1  0  0  0  0
 11 12  2  0  0  0  0
 12 13  1  0  0  0  0
 12 37  1  0  0  0  0
 13 14  1  0  0  0  0
 13 15  2  0  0  0  0
 14 38  1  0  0  0  0
 14 39  1  0  0  0  0
 14 40  1  0  0  0  0
 15 16  1  0  0  0  0
 16 22  1  0  0  0  0
 17 18  1  0  0  0  0
 17 19  1  0  0  0  0
 17 41  1  0  0  0  0
 18 42  1  0  0  0  0
 18 43  1  0  0  0  0
 18 44  1  0  0  0  0
 19 20  1  0  0  0  0
 19 45  1  0  0  0  0
 20 21  1  0  0  0  0
 21 46  1  0  0  0  0
 21 47  1  0  0  0  0
 21 48  1  0  0  0  0
M  END
> <s_m_source_file>
AV-unprocessed.smi

> <i_m_source_file_index>
2510

> <i_lp_mmshare_version>
43012

> <i_f3d_flags>
0

> <s_epik_input>
W0NIM11PW0NAQEhdMVtDQEhdKFtDSDNdKVtDQEBIXShDMShbQ0gyXVtDSDNdKVtDSDJdW0NIM10pW05IXUMoPU8pW0NIMl1jMltjSF1jKFtDSDNdKVtuSF1uMg==

> <s_epik_cmdline>
J2VwaWtfcHl0aG9uJywgJy1waCcsICc3LjAnLCAnLXRuJywgJzgnLCAnLW1hJywgJzIwMCcsICctbWV0YWxfYmluZGluZycsICctaW1hZScsICc8aW5maWxlLm1hZT4nLCAnLW9tYWUnLCAnPG91dGZpbGUubWFlPic=

> <r_lp_tautomer_probability>
0.5

> <r_epik_Ionization_Penalty>
0.000134763

> <r_epik_Ionization_Penalty_Charging>
0

> <r_epik_Ionization_Penalty_Neutral>
0.000134763

> <r_epik_State_Penalty>
0.41068

> <r_epik_Charging_Adjusted_Penalty>
0.41068

> <i_epik_Tot_Q>
0

> <i_epik_Tot_abs_Q>
0

> <r_epik_Metal_State_Penalty>
0.410661

> <b_epik_Metal_Only>
0

> <s_lp_Force_Field>
OPLS_2005

> <r_lp_Energy>
24.0531

> <b_lp_Chiralities_Consistent>
1

> <s_lp_Variant>
AV-unprocessed.smi:2510-12

> <Gold.Version>
5.8.1

> <Gold.Id.Protein>
6NUR|6NUR_protein|mol2

> <Gold.PLP.Fitness>
33.3089

> <Gold.PLP.PLP>
-28.3363

> <Gold.PLP.part.hbond>
-3.0000

> <Gold.PLP.part.metal>
0.0000

> <Gold.PLP.part.buried>
-1.0321

> <Gold.PLP.part.nonpolar>
-24.9334

> <Gold.PLP.part.repulsive>
0.8313

> <Gold.PLP.ligand.clash>
0.0000

> <Gold.PLP.ligand.torsion>
0.7999

> <Gold.PLP.Chemscore.Hbond>
2.0000

> <Gold.PLP.Chemscore.CHOScore>
0.0000

> <Gold.PLP.Chemscore.Metal>
0.0000

> <Gold.Chemscore.Hbonds>
donor molecule, donor type, donor heavy atom, donor atom, acceptor molecule, acceptor atom, score
      L1  H     7    34       P1  7948  1.00
      P1  H  7989  7998       L1    15  1.00

> <Gold.PLP.Chemscore.Internal.Correction>
0.5723

> <Gold.Rescore>
     Score         DG    S(hbond)    S(metal)    S(lipo)     H(rot)  DE(clash)    DE(int)     intcor
     14.93     -15.99       1.91        0.00      74.84       1.81       0.16       0.90       ----

> <Gold.Chemscore.Fitness>
14.9309

> <Gold.Chemscore.DG>
-15.9914

> <Gold.Chemscore.ZeroCoef>
-5.4800

> <Gold.Chemscore.Hbond>
1.9129

> <Gold.Chemscore.Metal>
0.0000

> <Gold.Chemscore.Lipo>
74.8405

> <Gold.Chemscore.Internal_Hbond>
0.0000

> <Gold.Chemscore.DEClash>
0.1642

> <Gold.Chemscore.DEInternal>
0.8963

> <Gold.Chemscore.Rot>
1.8102

> <Gold.Chemscore.Internal.Correction>
   9.000000E+99

> <Gold.Chemscore.Hbonds>
donor molecule, donor type, donor heavy atom, donor atom, acceptor molecule, acceptor atom, score
      L1  H     7    34       P1  7948  1.00
      P1  H  7989  7998       L1    15  0.30

> <Gold.Chemscore.Hbond.Weighted>
-6.3892

> <Gold.Chemscore.Metal.Weighted>
-0.0000

> <Gold.Chemscore.Lipo.Weighted>
-8.7563

> <Gold.Chemscore.Internal_Hbond.Weighted>
0.0000

> <Gold.Chemscore.DEClash.Weighted>
0.1642

> <Gold.Chemscore.DEInternal.Weighted>
0.8963

> <Gold.Chemscore.Rot.Weighted>
4.6341

> <Gold.Chemscore.Internal.Correction.Weighted>
   9.000000E+99

> <Gold.Protein.RotatedTorsions>
[ 6907 6896 6895 6894 ] final  176.38 input  -60.11 | X-H torsion
[ 7974 7965 7964 7962 ] final    4.14 input  175.53 | X-H torsion
[ 8008 7997 7996 7995 ] final  -44.73 input   59.86 | X-H torsion
[ 10167 10162 10161 10158 ] final  -73.84 input  -65.29 | X-H torsion
[ 10718 10713 10712 10709 ] final    0.21 input   66.30 | X-H torsion
[ 10763 10752 10751 10750 ] final   67.89 input  -60.55 | X-H torsion
[ 11005 11000 10999 10996 ] final  -82.66 input  -57.11 | X-H torsion

> <Gold.Protein.ActiveResidues>
 VAL166  LYS551  ARG553  GLY616  TRP617  ASP618  TYR619  PRO620  LYS621  CYS622 
 ASP623  PHE694  ASN695  SER759  ASP760  ASP761  ALA762  ILE779  LEU786  VAL792 
 PHE793  MET794  SER795  GLU796  ALA797  LYS798  CYS799  TRP800  GLU811  SER814 

> <Gold.Protein.RotatedAtoms>
  151.7211  133.3314  159.3315 H   0  0  0  0  0  0  0  0  0  0  0  0  # atno 6907 bound_to 6896
  150.7652  134.6447  159.6265 H   0  0  0  0  0  0  0  0  0  0  0  0  # atno 6908 bound_to 6896
  152.3652  134.6818  160.0246 H   0  0  0  0  0  0  0  0  0  0  0  0  # atno 6909 bound_to 6896
  146.2444  140.0580  142.8370 H   0  0  0  0  0  0  0  0  0  0  0  0  # atno 7974 bound_to 7965
  154.3998  140.1415  156.3731 H   0  0  0  0  0  0  0  0  0  0  0  0  # atno 8008 bound_to 7997
  155.8074  140.3474  155.5417 H   0  0  0  0  0  0  0  0  0  0  0  0  # atno 8009 bound_to 7997
  155.8421  140.0928  157.1718 H   0  0  0  0  0  0  0  0  0  0  0  0  # atno 8010 bound_to 7997
  140.5077  143.2350  151.7647 H   0  0  0  0  0  0  0  0  0  0  0  0  # atno 10167 bound_to 10162
  156.8300  130.5485  149.5688 H   0  0  0  0  0  0  0  0  0  0  0  0  # atno 10718 bound_to 10713
  153.0208  135.5267  154.7050 H   0  0  0  0  0  0  0  0  0  0  0  0  # atno 10763 bound_to 10752
  154.6148  135.2882  155.0394 H   0  0  0  0  0  0  0  0  0  0  0  0  # atno 10764 bound_to 10752
  154.1402  135.6579  153.4993 H   0  0  0  0  0  0  0  0  0  0  0  0  # atno 10765 bound_to 10752
  141.1662  133.7255  156.8604 H   0  0  0  0  0  0  0  0  0  0  0  0  # atno 11005 bound_to 11000
  145.0925  140.9294  143.4760 LP  0  0  0  0  0  0  0  0  0  0  0  0  # atno 17320 bound_to 7965
  145.0756  139.2998  143.5810 LP  0  0  0  0  0  0  0  0  0  0  0  0  # atno 17321 bound_to 7965
  139.4888  144.4435  151.9737 LP  0  0  0  0  0  0  0  0  0  0  0  0  # atno 17342 bound_to 10162
  140.3526  144.3070  150.5946 LP  0  0  0  0  0  0  0  0  0  0  0  0  # atno 17343 bound_to 10162
  156.0940  130.5917  150.9781 LP  0  0  0  0  0  0  0  0  0  0  0  0  # atno 17370 bound_to 10713
  157.6412  131.0910  150.8248 LP  0  0  0  0  0  0  0  0  0  0  0  0  # atno 17371 bound_to 10713
  140.1852  134.9005  157.2996 LP  0  0  0  0  0  0  0  0  0  0  0  0  # atno 17394 bound_to 11000
  140.2350  134.3863  155.7505 LP  0  0  0  0  0  0  0  0  0  0  0  0  # atno 17395 bound_to 11000

$$$$
