AV-unprocessed.smi:1784|AV-procd|sdf|7197|dock9
  -GOLD-   22720 8443D 1   1.00000     0.00000
 Structure written by MMmdl.
 43 45  0  0  0  0  0  0  0  0  1 V2000
  145.5143  138.1613  153.6270 O   0  0  0  0  0  0  0  0  0  0  0  0
  146.5007  137.5961  153.1543 C   0  0  0  0  0  0  0  0  0  0  0  0
  146.4622  136.3736  152.6072 N   0  0  0  0  0  0  0  0  0  0  0  0
  145.2755  135.5299  152.5282 C   0  0  0  0  0  0  0  0  0  0  0  0
  145.2474  134.7323  151.2147 C   0  0  1  0  0  0  0  0  0  0  0  0
  146.3955  133.7369  151.0669 C   0  0  0  0  0  0  0  0  0  0  0  0
  145.8360  132.6901  150.1154 C   0  0  0  0  0  0  0  0  0  0  0  0
  144.3256  132.9464  150.1211 C   0  0  0  0  0  0  0  0  0  0  0  0
  144.1101  133.8857  151.1648 O   0  0  0  0  0  0  0  0  0  0  0  0
  147.7477  138.0950  153.1382 N   0  0  0  0  0  0  0  0  0  0  0  0
  148.2052  139.3441  153.6470 C   0  0  0  0  0  0  0  0  0  0  0  0
  147.4210  140.5218  153.5868 C   0  0  0  0  0  0  0  0  0  0  0  0
  147.9456  141.7230  154.0963 C   0  0  0  0  0  0  0  0  0  0  0  0
  149.2410  141.7071  154.6415 C   0  0  0  0  0  0  0  0  0  0  0  0
  150.0067  140.5985  154.6906 N   0  0  0  0  0  0  0  0  0  0  0  0
  149.5087  139.4347  154.2054 C   0  0  0  0  0  0  0  0  0  0  0  0
  150.3467  138.3002  154.2370 N   0  0  0  0  0  0  0  0  0  0  0  0
  151.7253  138.6110  154.6081 C   0  0  0  0  0  0  0  0  0  0  0  0
  152.1886  137.4968  155.5506 C   0  0  0  0  0  0  0  0  0  0  0  0
  150.8861  136.9839  156.1521 C   0  0  0  0  0  0  0  0  0  0  0  0
  149.9125  137.1217  154.9844 C   0  0  0  0  0  0  0  0  0  0  0  0
  147.3219  135.9829  152.2504 H   0  0  0  0  0  0  0  0  0  0  0  0
  145.2417  134.8526  153.3832 H   0  0  0  0  0  0  0  0  0  0  0  0
  144.3932  136.1660  152.6022 H   0  0  0  0  0  0  0  0  0  0  0  0
  145.2320  135.4040  150.3539 H   0  0  0  0  0  0  0  0  0  0  0  0
  147.3096  134.2027  150.6977 H   0  0  0  0  0  0  0  0  0  0  0  0
  146.6188  133.2727  152.0283 H   0  0  0  0  0  0  0  0  0  0  0  0
  146.2401  132.8081  149.1094 H   0  0  0  0  0  0  0  0  0  0  0  0
  146.0771  131.6835  150.4584 H   0  0  0  0  0  0  0  0  0  0  0  0
  144.0072  133.3846  149.1740 H   0  0  0  0  0  0  0  0  0  0  0  0
  143.7468  132.0376  150.2874 H   0  0  0  0  0  0  0  0  0  0  0  0
  148.4712  137.4710  152.8124 H   0  0  0  0  0  0  0  0  0  0  0  0
  146.4357  140.5284  153.1470 H   0  0  0  0  0  0  0  0  0  0  0  0
  147.3696  142.6358  154.0649 H   0  0  0  0  0  0  0  0  0  0  0  0
  149.6784  142.6102  155.0407 H   0  0  0  0  0  0  0  0  0  0  0  0
  152.3618  138.6725  153.7253 H   0  0  0  0  0  0  0  0  0  0  0  0
  151.7735  139.5739  155.1194 H   0  0  0  0  0  0  0  0  0  0  0  0
  152.6668  136.7017  154.9770 H   0  0  0  0  0  0  0  0  0  0  0  0
  152.8980  137.8449  156.3018 H   0  0  0  0  0  0  0  0  0  0  0  0
  150.9590  135.9628  156.5271 H   0  0  0  0  0  0  0  0  0  0  0  0
  150.5754  137.6292  156.9749 H   0  0  0  0  0  0  0  0  0  0  0  0
  148.8756  137.1592  155.3193 H   0  0  0  0  0  0  0  0  0  0  0  0
  149.9997  136.2587  154.3235 H   0  0  0  0  0  0  0  0  0  0  0  0
  1  2  2  0  0  0  0
  2  3  1  0  0  0  0
  2 10  1  0  0  0  0
  3  4  1  0  0  0  0
  3 22  1  0  0  0  0
  4  5  1  0  0  0  0
  4 23  1  0  0  0  0
  4 24  1  0  0  0  0
  5  9  1  0  0  0  0
  5  6  1  0  0  0  0
  5 25  1  0  0  0  0
  6  7  1  0  0  0  0
  6 26  1  0  0  0  0
  6 27  1  0  0  0  0
  7  8  1  0  0  0  0
  7 28  1  0  0  0  0
  7 29  1  0  0  0  0
  8  9  1  0  0  0  0
  8 30  1  0  0  0  0
  8 31  1  0  0  0  0
 10 11  1  0  0  0  0
 10 32  1  0  0  0  0
 11 16  1  0  0  0  0
 11 12  2  0  0  0  0
 12 13  1  0  0  0  0
 12 33  1  0  0  0  0
 13 14  2  0  0  0  0
 13 34  1  0  0  0  0
 14 15  1  0  0  0  0
 14 35  1  0  0  0  0
 15 16  2  0  0  0  0
 16 17  1  0  0  0  0
 17 21  1  0  0  0  0
 17 18  1  0  0  0  0
 18 19  1  0  0  0  0
 18 36  1  0  0  0  0
 18 37  1  0  0  0  0
 19 20  1  0  0  0  0
 19 38  1  0  0  0  0
 19 39  1  0  0  0  0
 20 21  1  0  0  0  0
 20 40  1  0  0  0  0
 20 41  1  0  0  0  0
 21 42  1  0  0  0  0
 21 43  1  0  0  0  0
M  END
> <s_m_source_file>
AV-unprocessed.smi

> <i_m_source_file_index>
1784

> <i_lp_mmshare_version>
43012

> <i_f3d_flags>
0

> <s_epik_input>
TzFbQ0gyXVtDSDJdW0NIMl1bQ0BIXTFbQ0gyXVtOSF1DKD1PKVtOSF1jMltjSF1bY0hdW2NIXW5jMk4zW0NIMl1bQ0gyXVtDSDJdW0NIMl0z

> <s_epik_cmdline>
J2VwaWtfcHl0aG9uJywgJy1waCcsICc3LjAnLCAnLXRuJywgJzgnLCAnLW1hJywgJzIwMCcsICctbWV0YWxfYmluZGluZycsICctaW1hZScsICc8aW5maWxlLm1hZT4nLCAnLW9tYWUnLCAnPG91dGZpbGUubWFlPic=

> <r_lp_tautomer_probability>
1

> <r_epik_Ionization_Penalty>
0.0982482

> <r_epik_Ionization_Penalty_Charging>
0

> <r_epik_Ionization_Penalty_Neutral>
0.0982482

> <r_epik_State_Penalty>
0.0877864

> <r_epik_Charging_Adjusted_Penalty>
0.0877864

> <i_epik_Tot_Q>
0

> <i_epik_Tot_abs_Q>
0

> <r_epik_Metal_State_Penalty>
0.0752567

> <b_epik_Metal_Only>
0

> <s_lp_Force_Field>
OPLS_2005

> <r_lp_Energy>
44.9043

> <b_lp_Chiralities_Consistent>
1

> <s_lp_Variant>
AV-unprocessed.smi:1784-2

> <Gold.Version>
5.8.1

> <Gold.Id.Protein>
6NUR|6NUR_protein|mol2

> <Gold.PLP.Fitness>
43.9316

> <Gold.PLP.PLP>
-33.4768

> <Gold.PLP.part.hbond>
-3.0000

> <Gold.PLP.part.metal>
0.0000

> <Gold.PLP.part.buried>
-0.4635

> <Gold.PLP.part.nonpolar>
-29.9494

> <Gold.PLP.part.repulsive>
0.7229

> <Gold.PLP.ligand.clash>
0.0000

> <Gold.PLP.ligand.torsion>
0.5130

> <Gold.PLP.Chemscore.Hbond>
2.7903

> <Gold.PLP.Chemscore.CHOScore>
1.0000

> <Gold.PLP.Chemscore.Metal>
0.0000

> <Gold.Chemscore.Hbonds>
donor molecule, donor type, donor heavy atom, donor atom, acceptor molecule, acceptor atom, score
      L1  H     3    22       P1  7948  0.98
      L1  H    10    32       P1  7948  1.00
      P1  H  7989  7998       L1    15  0.85
      L1  C    14    35       P1  8028  1.00

> <Gold.PLP.Chemscore.Internal.Correction>
0.1098

> <Gold.Rescore>
     Score         DG    S(hbond)    S(metal)    S(lipo)     H(rot)  DE(clash)    DE(int)     intcor
     16.67     -18.35       1.95        0.00      84.44       1.38       0.05       1.63       ----

> <Gold.Chemscore.Fitness>
16.6744

> <Gold.Chemscore.DG>
-18.3550

> <Gold.Chemscore.ZeroCoef>
-5.4800

> <Gold.Chemscore.Hbond>
1.9542

> <Gold.Chemscore.Metal>
0.0000

> <Gold.Chemscore.Lipo>
84.4416

> <Gold.Chemscore.Internal_Hbond>
0.0000

> <Gold.Chemscore.DEClash>
0.0517

> <Gold.Chemscore.DEInternal>
1.6289

> <Gold.Chemscore.Rot>
1.3796

> <Gold.Chemscore.Internal.Correction>
   9.000000E+99

> <Gold.Chemscore.Hbonds>
donor molecule, donor type, donor heavy atom, donor atom, acceptor molecule, acceptor atom, score
      L1  H     3    22       P1  7948  0.93
      L1  H    10    32       P1  7948  0.95
      P1  H  7989  7998       L1    15  0.18

> <Gold.Chemscore.Hbond.Weighted>
-6.5270

> <Gold.Chemscore.Metal.Weighted>
-0.0000

> <Gold.Chemscore.Lipo.Weighted>
-9.8797

> <Gold.Chemscore.Internal_Hbond.Weighted>
0.0000

> <Gold.Chemscore.DEClash.Weighted>
0.0517

> <Gold.Chemscore.DEInternal.Weighted>
1.6289

> <Gold.Chemscore.Rot.Weighted>
3.5317

> <Gold.Chemscore.Internal.Correction.Weighted>
   9.000000E+99

> <Gold.Protein.RotatedTorsions>
[ 6907 6896 6895 6894 ] final  -25.94 input  -60.11 | X-H torsion
[ 7974 7965 7964 7962 ] final   86.48 input  175.53 | X-H torsion
[ 8008 7997 7996 7995 ] final   53.01 input   59.86 | X-H torsion
[ 10167 10162 10161 10158 ] final  -91.34 input  -65.29 | X-H torsion
[ 10718 10713 10712 10709 ] final  -17.17 input   66.30 | X-H torsion
[ 10763 10752 10751 10750 ] final   14.34 input  -60.55 | X-H torsion
[ 11005 11000 10999 10996 ] final -171.36 input  -57.11 | X-H torsion

> <Gold.Protein.ActiveResidues>
 VAL166  LYS551  ARG553  GLY616  TRP617  ASP618  TYR619  PRO620  LYS621  CYS622 
 ASP623  PHE694  ASN695  SER759  ASP760  ASP761  ALA762  ILE779  LEU786  VAL792 
 PHE793  MET794  SER795  GLU796  ALA797  LYS798  CYS799  TRP800  GLU811  SER814 

> <Gold.Protein.RotatedAtoms>
  151.1680  135.0304  159.8738 H   0  0  0  0  0  0  0  0  0  0  0  0  # atno 6907 bound_to 6896
  152.5449  134.1203  159.8406 H   0  0  0  0  0  0  0  0  0  0  0  0  # atno 6908 bound_to 6896
  151.1306  133.4993  159.2632 H   0  0  0  0  0  0  0  0  0  0  0  0  # atno 6909 bound_to 6896
  145.5717  139.2314  143.2402 H   0  0  0  0  0  0  0  0  0  0  0  0  # atno 7974 bound_to 7965
  155.4613  140.3462  155.4313 H   0  0  0  0  0  0  0  0  0  0  0  0  # atno 8008 bound_to 7997
  156.1159  140.1473  156.9303 H   0  0  0  0  0  0  0  0  0  0  0  0  # atno 8009 bound_to 7997
  154.4789  140.0876  156.7308 H   0  0  0  0  0  0  0  0  0  0  0  0  # atno 8010 bound_to 7997
  140.3459  143.2917  151.9782 H   0  0  0  0  0  0  0  0  0  0  0  0  # atno 10167 bound_to 10162
  156.5773  130.4765  149.6336 H   0  0  0  0  0  0  0  0  0  0  0  0  # atno 10718 bound_to 10713
  153.1631  135.6799  153.8713 H   0  0  0  0  0  0  0  0  0  0  0  0  # atno 10763 bound_to 10752
  153.8102  135.3144  155.3401 H   0  0  0  0  0  0  0  0  0  0  0  0  # atno 10764 bound_to 10752
  154.7947  135.4814  154.0222 H   0  0  0  0  0  0  0  0  0  0  0  0  # atno 10765 bound_to 10752
  140.5091  134.5819  157.5013 H   0  0  0  0  0  0  0  0  0  0  0  0  # atno 11005 bound_to 11000
  146.1779  140.6543  142.9202 LP  0  0  0  0  0  0  0  0  0  0  0  0  # atno 17320 bound_to 7965
  144.7435  140.5005  143.6852 LP  0  0  0  0  0  0  0  0  0  0  0  0  # atno 17321 bound_to 7965
  139.4833  144.6117  151.7421 LP  0  0  0  0  0  0  0  0  0  0  0  0  # atno 17342 bound_to 10162
  140.5265  144.0798  150.6039 LP  0  0  0  0  0  0  0  0  0  0  0  0  # atno 17343 bound_to 10162
  156.2662  130.6990  151.1774 LP  0  0  0  0  0  0  0  0  0  0  0  0  # atno 17370 bound_to 10713
  157.7334  131.0591  150.5576 LP  0  0  0  0  0  0  0  0  0  0  0  0  # atno 17371 bound_to 10713
  139.9669  134.7358  156.0120 LP  0  0  0  0  0  0  0  0  0  0  0  0  # atno 17394 bound_to 11000
  141.1395  133.6568  156.3689 LP  0  0  0  0  0  0  0  0  0  0  0  0  # atno 17395 bound_to 11000

$$$$
