AV-unprocessed.smi:1006|AV-procd|sdf|4390|dock9
  -GOLD-   22720 2323D 1   1.00000     0.00000
 Structure written by MMmdl.
 45 47  0  0  0  0  0  0  0  0  1 V2000
  155.2698  132.6447  163.4188 C   0  0  0  0  0  0  0  0  0  0  0  0
  155.1607  134.1511  163.3147 C   0  0  0  0  0  0  0  0  0  0  0  0
  154.8055  134.9406  164.4296 C   0  0  0  0  0  0  0  0  0  0  0  0
  154.7452  136.3332  164.2135 C   0  0  0  0  0  0  0  0  0  0  0  0
  154.4036  137.2000  165.2482 N   0  0  0  0  0  0  0  0  0  0  0  0
  155.0146  136.8790  163.0082 N   0  0  0  0  0  0  0  0  0  0  0  0
  155.3363  136.0313  162.0283 C   0  0  0  0  0  0  0  0  0  0  0  0
  155.7113  136.7861  160.4578 S   0  0  0  0  0  0  0  0  0  0  0  0
  154.0518  137.1597  159.8119 C   0  0  0  0  0  0  0  0  0  0  0  0
  153.4940  138.4762  160.3757 C   0  0  2  0  0  0  0  0  0  0  0  0
  152.3378  138.8489  159.6492 O   0  0  0  0  0  0  0  0  0  0  0  0
  154.5293  139.6148  160.3112 C   0  0  0  0  0  0  0  0  0  0  0  0
  154.0723  140.8151  160.9875 N   0  0  0  0  0  0  0  0  0  0  0  0
  154.3371  141.1914  162.2535 C   0  0  0  0  0  0  0  0  0  0  0  0
  153.8113  142.3401  162.6697 N   0  0  0  0  0  0  0  0  0  0  0  0
  153.1259  142.7579  161.5416 C   0  0  0  0  0  0  0  0  0  0  0  0
  152.3472  143.9143  161.3165 C   0  0  0  0  0  0  0  0  0  0  0  0
  151.7291  144.1399  160.0657 C   0  0  0  0  0  0  0  0  0  0  0  0
  150.9007  145.3971  159.8672 C   0  0  0  0  0  0  0  0  0  0  0  0
  151.8864  143.2003  159.0152 C   0  0  0  0  0  0  0  0  0  0  0  0
  151.2318  143.4211  157.6630 C   0  0  0  0  0  0  0  0  0  0  0  0
  152.6609  142.0398  159.2233 C   0  0  0  0  0  0  0  0  0  0  0  0
  153.2698  141.8264  160.4724 C   0  0  0  0  0  0  0  0  0  0  0  0
  155.4282  134.7003  162.1091 N   0  0  0  0  0  0  0  0  0  0  0  0
  154.6257  132.2636  164.2118 H   0  0  0  0  0  0  0  0  0  0  0  0
  156.2974  132.3578  163.6435 H   0  0  0  0  0  0  0  0  0  0  0  0
  154.9750  132.1667  162.4840 H   0  0  0  0  0  0  0  0  0  0  0  0
  154.5948  134.5018  165.3939 H   0  0  0  0  0  0  0  0  0  0  0  0
  154.1911  136.8602  166.1750 H   0  0  0  0  0  0  0  0  0  0  0  0
  154.3450  138.1970  165.0992 H   0  0  0  0  0  0  0  0  0  0  0  0
  154.1122  137.2293  158.7255 H   0  0  0  0  0  0  0  0  0  0  0  0
  153.3823  136.3305  160.0442 H   0  0  0  0  0  0  0  0  0  0  0  0
  153.2028  138.3195  161.4154 H   0  0  0  0  0  0  0  0  0  0  0  0
  151.6293  138.2734  159.8933 H   0  0  0  0  0  0  0  0  0  0  0  0
  155.4638  139.3001  160.7773 H   0  0  0  0  0  0  0  0  0  0  0  0
  154.7666  139.8629  159.2756 H   0  0  0  0  0  0  0  0  0  0  0  0
  154.9530  140.5891  162.9055 H   0  0  0  0  0  0  0  0  0  0  0  0
  152.2280  144.6302  162.1165 H   0  0  0  0  0  0  0  0  0  0  0  0
  149.8749  145.1407  159.6008 H   0  0  0  0  0  0  0  0  0  0  0  0
  151.3231  146.0106  159.0710 H   0  0  0  0  0  0  0  0  0  0  0  0
  150.8695  146.0012  160.7744 H   0  0  0  0  0  0  0  0  0  0  0  0
  151.4813  142.6214  156.9650 H   0  0  0  0  0  0  0  0  0  0  0  0
  151.5656  144.3621  157.2250 H   0  0  0  0  0  0  0  0  0  0  0  0
  150.1468  143.4509  157.7647 H   0  0  0  0  0  0  0  0  0  0  0  0
  152.7899  141.3156  158.4326 H   0  0  0  0  0  0  0  0  0  0  0  0
  1  2  1  0  0  0  0
  1 25  1  0  0  0  0
  1 26  1  0  0  0  0
  1 27  1  0  0  0  0
  2 24  1  0  0  0  0
  2  3  2  0  0  0  0
  3  4  1  0  0  0  0
  3 28  1  0  0  0  0
  4  5  1  0  0  0  0
  4  6  2  0  0  0  0
  5 29  1  0  0  0  0
  5 30  1  0  0  0  0
  6  7  1  0  0  0  0
  7  8  1  0  0  0  0
  7 24  2  0  0  0  0
  8  9  1  0  0  0  0
  9 10  1  0  0  0  0
  9 31  1  0  0  0  0
  9 32  1  0  0  0  0
 10 11  1  0  0  0  0
 10 12  1  0  0  0  0
 10 33  1  0  0  0  0
 11 34  1  0  0  0  0
 12 13  1  0  0  0  0
 12 35  1  0  0  0  0
 12 36  1  0  0  0  0
 13 23  1  0  0  0  0
 13 14  1  0  0  0  0
 14 15  2  0  0  0  0
 14 37  1  0  0  0  0
 15 16  1  0  0  0  0
 16 23  2  0  0  0  0
 16 17  1  0  0  0  0
 17 18  2  0  0  0  0
 17 38  1  0  0  0  0
 18 19  1  0  0  0  0
 18 20  1  0  0  0  0
 19 39  1  0  0  0  0
 19 40  1  0  0  0  0
 19 41  1  0  0  0  0
 20 21  1  0  0  0  0
 20 22  2  0  0  0  0
 21 42  1  0  0  0  0
 21 43  1  0  0  0  0
 21 44  1  0  0  0  0
 22 23  1  0  0  0  0
 22 45  1  0  0  0  0
M  END
> <s_m_source_file>
AV-unprocessed.smi

> <i_m_source_file_index>
1006

> <i_lp_mmshare_version>
43012

> <i_f3d_flags>
0

> <s_epik_input>
W0NIM11jMVtjSF1jKFtOSDJdKW5jKG4xKVNbQ0gyXVtDQEhdKFtPSF0pW0NIMl1uKFtjSF1uMiljKGMyMylbY0hdYyhbQ0gzXSljKFtjSF0zKVtDSDNd

> <s_epik_cmdline>
J2VwaWtfcHl0aG9uJywgJy1waCcsICc3LjAnLCAnLXRuJywgJzgnLCAnLW1hJywgJzIwMCcsICctbWV0YWxfYmluZGluZycsICctaW1hZScsICc8aW5maWxlLm1hZT4nLCAnLW9tYWUnLCAnPG91dGZpbGUubWFlPic=

> <r_lp_tautomer_probability>
1

> <r_epik_Ionization_Penalty>
0.490208

> <r_epik_Ionization_Penalty_Charging>
0

> <r_epik_Ionization_Penalty_Neutral>
0.490208

> <r_epik_State_Penalty>
0.473203

> <r_epik_Charging_Adjusted_Penalty>
0.473203

> <i_epik_Tot_Q>
0

> <i_epik_Tot_abs_Q>
0

> <r_epik_Metal_State_Penalty>
0.354099

> <b_epik_Metal_Only>
0

> <s_lp_Force_Field>
OPLS_2005

> <r_lp_Energy>
3.13918

> <b_lp_Chiralities_Consistent>
1

> <s_lp_Variant>
AV-unprocessed.smi:1006-1

> <Gold.Version>
5.8.1

> <Gold.Id.Protein>
6NUR|6NUR_protein|mol2

> <Gold.PLP.Fitness>
51.2617

> <Gold.PLP.PLP>
-52.8193

> <Gold.PLP.part.hbond>
-1.4868

> <Gold.PLP.part.metal>
0.0000

> <Gold.PLP.part.buried>
-7.0084

> <Gold.PLP.part.nonpolar>
-43.6188

> <Gold.PLP.part.repulsive>
0.2430

> <Gold.PLP.ligand.clash>
0.0000

> <Gold.PLP.ligand.torsion>
0.8006

> <Gold.PLP.Chemscore.Hbond>
0.0000

> <Gold.PLP.Chemscore.CHOScore>
0.0000

> <Gold.PLP.Chemscore.Metal>
0.0000

> <Gold.PLP.Chemscore.Internal.Correction>
0.0437

> <Gold.Rescore>
     Score         DG    S(hbond)    S(metal)    S(lipo)     H(rot)  DE(clash)    DE(int)     intcor
     12.15     -13.46       0.00        0.00     129.96       2.82       0.78       0.53       ----

> <Gold.Chemscore.Fitness>
12.1519

> <Gold.Chemscore.DG>
-13.4634

> <Gold.Chemscore.ZeroCoef>
-5.4800

> <Gold.Chemscore.Hbond>
0.0000

> <Gold.Chemscore.Metal>
0.0000

> <Gold.Chemscore.Lipo>
129.9562

> <Gold.Chemscore.Internal_Hbond>
0.0000

> <Gold.Chemscore.DEClash>
0.7817

> <Gold.Chemscore.DEInternal>
0.5298

> <Gold.Chemscore.Rot>
2.8209

> <Gold.Chemscore.Internal.Correction>
   9.000000E+99

> <Gold.Chemscore.Hbond.Weighted>
-0.0000

> <Gold.Chemscore.Metal.Weighted>
-0.0000

> <Gold.Chemscore.Lipo.Weighted>
-15.2049

> <Gold.Chemscore.Internal_Hbond.Weighted>
0.0000

> <Gold.Chemscore.DEClash.Weighted>
0.7817

> <Gold.Chemscore.DEInternal.Weighted>
0.5298

> <Gold.Chemscore.Rot.Weighted>
7.2215

> <Gold.Chemscore.Internal.Correction.Weighted>
   9.000000E+99

> <Gold.Protein.RotatedTorsions>
[ 6907 6896 6895 6894 ] final -142.85 input  -60.11 | X-H torsion
[ 7974 7965 7964 7962 ] final  -74.35 input  175.53 | X-H torsion
[ 8008 7997 7996 7995 ] final   48.36 input   59.86 | X-H torsion
[ 10167 10162 10161 10158 ] final  168.65 input  -65.29 | X-H torsion
[ 10718 10713 10712 10709 ] final  109.04 input   66.30 | X-H torsion
[ 10763 10752 10751 10750 ] final   91.10 input  -60.55 | X-H torsion
[ 11005 11000 10999 10996 ] final   84.94 input  -57.11 | X-H torsion

> <Gold.Protein.ActiveResidues>
 VAL166  LYS551  ARG553  GLY616  TRP617  ASP618  TYR619  PRO620  LYS621  CYS622 
 ASP623  PHE694  ASN695  SER759  ASP760  ASP761  ALA762  ILE779  LEU786  VAL792 
 PHE793  MET794  SER795  GLU796  ALA797  LYS798  CYS799  TRP800  GLU811  SER814 

> <Gold.Protein.RotatedAtoms>
  151.0926  133.5304  159.2613 H   0  0  0  0  0  0  0  0  0  0  0  0  # atno 6907 bound_to 6896
  151.2165  135.0501  159.8942 H   0  0  0  0  0  0  0  0  0  0  0  0  # atno 6908 bound_to 6896
  152.5435  134.0734  159.8257 H   0  0  0  0  0  0  0  0  0  0  0  0  # atno 6909 bound_to 6896
  145.6402  140.9313  143.1039 H   0  0  0  0  0  0  0  0  0  0  0  0  # atno 7974 bound_to 7965
  155.3843  140.3430  155.4248 H   0  0  0  0  0  0  0  0  0  0  0  0  # atno 8008 bound_to 7997
  156.1593  140.1595  156.8673 H   0  0  0  0  0  0  0  0  0  0  0  0  # atno 8009 bound_to 7997
  154.5124  140.0786  156.7998 H   0  0  0  0  0  0  0  0  0  0  0  0  # atno 8010 bound_to 7997
  139.4973  144.3791  151.9641 H   0  0  0  0  0  0  0  0  0  0  0  0  # atno 10167 bound_to 10162
  157.6559  131.0906  150.6395 H   0  0  0  0  0  0  0  0  0  0  0  0  # atno 10718 bound_to 10713
  153.2046  135.4410  155.0308 H   0  0  0  0  0  0  0  0  0  0  0  0  # atno 10763 bound_to 10752
  154.8166  135.3318  154.7160 H   0  0  0  0  0  0  0  0  0  0  0  0  # atno 10764 bound_to 10752
  153.7602  135.6992  153.4982 H   0  0  0  0  0  0  0  0  0  0  0  0  # atno 10765 bound_to 10752
  139.8986  134.8251  156.2513 H   0  0  0  0  0  0  0  0  0  0  0  0  # atno 11005 bound_to 11000
  144.7160  139.8196  143.7398 LP  0  0  0  0  0  0  0  0  0  0  0  0  # atno 17320 bound_to 7965
  146.1286  139.4317  143.0183 LP  0  0  0  0  0  0  0  0  0  0  0  0  # atno 17321 bound_to 7965
  140.3228  144.3408  150.6005 LP  0  0  0  0  0  0  0  0  0  0  0  0  # atno 17342 bound_to 10162
  140.5709  143.2181  151.7601 LP  0  0  0  0  0  0  0  0  0  0  0  0  # atno 17343 bound_to 10162
  156.6701  130.4537  149.5660 LP  0  0  0  0  0  0  0  0  0  0  0  0  # atno 17370 bound_to 10713
  156.2003  130.6616  151.1160 LP  0  0  0  0  0  0  0  0  0  0  0  0  # atno 17371 bound_to 10713
  141.0222  133.7035  156.1287 LP  0  0  0  0  0  0  0  0  0  0  0  0  # atno 17394 bound_to 11000
  140.7218  134.4350  157.5574 LP  0  0  0  0  0  0  0  0  0  0  0  0  # atno 17395 bound_to 11000

$$$$
