AV-unprocessed.smi:521|AV-procd|sdf|2800|dock1
  -GOLD-   2262023273D 1   1.00000     0.00000
 Structure written by MMmdl.
 41 43  0  0  0  0  0  0  0  0  2 V2000
  152.1758  144.8598  160.1847 C   0  0  0  0  0  0  0  0  0  0  0  0
  151.9541  143.6816  159.4238 O   0  0  0  0  0  0  0  0  0  0  0  0
  152.6184  142.5296  159.7923 C   0  0  0  0  0  0  0  0  0  0  0  0
  153.5744  142.4756  160.8384 C   0  0  0  0  0  0  0  0  0  0  0  0
  154.2151  141.2653  161.1591 C   0  0  0  0  0  0  0  0  0  0  0  0
  153.9086  140.0970  160.4417 C   0  0  0  0  0  0  0  0  0  0  0  0
  152.9616  140.1383  159.4025 C   0  0  0  0  0  0  0  0  0  0  0  0
  152.3113  141.3535  159.0687 C   0  0  0  0  0  0  0  0  0  0  0  0
  151.3769  141.4684  158.0600 O   0  0  0  0  0  0  0  0  0  0  0  0
  151.0853  140.3234  157.2731 C   0  0  0  0  0  0  0  0  0  0  0  0
  151.3004  140.6828  155.7984 C   0  0  0  0  0  0  0  0  0  0  0  0
  150.3915  139.9391  154.9172 N   0  0  0  0  0  0  0  0  0  0  0  0
  150.4949  138.6780  154.4088 C   0  0  0  0  0  0  0  0  0  0  0  0
  151.6145  137.7149  154.6450 C   0  0  0  0  0  0  0  0  0  0  0  0
  151.3795  136.4379  154.0889 O   0  0  0  0  0  0  0  0  0  0  0  0
  149.3842  138.4607  153.6473 N   0  3  0  0  0  0  0  0  0  0  0  0
  148.5619  139.5878  153.6755 C   0  0  0  0  0  0  0  0  0  0  0  0
  147.3371  139.8390  153.0649 C   0  0  0  0  0  0  0  0  0  0  0  0
  146.7568  141.1015  153.3073 C   0  0  0  0  0  0  0  0  0  0  0  0
  147.3913  142.0561  154.1286 C   0  0  0  0  0  0  0  0  0  0  0  0
  148.6342  141.7907  154.7407 C   0  0  0  0  0  0  0  0  0  0  0  0
  149.2016  140.5409  154.4940 C   0  0  0  0  0  0  0  0  0  0  0  0
  151.5942  145.6772  159.7586 H   0  0  0  0  0  0  0  0  0  0  0  0
  153.2251  145.1571  160.1627 H   0  0  0  0  0  0  0  0  0  0  0  0
  151.8561  144.7327  161.2199 H   0  0  0  0  0  0  0  0  0  0  0  0
  153.8353  143.3516  161.4122 H   0  0  0  0  0  0  0  0  0  0  0  0
  154.9428  141.2341  161.9566 H   0  0  0  0  0  0  0  0  0  0  0  0
  154.4004  139.1674  160.6883 H   0  0  0  0  0  0  0  0  0  0  0  0
  152.7526  139.2203  158.8751 H   0  0  0  0  0  0  0  0  0  0  0  0
  151.7440  139.4977  157.5474 H   0  0  0  0  0  0  0  0  0  0  0  0
  150.0535  140.0075  157.4341 H   0  0  0  0  0  0  0  0  0  0  0  0
  151.1677  141.7516  155.6284 H   0  0  0  0  0  0  0  0  0  0  0  0
  152.3222  140.4464  155.4995 H   0  0  0  0  0  0  0  0  0  0  0  0
  152.5318  138.1232  154.2207 H   0  0  0  0  0  0  0  0  0  0  0  0
  151.7724  137.6071  155.7187 H   0  0  0  0  0  0  0  0  0  0  0  0
  151.3456  136.5225  153.1479 H   0  0  0  0  0  0  0  0  0  0  0  0
  146.8482  139.1084  152.4370 H   0  0  0  0  0  0  0  0  0  0  0  0
  145.8053  141.3417  152.8553 H   0  0  0  0  0  0  0  0  0  0  0  0
  146.9151  143.0120  154.2929 H   0  0  0  0  0  0  0  0  0  0  0  0
  149.1113  142.5278  155.3695 H   0  0  0  0  0  0  0  0  0  0  0  0
  149.2062  137.5970  153.1505 H   0  0  0  0  0  0  0  0  0  0  0  0
  1  2  1  0  0  0  0
  1 23  1  0  0  0  0
  1 24  1  0  0  0  0
  1 25  1  0  0  0  0
  2  3  1  0  0  0  0
  3  8  1  0  0  0  0
  3  4  2  0  0  0  0
  4  5  1  0  0  0  0
  4 26  1  0  0  0  0
  5  6  2  0  0  0  0
  5 27  1  0  0  0  0
  6  7  1  0  0  0  0
  6 28  1  0  0  0  0
  7  8  2  0  0  0  0
  7 29  1  0  0  0  0
  8  9  1  0  0  0  0
  9 10  1  0  0  0  0
 10 11  1  0  0  0  0
 10 30  1  0  0  0  0
 10 31  1  0  0  0  0
 11 12  1  0  0  0  0
 11 32  1  0  0  0  0
 11 33  1  0  0  0  0
 12 22  1  0  0  0  0
 12 13  1  0  0  0  0
 13 14  1  0  0  0  0
 13 16  2  0  0  0  0
 14 15  1  0  0  0  0
 14 34  1  0  0  0  0
 14 35  1  0  0  0  0
 15 36  1  0  0  0  0
 16 17  1  0  0  0  0
 16 41  1  0  0  0  0
 17 22  2  0  0  0  0
 17 18  1  0  0  0  0
 18 19  2  0  0  0  0
 18 37  1  0  0  0  0
 19 20  1  0  0  0  0
 19 38  1  0  0  0  0
 20 21  2  0  0  0  0
 20 39  1  0  0  0  0
 21 22  1  0  0  0  0
 21 40  1  0  0  0  0
M  CHG  1  16   1
M  END
> <s_m_source_file>
AV-unprocessed.smi

> <i_m_source_file_index>
521

> <i_lp_mmshare_version>
43012

> <i_f3d_flags>
0

> <s_epik_input>
W0NIM11PYzFbY0hdW2NIXVtjSF1bY0hdYzFPW0NIMl1bQ0gyXW4oYyhuMilbQ0gyXVtPSF0pYyhjMjMpW2NIXVtjSF1bY0hdW2NIXTM=

> <s_epik_cmdline>
J2VwaWtfcHl0aG9uJywgJy1waCcsICc3LjAnLCAnLXRuJywgJzgnLCAnLW1hJywgJzIwMCcsICctbWV0YWxfYmluZGluZycsICctaW1hZScsICc8aW5maWxlLm1hZT4nLCAnLW9tYWUnLCAnPG91dGZpbGUubWFlPic=

> <r_lp_tautomer_probability>
1

> <r_epik_Ionization_Penalty>
1.50718

> <r_epik_Ionization_Penalty_Charging>
1.50632

> <r_epik_Ionization_Penalty_Neutral>
0.000855784

> <r_epik_State_Penalty>
1.59697

> <r_epik_Charging_Adjusted_Penalty>
3.1033

> <i_epik_Tot_Q>
1

> <i_epik_Tot_abs_Q>
1

> <r_epik_Metal_State_Penalty>
5.64835

> <b_epik_Metal_Only>
0

> <s_lp_Force_Field>
OPLS_2005

> <r_lp_Energy>
22.6327

> <b_lp_Chiralities_Consistent>
1

> <s_lp_Variant>
AV-unprocessed.smi:521-2

> <Gold.Version>
5.8.1

> <Gold.Id.Protein>
6NUR|6NUR_protein|mol2

> <Gold.PLP.Fitness>
62.2492

> <Gold.PLP.PLP>
-52.0086

> <Gold.PLP.part.hbond>
-4.2137

> <Gold.PLP.part.metal>
0.0000

> <Gold.PLP.part.buried>
0.4074

> <Gold.PLP.part.nonpolar>
-48.1619

> <Gold.PLP.part.repulsive>
0.0920

> <Gold.PLP.ligand.clash>
0.0000

> <Gold.PLP.ligand.torsion>
0.9580

> <Gold.PLP.Chemscore.Hbond>
4.0000

> <Gold.PLP.Chemscore.CHOScore>
0.0000

> <Gold.PLP.Chemscore.Metal>
0.0000

> <Gold.Chemscore.Hbonds>
donor molecule, donor type, donor heavy atom, donor atom, acceptor molecule, acceptor atom, score
      L1  H    15    36       P1  7949  1.00
      L1  H    16    41       P1  7948  2.00
      P1  H 10752 10763       L1    15  1.00

> <Gold.PLP.Chemscore.Internal.Correction>
0.1566

> <Gold.Rescore>
     Score         DG    S(hbond)    S(metal)    S(lipo)     H(rot)  DE(clash)    DE(int)     intcor
     20.65     -22.79       2.55        0.00     130.85       2.54       1.23       0.91       ----

> <Gold.Chemscore.Fitness>
20.6450

> <Gold.Chemscore.DG>
-22.7893

> <Gold.Chemscore.ZeroCoef>
-5.4800

> <Gold.Chemscore.Hbond>
2.5481

> <Gold.Chemscore.Metal>
0.0000

> <Gold.Chemscore.Lipo>
130.8463

> <Gold.Chemscore.Internal_Hbond>
0.0000

> <Gold.Chemscore.DEClash>
1.2333

> <Gold.Chemscore.DEInternal>
0.9110

> <Gold.Chemscore.Rot>
2.5431

> <Gold.Chemscore.Internal.Correction>
   9.000000E+99

> <Gold.Chemscore.Hbonds>
donor molecule, donor type, donor heavy atom, donor atom, acceptor molecule, acceptor atom, score
      L1  H    15    36       P1  7949  0.73
      L1  H    16    41       P1  7948  0.99
      P1  H 10752 10763       L1    15  0.19

> <Gold.Chemscore.Hbond.Weighted>
-8.5106

> <Gold.Chemscore.Metal.Weighted>
-0.0000

> <Gold.Chemscore.Lipo.Weighted>
-15.3090

> <Gold.Chemscore.Internal_Hbond.Weighted>
0.0000

> <Gold.Chemscore.DEClash.Weighted>
1.2333

> <Gold.Chemscore.DEInternal.Weighted>
0.9110

> <Gold.Chemscore.Rot.Weighted>
6.5103

> <Gold.Chemscore.Internal.Correction.Weighted>
   9.000000E+99

> <Gold.Protein.RotatedTorsions>
[ 6907 6896 6895 6894 ] final -133.91 input  -60.11 | X-H torsion
[ 7974 7965 7964 7962 ] final  -24.83 input  175.53 | X-H torsion
[ 8008 7997 7996 7995 ] final  -70.48 input   59.86 | X-H torsion
[ 10167 10162 10161 10158 ] final   38.28 input  -65.29 | X-H torsion
[ 10718 10713 10712 10709 ] final   28.36 input   66.30 | X-H torsion
[ 10763 10752 10751 10750 ] final   56.46 input  -60.55 | X-H torsion
[ 11005 11000 10999 10996 ] final   83.49 input  -57.11 | X-H torsion

> <Gold.Protein.ActiveResidues>
 VAL166  LYS551  ARG553  GLY616  TRP617  ASP618  TYR619  PRO620  LYS621  CYS622 
 ASP623  PHE694  ASN695  SER759  ASP760  ASP761  ALA762  ILE779  LEU786  VAL792 
 PHE793  MET794  SER795  GLU796  ALA797  LYS798  CYS799  TRP800  GLU811  SER814 

> <Gold.Protein.RotatedAtoms>
  150.9796  133.6259  159.2724 H   0  0  0  0  0  0  0  0  0  0  0  0  # atno 6907 bound_to 6896
  151.3518  135.0885  159.9415 H   0  0  0  0  0  0  0  0  0  0  0  0  # atno 6908 bound_to 6896
  152.5211  133.9387  159.7670 H   0  0  0  0  0  0  0  0  0  0  0  0  # atno 6909 bound_to 6896
  146.1530  140.4805  142.8603 H   0  0  0  0  0  0  0  0  0  0  0  0  # atno 7974 bound_to 7965
  154.5015  140.0833  156.7808 H   0  0  0  0  0  0  0  0  0  0  0  0  # atno 8008 bound_to 7997
  155.3991  140.3436  155.4237 H   0  0  0  0  0  0  0  0  0  0  0  0  # atno 8009 bound_to 7997
  156.1463  140.1544  156.8830 H   0  0  0  0  0  0  0  0  0  0  0  0  # atno 8010 bound_to 7997
  140.3952  144.1799  150.6132 H   0  0  0  0  0  0  0  0  0  0  0  0  # atno 10167 bound_to 10162
  157.2324  130.7030  149.6319 H   0  0  0  0  0  0  0  0  0  0  0  0  # atno 10718 bound_to 10713
  152.9832  135.5675  154.5232 H   0  0  0  0  0  0  0  0  0  0  0  0  # atno 10763 bound_to 10752
  154.4716  135.2785  155.1640 H   0  0  0  0  0  0  0  0  0  0  0  0  # atno 10764 bound_to 10752
  154.3186  135.6273  153.5551 H   0  0  0  0  0  0  0  0  0  0  0  0  # atno 10765 bound_to 10752
  139.9029  134.8148  156.2317 H   0  0  0  0  0  0  0  0  0  0  0  0  # atno 11005 bound_to 11000
  144.7927  140.6063  143.6530 LP  0  0  0  0  0  0  0  0  0  0  0  0  # atno 17320 bound_to 7965
  145.4778  139.1498  143.3779 LP  0  0  0  0  0  0  0  0  0  0  0  0  # atno 17321 bound_to 7965
  140.4798  143.2383  151.8971 LP  0  0  0  0  0  0  0  0  0  0  0  0  # atno 17342 bound_to 10162
  139.4787  144.5281  151.8706 LP  0  0  0  0  0  0  0  0  0  0  0  0  # atno 17343 bound_to 10162
  155.9674  130.4484  150.5620 LP  0  0  0  0  0  0  0  0  0  0  0  0  # atno 17370 bound_to 10713
  157.3465  131.0726  151.1747 LP  0  0  0  0  0  0  0  0  0  0  0  0  # atno 17371 bound_to 10713
  141.0341  133.6972  156.1482 LP  0  0  0  0  0  0  0  0  0  0  0  0  # atno 17394 bound_to 11000
  140.7052  134.4520  157.5584 LP  0  0  0  0  0  0  0  0  0  0  0  0  # atno 17395 bound_to 11000

$$$$
