AV-unprocessed.smi:609|AV-procd|sdf|3049|dock6
  -GOLD-   2262023573D 1   1.00000     0.00000
 Structure written by MMmdl.
 44 46  0  0  0  0  0  0  0  0  3 V2000
  152.3465  144.3229  159.9918 C   0  0  0  0  0  0  0  0  0  0  0  0
  152.0338  143.2079  159.0082 C   0  0  0  0  0  0  0  0  0  0  0  0
  151.1663  143.4854  157.9276 C   0  0  0  0  0  0  0  0  0  0  0  0
  150.9026  142.4462  157.0432 C   0  0  0  0  0  0  0  0  0  0  0  0
  150.1105  142.4005  155.8938 N   0  3  0  0  0  0  0  0  0  0  0  0
  150.1664  141.1520  155.3526 C   0  0  0  0  0  0  0  0  0  0  0  0
  150.9736  140.3969  156.1468 N   0  0  0  0  0  0  0  0  0  0  0  0
  151.3747  138.9896  156.0226 C   0  0  0  0  0  0  0  0  0  0  0  0
  152.1091  138.6764  154.7026 C   0  0  2  0  0  0  0  0  0  0  0  0
  151.8150  137.3399  154.3530 O   0  0  0  0  0  0  0  0  0  0  0  0
  153.6360  138.8582  154.7834 C   0  0  0  0  0  0  0  0  0  0  0  0
  154.5029  137.9624  153.4639 S   0  0  0  0  0  0  0  0  0  0  0  0
  156.1772  137.8351  154.0098 C   0  0  0  0  0  0  0  0  0  0  0  0
  156.5546  137.3686  155.2028 N   0  3  0  0  0  0  0  0  0  0  0  0
  157.9191  137.4051  155.3060 C   0  0  0  0  0  0  0  0  0  0  0  0
  158.3871  137.9097  154.1187 C   0  0  0  0  0  0  0  0  0  0  0  0
  157.2901  138.1618  153.3342 N   0  0  0  0  0  0  0  0  0  0  0  0
  157.3006  138.6972  151.9707 C   0  0  0  0  0  0  0  0  0  0  0  0
  151.4644  141.1653  157.2072 C   0  0  0  0  0  0  0  0  0  0  0  0
  152.3215  140.8748  158.2653 C   0  0  0  0  0  0  0  0  0  0  0  0
  152.6054  141.9195  159.1737 C   0  0  0  0  0  0  0  0  0  0  0  0
  153.5409  141.6339  160.3362 C   0  0  0  0  0  0  0  0  0  0  0  0
  151.8144  145.2401  159.7381 H   0  0  0  0  0  0  0  0  0  0  0  0
  153.4138  144.5457  159.9897 H   0  0  0  0  0  0  0  0  0  0  0  0
  152.0536  144.0370  161.0022 H   0  0  0  0  0  0  0  0  0  0  0  0
  150.7302  144.4645  157.7936 H   0  0  0  0  0  0  0  0  0  0  0  0
  149.6600  140.8205  154.4574 H   0  0  0  0  0  0  0  0  0  0  0  0
  152.0178  138.7614  156.8740 H   0  0  0  0  0  0  0  0  0  0  0  0
  150.4839  138.3691  156.1322 H   0  0  0  0  0  0  0  0  0  0  0  0
  151.7180  139.3185  153.9129 H   0  0  0  0  0  0  0  0  0  0  0  0
  151.1209  137.0274  154.9134 H   0  0  0  0  0  0  0  0  0  0  0  0
  153.8937  139.9120  154.6943 H   0  0  0  0  0  0  0  0  0  0  0  0
  154.0119  138.5202  155.7499 H   0  0  0  0  0  0  0  0  0  0  0  0
  158.4420  137.0763  156.1923 H   0  0  0  0  0  0  0  0  0  0  0  0
  159.3963  138.0997  153.7819 H   0  0  0  0  0  0  0  0  0  0  0  0
  158.2636  138.4822  151.5068 H   0  0  0  0  0  0  0  0  0  0  0  0
  157.1522  139.7763  152.0082 H   0  0  0  0  0  0  0  0  0  0  0  0
  156.5115  138.2322  151.3792 H   0  0  0  0  0  0  0  0  0  0  0  0
  152.7572  139.8943  158.3898 H   0  0  0  0  0  0  0  0  0  0  0  0
  153.9264  140.6145  160.2972 H   0  0  0  0  0  0  0  0  0  0  0  0
  153.0198  141.7578  161.2858 H   0  0  0  0  0  0  0  0  0  0  0  0
  154.3946  142.3117  160.3177 H   0  0  0  0  0  0  0  0  0  0  0  0
  155.9221  137.0400  155.9217 H   0  0  0  0  0  0  0  0  0  0  0  0
  149.5769  143.1657  155.5012 H   0  0  0  0  0  0  0  0  0  0  0  0
  1  2  1  0  0  0  0
  1 23  1  0  0  0  0
  1 24  1  0  0  0  0
  1 25  1  0  0  0  0
  2 21  1  0  0  0  0
  2  3  2  0  0  0  0
  3  4  1  0  0  0  0
  3 26  1  0  0  0  0
  4 19  2  0  0  0  0
  4  5  1  0  0  0  0
  5  6  2  0  0  0  0
  5 44  1  0  0  0  0
  6  7  1  0  0  0  0
  6 27  1  0  0  0  0
  7  8  1  0  0  0  0
  7 19  1  0  0  0  0
  8  9  1  0  0  0  0
  8 28  1  0  0  0  0
  8 29  1  0  0  0  0
  9 10  1  0  0  0  0
  9 11  1  0  0  0  0
  9 30  1  0  0  0  0
 10 31  1  0  0  0  0
 11 12  1  0  0  0  0
 11 32  1  0  0  0  0
 11 33  1  0  0  0  0
 12 13  1  0  0  0  0
 13 17  1  0  0  0  0
 13 14  2  0  0  0  0
 14 15  1  0  0  0  0
 14 43  1  0  0  0  0
 15 16  2  0  0  0  0
 15 34  1  0  0  0  0
 16 17  1  0  0  0  0
 16 35  1  0  0  0  0
 17 18  1  0  0  0  0
 18 36  1  0  0  0  0
 18 37  1  0  0  0  0
 18 38  1  0  0  0  0
 19 20  1  0  0  0  0
 20 21  2  0  0  0  0
 20 39  1  0  0  0  0
 21 22  1  0  0  0  0
 22 40  1  0  0  0  0
 22 41  1  0  0  0  0
 22 42  1  0  0  0  0
M  CHG  1   5   1
M  CHG  1  14   1
M  END
> <s_m_source_file>
AV-unprocessed.smi

> <i_m_source_file_index>
609

> <i_lp_mmshare_version>
43012

> <i_f3d_flags>
0

> <s_epik_input>
W0NIM11jKFtjSF0xKWMoW0NIM10pW2NIXWMoYzEyKW4oW2NIXW4yKVtDSDJdW0NASF0oW09IXSlbQ0gyXVNjM25bY0hdW2NIXW4zW0NIM10=

> <s_epik_cmdline>
J2VwaWtfcHl0aG9uJywgJy1waCcsICc3LjAnLCAnLXRuJywgJzgnLCAnLW1hJywgJzIwMCcsICctbWV0YWxfYmluZGluZycsICctaW1hZScsICc8aW5maWxlLm1hZT4nLCAnLW9tYWUnLCAnPG91dGZpbGUubWFlPic=

> <r_lp_tautomer_probability>
1

> <r_epik_Ionization_Penalty>
1.19058

> <r_epik_Ionization_Penalty_Charging>
1.07615

> <r_epik_Ionization_Penalty_Neutral>
0.114429

> <r_epik_State_Penalty>
1.23473

> <r_epik_Charging_Adjusted_Penalty>
2.31088

> <i_epik_Tot_Q>
2

> <i_epik_Tot_abs_Q>
2

> <r_epik_Metal_State_Penalty>
4.63867

> <b_epik_Metal_Only>
0

> <s_lp_Force_Field>
OPLS_2005

> <r_lp_Energy>
20.2349

> <b_lp_Chiralities_Consistent>
1

> <s_lp_Variant>
AV-unprocessed.smi:609-5

> <Gold.Version>
5.8.1

> <Gold.Id.Protein>
6NUR|6NUR_protein|mol2

> <Gold.PLP.Fitness>
53.7296

> <Gold.PLP.PLP>
-46.1566

> <Gold.PLP.part.hbond>
-2.3406

> <Gold.PLP.part.metal>
0.0000

> <Gold.PLP.part.buried>
-0.9552

> <Gold.PLP.part.nonpolar>
-44.4460

> <Gold.PLP.part.repulsive>
0.3030

> <Gold.PLP.ligand.clash>
0.0000

> <Gold.PLP.ligand.torsion>
0.7208

> <Gold.PLP.Chemscore.Hbond>
2.9920

> <Gold.PLP.Chemscore.CHOScore>
0.0000

> <Gold.PLP.Chemscore.Metal>
0.0000

> <Gold.Chemscore.Hbonds>
donor molecule, donor type, donor heavy atom, donor atom, acceptor molecule, acceptor atom, score
      L1  H     5    44       P1  8028  2.00
      P1  H 10752 10763       L1    10  0.98

> <Gold.PLP.Chemscore.Internal.Correction>
0.0387

> <Gold.Rescore>
     Score         DG    S(hbond)    S(metal)    S(lipo)     H(rot)  DE(clash)    DE(int)     intcor
     17.30     -21.74       1.75        0.00     145.46       2.59       3.83       0.60       ----

> <Gold.Chemscore.Fitness>
17.3026

> <Gold.Chemscore.DG>
-21.7350

> <Gold.Chemscore.ZeroCoef>
-5.4800

> <Gold.Chemscore.Hbond>
1.7536

> <Gold.Chemscore.Metal>
0.0000

> <Gold.Chemscore.Lipo>
145.4617

> <Gold.Chemscore.Internal_Hbond>
0.0000

> <Gold.Chemscore.DEClash>
3.8308

> <Gold.Chemscore.DEInternal>
0.6015

> <Gold.Chemscore.Rot>
2.5863

> <Gold.Chemscore.Internal.Correction>
   9.000000E+99

> <Gold.Chemscore.Hbonds>
donor molecule, donor type, donor heavy atom, donor atom, acceptor molecule, acceptor atom, score
      L1  H     5    44       P1  8028  0.95
      P1  H 10752 10763       L1    10  0.30

> <Gold.Chemscore.Hbond.Weighted>
-5.8570

> <Gold.Chemscore.Metal.Weighted>
-0.0000

> <Gold.Chemscore.Lipo.Weighted>
-17.0190

> <Gold.Chemscore.Internal_Hbond.Weighted>
0.0000

> <Gold.Chemscore.DEClash.Weighted>
3.8308

> <Gold.Chemscore.DEInternal.Weighted>
0.6015

> <Gold.Chemscore.Rot.Weighted>
6.6210

> <Gold.Chemscore.Internal.Correction.Weighted>
   9.000000E+99

> <Gold.Protein.RotatedTorsions>
[ 6907 6896 6895 6894 ] final -120.09 input  -60.11 | X-H torsion
[ 7974 7965 7964 7962 ] final   15.71 input  175.53 | X-H torsion
[ 8008 7997 7996 7995 ] final   95.03 input   59.86 | X-H torsion
[ 10167 10162 10161 10158 ] final   20.61 input  -65.29 | X-H torsion
[ 10718 10713 10712 10709 ] final   98.27 input   66.30 | X-H torsion
[ 10763 10752 10751 10750 ] final   33.29 input  -60.55 | X-H torsion
[ 11005 11000 10999 10996 ] final  -97.57 input  -57.11 | X-H torsion

> <Gold.Protein.ActiveResidues>
 VAL166  LYS551  ARG553  GLY616  TRP617  ASP618  TYR619  PRO620  LYS621  CYS622 
 ASP623  PHE694  ASN695  SER759  ASP760  ASP761  ALA762  ILE779  LEU786  VAL792 
 PHE793  MET794  SER795  GLU796  ALA797  LYS798  CYS799  TRP800  GLU811  SER814 

> <Gold.Protein.RotatedAtoms>
  150.8362  133.8009  159.3078 H   0  0  0  0  0  0  0  0  0  0  0  0  # atno 6907 bound_to 6896
  151.5724  135.1060  160.0008 H   0  0  0  0  0  0  0  0  0  0  0  0  # atno 6908 bound_to 6896
  152.4434  133.7449  159.6718 H   0  0  0  0  0  0  0  0  0  0  0  0  # atno 6909 bound_to 6896
  146.2270  139.8854  142.8563 H   0  0  0  0  0  0  0  0  0  0  0  0  # atno 7974 bound_to 7965
  156.0644  140.3292  155.7500 H   0  0  0  0  0  0  0  0  0  0  0  0  # atno 8008 bound_to 7997
  155.5404  140.0601  157.2888 H   0  0  0  0  0  0  0  0  0  0  0  0  # atno 8009 bound_to 7997
  154.4497  140.1912  156.0574 H   0  0  0  0  0  0  0  0  0  0  0  0  # atno 8010 bound_to 7997
  140.5490  143.9543  150.6566 H   0  0  0  0  0  0  0  0  0  0  0  0  # atno 10167 bound_to 10162
  157.6898  131.0635  150.4771 H   0  0  0  0  0  0  0  0  0  0  0  0  # atno 10718 bound_to 10713
  153.0219  135.6391  154.1488 H   0  0  0  0  0  0  0  0  0  0  0  0  # atno 10763 bound_to 10752
  154.1221  135.2846  155.3207 H   0  0  0  0  0  0  0  0  0  0  0  0  # atno 10764 bound_to 10752
  154.6256  135.5510  153.7685 H   0  0  0  0  0  0  0  0  0  0  0  0  # atno 10765 bound_to 10752
  141.1374  133.8181  157.0724 H   0  0  0  0  0  0  0  0  0  0  0  0  # atno 11005 bound_to 11000
  145.2471  141.0030  143.3903 LP  0  0  0  0  0  0  0  0  0  0  0  0  # atno 17320 bound_to 7965
  144.9405  139.4195  143.6451 LP  0  0  0  0  0  0  0  0  0  0  0  0  # atno 17321 bound_to 7965
  140.2963  143.3290  152.1014 LP  0  0  0  0  0  0  0  0  0  0  0  0  # atno 17342 bound_to 10162
  139.5019  144.6724  151.6210 LP  0  0  0  0  0  0  0  0  0  0  0  0  # atno 17343 bound_to 10162
  156.5105  130.4138  149.6304 LP  0  0  0  0  0  0  0  0  0  0  0  0  # atno 17370 bound_to 10713
  156.3245  130.7298  151.2216 LP  0  0  0  0  0  0  0  0  0  0  0  0  # atno 17371 bound_to 10713
  140.0503  134.9809  157.1123 LP  0  0  0  0  0  0  0  0  0  0  0  0  # atno 17394 bound_to 11000
  140.4000  134.2092  155.7164 LP  0  0  0  0  0  0  0  0  0  0  0  0  # atno 17395 bound_to 11000

$$$$
