AV-unprocessed.smi:72|AV-procd|sdf|669|dock8
  -GOLD-   2262016573D 1   1.00000     0.00000
 Structure written by MMmdl.
 29 30  0  0  0  0  0  0  0  0  1 V2000
  150.4546  142.3015  155.6672 N   0  0  0  0  0  0  0  0  0  0  0  0
  149.5907  141.6348  154.9882 C   0  0  0  0  0  0  0  0  0  0  0  0
  149.8361  140.4162  154.3385 N   0  0  0  0  0  0  0  0  0  0  0  0
  148.8740  139.8627  153.6669 C   0  0  0  0  0  0  0  0  0  0  0  0
  147.5565  140.4757  153.5443 N   0  0  0  0  0  0  0  0  0  0  0  0
  146.4135  139.8236  152.7810 C   0  0  2  0  0  0  0  0  0  0  0  0
  145.3652  139.5089  153.6481 O   0  0  0  0  0  0  0  0  0  0  0  0
  145.4965  138.1623  154.0857 C   0  0  1  0  0  0  0  0  0  0  0  0
  144.1518  137.6549  154.6265 C   0  0  0  0  0  0  0  0  0  0  0  0
  143.1502  137.8086  153.6436 O   0  0  0  0  0  0  0  0  0  0  0  0
  145.9532  137.4573  152.8077 C   0  0  2  0  0  0  0  0  0  0  0  0
  146.6835  136.2891  153.1249 O   0  0  0  0  0  0  0  0  0  0  0  0
  146.8544  138.4906  152.1342 C   0  0  1  0  0  0  0  0  0  0  0  0
  146.6359  138.4924  150.7385 O   0  0  0  0  0  0  0  0  0  0  0  0
  147.2800  141.6761  154.2457 C   0  0  0  0  0  0  0  0  0  0  0  0
  146.1678  142.2036  154.2363 O   0  0  0  0  0  0  0  0  0  0  0  0
  148.3160  142.2115  154.9263 N   0  0  0  0  0  0  0  0  0  0  0  0
  146.0882  140.5857  152.0702 H   0  0  0  0  0  0  0  0  0  0  0  0
  146.2769  138.0898  154.8459 H   0  0  0  0  0  0  0  0  0  0  0  0
  145.0931  137.2149  152.1809 H   0  0  0  0  0  0  0  0  0  0  0  0
  147.9074  138.2970  152.3460 H   0  0  0  0  0  0  0  0  0  0  0  0
  150.0400  143.1425  156.0406 H   0  0  0  0  0  0  0  0  0  0  0  0
  149.0004  138.9063  153.1596 H   0  0  0  0  0  0  0  0  0  0  0  0
  144.2178  136.6142  154.9446 H   0  0  0  0  0  0  0  0  0  0  0  0
  143.8513  138.2419  155.4948 H   0  0  0  0  0  0  0  0  0  0  0  0
  143.1575  138.7048  153.3445 H   0  0  0  0  0  0  0  0  0  0  0  0
  147.5751  136.4077  152.8347 H   0  0  0  0  0  0  0  0  0  0  0  0
  145.7195  138.6641  150.5812 H   0  0  0  0  0  0  0  0  0  0  0  0
  148.1495  143.0738  155.4241 H   0  0  0  0  0  0  0  0  0  0  0  0
  1  2  2  0  0  0  0
  1 22  1  0  0  0  0
  2 17  1  0  0  0  0
  2  3  1  0  0  0  0
  3  4  2  0  0  0  0
  4  5  1  0  0  0  0
  4 23  1  0  0  0  0
  5  6  1  0  0  0  0
  5 15  1  0  0  0  0
  6 18  1  0  0  0  0
  6 13  1  0  0  0  0
  6  7  1  0  0  0  0
  7  8  1  0  0  0  0
  8 19  1  0  0  0  0
  8  9  1  0  0  0  0
  8 11  1  0  0  0  0
  9 10  1  0  0  0  0
  9 24  1  0  0  0  0
  9 25  1  0  0  0  0
 10 26  1  0  0  0  0
 11 20  1  0  0  0  0
 11 12  1  0  0  0  0
 11 13  1  0  0  0  0
 12 27  1  0  0  0  0
 13 21  1  0  0  0  0
 13 14  1  0  0  0  0
 14 28  1  0  0  0  0
 15 16  2  0  0  0  0
 15 17  1  0  0  0  0
 17 29  1  0  0  0  0
M  END
> <s_m_source_file>
AV-unprocessed.smi

> <i_m_source_file_index>
72

> <i_lp_mmshare_version>
43012

> <i_f3d_flags>
0

> <s_epik_input>
W05IMl1jMW5bY0hdbihjKD1PKW4xKVtDQEBIXTJPW0NASF0oW0NIMl1bT0hdKVtDQEBIXShbT0hdKVtDQEhdMltPSF0=

> <s_epik_cmdline>
J2VwaWtfcHl0aG9uJywgJy1waCcsICc3LjAnLCAnLXRuJywgJzgnLCAnLW1hJywgJzIwMCcsICctbWV0YWxfYmluZGluZycsICctaW1hZScsICc8aW5maWxlLm1hZT4nLCAnLW9tYWUnLCAnPG91dGZpbGUubWFlPic=

> <r_lp_tautomer_probability>
7.17554e-07

> <r_epik_Ionization_Penalty>
0.0066451

> <r_epik_Ionization_Penalty_Charging>
0.00663793

> <r_epik_Ionization_Penalty_Neutral>
7.17052e-06

> <r_epik_State_Penalty>
0.419231

> <r_epik_Charging_Adjusted_Penalty>
0.425868

> <i_epik_Tot_Q>
0

> <i_epik_Tot_abs_Q>
0

> <r_epik_Metal_State_Penalty>
1.44144

> <b_epik_Metal_Only>
0

> <s_epik_Chemistry_Notes>
This compound contains an acetal/aminal-like group ( X-CH(R)-Y where X, Y are N, S, or O) that may be acid/base labile, releasing an aldehyde.

> <s_lp_Force_Field>
OPLS_2005

> <r_lp_Energy>
35.5906

> <b_lp_Chiralities_Consistent>
1

> <s_lp_Variant>
AV-unprocessed.smi:72-7

> <Gold.Version>
5.8.1

> <Gold.Id.Protein>
6NUR|6NUR_protein|mol2

> <Gold.PLP.Fitness>
36.7662

> <Gold.PLP.PLP>
-16.6665

> <Gold.PLP.part.hbond>
-7.2038

> <Gold.PLP.part.metal>
0.0000

> <Gold.PLP.part.buried>
4.7554

> <Gold.PLP.part.nonpolar>
-20.0254

> <Gold.PLP.part.repulsive>
6.0155

> <Gold.PLP.ligand.clash>
0.0000

> <Gold.PLP.ligand.torsion>
0.0221

> <Gold.PLP.Chemscore.Hbond>
6.4745

> <Gold.PLP.Chemscore.CHOScore>
0.2263

> <Gold.PLP.Chemscore.Metal>
0.0000

> <Gold.Chemscore.Hbonds>
donor molecule, donor type, donor heavy atom, donor atom, acceptor molecule, acceptor atom, score
      L1  H     1    22       P1  8028  0.91
      L1  H    10    26       P1 10175  1.00
      L1  H    12    27       P1  7948  1.00
      L1  H    14    28       P1 10171  1.00
      L1  H    17    29       P1  8028  0.82
      P1  H  7954  7966       L1    14  0.93
      P1  H  7989  7998       L1     3  0.75
      L1  C     4    23       P1  7957  0.22

> <Gold.PLP.Chemscore.Internal.Correction>
0.0414

> <Gold.Rescore>
     Score         DG    S(hbond)    S(metal)    S(lipo)     H(rot)  DE(clash)    DE(int)     intcor
     10.21     -16.15       5.70        0.00      17.37       4.06       4.80       1.13       ----

> <Gold.Chemscore.Fitness>
10.2150

> <Gold.Chemscore.DG>
-16.1473

> <Gold.Chemscore.ZeroCoef>
-5.4800

> <Gold.Chemscore.Hbond>
5.6972

> <Gold.Chemscore.Metal>
0.0000

> <Gold.Chemscore.Lipo>
17.3706

> <Gold.Chemscore.Internal_Hbond>
0.0000

> <Gold.Chemscore.DEClash>
4.8048

> <Gold.Chemscore.DEInternal>
1.1276

> <Gold.Chemscore.Rot>
4.0600

> <Gold.Chemscore.Internal.Correction>
   9.000000E+99

> <Gold.Chemscore.Hbonds>
donor molecule, donor type, donor heavy atom, donor atom, acceptor molecule, acceptor atom, score
      L1  H     1    22       P1  8028  0.87
      L1  H    10    26       P1 10175  0.97
      L1  H    12    27       P1  7948  0.99
      L1  H    14    28       P1 10171  0.97
      L1  H    17    29       P1  8028  0.75
      P1  H  7954  7966       L1    14  0.63
      P1  H  7989  7998       L1     3  0.14

> <Gold.Chemscore.Hbond.Weighted>
-19.0285

> <Gold.Chemscore.Metal.Weighted>
-0.0000

> <Gold.Chemscore.Lipo.Weighted>
-2.0324

> <Gold.Chemscore.Internal_Hbond.Weighted>
0.0000

> <Gold.Chemscore.DEClash.Weighted>
4.8048

> <Gold.Chemscore.DEInternal.Weighted>
1.1276

> <Gold.Chemscore.Rot.Weighted>
10.3936

> <Gold.Chemscore.Internal.Correction.Weighted>
   9.000000E+99

> <Gold.Protein.RotatedTorsions>
[ 6907 6896 6895 6894 ] final  128.25 input  -60.11 | X-H torsion
[ 7974 7965 7964 7962 ] final  118.16 input  175.53 | X-H torsion
[ 8008 7997 7996 7995 ] final   -8.06 input   59.86 | X-H torsion
[ 10167 10162 10161 10158 ] final    5.99 input  -65.29 | X-H torsion
[ 10718 10713 10712 10709 ] final  -93.89 input   66.30 | X-H torsion
[ 10763 10752 10751 10750 ] final -144.87 input  -60.55 | X-H torsion
[ 11005 11000 10999 10996 ] final  113.53 input  -57.11 | X-H torsion

> <Gold.Protein.ActiveResidues>
 VAL166  LYS551  ARG553  GLY616  TRP617  ASP618  TYR619  PRO620  LYS621  CYS622 
 ASP623  PHE694  ASN695  SER759  ASP760  ASP761  ALA762  ILE779  LEU786  VAL792 
 PHE793  MET794  SER795  GLU796  ALA797  LYS798  CYS799  TRP800  GLU811  SER814 

> <Gold.Protein.RotatedAtoms>
  152.3737  133.6452  159.6106 H   0  0  0  0  0  0  0  0  0  0  0  0  # atno 6907 bound_to 6896
  150.7687  133.9229  159.3412 H   0  0  0  0  0  0  0  0  0  0  0  0  # atno 6908 bound_to 6896
  151.7047  135.0925  160.0308 H   0  0  0  0  0  0  0  0  0  0  0  0  # atno 6909 bound_to 6896
  145.1586  139.3168  143.4529 H   0  0  0  0  0  0  0  0  0  0  0  0  # atno 7974 bound_to 7965
  154.5778  140.2391  155.8098 H   0  0  0  0  0  0  0  0  0  0  0  0  # atno 8008 bound_to 7997
  156.2156  140.3013  155.9789 H   0  0  0  0  0  0  0  0  0  0  0  0  # atno 8009 bound_to 7997
  155.2596  140.0414  157.2986 H   0  0  0  0  0  0  0  0  0  0  0  0  # atno 8010 bound_to 7997
  140.6452  143.7679  150.7488 H   0  0  0  0  0  0  0  0  0  0  0  0  # atno 10167 bound_to 10162
  156.0019  130.5045  150.5844 H   0  0  0  0  0  0  0  0  0  0  0  0  # atno 10718 bound_to 10713
  154.8409  135.3428  154.6414 H   0  0  0  0  0  0  0  0  0  0  0  0  # atno 10763 bound_to 10752
  153.7025  135.6968  153.5064 H   0  0  0  0  0  0  0  0  0  0  0  0  # atno 10764 bound_to 10752
  153.2512  135.4353  155.0754 H   0  0  0  0  0  0  0  0  0  0  0  0  # atno 10765 bound_to 10752
  139.8955  134.9551  156.6752 H   0  0  0  0  0  0  0  0  0  0  0  0  # atno 11005 bound_to 11000
  146.3485  140.1687  142.8590 LP  0  0  0  0  0  0  0  0  0  0  0  0  # atno 17320 bound_to 7965
  145.0355  140.8905  143.5084 LP  0  0  0  0  0  0  0  0  0  0  0  0  # atno 17321 bound_to 7965
  140.1319  143.4518  152.2249 LP  0  0  0  0  0  0  0  0  0  0  0  0  # atno 17342 bound_to 10162
  139.5662  144.7436  151.4015 LP  0  0  0  0  0  0  0  0  0  0  0  0  # atno 17343 bound_to 10162
  157.3719  131.0767  151.1550 LP  0  0  0  0  0  0  0  0  0  0  0  0  # atno 17370 bound_to 10713
  157.2301  130.6521  149.5846 LP  0  0  0  0  0  0  0  0  0  0  0  0  # atno 17371 bound_to 10713
  140.7342  133.9033  155.8232 LP  0  0  0  0  0  0  0  0  0  0  0  0  # atno 17394 bound_to 11000
  141.0129  134.0995  157.4202 LP  0  0  0  0  0  0  0  0  0  0  0  0  # atno 17395 bound_to 11000

$$$$
