AV-unprocessed.smi:788|AV-procd|sdf|3733|dock10
  -GOLD-   22720 1163D 1   1.00000     0.00000
 Structure written by MMmdl.
 35 36  0  0  0  0  0  0  0  0  1 V2000
  151.2593  144.4468  157.9054 C   0  0  0  0  0  0  0  0  0  0  0  0
  151.4838  143.6860  159.2250 C   0  0  2  0  0  0  0  0  0  0  0  0
  152.3197  144.5367  160.2001 C   0  0  0  0  0  0  0  0  0  0  0  0
  152.5379  143.8150  161.5360 C   0  0  0  0  0  0  0  0  0  0  0  0
  153.1998  142.4486  161.3184 C   0  0  0  0  0  0  0  0  0  0  0  0
  152.3788  141.5652  160.3598 C   0  0  2  0  0  0  0  0  0  0  0  0
  153.0557  140.1938  160.1813 C   0  0  0  0  0  0  0  0  0  0  0  0
  152.1367  142.2952  159.0127 C   0  0  1  0  0  0  0  0  0  0  0  0
  151.2869  141.4744  158.1488 N   0  0  0  0  0  0  0  0  0  0  0  0
  151.6713  140.3970  157.4432 C   0  0  0  0  0  0  0  0  0  0  0  0
  152.8240  139.9690  157.4510 O   0  0  0  0  0  0  0  0  0  0  0  0
  150.7171  139.7979  156.6992 N   0  0  0  0  0  0  0  0  0  0  0  0
  150.7559  138.6592  155.8428 C   0  0  0  0  0  0  0  0  0  0  0  0
  151.6816  138.4502  154.8921 N   0  0  0  0  0  0  0  0  0  0  0  0
  151.4668  137.2632  154.2046 N   0  0  0  0  0  0  0  0  0  0  0  0
  150.3836  136.6252  154.6561 C   0  0  0  0  0  0  0  0  0  0  0  0
  149.5197  137.4143  155.9635 S   0  0  0  0  0  0  0  0  0  0  0  0
  152.1973  144.5919  157.3692 H   0  0  0  0  0  0  0  0  0  0  0  0
  150.8260  145.4301  158.0895 H   0  0  0  0  0  0  0  0  0  0  0  0
  150.5758  143.9149  157.2435 H   0  0  0  0  0  0  0  0  0  0  0  0
  150.5042  143.5322  159.6809 H   0  0  0  0  0  0  0  0  0  0  0  0
  153.2860  144.7699  159.7505 H   0  0  0  0  0  0  0  0  0  0  0  0
  151.8257  145.4920  160.3812 H   0  0  0  0  0  0  0  0  0  0  0  0
  153.1574  144.4275  162.1916 H   0  0  0  0  0  0  0  0  0  0  0  0
  151.5819  143.6851  162.0453 H   0  0  0  0  0  0  0  0  0  0  0  0
  154.2050  142.5911  160.9191 H   0  0  0  0  0  0  0  0  0  0  0  0
  153.3187  141.9472  162.2795 H   0  0  0  0  0  0  0  0  0  0  0  0
  151.4081  141.3887  160.8264 H   0  0  0  0  0  0  0  0  0  0  0  0
  154.0164  140.2903  159.6744 H   0  0  0  0  0  0  0  0  0  0  0  0
  152.4380  139.5109  159.5978 H   0  0  0  0  0  0  0  0  0  0  0  0
  153.2354  139.7180  161.1455 H   0  0  0  0  0  0  0  0  0  0  0  0
  153.1082  142.4525  158.5402 H   0  0  0  0  0  0  0  0  0  0  0  0
  150.3179  141.7518  158.0807 H   0  0  0  0  0  0  0  0  0  0  0  0
  149.8100  140.2368  156.7610 H   0  0  0  0  0  0  0  0  0  0  0  0
  150.0892  135.6846  154.2146 H   0  0  0  0  0  0  0  0  0  0  0  0
  1  2  1  0  0  0  0
  1 18  1  0  0  0  0
  1 19  1  0  0  0  0
  1 20  1  0  0  0  0
  2  8  1  0  0  0  0
  2  3  1  0  0  0  0
  2 21  1  0  0  0  0
  3  4  1  0  0  0  0
  3 22  1  0  0  0  0
  3 23  1  0  0  0  0
  4  5  1  0  0  0  0
  4 24  1  0  0  0  0
  4 25  1  0  0  0  0
  5  6  1  0  0  0  0
  5 26  1  0  0  0  0
  5 27  1  0  0  0  0
  6  7  1  0  0  0  0
  6  8  1  0  0  0  0
  6 28  1  0  0  0  0
  7 29  1  0  0  0  0
  7 30  1  0  0  0  0
  7 31  1  0  0  0  0
  8  9  1  0  0  0  0
  8 32  1  0  0  0  0
  9 10  1  0  0  0  0
  9 33  1  0  0  0  0
 10 11  2  0  0  0  0
 10 12  1  0  0  0  0
 12 13  1  0  0  0  0
 12 34  1  0  0  0  0
 13 17  1  0  0  0  0
 13 14  2  0  0  0  0
 14 15  1  0  0  0  0
 15 16  2  0  0  0  0
 16 17  1  0  0  0  0
 16 35  1  0  0  0  0
M  END
> <s_m_source_file>
AV-unprocessed.smi

> <i_m_source_file_index>
788

> <i_lp_mmshare_version>
43012

> <i_f3d_flags>
0

> <s_epik_input>
W0NIM11bQ0BASF0xW0NIMl1bQ0gyXVtDSDJdW0NAQEhdKFtDSDNdKVtDQEhdMVtOSF1DKD1PKVtOSF1jMm5uW2NIXXMy

> <s_epik_cmdline>
J2VwaWtfcHl0aG9uJywgJy1waCcsICc3LjAnLCAnLXRuJywgJzgnLCAnLW1hJywgJzIwMCcsICctbWV0YWxfYmluZGluZycsICctaW1hZScsICc8aW5maWxlLm1hZT4nLCAnLW9tYWUnLCAnPG91dGZpbGUubWFlPic=

> <r_lp_tautomer_probability>
1

> <r_epik_Ionization_Penalty>
0.000304078

> <r_epik_Ionization_Penalty_Charging>
0

> <r_epik_Ionization_Penalty_Neutral>
0.000304078

> <r_epik_State_Penalty>
-0

> <r_epik_Charging_Adjusted_Penalty>
0

> <i_epik_Tot_Q>
0

> <i_epik_Tot_abs_Q>
0

> <r_epik_Metal_State_Penalty>
0.164801

> <b_epik_Metal_Only>
0

> <s_lp_Force_Field>
OPLS_2005

> <r_lp_Energy>
14.1502

> <b_lp_Chiralities_Consistent>
1

> <s_lp_Variant>
AV-unprocessed.smi:788-3

> <Gold.Version>
5.8.1

> <Gold.Id.Protein>
6NUR|6NUR_protein|mol2

> <Gold.PLP.Fitness>
34.8309

> <Gold.PLP.PLP>
-30.1975

> <Gold.PLP.part.hbond>
-2.0000

> <Gold.PLP.part.metal>
0.0000

> <Gold.PLP.part.buried>
-4.2309

> <Gold.PLP.part.nonpolar>
-25.1928

> <Gold.PLP.part.repulsive>
0.3461

> <Gold.PLP.ligand.clash>
0.0249

> <Gold.PLP.ligand.torsion>
0.6735

> <Gold.PLP.Chemscore.Hbond>
2.0000

> <Gold.PLP.Chemscore.CHOScore>
0.0000

> <Gold.PLP.Chemscore.Metal>
0.0000

> <Gold.Chemscore.Hbonds>
donor molecule, donor type, donor heavy atom, donor atom, acceptor molecule, acceptor atom, score
      P1  H  7997  8010       L1    11  1.00
      P1  H 10752 10765       L1    15  0.63
      L1  C    16    35       P1  7948  0.30

> <Gold.PLP.Chemscore.Internal.Correction>
0.0053

> <Gold.Rescore>
     Score         DG    S(hbond)    S(metal)    S(lipo)     H(rot)  DE(clash)    DE(int)     intcor
     16.16     -19.40       1.81        0.00      89.21       1.00       0.00       3.23       ----

> <Gold.Chemscore.Fitness>
16.1638

> <Gold.Chemscore.DG>
-19.4006

> <Gold.Chemscore.ZeroCoef>
-5.4800

> <Gold.Chemscore.Hbond>
1.8092

> <Gold.Chemscore.Metal>
0.0000

> <Gold.Chemscore.Lipo>
89.2134

> <Gold.Chemscore.Internal_Hbond>
0.0000

> <Gold.Chemscore.DEClash>
0.0038

> <Gold.Chemscore.DEInternal>
3.2331

> <Gold.Chemscore.Rot>
1.0000

> <Gold.Chemscore.Internal.Correction>
   9.000000E+99

> <Gold.Chemscore.Hbonds>
donor molecule, donor type, donor heavy atom, donor atom, acceptor molecule, acceptor atom, score
      P1  H  7997  8010       L1    11  0.98
      P1  H 10752 10765       L1    15  0.19

> <Gold.Chemscore.Hbond.Weighted>
-6.0427

> <Gold.Chemscore.Metal.Weighted>
-0.0000

> <Gold.Chemscore.Lipo.Weighted>
-10.4380

> <Gold.Chemscore.Internal_Hbond.Weighted>
0.0000

> <Gold.Chemscore.DEClash.Weighted>
0.0038

> <Gold.Chemscore.DEInternal.Weighted>
3.2331

> <Gold.Chemscore.Rot.Weighted>
2.5600

> <Gold.Chemscore.Internal.Correction.Weighted>
   9.000000E+99

> <Gold.Protein.RotatedTorsions>
[ 6907 6896 6895 6894 ] final  142.72 input  -60.11 | X-H torsion
[ 7974 7965 7964 7962 ] final  153.90 input  175.53 | X-H torsion
[ 8008 7997 7996 7995 ] final   61.62 input   59.86 | X-H torsion
[ 10167 10162 10161 10158 ] final   46.70 input  -65.29 | X-H torsion
[ 10718 10713 10712 10709 ] final   34.11 input   66.30 | X-H torsion
[ 10763 10752 10751 10750 ] final  162.34 input  -60.55 | X-H torsion
[ 11005 11000 10999 10996 ] final  -78.82 input  -57.11 | X-H torsion

> <Gold.Protein.ActiveResidues>
 VAL166  LYS551  ARG553  GLY616  TRP617  ASP618  TYR619  PRO620  LYS621  CYS622 
 ASP623  PHE694  ASN695  SER759  ASP760  ASP761  ALA762  ILE779  LEU786  VAL792 
 PHE793  MET794  SER795  GLU796  ALA797  LYS798  CYS799  TRP800  GLU811  SER814 

> <Gold.Protein.RotatedAtoms>
  152.2152  133.4941  159.5131 H   0  0  0  0  0  0  0  0  0  0  0  0  # atno 6907 bound_to 6896
  150.6999  134.1415  159.4116 H   0  0  0  0  0  0  0  0  0  0  0  0  # atno 6908 bound_to 6896
  151.9335  135.0245  160.0581 H   0  0  0  0  0  0  0  0  0  0  0  0  # atno 6909 bound_to 6896
  144.8124  139.6862  143.6136 H   0  0  0  0  0  0  0  0  0  0  0  0  # atno 7974 bound_to 7965
  155.6012  140.3494  155.4594 H   0  0  0  0  0  0  0  0  0  0  0  0  # atno 8008 bound_to 7997
  156.0227  140.1257  157.0365 H   0  0  0  0  0  0  0  0  0  0  0  0  # atno 8009 bound_to 7997
  154.4321  140.1059  156.5972 H   0  0  0  0  0  0  0  0  0  0  0  0  # atno 8010 bound_to 7997
  140.3112  144.2818  150.6199 H   0  0  0  0  0  0  0  0  0  0  0  0  # atno 10167 bound_to 10162
  157.3062  130.7376  149.6697 H   0  0  0  0  0  0  0  0  0  0  0  0  # atno 10718 bound_to 10713
  154.2769  135.2764  155.2714 H   0  0  0  0  0  0  0  0  0  0  0  0  # atno 10763 bound_to 10752
  154.5252  135.5745  153.6717 H   0  0  0  0  0  0  0  0  0  0  0  0  # atno 10764 bound_to 10752
  152.9935  135.6214  154.2926 H   0  0  0  0  0  0  0  0  0  0  0  0  # atno 10765 bound_to 10752
  141.1666  133.7079  156.8029 H   0  0  0  0  0  0  0  0  0  0  0  0  # atno 11005 bound_to 11000
  146.2424  139.6028  142.9483 LP  0  0  0  0  0  0  0  0  0  0  0  0  # atno 17320 bound_to 7965
  145.5293  141.0428  143.2391 LP  0  0  0  0  0  0  0  0  0  0  0  0  # atno 17321 bound_to 7965
  140.5567  143.2198  151.7836 LP  0  0  0  0  0  0  0  0  0  0  0  0  # atno 17342 bound_to 10162
  139.4893  144.4404  151.9770 LP  0  0  0  0  0  0  0  0  0  0  0  0  # atno 17343 bound_to 10162
  155.9674  130.4265  150.4701 LP  0  0  0  0  0  0  0  0  0  0  0  0  # atno 17370 bound_to 10713
  157.2691  131.0583  151.2271 LP  0  0  0  0  0  0  0  0  0  0  0  0  # atno 17371 bound_to 10713
  140.2243  134.8734  157.3410 LP  0  0  0  0  0  0  0  0  0  0  0  0  # atno 17394 bound_to 11000
  140.1956  134.4318  155.7691 LP  0  0  0  0  0  0  0  0  0  0  0  0  # atno 17395 bound_to 11000

$$$$
