AV-unprocessed.smi:2219|AV-procd|sdf|8977|dock3
  -GOLD-   2272012193D 1   1.00000     0.00000
 Structure written by MMmdl.
 37 38  0  0  0  0  0  0  0  0  1 V2000
  145.0732  137.2094  153.7676 O   0  0  0  0  0  0  0  0  0  0  0  0
  146.1649  137.1163  153.2059 C   0  0  0  0  0  0  0  0  0  0  0  0
  147.1811  137.9662  153.4148 N   0  0  0  0  0  0  0  0  0  0  0  0
  147.1670  139.1086  154.3277 C   0  0  0  0  0  0  0  0  0  0  0  0
  148.5335  139.8320  154.4248 C   0  0  0  0  0  0  0  0  0  0  0  0
  148.6786  140.5905  153.2370 O   0  0  0  0  0  0  0  0  0  0  0  0
  148.6418  140.7750  155.6506 C   0  0  0  0  0  0  0  0  0  0  0  0
  150.0458  141.3821  155.8237 C   0  0  0  0  0  0  0  0  0  0  0  0
  151.1275  140.2949  155.8731 C   0  0  0  0  0  0  0  0  0  0  0  0
  151.0681  139.4079  154.6223 C   0  0  0  0  0  0  0  0  0  0  0  0
  149.6721  138.7837  154.4479 C   0  0  0  0  0  0  0  0  0  0  0  0
  146.5002  136.1719  152.3093 N   0  0  0  0  0  0  0  0  0  0  0  0
  145.7058  135.0988  151.8243 C   0  0  0  0  0  0  0  0  0  0  0  0
  146.4323  133.9745  151.3699 C   0  0  0  0  0  0  0  0  0  0  0  0
  145.7375  132.8556  150.8700 C   0  0  0  0  0  0  0  0  0  0  0  0
  144.3324  132.8923  150.8371 C   0  0  0  0  0  0  0  0  0  0  0  0
  143.6213  131.8413  150.3647 F   0  0  0  0  0  0  0  0  0  0  0  0
  143.6849  134.0496  151.3072 C   0  0  0  0  0  0  0  0  0  0  0  0
  144.3496  135.1223  151.7873 N   0  0  0  0  0  0  0  0  0  0  0  0
  148.0364  137.8173  152.9000 H   0  0  0  0  0  0  0  0  0  0  0  0
  146.3962  139.8178  154.0214 H   0  0  0  0  0  0  0  0  0  0  0  0
  146.8598  138.7515  155.3115 H   0  0  0  0  0  0  0  0  0  0  0  0
  149.1094  140.0521  152.5908 H   0  0  0  0  0  0  0  0  0  0  0  0
  147.9146  141.5844  155.5800 H   0  0  0  0  0  0  0  0  0  0  0  0
  148.3879  140.2169  156.5528 H   0  0  0  0  0  0  0  0  0  0  0  0
  150.2550  142.0689  155.0027 H   0  0  0  0  0  0  0  0  0  0  0  0
  150.0794  141.9775  156.7364 H   0  0  0  0  0  0  0  0  0  0  0  0
  152.1132  140.7532  155.9590 H   0  0  0  0  0  0  0  0  0  0  0  0
  150.9914  139.6818  156.7650 H   0  0  0  0  0  0  0  0  0  0  0  0
  151.3254  139.9968  153.7412 H   0  0  0  0  0  0  0  0  0  0  0  0
  151.8185  138.6200  154.6928 H   0  0  0  0  0  0  0  0  0  0  0  0
  149.5016  138.0883  155.2710 H   0  0  0  0  0  0  0  0  0  0  0  0
  149.6512  138.1817  153.5384 H   0  0  0  0  0  0  0  0  0  0  0  0
  147.4347  136.2254  151.9323 H   0  0  0  0  0  0  0  0  0  0  0  0
  147.5121  133.9644  151.4025 H   0  0  0  0  0  0  0  0  0  0  0  0
  146.2738  131.9865  150.5188 H   0  0  0  0  0  0  0  0  0  0  0  0
  142.6073  134.1172  151.2979 H   0  0  0  0  0  0  0  0  0  0  0  0
  1  2  2  0  0  0  0
  2  3  1  0  0  0  0
  2 12  1  0  0  0  0
  3  4  1  0  0  0  0
  3 20  1  0  0  0  0
  4  5  1  0  0  0  0
  4 21  1  0  0  0  0
  4 22  1  0  0  0  0
  5 11  1  0  0  0  0
  5  6  1  0  0  0  0
  5  7  1  0  0  0  0
  6 23  1  0  0  0  0
  7  8  1  0  0  0  0
  7 24  1  0  0  0  0
  7 25  1  0  0  0  0
  8  9  1  0  0  0  0
  8 26  1  0  0  0  0
  8 27  1  0  0  0  0
  9 10  1  0  0  0  0
  9 28  1  0  0  0  0
  9 29  1  0  0  0  0
 10 11  1  0  0  0  0
 10 30  1  0  0  0  0
 10 31  1  0  0  0  0
 11 32  1  0  0  0  0
 11 33  1  0  0  0  0
 12 13  1  0  0  0  0
 12 34  1  0  0  0  0
 13 19  1  0  0  0  0
 13 14  2  0  0  0  0
 14 15  1  0  0  0  0
 14 35  1  0  0  0  0
 15 16  2  0  0  0  0
 15 36  1  0  0  0  0
 16 17  1  0  0  0  0
 16 18  1  0  0  0  0
 18 19  2  0  0  0  0
 18 37  1  0  0  0  0
M  END
> <s_m_source_file>
AV-unprocessed.smi

> <i_m_source_file_index>
2219

> <i_lp_mmshare_version>
43012

> <i_f3d_flags>
0

> <s_epik_input>
bjFbY0hdYyhGKVtjSF1bY0hdYzFbTkhdQyg9TylbTkhdW0NIMl1DMihbT0hdKVtDSDJdW0NIMl1bQ0gyXVtDSDJdW0NIMl0y

> <s_epik_cmdline>
J2VwaWtfcHl0aG9uJywgJy1waCcsICc3LjAnLCAnLXRuJywgJzgnLCAnLW1hJywgJzIwMCcsICctbWV0YWxfYmluZGluZycsICctaW1hZScsICc8aW5maWxlLm1hZT4nLCAnLW9tYWUnLCAnPG91dGZpbGUubWFlPic=

> <r_lp_tautomer_probability>
1

> <r_epik_Ionization_Penalty>
4.27965e-05

> <r_epik_Ionization_Penalty_Charging>
0

> <r_epik_Ionization_Penalty_Neutral>
4.27965e-05

> <r_epik_State_Penalty>
-0

> <r_epik_Charging_Adjusted_Penalty>
0

> <i_epik_Tot_Q>
0

> <i_epik_Tot_abs_Q>
0

> <r_epik_Metal_State_Penalty>
-0

> <b_epik_Metal_Only>
0

> <s_lp_Force_Field>
OPLS_2005

> <r_lp_Energy>
17.1775

> <b_lp_Chiralities_Consistent>
1

> <s_lp_Variant>
AV-unprocessed.smi:2219-1

> <Gold.Version>
5.8.1

> <Gold.Id.Protein>
6NUR|6NUR_protein|mol2

> <Gold.PLP.Fitness>
40.7334

> <Gold.PLP.PLP>
-30.9982

> <Gold.PLP.part.hbond>
-2.3608

> <Gold.PLP.part.metal>
0.0000

> <Gold.PLP.part.buried>
-3.2067

> <Gold.PLP.part.nonpolar>
-26.9417

> <Gold.PLP.part.repulsive>
0.2975

> <Gold.PLP.ligand.clash>
0.0000

> <Gold.PLP.ligand.torsion>
0.3614

> <Gold.PLP.Chemscore.Hbond>
2.5417

> <Gold.PLP.Chemscore.CHOScore>
0.9418

> <Gold.PLP.Chemscore.Metal>
0.0000

> <Gold.Chemscore.Hbonds>
donor molecule, donor type, donor heavy atom, donor atom, acceptor molecule, acceptor atom, score
      L1  H     3    20       P1  7948  0.64
      L1  H     6    23       P1  7957  0.83
      L1  H    12    34       P1  7948  0.91
      P1  H  8011  8017       L1     6  0.10
      L1  C    18    37       P1 10186  0.92

> <Gold.PLP.Chemscore.Internal.Correction>
0.0076

> <Gold.Rescore>
     Score         DG    S(hbond)    S(metal)    S(lipo)     H(rot)  DE(clash)    DE(int)     intcor
     15.44     -17.35       2.62        0.00      66.79       1.83       0.49       1.42       ----

> <Gold.Chemscore.Fitness>
15.4423

> <Gold.Chemscore.DG>
-17.3540

> <Gold.Chemscore.ZeroCoef>
-5.4800

> <Gold.Chemscore.Hbond>
2.6204

> <Gold.Chemscore.Metal>
0.0000

> <Gold.Chemscore.Lipo>
66.7941

> <Gold.Chemscore.Internal_Hbond>
0.0000

> <Gold.Chemscore.DEClash>
0.4911

> <Gold.Chemscore.DEInternal>
1.4205

> <Gold.Chemscore.Rot>
1.8332

> <Gold.Chemscore.Internal.Correction>
   9.000000E+99

> <Gold.Chemscore.Hbonds>
donor molecule, donor type, donor heavy atom, donor atom, acceptor molecule, acceptor atom, score
      L1  H     3    20       P1  7948  0.62
      L1  H     6    23       P1  7957  0.77
      L1  H    12    34       P1  7948  0.88

> <Gold.Chemscore.Hbond.Weighted>
-8.7521

> <Gold.Chemscore.Metal.Weighted>
-0.0000

> <Gold.Chemscore.Lipo.Weighted>
-7.8149

> <Gold.Chemscore.Internal_Hbond.Weighted>
0.0000

> <Gold.Chemscore.DEClash.Weighted>
0.4911

> <Gold.Chemscore.DEInternal.Weighted>
1.4205

> <Gold.Chemscore.Rot.Weighted>
4.6931

> <Gold.Chemscore.Internal.Correction.Weighted>
   9.000000E+99

> <Gold.Protein.RotatedTorsions>
[ 6907 6896 6895 6894 ] final  156.77 input  -60.11 | X-H torsion
[ 7974 7965 7964 7962 ] final   88.75 input  175.53 | X-H torsion
[ 8008 7997 7996 7995 ] final   31.90 input   59.86 | X-H torsion
[ 10167 10162 10161 10158 ] final   93.79 input  -65.29 | X-H torsion
[ 10718 10713 10712 10709 ] final -140.25 input   66.30 | X-H torsion
[ 10763 10752 10751 10750 ] final  169.22 input  -60.55 | X-H torsion
[ 11005 11000 10999 10996 ] final   22.11 input  -57.11 | X-H torsion

> <Gold.Protein.ActiveResidues>
 VAL166  LYS551  ARG553  GLY616  TRP617  ASP618  TYR619  PRO620  LYS621  CYS622 
 ASP623  PHE694  ASN695  SER759  ASP760  ASP761  ALA762  ILE779  LEU786  VAL792 
 PHE793  MET794  SER795  GLU796  ALA797  LYS798  CYS799  TRP800  GLU811  SER814 

> <Gold.Protein.RotatedAtoms>
  152.0249  133.3913  159.4273 H   0  0  0  0  0  0  0  0  0  0  0  0  # atno 6907 bound_to 6896
  150.6887  134.3585  159.4949 H   0  0  0  0  0  0  0  0  0  0  0  0  # atno 6908 bound_to 6896
  152.1364  134.9096  160.0607 H   0  0  0  0  0  0  0  0  0  0  0  0  # atno 6909 bound_to 6896
  145.5415  139.2289  143.2563 H   0  0  0  0  0  0  0  0  0  0  0  0  # atno 7974 bound_to 7965
  155.1139  140.3241  155.4514 H   0  0  0  0  0  0  0  0  0  0  0  0  # atno 8008 bound_to 7997
  156.2682  140.2039  156.6210 H   0  0  0  0  0  0  0  0  0  0  0  0  # atno 8009 bound_to 7997
  154.6735  140.0534  157.0178 H   0  0  0  0  0  0  0  0  0  0  0  0  # atno 8010 bound_to 7997
  139.8146  144.6758  150.9596 H   0  0  0  0  0  0  0  0  0  0  0  0  # atno 10167 bound_to 10162
  156.3201  130.7529  151.1625 H   0  0  0  0  0  0  0  0  0  0  0  0  # atno 10718 bound_to 10713
  154.3800  135.2753  155.2216 H   0  0  0  0  0  0  0  0  0  0  0  0  # atno 10763 bound_to 10752
  154.4327  135.5973  153.6082 H   0  0  0  0  0  0  0  0  0  0  0  0  # atno 10764 bound_to 10752
  152.9835  135.5999  154.4042 H   0  0  0  0  0  0  0  0  0  0  0  0  # atno 10765 bound_to 10752
  140.3842  134.1888  155.7663 H   0  0  0  0  0  0  0  0  0  0  0  0  # atno 11005 bound_to 11000
  146.1978  140.6235  142.9116 LP  0  0  0  0  0  0  0  0  0  0  0  0  # atno 17320 bound_to 7965
  144.7574  140.5341  143.6759 LP  0  0  0  0  0  0  0  0  0  0  0  0  # atno 17321 bound_to 7965
  140.7816  143.4151  151.0930 LP  0  0  0  0  0  0  0  0  0  0  0  0  # atno 17342 bound_to 10162
  139.7816  143.8348  152.3138 LP  0  0  0  0  0  0  0  0  0  0  0  0  # atno 17343 bound_to 10162
  157.7410  131.0510  150.5128 LP  0  0  0  0  0  0  0  0  0  0  0  0  # atno 17370 bound_to 10713
  156.5279  130.4178  149.6216 LP  0  0  0  0  0  0  0  0  0  0  0  0  # atno 17371 bound_to 10713
  141.1913  133.8198  157.0885 LP  0  0  0  0  0  0  0  0  0  0  0  0  # atno 17394 bound_to 11000
  140.0455  134.9832  157.1041 LP  0  0  0  0  0  0  0  0  0  0  0  0  # atno 17395 bound_to 11000

$$$$
