AV-unprocessed.smi:1718|AV-procd|sdf|6922|dock10
  -GOLD-   22720 8123D 1   1.00000     0.00000
 Structure written by MMmdl.
 40 41  0  0  0  0  0  0  0  0  1 V2000
  151.6028  138.1843  154.1103 C   0  0  0  0  0  0  0  0  0  0  0  0
  151.6959  137.8530  155.6074 C   0  0  2  0  0  0  0  0  0  0  0  0
  150.5400  137.0941  155.9496 O   0  0  0  0  0  0  0  0  0  0  0  0
  150.6241  136.3625  157.1686 C   0  0  0  0  0  0  0  0  0  0  0  0
  149.3355  135.5525  157.3671 C   0  0  2  0  0  0  0  0  0  0  0  0
  148.0788  136.4001  157.6186 C   0  0  0  0  0  0  0  0  0  0  0  0
  147.7045  136.0631  159.0487 C   0  0  0  0  0  0  0  0  0  0  0  0
  148.2493  134.6493  159.1985 C   0  0  0  0  0  0  0  0  0  0  0  0
  149.4829  134.6998  158.4996 O   0  0  0  0  0  0  0  0  0  0  0  0
  151.7677  139.1275  156.4645 C   0  0  0  0  0  0  0  0  0  0  0  0
  152.7950  139.3760  157.0949 O   0  0  0  0  0  0  0  0  0  0  0  0
  150.6583  139.8931  156.4537 N   0  0  0  0  0  0  0  0  0  0  0  0
  150.4188  141.1308  157.0740 C   0  0  0  0  0  0  0  0  0  0  0  0
  151.3766  141.9298  157.6133 C   0  0  0  0  0  0  0  0  0  0  0  0
  151.0600  143.2090  158.2253 C   0  0  0  0  0  0  0  0  0  0  0  0
  152.1352  144.0540  158.8907 C   0  0  0  0  0  0  0  0  0  0  0  0
  151.6061  144.9439  159.7316 F   0  0  0  0  0  0  0  0  0  0  0  0
  152.9853  143.2869  159.5732 F   0  0  0  0  0  0  0  0  0  0  0  0
  152.8275  144.7162  157.9651 F   0  0  0  0  0  0  0  0  0  0  0  0
  149.7619  143.5640  158.2378 C   0  0  0  0  0  0  0  0  0  0  0  0
  148.7737  142.7587  157.6669 N   0  0  0  0  0  0  0  0  0  0  0  0
  149.0115  141.5637  157.0812 C   0  0  0  0  0  0  0  0  0  0  0  0
  148.0848  140.9134  156.5988 O   0  0  0  0  0  0  0  0  0  0  0  0
  147.8247  143.1024  157.7022 H   0  0  0  0  0  0  0  0  0  0  0  0
  152.4532  138.7832  153.7825 H   0  0  0  0  0  0  0  0  0  0  0  0
  150.6920  138.7371  153.8763 H   0  0  0  0  0  0  0  0  0  0  0  0
  151.5937  137.2718  153.5140 H   0  0  0  0  0  0  0  0  0  0  0  0
  152.5892  137.2457  155.7666 H   0  0  0  0  0  0  0  0  0  0  0  0
  151.4794  135.6864  157.1296 H   0  0  0  0  0  0  0  0  0  0  0  0
  150.7711  137.0248  158.0223 H   0  0  0  0  0  0  0  0  0  0  0  0
  149.1714  134.9218  156.4924 H   0  0  0  0  0  0  0  0  0  0  0  0
  148.2376  137.4692  157.4718 H   0  0  0  0  0  0  0  0  0  0  0  0
  147.2817  136.0881  156.9427 H   0  0  0  0  0  0  0  0  0  0  0  0
  148.2195  136.7344  159.7371 H   0  0  0  0  0  0  0  0  0  0  0  0
  146.6332  136.1313  159.2393 H   0  0  0  0  0  0  0  0  0  0  0  0
  148.3885  134.3572  160.2394 H   0  0  0  0  0  0  0  0  0  0  0  0
  147.5887  133.9246  158.7202 H   0  0  0  0  0  0  0  0  0  0  0  0
  149.8696  139.5227  155.9428 H   0  0  0  0  0  0  0  0  0  0  0  0
  152.4169  141.6505  157.5857 H   0  0  0  0  0  0  0  0  0  0  0  0
  149.3825  144.4726  158.6814 H   0  0  0  0  0  0  0  0  0  0  0  0
  1  2  1  0  0  0  0
  1 25  1  0  0  0  0
  1 26  1  0  0  0  0
  1 27  1  0  0  0  0
  2  3  1  0  0  0  0
  2 10  1  0  0  0  0
  2 28  1  0  0  0  0
  3  4  1  0  0  0  0
  4  5  1  0  0  0  0
  4 29  1  0  0  0  0
  4 30  1  0  0  0  0
  5  9  1  0  0  0  0
  5  6  1  0  0  0  0
  5 31  1  0  0  0  0
  6  7  1  0  0  0  0
  6 32  1  0  0  0  0
  6 33  1  0  0  0  0
  7  8  1  0  0  0  0
  7 34  1  0  0  0  0
  7 35  1  0  0  0  0
  8  9  1  0  0  0  0
  8 36  1  0  0  0  0
  8 37  1  0  0  0  0
 10 11  2  0  0  0  0
 10 12  1  0  0  0  0
 12 13  1  0  0  0  0
 12 38  1  0  0  0  0
 13 22  1  0  0  0  0
 13 14  2  0  0  0  0
 14 15  1  0  0  0  0
 14 39  1  0  0  0  0
 15 16  1  0  0  0  0
 15 20  2  0  0  0  0
 16 17  1  0  0  0  0
 16 18  1  0  0  0  0
 16 19  1  0  0  0  0
 20 21  1  0  0  0  0
 20 40  1  0  0  0  0
 21 24  1  0  0  0  0
 21 22  1  0  0  0  0
 22 23  2  0  0  0  0
M  END
> <s_m_source_file>
AV-unprocessed.smi

> <i_m_source_file_index>
1718

> <i_lp_mmshare_version>
43012

> <i_f3d_flags>
0

> <s_epik_input>
TzFbQ0gyXVtDSDJdW0NIMl1bQ0BIXTFbQ0gyXU9bQ0BASF0oW0NIM10pQyg9TylbTkhdYzJbY0hdYyhDKEYpKEYpRilbY0hdW25IXWMyPU8=

> <s_epik_cmdline>
J2VwaWtfcHl0aG9uJywgJy1waCcsICc3LjAnLCAnLXRuJywgJzgnLCAnLW1hJywgJzIwMCcsICctbWV0YWxfYmluZGluZycsICctaW1hZScsICc8aW5maWxlLm1hZT4nLCAnLW9tYWUnLCAnPG91dGZpbGUubWFlPic=

> <r_lp_tautomer_probability>
0.999

> <r_epik_Ionization_Penalty>
0.00894336

> <r_epik_Ionization_Penalty_Charging>
0.00894326

> <r_epik_Ionization_Penalty_Neutral>
1.00145e-07

> <r_epik_State_Penalty>
0.00676626

> <r_epik_Charging_Adjusted_Penalty>
0.0157095

> <i_epik_Tot_Q>
0

> <i_epik_Tot_abs_Q>
0

> <r_epik_Metal_State_Penalty>
0.321145

> <b_epik_Metal_Only>
0

> <s_lp_Force_Field>
OPLS_2005

> <r_lp_Energy>
34.6519

> <b_lp_Chiralities_Consistent>
1

> <s_lp_Variant>
AV-unprocessed.smi:1718-1

> <Gold.Version>
5.8.1

> <Gold.Id.Protein>
6NUR|6NUR_protein|mol2

> <Gold.PLP.Fitness>
42.4119

> <Gold.PLP.PLP>
-36.3711

> <Gold.PLP.part.hbond>
-2.9575

> <Gold.PLP.part.metal>
0.0000

> <Gold.PLP.part.buried>
-3.4321

> <Gold.PLP.part.nonpolar>
-29.5412

> <Gold.PLP.part.repulsive>
0.2190

> <Gold.PLP.ligand.clash>
0.1707

> <Gold.PLP.ligand.torsion>
1.0111

> <Gold.PLP.Chemscore.Hbond>
2.0000

> <Gold.PLP.Chemscore.CHOScore>
0.6989

> <Gold.PLP.Chemscore.Metal>
0.0000

> <Gold.Chemscore.Hbonds>
donor molecule, donor type, donor heavy atom, donor atom, acceptor molecule, acceptor atom, score
      P1  H  6896  6908       L1     9  0.98
      P1  H  7997  8010       L1    11  1.00
      L1  C    20    40       P1  8029  0.76

> <Gold.PLP.Chemscore.Internal.Correction>
0.1368

> <Gold.Rescore>
     Score         DG    S(hbond)    S(metal)    S(lipo)     H(rot)  DE(clash)    DE(int)     intcor
     12.97     -14.88       1.76        0.00      71.27       1.88       0.00       1.91       ----

> <Gold.Chemscore.Fitness>
12.9666

> <Gold.Chemscore.DG>
-14.8804

> <Gold.Chemscore.ZeroCoef>
-5.4800

> <Gold.Chemscore.Hbond>
1.7581

> <Gold.Chemscore.Metal>
0.0000

> <Gold.Chemscore.Lipo>
71.2684

> <Gold.Chemscore.Internal_Hbond>
0.0000

> <Gold.Chemscore.DEClash>
0.0037

> <Gold.Chemscore.DEInternal>
1.9101

> <Gold.Chemscore.Rot>
1.8790

> <Gold.Chemscore.Internal.Correction>
   9.000000E+99

> <Gold.Chemscore.Hbonds>
donor molecule, donor type, donor heavy atom, donor atom, acceptor molecule, acceptor atom, score
      P1  H  6896  6908       L1     9  0.76
      P1  H  7997  8010       L1    11  1.00

> <Gold.Chemscore.Hbond.Weighted>
-5.8722

> <Gold.Chemscore.Metal.Weighted>
-0.0000

> <Gold.Chemscore.Lipo.Weighted>
-8.3384

> <Gold.Chemscore.Internal_Hbond.Weighted>
0.0000

> <Gold.Chemscore.DEClash.Weighted>
0.0037

> <Gold.Chemscore.DEInternal.Weighted>
1.9101

> <Gold.Chemscore.Rot.Weighted>
4.8102

> <Gold.Chemscore.Internal.Correction.Weighted>
   9.000000E+99

> <Gold.Protein.RotatedTorsions>
[ 6907 6896 6895 6894 ] final  133.02 input  -60.11 | X-H torsion
[ 7974 7965 7964 7962 ] final -174.63 input  175.53 | X-H torsion
[ 8008 7997 7996 7995 ] final   66.99 input   59.86 | X-H torsion
[ 10167 10162 10161 10158 ] final   46.24 input  -65.29 | X-H torsion
[ 10718 10713 10712 10709 ] final -106.82 input   66.30 | X-H torsion
[ 10763 10752 10751 10750 ] final -108.12 input  -60.55 | X-H torsion
[ 11005 11000 10999 10996 ] final   79.12 input  -57.11 | X-H torsion

> <Gold.Protein.ActiveResidues>
 VAL166  LYS551  ARG553  GLY616  TRP617  ASP618  TYR619  PRO620  LYS621  CYS622 
 ASP623  PHE694  ASN695  SER759  ASP760  ASP761  ALA762  ILE779  LEU786  VAL792 
 PHE793  MET794  SER795  GLU796  ALA797  LYS798  CYS799  TRP800  GLU811  SER814 

> <Gold.Protein.RotatedAtoms>
  152.3263  133.5909  159.5778 H   0  0  0  0  0  0  0  0  0  0  0  0  # atno 6907 bound_to 6896
  150.7398  133.9935  159.3624 H   0  0  0  0  0  0  0  0  0  0  0  0  # atno 6908 bound_to 6896
  151.7814  135.0761  160.0425 H   0  0  0  0  0  0  0  0  0  0  0  0  # atno 6909 bound_to 6896
  144.7131  140.1442  143.6389 H   0  0  0  0  0  0  0  0  0  0  0  0  # atno 7974 bound_to 7965
  155.6859  140.3496  155.4874 H   0  0  0  0  0  0  0  0  0  0  0  0  # atno 8008 bound_to 7997
  155.9566  140.1129  157.0954 H   0  0  0  0  0  0  0  0  0  0  0  0  # atno 8009 bound_to 7997
  154.4133  140.1184  156.5110 H   0  0  0  0  0  0  0  0  0  0  0  0  # atno 8010 bound_to 7997
  140.3159  144.2764  150.6191 H   0  0  0  0  0  0  0  0  0  0  0  0  # atno 10167 bound_to 10162
  156.0408  130.5632  150.7735 H   0  0  0  0  0  0  0  0  0  0  0  0  # atno 10718 bound_to 10713
  154.8116  135.4649  154.0532 H   0  0  0  0  0  0  0  0  0  0  0  0  # atno 10763 bound_to 10752
  153.1958  135.6862  153.8300 H   0  0  0  0  0  0  0  0  0  0  0  0  # atno 10764 bound_to 10752
  153.7802  135.3257  155.3342 H   0  0  0  0  0  0  0  0  0  0  0  0  # atno 10765 bound_to 10752
  139.9185  134.7817  156.1737 H   0  0  0  0  0  0  0  0  0  0  0  0  # atno 11005 bound_to 11000
  145.9174  139.2524  143.1401 LP  0  0  0  0  0  0  0  0  0  0  0  0  # atno 17320 bound_to 7965
  145.9655  140.8802  143.0189 LP  0  0  0  0  0  0  0  0  0  0  0  0  # atno 17321 bound_to 7965
  140.5527  143.2204  151.7900 LP  0  0  0  0  0  0  0  0  0  0  0  0  # atno 17342 bound_to 10162
  139.4884  144.4455  151.9715 LP  0  0  0  0  0  0  0  0  0  0  0  0  # atno 17343 bound_to 10162
  157.5222  131.0932  151.0063 LP  0  0  0  0  0  0  0  0  0  0  0  0  # atno 17370 bound_to 10713
  157.0391  130.5742  149.5353 LP  0  0  0  0  0  0  0  0  0  0  0  0  # atno 17371 bound_to 10713
  141.0685  133.6808  156.2092 LP  0  0  0  0  0  0  0  0  0  0  0  0  # atno 17394 bound_to 11000
  140.6546  134.5031  157.5580 LP  0  0  0  0  0  0  0  0  0  0  0  0  # atno 17395 bound_to 11000

$$$$
