AV-unprocessed.smi:3212|AV-procd|sdf|12280|dock6
  -GOLD-   2272018113D 1   1.00000     0.00000
 Structure written by MMmdl.
 39 39  0  0  0  0  0  0  0  0  1 V2000
  146.5298  138.6757  151.2305 C   0  0  0  0  0  0  0  0  0  0  0  0
  146.1151  138.1056  152.5970 C   0  0  2  0  0  0  0  0  0  0  0  0
  147.3069  137.9554  153.4526 N   0  0  0  0  0  0  0  0  0  0  0  0
  148.0153  139.2039  153.7126 C   0  0  0  0  0  0  0  0  0  0  0  0
  149.3169  138.9051  154.4694 C   0  0  0  0  0  0  0  0  0  0  0  0
  149.7695  140.0584  155.2227 N   0  0  0  0  0  0  0  0  0  0  0  0
  149.0978  140.7594  156.2021 C   0  0  0  0  0  0  0  0  0  0  0  0
  149.9258  141.7587  156.6266 C   0  0  0  0  0  0  0  0  0  0  0  0
  151.0971  141.5850  155.8371 C   0  0  0  0  0  0  0  0  0  0  0  0
  151.0007  140.5660  154.9983 N   0  0  0  0  0  0  0  0  0  0  0  0
  145.3163  136.8009  152.4297 C   0  0  0  0  0  0  0  0  0  0  0  0
  144.1261  136.7616  152.7415 O   0  0  0  0  0  0  0  0  0  0  0  0
  145.9885  135.7580  151.9086 N   0  0  0  0  0  0  0  0  0  0  0  0
  145.4868  134.4173  151.5868 C   0  0  0  0  0  0  0  0  0  0  0  0
  144.9143  133.8298  152.8887 C   0  0  0  0  0  0  0  0  0  0  0  0
  146.6364  133.5130  151.0938 C   0  0  0  0  0  0  0  0  0  0  0  0
  144.3617  134.4937  150.5334 C   0  0  0  0  0  0  0  0  0  0  0  0
  145.6656  138.8120  150.5788 H   0  0  0  0  0  0  0  0  0  0  0  0
  147.2349  138.0204  150.7168 H   0  0  0  0  0  0  0  0  0  0  0  0
  147.0083  139.6491  151.3428 H   0  0  0  0  0  0  0  0  0  0  0  0
  145.4601  138.8444  153.0628 H   0  0  0  0  0  0  0  0  0  0  0  0
  147.9516  137.2821  153.0640 H   0  0  0  0  0  0  0  0  0  0  0  0
  148.2426  139.6979  152.7667 H   0  0  0  0  0  0  0  0  0  0  0  0
  147.4011  139.8858  154.3019 H   0  0  0  0  0  0  0  0  0  0  0  0
  149.1789  138.0698  155.1581 H   0  0  0  0  0  0  0  0  0  0  0  0
  150.1067  138.6164  153.7745 H   0  0  0  0  0  0  0  0  0  0  0  0
  148.0990  140.4905  156.5132 H   0  0  0  0  0  0  0  0  0  0  0  0
  149.7258  142.5005  157.3855 H   0  0  0  0  0  0  0  0  0  0  0  0
  152.0085  142.1646  155.8493 H   0  0  0  0  0  0  0  0  0  0  0  0
  146.9612  135.9184  151.6912 H   0  0  0  0  0  0  0  0  0  0  0  0
  144.5199  132.8253  152.7312 H   0  0  0  0  0  0  0  0  0  0  0  0
  144.1007  134.4428  153.2788 H   0  0  0  0  0  0  0  0  0  0  0  0
  145.6775  133.7633  153.6652 H   0  0  0  0  0  0  0  0  0  0  0  0
  147.4560  133.4858  151.8130 H   0  0  0  0  0  0  0  0  0  0  0  0
  147.0453  133.8508  150.1416 H   0  0  0  0  0  0  0  0  0  0  0  0
  146.2945  132.4878  150.9475 H   0  0  0  0  0  0  0  0  0  0  0  0
  143.9151  133.5133  150.3655 H   0  0  0  0  0  0  0  0  0  0  0  0
  144.7254  134.8472  149.5686 H   0  0  0  0  0  0  0  0  0  0  0  0
  143.5647  135.1664  150.8517 H   0  0  0  0  0  0  0  0  0  0  0  0
  1  2  1  0  0  0  0
  1 18  1  0  0  0  0
  1 19  1  0  0  0  0
  1 20  1  0  0  0  0
  2  3  1  0  0  0  0
  2 11  1  0  0  0  0
  2 21  1  0  0  0  0
  3  4  1  0  0  0  0
  3 22  1  0  0  0  0
  4  5  1  0  0  0  0
  4 23  1  0  0  0  0
  4 24  1  0  0  0  0
  5  6  1  0  0  0  0
  5 25  1  0  0  0  0
  5 26  1  0  0  0  0
  6 10  1  0  0  0  0
  6  7  1  0  0  0  0
  7  8  2  0  0  0  0
  7 27  1  0  0  0  0
  8  9  1  0  0  0  0
  8 28  1  0  0  0  0
  9 10  2  0  0  0  0
  9 29  1  0  0  0  0
 11 12  2  0  0  0  0
 11 13  1  0  0  0  0
 13 14  1  0  0  0  0
 13 30  1  0  0  0  0
 14 15  1  0  0  0  0
 14 16  1  0  0  0  0
 14 17  1  0  0  0  0
 15 31  1  0  0  0  0
 15 32  1  0  0  0  0
 15 33  1  0  0  0  0
 16 34  1  0  0  0  0
 16 35  1  0  0  0  0
 16 36  1  0  0  0  0
 17 37  1  0  0  0  0
 17 38  1  0  0  0  0
 17 39  1  0  0  0  0
M  END
> <s_m_source_file>
AV-unprocessed.smi

> <i_m_source_file_index>
3212

> <i_lp_mmshare_version>
43012

> <i_f3d_flags>
0

> <s_epik_input>
W0NIM11DKFtDSDNdKShbQ0gzXSlbTkhdQyg9TylbQ0BIXShbQ0gzXSlbTkhdW0NIMl1bQ0gyXW4xW2NIXVtjSF1bY0hdbjE=

> <s_epik_cmdline>
J2VwaWtfcHl0aG9uJywgJy1waCcsICc3LjAnLCAnLXRuJywgJzgnLCAnLW1hJywgJzIwMCcsICctbWV0YWxfYmluZGluZycsICctaW1hZScsICc8aW5maWxlLm1hZT4nLCAnLW9tYWUnLCAnPG91dGZpbGUubWFlPic=

> <r_lp_tautomer_probability>
1

> <r_epik_Ionization_Penalty>
0.745735

> <r_epik_Ionization_Penalty_Charging>
0

> <r_epik_Ionization_Penalty_Neutral>
0.745735

> <r_epik_State_Penalty>
0.771152

> <r_epik_Charging_Adjusted_Penalty>
0.771152

> <i_epik_Tot_Q>
0

> <i_epik_Tot_abs_Q>
0

> <r_epik_Metal_State_Penalty>
0.770403

> <b_epik_Metal_Only>
0

> <s_lp_Force_Field>
OPLS_2005

> <r_lp_Energy>
5.75151

> <b_lp_Chiralities_Consistent>
1

> <s_lp_Variant>
AV-unprocessed.smi:3212-3

> <Gold.Version>
5.8.1

> <Gold.Id.Protein>
6NUR|6NUR_protein|mol2

> <Gold.PLP.Fitness>
36.8394

> <Gold.PLP.PLP>
-28.1871

> <Gold.PLP.part.hbond>
-3.0000

> <Gold.PLP.part.metal>
0.0000

> <Gold.PLP.part.buried>
-1.6732

> <Gold.PLP.part.nonpolar>
-23.2645

> <Gold.PLP.part.repulsive>
0.2522

> <Gold.PLP.ligand.clash>
0.0000

> <Gold.PLP.ligand.torsion>
0.2010

> <Gold.PLP.Chemscore.Hbond>
3.0000

> <Gold.PLP.Chemscore.CHOScore>
0.0000

> <Gold.PLP.Chemscore.Metal>
0.0000

> <Gold.Chemscore.Hbonds>
donor molecule, donor type, donor heavy atom, donor atom, acceptor molecule, acceptor atom, score
      L1  H     3    22       P1  7948  1.00
      L1  H    13    30       P1  7948  1.00
      P1  H  7989  7998       L1    10  0.98

> <Gold.PLP.Chemscore.Internal.Correction>
0.0542

> <Gold.Rescore>
     Score         DG    S(hbond)    S(metal)    S(lipo)     H(rot)  DE(clash)    DE(int)     intcor
     17.59     -17.97       2.86        0.00      68.51       1.99       0.10       0.27       ----

> <Gold.Chemscore.Fitness>
17.5919

> <Gold.Chemscore.DG>
-17.9660

> <Gold.Chemscore.ZeroCoef>
-5.4800

> <Gold.Chemscore.Hbond>
2.8622

> <Gold.Chemscore.Metal>
0.0000

> <Gold.Chemscore.Lipo>
68.5082

> <Gold.Chemscore.Internal_Hbond>
0.0000

> <Gold.Chemscore.DEClash>
0.0992

> <Gold.Chemscore.DEInternal>
0.2748

> <Gold.Chemscore.Rot>
1.9880

> <Gold.Chemscore.Internal.Correction>
   9.000000E+99

> <Gold.Chemscore.Hbonds>
donor molecule, donor type, donor heavy atom, donor atom, acceptor molecule, acceptor atom, score
      L1  H     3    22       P1  7948  1.00
      L1  H    13    30       P1  7948  0.97
      P1  H  7989  7998       L1    10  0.79

> <Gold.Chemscore.Hbond.Weighted>
-9.5598

> <Gold.Chemscore.Metal.Weighted>
-0.0000

> <Gold.Chemscore.Lipo.Weighted>
-8.0155

> <Gold.Chemscore.Internal_Hbond.Weighted>
0.0000

> <Gold.Chemscore.DEClash.Weighted>
0.0992

> <Gold.Chemscore.DEInternal.Weighted>
0.2748

> <Gold.Chemscore.Rot.Weighted>
5.0893

> <Gold.Chemscore.Internal.Correction.Weighted>
   9.000000E+99

> <Gold.Protein.RotatedTorsions>
[ 6907 6896 6895 6894 ] final  -76.31 input  -60.11 | X-H torsion
[ 7974 7965 7964 7962 ] final  109.64 input  175.53 | X-H torsion
[ 8008 7997 7996 7995 ] final  -11.32 input   59.86 | X-H torsion
[ 10167 10162 10161 10158 ] final   54.60 input  -65.29 | X-H torsion
[ 10718 10713 10712 10709 ] final  -54.13 input   66.30 | X-H torsion
[ 10763 10752 10751 10750 ] final -101.33 input  -60.55 | X-H torsion
[ 11005 11000 10999 10996 ] final -108.41 input  -57.11 | X-H torsion

> <Gold.Protein.ActiveResidues>
 VAL166  LYS551  ARG553  GLY616  TRP617  ASP618  TYR619  PRO620  LYS621  CYS622 
 ASP623  PHE694  ASN695  SER759  ASP760  ASP761  ALA762  ILE779  LEU786  VAL792 
 PHE793  MET794  SER795  GLU796  ALA797  LYS798  CYS799  TRP800  GLU811  SER814 

> <Gold.Protein.RotatedAtoms>
  150.7031  134.4591  159.5371 H   0  0  0  0  0  0  0  0  0  0  0  0  # atno 6907 bound_to 6896
  152.2269  134.8357  160.0488 H   0  0  0  0  0  0  0  0  0  0  0  0  # atno 6908 bound_to 6896
  151.9187  133.3545  159.3926 H   0  0  0  0  0  0  0  0  0  0  0  0  # atno 6909 bound_to 6896
  145.2652  139.2687  143.3996 H   0  0  0  0  0  0  0  0  0  0  0  0  # atno 7974 bound_to 7965
  154.5475  140.2305  155.8539 H   0  0  0  0  0  0  0  0  0  0  0  0  # atno 8008 bound_to 7997
  156.1916  140.3075  155.9306 H   0  0  0  0  0  0  0  0  0  0  0  0  # atno 8009 bound_to 7997
  155.3135  140.0437  157.3026 H   0  0  0  0  0  0  0  0  0  0  0  0  # atno 8010 bound_to 7997
  140.2283  144.3714  150.6424 H   0  0  0  0  0  0  0  0  0  0  0  0  # atno 10167 bound_to 10162
  156.1477  130.4152  149.9997 H   0  0  0  0  0  0  0  0  0  0  0  0  # atno 10718 bound_to 10713
  154.7649  135.4902  153.9535 H   0  0  0  0  0  0  0  0  0  0  0  0  # atno 10763 bound_to 10752
  153.1296  135.6750  153.9208 H   0  0  0  0  0  0  0  0  0  0  0  0  # atno 10764 bound_to 10752
  153.8915  135.3120  155.3426 H   0  0  0  0  0  0  0  0  0  0  0  0  # atno 10765 bound_to 10752
  141.0903  133.9067  157.2091 H   0  0  0  0  0  0  0  0  0  0  0  0  # atno 11005 bound_to 11000
  146.3263  140.3080  142.8625 LP  0  0  0  0  0  0  0  0  0  0  0  0  # atno 17320 bound_to 7965
  144.9383  140.8051  143.5646 LP  0  0  0  0  0  0  0  0  0  0  0  0  # atno 17321 bound_to 7965
  140.6204  143.2176  151.6706 LP  0  0  0  0  0  0  0  0  0  0  0  0  # atno 17342 bound_to 10162
  139.5119  144.3494  152.0666 LP  0  0  0  0  0  0  0  0  0  0  0  0  # atno 17343 bound_to 10162
  156.7864  130.9240  151.3646 LP  0  0  0  0  0  0  0  0  0  0  0  0  # atno 17370 bound_to 10713
  157.6630  130.8983  149.9871 LP  0  0  0  0  0  0  0  0  0  0  0  0  # atno 17371 bound_to 10713
  139.9728  135.0123  156.9554 LP  0  0  0  0  0  0  0  0  0  0  0  0  # atno 17394 bound_to 11000
  140.5268  134.0853  155.7305 LP  0  0  0  0  0  0  0  0  0  0  0  0  # atno 17395 bound_to 11000

$$$$
