AV-unprocessed.smi:1265|AV-procd|sdf|5318|dock1
  -GOLD-   22720 4443D 1   1.00000     0.00000
 Structure written by MMmdl.
 45 47  0  0  0  0  0  0  0  0  2 V2000
  144.8195  136.7623  153.9991 O   0  0  0  0  0  0  0  0  0  0  0  0
  145.8843  136.6805  153.3870 C   0  0  0  0  0  0  0  0  0  0  0  0
  146.9586  137.4336  153.6616 N   0  0  0  0  0  0  0  0  0  0  0  0
  147.0462  138.4498  154.7102 C   0  0  0  0  0  0  0  0  0  0  0  0
  148.4283  139.1835  154.7278 C   0  0  2  0  0  0  0  0  0  0  0  0
  149.5432  138.1916  154.6249 N   0  0  0  0  0  0  0  0  0  0  0  0
  149.3855  136.9577  155.4085 C   0  0  0  0  0  0  0  0  0  0  0  0
  150.5381  135.9649  155.1792 C   0  0  0  0  0  0  0  0  0  0  0  0
  151.7790  136.5887  155.4799 O   0  0  0  0  0  0  0  0  0  0  0  0
  152.0042  137.7437  154.6838 C   0  0  0  0  0  0  0  0  0  0  0  0
  150.8696  138.7569  154.9088 C   0  0  0  0  0  0  0  0  0  0  0  0
  148.4942  140.0571  156.0145 C   0  0  0  0  0  0  0  0  0  0  0  0
  147.5227  141.2343  155.8767 C   0  0  0  0  0  0  0  0  0  0  0  0
  147.4718  141.6861  154.1268 S   0  0  0  0  0  0  0  0  0  0  0  0
  148.4293  140.2400  153.5932 C   0  0  0  0  0  0  0  0  0  0  0  0
  146.1384  135.8209  152.3853 N   0  0  0  0  0  0  0  0  0  0  0  0
  145.2625  134.8729  151.7902 C   0  0  0  0  0  0  0  0  0  0  0  0
  145.7674  134.0943  150.7251 C   0  0  0  0  0  0  0  0  0  0  0  0
  144.9293  133.1534  150.0928 C   0  0  0  0  0  0  0  0  0  0  0  0
  143.6501  133.0110  150.5008 N   0  3  0  0  0  0  0  0  0  0  0  0
  143.1180  133.7429  151.5032 C   0  0  0  0  0  0  0  0  0  0  0  0
  143.9081  134.6987  152.1740 C   0  0  0  0  0  0  0  0  0  0  0  0
  147.7945  137.2842  153.1156 H   0  0  0  0  0  0  0  0  0  0  0  0
  146.2323  139.1552  154.5492 H   0  0  0  0  0  0  0  0  0  0  0  0
  146.8070  138.0121  155.6791 H   0  0  0  0  0  0  0  0  0  0  0  0
  149.3247  137.1828  156.4726 H   0  0  0  0  0  0  0  0  0  0  0  0
  148.4716  136.4354  155.1360 H   0  0  0  0  0  0  0  0  0  0  0  0
  150.4155  135.0901  155.8180 H   0  0  0  0  0  0  0  0  0  0  0  0
  150.5417  135.6091  154.1478 H   0  0  0  0  0  0  0  0  0  0  0  0
  152.9633  138.1829  154.9587 H   0  0  0  0  0  0  0  0  0  0  0  0
  152.0700  137.4642  153.6311 H   0  0  0  0  0  0  0  0  0  0  0  0
  151.0753  139.6149  154.2728 H   0  0  0  0  0  0  0  0  0  0  0  0
  150.9113  139.1121  155.9390 H   0  0  0  0  0  0  0  0  0  0  0  0
  148.3137  139.4879  156.9259 H   0  0  0  0  0  0  0  0  0  0  0  0
  149.4744  140.5139  156.1305 H   0  0  0  0  0  0  0  0  0  0  0  0
  146.5199  140.9514  156.1974 H   0  0  0  0  0  0  0  0  0  0  0  0
  147.8289  142.0852  156.4855 H   0  0  0  0  0  0  0  0  0  0  0  0
  149.4352  140.6001  153.3843 H   0  0  0  0  0  0  0  0  0  0  0  0
  148.0318  139.8503  152.6556 H   0  0  0  0  0  0  0  0  0  0  0  0
  147.0885  135.8080  152.0441 H   0  0  0  0  0  0  0  0  0  0  0  0
  146.7901  134.2103  150.3959 H   0  0  0  0  0  0  0  0  0  0  0  0
  145.2413  132.5176  149.2771 H   0  0  0  0  0  0  0  0  0  0  0  0
  142.0804  133.5488  151.7330 H   0  0  0  0  0  0  0  0  0  0  0  0
  143.4566  135.2870  152.9582 H   0  0  0  0  0  0  0  0  0  0  0  0
  143.0595  132.3257  150.0289 H   0  0  0  0  0  0  0  0  0  0  0  0
  1  2  2  0  0  0  0
  2  3  1  0  0  0  0
  2 16  1  0  0  0  0
  3  4  1  0  0  0  0
  3 23  1  0  0  0  0
  4  5  1  0  0  0  0
  4 24  1  0  0  0  0
  4 25  1  0  0  0  0
  5 15  1  0  0  0  0
  5  6  1  0  0  0  0
  5 12  1  0  0  0  0
  6 11  1  0  0  0  0
  6  7  1  0  0  0  0
  7  8  1  0  0  0  0
  7 26  1  0  0  0  0
  7 27  1  0  0  0  0
  8  9  1  0  0  0  0
  8 28  1  0  0  0  0
  8 29  1  0  0  0  0
  9 10  1  0  0  0  0
 10 11  1  0  0  0  0
 10 30  1  0  0  0  0
 10 31  1  0  0  0  0
 11 32  1  0  0  0  0
 11 33  1  0  0  0  0
 12 13  1  0  0  0  0
 12 34  1  0  0  0  0
 12 35  1  0  0  0  0
 13 14  1  0  0  0  0
 13 36  1  0  0  0  0
 13 37  1  0  0  0  0
 14 15  1  0  0  0  0
 15 38  1  0  0  0  0
 15 39  1  0  0  0  0
 16 17  1  0  0  0  0
 16 40  1  0  0  0  0
 17 22  1  0  0  0  0
 17 18  2  0  0  0  0
 18 19  1  0  0  0  0
 18 41  1  0  0  0  0
 19 20  2  0  0  0  0
 19 42  1  0  0  0  0
 20 21  1  0  0  0  0
 20 45  1  0  0  0  0
 21 22  2  0  0  0  0
 21 43  1  0  0  0  0
 22 44  1  0  0  0  0
M  CHG  1  20   1
M  END
> <s_m_source_file>
AV-unprocessed.smi

> <i_m_source_file_index>
1265

> <i_lp_mmshare_version>
43012

> <i_f3d_flags>
0

> <s_epik_input>
W2NIXTFbY0hdbltjSF1bY0hdYzFbTkhdQyg9TylbTkhdW0NIMl1bQ0BdMihbQ0gyXVtDSDJdU1tDSDJdMilOM1tDSDJdW0NIMl1PW0NIMl1bQ0gyXTM=

> <s_epik_cmdline>
J2VwaWtfcHl0aG9uJywgJy1waCcsICc3LjAnLCAnLXRuJywgJzgnLCAnLW1hJywgJzIwMCcsICctbWV0YWxfYmluZGluZycsICctaW1hZScsICc8aW5maWxlLm1hZT4nLCAnLW9tYWUnLCAnPG91dGZpbGUubWFlPic=

> <r_epik_Ionization_Penalty>
1.06168

> <r_epik_Ionization_Penalty_Charging>
1.04215

> <r_epik_Ionization_Penalty_Neutral>
0.019527

> <r_epik_State_Penalty>
1.12733

> <r_epik_Charging_Adjusted_Penalty>
2.16948

> <i_epik_Tot_Q>
1

> <i_epik_Tot_abs_Q>
1

> <r_epik_Metal_State_Penalty>
1.22116

> <b_epik_Metal_Only>
0

> <s_lp_Force_Field>
OPLS_2005

> <r_lp_Energy>
64.854

> <b_lp_Chiralities_Consistent>
1

> <s_lp_Variant>
AV-unprocessed.smi:1265-4

> <Gold.Version>
5.8.1

> <Gold.Id.Protein>
6NUR|6NUR_protein|mol2

> <Gold.PLP.Fitness>
38.0225

> <Gold.PLP.PLP>
-30.2269

> <Gold.PLP.part.hbond>
-3.0000

> <Gold.PLP.part.metal>
0.0000

> <Gold.PLP.part.buried>
-3.3546

> <Gold.PLP.part.nonpolar>
-25.4475

> <Gold.PLP.part.repulsive>
0.3895

> <Gold.PLP.ligand.clash>
0.0000

> <Gold.PLP.ligand.torsion>
0.5100

> <Gold.PLP.Chemscore.Hbond>
2.9000

> <Gold.PLP.Chemscore.CHOScore>
0.0000

> <Gold.PLP.Chemscore.Metal>
0.0000

> <Gold.Chemscore.Hbonds>
donor molecule, donor type, donor heavy atom, donor atom, acceptor molecule, acceptor atom, score
      L1  H     3    23       P1  7948  1.00
      L1  H    16    40       P1  7948  1.00
      P1  H 10752 10763       L1     9  1.00

> <Gold.PLP.Chemscore.Internal.Correction>
0.1156

> <Gold.Rescore>
     Score         DG    S(hbond)    S(metal)    S(lipo)     H(rot)  DE(clash)    DE(int)     intcor
     16.42     -19.98       2.42        0.00      87.07       1.47       1.97       1.59       ----

> <Gold.Chemscore.Fitness>
16.4239

> <Gold.Chemscore.DG>
-19.9834

> <Gold.Chemscore.ZeroCoef>
-5.4800

> <Gold.Chemscore.Hbond>
2.4224

> <Gold.Chemscore.Metal>
0.0000

> <Gold.Chemscore.Lipo>
87.0661

> <Gold.Chemscore.Internal_Hbond>
0.0000

> <Gold.Chemscore.DEClash>
1.9706

> <Gold.Chemscore.DEInternal>
1.5888

> <Gold.Chemscore.Rot>
1.4743

> <Gold.Chemscore.Internal.Correction>
   9.000000E+99

> <Gold.Chemscore.Hbonds>
donor molecule, donor type, donor heavy atom, donor atom, acceptor molecule, acceptor atom, score
      L1  H     3    23       P1  7948  0.94
      L1  H    16    40       P1  7948  1.00
      P1  H 10752 10763       L1     9  0.14

> <Gold.Chemscore.Hbond.Weighted>
-8.0909

> <Gold.Chemscore.Metal.Weighted>
-0.0000

> <Gold.Chemscore.Lipo.Weighted>
-10.1867

> <Gold.Chemscore.Internal_Hbond.Weighted>
0.0000

> <Gold.Chemscore.DEClash.Weighted>
1.9706

> <Gold.Chemscore.DEInternal.Weighted>
1.5888

> <Gold.Chemscore.Rot.Weighted>
3.7742

> <Gold.Chemscore.Internal.Correction.Weighted>
   9.000000E+99

> <Gold.Protein.RotatedTorsions>
[ 6907 6896 6895 6894 ] final   69.43 input  -60.11 | X-H torsion
[ 7974 7965 7964 7962 ] final -125.84 input  175.53 | X-H torsion
[ 8008 7997 7996 7995 ] final -106.02 input   59.86 | X-H torsion
[ 10167 10162 10161 10158 ] final  151.04 input  -65.29 | X-H torsion
[ 10718 10713 10712 10709 ] final -174.39 input   66.30 | X-H torsion
[ 10763 10752 10751 10750 ] final   74.79 input  -60.55 | X-H torsion
[ 11005 11000 10999 10996 ] final -117.61 input  -57.11 | X-H torsion

> <Gold.Protein.ActiveResidues>
 VAL166  LYS551  ARG553  GLY616  TRP617  ASP618  TYR619  PRO620  LYS621  CYS622 
 ASP623  PHE694  ASN695  SER759  ASP760  ASP761  ALA762  ILE779  LEU786  VAL792 
 PHE793  MET794  SER795  GLU796  ALA797  LYS798  CYS799  TRP800  GLU811  SER814 

> <Gold.Protein.RotatedAtoms>
  152.4685  134.5017  159.9726 H   0  0  0  0  0  0  0  0  0  0  0  0  # atno 6907 bound_to 6896
  151.5049  133.3491  159.2883 H   0  0  0  0  0  0  0  0  0  0  0  0  # atno 6908 bound_to 6896
  150.8682  134.8078  159.7197 H   0  0  0  0  0  0  0  0  0  0  0  0  # atno 6909 bound_to 6896
  144.9934  140.7754  143.4540 H   0  0  0  0  0  0  0  0  0  0  0  0  # atno 7974 bound_to 7965
  154.9085  140.0410  157.1933 H   0  0  0  0  0  0  0  0  0  0  0  0  # atno 8008 bound_to 7997
  154.8372  140.2908  155.5662 H   0  0  0  0  0  0  0  0  0  0  0  0  # atno 8009 bound_to 7997
  156.2990  140.2489  156.3308 H   0  0  0  0  0  0  0  0  0  0  0  0  # atno 8010 bound_to 7997
  139.4844  144.5473  151.7461 H   0  0  0  0  0  0  0  0  0  0  0  0  # atno 10167 bound_to 10162
  156.7843  130.9495  151.3120 H   0  0  0  0  0  0  0  0  0  0  0  0  # atno 10718 bound_to 10713
  153.0610  135.5012  154.8094 H   0  0  0  0  0  0  0  0  0  0  0  0  # atno 10763 bound_to 10752
  154.6883  135.2980  154.9518 H   0  0  0  0  0  0  0  0  0  0  0  0  # atno 10764 bound_to 10752
  154.0281  135.6733  153.4831 H   0  0  0  0  0  0  0  0  0  0  0  0  # atno 10765 bound_to 10752
  141.0343  133.9933  157.3095 H   0  0  0  0  0  0  0  0  0  0  0  0  # atno 11005 bound_to 11000
  145.2253  139.2140  143.5071 LP  0  0  0  0  0  0  0  0  0  0  0  0  # atno 17320 bound_to 7965
  146.3436  140.2119  142.8590 LP  0  0  0  0  0  0  0  0  0  0  0  0  # atno 17321 bound_to 7965
  140.5022  144.1152  150.5974 LP  0  0  0  0  0  0  0  0  0  0  0  0  # atno 17342 bound_to 10162
  140.4049  143.2685  151.9903 LP  0  0  0  0  0  0  0  0  0  0  0  0  # atno 17343 bound_to 10162
  157.6631  130.8984  149.9873 LP  0  0  0  0  0  0  0  0  0  0  0  0  # atno 17370 bound_to 10713
  156.1198  130.3646  149.9906 LP  0  0  0  0  0  0  0  0  0  0  0  0  # atno 17371 bound_to 10713
  139.9230  135.0201  156.8132 LP  0  0  0  0  0  0  0  0  0  0  0  0  # atno 17394 bound_to 11000
  140.6350  133.9870  155.7680 LP  0  0  0  0  0  0  0  0  0  0  0  0  # atno 17395 bound_to 11000

$$$$
