AV-unprocessed.smi:212|AV-procd|sdf|1618|dock10
  -GOLD-   2262019553D 1   1.00000     0.00000
 Structure written by MMmdl.
 65 68  0  0  0  0  0  0  0  0  2 V2000
  147.9530  140.2441  152.6024 C   0  0  0  0  0  0  0  0  0  0  0  0
  148.7164  140.5880  153.8926 C   0  0  1  0  0  0  0  0  0  0  0  0
  148.0276  141.7121  154.6946 C   0  0  0  0  0  0  0  0  0  0  0  0
  146.7802  141.2322  155.3446 N   0  3  2  0  0  0  0  0  0  0  0  0
  146.0076  142.3128  156.0112 C   0  0  0  0  0  0  0  0  0  0  0  0
  145.0515  143.0344  155.0342 C   0  0  0  0  0  0  0  0  0  0  0  0
  144.5015  144.3176  155.6789 C   0  0  0  0  0  0  0  0  0  0  0  0
  145.7126  143.3597  153.6821 C   0  0  0  0  0  0  0  0  0  0  0  0
  143.9426  142.1901  154.7937 O   0  0  0  0  0  0  0  0  0  0  0  0
  147.0177  140.0541  156.2154 C   0  0  0  0  0  0  0  0  0  0  0  0
  147.7109  138.9230  155.4334 C   0  0  0  0  0  0  0  0  0  0  0  0
  148.9061  139.4077  154.7402 N   0  0  0  0  0  0  0  0  0  0  0  0
  150.1077  139.3160  155.3683 C   0  0  0  0  0  0  0  0  0  0  0  0
  151.2357  139.0833  154.6455 N   0  0  0  0  0  0  0  0  0  0  0  0
  152.4192  138.9743  155.2561 C   0  0  0  0  0  0  0  0  0  0  0  0
  152.6974  139.0660  156.5573 N   0  0  0  0  0  0  0  0  0  0  0  0
  151.5730  139.3124  157.2877 C   0  0  0  0  0  0  0  0  0  0  0  0
  150.2508  139.4484  156.7784 C   0  0  0  0  0  0  0  0  0  0  0  0
  149.3662  139.6981  157.8211 N   0  0  0  0  0  0  0  0  0  0  0  0
  150.1203  139.7012  158.8862 C   0  0  0  0  0  0  0  0  0  0  0  0
  151.4617  139.4935  158.6553 N   0  0  0  0  0  0  0  0  0  0  0  0
  152.5172  139.4374  159.6503 C   0  0  0  0  0  0  0  0  0  0  0  0
  153.6347  140.5061  159.4842 C   0  0  2  0  0  0  0  0  0  0  0  0
  154.9590  139.9765  160.0780 C   0  0  0  0  0  0  0  0  0  0  0  0
  156.0775  140.5430  159.4272 O   0  0  0  0  0  0  0  0  0  0  0  0
  153.3333  141.9227  160.0566 C   0  0  2  0  0  0  0  0  0  0  0  0
  153.2070  142.0509  161.5632 C   0  0  0  0  0  0  0  0  0  0  0  0
  152.5865  143.4398  161.7137 C   0  0  0  0  0  0  0  0  0  0  0  0
  151.9012  143.7138  160.4926 O   0  0  0  0  0  0  0  0  0  0  0  0
  152.0616  142.6295  159.5855 C   0  0  0  0  0  0  0  0  0  0  0  0
  147.8754  141.1163  151.9528 H   0  0  0  0  0  0  0  0  0  0  0  0
  146.9405  139.8943  152.8042 H   0  0  0  0  0  0  0  0  0  0  0  0
  148.4697  139.4643  152.0420 H   0  0  0  0  0  0  0  0  0  0  0  0
  149.6855  140.9772  153.5812 H   0  0  0  0  0  0  0  0  0  0  0  0
  148.7066  142.0803  155.4654 H   0  0  0  0  0  0  0  0  0  0  0  0
  147.8112  142.5577  154.0408 H   0  0  0  0  0  0  0  0  0  0  0  0
  145.4295  141.9008  156.8403 H   0  0  0  0  0  0  0  0  0  0  0  0
  146.6876  143.0346  156.4668 H   0  0  0  0  0  0  0  0  0  0  0  0
  145.3028  145.0250  155.8946 H   0  0  0  0  0  0  0  0  0  0  0  0
  143.9897  144.1051  156.6184 H   0  0  0  0  0  0  0  0  0  0  0  0
  143.7888  144.8202  155.0237 H   0  0  0  0  0  0  0  0  0  0  0  0
  146.5938  143.9879  153.8164 H   0  0  0  0  0  0  0  0  0  0  0  0
  145.0265  143.8938  153.0240 H   0  0  0  0  0  0  0  0  0  0  0  0
  146.0261  142.4582  153.1549 H   0  0  0  0  0  0  0  0  0  0  0  0
  144.1650  141.5912  154.0969 H   0  0  0  0  0  0  0  0  0  0  0  0
  147.6254  140.3548  157.0699 H   0  0  0  0  0  0  0  0  0  0  0  0
  146.0682  139.6923  156.6120 H   0  0  0  0  0  0  0  0  0  0  0  0
  147.9521  138.0905  156.0956 H   0  0  0  0  0  0  0  0  0  0  0  0
  147.0243  138.5181  154.6899 H   0  0  0  0  0  0  0  0  0  0  0  0
  153.2644  138.7868  154.6103 H   0  0  0  0  0  0  0  0  0  0  0  0
  149.7153  139.8642  159.8743 H   0  0  0  0  0  0  0  0  0  0  0  0
  152.0688  139.5059  160.6416 H   0  0  0  0  0  0  0  0  0  0  0  0
  152.9470  138.4372  159.5912 H   0  0  0  0  0  0  0  0  0  0  0  0
  153.8111  140.6419  158.4164 H   0  0  0  0  0  0  0  0  0  0  0  0
  155.0393  140.2286  161.1357 H   0  0  0  0  0  0  0  0  0  0  0  0
  155.0099  138.8898  160.0038 H   0  0  0  0  0  0  0  0  0  0  0  0
  155.9442  141.4760  159.3568 H   0  0  0  0  0  0  0  0  0  0  0  0
  154.1498  142.5783  159.7486 H   0  0  0  0  0  0  0  0  0  0  0  0
  152.5229  141.3067  161.9681 H   0  0  0  0  0  0  0  0  0  0  0  0
  154.1600  141.9560  162.0839 H   0  0  0  0  0  0  0  0  0  0  0  0
  151.9088  143.4939  162.5661 H   0  0  0  0  0  0  0  0  0  0  0  0
  153.3616  144.1944  161.8505 H   0  0  0  0  0  0  0  0  0  0  0  0
  152.1342  142.9806  158.5559 H   0  0  0  0  0  0  0  0  0  0  0  0
  151.1764  142.0051  159.6652 H   0  0  0  0  0  0  0  0  0  0  0  0
  146.1857  140.8997  154.5984 H   0  0  0  0  0  0  0  0  0  0  0  0
  1  2  1  0  0  0  0
  1 31  1  0  0  0  0
  1 32  1  0  0  0  0
  1 33  1  0  0  0  0
  2 12  1  0  0  0  0
  2  3  1  0  0  0  0
  2 34  1  0  0  0  0
  3  4  1  0  0  0  0
  3 35  1  0  0  0  0
  3 36  1  0  0  0  0
  4  5  1  0  0  0  0
  4 10  1  0  0  0  0
  4 65  1  0  0  0  0
  5  6  1  0  0  0  0
  5 37  1  0  0  0  0
  5 38  1  0  0  0  0
  6  7  1  0  0  0  0
  6  8  1  0  0  0  0
  6  9  1  0  0  0  0
  7 39  1  0  0  0  0
  7 40  1  0  0  0  0
  7 41  1  0  0  0  0
  8 42  1  0  0  0  0
  8 43  1  0  0  0  0
  8 44  1  0  0  0  0
  9 45  1  0  0  0  0
 10 11  1  0  0  0  0
 10 46  1  0  0  0  0
 10 47  1  0  0  0  0
 11 12  1  0  0  0  0
 11 48  1  0  0  0  0
 11 49  1  0  0  0  0
 12 13  1  0  0  0  0
 13 18  1  0  0  0  0
 13 14  2  0  0  0  0
 14 15  1  0  0  0  0
 15 16  2  0  0  0  0
 15 50  1  0  0  0  0
 16 17  1  0  0  0  0
 17 21  1  0  0  0  0
 17 18  2  0  0  0  0
 18 19  1  0  0  0  0
 19 20  2  0  0  0  0
 20 21  1  0  0  0  0
 20 51  1  0  0  0  0
 21 22  1  0  0  0  0
 22 23  1  0  0  0  0
 22 52  1  0  0  0  0
 22 53  1  0  0  0  0
 23 24  1  0  0  0  0
 23 26  1  0  0  0  0
 23 54  1  0  0  0  0
 24 25  1  0  0  0  0
 24 55  1  0  0  0  0
 24 56  1  0  0  0  0
 25 57  1  0  0  0  0
 26 30  1  0  0  0  0
 26 27  1  0  0  0  0
 26 58  1  0  0  0  0
 27 28  1  0  0  0  0
 27 59  1  0  0  0  0
 27 60  1  0  0  0  0
 28 29  1  0  0  0  0
 28 61  1  0  0  0  0
 28 62  1  0  0  0  0
 29 30  1  0  0  0  0
 30 63  1  0  0  0  0
 30 64  1  0  0  0  0
M  CHG  1   4   1
M  END
> <s_m_source_file>
AV-unprocessed.smi

> <i_m_source_file_index>
212

> <i_lp_mmshare_version>
43012

> <i_f3d_flags>
0

> <s_epik_input>
W0NIM11bQ0BASF0xW0NIMl1OKFtDSDJdQyhbQ0gzXSkoW0NIM10pW09IXSlbQ0gyXVtDSDJdTjFjKG5bY0hdbjIpYyhjMjMpbltjSF1uM1tDSDJdW0NASF0oW0NIMl1bT0hdKVtDQEBIXTRbQ0gyXVtDSDJdT1tDSDJdNA==

> <s_epik_cmdline>
J2VwaWtfcHl0aG9uJywgJy1waCcsICc3LjAnLCAnLXRuJywgJzgnLCAnLW1hJywgJzIwMCcsICctbWV0YWxfYmluZGluZycsICctaW1hZScsICc8aW5maWxlLm1hZT4nLCAnLW9tYWUnLCAnPG91dGZpbGUubWFlPic=

> <r_lp_tautomer_probability>
1

> <r_epik_Ionization_Penalty>
0.00182193

> <r_epik_Ionization_Penalty_Charging>
0.00173996

> <r_epik_Ionization_Penalty_Neutral>
8.19718e-05

> <r_epik_State_Penalty>
-0

> <r_epik_Charging_Adjusted_Penalty>
0.00173996

> <i_epik_Tot_Q>
1

> <i_epik_Tot_abs_Q>
1

> <r_epik_Metal_State_Penalty>
-0

> <b_epik_Metal_Only>
0

> <s_lp_Force_Field>
OPLS_2005

> <r_lp_Energy>
59.4292

> <b_lp_Chiralities_Consistent>
1

> <s_lp_Variant>
AV-unprocessed.smi:212-2

> <Gold.Version>
5.8.1

> <Gold.Id.Protein>
6NUR|6NUR_protein|mol2

> <Gold.PLP.Fitness>
51.8987

> <Gold.PLP.PLP>
-43.7831

> <Gold.PLP.part.hbond>
-4.7573

> <Gold.PLP.part.metal>
0.0000

> <Gold.PLP.part.buried>
4.7277

> <Gold.PLP.part.nonpolar>
-43.8359

> <Gold.PLP.part.repulsive>
0.2002

> <Gold.PLP.ligand.clash>
0.0000

> <Gold.PLP.ligand.torsion>
1.9765

> <Gold.PLP.Chemscore.Hbond>
3.6520

> <Gold.PLP.Chemscore.CHOScore>
0.0000

> <Gold.PLP.Chemscore.Metal>
0.0000

> <Gold.Chemscore.Hbonds>
donor molecule, donor type, donor heavy atom, donor atom, acceptor molecule, acceptor atom, score
      L1  H     9    45       P1 10175  0.85
      P1  H  7989  7998       L1    14  0.63
      P1  H  7997  8009       L1    25  0.30
      P1  H  7997  8010       L1    16  0.80

> <Gold.PLP.Chemscore.Internal.Correction>
1.1126

> <Gold.Rescore>
     Score         DG    S(hbond)    S(metal)    S(lipo)     H(rot)  DE(clash)    DE(int)     intcor
      7.58     -15.07       1.52        0.00     112.84       3.40       3.50       3.99       ----

> <Gold.Chemscore.Fitness>
7.5760

> <Gold.Chemscore.DG>
-15.0685

> <Gold.Chemscore.ZeroCoef>
-5.4800

> <Gold.Chemscore.Hbond>
1.5228

> <Gold.Chemscore.Metal>
0.0000

> <Gold.Chemscore.Lipo>
112.8434

> <Gold.Chemscore.Internal_Hbond>
0.0000

> <Gold.Chemscore.DEClash>
3.5026

> <Gold.Chemscore.DEInternal>
3.9899

> <Gold.Chemscore.Rot>
3.3986

> <Gold.Chemscore.Internal.Correction>
   9.000000E+99

> <Gold.Chemscore.Hbonds>
donor molecule, donor type, donor heavy atom, donor atom, acceptor molecule, acceptor atom, score
      L1  H     9    45       P1 10175  0.13
      P1  H  7989  7998       L1    14  0.08
      P1  H  7997  8009       L1    25  0.02
      P1  H  7997  8010       L1    16  0.12

> <Gold.Chemscore.Hbond.Weighted>
-5.0863

> <Gold.Chemscore.Metal.Weighted>
-0.0000

> <Gold.Chemscore.Lipo.Weighted>
-13.2027

> <Gold.Chemscore.Internal_Hbond.Weighted>
0.0000

> <Gold.Chemscore.DEClash.Weighted>
3.5026

> <Gold.Chemscore.DEInternal.Weighted>
3.9899

> <Gold.Chemscore.Rot.Weighted>
8.7005

> <Gold.Chemscore.Internal.Correction.Weighted>
   9.000000E+99

> <Gold.Protein.RotatedTorsions>
[ 6907 6896 6895 6894 ] final -140.16 input  -60.11 | X-H torsion
[ 7974 7965 7964 7962 ] final  160.35 input  175.53 | X-H torsion
[ 8008 7997 7996 7995 ] final   77.81 input   59.86 | X-H torsion
[ 10167 10162 10161 10158 ] final  170.92 input  -65.29 | X-H torsion
[ 10718 10713 10712 10709 ] final  -36.36 input   66.30 | X-H torsion
[ 10763 10752 10751 10750 ] final -103.61 input  -60.55 | X-H torsion
[ 11005 11000 10999 10996 ] final   27.32 input  -57.11 | X-H torsion

> <Gold.Protein.ActiveResidues>
 VAL166  LYS551  ARG553  GLY616  TRP617  ASP618  TYR619  PRO620  LYS621  CYS622 
 ASP623  PHE694  ASN695  SER759  ASP760  ASP761  ALA762  ILE779  LEU786  VAL792 
 PHE793  MET794  SER795  GLU796  ALA797  LYS798  CYS799  TRP800  GLU811  SER814 

> <Gold.Protein.RotatedAtoms>
  151.0572  133.5575  159.2637 H   0  0  0  0  0  0  0  0  0  0  0  0  # atno 6907 bound_to 6896
  151.2564  135.0638  159.9091 H   0  0  0  0  0  0  0  0  0  0  0  0  # atno 6908 bound_to 6896
  152.5391  134.0324  159.8084 H   0  0  0  0  0  0  0  0  0  0  0  0  # atno 6909 bound_to 6896
  144.7741  139.7745  143.6285 H   0  0  0  0  0  0  0  0  0  0  0  0  # atno 7974 bound_to 7965
  155.8469  140.3460  155.5668 H   0  0  0  0  0  0  0  0  0  0  0  0  # atno 8008 bound_to 7997
  155.8080  140.0895  157.1939 H   0  0  0  0  0  0  0  0  0  0  0  0  # atno 8009 bound_to 7997
  154.4006  140.1453  156.3340 H   0  0  0  0  0  0  0  0  0  0  0  0  # atno 8010 bound_to 7997
  139.5032  144.3543  151.9890 H   0  0  0  0  0  0  0  0  0  0  0  0  # atno 10167 bound_to 10162
  156.3278  130.4275  149.7900 H   0  0  0  0  0  0  0  0  0  0  0  0  # atno 10718 bound_to 10713
  154.7819  135.4817  153.9864 H   0  0  0  0  0  0  0  0  0  0  0  0  # atno 10763 bound_to 10752
  153.1506  135.6790  153.8895 H   0  0  0  0  0  0  0  0  0  0  0  0  # atno 10764 bound_to 10752
  153.8540  135.3163  155.3412 H   0  0  0  0  0  0  0  0  0  0  0  0  # atno 10765 bound_to 10752
  140.3275  134.2474  155.7707 H   0  0  0  0  0  0  0  0  0  0  0  0  # atno 11005 bound_to 11000
  146.1909  139.5149  142.9806 LP  0  0  0  0  0  0  0  0  0  0  0  0  # atno 17320 bound_to 7965
  145.6237  141.0318  143.1901 LP  0  0  0  0  0  0  0  0  0  0  0  0  # atno 17321 bound_to 7965
  140.2980  144.3679  150.6068 LP  0  0  0  0  0  0  0  0  0  0  0  0  # atno 17342 bound_to 10162
  140.5895  143.2168  151.7279 LP  0  0  0  0  0  0  0  0  0  0  0  0  # atno 17343 bound_to 10162
  156.5184  130.8204  151.3194 LP  0  0  0  0  0  0  0  0  0  0  0  0  # atno 17370 bound_to 10713
  157.7424  130.9891  150.2518 LP  0  0  0  0  0  0  0  0  0  0  0  0  # atno 17371 bound_to 10713
  141.2071  133.7814  157.0136 LP  0  0  0  0  0  0  0  0  0  0  0  0  # atno 17394 bound_to 11000
  140.0889  134.9604  157.1744 LP  0  0  0  0  0  0  0  0  0  0  0  0  # atno 17395 bound_to 11000

$$$$
