AV-unprocessed.smi:870|AV-procd|sdf|4008|dock7
  -GOLD-   22720 1493D 1   1.00000     0.00000
 Structure written by MMmdl.
 46 48  0  0  0  0  0  0  0  0  1 V2000
  153.0970  138.7412  154.6700 C   0  0  0  0  0  0  0  0  0  0  0  0
  151.8197  139.3404  154.7876 O   0  0  0  0  0  0  0  0  0  0  0  0
  151.1355  138.9271  155.9585 C   0  0  0  0  0  0  0  0  0  0  0  0
  151.7770  139.6186  157.1234 C   0  0  0  0  0  0  0  0  0  0  0  0
  152.6033  138.9788  157.9518 N   0  0  0  0  0  0  0  0  0  0  0  0
  152.9344  139.9583  158.8676 C   0  0  0  0  0  0  0  0  0  0  0  0
  153.7762  139.9074  160.0017 C   0  0  0  0  0  0  0  0  0  0  0  0
  153.9610  141.0515  160.8055 C   0  0  0  0  0  0  0  0  0  0  0  0
  153.3074  142.2597  160.4880 C   0  0  0  0  0  0  0  0  0  0  0  0
  152.4645  142.3320  159.3623 C   0  0  0  0  0  0  0  0  0  0  0  0
  152.2853  141.1879  158.5617 C   0  0  0  0  0  0  0  0  0  0  0  0
  151.5475  140.9258  157.4115 N   0  0  0  0  0  0  0  0  0  0  0  0
  150.7049  141.8770  156.6971 C   0  0  0  0  0  0  0  0  0  0  0  0
  149.2129  141.7612  157.0801 C   0  0  1  0  0  0  0  0  0  0  0  0
  148.7415  142.9145  157.7479 O   0  0  0  0  0  0  0  0  0  0  0  0
  148.2931  141.4640  155.8852 C   0  0  0  0  0  0  0  0  0  0  0  0
  146.9417  141.7045  156.2563 O   0  0  0  0  0  0  0  0  0  0  0  0
  146.1933  142.5843  155.5033 C   0  0  0  0  0  0  0  0  0  0  0  0
  146.3942  142.8035  154.1167 C   0  0  0  0  0  0  0  0  0  0  0  0
  145.5889  143.7197  153.4139 C   0  0  0  0  0  0  0  0  0  0  0  0
  144.5750  144.4271  154.0840 C   0  0  0  0  0  0  0  0  0  0  0  0
  144.3664  144.2171  155.4591 C   0  0  0  0  0  0  0  0  0  0  0  0
  145.1707  143.3005  156.1681 C   0  0  0  0  0  0  0  0  0  0  0  0
  144.9297  143.0805  157.6499 C   0  0  0  0  0  0  0  0  0  0  0  0
  153.5756  139.0763  153.7500 H   0  0  0  0  0  0  0  0  0  0  0  0
  153.0199  137.6539  154.6323 H   0  0  0  0  0  0  0  0  0  0  0  0
  153.7403  139.0176  155.5063 H   0  0  0  0  0  0  0  0  0  0  0  0
  150.0767  139.1864  155.9158 H   0  0  0  0  0  0  0  0  0  0  0  0
  151.2109  137.8453  156.0818 H   0  0  0  0  0  0  0  0  0  0  0  0
  154.2801  138.9862  160.2537 H   0  0  0  0  0  0  0  0  0  0  0  0
  154.6067  141.0017  161.6700 H   0  0  0  0  0  0  0  0  0  0  0  0
  153.4537  143.1312  161.1094 H   0  0  0  0  0  0  0  0  0  0  0  0
  151.9624  143.2557  159.1174 H   0  0  0  0  0  0  0  0  0  0  0  0
  151.0698  142.8870  156.8769 H   0  0  0  0  0  0  0  0  0  0  0  0
  150.8265  141.7021  155.6277 H   0  0  0  0  0  0  0  0  0  0  0  0
  149.1012  140.9439  157.7929 H   0  0  0  0  0  0  0  0  0  0  0  0
  148.9524  143.6714  157.2224 H   0  0  0  0  0  0  0  0  0  0  0  0
  148.5635  142.1259  155.0609 H   0  0  0  0  0  0  0  0  0  0  0  0
  148.4299  140.4353  155.5465 H   0  0  0  0  0  0  0  0  0  0  0  0
  147.1614  142.2805  153.5667 H   0  0  0  0  0  0  0  0  0  0  0  0
  145.7500  143.8794  152.3579 H   0  0  0  0  0  0  0  0  0  0  0  0
  143.9578  145.1298  153.5438 H   0  0  0  0  0  0  0  0  0  0  0  0
  143.5850  144.7628  155.9673 H   0  0  0  0  0  0  0  0  0  0  0  0
  144.1889  143.7772  158.0424 H   0  0  0  0  0  0  0  0  0  0  0  0
  145.8537  143.2179  158.2124 H   0  0  0  0  0  0  0  0  0  0  0  0
  144.5691  142.0667  157.8238 H   0  0  0  0  0  0  0  0  0  0  0  0
  1  2  1  0  0  0  0
  1 25  1  0  0  0  0
  1 26  1  0  0  0  0
  1 27  1  0  0  0  0
  2  3  1  0  0  0  0
  3  4  1  0  0  0  0
  3 28  1  0  0  0  0
  3 29  1  0  0  0  0
  4 12  1  0  0  0  0
  4  5  2  0  0  0  0
  5  6  1  0  0  0  0
  6 11  2  0  0  0  0
  6  7  1  0  0  0  0
  7  8  2  0  0  0  0
  7 30  1  0  0  0  0
  8  9  1  0  0  0  0
  8 31  1  0  0  0  0
  9 10  2  0  0  0  0
  9 32  1  0  0  0  0
 10 11  1  0  0  0  0
 10 33  1  0  0  0  0
 11 12  1  0  0  0  0
 12 13  1  0  0  0  0
 13 14  1  0  0  0  0
 13 34  1  0  0  0  0
 13 35  1  0  0  0  0
 14 15  1  0  0  0  0
 14 16  1  0  0  0  0
 14 36  1  0  0  0  0
 15 37  1  0  0  0  0
 16 17  1  0  0  0  0
 16 38  1  0  0  0  0
 16 39  1  0  0  0  0
 17 18  1  0  0  0  0
 18 23  1  0  0  0  0
 18 19  2  0  0  0  0
 19 20  1  0  0  0  0
 19 40  1  0  0  0  0
 20 21  2  0  0  0  0
 20 41  1  0  0  0  0
 21 22  1  0  0  0  0
 21 42  1  0  0  0  0
 22 23  2  0  0  0  0
 22 43  1  0  0  0  0
 23 24  1  0  0  0  0
 24 44  1  0  0  0  0
 24 45  1  0  0  0  0
 24 46  1  0  0  0  0
M  END
> <s_m_source_file>
AV-unprocessed.smi

> <i_m_source_file_index>
870

> <i_lp_mmshare_version>
43012

> <i_f3d_flags>
0

> <s_epik_input>
W2NIXTFbY0hdW2NIXVtjSF1jKGMxMiluKGMobjIpW0NIMl1PW0NIM10pW0NIMl1bQ0BIXShbT0hdKVtDSDJdT2MzW2NIXVtjSF1bY0hdW2NIXWMzW0NIM10=

> <s_epik_cmdline>
J2VwaWtfcHl0aG9uJywgJy1waCcsICc3LjAnLCAnLXRuJywgJzgnLCAnLW1hJywgJzIwMCcsICctbWV0YWxfYmluZGluZycsICctaW1hZScsICc8aW5maWxlLm1hZT4nLCAnLW9tYWUnLCAnPG91dGZpbGUubWFlPic=

> <r_lp_tautomer_probability>
1

> <r_epik_Ionization_Penalty>
0.0447032

> <r_epik_Ionization_Penalty_Charging>
0

> <r_epik_Ionization_Penalty_Neutral>
0.0447032

> <r_epik_State_Penalty>
0.0379025

> <r_epik_Charging_Adjusted_Penalty>
0.0379025

> <i_epik_Tot_Q>
0

> <i_epik_Tot_abs_Q>
0

> <r_epik_Metal_State_Penalty>
3.91398e-05

> <b_epik_Metal_Only>
0

> <s_lp_Force_Field>
OPLS_2005

> <r_lp_Energy>
16.5078

> <b_lp_Chiralities_Consistent>
1

> <s_lp_Variant>
AV-unprocessed.smi:870-2

> <Gold.Version>
5.8.1

> <Gold.Id.Protein>
6NUR|6NUR_protein|mol2

> <Gold.PLP.Fitness>
49.5424

> <Gold.PLP.PLP>
-47.8228

> <Gold.PLP.part.hbond>
-2.5867

> <Gold.PLP.part.metal>
0.0000

> <Gold.PLP.part.buried>
-6.9211

> <Gold.PLP.part.nonpolar>
-39.9930

> <Gold.PLP.part.repulsive>
0.1567

> <Gold.PLP.ligand.clash>
0.0000

> <Gold.PLP.ligand.torsion>
2.2187

> <Gold.PLP.Chemscore.Hbond>
2.0000

> <Gold.PLP.Chemscore.CHOScore>
0.0000

> <Gold.PLP.Chemscore.Metal>
0.0000

> <Gold.Chemscore.Hbonds>
donor molecule, donor type, donor heavy atom, donor atom, acceptor molecule, acceptor atom, score
      L1  H    15    37       P1  8028  1.00
      P1  H  7989  7998       L1     2  1.00

> <Gold.PLP.Chemscore.Internal.Correction>
0.1570

> <Gold.Rescore>
     Score         DG    S(hbond)    S(metal)    S(lipo)     H(rot)  DE(clash)    DE(int)     intcor
     15.01     -17.33       1.21        0.00     118.38       2.36       0.03       2.29       ----

> <Gold.Chemscore.Fitness>
15.0086

> <Gold.Chemscore.DG>
-17.3320

> <Gold.Chemscore.ZeroCoef>
-5.4800

> <Gold.Chemscore.Hbond>
1.2093

> <Gold.Chemscore.Metal>
0.0000

> <Gold.Chemscore.Lipo>
118.3811

> <Gold.Chemscore.Internal_Hbond>
0.0000

> <Gold.Chemscore.DEClash>
0.0296

> <Gold.Chemscore.DEInternal>
2.2938

> <Gold.Chemscore.Rot>
2.3585

> <Gold.Chemscore.Internal.Correction>
   9.000000E+99

> <Gold.Chemscore.Hbonds>
donor molecule, donor type, donor heavy atom, donor atom, acceptor molecule, acceptor atom, score
      L1  H    15    37       P1  8028  0.25
      P1  H  7989  7998       L1     2  0.69

> <Gold.Chemscore.Hbond.Weighted>
-4.0392

> <Gold.Chemscore.Metal.Weighted>
-0.0000

> <Gold.Chemscore.Lipo.Weighted>
-13.8506

> <Gold.Chemscore.Internal_Hbond.Weighted>
0.0000

> <Gold.Chemscore.DEClash.Weighted>
0.0296

> <Gold.Chemscore.DEInternal.Weighted>
2.2938

> <Gold.Chemscore.Rot.Weighted>
6.0378

> <Gold.Chemscore.Internal.Correction.Weighted>
   9.000000E+99

> <Gold.Protein.RotatedTorsions>
[ 6907 6896 6895 6894 ] final  -73.95 input  -60.11 | X-H torsion
[ 7974 7965 7964 7962 ] final  -33.44 input  175.53 | X-H torsion
[ 8008 7997 7996 7995 ] final   93.60 input   59.86 | X-H torsion
[ 10167 10162 10161 10158 ] final -174.57 input  -65.29 | X-H torsion
[ 10718 10713 10712 10709 ] final  -57.00 input   66.30 | X-H torsion
[ 10763 10752 10751 10750 ] final  -77.16 input  -60.55 | X-H torsion
[ 11005 11000 10999 10996 ] final   27.92 input  -57.11 | X-H torsion

> <Gold.Protein.ActiveResidues>
 VAL166  LYS551  ARG553  GLY616  TRP617  ASP618  TYR619  PRO620  LYS621  CYS622 
 ASP623  PHE694  ASN695  SER759  ASP760  ASP761  ALA762  ILE779  LEU786  VAL792 
 PHE793  MET794  SER795  GLU796  ALA797  LYS798  CYS799  TRP800  GLU811  SER814 

> <Gold.Protein.RotatedAtoms>
  150.7111  134.4942  159.5529 H   0  0  0  0  0  0  0  0  0  0  0  0  # atno 6907 bound_to 6896
  152.2553  134.8088  160.0448 H   0  0  0  0  0  0  0  0  0  0  0  0  # atno 6908 bound_to 6896
  151.8821  133.3462  159.3806 H   0  0  0  0  0  0  0  0  0  0  0  0  # atno 6909 bound_to 6896
  146.0911  140.5916  142.8864 H   0  0  0  0  0  0  0  0  0  0  0  0  # atno 7974 bound_to 7965
  156.0485  140.3311  155.7324 H   0  0  0  0  0  0  0  0  0  0  0  0  # atno 8008 bound_to 7997
  155.5636  140.0621  157.2840 H   0  0  0  0  0  0  0  0  0  0  0  0  # atno 8009 bound_to 7997
  154.4425  140.1873  156.0796 H   0  0  0  0  0  0  0  0  0  0  0  0  # atno 8010 bound_to 7997
  139.5627  144.1831  152.1263 H   0  0  0  0  0  0  0  0  0  0  0  0  # atno 10167 bound_to 10162
  156.1245  130.4163  150.0381 H   0  0  0  0  0  0  0  0  0  0  0  0  # atno 10718 bound_to 10713
  154.5093  135.5773  153.6592 H   0  0  0  0  0  0  0  0  0  0  0  0  # atno 10763 bound_to 10752
  152.9894  135.6155  154.2900 H   0  0  0  0  0  0  0  0  0  0  0  0  # atno 10764 bound_to 10752
  154.2813  135.2851  155.2675 H   0  0  0  0  0  0  0  0  0  0  0  0  # atno 10765 bound_to 10752
  140.3211  134.2542  155.7717 H   0  0  0  0  0  0  0  0  0  0  0  0  # atno 11005 bound_to 11000
  144.7360  140.4811  143.6903 LP  0  0  0  0  0  0  0  0  0  0  0  0  # atno 17320 bound_to 7965
  145.6038  139.1506  143.3114 LP  0  0  0  0  0  0  0  0  0  0  0  0  # atno 17321 bound_to 7965
  140.1348  144.5256  150.6780 LP  0  0  0  0  0  0  0  0  0  0  0  0  # atno 17342 bound_to 10162
  140.6908  143.2375  151.5137 LP  0  0  0  0  0  0  0  0  0  0  0  0  # atno 17343 bound_to 10162
  156.8310  130.9392  151.3637 LP  0  0  0  0  0  0  0  0  0  0  0  0  # atno 17370 bound_to 10713
  157.6427  130.8818  149.9479 LP  0  0  0  0  0  0  0  0  0  0  0  0  # atno 17371 bound_to 10713
  141.2086  133.7772  157.0048 LP  0  0  0  0  0  0  0  0  0  0  0  0  # atno 17394 bound_to 11000
  140.0941  134.9575  157.1822 LP  0  0  0  0  0  0  0  0  0  0  0  0  # atno 17395 bound_to 11000

$$$$
