AV-unprocessed.smi:265|AV-procd|sdf|2024|dock10
  -GOLD-   2262021233D 1   1.00000     0.00000
 Structure written by MMmdl.
 52 56  0  0  0  0  0  0  0  0  1 V2000
  143.9337  138.3446  157.5528 C   0  0  0  0  0  0  0  0  0  0  0  0
  145.1944  138.5650  156.7009 C   0  0  1  0  0  0  0  0  0  0  0  0
  145.7826  137.3178  156.3325 O   0  0  0  0  0  0  0  0  0  0  0  0
  145.9371  137.2450  154.9215 C   0  0  0  0  0  0  0  0  0  0  0  0
  146.0075  138.6977  154.4694 C   0  0  0  0  0  0  0  0  0  0  0  0
  145.0159  139.3805  155.4001 C   0  0  1  0  0  0  0  0  0  0  0  0
  143.7109  139.2071  154.8696 O   0  0  0  0  0  0  0  0  0  0  0  0
  145.2723  140.8935  155.5961 C   0  0  0  0  0  0  0  0  0  0  0  0
  146.5502  141.1888  156.2255 N   0  0  0  0  0  0  0  0  0  0  0  0
  146.7423  141.7634  157.4616 C   0  0  0  0  0  0  0  0  0  0  0  0
  147.9885  141.9330  157.8088 N   0  0  0  0  0  0  0  0  0  0  0  0
  148.7119  141.4229  156.7372 C   0  0  0  0  0  0  0  0  0  0  0  0
  150.1004  141.2922  156.4531 C   0  0  0  0  0  0  0  0  0  0  0  0
  151.0634  141.6842  157.3251 N   0  0  0  0  0  0  0  0  0  0  0  0
  151.3732  140.7939  158.4432 C   0  0  0  0  0  0  0  0  0  0  0  0
  152.7179  141.1730  159.0826 C   0  0  0  0  0  0  0  0  0  0  0  0
  152.7683  142.6592  159.4739 C   0  0  2  0  0  0  0  0  0  0  0  0
  151.8760  142.9150  160.5508 O   0  0  0  0  0  0  0  0  0  0  0  0
  151.9941  144.2299  161.0965 C   0  0  0  0  0  0  0  0  0  0  0  0
  151.9731  145.3196  160.0084 C   0  0  0  0  0  0  0  0  0  0  0  0
  151.7700  146.4913  160.3178 O   0  0  0  0  0  0  0  0  0  0  0  0
  152.2242  144.9528  158.7412 N   0  0  0  0  0  0  0  0  0  0  0  0
  152.3525  143.5688  158.2972 C   0  0  2  0  0  0  0  0  0  0  0  0
  151.0241  143.1045  157.6669 C   0  0  0  0  0  0  0  0  0  0  0  0
  150.4449  140.7444  155.2567 N   0  0  0  0  0  0  0  0  0  0  0  0
  149.5002  140.3403  154.4023 C   0  0  0  0  0  0  0  0  0  0  0  0
  148.1740  140.3921  154.5393 N   0  0  0  0  0  0  0  0  0  0  0  0
  147.8213  140.9519  155.7316 C   0  0  0  0  0  0  0  0  0  0  0  0
  153.7838  142.8983  159.7953 H   0  0  0  0  0  0  0  0  0  0  0  0
  153.1306  143.5327  157.5334 H   0  0  0  0  0  0  0  0  0  0  0  0
  143.4738  139.2949  157.8253 H   0  0  0  0  0  0  0  0  0  0  0  0
  144.1784  137.8183  158.4755 H   0  0  0  0  0  0  0  0  0  0  0  0
  143.1898  137.7477  157.0243 H   0  0  0  0  0  0  0  0  0  0  0  0
  145.9400  139.0616  157.3233 H   0  0  0  0  0  0  0  0  0  0  0  0
  146.8228  136.6734  154.6438 H   0  0  0  0  0  0  0  0  0  0  0  0
  145.0642  136.7512  154.4927 H   0  0  0  0  0  0  0  0  0  0  0  0
  147.0145  139.0762  154.6491 H   0  0  0  0  0  0  0  0  0  0  0  0
  145.7842  138.8302  153.4099 H   0  0  0  0  0  0  0  0  0  0  0  0
  143.5873  139.8313  154.1710 H   0  0  0  0  0  0  0  0  0  0  0  0
  145.2399  141.4063  154.6338 H   0  0  0  0  0  0  0  0  0  0  0  0
  144.4829  141.3371  156.2041 H   0  0  0  0  0  0  0  0  0  0  0  0
  145.9224  142.0610  158.0993 H   0  0  0  0  0  0  0  0  0  0  0  0
  150.5760  140.8556  159.1853 H   0  0  0  0  0  0  0  0  0  0  0  0
  151.4156  139.7592  158.0997 H   0  0  0  0  0  0  0  0  0  0  0  0
  152.9080  140.5475  159.9553 H   0  0  0  0  0  0  0  0  0  0  0  0
  153.5200  140.9636  158.3736 H   0  0  0  0  0  0  0  0  0  0  0  0
  151.1794  144.3956  161.8016 H   0  0  0  0  0  0  0  0  0  0  0  0
  152.9271  144.3077  161.6559 H   0  0  0  0  0  0  0  0  0  0  0  0
  152.2499  145.6710  158.0321 H   0  0  0  0  0  0  0  0  0  0  0  0
  150.8052  143.7190  156.7943 H   0  0  0  0  0  0  0  0  0  0  0  0
  150.2030  143.2619  158.3679 H   0  0  0  0  0  0  0  0  0  0  0  0
  149.8585  139.9135  153.4771 H   0  0  0  0  0  0  0  0  0  0  0  0
  1  2  1  0  0  0  0
  1 31  1  0  0  0  0
  1 32  1  0  0  0  0
  1 33  1  0  0  0  0
  2  6  1  0  0  0  0
  2  3  1  0  0  0  0
  2 34  1  0  0  0  0
  3  4  1  0  0  0  0
  4  5  1  0  0  0  0
  4 35  1  0  0  0  0
  4 36  1  0  0  0  0
  5  6  1  0  0  0  0
  5 37  1  0  0  0  0
  5 38  1  0  0  0  0
  6  7  1  0  0  0  0
  6  8  1  0  0  0  0
  7 39  1  0  0  0  0
  8  9  1  0  0  0  0
  8 40  1  0  0  0  0
  8 41  1  0  0  0  0
  9 28  1  0  0  0  0
  9 10  1  0  0  0  0
 10 11  2  0  0  0  0
 10 42  1  0  0  0  0
 11 12  1  0  0  0  0
 12 28  2  0  0  0  0
 12 13  1  0  0  0  0
 13 14  1  0  0  0  0
 13 25  2  0  0  0  0
 14 24  1  0  0  0  0
 14 15  1  0  0  0  0
 15 16  1  0  0  0  0
 15 43  1  0  0  0  0
 15 44  1  0  0  0  0
 16 17  1  0  0  0  0
 16 45  1  0  0  0  0
 16 46  1  0  0  0  0
 17 29  1  0  0  0  0
 17 23  1  0  0  0  0
 17 18  1  0  0  0  0
 18 19  1  0  0  0  0
 19 20  1  0  0  0  0
 19 47  1  0  0  0  0
 19 48  1  0  0  0  0
 20 21  2  0  0  0  0
 20 22  1  0  0  0  0
 22 23  1  0  0  0  0
 22 49  1  0  0  0  0
 23 30  1  0  0  0  0
 23 24  1  0  0  0  0
 24 50  1  0  0  0  0
 24 51  1  0  0  0  0
 25 26  1  0  0  0  0
 26 27  2  0  0  0  0
 26 52  1  0  0  0  0
 27 28  1  0  0  0  0
M  END
> <s_m_source_file>
AV-unprocessed.smi

> <i_m_source_file_index>
265

> <i_lp_mmshare_version>
43012

> <i_f3d_flags>
0

> <s_epik_input>
W0NIMl0xW0NIMl1PW0NAQEhdKFtDSDNdKVtDQEBdMShbT0hdKVtDSDJdbihbY0hdbjIpYyhjMjMpbltjSF1uYzNOKFtDSDJdW0NIMl00KVtDSDJdW0NAQEhdKFtDQEhdNDUpW05IXUMoPU8pW0NIMl1PNQ==

> <s_epik_cmdline>
J2VwaWtfcHl0aG9uJywgJy1waCcsICc3LjAnLCAnLXRuJywgJzgnLCAnLW1hJywgJzIwMCcsICctbWV0YWxfYmluZGluZycsICctaW1hZScsICc8aW5maWxlLm1hZT4nLCAnLW9tYWUnLCAnPG91dGZpbGUubWFlPic=

> <r_lp_tautomer_probability>
1

> <r_epik_Ionization_Penalty>
0.00221504

> <r_epik_Ionization_Penalty_Charging>
0

> <r_epik_Ionization_Penalty_Neutral>
0.00221504

> <r_epik_State_Penalty>
-0

> <r_epik_Charging_Adjusted_Penalty>
0

> <i_epik_Tot_Q>
0

> <i_epik_Tot_abs_Q>
0

> <r_epik_Metal_State_Penalty>
-0

> <b_epik_Metal_Only>
0

> <s_lp_Force_Field>
OPLS_2005

> <r_lp_Energy>
44.7189

> <b_lp_Chiralities_Consistent>
1

> <s_lp_Variant>
AV-unprocessed.smi:265-10

> <Gold.Version>
5.8.1

> <Gold.Id.Protein>
6NUR|6NUR_protein|mol2

> <Gold.PLP.Fitness>
44.0950

> <Gold.PLP.PLP>
-37.9622

> <Gold.PLP.part.hbond>
-4.2367

> <Gold.PLP.part.metal>
0.0000

> <Gold.PLP.part.buried>
-7.7716

> <Gold.PLP.part.nonpolar>
-27.9940

> <Gold.PLP.part.repulsive>
1.1288

> <Gold.PLP.ligand.clash>
0.0000

> <Gold.PLP.ligand.torsion>
0.3161

> <Gold.PLP.Chemscore.Hbond>
1.1348

> <Gold.PLP.Chemscore.CHOScore>
1.0000

> <Gold.PLP.Chemscore.Metal>
0.0000

> <Gold.Chemscore.Hbonds>
donor molecule, donor type, donor heavy atom, donor atom, acceptor molecule, acceptor atom, score
      L1  H     7    39       P1 10175  1.00
      P1  H  7989  7998       L1    25  0.13
      L1  C    26    52       P1  7957  1.00

> <Gold.PLP.Chemscore.Internal.Correction>
0.3607

> <Gold.Rescore>
     Score         DG    S(hbond)    S(metal)    S(lipo)     H(rot)  DE(clash)    DE(int)     intcor
      8.91     -10.80       1.00        0.00      66.00       2.25       0.22       1.66       ----

> <Gold.Chemscore.Fitness>
8.9077

> <Gold.Chemscore.DG>
-10.7956

> <Gold.Chemscore.ZeroCoef>
-5.4800

> <Gold.Chemscore.Hbond>
1.0004

> <Gold.Chemscore.Metal>
0.0000

> <Gold.Chemscore.Lipo>
66.0003

> <Gold.Chemscore.Internal_Hbond>
0.0000

> <Gold.Chemscore.DEClash>
0.2234

> <Gold.Chemscore.DEInternal>
1.6644

> <Gold.Chemscore.Rot>
2.2453

> <Gold.Chemscore.Internal.Correction>
   9.000000E+99

> <Gold.Chemscore.Hbonds>
donor molecule, donor type, donor heavy atom, donor atom, acceptor molecule, acceptor atom, score
      L1  H     7    39       P1 10175  0.99

> <Gold.Chemscore.Hbond.Weighted>
-3.3414

> <Gold.Chemscore.Metal.Weighted>
-0.0000

> <Gold.Chemscore.Lipo.Weighted>
-7.7220

> <Gold.Chemscore.Internal_Hbond.Weighted>
0.0000

> <Gold.Chemscore.DEClash.Weighted>
0.2234

> <Gold.Chemscore.DEInternal.Weighted>
1.6644

> <Gold.Chemscore.Rot.Weighted>
5.7479

> <Gold.Chemscore.Internal.Correction.Weighted>
   9.000000E+99

> <Gold.Protein.RotatedTorsions>
[ 6907 6896 6895 6894 ] final  -76.02 input  -60.11 | X-H torsion
[ 7974 7965 7964 7962 ] final -141.92 input  175.53 | X-H torsion
[ 8008 7997 7996 7995 ] final   68.96 input   59.86 | X-H torsion
[ 10167 10162 10161 10158 ] final -158.15 input  -65.29 | X-H torsion
[ 10718 10713 10712 10709 ] final -173.27 input   66.30 | X-H torsion
[ 10763 10752 10751 10750 ] final   55.63 input  -60.55 | X-H torsion
[ 11005 11000 10999 10996 ] final -153.90 input  -57.11 | X-H torsion

> <Gold.Protein.ActiveResidues>
 VAL166  LYS551  ARG553  GLY616  TRP617  ASP618  TYR619  PRO620  LYS621  CYS622 
 ASP623  PHE694  ASN695  SER759  ASP760  ASP761  ALA762  ILE779  LEU786  VAL792 
 PHE793  MET794  SER795  GLU796  ALA797  LYS798  CYS799  TRP800  GLU811  SER814 

> <Gold.Protein.RotatedAtoms>
  150.7040  134.4634  159.5390 H   0  0  0  0  0  0  0  0  0  0  0  0  # atno 6907 bound_to 6896
  152.2304  134.8324  160.0483 H   0  0  0  0  0  0  0  0  0  0  0  0  # atno 6908 bound_to 6896
  151.9142  133.3534  159.3911 H   0  0  0  0  0  0  0  0  0  0  0  0  # atno 6909 bound_to 6896
  144.8482  140.6021  143.5407 H   0  0  0  0  0  0  0  0  0  0  0  0  # atno 7974 bound_to 7965
  155.7164  140.3494  155.4996 H   0  0  0  0  0  0  0  0  0  0  0  0  # atno 8008 bound_to 7997
  155.9310  140.1084  157.1154 H   0  0  0  0  0  0  0  0  0  0  0  0  # atno 8009 bound_to 7997
  154.4085  140.1231  156.4789 H   0  0  0  0  0  0  0  0  0  0  0  0  # atno 8010 bound_to 7997
  139.6714  143.9738  152.2286 H   0  0  0  0  0  0  0  0  0  0  0  0  # atno 10167 bound_to 10162
  156.7678  130.9437  151.3119 H   0  0  0  0  0  0  0  0  0  0  0  0  # atno 10718 bound_to 10713
  152.9819  135.5704  154.5098 H   0  0  0  0  0  0  0  0  0  0  0  0  # atno 10763 bound_to 10752
  154.4604  135.2781  155.1719 H   0  0  0  0  0  0  0  0  0  0  0  0  # atno 10764 bound_to 10752
  154.3309  135.6249  153.5604 H   0  0  0  0  0  0  0  0  0  0  0  0  # atno 10765 bound_to 10752
  140.7031  134.3915  157.5207 H   0  0  0  0  0  0  0  0  0  0  0  0  # atno 11005 bound_to 11000
  145.4553  139.1519  143.3896 LP  0  0  0  0  0  0  0  0  0  0  0  0  # atno 17320 bound_to 7965
  146.2763  140.4680  142.8794 LP  0  0  0  0  0  0  0  0  0  0  0  0  # atno 17321 bound_to 7965
  139.9503  144.6624  150.8178 LP  0  0  0  0  0  0  0  0  0  0  0  0  # atno 17342 bound_to 10162
  140.7619  143.3186  151.2674 LP  0  0  0  0  0  0  0  0  0  0  0  0  # atno 17343 bound_to 10162
  157.6705  130.9046  150.0029 LP  0  0  0  0  0  0  0  0  0  0  0  0  # atno 17370 bound_to 10713
  156.1297  130.3643  149.9751 LP  0  0  0  0  0  0  0  0  0  0  0  0  # atno 17371 bound_to 10713
  139.8891  134.8838  156.2437 LP  0  0  0  0  0  0  0  0  0  0  0  0  # atno 17394 bound_to 11000
  141.0147  133.7075  156.1169 LP  0  0  0  0  0  0  0  0  0  0  0  0  # atno 17395 bound_to 11000

$$$$
