AV-unprocessed.smi:2706|AV-procd|sdf|10448|dock7
  -GOLD-   2272014493D 1   1.00000     0.00000
 Structure written by MMmdl.
 44 47  0  0  0  0  0  0  0  0  2 V2000
  145.6068  143.9110  153.3511 C   0  0  0  0  0  0  0  0  0  0  0  0
  145.9526  143.0451  154.4710 N   0  0  0  0  0  0  0  0  0  0  0  0
  145.4045  143.3109  155.7966 C   0  0  0  0  0  0  0  0  0  0  0  0
  146.6743  141.8554  154.2366 C   0  0  0  0  0  0  0  0  0  0  0  0
  148.0215  141.6756  154.6305 C   0  0  0  0  0  0  0  0  0  0  0  0
  148.6689  140.4555  154.3573 C   0  0  0  0  0  0  0  0  0  0  0  0
  147.9680  139.4285  153.6957 C   0  0  0  0  0  0  0  0  0  0  0  0
  146.6194  139.6397  153.3141 C   0  0  0  0  0  0  0  0  0  0  0  0
  145.7966  138.6924  152.6425 N   0  0  0  0  0  0  0  0  0  0  0  0
  145.8256  137.3478  152.6817 C   0  0  0  0  0  0  0  0  0  0  0  0
  146.6096  136.6676  153.3424 O   0  0  0  0  0  0  0  0  0  0  0  0
  144.8757  136.8232  151.8943 N   0  0  0  0  0  0  0  0  0  0  0  0
  144.6292  135.4298  151.7067 C   0  0  2  0  0  0  0  0  0  0  0  0
  145.7960  134.5814  151.2448 C   0  0  1  0  0  0  0  0  0  0  0  0
  145.8600  133.0566  151.1925 C   0  0  1  0  0  0  0  0  0  0  0  0
  144.6372  132.4197  151.8847 C   0  0  0  0  0  0  0  0  0  0  0  0
  143.4889  132.7551  150.9072 C   0  0  0  0  0  0  0  0  0  0  0  0
  144.2170  133.5366  149.7941 C   0  0  2  0  0  0  0  0  0  0  0  0
  145.5385  132.7772  149.7279 C   0  0  0  0  0  0  0  0  0  0  0  0
  144.6664  134.9114  150.2837 C   0  0  1  0  0  0  0  0  0  0  0  0
  146.0490  140.8322  153.6041 N   0  3  0  0  0  0  0  0  0  0  0  0
  145.0266  143.3628  152.6080 H   0  0  0  0  0  0  0  0  0  0  0  0
  146.5068  144.3007  152.8743 H   0  0  0  0  0  0  0  0  0  0  0  0
  145.0093  144.7624  153.6778 H   0  0  0  0  0  0  0  0  0  0  0  0
  144.6810  142.5430  156.0723 H   0  0  0  0  0  0  0  0  0  0  0  0
  144.8973  144.2755  155.8297 H   0  0  0  0  0  0  0  0  0  0  0  0
  146.1973  143.3283  156.5451 H   0  0  0  0  0  0  0  0  0  0  0  0
  148.5699  142.4540  155.1396 H   0  0  0  0  0  0  0  0  0  0  0  0
  149.6970  140.3082  154.6541 H   0  0  0  0  0  0  0  0  0  0  0  0
  148.4887  138.5049  153.4998 H   0  0  0  0  0  0  0  0  0  0  0  0
  145.0894  139.0924  152.0436 H   0  0  0  0  0  0  0  0  0  0  0  0
  144.2758  137.4563  151.3859 H   0  0  0  0  0  0  0  0  0  0  0  0
  143.9141  134.9749  152.3878 H   0  0  0  0  0  0  0  0  0  0  0  0
  146.7421  135.0837  151.0492 H   0  0  0  0  0  0  0  0  0  0  0  0
  146.8203  132.6710  151.5357 H   0  0  0  0  0  0  0  0  0  0  0  0
  144.7617  131.3391  151.9686 H   0  0  0  0  0  0  0  0  0  0  0  0
  144.4738  132.8095  152.8897 H   0  0  0  0  0  0  0  0  0  0  0  0
  143.0480  131.8397  150.5101 H   0  0  0  0  0  0  0  0  0  0  0  0
  142.6866  133.3306  151.3697 H   0  0  0  0  0  0  0  0  0  0  0  0
  143.6701  133.5914  148.8524 H   0  0  0  0  0  0  0  0  0  0  0  0
  146.2570  133.2210  149.0362 H   0  0  0  0  0  0  0  0  0  0  0  0
  145.4256  131.7161  149.4962 H   0  0  0  0  0  0  0  0  0  0  0  0
  144.9126  135.6179  149.4927 H   0  0  0  0  0  0  0  0  0  0  0  0
  145.0783  140.9777  153.3277 H   0  0  0  0  0  0  0  0  0  0  0  0
  1  2  1  0  0  0  0
  1 22  1  0  0  0  0
  1 23  1  0  0  0  0
  1 24  1  0  0  0  0
  2  3  1  0  0  0  0
  2  4  1  0  0  0  0
  3 25  1  0  0  0  0
  3 26  1  0  0  0  0
  3 27  1  0  0  0  0
  4 21  1  0  0  0  0
  4  5  2  0  0  0  0
  5  6  1  0  0  0  0
  5 28  1  0  0  0  0
  6  7  2  0  0  0  0
  6 29  1  0  0  0  0
  7  8  1  0  0  0  0
  7 30  1  0  0  0  0
  8  9  1  0  0  0  0
  8 21  2  0  0  0  0
  9 10  1  0  0  0  0
  9 31  1  0  0  0  0
 10 11  2  0  0  0  0
 10 12  1  0  0  0  0
 12 13  1  0  0  0  0
 12 32  1  0  0  0  0
 13 20  1  0  0  0  0
 13 14  1  0  0  0  0
 13 33  1  0  0  0  0
 14 20  1  0  0  0  0
 14 15  1  0  0  0  0
 14 34  1  0  0  0  0
 15 19  1  0  0  0  0
 15 16  1  0  0  0  0
 15 35  1  0  0  0  0
 16 17  1  0  0  0  0
 16 36  1  0  0  0  0
 16 37  1  0  0  0  0
 17 18  1  0  0  0  0
 17 38  1  0  0  0  0
 17 39  1  0  0  0  0
 18 19  1  0  0  0  0
 18 20  1  0  0  0  0
 18 40  1  0  0  0  0
 19 41  1  0  0  0  0
 19 42  1  0  0  0  0
 20 43  1  0  0  0  0
 21 44  1  0  0  0  0
M  CHG  1  21   1
M  END
> <s_m_source_file>
AV-unprocessed.smi

> <i_m_source_file_index>
2706

> <i_lp_mmshare_version>
43012

> <i_f3d_flags>
0

> <s_epik_input>
W0NIM11OKFtDSDNdKWMxW2NIXVtjSF1bY0hdYyhuMSlbTkhdQyg9TylbTkhdW0NASF0yW0NAQEhdM1tDQEBIXShbQ0gyXTQpW0NIMl1bQ0gyXVtDQEBIXTRbQ0BIXTIz

> <s_epik_cmdline>
J2VwaWtfcHl0aG9uJywgJy1waCcsICc3LjAnLCAnLXRuJywgJzgnLCAnLW1hJywgJzIwMCcsICctbWV0YWxfYmluZGluZycsICctaW1hZScsICc8aW5maWxlLm1hZT4nLCAnLW9tYWUnLCAnPG91dGZpbGUubWFlPic=

> <r_lp_tautomer_probability>
0.999994

> <r_epik_Ionization_Penalty>
1.8105

> <r_epik_Ionization_Penalty_Charging>
1.79227

> <r_epik_Ionization_Penalty_Neutral>
0.0182286

> <r_epik_State_Penalty>
1.90588

> <r_epik_Charging_Adjusted_Penalty>
3.69815

> <i_epik_Tot_Q>
1

> <i_epik_Tot_abs_Q>
1

> <r_epik_Metal_State_Penalty>
1.93501

> <b_epik_Metal_Only>
0

> <s_lp_Force_Field>
OPLS_2005

> <r_lp_Energy>
87.3902

> <b_lp_Chiralities_Consistent>
1

> <s_lp_Variant>
AV-unprocessed.smi:2706-5

> <Gold.Version>
5.8.1

> <Gold.Id.Protein>
6NUR|6NUR_protein|mol2

> <Gold.PLP.Fitness>
48.4748

> <Gold.PLP.PLP>
-40.8865

> <Gold.PLP.part.hbond>
-3.0000

> <Gold.PLP.part.metal>
0.0000

> <Gold.PLP.part.buried>
-2.5489

> <Gold.PLP.part.nonpolar>
-36.5145

> <Gold.PLP.part.repulsive>
1.9753

> <Gold.PLP.ligand.clash>
0.0000

> <Gold.PLP.ligand.torsion>
1.5857

> <Gold.PLP.Chemscore.Hbond>
3.5685

> <Gold.PLP.Chemscore.CHOScore>
0.0000

> <Gold.PLP.Chemscore.Metal>
0.0000

> <Gold.Chemscore.Hbonds>
donor molecule, donor type, donor heavy atom, donor atom, acceptor molecule, acceptor atom, score
      L1  H     9    31       P1 10175  0.61
      L1  H    12    32       P1 10171  1.00
      L1  H    21    44       P1 10175  2.00

> <Gold.PLP.Chemscore.Internal.Correction>
0.0543

> <Gold.Rescore>
     Score         DG    S(hbond)    S(metal)    S(lipo)     H(rot)  DE(clash)    DE(int)     intcor
     16.97     -20.28       2.19        0.00      85.84       1.00       1.50       1.81       ----

> <Gold.Chemscore.Fitness>
16.9683

> <Gold.Chemscore.DG>
-20.2759

> <Gold.Chemscore.ZeroCoef>
-5.4800

> <Gold.Chemscore.Hbond>
2.1894

> <Gold.Chemscore.Metal>
0.0000

> <Gold.Chemscore.Lipo>
85.8399

> <Gold.Chemscore.Internal_Hbond>
0.0000

> <Gold.Chemscore.DEClash>
1.4964

> <Gold.Chemscore.DEInternal>
1.8111

> <Gold.Chemscore.Rot>
1.0000

> <Gold.Chemscore.Internal.Correction>
   9.000000E+99

> <Gold.Chemscore.Hbonds>
donor molecule, donor type, donor heavy atom, donor atom, acceptor molecule, acceptor atom, score
      L1  H     9    31       P1 10175  0.59
      L1  H    12    32       P1 10171  0.94
      L1  H    21    44       P1 10175  0.53

> <Gold.Chemscore.Hbond.Weighted>
-7.3126

> <Gold.Chemscore.Metal.Weighted>
-0.0000

> <Gold.Chemscore.Lipo.Weighted>
-10.0433

> <Gold.Chemscore.Internal_Hbond.Weighted>
0.0000

> <Gold.Chemscore.DEClash.Weighted>
1.4964

> <Gold.Chemscore.DEInternal.Weighted>
1.8111

> <Gold.Chemscore.Rot.Weighted>
2.5600

> <Gold.Chemscore.Internal.Correction.Weighted>
   9.000000E+99

> <Gold.Protein.RotatedTorsions>
[ 6907 6896 6895 6894 ] final  -89.30 input  -60.11 | X-H torsion
[ 7974 7965 7964 7962 ] final  -54.82 input  175.53 | X-H torsion
[ 8008 7997 7996 7995 ] final -136.10 input   59.86 | X-H torsion
[ 10167 10162 10161 10158 ] final   -2.59 input  -65.29 | X-H torsion
[ 10718 10713 10712 10709 ] final  177.26 input   66.30 | X-H torsion
[ 10763 10752 10751 10750 ] final   66.24 input  -60.55 | X-H torsion
[ 11005 11000 10999 10996 ] final   30.54 input  -57.11 | X-H torsion

> <Gold.Protein.ActiveResidues>
 VAL166  LYS551  ARG553  GLY616  TRP617  ASP618  TYR619  PRO620  LYS621  CYS622 
 ASP623  PHE694  ASN695  SER759  ASP760  ASP761  ALA762  ILE779  LEU786  VAL792 
 PHE793  MET794  SER795  GLU796  ALA797  LYS798  CYS799  TRP800  GLU811  SER814 

> <Gold.Protein.RotatedAtoms>
  150.6873  134.2607  159.4548 H   0  0  0  0  0  0  0  0  0  0  0  0  # atno 6907 bound_to 6896
  152.0538  134.9635  160.0584 H   0  0  0  0  0  0  0  0  0  0  0  0  # atno 6908 bound_to 6896
  152.1089  133.4255  159.4658 H   0  0  0  0  0  0  0  0  0  0  0  0  # atno 6909 bound_to 6896
  145.8812  140.8143  142.9839 H   0  0  0  0  0  0  0  0  0  0  0  0  # atno 7974 bound_to 7965
  155.3896  140.0499  157.3041 H   0  0  0  0  0  0  0  0  0  0  0  0  # atno 8008 bound_to 7997
  154.5042  140.2168  155.9245 H   0  0  0  0  0  0  0  0  0  0  0  0  # atno 8009 bound_to 7997
  156.1505  140.3137  155.8646 H   0  0  0  0  0  0  0  0  0  0  0  0  # atno 8010 bound_to 7997
  140.6857  143.6639  150.8243 H   0  0  0  0  0  0  0  0  0  0  0  0  # atno 10167 bound_to 10162
  156.9080  130.9900  151.3025 H   0  0  0  0  0  0  0  0  0  0  0  0  # atno 10718 bound_to 10713
  153.0131  135.5327  154.6793 H   0  0  0  0  0  0  0  0  0  0  0  0  # atno 10763 bound_to 10752
  154.5957  135.2863  155.0590 H   0  0  0  0  0  0  0  0  0  0  0  0  # atno 10764 bound_to 10752
  154.1666  135.6539  153.5051 H   0  0  0  0  0  0  0  0  0  0  0  0  # atno 10765 bound_to 10752
  140.2933  134.2840  155.7771 H   0  0  0  0  0  0  0  0  0  0  0  0  # atno 11005 bound_to 11000
  144.6727  140.1386  143.7438 LP  0  0  0  0  0  0  0  0  0  0  0  0  # atno 17320 bound_to 7965
  145.9021  139.2437  143.1487 LP  0  0  0  0  0  0  0  0  0  0  0  0  # atno 17321 bound_to 7965
  140.0346  143.5409  152.2745 LP  0  0  0  0  0  0  0  0  0  0  0  0  # atno 17342 bound_to 10162
  139.6214  144.7629  151.2733 LP  0  0  0  0  0  0  0  0  0  0  0  0  # atno 17343 bound_to 10162
  157.5985  130.8495  149.8765 LP  0  0  0  0  0  0  0  0  0  0  0  0  # atno 17370 bound_to 10713
  156.0549  130.3710  150.1113 LP  0  0  0  0  0  0  0  0  0  0  0  0  # atno 17371 bound_to 10713
  141.2142  133.7599  156.9657 LP  0  0  0  0  0  0  0  0  0  0  0  0  # atno 17394 bound_to 11000
  140.1176  134.9437  157.2156 LP  0  0  0  0  0  0  0  0  0  0  0  0  # atno 17395 bound_to 11000

$$$$
