AV-unprocessed.smi:1084|AV-procd|sdf|4716|dock10
  -GOLD-   22720 3243D 1   1.00000     0.00000
 Structure written by MMmdl.
 52 54  0  0  0  0  0  0  0  0  1 V2000
  143.4255  137.3482  152.4445 C   0  0  0  0  0  0  0  0  0  0  0  0
  144.8257  136.7257  152.2091 C   0  0  2  0  0  0  0  0  0  0  0  0
  145.7423  137.7931  151.5505 C   0  0  0  0  0  0  0  0  0  0  0  0
  147.0494  137.8765  152.1937 N   0  0  0  0  0  0  0  0  0  0  0  0
  147.4594  138.8944  152.9613 C   0  0  0  0  0  0  0  0  0  0  0  0
  146.7775  139.8942  153.1862 O   0  0  0  0  0  0  0  0  0  0  0  0
  148.7039  138.6842  153.4225 N   0  0  0  0  0  0  0  0  0  0  0  0
  149.4477  139.4779  154.3356 C   0  0  0  0  0  0  0  0  0  0  0  0
  150.6234  138.9318  154.8882 C   0  0  0  0  0  0  0  0  0  0  0  0
  151.3611  139.6891  155.8174 C   0  0  0  0  0  0  0  0  0  0  0  0
  150.8878  140.9729  156.1739 C   0  0  0  0  0  0  0  0  0  0  0  0
  151.5684  141.7772  157.0973 N   0  0  0  0  0  0  0  0  0  0  0  0
  151.8060  141.1166  158.3738 C   0  0  0  0  0  0  0  0  0  0  0  0
  152.6704  142.0141  159.2764 C   0  0  0  0  0  0  0  0  0  0  0  0
  152.0461  143.2865  159.4259 O   0  0  0  0  0  0  0  0  0  0  0  0
  151.8887  143.9560  158.1777 C   0  0  0  0  0  0  0  0  0  0  0  0
  151.0005  143.1105  157.2491 C   0  0  0  0  0  0  0  0  0  0  0  0
  149.7572  141.4993  155.6569 N   0  0  0  0  0  0  0  0  0  0  0  0
  149.0551  140.7689  154.7647 C   0  0  0  0  0  0  0  0  0  0  0  0
  144.7652  135.4569  151.4470 N   0  0  0  0  0  0  0  0  0  0  0  0
  143.7155  134.5554  151.9361 C   0  0  0  0  0  0  0  0  0  0  0  0
  143.6609  133.2265  151.1633 C   0  0  0  0  0  0  0  0  0  0  0  0
  144.9251  132.5819  151.2318 O   0  0  0  0  0  0  0  0  0  0  0  0
  145.9645  133.3895  150.6969 C   0  0  0  0  0  0  0  0  0  0  0  0
  146.0353  134.7217  151.4632 C   0  0  0  0  0  0  0  0  0  0  0  0
  143.4742  138.3104  152.9528 H   0  0  0  0  0  0  0  0  0  0  0  0
  142.7975  136.7252  153.0799 H   0  0  0  0  0  0  0  0  0  0  0  0
  142.9013  137.5042  151.5010 H   0  0  0  0  0  0  0  0  0  0  0  0
  145.2470  136.5070  153.1917 H   0  0  0  0  0  0  0  0  0  0  0  0
  145.9472  137.5622  150.5065 H   0  0  0  0  0  0  0  0  0  0  0  0
  145.2460  138.7652  151.5727 H   0  0  0  0  0  0  0  0  0  0  0  0
  147.6763  137.0977  152.0558 H   0  0  0  0  0  0  0  0  0  0  0  0
  149.1836  137.8727  153.0614 H   0  0  0  0  0  0  0  0  0  0  0  0
  150.9606  137.9456  154.6037 H   0  0  0  0  0  0  0  0  0  0  0  0
  152.2686  139.2885  156.2449 H   0  0  0  0  0  0  0  0  0  0  0  0
  150.8540  140.9060  158.8627 H   0  0  0  0  0  0  0  0  0  0  0  0
  152.3037  140.1603  158.2083 H   0  0  0  0  0  0  0  0  0  0  0  0
  152.7879  141.5575  160.2592 H   0  0  0  0  0  0  0  0  0  0  0  0
  153.6714  142.1354  158.8591 H   0  0  0  0  0  0  0  0  0  0  0  0
  151.4317  144.9303  158.3513 H   0  0  0  0  0  0  0  0  0  0  0  0
  152.8644  144.1371  157.7237 H   0  0  0  0  0  0  0  0  0  0  0  0
  150.9152  143.5890  156.2727 H   0  0  0  0  0  0  0  0  0  0  0  0
  149.9949  143.0420  157.6655 H   0  0  0  0  0  0  0  0  0  0  0  0
  148.1469  141.2347  154.4153 H   0  0  0  0  0  0  0  0  0  0  0  0
  143.8687  134.3506  152.9967 H   0  0  0  0  0  0  0  0  0  0  0  0
  142.7352  135.0186  151.8405 H   0  0  0  0  0  0  0  0  0  0  0  0
  142.9034  132.5702  151.5919 H   0  0  0  0  0  0  0  0  0  0  0  0
  143.3840  133.3963  150.1216 H   0  0  0  0  0  0  0  0  0  0  0  0
  146.9101  132.8541  150.7820 H   0  0  0  0  0  0  0  0  0  0  0  0
  145.7904  133.5652  149.6341 H   0  0  0  0  0  0  0  0  0  0  0  0
  146.8269  135.3075  151.0011 H   0  0  0  0  0  0  0  0  0  0  0  0
  146.3395  134.5311  152.4936 H   0  0  0  0  0  0  0  0  0  0  0  0
  1  2  1  0  0  0  0
  1 26  1  0  0  0  0
  1 27  1  0  0  0  0
  1 28  1  0  0  0  0
  2  3  1  0  0  0  0
  2 20  1  0  0  0  0
  2 29  1  0  0  0  0
  3  4  1  0  0  0  0
  3 30  1  0  0  0  0
  3 31  1  0  0  0  0
  4  5  1  0  0  0  0
  4 32  1  0  0  0  0
  5  6  2  0  0  0  0
  5  7  1  0  0  0  0
  7  8  1  0  0  0  0
  7 33  1  0  0  0  0
  8 19  1  0  0  0  0
  8  9  2  0  0  0  0
  9 10  1  0  0  0  0
  9 34  1  0  0  0  0
 10 11  2  0  0  0  0
 10 35  1  0  0  0  0
 11 12  1  0  0  0  0
 11 18  1  0  0  0  0
 12 17  1  0  0  0  0
 12 13  1  0  0  0  0
 13 14  1  0  0  0  0
 13 36  1  0  0  0  0
 13 37  1  0  0  0  0
 14 15  1  0  0  0  0
 14 38  1  0  0  0  0
 14 39  1  0  0  0  0
 15 16  1  0  0  0  0
 16 17  1  0  0  0  0
 16 40  1  0  0  0  0
 16 41  1  0  0  0  0
 17 42  1  0  0  0  0
 17 43  1  0  0  0  0
 18 19  2  0  0  0  0
 19 44  1  0  0  0  0
 20 25  1  0  0  0  0
 20 21  1  0  0  0  0
 21 22  1  0  0  0  0
 21 45  1  0  0  0  0
 21 46  1  0  0  0  0
 22 23  1  0  0  0  0
 22 47  1  0  0  0  0
 22 48  1  0  0  0  0
 23 24  1  0  0  0  0
 24 25  1  0  0  0  0
 24 49  1  0  0  0  0
 24 50  1  0  0  0  0
 25 51  1  0  0  0  0
 25 52  1  0  0  0  0
M  END
> <s_m_source_file>
AV-unprocessed.smi

> <i_m_source_file_index>
1084

> <i_lp_mmshare_version>
43012

> <i_f3d_flags>
0

> <s_epik_input>
W0NIMl0xW0NIMl1PW0NIMl1bQ0gyXU4xW0NASF0oW0NIM10pW0NIMl1bTkhdQyg9TylbTkhdYzJbY0hdW2NIXWMobltjSF0yKU4zW0NIMl1bQ0gyXU9bQ0gyXVtDSDJdMw==

> <s_epik_cmdline>
J2VwaWtfcHl0aG9uJywgJy1waCcsICc3LjAnLCAnLXRuJywgJzgnLCAnLW1hJywgJzIwMCcsICctbWV0YWxfYmluZGluZycsICctaW1hZScsICc8aW5maWxlLm1hZT4nLCAnLW9tYWUnLCAnPG91dGZpbGUubWFlPic=

> <r_lp_tautomer_probability>
1

> <r_epik_Ionization_Penalty>
0.268053

> <r_epik_Ionization_Penalty_Charging>
0

> <r_epik_Ionization_Penalty_Neutral>
0.268053

> <r_epik_State_Penalty>
0.269834

> <r_epik_Charging_Adjusted_Penalty>
0.269834

> <i_epik_Tot_Q>
0

> <i_epik_Tot_abs_Q>
0

> <r_epik_Metal_State_Penalty>
0.268436

> <b_epik_Metal_Only>
0

> <s_lp_Force_Field>
OPLS_2005

> <r_lp_Energy>
46.8762

> <b_lp_Chiralities_Consistent>
1

> <s_lp_Variant>
AV-unprocessed.smi:1084-1

> <Gold.Version>
5.8.1

> <Gold.Id.Protein>
6NUR|6NUR_protein|mol2

> <Gold.PLP.Fitness>
47.9547

> <Gold.PLP.PLP>
-43.9293

> <Gold.PLP.part.hbond>
-3.0000

> <Gold.PLP.part.metal>
0.0000

> <Gold.PLP.part.buried>
-0.4230

> <Gold.PLP.part.nonpolar>
-41.3626

> <Gold.PLP.part.repulsive>
0.7469

> <Gold.PLP.ligand.clash>
0.0000

> <Gold.PLP.ligand.torsion>
0.9033

> <Gold.PLP.Chemscore.Hbond>
1.8960

> <Gold.PLP.Chemscore.CHOScore>
0.0000

> <Gold.PLP.Chemscore.Metal>
0.0000

> <Gold.Chemscore.Hbonds>
donor molecule, donor type, donor heavy atom, donor atom, acceptor molecule, acceptor atom, score
      L1  H     4    32       P1  7948  1.00
      L1  H     7    33       P1  7948  0.88

> <Gold.PLP.Chemscore.Internal.Correction>
0.1441

> <Gold.Rescore>
     Score         DG    S(hbond)    S(metal)    S(lipo)     H(rot)  DE(clash)    DE(int)     intcor
     15.66     -19.53       1.68        0.00     107.62       1.62       1.54       2.33       ----

> <Gold.Chemscore.Fitness>
15.6629

> <Gold.Chemscore.DG>
-19.5285

> <Gold.Chemscore.ZeroCoef>
-5.4800

> <Gold.Chemscore.Hbond>
1.6788

> <Gold.Chemscore.Metal>
0.0000

> <Gold.Chemscore.Lipo>
107.6181

> <Gold.Chemscore.Internal_Hbond>
0.0000

> <Gold.Chemscore.DEClash>
1.5390

> <Gold.Chemscore.DEInternal>
2.3266

> <Gold.Chemscore.Rot>
1.6211

> <Gold.Chemscore.Internal.Correction>
   9.000000E+99

> <Gold.Chemscore.Hbonds>
donor molecule, donor type, donor heavy atom, donor atom, acceptor molecule, acceptor atom, score
      L1  H     4    32       P1  7948  0.93
      L1  H     7    33       P1  7948  0.81

> <Gold.Chemscore.Hbond.Weighted>
-5.6072

> <Gold.Chemscore.Metal.Weighted>
-0.0000

> <Gold.Chemscore.Lipo.Weighted>
-12.5913

> <Gold.Chemscore.Internal_Hbond.Weighted>
0.0000

> <Gold.Chemscore.DEClash.Weighted>
1.5390

> <Gold.Chemscore.DEInternal.Weighted>
2.3266

> <Gold.Chemscore.Rot.Weighted>
4.1501

> <Gold.Chemscore.Internal.Correction.Weighted>
   9.000000E+99

> <Gold.Protein.RotatedTorsions>
[ 6907 6896 6895 6894 ] final   45.80 input  -60.11 | X-H torsion
[ 7974 7965 7964 7962 ] final -107.73 input  175.53 | X-H torsion
[ 8008 7997 7996 7995 ] final   98.51 input   59.86 | X-H torsion
[ 10167 10162 10161 10158 ] final  145.02 input  -65.29 | X-H torsion
[ 10718 10713 10712 10709 ] final  -69.50 input   66.30 | X-H torsion
[ 10763 10752 10751 10750 ] final   -0.60 input  -60.55 | X-H torsion
[ 11005 11000 10999 10996 ] final -150.45 input  -57.11 | X-H torsion

> <Gold.Protein.ActiveResidues>
 VAL166  LYS551  ARG553  GLY616  TRP617  ASP618  TYR619  PRO620  LYS621  CYS622 
 ASP623  PHE694  ASN695  SER759  ASP760  ASP761  ALA762  ILE779  LEU786  VAL792 
 PHE793  MET794  SER795  GLU796  ALA797  LYS798  CYS799  TRP800  GLU811  SER814 

> <Gold.Protein.RotatedAtoms>
  152.2488  134.8153  160.0448 H   0  0  0  0  0  0  0  0  0  0  0  0  # atno 6907 bound_to 6896
  151.8841  133.3496  159.3784 H   0  0  0  0  0  0  0  0  0  0  0  0  # atno 6908 bound_to 6896
  150.7077  134.4916  159.5562 H   0  0  0  0  0  0  0  0  0  0  0  0  # atno 6909 bound_to 6896
  145.2017  140.9059  143.3365 H   0  0  0  0  0  0  0  0  0  0  0  0  # atno 7974 bound_to 7965
  156.1012  140.3242  155.7944 H   0  0  0  0  0  0  0  0  0  0  0  0  # atno 8008 bound_to 7997
  155.4833  140.0555  157.2981 H   0  0  0  0  0  0  0  0  0  0  0  0  # atno 8009 bound_to 7997
  154.4698  140.2006  156.0039 H   0  0  0  0  0  0  0  0  0  0  0  0  # atno 8010 bound_to 7997
  139.4935  144.5931  151.6639 H   0  0  0  0  0  0  0  0  0  0  0  0  # atno 10167 bound_to 10162
  156.0452  130.4314  150.2156 H   0  0  0  0  0  0  0  0  0  0  0  0  # atno 10718 bound_to 10713
  153.3340  135.6977  153.6923 H   0  0  0  0  0  0  0  0  0  0  0  0  # atno 10763 bound_to 10752
  153.5715  135.3515  155.2840 H   0  0  0  0  0  0  0  0  0  0  0  0  # atno 10764 bound_to 10752
  154.8624  135.4273  154.2536 H   0  0  0  0  0  0  0  0  0  0  0  0  # atno 10765 bound_to 10752
  140.7400  134.3525  157.5149 H   0  0  0  0  0  0  0  0  0  0  0  0  # atno 11005 bound_to 11000
  144.9941  139.3661  143.6200 LP  0  0  0  0  0  0  0  0  0  0  0  0  # atno 17320 bound_to 7965
  146.3416  139.9136  142.8776 LP  0  0  0  0  0  0  0  0  0  0  0  0  # atno 17321 bound_to 7965
  140.5563  144.0343  150.6149 LP  0  0  0  0  0  0  0  0  0  0  0  0  # atno 17342 bound_to 10162
  140.3414  143.3017  152.0584 LP  0  0  0  0  0  0  0  0  0  0  0  0  # atno 17343 bound_to 10162
  157.0247  130.9989  151.3329 LP  0  0  0  0  0  0  0  0  0  0  0  0  # atno 17370 bound_to 10713
  157.5320  130.8064  149.7927 LP  0  0  0  0  0  0  0  0  0  0  0  0  # atno 17371 bound_to 10713
  139.8808  134.9075  156.2945 LP  0  0  0  0  0  0  0  0  0  0  0  0  # atno 17394 bound_to 11000
  140.9845  133.7247  156.0721 LP  0  0  0  0  0  0  0  0  0  0  0  0  # atno 17395 bound_to 11000

$$$$
