AV-unprocessed.smi:37|AV-procd|sdf|333|dock3
  -GOLD-   2262016163D 1   1.00000     0.00000
 Structure written by MMmdl.
 43 44  0  0  0  0  0  0  0  0  2 V2000
  145.9210  143.5063  153.8237 C   0  0  0  0  0  0  0  0  0  0  0  0
  146.5948  142.1256  153.8069 C   0  0  0  0  0  0  0  0  0  0  0  0
  147.3986  141.8211  155.0729 C   0  0  0  0  0  0  0  0  0  0  0  0
  146.8722  141.7444  156.1842 O   0  0  0  0  0  0  0  0  0  0  0  0
  148.7082  141.6611  154.8091 O   0  0  0  0  0  0  0  0  0  0  0  0
  149.6273  141.3733  155.8546 C   0  0  0  0  0  0  0  0  0  0  0  0
  150.7896  140.5048  155.3344 C   0  0  2  0  0  0  0  0  0  0  0  0
  150.2541  139.2571  154.8878 O   0  0  0  0  0  0  0  0  0  0  0  0
  151.0721  138.2227  155.3293 C   0  0  2  0  0  0  0  0  0  0  0  0
  150.2976  136.9261  155.3851 N   0  0  0  0  0  0  0  0  0  0  0  0
  148.9745  136.8570  154.9806 C   0  0  0  0  0  0  0  0  0  0  0  0
  148.2869  135.6984  155.0368 C   0  0  0  0  0  0  0  0  0  0  0  0
  147.0022  135.6630  154.6429 F   0  0  0  0  0  0  0  0  0  0  0  0
  148.9452  134.4895  155.5293 C   0  0  0  0  0  0  0  0  0  0  0  0
  148.3139  133.4349  155.5762 O   0  0  0  0  0  0  0  0  0  0  0  0
  150.2491  134.5874  155.9203 N   0  5  0  0  0  0  0  0  0  0  0  0
  150.9481  135.7589  155.8675 C   0  0  0  0  0  0  0  0  0  0  0  0
  152.1237  135.8595  156.2201 O   0  0  0  0  0  0  0  0  0  0  0  0
  151.5776  138.6727  156.6964 C   0  0  2  0  0  0  0  0  0  0  0  0
  150.1590  138.4976  158.0962 Br  0  0  0  0  0  0  0  0  0  0  0  0
  151.8531  140.1392  156.3949 C   0  0  2  0  0  0  0  0  0  0  0  0
  151.8267  140.9607  157.5581 O   0  0  0  0  0  0  0  0  0  0  0  0
  152.6517  140.7088  158.5896 C   0  0  0  0  0  0  0  0  0  0  0  0
  153.5814  139.9002  158.5855 O   0  0  0  0  0  0  0  0  0  0  0  0
  152.3019  141.5517  159.8176 C   0  0  0  0  0  0  0  0  0  0  0  0
  153.4533  142.4486  160.2966 C   0  0  0  0  0  0  0  0  0  0  0  0
  145.3545  143.6677  152.9066 H   0  0  0  0  0  0  0  0  0  0  0  0
  146.6557  144.3084  153.9028 H   0  0  0  0  0  0  0  0  0  0  0  0
  145.2272  143.5997  154.6601 H   0  0  0  0  0  0  0  0  0  0  0  0
  145.8373  141.3511  153.6848 H   0  0  0  0  0  0  0  0  0  0  0  0
  147.2616  142.0525  152.9475 H   0  0  0  0  0  0  0  0  0  0  0  0
  150.0144  142.3335  156.1951 H   0  0  0  0  0  0  0  0  0  0  0  0
  149.1412  140.9128  156.7159 H   0  0  0  0  0  0  0  0  0  0  0  0
  151.2816  141.0098  154.5023 H   0  0  0  0  0  0  0  0  0  0  0  0
  151.8709  138.0702  154.6003 H   0  0  0  0  0  0  0  0  0  0  0  0
  148.4683  137.7391  154.6212 H   0  0  0  0  0  0  0  0  0  0  0  0
  152.4579  138.1117  157.0111 H   0  0  0  0  0  0  0  0  0  0  0  0
  152.8272  140.2152  155.9082 H   0  0  0  0  0  0  0  0  0  0  0  0
  151.4325  142.1653  159.5799 H   0  0  0  0  0  0  0  0  0  0  0  0
  152.0027  140.8798  160.6226 H   0  0  0  0  0  0  0  0  0  0  0  0
  153.1545  143.0195  161.1757 H   0  0  0  0  0  0  0  0  0  0  0  0
  153.7497  143.1613  159.5262 H   0  0  0  0  0  0  0  0  0  0  0  0
  154.3296  141.8595  160.5692 H   0  0  0  0  0  0  0  0  0  0  0  0
  1  2  1  0  0  0  0
  1 27  1  0  0  0  0
  1 28  1  0  0  0  0
  1 29  1  0  0  0  0
  2  3  1  0  0  0  0
  2 30  1  0  0  0  0
  2 31  1  0  0  0  0
  3  4  2  0  0  0  0
  3  5  1  0  0  0  0
  5  6  1  0  0  0  0
  6  7  1  0  0  0  0
  6 32  1  0  0  0  0
  6 33  1  0  0  0  0
  7 21  1  0  0  0  0
  7  8  1  0  0  0  0
  7 34  1  0  0  0  0
  8  9  1  0  0  0  0
  9 10  1  0  0  0  0
  9 19  1  0  0  0  0
  9 35  1  0  0  0  0
 10 17  1  0  0  0  0
 10 11  1  0  0  0  0
 11 12  2  0  0  0  0
 11 36  1  0  0  0  0
 12 13  1  0  0  0  0
 12 14  1  0  0  0  0
 14 15  2  0  0  0  0
 14 16  1  0  0  0  0
 16 17  1  0  0  0  0
 17 18  2  0  0  0  0
 19 20  1  0  0  0  0
 19 21  1  0  0  0  0
 19 37  1  0  0  0  0
 21 22  1  0  0  0  0
 21 38  1  0  0  0  0
 22 23  1  0  0  0  0
 23 24  2  0  0  0  0
 23 25  1  0  0  0  0
 25 26  1  0  0  0  0
 25 39  1  0  0  0  0
 25 40  1  0  0  0  0
 26 41  1  0  0  0  0
 26 42  1  0  0  0  0
 26 43  1  0  0  0  0
M  CHG  1  16  -1
M  END
> <s_m_source_file>
AV-unprocessed.smi

> <i_m_source_file_index>
37

> <i_lp_mmshare_version>
43012

> <i_f3d_flags>
0

> <s_epik_input>
W0NIM11bQ0gyXUMoPU8pT1tDSDJdW0NAQEhdMU9bQ0BASF0objJbY0hdYyhGKWMoPU8pW25IXWMyPU8pW0NAQEhdKEJyKVtDQEhdMU9DKD1PKVtDSDJdW0NIM10=

> <s_epik_cmdline>
J2VwaWtfcHl0aG9uJywgJy1waCcsICc3LjAnLCAnLXRuJywgJzgnLCAnLW1hJywgJzIwMCcsICctbWV0YWxfYmluZGluZycsICctaW1hZScsICc8aW5maWxlLm1hZT4nLCAnLW9tYWUnLCAnPG91dGZpbGUubWFlPic=

> <r_epik_Ionization_Penalty>
1.08158

> <r_epik_Ionization_Penalty_Charging>
9.05154e-09

> <r_epik_Ionization_Penalty_Neutral>
1.08158

> <r_epik_State_Penalty>
1.13706

> <r_epik_Charging_Adjusted_Penalty>
1.13706

> <i_epik_Tot_Q>
-1

> <i_epik_Tot_abs_Q>
1

> <r_epik_Metal_State_Penalty>
0.00343535

> <b_epik_Metal_Only>
0

> <s_epik_Chemistry_Notes>
This compound has an ester and may undergo hydrolysis at high or low pH. This compound contains an acetal/aminal-like group ( X-CH(R)-Y where X, Y are N, S, or O) that may be acid/base labile, releasing an aldehyde.

> <s_lp_Force_Field>
OPLS_2005

> <r_lp_Energy>
37.8596

> <b_lp_Chiralities_Consistent>
1

> <s_lp_Variant>
AV-unprocessed.smi:37-31

> <Gold.Version>
5.8.1

> <Gold.Id.Protein>
6NUR|6NUR_protein|mol2

> <Gold.PLP.Fitness>
41.3947

> <Gold.PLP.PLP>
-35.7075

> <Gold.PLP.part.hbond>
-2.0000

> <Gold.PLP.part.metal>
0.0000

> <Gold.PLP.part.buried>
-4.0386

> <Gold.PLP.part.nonpolar>
-29.0949

> <Gold.PLP.part.repulsive>
0.3772

> <Gold.PLP.ligand.clash>
0.0000

> <Gold.PLP.ligand.torsion>
0.3059

> <Gold.PLP.Chemscore.Hbond>
2.0000

> <Gold.PLP.Chemscore.CHOScore>
0.0000

> <Gold.PLP.Chemscore.Metal>
0.0000

> <Gold.Chemscore.Hbonds>
donor molecule, donor type, donor heavy atom, donor atom, acceptor molecule, acceptor atom, score
      P1  H  7997  8009       L1    24  1.00
      P1  H 10752 10763       L1    18  1.00

> <Gold.PLP.Chemscore.Internal.Correction>
0.2989

> <Gold.Rescore>
     Score         DG    S(hbond)    S(metal)    S(lipo)     H(rot)  DE(clash)    DE(int)     intcor
      9.56     -11.47       1.92        0.00      67.99       3.27       0.44       1.47       ----

> <Gold.Chemscore.Fitness>
9.5581

> <Gold.Chemscore.DG>
-11.4677

> <Gold.Chemscore.ZeroCoef>
-5.4800

> <Gold.Chemscore.Hbond>
1.9151

> <Gold.Chemscore.Metal>
0.0000

> <Gold.Chemscore.Lipo>
67.9890

> <Gold.Chemscore.Internal_Hbond>
0.0000

> <Gold.Chemscore.DEClash>
0.4441

> <Gold.Chemscore.DEInternal>
1.4655

> <Gold.Chemscore.Rot>
3.2669

> <Gold.Chemscore.Internal.Correction>
   9.000000E+99

> <Gold.Chemscore.Hbonds>
donor molecule, donor type, donor heavy atom, donor atom, acceptor molecule, acceptor atom, score
      P1  H  7997  8009       L1    24  0.89
      P1  H 10752 10763       L1    18  0.94

> <Gold.Chemscore.Hbond.Weighted>
-6.3963

> <Gold.Chemscore.Metal.Weighted>
-0.0000

> <Gold.Chemscore.Lipo.Weighted>
-7.9547

> <Gold.Chemscore.Internal_Hbond.Weighted>
0.0000

> <Gold.Chemscore.DEClash.Weighted>
0.4441

> <Gold.Chemscore.DEInternal.Weighted>
1.4655

> <Gold.Chemscore.Rot.Weighted>
8.3634

> <Gold.Chemscore.Internal.Correction.Weighted>
   9.000000E+99

> <Gold.Protein.RotatedTorsions>
[ 6907 6896 6895 6894 ] final   27.21 input  -60.11 | X-H torsion
[ 7974 7965 7964 7962 ] final  118.56 input  175.53 | X-H torsion
[ 8008 7997 7996 7995 ] final  145.34 input   59.86 | X-H torsion
[ 10167 10162 10161 10158 ] final  124.00 input  -65.29 | X-H torsion
[ 10718 10713 10712 10709 ] final  163.29 input   66.30 | X-H torsion
[ 10763 10752 10751 10750 ] final  100.73 input  -60.55 | X-H torsion
[ 11005 11000 10999 10996 ] final   62.93 input  -57.11 | X-H torsion

> <Gold.Protein.ActiveResidues>
 VAL166  LYS551  ARG553  GLY616  TRP617  ASP618  TYR619  PRO620  LYS621  CYS622 
 ASP623  PHE694  ASN695  SER759  ASP760  ASP761  ALA762  ILE779  LEU786  VAL792 
 PHE793  MET794  SER795  GLU796  ALA797  LYS798  CYS799  TRP800  GLU811  SER814 

> <Gold.Protein.RotatedAtoms>
  151.9989  134.9939  160.0564 H   0  0  0  0  0  0  0  0  0  0  0  0  # atno 6907 bound_to 6896
  152.1538  133.4534  159.4835 H   0  0  0  0  0  0  0  0  0  0  0  0  # atno 6908 bound_to 6896
  150.6879  134.2074  159.4389 H   0  0  0  0  0  0  0  0  0  0  0  0  # atno 6909 bound_to 6896
  145.1537  139.3195  143.4553 H   0  0  0  0  0  0  0  0  0  0  0  0  # atno 7974 bound_to 7965
  156.2885  140.2211  156.5200 H   0  0  0  0  0  0  0  0  0  0  0  0  # atno 8008 bound_to 7997
  154.7537  140.0478  157.0937 H   0  0  0  0  0  0  0  0  0  0  0  0  # atno 8009 bound_to 7997
  155.0078  140.3109  155.4845 H   0  0  0  0  0  0  0  0  0  0  0  0  # atno 8010 bound_to 7997
  139.5767  144.6967  151.3635 H   0  0  0  0  0  0  0  0  0  0  0  0  # atno 10167 bound_to 10162
  157.1106  131.0467  151.2459 H   0  0  0  0  0  0  0  0  0  0  0  0  # atno 10718 bound_to 10713
  153.3177  135.4069  155.1390 H   0  0  0  0  0  0  0  0  0  0  0  0  # atno 10763 bound_to 10752
  154.8592  135.3580  154.5638 H   0  0  0  0  0  0  0  0  0  0  0  0  # atno 10764 bound_to 10752
  153.6070  135.7069  153.5420 H   0  0  0  0  0  0  0  0  0  0  0  0  # atno 10765 bound_to 10752
  140.0059  134.6371  155.9857 H   0  0  0  0  0  0  0  0  0  0  0  0  # atno 11005 bound_to 11000
  146.3491  140.1621  142.8590 LP  0  0  0  0  0  0  0  0  0  0  0  0  # atno 17320 bound_to 7965
  145.0403  140.8940  143.5056 LP  0  0  0  0  0  0  0  0  0  0  0  0  # atno 17321 bound_to 7965
  140.7049  143.7539  150.7465 LP  0  0  0  0  0  0  0  0  0  0  0  0  # atno 17342 bound_to 10162
  140.1061  143.4743  152.2397 LP  0  0  0  0  0  0  0  0  0  0  0  0  # atno 17343 bound_to 10162
  157.4563  130.7627  149.7195 LP  0  0  0  0  0  0  0  0  0  0  0  0  # atno 17370 bound_to 10713
  155.9851  130.3985  150.3276 LP  0  0  0  0  0  0  0  0  0  0  0  0  # atno 17371 bound_to 10713
  141.1676  133.6537  156.4535 LP  0  0  0  0  0  0  0  0  0  0  0  0  # atno 17394 bound_to 11000
  140.4643  134.6812  157.5100 LP  0  0  0  0  0  0  0  0  0  0  0  0  # atno 17395 bound_to 11000

$$$$
