AV-unprocessed.smi:1806|AV-procd|sdf|7299|dock5
  -GOLD-   22720 8553D 1   1.00000     0.00000
 Structure written by MMmdl.
 28 29  0  0  0  0  0  0  0  0  1 V2000
  152.9580  143.2005  162.2622 C   0  0  0  0  0  0  0  0  0  0  0  0
  152.4891  143.6156  160.8837 C   0  0  0  0  0  0  0  0  0  0  0  0
  152.1337  144.9511  160.6101 C   0  0  0  0  0  0  0  0  0  0  0  0
  151.7067  145.2699  159.3087 C   0  0  0  0  0  0  0  0  0  0  0  0
  151.6550  144.2481  158.3410 C   0  0  0  0  0  0  0  0  0  0  0  0
  152.0301  142.9332  158.6974 C   0  0  0  0  0  0  0  0  0  0  0  0
  151.9423  141.9782  157.6502 N   0  0  0  0  0  0  0  0  0  0  0  0
  152.1304  140.6453  157.7105 C   0  0  0  0  0  0  0  0  0  0  0  0
  152.4225  140.0373  158.7419 O   0  0  0  0  0  0  0  0  0  0  0  0
  151.9455  140.0231  156.4047 C   0  0  0  0  0  0  0  0  0  0  0  0
  150.8926  140.3870  155.6365 C   0  0  0  0  0  0  0  0  0  0  0  0
  150.6133  139.8316  154.4129 O   0  0  0  0  0  0  0  0  0  0  0  0
  151.3600  138.6595  154.1093 C   0  0  0  0  0  0  0  0  0  0  0  0
  152.8185  138.8234  154.5610 C   0  0  0  0  0  0  0  0  0  0  0  0
  152.8727  139.1083  155.9548 O   0  0  0  0  0  0  0  0  0  0  0  0
  152.4396  142.6358  159.9559 N   0  0  0  0  0  0  0  0  0  0  0  0
  152.8601  144.0188  162.9760 H   0  0  0  0  0  0  0  0  0  0  0  0
  154.0055  142.8992  162.2300 H   0  0  0  0  0  0  0  0  0  0  0  0
  152.3691  142.3587  162.6278 H   0  0  0  0  0  0  0  0  0  0  0  0
  152.1852  145.7125  161.3746 H   0  0  0  0  0  0  0  0  0  0  0  0
  151.4233  146.2811  159.0561 H   0  0  0  0  0  0  0  0  0  0  0  0
  151.3301  144.4763  157.3362 H   0  0  0  0  0  0  0  0  0  0  0  0
  151.7074  142.3492  156.7411 H   0  0  0  0  0  0  0  0  0  0  0  0
  150.1458  141.1151  155.9197 H   0  0  0  0  0  0  0  0  0  0  0  0
  150.9015  137.8035  154.6064 H   0  0  0  0  0  0  0  0  0  0  0  0
  151.3109  138.4723  153.0365 H   0  0  0  0  0  0  0  0  0  0  0  0
  153.3851  137.9143  154.3602 H   0  0  0  0  0  0  0  0  0  0  0  0
  153.3008  139.6316  154.0093 H   0  0  0  0  0  0  0  0  0  0  0  0
  1  2  1  0  0  0  0
  1 17  1  0  0  0  0
  1 18  1  0  0  0  0
  1 19  1  0  0  0  0
  2 16  1  0  0  0  0
  2  3  2  0  0  0  0
  3  4  1  0  0  0  0
  3 20  1  0  0  0  0
  4  5  2  0  0  0  0
  4 21  1  0  0  0  0
  5  6  1  0  0  0  0
  5 22  1  0  0  0  0
  6  7  1  0  0  0  0
  6 16  2  0  0  0  0
  7  8  1  0  0  0  0
  7 23  1  0  0  0  0
  8  9  2  0  0  0  0
  8 10  1  0  0  0  0
 10 15  1  0  0  0  0
 10 11  2  0  0  0  0
 11 12  1  0  0  0  0
 11 24  1  0  0  0  0
 12 13  1  0  0  0  0
 13 14  1  0  0  0  0
 13 25  1  0  0  0  0
 13 26  1  0  0  0  0
 14 15  1  0  0  0  0
 14 27  1  0  0  0  0
 14 28  1  0  0  0  0
M  END
> <s_m_source_file>
AV-unprocessed.smi

> <i_m_source_file_index>
1806

> <i_lp_mmshare_version>
43012

> <i_f3d_flags>
0

> <s_epik_input>
W0NIM11jMVtjSF1bY0hdW2NIXWMobjEpW05IXUMoPU8pQzI9W0NIXU9bQ0gyXVtDSDJdTzI=

> <s_epik_cmdline>
J2VwaWtfcHl0aG9uJywgJy1waCcsICc3LjAnLCAnLXRuJywgJzgnLCAnLW1hJywgJzIwMCcsICctbWV0YWxfYmluZGluZycsICctaW1hZScsICc8aW5maWxlLm1hZT4nLCAnLW9tYWUnLCAnPG91dGZpbGUubWFlPic=

> <r_lp_tautomer_probability>
1

> <r_epik_Ionization_Penalty>
0.000170398

> <r_epik_Ionization_Penalty_Charging>
0

> <r_epik_Ionization_Penalty_Neutral>
0.000170398

> <r_epik_State_Penalty>
-0

> <r_epik_Charging_Adjusted_Penalty>
0

> <i_epik_Tot_Q>
0

> <i_epik_Tot_abs_Q>
0

> <r_epik_Metal_State_Penalty>
0.0293809

> <b_epik_Metal_Only>
0

> <s_lp_Force_Field>
OPLS_2005

> <r_lp_Energy>
3.70878

> <b_lp_Chiralities_Consistent>
1

> <s_lp_Variant>
AV-unprocessed.smi:1806-1

> <Gold.Version>
5.8.1

> <Gold.Id.Protein>
6NUR|6NUR_protein|mol2

> <Gold.PLP.Fitness>
43.4135

> <Gold.PLP.PLP>
-39.7064

> <Gold.PLP.part.hbond>
-2.0000

> <Gold.PLP.part.metal>
0.0000

> <Gold.PLP.part.buried>
-5.1659

> <Gold.PLP.part.nonpolar>
-32.2980

> <Gold.PLP.part.repulsive>
0.1721

> <Gold.PLP.ligand.clash>
0.0000

> <Gold.PLP.ligand.torsion>
0.7720

> <Gold.PLP.Chemscore.Hbond>
1.7500

> <Gold.PLP.Chemscore.CHOScore>
0.0000

> <Gold.PLP.Chemscore.Metal>
0.0000

> <Gold.Chemscore.Hbonds>
donor molecule, donor type, donor heavy atom, donor atom, acceptor molecule, acceptor atom, score
      P1  H  7989  7998       L1    12  0.60
      P1  H  7997  8009       L1    15  0.85

> <Gold.PLP.Chemscore.Internal.Correction>
0.0012

> <Gold.Rescore>
     Score         DG    S(hbond)    S(metal)    S(lipo)     H(rot)  DE(clash)    DE(int)     intcor
     14.96     -17.07       0.23        0.00      92.46       0.00       0.29       1.82       ----

> <Gold.Chemscore.Fitness>
14.9600

> <Gold.Chemscore.DG>
-17.0743

> <Gold.Chemscore.ZeroCoef>
-5.4800

> <Gold.Chemscore.Hbond>
0.2324

> <Gold.Chemscore.Metal>
0.0000

> <Gold.Chemscore.Lipo>
92.4635

> <Gold.Chemscore.Internal_Hbond>
0.0000

> <Gold.Chemscore.DEClash>
0.2947

> <Gold.Chemscore.DEInternal>
1.8197

> <Gold.Chemscore.Rot>
0.0000

> <Gold.Chemscore.Internal.Correction>
   9.000000E+99

> <Gold.Chemscore.Hbonds>
donor molecule, donor type, donor heavy atom, donor atom, acceptor molecule, acceptor atom, score
      P1  H  7989  7998       L1    12  0.01
      P1  H  7997  8009       L1    15  0.09

> <Gold.Chemscore.Hbond.Weighted>
-0.7761

> <Gold.Chemscore.Metal.Weighted>
-0.0000

> <Gold.Chemscore.Lipo.Weighted>
-10.8182

> <Gold.Chemscore.Internal_Hbond.Weighted>
0.0000

> <Gold.Chemscore.DEClash.Weighted>
0.2947

> <Gold.Chemscore.DEInternal.Weighted>
1.8197

> <Gold.Chemscore.Rot.Weighted>
0.0000

> <Gold.Chemscore.Internal.Correction.Weighted>
   9.000000E+99

> <Gold.Protein.RotatedTorsions>
[ 6907 6896 6895 6894 ] final   90.62 input  -60.11 | X-H torsion
[ 7974 7965 7964 7962 ] final  142.73 input  175.53 | X-H torsion
[ 8008 7997 7996 7995 ] final -157.00 input   59.86 | X-H torsion
[ 10167 10162 10161 10158 ] final  130.85 input  -65.29 | X-H torsion
[ 10718 10713 10712 10709 ] final   89.33 input   66.30 | X-H torsion
[ 10763 10752 10751 10750 ] final  -88.98 input  -60.55 | X-H torsion
[ 11005 11000 10999 10996 ] final  124.63 input  -57.11 | X-H torsion

> <Gold.Protein.ActiveResidues>
 VAL166  LYS551  ARG553  GLY616  TRP617  ASP618  TYR619  PRO620  LYS621  CYS622 
 ASP623  PHE694  ASN695  SER759  ASP760  ASP761  ALA762  ILE779  LEU786  VAL792 
 PHE793  MET794  SER795  GLU796  ALA797  LYS798  CYS799  TRP800  GLU811  SER814 

> <Gold.Protein.RotatedAtoms>
  152.5445  134.1783  159.8624 H   0  0  0  0  0  0  0  0  0  0  0  0  # atno 6907 bound_to 6896
  151.1787  133.4731  159.2601 H   0  0  0  0  0  0  0  0  0  0  0  0  # atno 6908 bound_to 6896
  151.1200  135.0086  159.8589 H   0  0  0  0  0  0  0  0  0  0  0  0  # atno 6909 bound_to 6896
  144.8982  139.5461  143.5766 H   0  0  0  0  0  0  0  0  0  0  0  0  # atno 7974 bound_to 7965
  155.7257  140.0795  157.2311 H   0  0  0  0  0  0  0  0  0  0  0  0  # atno 8008 bound_to 7997
  154.4039  140.1604  156.2507 H   0  0  0  0  0  0  0  0  0  0  0  0  # atno 8009 bound_to 7997
  155.9155  140.3401  155.6134 H   0  0  0  0  0  0  0  0  0  0  0  0  # atno 8010 bound_to 7997
  139.5411  144.6731  151.4623 H   0  0  0  0  0  0  0  0  0  0  0  0  # atno 10167 bound_to 10162
  157.6954  131.0329  150.3409 H   0  0  0  0  0  0  0  0  0  0  0  0  # atno 10718 bound_to 10713
  154.6504  135.5357  153.7894 H   0  0  0  0  0  0  0  0  0  0  0  0  # atno 10763 bound_to 10752
  153.0383  135.6481  154.1026 H   0  0  0  0  0  0  0  0  0  0  0  0  # atno 10764 bound_to 10752
  154.0944  135.2937  155.3245 H   0  0  0  0  0  0  0  0  0  0  0  0  # atno 10765 bound_to 10752
  139.9368  134.9639  156.8438 H   0  0  0  0  0  0  0  0  0  0  0  0  # atno 11005 bound_to 11000
  146.3093  139.7690  142.9032 LP  0  0  0  0  0  0  0  0  0  0  0  0  # atno 17320 bound_to 7965
  145.3663  141.0335  143.3256 LP  0  0  0  0  0  0  0  0  0  0  0  0  # atno 17321 bound_to 7965
  140.6641  143.8436  150.6921 LP  0  0  0  0  0  0  0  0  0  0  0  0  # atno 17342 bound_to 10162
  140.1840  143.4091  152.1912 LP  0  0  0  0  0  0  0  0  0  0  0  0  # atno 17343 bound_to 10162
  156.3870  130.3891  149.7058 LP  0  0  0  0  0  0  0  0  0  0  0  0  # atno 17370 bound_to 10713
  156.4421  130.7866  151.2887 LP  0  0  0  0  0  0  0  0  0  0  0  0  # atno 17371 bound_to 10713
  140.6055  134.0131  155.7555 LP  0  0  0  0  0  0  0  0  0  0  0  0  # atno 17394 bound_to 11000
  141.0985  133.9806  157.3119 LP  0  0  0  0  0  0  0  0  0  0  0  0  # atno 17395 bound_to 11000

$$$$
