AV-unprocessed.smi:594|AV-procd|sdf|3017|dock4
  -GOLD-   2262023523D 1   1.00000     0.00000
 Structure written by MMmdl.
 40 41  0  0  0  0  0  0  0  0  3 V2000
  152.6402  141.0763  158.7664 C   0  0  0  0  0  0  0  0  0  0  0  0
  151.9653  142.3734  159.2492 C   0  0  1  0  0  0  0  0  0  0  0  0
  152.7899  143.0206  160.3806 C   0  0  0  0  0  0  0  0  0  0  0  0
  152.1398  144.3124  160.8985 C   0  0  0  0  0  0  0  0  0  0  0  0
  151.9236  145.3142  159.7567 C   0  0  0  0  0  0  0  0  0  0  0  0
  151.0867  144.6899  158.6308 C   0  0  0  0  0  0  0  0  0  0  0  0
  151.7224  143.3890  158.1020 C   0  0  2  0  0  0  0  0  0  0  0  0
  150.8462  142.8191  157.0795 N   0  0  0  0  0  0  0  0  0  0  0  0
  149.7841  142.0294  157.3024 C   0  0  0  0  0  0  0  0  0  0  0  0
  149.4358  141.6585  158.4242 O   0  0  0  0  0  0  0  0  0  0  0  0
  149.0027  141.5875  156.0579 C   0  0  0  0  0  0  0  0  0  0  0  0
  149.3942  140.2497  155.5830 N   0  0  0  0  0  0  0  0  0  0  0  0
  150.7519  140.0537  155.2606 C   0  0  0  0  0  0  0  0  0  0  0  0
  151.2197  138.8684  154.8223 C   0  0  0  0  0  0  0  0  0  0  0  0
  152.6174  138.6839  154.4994 N   0  3  0  0  0  0  0  0  0  0  0  0
  152.9815  137.5972  154.0612 O   0  0  0  0  0  0  0  0  0  0  0  0
  153.3966  139.6166  154.6709 O   0  5  0  0  0  0  0  0  0  0  0  0
  150.2731  137.7780  154.6877 C   0  0  0  0  0  0  0  0  0  0  0  0
  148.9740  137.9581  154.9972 C   0  0  0  0  0  0  0  0  0  0  0  0
  148.4674  139.2485  155.4758 C   0  0  0  0  0  0  0  0  0  0  0  0
  147.2821  139.4188  155.7628 O   0  0  0  0  0  0  0  0  0  0  0  0
  153.5945  141.2844  158.2816 H   0  0  0  0  0  0  0  0  0  0  0  0
  152.0157  140.5371  158.0541 H   0  0  0  0  0  0  0  0  0  0  0  0
  152.8316  140.4003  159.6000 H   0  0  0  0  0  0  0  0  0  0  0  0
  150.9957  142.0983  159.6674 H   0  0  0  0  0  0  0  0  0  0  0  0
  152.9053  142.3177  161.2066 H   0  0  0  0  0  0  0  0  0  0  0  0
  153.7965  143.2403  160.0216 H   0  0  0  0  0  0  0  0  0  0  0  0
  151.1835  144.0794  161.3688 H   0  0  0  0  0  0  0  0  0  0  0  0
  152.7647  144.7594  161.6722 H   0  0  0  0  0  0  0  0  0  0  0  0
  151.4302  146.2097  160.1355 H   0  0  0  0  0  0  0  0  0  0  0  0
  152.8884  145.6350  159.3619 H   0  0  0  0  0  0  0  0  0  0  0  0
  150.0808  144.4866  159.0013 H   0  0  0  0  0  0  0  0  0  0  0  0
  150.9764  145.4084  157.8176 H   0  0  0  0  0  0  0  0  0  0  0  0
  152.6882  143.6492  157.6642 H   0  0  0  0  0  0  0  0  0  0  0  0
  151.0542  143.0643  156.1224 H   0  0  0  0  0  0  0  0  0  0  0  0
  147.9314  141.6080  156.2682 H   0  0  0  0  0  0  0  0  0  0  0  0
  149.1547  142.3358  155.2789 H   0  0  0  0  0  0  0  0  0  0  0  0
  151.3766  140.9239  155.4018 H   0  0  0  0  0  0  0  0  0  0  0  0
  150.5990  136.8093  154.3384 H   0  0  0  0  0  0  0  0  0  0  0  0
  148.2863  137.1320  154.8906 H   0  0  0  0  0  0  0  0  0  0  0  0
  1  2  1  0  0  0  0
  1 22  1  0  0  0  0
  1 23  1  0  0  0  0
  1 24  1  0  0  0  0
  2  7  1  0  0  0  0
  2  3  1  0  0  0  0
  2 25  1  0  0  0  0
  3  4  1  0  0  0  0
  3 26  1  0  0  0  0
  3 27  1  0  0  0  0
  4  5  1  0  0  0  0
  4 28  1  0  0  0  0
  4 29  1  0  0  0  0
  5  6  1  0  0  0  0
  5 30  1  0  0  0  0
  5 31  1  0  0  0  0
  6  7  1  0  0  0  0
  6 32  1  0  0  0  0
  6 33  1  0  0  0  0
  7  8  1  0  0  0  0
  7 34  1  0  0  0  0
  8  9  1  0  0  0  0
  8 35  1  0  0  0  0
  9 10  2  0  0  0  0
  9 11  1  0  0  0  0
 11 12  1  0  0  0  0
 11 36  1  0  0  0  0
 11 37  1  0  0  0  0
 12 20  1  0  0  0  0
 12 13  1  0  0  0  0
 13 14  2  0  0  0  0
 13 38  1  0  0  0  0
 14 15  1  0  0  0  0
 14 18  1  0  0  0  0
 15 16  2  0  0  0  0
 15 17  1  0  0  0  0
 18 19  2  0  0  0  0
 18 39  1  0  0  0  0
 19 20  1  0  0  0  0
 19 40  1  0  0  0  0
 20 21  2  0  0  0  0
M  CHG  1  15   1
M  CHG  1  17  -1
M  END
> <s_m_source_file>
AV-unprocessed.smi

> <i_m_source_file_index>
594

> <i_lp_mmshare_version>
43012

> <i_f3d_flags>
0

> <s_epik_input>
W0NIM11bQ0BASF0xW0NIMl1bQ0gyXVtDSDJdW0NIMl1bQ0BIXTFbTkhdQyg9TylbQ0gyXW4yW2NIXWMoW04rXSg9TylbTy1dKVtjSF1bY0hdYzI9Tw==

> <s_epik_cmdline>
J2VwaWtfcHl0aG9uJywgJy1waCcsICc3LjAnLCAnLXRuJywgJzgnLCAnLW1hJywgJzIwMCcsICctbWV0YWxfYmluZGluZycsICctaW1hZScsICc8aW5maWxlLm1hZT4nLCAnLW9tYWUnLCAnPG91dGZpbGUubWFlPic=

> <r_lp_tautomer_probability>
1

> <r_epik_Ionization_Penalty>
1.91305e-08

> <r_epik_Ionization_Penalty_Charging>
8.35811e-11

> <r_epik_Ionization_Penalty_Neutral>
1.90469e-08

> <r_epik_State_Penalty>
-0

> <r_epik_Charging_Adjusted_Penalty>
8.35811e-11

> <i_epik_Tot_Q>
0

> <i_epik_Tot_abs_Q>
2

> <r_epik_Metal_State_Penalty>
-0

> <b_epik_Metal_Only>
0

> <s_lp_Force_Field>
OPLS_2005

> <r_lp_Energy>
21.4369

> <b_lp_Chiralities_Consistent>
1

> <s_lp_Variant>
AV-unprocessed.smi:594-4

> <Gold.Version>
5.8.1

> <Gold.Id.Protein>
6NUR|6NUR_protein|mol2

> <Gold.PLP.Fitness>
46.4002

> <Gold.PLP.PLP>
-43.3975

> <Gold.PLP.part.hbond>
-3.8515

> <Gold.PLP.part.metal>
0.0000

> <Gold.PLP.part.buried>
-4.1952

> <Gold.PLP.part.nonpolar>
-35.0759

> <Gold.PLP.part.repulsive>
0.1945

> <Gold.PLP.ligand.clash>
0.0000

> <Gold.PLP.ligand.torsion>
0.6577

> <Gold.PLP.Chemscore.Hbond>
1.4320

> <Gold.PLP.Chemscore.CHOScore>
0.0000

> <Gold.PLP.Chemscore.Metal>
0.0000

> <Gold.Chemscore.Hbonds>
donor molecule, donor type, donor heavy atom, donor atom, acceptor molecule, acceptor atom, score
      P1  H  7997  8010       L1    17  0.98
      P1  H 10752 10764       L1    16  0.43

> <Gold.PLP.Chemscore.Internal.Correction>
0.0220

> <Gold.Rescore>
     Score         DG    S(hbond)    S(metal)    S(lipo)     H(rot)  DE(clash)    DE(int)     intcor
     17.15     -19.23       1.60        0.00     105.79       1.55       0.07       2.01       ----

> <Gold.Chemscore.Fitness>
17.1486

> <Gold.Chemscore.DG>
-19.2316

> <Gold.Chemscore.ZeroCoef>
-5.4800

> <Gold.Chemscore.Hbond>
1.5997

> <Gold.Chemscore.Metal>
0.0000

> <Gold.Chemscore.Lipo>
105.7923

> <Gold.Chemscore.Internal_Hbond>
0.0000

> <Gold.Chemscore.DEClash>
0.0743

> <Gold.Chemscore.DEInternal>
2.0087

> <Gold.Chemscore.Rot>
1.5505

> <Gold.Chemscore.Internal.Correction>
   9.000000E+99

> <Gold.Chemscore.Hbonds>
donor molecule, donor type, donor heavy atom, donor atom, acceptor molecule, acceptor atom, score
      P1  H  7997  8010       L1    17  0.93
      P1  H 10752 10764       L1    16  0.44

> <Gold.Chemscore.Hbond.Weighted>
-5.3430

> <Gold.Chemscore.Metal.Weighted>
-0.0000

> <Gold.Chemscore.Lipo.Weighted>
-12.3777

> <Gold.Chemscore.Internal_Hbond.Weighted>
0.0000

> <Gold.Chemscore.DEClash.Weighted>
0.0743

> <Gold.Chemscore.DEInternal.Weighted>
2.0087

> <Gold.Chemscore.Rot.Weighted>
3.9692

> <Gold.Chemscore.Internal.Correction.Weighted>
   9.000000E+99

> <Gold.Protein.RotatedTorsions>
[ 6907 6896 6895 6894 ] final  -17.18 input  -60.11 | X-H torsion
[ 7974 7965 7964 7962 ] final -168.04 input  175.53 | X-H torsion
[ 8008 7997 7996 7995 ] final   93.70 input   59.86 | X-H torsion
[ 10167 10162 10161 10158 ] final   22.07 input  -65.29 | X-H torsion
[ 10718 10713 10712 10709 ] final  115.98 input   66.30 | X-H torsion
[ 10763 10752 10751 10750 ] final -105.18 input  -60.55 | X-H torsion
[ 11005 11000 10999 10996 ] final   13.75 input  -57.11 | X-H torsion

> <Gold.Protein.ActiveResidues>
 VAL166  LYS551  ARG553  GLY616  TRP617  ASP618  TYR619  PRO620  LYS621  CYS622 
 ASP623  PHE694  ASN695  SER759  ASP760  ASP761  ALA762  ILE779  LEU786  VAL792 
 PHE793  MET794  SER795  GLU796  ALA797  LYS798  CYS799  TRP800  GLU811  SER814 

> <Gold.Protein.RotatedAtoms>
  151.2972  135.0758  159.9225 H   0  0  0  0  0  0  0  0  0  0  0  0  # atno 6907 bound_to 6896
  152.5305  133.9870  159.7843 H   0  0  0  0  0  0  0  0  0  0  0  0  # atno 6908 bound_to 6896
  151.0151  133.5878  159.2708 H   0  0  0  0  0  0  0  0  0  0  0  0  # atno 6909 bound_to 6896
  144.7211  140.2430  143.6289 H   0  0  0  0  0  0  0  0  0  0  0  0  # atno 7974 bound_to 7965
  156.0497  140.3309  155.7337 H   0  0  0  0  0  0  0  0  0  0  0  0  # atno 8008 bound_to 7997
  155.5619  140.0620  157.2844 H   0  0  0  0  0  0  0  0  0  0  0  0  # atno 8009 bound_to 7997
  154.4430  140.1876  156.0780 H   0  0  0  0  0  0  0  0  0  0  0  0  # atno 8010 bound_to 7997
  140.5377  143.9731  150.6501 H   0  0  0  0  0  0  0  0  0  0  0  0  # atno 10167 bound_to 10162
  157.6189  131.1019  150.7407 H   0  0  0  0  0  0  0  0  0  0  0  0  # atno 10718 bound_to 10713
  154.7929  135.4759  154.0093 H   0  0  0  0  0  0  0  0  0  0  0  0  # atno 10763 bound_to 10752
  153.1658  135.6816  153.8684 H   0  0  0  0  0  0  0  0  0  0  0  0  # atno 10764 bound_to 10752
  153.8283  135.3195  155.3394 H   0  0  0  0  0  0  0  0  0  0  0  0  # atno 10765 bound_to 10752
  140.4772  134.0972  155.7744 H   0  0  0  0  0  0  0  0  0  0  0  0  # atno 11005 bound_to 11000
  145.8302  139.2082  143.1887 LP  0  0  0  0  0  0  0  0  0  0  0  0  # atno 17320 bound_to 7965
  146.0438  140.8139  142.9815 LP  0  0  0  0  0  0  0  0  0  0  0  0  # atno 17321 bound_to 7965
  140.3123  143.3190  152.0866 LP  0  0  0  0  0  0  0  0  0  0  0  0  # atno 17342 bound_to 10162
  139.4977  144.6628  151.6426 LP  0  0  0  0  0  0  0  0  0  0  0  0  # atno 17343 bound_to 10162
  156.7769  130.4846  149.5408 LP  0  0  0  0  0  0  0  0  0  0  0  0  # atno 17370 bound_to 10713
  156.1324  130.6187  151.0352 LP  0  0  0  0  0  0  0  0  0  0  0  0  # atno 17371 bound_to 10713
  141.1549  133.8901  157.2004 LP  0  0  0  0  0  0  0  0  0  0  0  0  # atno 17394 bound_to 11000
  139.9849  135.0085  156.9838 LP  0  0  0  0  0  0  0  0  0  0  0  0  # atno 17395 bound_to 11000

$$$$
