AV-unprocessed.smi:1174|AV-procd|sdf|4946|dock8
  -GOLD-   22720 3533D 1   1.00000     0.00000
 Structure written by MMmdl.
 41 42  0  0  0  0  0  0  0  0  1 V2000
  152.4449  139.4376  157.8488 C   0  0  0  0  0  0  0  0  0  0  0  0
  151.7371  140.7855  157.6492 C   0  0  2  0  0  0  0  0  0  0  0  0
  151.5076  141.5189  158.9854 C   0  0  0  0  0  0  0  0  0  0  0  0
  151.5985  142.9626  158.8408 N   0  0  0  0  0  0  0  0  0  0  0  0
  152.7289  143.7519  158.8143 C   0  0  0  0  0  0  0  0  0  0  0  0
  152.3196  145.0422  158.6333 C   0  0  0  0  0  0  0  0  0  0  0  0
  150.9022  144.9400  158.5574 C   0  0  0  0  0  0  0  0  0  0  0  0
  150.4734  143.6949  158.6861 N   0  0  0  0  0  0  0  0  0  0  0  0
  150.4584  140.5832  156.9735 N   0  0  0  0  0  0  0  0  0  0  0  0
  150.2987  140.1549  155.7132 C   0  0  0  0  0  0  0  0  0  0  0  0
  151.2266  139.7567  155.0085 O   0  0  0  0  0  0  0  0  0  0  0  0
  148.8720  140.2213  155.1564 C   0  0  2  0  0  0  0  0  0  0  0  0
  148.7445  139.4810  153.8055 C   0  0  0  0  0  0  0  0  0  0  0  0
  147.3436  139.6664  153.1908 C   0  0  0  0  0  0  0  0  0  0  0  0
  146.9518  141.1552  153.1434 C   0  0  0  0  0  0  0  0  0  0  0  0
  147.0415  141.7155  154.5030 N   0  0  0  0  0  0  0  0  0  0  0  0
  145.9995  142.0302  155.3131 C   0  0  0  0  0  0  0  0  0  0  0  0
  144.8025  141.6115  154.8906 N   0  0  0  0  0  0  0  0  0  0  0  0
  146.1109  142.6850  156.3486 O   0  0  0  0  0  0  0  0  0  0  0  0
  148.4231  141.6905  154.9976 C   0  0  0  0  0  0  0  0  0  0  0  0
  153.4092  139.5717  158.3397 H   0  0  0  0  0  0  0  0  0  0  0  0
  152.6296  138.9446  156.8936 H   0  0  0  0  0  0  0  0  0  0  0  0
  151.8485  138.7622  158.4631 H   0  0  0  0  0  0  0  0  0  0  0  0
  152.3786  141.4159  157.0303 H   0  0  0  0  0  0  0  0  0  0  0  0
  150.5326  141.2622  159.4035 H   0  0  0  0  0  0  0  0  0  0  0  0
  152.2527  141.2060  159.7178 H   0  0  0  0  0  0  0  0  0  0  0  0
  153.7189  143.3333  158.9197 H   0  0  0  0  0  0  0  0  0  0  0  0
  152.9382  145.9244  158.5619 H   0  0  0  0  0  0  0  0  0  0  0  0
  150.1775  145.7278  158.4141 H   0  0  0  0  0  0  0  0  0  0  0  0
  149.6341  140.8876  157.4713 H   0  0  0  0  0  0  0  0  0  0  0  0
  148.2028  139.7376  155.8712 H   0  0  0  0  0  0  0  0  0  0  0  0
  149.4876  139.8593  153.1018 H   0  0  0  0  0  0  0  0  0  0  0  0
  148.9543  138.4183  153.9342 H   0  0  0  0  0  0  0  0  0  0  0  0
  147.3169  139.2384  152.1883 H   0  0  0  0  0  0  0  0  0  0  0  0
  146.6101  139.1166  153.7819 H   0  0  0  0  0  0  0  0  0  0  0  0
  147.6352  141.6974  152.4885 H   0  0  0  0  0  0  0  0  0  0  0  0
  145.9686  141.2618  152.6857 H   0  0  0  0  0  0  0  0  0  0  0  0
  143.9784  141.8053  155.4403 H   0  0  0  0  0  0  0  0  0  0  0  0
  144.7300  141.1006  154.0230 H   0  0  0  0  0  0  0  0  0  0  0  0
  148.5351  142.2270  155.9419 H   0  0  0  0  0  0  0  0  0  0  0  0
  149.0654  142.2137  154.2871 H   0  0  0  0  0  0  0  0  0  0  0  0
  1  2  1  0  0  0  0
  1 21  1  0  0  0  0
  1 22  1  0  0  0  0
  1 23  1  0  0  0  0
  2  3  1  0  0  0  0
  2  9  1  0  0  0  0
  2 24  1  0  0  0  0
  3  4  1  0  0  0  0
  3 25  1  0  0  0  0
  3 26  1  0  0  0  0
  4  8  1  0  0  0  0
  4  5  1  0  0  0  0
  5  6  2  0  0  0  0
  5 27  1  0  0  0  0
  6  7  1  0  0  0  0
  6 28  1  0  0  0  0
  7  8  2  0  0  0  0
  7 29  1  0  0  0  0
  9 10  1  0  0  0  0
  9 30  1  0  0  0  0
 10 11  2  0  0  0  0
 10 12  1  0  0  0  0
 12 20  1  0  0  0  0
 12 13  1  0  0  0  0
 12 31  1  0  0  0  0
 13 14  1  0  0  0  0
 13 32  1  0  0  0  0
 13 33  1  0  0  0  0
 14 15  1  0  0  0  0
 14 34  1  0  0  0  0
 14 35  1  0  0  0  0
 15 16  1  0  0  0  0
 15 36  1  0  0  0  0
 15 37  1  0  0  0  0
 16 17  1  0  0  0  0
 16 20  1  0  0  0  0
 17 18  1  0  0  0  0
 17 19  2  0  0  0  0
 18 38  1  0  0  0  0
 18 39  1  0  0  0  0
 20 40  1  0  0  0  0
 20 41  1  0  0  0  0
M  END
> <s_m_source_file>
AV-unprocessed.smi

> <i_m_source_file_index>
1174

> <i_lp_mmshare_version>
43012

> <i_f3d_flags>
0

> <s_epik_input>
bjFbY0hdW2NIXVtjSF1uMVtDSDJdW0NAQEhdKFtDSDNdKVtOSF1DKD1PKVtDQEBIXTJbQ0gyXVtDSDJdW0NIMl1OKFtDSDJdMilDKD1PKVtOSDJd

> <s_epik_cmdline>
J2VwaWtfcHl0aG9uJywgJy1waCcsICc3LjAnLCAnLXRuJywgJzgnLCAnLW1hJywgJzIwMCcsICctbWV0YWxfYmluZGluZycsICctaW1hZScsICc8aW5maWxlLm1hZT4nLCAnLW9tYWUnLCAnPG91dGZpbGUubWFlPic=

> <r_lp_tautomer_probability>
1

> <r_epik_Ionization_Penalty>
0.000372452

> <r_epik_Ionization_Penalty_Charging>
0

> <r_epik_Ionization_Penalty_Neutral>
0.000372452

> <r_epik_State_Penalty>
-0

> <r_epik_Charging_Adjusted_Penalty>
0

> <i_epik_Tot_Q>
0

> <i_epik_Tot_abs_Q>
0

> <r_epik_Metal_State_Penalty>
-0

> <b_epik_Metal_Only>
0

> <s_lp_Force_Field>
OPLS_2005

> <r_lp_Energy>
26.8287

> <b_lp_Chiralities_Consistent>
1

> <s_lp_Variant>
AV-unprocessed.smi:1174-1

> <Gold.Version>
5.8.1

> <Gold.Id.Protein>
6NUR|6NUR_protein|mol2

> <Gold.PLP.Fitness>
42.7389

> <Gold.PLP.PLP>
-36.2013

> <Gold.PLP.part.hbond>
-2.0000

> <Gold.PLP.part.metal>
0.0000

> <Gold.PLP.part.buried>
-2.0176

> <Gold.PLP.part.nonpolar>
-32.6914

> <Gold.PLP.part.repulsive>
0.3742

> <Gold.PLP.ligand.clash>
0.0000

> <Gold.PLP.ligand.torsion>
1.1157

> <Gold.PLP.Chemscore.Hbond>
1.9920

> <Gold.PLP.Chemscore.CHOScore>
0.9062

> <Gold.PLP.Chemscore.Metal>
0.0000

> <Gold.Chemscore.Hbonds>
donor molecule, donor type, donor heavy atom, donor atom, acceptor molecule, acceptor atom, score
      L1  H    18    39       P1 10175  0.99
      P1  H  7989  7998       L1    11  1.00
      L1  C     7    29       P1  8029  0.98

> <Gold.PLP.Chemscore.Internal.Correction>
0.0745

> <Gold.Rescore>
     Score         DG    S(hbond)    S(metal)    S(lipo)     H(rot)  DE(clash)    DE(int)     intcor
     15.81     -17.42       1.85        0.00      89.18       1.82       0.84       0.77       ----

> <Gold.Chemscore.Fitness>
15.8103

> <Gold.Chemscore.DG>
-17.4209

> <Gold.Chemscore.ZeroCoef>
-5.4800

> <Gold.Chemscore.Hbond>
1.8464

> <Gold.Chemscore.Metal>
0.0000

> <Gold.Chemscore.Lipo>
89.1846

> <Gold.Chemscore.Internal_Hbond>
0.0000

> <Gold.Chemscore.DEClash>
0.8447

> <Gold.Chemscore.DEInternal>
0.7659

> <Gold.Chemscore.Rot>
1.8206

> <Gold.Chemscore.Internal.Correction>
   9.000000E+99

> <Gold.Chemscore.Hbonds>
donor molecule, donor type, donor heavy atom, donor atom, acceptor molecule, acceptor atom, score
      L1  H    18    39       P1 10175  0.73
      P1  H  7989  7998       L1    11  0.90

> <Gold.Chemscore.Hbond.Weighted>
-6.1670

> <Gold.Chemscore.Metal.Weighted>
-0.0000

> <Gold.Chemscore.Lipo.Weighted>
-10.4346

> <Gold.Chemscore.Internal_Hbond.Weighted>
0.0000

> <Gold.Chemscore.DEClash.Weighted>
0.8447

> <Gold.Chemscore.DEInternal.Weighted>
0.7659

> <Gold.Chemscore.Rot.Weighted>
4.6607

> <Gold.Chemscore.Internal.Correction.Weighted>
   9.000000E+99

> <Gold.Protein.RotatedTorsions>
[ 6907 6896 6895 6894 ] final  122.12 input  -60.11 | X-H torsion
[ 7974 7965 7964 7962 ] final -128.92 input  175.53 | X-H torsion
[ 8008 7997 7996 7995 ] final -160.79 input   59.86 | X-H torsion
[ 10167 10162 10161 10158 ] final   97.63 input  -65.29 | X-H torsion
[ 10718 10713 10712 10709 ] final -111.94 input   66.30 | X-H torsion
[ 10763 10752 10751 10750 ] final   67.34 input  -60.55 | X-H torsion
[ 11005 11000 10999 10996 ] final  129.70 input  -57.11 | X-H torsion

> <Gold.Protein.ActiveResidues>
 VAL166  LYS551  ARG553  GLY616  TRP617  ASP618  TYR619  PRO620  LYS621  CYS622 
 ASP623  PHE694  ASN695  SER759  ASP760  ASP761  ALA762  ILE779  LEU786  VAL792 
 PHE793  MET794  SER795  GLU796  ALA797  LYS798  CYS799  TRP800  GLU811  SER814 

> <Gold.Protein.RotatedAtoms>
  152.4268  133.7208  159.6532 H   0  0  0  0  0  0  0  0  0  0  0  0  # atno 6907 bound_to 6896
  150.8145  133.8352  159.3173 H   0  0  0  0  0  0  0  0  0  0  0  0  # atno 6908 bound_to 6896
  151.6052  135.1046  160.0120 H   0  0  0  0  0  0  0  0  0  0  0  0  # atno 6909 bound_to 6896
  144.9623  140.7460  143.4721 H   0  0  0  0  0  0  0  0  0  0  0  0  # atno 7974 bound_to 7965
  155.7827  140.0867  157.2051 H   0  0  0  0  0  0  0  0  0  0  0  0  # atno 8008 bound_to 7997
  154.3989  140.1505  156.3128 H   0  0  0  0  0  0  0  0  0  0  0  0  # atno 8009 bound_to 7997
  155.8638  140.3429  155.5777 H   0  0  0  0  0  0  0  0  0  0  0  0  # atno 8010 bound_to 7997
  139.7783  144.6898  151.0059 H   0  0  0  0  0  0  0  0  0  0  0  0  # atno 10167 bound_to 10162
  156.0676  130.5893  150.8441 H   0  0  0  0  0  0  0  0  0  0  0  0  # atno 10718 bound_to 10713
  153.0182  135.5287  154.6965 H   0  0  0  0  0  0  0  0  0  0  0  0  # atno 10763 bound_to 10752
  154.6085  135.2876  155.0460 H   0  0  0  0  0  0  0  0  0  0  0  0  # atno 10764 bound_to 10752
  154.1490  135.6566  153.5012 H   0  0  0  0  0  0  0  0  0  0  0  0  # atno 10765 bound_to 10752
  139.9630  134.9597  156.9186 H   0  0  0  0  0  0  0  0  0  0  0  0  # atno 11005 bound_to 11000
  145.2681  139.1965  143.4856 LP  0  0  0  0  0  0  0  0  0  0  0  0  # atno 17320 bound_to 7965
  146.3357  140.2623  142.8602 LP  0  0  0  0  0  0  0  0  0  0  0  0  # atno 17321 bound_to 7965
  140.7817  143.4512  151.0411 LP  0  0  0  0  0  0  0  0  0  0  0  0  # atno 17342 bound_to 10162
  139.8193  143.7842  152.3176 LP  0  0  0  0  0  0  0  0  0  0  0  0  # atno 17343 bound_to 10162
  157.5727  131.0946  150.9392 LP  0  0  0  0  0  0  0  0  0  0  0  0  # atno 17370 bound_to 10713
  156.9605  130.5453  149.5286 LP  0  0  0  0  0  0  0  0  0  0  0  0  # atno 17371 bound_to 10713
  140.5458  134.0675  155.7354 LP  0  0  0  0  0  0  0  0  0  0  0  0  # atno 17394 bound_to 11000
  141.1308  133.9305  157.2538 LP  0  0  0  0  0  0  0  0  0  0  0  0  # atno 17395 bound_to 11000

$$$$
