AV-unprocessed.smi:97|AV-procd|sdf|861|dock4
  -GOLD-   2262017303D 1   1.00000     0.00000
 Structure written by MMmdl.
 46 49  0  0  0  0  0  0  0  0  1 V2000
  152.8070  139.5092  155.0390 O   0  0  0  0  0  0  0  0  0  0  0  0
  151.6402  139.6281  155.4167 C   0  0  0  0  0  0  0  0  0  0  0  0
  150.4835  139.7033  154.4087 C   0  0  0  0  0  0  0  0  0  0  0  0
  149.4839  138.6264  154.5808 N   0  0  0  0  0  0  0  0  0  0  0  0
  148.1158  138.9843  154.6760 C   0  0  0  0  0  0  0  0  0  0  0  0
  147.7602  140.1633  154.6400 O   0  0  0  0  0  0  0  0  0  0  0  0
  147.1815  137.8717  154.8038 C   0  0  0  0  0  0  0  0  0  0  0  0
  145.8624  138.1151  154.8840 F   0  0  0  0  0  0  0  0  0  0  0  0
  147.6212  136.5971  154.8387 C   0  0  0  0  0  0  0  0  0  0  0  0
  148.9592  136.2625  154.7677 N   0  0  0  0  0  0  0  0  0  0  0  0
  149.3560  134.8043  154.7643 C   0  0  2  0  0  0  0  0  0  0  0  0
  148.6988  133.9889  153.6345 C   0  0  0  0  0  0  0  0  0  0  0  0
  147.9473  132.9050  154.3899 C   0  0  0  0  0  0  0  0  0  0  0  0
  148.6617  132.8720  155.7364 C   0  0  0  0  0  0  0  0  0  0  0  0
  148.9705  134.2359  155.9777 O   0  0  0  0  0  0  0  0  0  0  0  0
  149.9256  137.2817  154.6029 C   0  0  0  0  0  0  0  0  0  0  0  0
  151.1200  137.0087  154.4737 O   0  0  0  0  0  0  0  0  0  0  0  0
  151.2934  139.7015  156.7102 N   0  0  0  0  0  0  0  0  0  0  0  0
  152.2339  139.6945  157.8259 C   0  0  0  0  0  0  0  0  0  0  0  0
  152.3233  141.0216  158.5674 C   0  0  0  0  0  0  0  0  0  0  0  0
  152.7970  141.0400  159.9056 C   0  0  0  0  0  0  0  0  0  0  0  0
  152.8928  142.2526  160.6255 C   0  0  0  0  0  0  0  0  0  0  0  0
  152.5001  143.4329  159.9743 C   0  0  0  0  0  0  0  0  0  0  0  0
  152.0332  143.4219  158.6766 C   0  0  0  0  0  0  0  0  0  0  0  0
  151.9278  142.2308  157.9406 C   0  0  0  0  0  0  0  0  0  0  0  0
  151.7239  144.6867  158.2935 O   0  0  0  0  0  0  0  0  0  0  0  0
  152.0146  145.5040  159.3978 C   0  0  0  0  0  0  0  0  0  0  0  0
  152.4990  144.7054  160.4469 O   0  0  0  0  0  0  0  0  0  0  0  0
  150.0251  140.6903  154.4862 H   0  0  0  0  0  0  0  0  0  0  0  0
  150.8962  139.6830  153.3984 H   0  0  0  0  0  0  0  0  0  0  0  0
  146.8872  135.8097  154.9287 H   0  0  0  0  0  0  0  0  0  0  0  0
  150.4444  134.7886  154.6908 H   0  0  0  0  0  0  0  0  0  0  0  0
  148.0509  134.5955  153.0012 H   0  0  0  0  0  0  0  0  0  0  0  0
  149.4859  133.5605  153.0133 H   0  0  0  0  0  0  0  0  0  0  0  0
  146.9060  133.1964  154.5290 H   0  0  0  0  0  0  0  0  0  0  0  0
  147.9618  131.9421  153.8791 H   0  0  0  0  0  0  0  0  0  0  0  0
  148.0447  132.4530  156.5313 H   0  0  0  0  0  0  0  0  0  0  0  0
  149.5849  132.2936  155.6730 H   0  0  0  0  0  0  0  0  0  0  0  0
  150.3138  139.7921  156.9375 H   0  0  0  0  0  0  0  0  0  0  0  0
  151.9168  138.9283  158.5333 H   0  0  0  0  0  0  0  0  0  0  0  0
  153.2216  139.3959  157.4701 H   0  0  0  0  0  0  0  0  0  0  0  0
  153.0937  140.1183  160.3845 H   0  0  0  0  0  0  0  0  0  0  0  0
  153.2558  142.2710  161.6425 H   0  0  0  0  0  0  0  0  0  0  0  0
  151.5563  142.2477  156.9267 H   0  0  0  0  0  0  0  0  0  0  0  0
  152.7701  146.2392  159.1191 H   0  0  0  0  0  0  0  0  0  0  0  0
  151.1089  146.0196  159.7187 H   0  0  0  0  0  0  0  0  0  0  0  0
  1  2  2  0  0  0  0
  2  3  1  0  0  0  0
  2 18  1  0  0  0  0
  3  4  1  0  0  0  0
  3 29  1  0  0  0  0
  3 30  1  0  0  0  0
  4 16  1  0  0  0  0
  4  5  1  0  0  0  0
  5  6  2  0  0  0  0
  5  7  1  0  0  0  0
  7  8  1  0  0  0  0
  7  9  2  0  0  0  0
  9 10  1  0  0  0  0
  9 31  1  0  0  0  0
 10 11  1  0  0  0  0
 10 16  1  0  0  0  0
 11 15  1  0  0  0  0
 11 12  1  0  0  0  0
 11 32  1  0  0  0  0
 12 13  1  0  0  0  0
 12 33  1  0  0  0  0
 12 34  1  0  0  0  0
 13 14  1  0  0  0  0
 13 35  1  0  0  0  0
 13 36  1  0  0  0  0
 14 15  1  0  0  0  0
 14 37  1  0  0  0  0
 14 38  1  0  0  0  0
 16 17  2  0  0  0  0
 18 19  1  0  0  0  0
 18 39  1  0  0  0  0
 19 20  1  0  0  0  0
 19 40  1  0  0  0  0
 19 41  1  0  0  0  0
 20 25  1  0  0  0  0
 20 21  2  0  0  0  0
 21 22  1  0  0  0  0
 21 42  1  0  0  0  0
 22 23  2  0  0  0  0
 22 43  1  0  0  0  0
 23 28  1  0  0  0  0
 23 24  1  0  0  0  0
 24 25  2  0  0  0  0
 24 26  1  0  0  0  0
 25 44  1  0  0  0  0
 26 27  1  0  0  0  0
 27 28  1  0  0  0  0
 27 45  1  0  0  0  0
 27 46  1  0  0  0  0
M  END
> <s_m_source_file>
AV-unprocessed.smi

> <i_m_source_file_index>
97

> <i_lp_mmshare_version>
43012

> <i_f3d_flags>
0

> <s_epik_input>
TzFbQ0gyXU9jKGMxMilbY0hdYyhbY0hdW2NIXTIpW0NIMl1bTkhdQyg9TylbQ0gyXW4zYyg9TyljKEYpW2NIXW4oYzM9TylbQ0BASF00W0NIMl1bQ0gyXVtDSDJdTzQ=

> <s_epik_cmdline>
J2VwaWtfcHl0aG9uJywgJy1waCcsICc3LjAnLCAnLXRuJywgJzgnLCAnLW1hJywgJzIwMCcsICctbWV0YWxfYmluZGluZycsICctaW1hZScsICc8aW5maWxlLm1hZT4nLCAnLW9tYWUnLCAnPG91dGZpbGUubWFlPic=

> <r_lp_tautomer_probability>
1

> <r_epik_Ionization_Penalty>
3.79042e-08

> <r_epik_Ionization_Penalty_Charging>
3.81036e-09

> <r_epik_Ionization_Penalty_Neutral>
3.40938e-08

> <r_epik_State_Penalty>
-0

> <r_epik_Charging_Adjusted_Penalty>
3.81036e-09

> <i_epik_Tot_Q>
0

> <i_epik_Tot_abs_Q>
0

> <r_epik_Metal_State_Penalty>
-0

> <b_epik_Metal_Only>
0

> <s_epik_Chemistry_Notes>
This compound contains an acetal/aminal-like group ( X-CH(R)-Y where X, Y are N, S, or O) that may be acid/base labile, releasing an aldehyde.

> <s_lp_Force_Field>
OPLS_2005

> <r_lp_Energy>
33.0069

> <b_lp_Chiralities_Consistent>
1

> <s_lp_Variant>
AV-unprocessed.smi:97-1

> <Gold.Version>
5.8.1

> <Gold.Id.Protein>
6NUR|6NUR_protein|mol2

> <Gold.PLP.Fitness>
52.9420

> <Gold.PLP.PLP>
-47.6817

> <Gold.PLP.part.hbond>
-3.0000

> <Gold.PLP.part.metal>
0.0000

> <Gold.PLP.part.buried>
-5.7255

> <Gold.PLP.part.nonpolar>
-39.5758

> <Gold.PLP.part.repulsive>
0.5357

> <Gold.PLP.ligand.clash>
0.0000

> <Gold.PLP.ligand.torsion>
0.4269

> <Gold.PLP.Chemscore.Hbond>
2.0223

> <Gold.PLP.Chemscore.CHOScore>
0.0000

> <Gold.PLP.Chemscore.Metal>
0.0000

> <Gold.Chemscore.Hbonds>
donor molecule, donor type, donor heavy atom, donor atom, acceptor molecule, acceptor atom, score
      P1  H  7997  8010       L1     1  1.00
      P1  H 10752 10763       L1    17  0.37

> <Gold.PLP.Chemscore.Internal.Correction>
0.0472

> <Gold.Rescore>
     Score         DG    S(hbond)    S(metal)    S(lipo)     H(rot)  DE(clash)    DE(int)     intcor
     13.62     -16.24       2.00        0.00      91.42       2.58       0.03       2.59       ----

> <Gold.Chemscore.Fitness>
13.6236

> <Gold.Chemscore.DG>
-16.2410

> <Gold.Chemscore.ZeroCoef>
-5.4800

> <Gold.Chemscore.Hbond>
1.9969

> <Gold.Chemscore.Metal>
0.0000

> <Gold.Chemscore.Lipo>
91.4218

> <Gold.Chemscore.Internal_Hbond>
0.0000

> <Gold.Chemscore.DEClash>
0.0291

> <Gold.Chemscore.DEInternal>
2.5884

> <Gold.Chemscore.Rot>
2.5801

> <Gold.Chemscore.Internal.Correction>
   9.000000E+99

> <Gold.Chemscore.Hbonds>
donor molecule, donor type, donor heavy atom, donor atom, acceptor molecule, acceptor atom, score
      P1  H  7997  8010       L1     1  0.98
      P1  H 10752 10763       L1    17  0.37

> <Gold.Chemscore.Hbond.Weighted>
-6.6697

> <Gold.Chemscore.Metal.Weighted>
-0.0000

> <Gold.Chemscore.Lipo.Weighted>
-10.6963

> <Gold.Chemscore.Internal_Hbond.Weighted>
0.0000

> <Gold.Chemscore.DEClash.Weighted>
0.0291

> <Gold.Chemscore.DEInternal.Weighted>
2.5884

> <Gold.Chemscore.Rot.Weighted>
6.6050

> <Gold.Chemscore.Internal.Correction.Weighted>
   9.000000E+99

> <Gold.Protein.RotatedTorsions>
[ 6907 6896 6895 6894 ] final   18.89 input  -60.11 | X-H torsion
[ 7974 7965 7964 7962 ] final -153.07 input  175.53 | X-H torsion
[ 8008 7997 7996 7995 ] final   97.72 input   59.86 | X-H torsion
[ 10167 10162 10161 10158 ] final  -89.17 input  -65.29 | X-H torsion
[ 10718 10713 10712 10709 ] final  -20.41 input   66.30 | X-H torsion
[ 10763 10752 10751 10750 ] final   54.20 input  -60.55 | X-H torsion
[ 11005 11000 10999 10996 ] final  -68.90 input  -57.11 | X-H torsion

> <Gold.Protein.ActiveResidues>
 VAL166  LYS551  ARG553  GLY616  TRP617  ASP618  TYR619  PRO620  LYS621  CYS622 
 ASP623  PHE694  ASN695  SER759  ASP760  ASP761  ALA762  ILE779  LEU786  VAL792 
 PHE793  MET794  SER795  GLU796  ALA797  LYS798  CYS799  TRP800  GLU811  SER814 

> <Gold.Protein.RotatedAtoms>
  151.8724  135.0484  160.0480 H   0  0  0  0  0  0  0  0  0  0  0  0  # atno 6907 bound_to 6896
  152.2578  133.5266  159.5371 H   0  0  0  0  0  0  0  0  0  0  0  0  # atno 6908 bound_to 6896
  150.7105  134.0788  159.3933 H   0  0  0  0  0  0  0  0  0  0  0  0  # atno 6909 bound_to 6896
  144.7760  140.4576  143.5873 H   0  0  0  0  0  0  0  0  0  0  0  0  # atno 7974 bound_to 7965
  156.0931  140.3254  155.7842 H   0  0  0  0  0  0  0  0  0  0  0  0  # atno 8008 bound_to 7997
  155.4963  140.0565  157.2963 H   0  0  0  0  0  0  0  0  0  0  0  0  # atno 8009 bound_to 7997
  154.4650  140.1984  156.0159 H   0  0  0  0  0  0  0  0  0  0  0  0  # atno 8010 bound_to 7997
  140.3675  143.2811  151.9541 H   0  0  0  0  0  0  0  0  0  0  0  0  # atno 10167 bound_to 10162
  156.5322  130.4658  149.6541 H   0  0  0  0  0  0  0  0  0  0  0  0  # atno 10718 bound_to 10713
  152.9802  135.5753  154.4866 H   0  0  0  0  0  0  0  0  0  0  0  0  # atno 10763 bound_to 10752
  154.4407  135.2776  155.1852 H   0  0  0  0  0  0  0  0  0  0  0  0  # atno 10764 bound_to 10752
  154.3521  135.6207  153.5701 H   0  0  0  0  0  0  0  0  0  0  0  0  # atno 10765 bound_to 10752
  141.1542  133.6751  156.6517 H   0  0  0  0  0  0  0  0  0  0  0  0  # atno 11005 bound_to 11000
  145.6184  139.1521  143.3036 LP  0  0  0  0  0  0  0  0  0  0  0  0  # atno 17320 bound_to 7965
  146.1940  140.6296  142.9132 LP  0  0  0  0  0  0  0  0  0  0  0  0  # atno 17321 bound_to 7965
  139.4807  144.5937  151.7727 LP  0  0  0  0  0  0  0  0  0  0  0  0  # atno 17342 bound_to 10162
  140.5066  144.1088  150.5984 LP  0  0  0  0  0  0  0  0  0  0  0  0  # atno 17343 bound_to 10162
  156.3049  130.7197  151.2077 LP  0  0  0  0  0  0  0  0  0  0  0  0  # atno 17370 bound_to 10713
  157.7420  131.0496  150.5058 LP  0  0  0  0  0  0  0  0  0  0  0  0  # atno 17371 bound_to 10713
  140.3315  134.7925  157.4330 LP  0  0  0  0  0  0  0  0  0  0  0  0  # atno 17394 bound_to 11000
  140.1013  134.5469  155.8350 LP  0  0  0  0  0  0  0  0  0  0  0  0  # atno 17395 bound_to 11000

$$$$
