AV-unprocessed.smi:2510|AV-procd|sdf|9874|dock4
  -GOLD-   2272013503D 1   1.00000     0.00000
 Structure written by MMmdl.
 48 49  0  0  0  0  0  0  0  0  1 V2000
  152.5337  137.4649  157.5037 C   0  0  0  0  0  0  0  0  0  0  0  0
  151.8919  138.8382  157.7623 C   0  0  0  0  0  0  0  0  0  0  0  0
  150.5603  139.1461  157.0195 C   0  0  0  0  0  0  0  0  0  0  0  0
  149.6135  137.9554  157.3091 C   0  0  0  0  0  0  0  0  0  0  0  0
  149.3190  137.7084  158.7994 C   0  0  0  0  0  0  0  0  0  0  0  0
  149.8888  140.5368  157.2347 C   0  0  1  0  0  0  0  0  0  0  0  0
  150.8215  141.6068  157.5921 N   0  0  0  0  0  0  0  0  0  0  0  0
  150.4629  142.7801  158.1357 C   0  0  0  0  0  0  0  0  0  0  0  0
  149.2979  143.0757  158.4010 O   0  0  0  0  0  0  0  0  0  0  0  0
  151.5889  143.7726  158.4278 C   0  0  0  0  0  0  0  0  0  0  0  0
  151.8559  143.8374  159.9081 C   0  0  0  0  0  0  0  0  0  0  0  0
  152.3354  142.7998  160.7620 C   0  0  0  0  0  0  0  0  0  0  0  0
  152.4123  143.3839  161.9948 C   0  0  0  0  0  0  0  0  0  0  0  0
  152.8517  142.8476  163.3145 C   0  0  0  0  0  0  0  0  0  0  0  0
  151.9885  144.6823  161.8316 N   0  0  0  0  0  0  0  0  0  0  0  0
  151.6435  144.9708  160.5629 N   0  0  0  0  0  0  0  0  0  0  0  0
  149.5085  140.5739  155.7433 C   0  0  1  0  0  0  0  0  0  0  0  0
  149.5010  141.8957  154.9786 C   0  0  0  0  0  0  0  0  0  0  0  0
  150.6436  139.5636  155.5228 C   0  0  2  0  0  0  0  0  0  0  0  0
  150.3411  138.4934  154.6393 O   0  0  0  0  0  0  0  0  0  0  0  0
  151.3209  137.4698  154.6418 C   0  0  0  0  0  0  0  0  0  0  0  0
  151.9291  145.3725  162.5669 H   0  0  0  0  0  0  0  0  0  0  0  0
  153.4880  137.3857  158.0247 H   0  0  0  0  0  0  0  0  0  0  0  0
  152.7269  137.2929  156.4466 H   0  0  0  0  0  0  0  0  0  0  0  0
  151.8999  136.6564  157.8684 H   0  0  0  0  0  0  0  0  0  0  0  0
  151.7534  138.9074  158.8418 H   0  0  0  0  0  0  0  0  0  0  0  0
  152.6264  139.6087  157.5271 H   0  0  0  0  0  0  0  0  0  0  0  0
  148.6577  138.1015  156.8059 H   0  0  0  0  0  0  0  0  0  0  0  0
  150.0173  137.0400  156.8749 H   0  0  0  0  0  0  0  0  0  0  0  0
  148.6213  136.8791  158.9169 H   0  0  0  0  0  0  0  0  0  0  0  0
  148.8702  138.5799  159.2748 H   0  0  0  0  0  0  0  0  0  0  0  0
  150.2204  137.4524  159.3557 H   0  0  0  0  0  0  0  0  0  0  0  0
  149.0009  140.5097  157.8674 H   0  0  0  0  0  0  0  0  0  0  0  0
  151.8018  141.4433  157.4124 H   0  0  0  0  0  0  0  0  0  0  0  0
  152.4822  143.4740  157.8769 H   0  0  0  0  0  0  0  0  0  0  0  0
  151.3089  144.7580  158.0534 H   0  0  0  0  0  0  0  0  0  0  0  0
  152.5927  141.7833  160.5030 H   0  0  0  0  0  0  0  0  0  0  0  0
  152.9156  141.7595  163.2907 H   0  0  0  0  0  0  0  0  0  0  0  0
  152.1514  143.1267  164.1023 H   0  0  0  0  0  0  0  0  0  0  0  0
  153.8347  143.2366  163.5807 H   0  0  0  0  0  0  0  0  0  0  0  0
  148.5481  140.0701  155.6225 H   0  0  0  0  0  0  0  0  0  0  0  0
  150.4964  142.3369  154.9229 H   0  0  0  0  0  0  0  0  0  0  0  0
  148.8439  142.6219  155.4574 H   0  0  0  0  0  0  0  0  0  0  0  0
  149.1476  141.7606  153.9568 H   0  0  0  0  0  0  0  0  0  0  0  0
  151.5692  140.0734  155.2544 H   0  0  0  0  0  0  0  0  0  0  0  0
  151.0019  136.6590  153.9871 H   0  0  0  0  0  0  0  0  0  0  0  0
  151.4618  137.0583  155.6422 H   0  0  0  0  0  0  0  0  0  0  0  0
  152.2791  137.8360  154.2738 H   0  0  0  0  0  0  0  0  0  0  0  0
  1  2  1  0  0  0  0
  1 23  1  0  0  0  0
  1 24  1  0  0  0  0
  1 25  1  0  0  0  0
  2  3  1  0  0  0  0
  2 26  1  0  0  0  0
  2 27  1  0  0  0  0
  3 19  1  0  0  0  0
  3  4  1  0  0  0  0
  3  6  1  0  0  0  0
  4  5  1  0  0  0  0
  4 28  1  0  0  0  0
  4 29  1  0  0  0  0
  5 30  1  0  0  0  0
  5 31  1  0  0  0  0
  5 32  1  0  0  0  0
  6  7  1  0  0  0  0
  6 17  1  0  0  0  0
  6 33  1  0  0  0  0
  7  8  1  0  0  0  0
  7 34  1  0  0  0  0
  8  9  2  0  0  0  0
  8 10  1  0  0  0  0
 10 11  1  0  0  0  0
 10 35  1  0  0  0  0
 10 36  1  0  0  0  0
 11 16  2  0  0  0  0
 11 12  1  0  0  0  0
 12 13  2  0  0  0  0
 12 37  1  0  0  0  0
 13 14  1  0  0  0  0
 13 15  1  0  0  0  0
 14 38  1  0  0  0  0
 14 39  1  0  0  0  0
 14 40  1  0  0  0  0
 15 22  1  0  0  0  0
 15 16  1  0  0  0  0
 17 18  1  0  0  0  0
 17 19  1  0  0  0  0
 17 41  1  0  0  0  0
 18 42  1  0  0  0  0
 18 43  1  0  0  0  0
 18 44  1  0  0  0  0
 19 20  1  0  0  0  0
 19 45  1  0  0  0  0
 20 21  1  0  0  0  0
 21 46  1  0  0  0  0
 21 47  1  0  0  0  0
 21 48  1  0  0  0  0
M  END
> <s_m_source_file>
AV-unprocessed.smi

> <i_m_source_file_index>
2510

> <i_lp_mmshare_version>
43012

> <i_f3d_flags>
0

> <s_epik_input>
W0NIM11PW0NAQEhdMVtDQEhdKFtDSDNdKVtDQEBIXShDMShbQ0gyXVtDSDNdKVtDSDJdW0NIM10pW05IXUMoPU8pW0NIMl1jMltjSF1jKFtDSDNdKVtuSF1uMg==

> <s_epik_cmdline>
J2VwaWtfcHl0aG9uJywgJy1waCcsICc3LjAnLCAnLXRuJywgJzgnLCAnLW1hJywgJzIwMCcsICctbWV0YWxfYmluZGluZycsICctaW1hZScsICc8aW5maWxlLm1hZT4nLCAnLW9tYWUnLCAnPG91dGZpbGUubWFlPic=

> <r_lp_tautomer_probability>
0.5

> <r_epik_Ionization_Penalty>
9.73156e-05

> <r_epik_Ionization_Penalty_Charging>
0

> <r_epik_Ionization_Penalty_Neutral>
9.73156e-05

> <r_epik_State_Penalty>
0.41068

> <r_epik_Charging_Adjusted_Penalty>
0.41068

> <i_epik_Tot_Q>
0

> <i_epik_Tot_abs_Q>
0

> <r_epik_Metal_State_Penalty>
0.410699

> <b_epik_Metal_Only>
0

> <s_lp_Force_Field>
OPLS_2005

> <r_lp_Energy>
25.9502

> <b_lp_Chiralities_Consistent>
1

> <s_lp_Variant>
AV-unprocessed.smi:2510-5

> <Gold.Version>
5.8.1

> <Gold.Id.Protein>
6NUR|6NUR_protein|mol2

> <Gold.PLP.Fitness>
38.4928

> <Gold.PLP.PLP>
-39.2300

> <Gold.PLP.part.hbond>
-1.0000

> <Gold.PLP.part.metal>
0.0000

> <Gold.PLP.part.buried>
-3.5093

> <Gold.PLP.part.nonpolar>
-33.4292

> <Gold.PLP.part.repulsive>
0.5967

> <Gold.PLP.ligand.clash>
0.0000

> <Gold.PLP.ligand.torsion>
0.6726

> <Gold.PLP.Chemscore.Hbond>
0.0000

> <Gold.PLP.Chemscore.CHOScore>
0.0000

> <Gold.PLP.Chemscore.Metal>
0.0000

> <Gold.PLP.Chemscore.Internal.Correction>
0.6079

> <Gold.Rescore>
     Score         DG    S(hbond)    S(metal)    S(lipo)     H(rot)  DE(clash)    DE(int)     intcor
     11.88     -13.74       0.00        0.00     110.19       1.81       1.09       0.78       ----

> <Gold.Chemscore.Fitness>
11.8756

> <Gold.Chemscore.DG>
-13.7387

> <Gold.Chemscore.ZeroCoef>
-5.4800

> <Gold.Chemscore.Hbond>
0.0000

> <Gold.Chemscore.Metal>
0.0000

> <Gold.Chemscore.Lipo>
110.1945

> <Gold.Chemscore.Internal_Hbond>
0.0000

> <Gold.Chemscore.DEClash>
1.0880

> <Gold.Chemscore.DEInternal>
0.7751

> <Gold.Chemscore.Rot>
1.8102

> <Gold.Chemscore.Internal.Correction>
   9.000000E+99

> <Gold.Chemscore.Hbond.Weighted>
-0.0000

> <Gold.Chemscore.Metal.Weighted>
-0.0000

> <Gold.Chemscore.Lipo.Weighted>
-12.8928

> <Gold.Chemscore.Internal_Hbond.Weighted>
0.0000

> <Gold.Chemscore.DEClash.Weighted>
1.0880

> <Gold.Chemscore.DEInternal.Weighted>
0.7751

> <Gold.Chemscore.Rot.Weighted>
4.6341

> <Gold.Chemscore.Internal.Correction.Weighted>
   9.000000E+99

> <Gold.Protein.RotatedTorsions>
[ 6907 6896 6895 6894 ] final  157.81 input  -60.11 | X-H torsion
[ 7974 7965 7964 7962 ] final  159.45 input  175.53 | X-H torsion
[ 8008 7997 7996 7995 ] final -110.65 input   59.86 | X-H torsion
[ 10167 10162 10161 10158 ] final  -70.51 input  -65.29 | X-H torsion
[ 10718 10713 10712 10709 ] final  -95.84 input   66.30 | X-H torsion
[ 10763 10752 10751 10750 ] final  150.45 input  -60.55 | X-H torsion
[ 11005 11000 10999 10996 ] final  -38.50 input  -57.11 | X-H torsion

> <Gold.Protein.ActiveResidues>
 VAL166  LYS551  ARG553  GLY616  TRP617  ASP618  TYR619  PRO620  LYS621  CYS622 
 ASP623  PHE694  ASN695  SER759  ASP760  ASP761  ALA762  ILE779  LEU786  VAL792 
 PHE793  MET794  SER795  GLU796  ALA797  LYS798  CYS799  TRP800  GLU811  SER814 

> <Gold.Protein.RotatedAtoms>
  152.0096  133.3856  159.4214 H   0  0  0  0  0  0  0  0  0  0  0  0  # atno 6907 bound_to 6896
  150.6901  134.3745  159.5016 H   0  0  0  0  0  0  0  0  0  0  0  0  # atno 6908 bound_to 6896
  152.1504  134.8992  160.0599 H   0  0  0  0  0  0  0  0  0  0  0  0  # atno 6909 bound_to 6896
  144.7789  139.7620  143.6267 H   0  0  0  0  0  0  0  0  0  0  0  0  # atno 7974 bound_to 7965
  154.9778  140.0396  157.2264 H   0  0  0  0  0  0  0  0  0  0  0  0  # atno 8008 bound_to 7997
  154.7742  140.2807  155.6091 H   0  0  0  0  0  0  0  0  0  0  0  0  # atno 8009 bound_to 7997
  156.2926  140.2604  156.2552 H   0  0  0  0  0  0  0  0  0  0  0  0  # atno 8010 bound_to 7997
  140.5347  143.2319  151.7199 H   0  0  0  0  0  0  0  0  0  0  0  0  # atno 10167 bound_to 10162
  156.0051  130.5126  150.6137 H   0  0  0  0  0  0  0  0  0  0  0  0  # atno 10718 bound_to 10713
  154.0877  135.2855  155.3278 H   0  0  0  0  0  0  0  0  0  0  0  0  # atno 10763 bound_to 10752
  154.6641  135.5323  153.8058 H   0  0  0  0  0  0  0  0  0  0  0  0  # atno 10764 bound_to 10752
  153.0425  135.6541  154.1048 H   0  0  0  0  0  0  0  0  0  0  0  0  # atno 10765 bound_to 10752
  141.0032  133.6945  156.2062 H   0  0  0  0  0  0  0  0  0  0  0  0  # atno 11005 bound_to 11000
  146.1986  139.5267  142.9758 LP  0  0  0  0  0  0  0  0  0  0  0  0  # atno 17320 bound_to 7965
  145.6106  141.0340  143.1969 LP  0  0  0  0  0  0  0  0  0  0  0  0  # atno 17321 bound_to 7965
  139.4966  144.4061  152.0130 LP  0  0  0  0  0  0  0  0  0  0  0  0  # atno 17342 bound_to 10162
  140.3166  144.3477  150.6020 LP  0  0  0  0  0  0  0  0  0  0  0  0  # atno 17343 bound_to 10162
  157.3965  131.0803  151.1347 LP  0  0  0  0  0  0  0  0  0  0  0  0  # atno 17370 bound_to 10713
  157.2022  130.6400  149.5743 LP  0  0  0  0  0  0  0  0  0  0  0  0  # atno 17371 bound_to 10713
  140.6855  134.4722  157.5589 LP  0  0  0  0  0  0  0  0  0  0  0  0  # atno 17394 bound_to 11000
  139.9050  134.8470  156.1744 LP  0  0  0  0  0  0  0  0  0  0  0  0  # atno 17395 bound_to 11000

$$$$
