AV-unprocessed.smi:62|AV-procd|sdf|605|dock10
  -GOLD-   2262016503D 1   1.00000     0.00000
 Structure written by MMmdl.
 30 31  0  0  0  0  0  0  0  0  2 V2000
  151.3772  144.6946  158.7348 C   0  0  0  0  0  0  0  0  0  0  0  0
  151.5611  143.3508  158.2310 N   0  0  0  0  0  0  0  0  0  0  0  0
  151.1645  142.8218  157.0244 C   0  0  0  0  0  0  0  0  0  0  0  0
  151.5501  141.5103  156.9906 C   0  0  0  0  0  0  0  0  0  0  0  0
  151.3047  140.5452  155.8550 C   0  0  0  0  0  0  0  0  0  0  0  0
  149.8919  140.4399  155.5038 N   0  0  0  0  0  0  0  0  0  0  0  0
  149.3655  141.5981  154.8004 C   0  0  0  0  0  0  0  0  0  0  0  0
  148.0920  141.1313  154.0808 C   0  0  0  0  0  0  0  0  0  0  0  0
  148.1844  139.5969  154.1159 C   0  0  1  0  0  0  0  0  0  0  0  0
  147.9482  139.0033  152.8564 O   0  0  0  0  0  0  0  0  0  0  0  0
  149.6053  139.3342  154.6153 C   0  0  0  0  0  0  0  0  0  0  0  0
  152.1975  141.3296  158.2607 C   0  0  0  0  0  0  0  0  0  0  0  0
  152.8031  140.0169  158.6842 C   0  0  0  0  0  0  0  0  0  0  0  0
  153.1225  139.1645  157.8268 O   0  0  0  0  0  0  0  0  0  0  0  0
  152.9756  139.8227  159.9083 O   0  5  0  0  0  0  0  0  0  0  0  0
  152.1938  142.4379  158.9906 N   0  0  0  0  0  0  0  0  0  0  0  0
  150.9486  145.3299  157.9592 H   0  0  0  0  0  0  0  0  0  0  0  0
  152.3376  145.1096  159.0422 H   0  0  0  0  0  0  0  0  0  0  0  0
  150.7035  144.6765  159.5920 H   0  0  0  0  0  0  0  0  0  0  0  0
  150.6382  143.4152  156.2916 H   0  0  0  0  0  0  0  0  0  0  0  0
  151.8742  140.8423  154.9733 H   0  0  0  0  0  0  0  0  0  0  0  0
  151.6847  139.5564  156.1122 H   0  0  0  0  0  0  0  0  0  0  0  0
  149.1739  142.4262  155.4834 H   0  0  0  0  0  0  0  0  0  0  0  0
  150.0868  141.9426  154.0576 H   0  0  0  0  0  0  0  0  0  0  0  0
  147.1955  141.4730  154.5990 H   0  0  0  0  0  0  0  0  0  0  0  0
  148.0613  141.5264  153.0644 H   0  0  0  0  0  0  0  0  0  0  0  0
  147.4664  139.2044  154.8375 H   0  0  0  0  0  0  0  0  0  0  0  0
  148.6523  139.2477  152.2752 H   0  0  0  0  0  0  0  0  0  0  0  0
  150.3048  139.3413  153.7774 H   0  0  0  0  0  0  0  0  0  0  0  0
  149.6987  138.3742  155.1240 H   0  0  0  0  0  0  0  0  0  0  0  0
  1  2  1  0  0  0  0
  1 17  1  0  0  0  0
  1 18  1  0  0  0  0
  1 19  1  0  0  0  0
  2 16  1  0  0  0  0
  2  3  1  0  0  0  0
  3  4  2  0  0  0  0
  3 20  1  0  0  0  0
  4  5  1  0  0  0  0
  4 12  1  0  0  0  0
  5  6  1  0  0  0  0
  5 21  1  0  0  0  0
  5 22  1  0  0  0  0
  6 11  1  0  0  0  0
  6  7  1  0  0  0  0
  7  8  1  0  0  0  0
  7 23  1  0  0  0  0
  7 24  1  0  0  0  0
  8  9  1  0  0  0  0
  8 25  1  0  0  0  0
  8 26  1  0  0  0  0
  9 10  1  0  0  0  0
  9 11  1  0  0  0  0
  9 27  1  0  0  0  0
 10 28  1  0  0  0  0
 11 29  1  0  0  0  0
 11 30  1  0  0  0  0
 12 13  1  0  0  0  0
 12 16  2  0  0  0  0
 13 14  2  0  0  0  0
 13 15  1  0  0  0  0
M  CHG  1  15  -1
M  END
> <s_m_source_file>
AV-unprocessed.smi

> <i_m_source_file_index>
62

> <i_lp_mmshare_version>
43012

> <i_f3d_flags>
0

> <s_epik_input>
W0NIM11uMVtjSF1jKGMobjEpQyg9TylbT0hdKVtDSDJdTjJbQ0gyXVtDSDJdW0NAQEhdKFtPSF0pW0NIMl0y

> <s_epik_cmdline>
J2VwaWtfcHl0aG9uJywgJy1waCcsICc3LjAnLCAnLXRuJywgJzgnLCAnLW1hJywgJzIwMCcsICctbWV0YWxfYmluZGluZycsICctaW1hZScsICc8aW5maWxlLm1hZT4nLCAnLW9tYWUnLCAnPG91dGZpbGUubWFlPic=

> <r_epik_Ionization_Penalty>
1.46526

> <r_epik_Ionization_Penalty_Charging>
0.000523675

> <r_epik_Ionization_Penalty_Neutral>
1.46474

> <r_epik_State_Penalty>
1.55202

> <r_epik_Charging_Adjusted_Penalty>
1.55254

> <i_epik_Tot_Q>
-1

> <i_epik_Tot_abs_Q>
1

> <r_epik_Metal_State_Penalty>
1.552

> <b_epik_Metal_Only>
0

> <s_lp_Force_Field>
OPLS_2005

> <r_lp_Energy>
37.4644

> <b_lp_Chiralities_Consistent>
1

> <s_lp_Variant>
AV-unprocessed.smi:62-5

> <Gold.Version>
5.8.1

> <Gold.Id.Protein>
6NUR|6NUR_protein|mol2

> <Gold.PLP.Fitness>
41.6123

> <Gold.PLP.PLP>
-30.1902

> <Gold.PLP.part.hbond>
-3.0000

> <Gold.PLP.part.metal>
0.0000

> <Gold.PLP.part.buried>
-4.1313

> <Gold.PLP.part.nonpolar>
-23.5736

> <Gold.PLP.part.repulsive>
0.0600

> <Gold.PLP.ligand.clash>
0.0000

> <Gold.PLP.ligand.torsion>
0.2923

> <Gold.PLP.Chemscore.Hbond>
3.0000

> <Gold.PLP.Chemscore.CHOScore>
1.0000

> <Gold.PLP.Chemscore.Metal>
0.0000

> <Gold.Chemscore.Hbonds>
donor molecule, donor type, donor heavy atom, donor atom, acceptor molecule, acceptor atom, score
      L1  H    10    28       P1  7957  1.00
      P1  H  7997  8008       L1    14  2.00
      L1  C     3    20       P1  8028  1.00

> <Gold.PLP.Chemscore.Internal.Correction>
0.0068

> <Gold.Rescore>
     Score         DG    S(hbond)    S(metal)    S(lipo)     H(rot)  DE(clash)    DE(int)     intcor
     15.12     -15.72       1.99        0.00      69.42       1.77       0.11       0.49       ----

> <Gold.Chemscore.Fitness>
15.1192

> <Gold.Chemscore.DG>
-15.7203

> <Gold.Chemscore.ZeroCoef>
-5.4800

> <Gold.Chemscore.Hbond>
1.9888

> <Gold.Chemscore.Metal>
0.0000

> <Gold.Chemscore.Lipo>
69.4202

> <Gold.Chemscore.Internal_Hbond>
0.0000

> <Gold.Chemscore.DEClash>
0.1071

> <Gold.Chemscore.DEInternal>
0.4940

> <Gold.Chemscore.Rot>
1.7674

> <Gold.Chemscore.Internal.Correction>
   9.000000E+99

> <Gold.Chemscore.Hbonds>
donor molecule, donor type, donor heavy atom, donor atom, acceptor molecule, acceptor atom, score
      L1  H    10    28       P1  7957  1.00
      P1  H  7997  8008       L1    14  0.44

> <Gold.Chemscore.Hbond.Weighted>
-6.6426

> <Gold.Chemscore.Metal.Weighted>
-0.0000

> <Gold.Chemscore.Lipo.Weighted>
-8.1222

> <Gold.Chemscore.Internal_Hbond.Weighted>
0.0000

> <Gold.Chemscore.DEClash.Weighted>
0.1071

> <Gold.Chemscore.DEInternal.Weighted>
0.4940

> <Gold.Chemscore.Rot.Weighted>
4.5245

> <Gold.Chemscore.Internal.Correction.Weighted>
   9.000000E+99

> <Gold.Protein.RotatedTorsions>
[ 6907 6896 6895 6894 ] final   58.47 input  -60.11 | X-H torsion
[ 7974 7965 7964 7962 ] final   15.03 input  175.53 | X-H torsion
[ 8008 7997 7996 7995 ] final  -65.04 input   59.86 | X-H torsion
[ 10167 10162 10161 10158 ] final  101.26 input  -65.29 | X-H torsion
[ 10718 10713 10712 10709 ] final  -16.99 input   66.30 | X-H torsion
[ 10763 10752 10751 10750 ] final -155.07 input  -60.55 | X-H torsion
[ 11005 11000 10999 10996 ] final   24.61 input  -57.11 | X-H torsion

> <Gold.Protein.ActiveResidues>
 VAL166  LYS551  ARG553  GLY616  TRP617  ASP618  TYR619  PRO620  LYS621  CYS622 
 ASP623  PHE694  ASN695  SER759  ASP760  ASP761  ALA762  ILE779  LEU786  VAL792 
 PHE793  MET794  SER795  GLU796  ALA797  LYS798  CYS799  TRP800  GLU811  SER814 

> <Gold.Protein.RotatedAtoms>
  152.3827  134.6565  160.0136 H   0  0  0  0  0  0  0  0  0  0  0  0  # atno 6907 bound_to 6896
  151.6824  133.3306  159.3230 H   0  0  0  0  0  0  0  0  0  0  0  0  # atno 6908 bound_to 6896
  150.7760  134.6706  159.6434 H   0  0  0  0  0  0  0  0  0  0  0  0  # atno 6909 bound_to 6896
  146.2289  139.8954  142.8548 H   0  0  0  0  0  0  0  0  0  0  0  0  # atno 7974 bound_to 7965
  154.4647  140.0941  156.6989 H   0  0  0  0  0  0  0  0  0  0  0  0  # atno 8008 bound_to 7997
  155.4891  140.3470  155.4334 H   0  0  0  0  0  0  0  0  0  0  0  0  # atno 8009 bound_to 7997
  156.0935  140.1403  156.9550 H   0  0  0  0  0  0  0  0  0  0  0  0  # atno 8010 bound_to 7997
  139.7454  144.6999  151.0512 H   0  0  0  0  0  0  0  0  0  0  0  0  # atno 10167 bound_to 10162
  156.5798  130.4771  149.6325 H   0  0  0  0  0  0  0  0  0  0  0  0  # atno 10718 bound_to 10713
  154.7813  135.3176  154.7983 H   0  0  0  0  0  0  0  0  0  0  0  0  # atno 10763 bound_to 10752
  153.8693  135.6846  153.4780 H   0  0  0  0  0  0  0  0  0  0  0  0  # atno 10764 bound_to 10752
  153.1451  135.4723  154.9491 H   0  0  0  0  0  0  0  0  0  0  0  0  # atno 10765 bound_to 10752
  140.3569  134.2168  155.7675 H   0  0  0  0  0  0  0  0  0  0  0  0  # atno 11005 bound_to 11000
  145.2376  140.9997  143.3955 LP  0  0  0  0  0  0  0  0  0  0  0  0  # atno 17320 bound_to 7965
  144.9479  139.4116  143.6417 LP  0  0  0  0  0  0  0  0  0  0  0  0  # atno 17321 bound_to 7965
  140.7791  143.4873  150.9939 LP  0  0  0  0  0  0  0  0  0  0  0  0  # atno 17342 bound_to 10162
  139.8561  143.7374  152.3176 LP  0  0  0  0  0  0  0  0  0  0  0  0  # atno 17343 bound_to 10162
  156.2641  130.6979  151.1757 LP  0  0  0  0  0  0  0  0  0  0  0  0  # atno 17370 bound_to 10713
  157.7329  131.0596  150.5604 LP  0  0  0  0  0  0  0  0  0  0  0  0  # atno 17371 bound_to 10713
  141.1996  133.8008  157.0530 LP  0  0  0  0  0  0  0  0  0  0  0  0  # atno 17394 bound_to 11000
  140.0658  134.9730  157.1383 LP  0  0  0  0  0  0  0  0  0  0  0  0  # atno 17395 bound_to 11000

$$$$
