AV-unprocessed.smi:2083|AV-procd|sdf|8503|dock3
  -GOLD-   2272011213D 1   1.00000     0.00000
 Structure written by MMmdl.
 44 45  0  0  0  0  0  0  0  0  3 V2000
  148.9096  141.0820  154.6207 C   0  0  0  0  0  0  0  0  0  0  0  0
  149.8440  139.9210  154.6263 C   0  0  0  0  0  0  0  0  0  0  0  0
  149.6645  138.5852  154.4037 C   0  0  0  0  0  0  0  0  0  0  0  0
  150.9702  138.0497  154.5750 C   0  0  0  0  0  0  0  0  0  0  0  0
  151.3170  136.7593  154.4511 N   0  5  0  0  0  0  0  0  0  0  0  0
  150.5986  135.8001  155.0772 C   0  0  0  0  0  0  0  0  0  0  0  0
  150.8251  135.3257  156.1930 O   0  0  0  0  0  0  0  0  0  0  0  0
  149.5470  135.3648  154.3687 N   0  0  0  0  0  0  0  0  0  0  0  0
  148.5926  134.3471  154.7991 C   0  0  0  0  0  0  0  0  0  0  0  0
  148.2218  133.3491  153.6665 C   0  0  1  0  0  0  0  0  0  0  0  0
  147.6748  132.0354  154.2696 C   0  0  0  0  0  0  0  0  0  0  0  0
  147.2475  133.8887  152.6617 N   0  3  1  0  0  0  0  0  0  0  0  0
  146.8903  132.9759  151.5364 C   0  0  0  0  0  0  0  0  0  0  0  0
  146.0052  133.6797  150.4939 C   0  0  0  0  0  0  0  0  0  0  0  0
  144.7474  134.2778  151.1342 C   0  0  0  0  0  0  0  0  0  0  0  0
  145.1131  135.1847  152.3203 C   0  0  2  0  0  0  0  0  0  0  0  0
  145.7240  136.5286  151.8854 C   0  0  0  0  0  0  0  0  0  0  0  0
  146.0170  134.4265  153.3123 C   0  0  0  0  0  0  0  0  0  0  0  0
  151.8658  138.9806  154.8574 N   0  0  0  0  0  0  0  0  0  0  0  0
  151.1505  140.1832  154.8978 O   0  0  0  0  0  0  0  0  0  0  0  0
  148.5560  141.2857  153.6100 H   0  0  0  0  0  0  0  0  0  0  0  0
  149.3972  141.9816  154.9969 H   0  0  0  0  0  0  0  0  0  0  0  0
  148.0422  140.8809  155.2494 H   0  0  0  0  0  0  0  0  0  0  0  0
  148.7459  138.0718  154.1619 H   0  0  0  0  0  0  0  0  0  0  0  0
  149.4006  135.7757  153.4580 H   0  0  0  0  0  0  0  0  0  0  0  0
  149.0338  133.8139  155.6419 H   0  0  0  0  0  0  0  0  0  0  0  0
  147.7122  134.8674  155.1792 H   0  0  0  0  0  0  0  0  0  0  0  0
  149.1439  133.1199  153.1302 H   0  0  0  0  0  0  0  0  0  0  0  0
  148.3892  131.5755  154.9527 H   0  0  0  0  0  0  0  0  0  0  0  0
  147.4568  131.2845  153.5122 H   0  0  0  0  0  0  0  0  0  0  0  0
  146.7555  132.2146  154.8276 H   0  0  0  0  0  0  0  0  0  0  0  0
  147.7821  132.6388  151.0094 H   0  0  0  0  0  0  0  0  0  0  0  0
  146.3873  132.0898  151.9277 H   0  0  0  0  0  0  0  0  0  0  0  0
  146.5774  134.4636  149.9971 H   0  0  0  0  0  0  0  0  0  0  0  0
  145.7201  132.9731  149.7138 H   0  0  0  0  0  0  0  0  0  0  0  0
  144.1676  134.8290  150.3929 H   0  0  0  0  0  0  0  0  0  0  0  0
  144.1059  133.4677  151.4842 H   0  0  0  0  0  0  0  0  0  0  0  0
  144.1849  135.4240  152.8410 H   0  0  0  0  0  0  0  0  0  0  0  0
  146.6797  136.3980  151.3779 H   0  0  0  0  0  0  0  0  0  0  0  0
  145.8965  137.1747  152.7466 H   0  0  0  0  0  0  0  0  0  0  0  0
  145.0574  137.0608  151.2060 H   0  0  0  0  0  0  0  0  0  0  0  0
  145.4605  133.5964  153.7510 H   0  0  0  0  0  0  0  0  0  0  0  0
  146.2652  135.0912  154.1381 H   0  0  0  0  0  0  0  0  0  0  0  0
  147.7133  134.6736  152.2296 H   0  0  0  0  0  0  0  0  0  0  0  0
  1  2  1  0  0  0  0
  1 21  1  0  0  0  0
  1 22  1  0  0  0  0
  1 23  1  0  0  0  0
  2 20  1  0  0  0  0
  2  3  2  0  0  0  0
  3  4  1  0  0  0  0
  3 24  1  0  0  0  0
  4  5  1  0  0  0  0
  4 19  2  0  0  0  0
  5  6  1  0  0  0  0
  6  7  2  0  0  0  0
  6  8  1  0  0  0  0
  8  9  1  0  0  0  0
  8 25  1  0  0  0  0
  9 10  1  0  0  0  0
  9 26  1  0  0  0  0
  9 27  1  0  0  0  0
 10 11  1  0  0  0  0
 10 12  1  0  0  0  0
 10 28  1  0  0  0  0
 11 29  1  0  0  0  0
 11 30  1  0  0  0  0
 11 31  1  0  0  0  0
 12 18  1  0  0  0  0
 12 13  1  0  0  0  0
 12 44  1  0  0  0  0
 13 14  1  0  0  0  0
 13 32  1  0  0  0  0
 13 33  1  0  0  0  0
 14 15  1  0  0  0  0
 14 34  1  0  0  0  0
 14 35  1  0  0  0  0
 15 16  1  0  0  0  0
 15 36  1  0  0  0  0
 15 37  1  0  0  0  0
 16 17  1  0  0  0  0
 16 18  1  0  0  0  0
 16 38  1  0  0  0  0
 17 39  1  0  0  0  0
 17 40  1  0  0  0  0
 17 41  1  0  0  0  0
 18 42  1  0  0  0  0
 18 43  1  0  0  0  0
 19 20  1  0  0  0  0
M  CHG  1   5  -1
M  CHG  1  12   1
M  END
> <s_m_source_file>
AV-unprocessed.smi

> <i_m_source_file_index>
2083

> <i_lp_mmshare_version>
43012

> <i_f3d_flags>
0

> <s_epik_input>
W0NIM11jMVtjSF1jKG5vMSlbTkhdQyg9TylbTkhdW0NIMl1bQ0BIXShbQ0gzXSlOMltDSDJdW0NIMl1bQ0gyXVtDQEBIXShbQ0gzXSlbQ0gyXTI=

> <s_epik_cmdline>
J2VwaWtfcHl0aG9uJywgJy1waCcsICc3LjAnLCAnLXRuJywgJzgnLCAnLW1hJywgJzIwMCcsICctbWV0YWxfYmluZGluZycsICctaW1hZScsICc8aW5maWxlLm1hZT4nLCAnLW9tYWUnLCAnPG91dGZpbGUubWFlPic=

> <r_epik_Ionization_Penalty>
6.22434

> <r_epik_Ionization_Penalty_Charging>
6.22425

> <r_epik_Ionization_Penalty_Neutral>
9.62407e-05

> <r_epik_State_Penalty>
6.22423

> <r_epik_Charging_Adjusted_Penalty>
12.4485

> <i_epik_Tot_Q>
0

> <i_epik_Tot_abs_Q>
2

> <r_epik_Metal_State_Penalty>
2.16764

> <b_epik_Metal_Only>
1

> <s_lp_Force_Field>
OPLS_2005

> <r_lp_Energy>
12.2098

> <b_lp_Chiralities_Consistent>
1

> <s_lp_Variant>
AV-unprocessed.smi:2083-14

> <Gold.Version>
5.8.1

> <Gold.Id.Protein>
6NUR|6NUR_protein|mol2

> <Gold.PLP.Fitness>
47.8784

> <Gold.PLP.PLP>
-32.8071

> <Gold.PLP.part.hbond>
-4.2727

> <Gold.PLP.part.metal>
0.0000

> <Gold.PLP.part.buried>
-2.9016

> <Gold.PLP.part.nonpolar>
-26.4829

> <Gold.PLP.part.repulsive>
1.0482

> <Gold.PLP.ligand.clash>
0.0000

> <Gold.PLP.ligand.torsion>
1.5073

> <Gold.PLP.Chemscore.Hbond>
5.9913

> <Gold.PLP.Chemscore.CHOScore>
0.0000

> <Gold.PLP.Chemscore.Metal>
0.0000

> <Gold.Chemscore.Hbonds>
donor molecule, donor type, donor heavy atom, donor atom, acceptor molecule, acceptor atom, score
      L1  H     8    25       P1  7948  1.00
      L1  H    12    44       P1  7948  2.00
      P1  H  7989  7998       L1    20  1.00
      P1  H 10752 10764       L1     5  1.80

> <Gold.PLP.Chemscore.Internal.Correction>
0.1121

> <Gold.Rescore>
     Score         DG    S(hbond)    S(metal)    S(lipo)     H(rot)  DE(clash)    DE(int)     intcor
     15.27     -17.16       2.46        0.00      62.89       1.52       0.30       1.59       ----

> <Gold.Chemscore.Fitness>
15.2697

> <Gold.Chemscore.DG>
-17.1583

> <Gold.Chemscore.ZeroCoef>
-5.4800

> <Gold.Chemscore.Hbond>
2.4576

> <Gold.Chemscore.Metal>
0.0000

> <Gold.Chemscore.Lipo>
62.8942

> <Gold.Chemscore.Internal_Hbond>
0.0000

> <Gold.Chemscore.DEClash>
0.3029

> <Gold.Chemscore.DEInternal>
1.5857

> <Gold.Chemscore.Rot>
1.5190

> <Gold.Chemscore.Internal.Correction>
   9.000000E+99

> <Gold.Chemscore.Hbonds>
donor molecule, donor type, donor heavy atom, donor atom, acceptor molecule, acceptor atom, score
      L1  H     8    25       P1  7948  0.40
      L1  H    12    44       P1  7948  0.64
      P1  H  7989  7998       L1    20  0.10
      P1  H 10752 10764       L1     5  0.17

> <Gold.Chemscore.Hbond.Weighted>
-8.2083

> <Gold.Chemscore.Metal.Weighted>
-0.0000

> <Gold.Chemscore.Lipo.Weighted>
-7.3586

> <Gold.Chemscore.Internal_Hbond.Weighted>
0.0000

> <Gold.Chemscore.DEClash.Weighted>
0.3029

> <Gold.Chemscore.DEInternal.Weighted>
1.5857

> <Gold.Chemscore.Rot.Weighted>
3.8886

> <Gold.Chemscore.Internal.Correction.Weighted>
   9.000000E+99

> <Gold.Protein.RotatedTorsions>
[ 6907 6896 6895 6894 ] final  145.71 input  -60.11 | X-H torsion
[ 7974 7965 7964 7962 ] final  166.63 input  175.53 | X-H torsion
[ 8008 7997 7996 7995 ] final  -66.86 input   59.86 | X-H torsion
[ 10167 10162 10161 10158 ] final  -99.71 input  -65.29 | X-H torsion
[ 10718 10713 10712 10709 ] final  102.26 input   66.30 | X-H torsion
[ 10763 10752 10751 10750 ] final  -89.21 input  -60.55 | X-H torsion
[ 11005 11000 10999 10996 ] final -168.23 input  -57.11 | X-H torsion

> <Gold.Protein.ActiveResidues>
 VAL166  LYS551  ARG553  GLY616  TRP617  ASP618  TYR619  PRO620  LYS621  CYS622 
 ASP623  PHE694  ASN695  SER759  ASP760  ASP761  ALA762  ILE779  LEU786  VAL792 
 PHE793  MET794  SER795  GLU796  ALA797  LYS798  CYS799  TRP800  GLU811  SER814 

> <Gold.Protein.RotatedAtoms>
  152.1773  133.4683  159.4939 H   0  0  0  0  0  0  0  0  0  0  0  0  # atno 6907 bound_to 6896
  150.6929  134.1877  159.4282 H   0  0  0  0  0  0  0  0  0  0  0  0  # atno 6908 bound_to 6896
  151.9787  135.0039  160.0607 H   0  0  0  0  0  0  0  0  0  0  0  0  # atno 6909 bound_to 6896
  144.7455  139.8643  143.6383 H   0  0  0  0  0  0  0  0  0  0  0  0  # atno 7974 bound_to 7965
  154.4762  140.0904  156.7267 H   0  0  0  0  0  0  0  0  0  0  0  0  # atno 8008 bound_to 7997
  155.4591  140.3460  155.4292 H   0  0  0  0  0  0  0  0  0  0  0  0  # atno 8009 bound_to 7997
  156.1120  140.1450  156.9314 H   0  0  0  0  0  0  0  0  0  0  0  0  # atno 8010 bound_to 7997
  140.2596  143.3416  152.0638 H   0  0  0  0  0  0  0  0  0  0  0  0  # atno 10167 bound_to 10162
  157.6807  131.0748  150.5377 H   0  0  0  0  0  0  0  0  0  0  0  0  # atno 10718 bound_to 10713
  154.6528  135.5349  153.7922 H   0  0  0  0  0  0  0  0  0  0  0  0  # atno 10763 bound_to 10752
  153.0396  135.6486  154.0991 H   0  0  0  0  0  0  0  0  0  0  0  0  # atno 10764 bound_to 10752
  154.0906  135.2940  155.3252 H   0  0  0  0  0  0  0  0  0  0  0  0  # atno 10765 bound_to 10752
  140.5443  134.5491  157.5107 H   0  0  0  0  0  0  0  0  0  0  0  0  # atno 11005 bound_to 11000
  146.1326  139.4364  143.0159 LP  0  0  0  0  0  0  0  0  0  0  0  0  # atno 17320 bound_to 7965
  145.7140  141.0097  143.1438 LP  0  0  0  0  0  0  0  0  0  0  0  0  # atno 17321 bound_to 7965
  139.5021  144.6727  151.6203 LP  0  0  0  0  0  0  0  0  0  0  0  0  # atno 17342 bound_to 10162
  140.5976  143.9667  150.6365 LP  0  0  0  0  0  0  0  0  0  0  0  0  # atno 17343 bound_to 10162
  156.5684  130.4273  149.6030 LP  0  0  0  0  0  0  0  0  0  0  0  0  # atno 17370 bound_to 10713
  156.2761  130.7044  151.1855 LP  0  0  0  0  0  0  0  0  0  0  0  0  # atno 17371 bound_to 10713
  139.9488  134.7654  156.0498 LP  0  0  0  0  0  0  0  0  0  0  0  0  # atno 17394 bound_to 11000
  141.1209  133.6613  156.3212 LP  0  0  0  0  0  0  0  0  0  0  0  0  # atno 17395 bound_to 11000

$$$$
