AV-unprocessed.smi:3042|AV-procd|sdf|11601|dock8
  -GOLD-   2272016583D 1   1.00000     0.00000
 Structure written by MMmdl.
 32 33  0  0  0  0  0  0  0  0  1 V2000
  152.1464  138.6621  158.0771 N   0  0  0  0  0  0  0  0  0  0  0  0
  152.3230  140.1183  158.2043 C   0  0  0  0  0  0  0  0  0  0  0  0
  150.9818  140.8925  158.2666 C   0  0  2  0  0  0  0  0  0  0  0  0
  150.3298  140.8593  156.8851 C   0  0  0  0  0  0  0  0  0  0  0  0
  149.0680  141.4500  156.6539 C   0  0  0  0  0  0  0  0  0  0  0  0
  148.5181  141.3962  155.3589 C   0  0  0  0  0  0  0  0  0  0  0  0
  149.2543  140.7534  154.3441 C   0  0  0  0  0  0  0  0  0  0  0  0
  150.4617  140.1850  154.5508 N   0  0  0  0  0  0  0  0  0  0  0  0
  150.9823  140.2421  155.7955 C   0  0  0  0  0  0  0  0  0  0  0  0
  151.0989  142.2745  158.7770 N   0  0  0  0  0  0  0  0  0  0  0  0
  152.1219  142.3858  159.8234 C   0  0  0  0  0  0  0  0  0  0  0  0
  152.2618  143.8195  160.3626 C   0  0  0  0  0  0  0  0  0  0  0  0
  152.5604  144.7039  159.2902 O   0  0  0  0  0  0  0  0  0  0  0  0
  151.5639  144.6774  158.2768 C   0  0  0  0  0  0  0  0  0  0  0  0
  151.4171  143.2472  157.7282 C   0  0  0  0  0  0  0  0  0  0  0  0
  152.5384  138.3310  157.1968 H   0  0  0  0  0  0  0  0  0  0  0  0
  152.6394  138.1767  158.8250 H   0  0  0  0  0  0  0  0  0  0  0  0
  152.9086  140.3021  159.1033 H   0  0  0  0  0  0  0  0  0  0  0  0
  152.9218  140.4868  157.3707 H   0  0  0  0  0  0  0  0  0  0  0  0
  150.3275  140.3411  158.9443 H   0  0  0  0  0  0  0  0  0  0  0  0
  148.5307  141.9361  157.4549 H   0  0  0  0  0  0  0  0  0  0  0  0
  147.5558  141.8386  155.1481 H   0  0  0  0  0  0  0  0  0  0  0  0
  148.8634  140.6950  153.3391 H   0  0  0  0  0  0  0  0  0  0  0  0
  151.9499  139.7793  155.9247 H   0  0  0  0  0  0  0  0  0  0  0  0
  151.8870  141.7322  160.6631 H   0  0  0  0  0  0  0  0  0  0  0  0
  153.0854  142.0545  159.4330 H   0  0  0  0  0  0  0  0  0  0  0  0
  151.3461  144.1365  160.8640 H   0  0  0  0  0  0  0  0  0  0  0  0
  153.0646  143.8705  161.0984 H   0  0  0  0  0  0  0  0  0  0  0  0
  150.6151  145.0353  158.6794 H   0  0  0  0  0  0  0  0  0  0  0  0
  151.8505  145.3615  157.4781 H   0  0  0  0  0  0  0  0  0  0  0  0
  152.3384  142.9572  157.2210 H   0  0  0  0  0  0  0  0  0  0  0  0
  150.6327  143.2692  156.9738 H   0  0  0  0  0  0  0  0  0  0  0  0
  1  2  1  0  0  0  0
  1 16  1  0  0  0  0
  1 17  1  0  0  0  0
  2  3  1  0  0  0  0
  2 18  1  0  0  0  0
  2 19  1  0  0  0  0
  3  4  1  0  0  0  0
  3 10  1  0  0  0  0
  3 20  1  0  0  0  0
  4  9  1  0  0  0  0
  4  5  2  0  0  0  0
  5  6  1  0  0  0  0
  5 21  1  0  0  0  0
  6  7  2  0  0  0  0
  6 22  1  0  0  0  0
  7  8  1  0  0  0  0
  7 23  1  0  0  0  0
  8  9  2  0  0  0  0
  9 24  1  0  0  0  0
 10 15  1  0  0  0  0
 10 11  1  0  0  0  0
 11 12  1  0  0  0  0
 11 25  1  0  0  0  0
 11 26  1  0  0  0  0
 12 13  1  0  0  0  0
 12 27  1  0  0  0  0
 12 28  1  0  0  0  0
 13 14  1  0  0  0  0
 14 15  1  0  0  0  0
 14 29  1  0  0  0  0
 14 30  1  0  0  0  0
 15 31  1  0  0  0  0
 15 32  1  0  0  0  0
M  END
> <s_m_source_file>
AV-unprocessed.smi

> <i_m_source_file_index>
3042

> <i_lp_mmshare_version>
43012

> <i_f3d_flags>
0

> <s_epik_input>
W0NIMl0xW0NIMl1PW0NIMl1bQ0gyXU4xW0NASF0oW0NIMl1bTkgyXSljMltjSF1bY0hdW2NIXW5bY0hdMg==

> <s_epik_cmdline>
J2VwaWtfcHl0aG9uJywgJy1waCcsICc3LjAnLCAnLXRuJywgJzgnLCAnLW1hJywgJzIwMCcsICctbWV0YWxfYmluZGluZycsICctaW1hZScsICc8aW5maWxlLm1hZT4nLCAnLW9tYWUnLCAnPG91dGZpbGUubWFlPic=

> <r_epik_Ionization_Penalty>
2.62143

> <r_epik_Ionization_Penalty_Charging>
0

> <r_epik_Ionization_Penalty_Neutral>
2.62143

> <r_epik_State_Penalty>
2.72742

> <r_epik_Charging_Adjusted_Penalty>
2.72742

> <i_epik_Tot_Q>
0

> <i_epik_Tot_abs_Q>
0

> <r_epik_Metal_State_Penalty>
2.72081

> <b_epik_Metal_Only>
0

> <s_lp_Force_Field>
OPLS_2005

> <r_lp_Energy>
27.3222

> <b_lp_Chiralities_Consistent>
1

> <s_lp_Variant>
AV-unprocessed.smi:3042-3

> <Gold.Version>
5.8.1

> <Gold.Id.Protein>
6NUR|6NUR_protein|mol2

> <Gold.PLP.Fitness>
35.1010

> <Gold.PLP.PLP>
-30.3041

> <Gold.PLP.part.hbond>
-1.0000

> <Gold.PLP.part.metal>
0.0000

> <Gold.PLP.part.buried>
-4.9214

> <Gold.PLP.part.nonpolar>
-25.3870

> <Gold.PLP.part.repulsive>
0.1286

> <Gold.PLP.ligand.clash>
0.0000

> <Gold.PLP.ligand.torsion>
0.6356

> <Gold.PLP.Chemscore.Hbond>
1.0000

> <Gold.PLP.Chemscore.CHOScore>
1.0000

> <Gold.PLP.Chemscore.Metal>
0.0000

> <Gold.Chemscore.Hbonds>
donor molecule, donor type, donor heavy atom, donor atom, acceptor molecule, acceptor atom, score
      P1  H  7989  7998       L1     8  1.00
      L1  C     7    23       P1  7957  1.00

> <Gold.PLP.Chemscore.Internal.Correction>
0.0681

> <Gold.Rescore>
     Score         DG    S(hbond)    S(metal)    S(lipo)     H(rot)  DE(clash)    DE(int)     intcor
     13.75     -14.24       0.77        0.00      84.30       1.44       0.07       0.42       ----

> <Gold.Chemscore.Fitness>
13.7471

> <Gold.Chemscore.DG>
-14.2393

> <Gold.Chemscore.ZeroCoef>
-5.4800

> <Gold.Chemscore.Hbond>
0.7703

> <Gold.Chemscore.Metal>
0.0000

> <Gold.Chemscore.Lipo>
84.2955

> <Gold.Chemscore.Internal_Hbond>
0.0000

> <Gold.Chemscore.DEClash>
0.0678

> <Gold.Chemscore.DEInternal>
0.4245

> <Gold.Chemscore.Rot>
1.4359

> <Gold.Chemscore.Internal.Correction>
   9.000000E+99

> <Gold.Chemscore.Hbonds>
donor molecule, donor type, donor heavy atom, donor atom, acceptor molecule, acceptor atom, score
      P1  H  7989  7998       L1     8  0.45

> <Gold.Chemscore.Hbond.Weighted>
-2.5727

> <Gold.Chemscore.Metal.Weighted>
-0.0000

> <Gold.Chemscore.Lipo.Weighted>
-9.8626

> <Gold.Chemscore.Internal_Hbond.Weighted>
0.0000

> <Gold.Chemscore.DEClash.Weighted>
0.0678

> <Gold.Chemscore.DEInternal.Weighted>
0.4245

> <Gold.Chemscore.Rot.Weighted>
3.6759

> <Gold.Chemscore.Internal.Correction.Weighted>
   9.000000E+99

> <Gold.Protein.RotatedTorsions>
[ 6907 6896 6895 6894 ] final   55.30 input  -60.11 | X-H torsion
[ 7974 7965 7964 7962 ] final   72.28 input  175.53 | X-H torsion
[ 8008 7997 7996 7995 ] final  -36.11 input   59.86 | X-H torsion
[ 10167 10162 10161 10158 ] final  127.37 input  -65.29 | X-H torsion
[ 10718 10713 10712 10709 ] final  -30.52 input   66.30 | X-H torsion
[ 10763 10752 10751 10750 ] final  101.79 input  -60.55 | X-H torsion
[ 11005 11000 10999 10996 ] final  174.59 input  -57.11 | X-H torsion

> <Gold.Protein.ActiveResidues>
 VAL166  LYS551  ARG553  GLY616  TRP617  ASP618  TYR619  PRO620  LYS621  CYS622 
 ASP623  PHE694  ASN695  SER759  ASP760  ASP761  ALA762  ILE779  LEU786  VAL792 
 PHE793  MET794  SER795  GLU796  ALA797  LYS798  CYS799  TRP800  GLU811  SER814 

> <Gold.Protein.RotatedAtoms>
  152.3525  134.6985  160.0231 H   0  0  0  0  0  0  0  0  0  0  0  0  # atno 6907 bound_to 6896
  151.7335  133.3313  159.3354 H   0  0  0  0  0  0  0  0  0  0  0  0  # atno 6908 bound_to 6896
  150.7550  134.6276  159.6213 H   0  0  0  0  0  0  0  0  0  0  0  0  # atno 6909 bound_to 6896
  145.7554  139.2777  143.1407 H   0  0  0  0  0  0  0  0  0  0  0  0  # atno 7974 bound_to 7965
  154.4080  140.1639  156.2321 H   0  0  0  0  0  0  0  0  0  0  0  0  # atno 8008 bound_to 7997
  155.9273  140.3417  155.6198 H   0  0  0  0  0  0  0  0  0  0  0  0  # atno 8009 bound_to 7997
  155.7149  140.0761  157.2346 H   0  0  0  0  0  0  0  0  0  0  0  0  # atno 8010 bound_to 7997
  139.5582  144.6863  151.4120 H   0  0  0  0  0  0  0  0  0  0  0  0  # atno 10167 bound_to 10162
  156.3988  130.4386  149.7338 H   0  0  0  0  0  0  0  0  0  0  0  0  # atno 10718 bound_to 10713
  153.3312  135.4032  155.1497 H   0  0  0  0  0  0  0  0  0  0  0  0  # atno 10763 bound_to 10752
  154.8623  135.3611  154.5468 H   0  0  0  0  0  0  0  0  0  0  0  0  # atno 10764 bound_to 10752
  153.5907  135.7074  153.5484 H   0  0  0  0  0  0  0  0  0  0  0  0  # atno 10765 bound_to 10752
  140.3530  134.7179  157.4280 H   0  0  0  0  0  0  0  0  0  0  0  0  # atno 11005 bound_to 11000
  146.0316  140.8252  142.9873 LP  0  0  0  0  0  0  0  0  0  0  0  0  # atno 17320 bound_to 7965
  144.6841  140.2777  143.7296 LP  0  0  0  0  0  0  0  0  0  0  0  0  # atno 17321 bound_to 7965
  140.6858  143.7977  150.7184 LP  0  0  0  0  0  0  0  0  0  0  0  0  # atno 17342 bound_to 10162
  140.1444  143.4412  152.2172 LP  0  0  0  0  0  0  0  0  0  0  0  0  # atno 17343 bound_to 10162
  156.4362  130.7839  151.2860 LP  0  0  0  0  0  0  0  0  0  0  0  0  # atno 17370 bound_to 10713
  157.7503  131.0139  150.3441 LP  0  0  0  0  0  0  0  0  0  0  0  0  # atno 17371 bound_to 10713
  140.0688  134.5892  155.8665 LP  0  0  0  0  0  0  0  0  0  0  0  0  # atno 17394 bound_to 11000
  141.2006  133.6614  156.5909 LP  0  0  0  0  0  0  0  0  0  0  0  0  # atno 17395 bound_to 11000

$$$$
