AV-unprocessed.smi:2918|AV-procd|sdf|11191|dock9
  -GOLD-   2272016 83D 1   1.00000     0.00000
 Structure written by MMmdl.
 41 42  0  0  0  0  0  0  0  0  1 V2000
  152.1875  138.9756  157.0827 C   0  0  0  0  0  0  0  0  0  0  0  0
  151.8992  138.6851  155.6017 C   0  0  0  0  0  0  0  0  0  0  0  0
  153.1305  138.9410  154.7167 C   0  0  0  0  0  0  0  0  0  0  0  0
  150.7411  139.4440  155.1386 N   0  0  0  0  0  0  0  0  0  0  0  0
  150.6944  140.7856  155.3150 N   0  0  0  0  0  0  0  0  0  0  0  0
  149.5275  141.1640  154.8117 C   0  0  0  0  0  0  0  0  0  0  0  0
  148.7657  140.0779  154.2965 C   0  0  0  0  0  0  0  0  0  0  0  0
  149.5808  139.0042  154.5318 C   0  0  0  0  0  0  0  0  0  0  0  0
  149.3564  137.6918  154.2540 N   0  0  0  0  0  0  0  0  0  0  0  0
  149.4137  136.6323  155.0798 C   0  0  0  0  0  0  0  0  0  0  0  0
  149.6821  136.6811  156.2799 O   0  0  0  0  0  0  0  0  0  0  0  0
  149.1302  135.4973  154.4185 N   0  0  0  0  0  0  0  0  0  0  0  0
  149.0654  134.1236  154.9410 C   0  0  0  0  0  0  0  0  0  0  0  0
  150.2511  133.8671  155.8956 C   0  0  0  0  0  0  0  0  0  0  0  0
  147.7185  133.8416  155.6506 C   0  0  0  0  0  0  0  0  0  0  0  0
  146.5324  133.8712  154.6700 C   0  0  0  0  0  0  0  0  0  0  0  0
  146.7443  132.9284  153.6256 O   0  0  0  0  0  0  0  0  0  0  0  0
  147.9045  133.2093  152.8513 C   0  0  0  0  0  0  0  0  0  0  0  0
  149.1611  133.1566  153.7410 C   0  0  0  0  0  0  0  0  0  0  0  0
  153.0107  138.3612  157.4484 H   0  0  0  0  0  0  0  0  0  0  0  0
  151.3157  138.7601  157.7011 H   0  0  0  0  0  0  0  0  0  0  0  0
  152.4584  140.0203  157.2405 H   0  0  0  0  0  0  0  0  0  0  0  0
  151.6586  137.6252  155.5172 H   0  0  0  0  0  0  0  0  0  0  0  0
  153.9663  138.3099  155.0199 H   0  0  0  0  0  0  0  0  0  0  0  0
  153.4627  139.9781  154.7771 H   0  0  0  0  0  0  0  0  0  0  0  0
  152.9139  138.7197  153.6711 H   0  0  0  0  0  0  0  0  0  0  0  0
  149.2670  142.2119  154.8390 H   0  0  0  0  0  0  0  0  0  0  0  0
  147.7874  140.1051  153.8410 H   0  0  0  0  0  0  0  0  0  0  0  0
  149.1056  137.4938  153.2967 H   0  0  0  0  0  0  0  0  0  0  0  0
  148.9280  135.5905  153.4339 H   0  0  0  0  0  0  0  0  0  0  0  0
  150.2745  132.8280  156.2252 H   0  0  0  0  0  0  0  0  0  0  0  0
  150.1951  134.4828  156.7934 H   0  0  0  0  0  0  0  0  0  0  0  0
  151.2045  134.0770  155.4095 H   0  0  0  0  0  0  0  0  0  0  0  0
  147.7559  132.8542  156.1131 H   0  0  0  0  0  0  0  0  0  0  0  0
  147.5436  134.5405  156.4681 H   0  0  0  0  0  0  0  0  0  0  0  0
  145.6117  133.6109  155.1923 H   0  0  0  0  0  0  0  0  0  0  0  0
  146.3871  134.8691  154.2539 H   0  0  0  0  0  0  0  0  0  0  0  0
  147.9805  132.4673  152.0562 H   0  0  0  0  0  0  0  0  0  0  0  0
  147.8037  134.1810  152.3654 H   0  0  0  0  0  0  0  0  0  0  0  0
  150.0483  133.3735  153.1441 H   0  0  0  0  0  0  0  0  0  0  0  0
  149.2833  132.1347  154.1032 H   0  0  0  0  0  0  0  0  0  0  0  0
  1  2  1  0  0  0  0
  1 20  1  0  0  0  0
  1 21  1  0  0  0  0
  1 22  1  0  0  0  0
  2  3  1  0  0  0  0
  2  4  1  0  0  0  0
  2 23  1  0  0  0  0
  3 24  1  0  0  0  0
  3 25  1  0  0  0  0
  3 26  1  0  0  0  0
  4  8  1  0  0  0  0
  4  5  1  0  0  0  0
  5  6  2  0  0  0  0
  6  7  1  0  0  0  0
  6 27  1  0  0  0  0
  7  8  2  0  0  0  0
  7 28  1  0  0  0  0
  8  9  1  0  0  0  0
  9 10  1  0  0  0  0
  9 29  1  0  0  0  0
 10 11  2  0  0  0  0
 10 12  1  0  0  0  0
 12 13  1  0  0  0  0
 12 30  1  0  0  0  0
 13 19  1  0  0  0  0
 13 14  1  0  0  0  0
 13 15  1  0  0  0  0
 14 31  1  0  0  0  0
 14 32  1  0  0  0  0
 14 33  1  0  0  0  0
 15 16  1  0  0  0  0
 15 34  1  0  0  0  0
 15 35  1  0  0  0  0
 16 17  1  0  0  0  0
 16 36  1  0  0  0  0
 16 37  1  0  0  0  0
 17 18  1  0  0  0  0
 18 19  1  0  0  0  0
 18 38  1  0  0  0  0
 18 39  1  0  0  0  0
 19 40  1  0  0  0  0
 19 41  1  0  0  0  0
M  END
> <s_m_source_file>
AV-unprocessed.smi

> <i_m_source_file_index>
2918

> <i_lp_mmshare_version>
43012

> <i_f3d_flags>
0

> <s_epik_input>
W0NIM11bQ0hdKFtDSDNdKW4xbltjSF1bY0hdYzFbTkhdQyg9TylbTkhdQzIoW0NIM10pW0NIMl1bQ0gyXU9bQ0gyXVtDSDJdMg==

> <s_epik_cmdline>
J2VwaWtfcHl0aG9uJywgJy1waCcsICc3LjAnLCAnLXRuJywgJzgnLCAnLW1hJywgJzIwMCcsICctbWV0YWxfYmluZGluZycsICctaW1hZScsICc8aW5maWxlLm1hZT4nLCAnLW9tYWUnLCAnPG91dGZpbGUubWFlPic=

> <r_lp_tautomer_probability>
1

> <r_epik_Ionization_Penalty>
4.13243e-05

> <r_epik_Ionization_Penalty_Charging>
0

> <r_epik_Ionization_Penalty_Neutral>
4.13243e-05

> <r_epik_State_Penalty>
-0

> <r_epik_Charging_Adjusted_Penalty>
0

> <i_epik_Tot_Q>
0

> <i_epik_Tot_abs_Q>
0

> <r_epik_Metal_State_Penalty>
-0

> <b_epik_Metal_Only>
0

> <s_lp_Force_Field>
OPLS_2005

> <r_lp_Energy>
17.4718

> <b_lp_Chiralities_Consistent>
1

> <s_lp_Variant>
AV-unprocessed.smi:2918-1

> <Gold.Version>
5.8.1

> <Gold.Id.Protein>
6NUR|6NUR_protein|mol2

> <Gold.PLP.Fitness>
37.5841

> <Gold.PLP.PLP>
-31.0581

> <Gold.PLP.part.hbond>
-3.0000

> <Gold.PLP.part.metal>
0.0000

> <Gold.PLP.part.buried>
-1.2261

> <Gold.PLP.part.nonpolar>
-26.8323

> <Gold.PLP.part.repulsive>
0.1990

> <Gold.PLP.ligand.clash>
0.0000

> <Gold.PLP.ligand.torsion>
1.0209

> <Gold.PLP.Chemscore.Hbond>
2.1480

> <Gold.PLP.Chemscore.CHOScore>
0.6946

> <Gold.PLP.Chemscore.Metal>
0.0000

> <Gold.Chemscore.Hbonds>
donor molecule, donor type, donor heavy atom, donor atom, acceptor molecule, acceptor atom, score
      L1  H     9    29       P1  7948  0.99
      L1  H    12    30       P1  7948  1.00
      P1  H  7989  7998       L1     5  0.16
      L1  C     6    27       P1  8028  0.69

> <Gold.PLP.Chemscore.Internal.Correction>
0.0399

> <Gold.Rescore>
     Score         DG    S(hbond)    S(metal)    S(lipo)     H(rot)  DE(clash)    DE(int)     intcor
     13.25     -15.83       1.80        0.00      63.25       1.19       0.06       2.52       ----

> <Gold.Chemscore.Fitness>
13.2535

> <Gold.Chemscore.DG>
-15.8270

> <Gold.Chemscore.ZeroCoef>
-5.4800

> <Gold.Chemscore.Hbond>
1.7962

> <Gold.Chemscore.Metal>
0.0000

> <Gold.Chemscore.Lipo>
63.2491

> <Gold.Chemscore.Internal_Hbond>
0.0000

> <Gold.Chemscore.DEClash>
0.0575

> <Gold.Chemscore.DEInternal>
2.5161

> <Gold.Chemscore.Rot>
1.1924

> <Gold.Chemscore.Internal.Correction>
   9.000000E+99

> <Gold.Chemscore.Hbonds>
donor molecule, donor type, donor heavy atom, donor atom, acceptor molecule, acceptor atom, score
      L1  H     9    29       P1  7948  0.93
      L1  H    12    30       P1  7948  0.85

> <Gold.Chemscore.Hbond.Weighted>
-5.9993

> <Gold.Chemscore.Metal.Weighted>
-0.0000

> <Gold.Chemscore.Lipo.Weighted>
-7.4001

> <Gold.Chemscore.Internal_Hbond.Weighted>
0.0000

> <Gold.Chemscore.DEClash.Weighted>
0.0575

> <Gold.Chemscore.DEInternal.Weighted>
2.5161

> <Gold.Chemscore.Rot.Weighted>
3.0524

> <Gold.Chemscore.Internal.Correction.Weighted>
   9.000000E+99

> <Gold.Protein.RotatedTorsions>
[ 6907 6896 6895 6894 ] final  -36.57 input  -60.11 | X-H torsion
[ 7974 7965 7964 7962 ] final  -50.36 input  175.53 | X-H torsion
[ 8008 7997 7996 7995 ] final -177.90 input   59.86 | X-H torsion
[ 10167 10162 10161 10158 ] final -160.49 input  -65.29 | X-H torsion
[ 10718 10713 10712 10709 ] final -100.82 input   66.30 | X-H torsion
[ 10763 10752 10751 10750 ] final    7.65 input  -60.55 | X-H torsion
[ 11005 11000 10999 10996 ] final  -12.69 input  -57.11 | X-H torsion

> <Gold.Protein.ActiveResidues>
 VAL166  LYS551  ARG553  GLY616  TRP617  ASP618  TYR619  PRO620  LYS621  CYS622 
 ASP623  PHE694  ASN695  SER759  ASP760  ASP761  ALA762  ILE779  LEU786  VAL792 
 PHE793  MET794  SER795  GLU796  ALA797  LYS798  CYS799  TRP800  GLU811  SER814 

> <Gold.Protein.RotatedAtoms>
  151.0255  134.9501  159.8082 H   0  0  0  0  0  0  0  0  0  0  0  0  # atno 6907 bound_to 6896
  152.5334  134.2847  159.9031 H   0  0  0  0  0  0  0  0  0  0  0  0  # atno 6908 bound_to 6896
  151.2856  133.4147  159.2664 H   0  0  0  0  0  0  0  0  0  0  0  0  # atno 6909 bound_to 6896
  145.9307  140.7752  142.9601 H   0  0  0  0  0  0  0  0  0  0  0  0  # atno 7974 bound_to 7965
  156.0124  140.1243  157.0440 H   0  0  0  0  0  0  0  0  0  0  0  0  # atno 8008 bound_to 7997
  154.4281  140.1085  156.5918 H   0  0  0  0  0  0  0  0  0  0  0  0  # atno 8009 bound_to 7997
  155.6060  140.3471  155.4610 H   0  0  0  0  0  0  0  0  0  0  0  0  # atno 8010 bound_to 7997
  139.6536  144.0040  152.2178 H   0  0  0  0  0  0  0  0  0  0  0  0  # atno 10167 bound_to 10162
  156.0175  130.5345  150.6872 H   0  0  0  0  0  0  0  0  0  0  0  0  # atno 10718 bound_to 10713
  153.2339  135.6896  153.7858 H   0  0  0  0  0  0  0  0  0  0  0  0  # atno 10763 bound_to 10752
  153.7013  135.3297  155.3226 H   0  0  0  0  0  0  0  0  0  0  0  0  # atno 10764 bound_to 10752
  154.8326  135.4568  154.1235 H   0  0  0  0  0  0  0  0  0  0  0  0  # atno 10765 bound_to 10752
  140.7683  133.8459  155.9184 H   0  0  0  0  0  0  0  0  0  0  0  0  # atno 11005 bound_to 11000
  144.6764  140.2122  143.7375 LP  0  0  0  0  0  0  0  0  0  0  0  0  # atno 17320 bound_to 7965
  145.8430  139.2139  143.1816 LP  0  0  0  0  0  0  0  0  0  0  0  0  # atno 17321 bound_to 7965
  139.9760  144.6461  150.7944 LP  0  0  0  0  0  0  0  0  0  0  0  0  # atno 17342 bound_to 10162
  140.7549  143.3035  151.3020 LP  0  0  0  0  0  0  0  0  0  0  0  0  # atno 17343 bound_to 10162
  157.4562  131.0878  151.0794 LP  0  0  0  0  0  0  0  0  0  0  0  0  # atno 17370 bound_to 10713
  157.1296  130.6096  149.5526 LP  0  0  0  0  0  0  0  0  0  0  0  0  # atno 17371 bound_to 10713
  140.9598  134.1670  157.4663 LP  0  0  0  0  0  0  0  0  0  0  0  0  # atno 17394 bound_to 11000
  139.8760  134.9940  156.5674 LP  0  0  0  0  0  0  0  0  0  0  0  0  # atno 17395 bound_to 11000

$$$$
