AV-unprocessed.smi:243|AV-procd|sdf|1863|dock7
  -GOLD-   2262020503D 1   1.00000     0.00000
 Structure written by MMmdl.
 58 61  0  0  0  0  0  0  0  0  2 V2000
  153.2912  141.8629  160.0643 C   0  0  0  0  0  0  0  0  0  0  0  0
  153.5645  140.3524  160.0205 C   0  0  0  0  0  0  0  0  0  0  0  0
  153.0225  139.7128  158.7955 N   0  3  1  0  0  0  0  0  0  0  0  0
  153.4015  138.2817  158.6932 C   0  0  0  0  0  0  0  0  0  0  0  0
  152.9484  137.6733  157.3556 C   0  0  0  0  0  0  0  0  0  0  0  0
  151.4279  137.8459  157.1449 C   0  0  2  0  0  0  0  0  0  0  0  0
  150.9602  137.2318  155.8910 N   0  0  0  0  0  0  0  0  0  0  0  0
  151.6344  137.6171  154.6549 C   0  0  0  0  0  0  0  0  0  0  0  0
  150.7654  135.8922  155.9110 C   0  0  0  0  0  0  0  0  0  0  0  0
  151.7617  135.1318  156.4286 N   0  0  0  0  0  0  0  0  0  0  0  0
  151.6363  133.8021  156.4683 C   0  0  0  0  0  0  0  0  0  0  0  0
  150.6158  133.0472  156.0559 N   0  0  0  0  0  0  0  0  0  0  0  0
  149.6055  133.8106  155.5492 C   0  0  0  0  0  0  0  0  0  0  0  0
  149.5928  135.2300  155.4468 C   0  0  0  0  0  0  0  0  0  0  0  0
  148.3898  135.6537  154.8945 N   0  0  0  0  0  0  0  0  0  0  0  0
  147.7333  134.5477  154.6742 C   0  0  0  0  0  0  0  0  0  0  0  0
  148.3951  133.3927  155.0249 N   0  0  0  0  0  0  0  0  0  0  0  0
  147.9100  132.0294  154.8775 C   0  0  0  0  0  0  0  0  0  0  0  0
  147.5152  131.6737  153.4250 C   0  0  2  0  0  0  0  0  0  0  0  0
  148.6098  131.9424  152.5661 O   0  0  0  0  0  0  0  0  0  0  0  0
  146.2969  132.4348  152.9069 C   0  0  0  0  0  0  0  0  0  0  0  0
  145.6318  131.4260  151.9812 C   0  0  0  0  0  0  0  0  0  0  0  0
  145.8002  130.2084  152.6856 O   0  0  0  0  0  0  0  0  0  0  0  0
  147.1068  130.1967  153.2507 C   0  0  0  0  0  0  0  0  0  0  0  0
  151.0629  139.3538  157.2801 C   0  0  2  0  0  0  0  0  0  0  0  0
  151.5612  140.2379  156.1172 C   0  0  0  0  0  0  0  0  0  0  0  0
  151.5560  139.8975  158.6354 C   0  0  0  0  0  0  0  0  0  0  0  0
  153.7825  142.3163  160.9255 H   0  0  0  0  0  0  0  0  0  0  0  0
  152.2282  142.0868  160.1464 H   0  0  0  0  0  0  0  0  0  0  0  0
  153.6720  142.3579  159.1704 H   0  0  0  0  0  0  0  0  0  0  0  0
  154.6459  140.2120  160.0499 H   0  0  0  0  0  0  0  0  0  0  0  0
  153.1655  139.8610  160.9088 H   0  0  0  0  0  0  0  0  0  0  0  0
  154.4840  138.1793  158.7817 H   0  0  0  0  0  0  0  0  0  0  0  0
  152.9619  137.7290  159.5251 H   0  0  0  0  0  0  0  0  0  0  0  0
  153.5016  138.1261  156.5325 H   0  0  0  0  0  0  0  0  0  0  0  0
  153.2178  136.6173  157.3582 H   0  0  0  0  0  0  0  0  0  0  0  0
  150.9426  137.3118  157.9616 H   0  0  0  0  0  0  0  0  0  0  0  0
  151.3959  136.9457  153.8280 H   0  0  0  0  0  0  0  0  0  0  0  0
  152.7167  137.6156  154.7903 H   0  0  0  0  0  0  0  0  0  0  0  0
  151.3270  138.6186  154.3543 H   0  0  0  0  0  0  0  0  0  0  0  0
  152.4745  133.2661  156.8884 H   0  0  0  0  0  0  0  0  0  0  0  0
  146.7438  134.5441  154.2407 H   0  0  0  0  0  0  0  0  0  0  0  0
  148.6802  131.3464  155.2382 H   0  0  0  0  0  0  0  0  0  0  0  0
  147.0536  131.9012  155.5410 H   0  0  0  0  0  0  0  0  0  0  0  0
  148.6159  131.2969  151.8759 H   0  0  0  0  0  0  0  0  0  0  0  0
  145.6132  132.6559  153.7277 H   0  0  0  0  0  0  0  0  0  0  0  0
  146.5402  133.3772  152.4144 H   0  0  0  0  0  0  0  0  0  0  0  0
  144.5795  131.6465  151.8013 H   0  0  0  0  0  0  0  0  0  0  0  0
  146.1462  131.3721  151.0204 H   0  0  0  0  0  0  0  0  0  0  0  0
  147.7838  129.6601  152.5836 H   0  0  0  0  0  0  0  0  0  0  0  0
  147.0844  129.6546  154.1966 H   0  0  0  0  0  0  0  0  0  0  0  0
  149.9768  139.4471  157.2967 H   0  0  0  0  0  0  0  0  0  0  0  0
  152.6482  140.2451  156.0422 H   0  0  0  0  0  0  0  0  0  0  0  0
  151.2381  141.2705  156.2513 H   0  0  0  0  0  0  0  0  0  0  0  0
  151.1686  139.9048  155.1574 H   0  0  0  0  0  0  0  0  0  0  0  0
  151.0385  139.3877  159.4498 H   0  0  0  0  0  0  0  0  0  0  0  0
  151.2915  140.9514  158.7148 H   0  0  0  0  0  0  0  0  0  0  0  0
  153.4637  140.1762  158.0139 H   0  0  0  0  0  0  0  0  0  0  0  0
  1  2  1  0  0  0  0
  1 28  1  0  0  0  0
  1 29  1  0  0  0  0
  1 30  1  0  0  0  0
  2  3  1  0  0  0  0
  2 31  1  0  0  0  0
  2 32  1  0  0  0  0
  3 27  1  0  0  0  0
  3  4  1  0  0  0  0
  3 58  1  0  0  0  0
  4  5  1  0  0  0  0
  4 33  1  0  0  0  0
  4 34  1  0  0  0  0
  5  6  1  0  0  0  0
  5 35  1  0  0  0  0
  5 36  1  0  0  0  0
  6  7  1  0  0  0  0
  6 25  1  0  0  0  0
  6 37  1  0  0  0  0
  7  8  1  0  0  0  0
  7  9  1  0  0  0  0
  8 38  1  0  0  0  0
  8 39  1  0  0  0  0
  8 40  1  0  0  0  0
  9 14  1  0  0  0  0
  9 10  2  0  0  0  0
 10 11  1  0  0  0  0
 11 12  2  0  0  0  0
 11 41  1  0  0  0  0
 12 13  1  0  0  0  0
 13 17  1  0  0  0  0
 13 14  2  0  0  0  0
 14 15  1  0  0  0  0
 15 16  2  0  0  0  0
 16 17  1  0  0  0  0
 16 42  1  0  0  0  0
 17 18  1  0  0  0  0
 18 19  1  0  0  0  0
 18 43  1  0  0  0  0
 18 44  1  0  0  0  0
 19 24  1  0  0  0  0
 19 20  1  0  0  0  0
 19 21  1  0  0  0  0
 20 45  1  0  0  0  0
 21 22  1  0  0  0  0
 21 46  1  0  0  0  0
 21 47  1  0  0  0  0
 22 23  1  0  0  0  0
 22 48  1  0  0  0  0
 22 49  1  0  0  0  0
 23 24  1  0  0  0  0
 24 50  1  0  0  0  0
 24 51  1  0  0  0  0
 25 26  1  0  0  0  0
 25 27  1  0  0  0  0
 25 52  1  0  0  0  0
 26 53  1  0  0  0  0
 26 54  1  0  0  0  0
 26 55  1  0  0  0  0
 27 56  1  0  0  0  0
 27 57  1  0  0  0  0
M  CHG  1   3   1
M  END
> <s_m_source_file>
AV-unprocessed.smi

> <i_m_source_file_index>
243

> <i_lp_mmshare_version>
43012

> <i_f3d_flags>
0

> <s_epik_input>
W0NIM11bQ0gyXU4xW0NIMl1bQ0gyXVtDQEhdKFtDQEBIXShbQ0gzXSlbQ0gyXTEpTihbQ0gzXSljKG5bY0hdbjIpYyhjMjMpbltjSF1uM1tDSDJdW0NAQF00KFtPSF0pW0NIMl1bQ0gyXU9bQ0gyXTQ=

> <s_epik_cmdline>
J2VwaWtfcHl0aG9uJywgJy1waCcsICc3LjAnLCAnLXRuJywgJzgnLCAnLW1hJywgJzIwMCcsICctbWV0YWxfYmluZGluZycsICctaW1hZScsICc8aW5maWxlLm1hZT4nLCAnLW9tYWUnLCAnPG91dGZpbGUubWFlPic=

> <r_lp_tautomer_probability>
1

> <r_epik_Ionization_Penalty>
0.00253099

> <r_epik_Ionization_Penalty_Charging>
0.00137877

> <r_epik_Ionization_Penalty_Neutral>
0.00115221

> <r_epik_State_Penalty>
-0

> <r_epik_Charging_Adjusted_Penalty>
0.00137877

> <i_epik_Tot_Q>
1

> <i_epik_Tot_abs_Q>
1

> <r_epik_Metal_State_Penalty>
-0

> <b_epik_Metal_Only>
0

> <s_lp_Force_Field>
OPLS_2005

> <r_lp_Energy>
46.6392

> <b_lp_Chiralities_Consistent>
1

> <s_lp_Variant>
AV-unprocessed.smi:243-16

> <Gold.Version>
5.8.1

> <Gold.Id.Protein>
6NUR|6NUR_protein|mol2

> <Gold.PLP.Fitness>
36.8954

> <Gold.PLP.PLP>
-32.0406

> <Gold.PLP.part.hbond>
-2.0000

> <Gold.PLP.part.metal>
0.0000

> <Gold.PLP.part.buried>
-6.4507

> <Gold.PLP.part.nonpolar>
-25.7226

> <Gold.PLP.part.repulsive>
0.4545

> <Gold.PLP.ligand.clash>
0.0000

> <Gold.PLP.ligand.torsion>
0.8104

> <Gold.PLP.Chemscore.Hbond>
2.0000

> <Gold.PLP.Chemscore.CHOScore>
0.0000

> <Gold.PLP.Chemscore.Metal>
0.0000

> <Gold.Chemscore.Hbonds>
donor molecule, donor type, donor heavy atom, donor atom, acceptor molecule, acceptor atom, score
      L1  H    20    45       P1 10747  0.99
      P1  H 10752 10765       L1    10  1.00

> <Gold.PLP.Chemscore.Internal.Correction>
0.4756

> <Gold.Rescore>
     Score         DG    S(hbond)    S(metal)    S(lipo)     H(rot)  DE(clash)    DE(int)     intcor
      9.91     -13.12       1.26        0.00      84.70       2.53       0.16       3.05       ----

> <Gold.Chemscore.Fitness>
9.9072

> <Gold.Chemscore.DG>
-13.1150

> <Gold.Chemscore.ZeroCoef>
-5.4800

> <Gold.Chemscore.Hbond>
1.2583

> <Gold.Chemscore.Metal>
0.0000

> <Gold.Chemscore.Lipo>
84.7029

> <Gold.Chemscore.Internal_Hbond>
0.0000

> <Gold.Chemscore.DEClash>
0.1560

> <Gold.Chemscore.DEInternal>
3.0518

> <Gold.Chemscore.Rot>
2.5305

> <Gold.Chemscore.Internal.Correction>
   9.000000E+99

> <Gold.Chemscore.Hbonds>
donor molecule, donor type, donor heavy atom, donor atom, acceptor molecule, acceptor atom, score
      L1  H    20    45       P1 10747  0.92
      P1  H 10752 10765       L1    10  0.20

> <Gold.Chemscore.Hbond.Weighted>
-4.2027

> <Gold.Chemscore.Metal.Weighted>
-0.0000

> <Gold.Chemscore.Lipo.Weighted>
-9.9102

> <Gold.Chemscore.Internal_Hbond.Weighted>
0.0000

> <Gold.Chemscore.DEClash.Weighted>
0.1560

> <Gold.Chemscore.DEInternal.Weighted>
3.0518

> <Gold.Chemscore.Rot.Weighted>
6.4780

> <Gold.Chemscore.Internal.Correction.Weighted>
   9.000000E+99

> <Gold.Protein.RotatedTorsions>
[ 6907 6896 6895 6894 ] final  -51.31 input  -60.11 | X-H torsion
[ 7974 7965 7964 7962 ] final  -97.07 input  175.53 | X-H torsion
[ 8008 7997 7996 7995 ] final   47.43 input   59.86 | X-H torsion
[ 10167 10162 10161 10158 ] final -138.21 input  -65.29 | X-H torsion
[ 10718 10713 10712 10709 ] final  150.67 input   66.30 | X-H torsion
[ 10763 10752 10751 10750 ] final -134.28 input  -60.55 | X-H torsion
[ 11005 11000 10999 10996 ] final  -79.53 input  -57.11 | X-H torsion

> <Gold.Protein.ActiveResidues>
 VAL166  LYS551  ARG553  GLY616  TRP617  ASP618  TYR619  PRO620  LYS621  CYS622 
 ASP623  PHE694  ASN695  SER759  ASP760  ASP761  ALA762  ILE779  LEU786  VAL792 
 PHE793  MET794  SER795  GLU796  ALA797  LYS798  CYS799  TRP800  GLU811  SER814 

> <Gold.Protein.RotatedAtoms>
  150.8623  134.7978  159.7092 H   0  0  0  0  0  0  0  0  0  0  0  0  # atno 6907 bound_to 6896
  152.4656  134.5080  159.9755 H   0  0  0  0  0  0  0  0  0  0  0  0  # atno 6908 bound_to 6896
  151.5181  133.3433  159.2932 H   0  0  0  0  0  0  0  0  0  0  0  0  # atno 6909 bound_to 6896
  145.3386  140.9455  143.2621 H   0  0  0  0  0  0  0  0  0  0  0  0  # atno 7974 bound_to 7965
  155.3690  140.3422  155.4242 H   0  0  0  0  0  0  0  0  0  0  0  0  # atno 8008 bound_to 7997
  156.1673  140.1620  156.8544 H   0  0  0  0  0  0  0  0  0  0  0  0  # atno 8009 bound_to 7997
  154.5197  140.0770  156.8131 H   0  0  0  0  0  0  0  0  0  0  0  0  # atno 8010 bound_to 7997
  139.8501  143.7210  152.2658 H   0  0  0  0  0  0  0  0  0  0  0  0  # atno 10167 bound_to 10162
  157.2805  131.0834  151.1535 H   0  0  0  0  0  0  0  0  0  0  0  0  # atno 10718 bound_to 10713
  154.8721  135.3739  154.4710 H   0  0  0  0  0  0  0  0  0  0  0  0  # atno 10763 bound_to 10752
  153.5370  135.7027  153.5660 H   0  0  0  0  0  0  0  0  0  0  0  0  # atno 10764 bound_to 10752
  153.3839  135.3989  155.1841 H   0  0  0  0  0  0  0  0  0  0  0  0  # atno 10765 bound_to 10752
  141.1667  133.7110  156.8137 H   0  0  0  0  0  0  0  0  0  0  0  0  # atno 11005 bound_to 11000
  144.8808  139.4907  143.6724 LP  0  0  0  0  0  0  0  0  0  0  0  0  # atno 17320 bound_to 7965
  146.3016  139.7446  142.9087 LP  0  0  0  0  0  0  0  0  0  0  0  0  # atno 17321 bound_to 7965
  139.7474  144.7543  151.0559 LP  0  0  0  0  0  0  0  0  0  0  0  0  # atno 17342 bound_to 10162
  140.7788  143.4900  150.9905 LP  0  0  0  0  0  0  0  0  0  0  0  0  # atno 17343 bound_to 10162
  157.2970  130.6824  149.6144 LP  0  0  0  0  0  0  0  0  0  0  0  0  # atno 17370 bound_to 10713
  155.9664  130.4403  150.5295 LP  0  0  0  0  0  0  0  0  0  0  0  0  # atno 17371 bound_to 10713
  140.2169  134.8786  157.3335 LP  0  0  0  0  0  0  0  0  0  0  0  0  # atno 17394 bound_to 11000
  140.2028  134.4233  155.7653 LP  0  0  0  0  0  0  0  0  0  0  0  0  # atno 17395 bound_to 11000

$$$$
