AV-unprocessed.smi:243|AV-procd|sdf|1849|dock1
  -GOLD-   2262020473D 1   1.00000     0.00000
 Structure written by MMmdl.
 58 61  0  0  0  0  0  0  0  0  2 V2000
  151.0514  141.3401  158.5731 C   0  0  0  0  0  0  0  0  0  0  0  0
  150.5246  142.4909  157.7033 C   0  0  0  0  0  0  0  0  0  0  0  0
  149.6512  142.0206  156.5979 N   0  3  1  0  0  0  0  0  0  0  0  0
  150.3590  141.0796  155.6928 C   0  0  0  0  0  0  0  0  0  0  0  0
  149.4906  140.6731  154.4858 C   0  0  0  0  0  0  0  0  0  0  0  0
  148.0657  140.2055  154.8501 C   0  0  1  0  0  0  0  0  0  0  0  0
  147.9771  138.7717  155.1839 N   0  0  0  0  0  0  0  0  0  0  0  0
  148.4729  138.1852  156.4259 C   0  0  0  0  0  0  0  0  0  0  0  0
  147.2024  137.9805  154.3980 C   0  0  0  0  0  0  0  0  0  0  0  0
  146.4372  138.5700  153.4422 N   0  0  0  0  0  0  0  0  0  0  0  0
  145.6674  137.8281  152.6408 C   0  0  0  0  0  0  0  0  0  0  0  0
  145.5134  136.5032  152.6249 N   0  0  0  0  0  0  0  0  0  0  0  0
  146.2727  135.9044  153.5865 C   0  0  0  0  0  0  0  0  0  0  0  0
  147.1416  136.5603  154.5044 C   0  0  0  0  0  0  0  0  0  0  0  0
  147.7436  135.6209  155.3346 N   0  0  0  0  0  0  0  0  0  0  0  0
  147.2691  134.4777  154.9226 C   0  0  0  0  0  0  0  0  0  0  0  0
  146.3689  134.5561  153.8846 N   0  0  0  0  0  0  0  0  0  0  0  0
  145.6876  133.4455  153.2383 C   0  0  0  0  0  0  0  0  0  0  0  0
  146.2406  133.1008  151.8318 C   0  0  1  0  0  0  0  0  0  0  0  0
  147.6061  132.7435  151.9282 O   0  0  0  0  0  0  0  0  0  0  0  0
  145.4647  131.9712  151.1739 C   0  0  0  0  0  0  0  0  0  0  0  0
  144.2923  132.6969  150.5155 C   0  0  0  0  0  0  0  0  0  0  0  0
  144.7354  134.0300  150.2755 O   0  0  0  0  0  0  0  0  0  0  0  0
  146.0511  134.2084  150.7883 C   0  0  0  0  0  0  0  0  0  0  0  0
  147.4189  141.1569  155.8860 C   0  0  1  0  0  0  0  0  0  0  0  0
  146.0177  140.7108  156.3380 C   0  0  0  0  0  0  0  0  0  0  0  0
  148.3560  141.4646  157.0703 C   0  0  0  0  0  0  0  0  0  0  0  0
  151.6000  141.7304  159.4307 H   0  0  0  0  0  0  0  0  0  0  0  0
  151.7328  140.6891  158.0263 H   0  0  0  0  0  0  0  0  0  0  0  0
  150.2337  140.7288  158.9562 H   0  0  0  0  0  0  0  0  0  0  0  0
  149.9546  143.1584  158.3512 H   0  0  0  0  0  0  0  0  0  0  0  0
  151.3504  143.0817  157.3039 H   0  0  0  0  0  0  0  0  0  0  0  0
  151.2643  141.5577  155.3173 H   0  0  0  0  0  0  0  0  0  0  0  0
  150.6955  140.2119  156.2556 H   0  0  0  0  0  0  0  0  0  0  0  0
  149.3996  141.5457  153.8377 H   0  0  0  0  0  0  0  0  0  0  0  0
  149.9990  139.9155  153.8882 H   0  0  0  0  0  0  0  0  0  0  0  0
  147.4780  140.3535  153.9435 H   0  0  0  0  0  0  0  0  0  0  0  0
  148.5521  137.1005  156.3420 H   0  0  0  0  0  0  0  0  0  0  0  0
  147.8019  138.4076  157.2551 H   0  0  0  0  0  0  0  0  0  0  0  0
  149.4645  138.5465  156.6786 H   0  0  0  0  0  0  0  0  0  0  0  0
  145.0922  138.3735  151.9071 H   0  0  0  0  0  0  0  0  0  0  0  0
  147.5582  133.5393  155.3733 H   0  0  0  0  0  0  0  0  0  0  0  0
  145.7599  132.5760  153.8929 H   0  0  0  0  0  0  0  0  0  0  0  0
  144.6268  133.6918  153.1798 H   0  0  0  0  0  0  0  0  0  0  0  0
  147.7759  132.0380  151.3230 H   0  0  0  0  0  0  0  0  0  0  0  0
  146.0680  131.4968  150.3980 H   0  0  0  0  0  0  0  0  0  0  0  0
  145.1502  131.1929  151.8700 H   0  0  0  0  0  0  0  0  0  0  0  0
  143.9780  132.2124  149.5907 H   0  0  0  0  0  0  0  0  0  0  0  0
  143.4332  132.7312  151.1858 H   0  0  0  0  0  0  0  0  0  0  0  0
  146.2053  135.2163  151.1700 H   0  0  0  0  0  0  0  0  0  0  0  0
  146.7443  134.0697  149.9570 H   0  0  0  0  0  0  0  0  0  0  0  0
  147.2731  142.1072  155.3690 H   0  0  0  0  0  0  0  0  0  0  0  0
  146.0539  139.7995  156.9343 H   0  0  0  0  0  0  0  0  0  0  0  0
  145.3712  140.5213  155.4807 H   0  0  0  0  0  0  0  0  0  0  0  0
  145.5395  141.4794  156.9456 H   0  0  0  0  0  0  0  0  0  0  0  0
  148.5336  140.5782  157.6780 H   0  0  0  0  0  0  0  0  0  0  0  0
  147.8627  142.1865  157.7199 H   0  0  0  0  0  0  0  0  0  0  0  0
  149.4336  142.8343  156.0403 H   0  0  0  0  0  0  0  0  0  0  0  0
  1  2  1  0  0  0  0
  1 28  1  0  0  0  0
  1 29  1  0  0  0  0
  1 30  1  0  0  0  0
  2  3  1  0  0  0  0
  2 31  1  0  0  0  0
  2 32  1  0  0  0  0
  3 27  1  0  0  0  0
  3  4  1  0  0  0  0
  3 58  1  0  0  0  0
  4  5  1  0  0  0  0
  4 33  1  0  0  0  0
  4 34  1  0  0  0  0
  5  6  1  0  0  0  0
  5 35  1  0  0  0  0
  5 36  1  0  0  0  0
  6  7  1  0  0  0  0
  6 25  1  0  0  0  0
  6 37  1  0  0  0  0
  7  8  1  0  0  0  0
  7  9  1  0  0  0  0
  8 38  1  0  0  0  0
  8 39  1  0  0  0  0
  8 40  1  0  0  0  0
  9 14  1  0  0  0  0
  9 10  2  0  0  0  0
 10 11  1  0  0  0  0
 11 12  2  0  0  0  0
 11 41  1  0  0  0  0
 12 13  1  0  0  0  0
 13 17  1  0  0  0  0
 13 14  2  0  0  0  0
 14 15  1  0  0  0  0
 15 16  2  0  0  0  0
 16 17  1  0  0  0  0
 16 42  1  0  0  0  0
 17 18  1  0  0  0  0
 18 19  1  0  0  0  0
 18 43  1  0  0  0  0
 18 44  1  0  0  0  0
 19 24  1  0  0  0  0
 19 20  1  0  0  0  0
 19 21  1  0  0  0  0
 20 45  1  0  0  0  0
 21 22  1  0  0  0  0
 21 46  1  0  0  0  0
 21 47  1  0  0  0  0
 22 23  1  0  0  0  0
 22 48  1  0  0  0  0
 22 49  1  0  0  0  0
 23 24  1  0  0  0  0
 24 50  1  0  0  0  0
 24 51  1  0  0  0  0
 25 26  1  0  0  0  0
 25 27  1  0  0  0  0
 25 52  1  0  0  0  0
 26 53  1  0  0  0  0
 26 54  1  0  0  0  0
 26 55  1  0  0  0  0
 27 56  1  0  0  0  0
 27 57  1  0  0  0  0
M  CHG  1   3   1
M  END
> <s_m_source_file>
AV-unprocessed.smi

> <i_m_source_file_index>
243

> <i_lp_mmshare_version>
43012

> <i_f3d_flags>
0

> <s_epik_input>
W0NIM11bQ0gyXU4xW0NIMl1bQ0gyXVtDQEhdKFtDQEBIXShbQ0gzXSlbQ0gyXTEpTihbQ0gzXSljKG5bY0hdbjIpYyhjMjMpbltjSF1uM1tDSDJdW0NAQF00KFtPSF0pW0NIMl1bQ0gyXU9bQ0gyXTQ=

> <s_epik_cmdline>
J2VwaWtfcHl0aG9uJywgJy1waCcsICc3LjAnLCAnLXRuJywgJzgnLCAnLW1hJywgJzIwMCcsICctbWV0YWxfYmluZGluZycsICctaW1hZScsICc8aW5maWxlLm1hZT4nLCAnLW9tYWUnLCAnPG91dGZpbGUubWFlPic=

> <r_lp_tautomer_probability>
1

> <r_epik_Ionization_Penalty>
0.00253099

> <r_epik_Ionization_Penalty_Charging>
0.00137877

> <r_epik_Ionization_Penalty_Neutral>
0.00115221

> <r_epik_State_Penalty>
-0

> <r_epik_Charging_Adjusted_Penalty>
0.00137877

> <i_epik_Tot_Q>
1

> <i_epik_Tot_abs_Q>
1

> <r_epik_Metal_State_Penalty>
-0

> <b_epik_Metal_Only>
0

> <s_lp_Force_Field>
OPLS_2005

> <r_lp_Energy>
52.4655

> <b_lp_Chiralities_Consistent>
1

> <s_lp_Variant>
AV-unprocessed.smi:243-2

> <Gold.Version>
5.8.1

> <Gold.Id.Protein>
6NUR|6NUR_protein|mol2

> <Gold.PLP.Fitness>
44.5787

> <Gold.PLP.PLP>
-29.8645

> <Gold.PLP.part.hbond>
-2.0000

> <Gold.PLP.part.metal>
0.0000

> <Gold.PLP.part.buried>
-3.8217

> <Gold.PLP.part.nonpolar>
-23.3796

> <Gold.PLP.part.repulsive>
0.6631

> <Gold.PLP.ligand.clash>
0.0000

> <Gold.PLP.ligand.torsion>
0.3840

> <Gold.PLP.Chemscore.Hbond>
3.0000

> <Gold.PLP.Chemscore.CHOScore>
1.9834

> <Gold.PLP.Chemscore.Metal>
0.0000

> <Gold.Chemscore.Hbonds>
donor molecule, donor type, donor heavy atom, donor atom, acceptor molecule, acceptor atom, score
      L1  H     3    58       P1  8028  2.00
      L1  H    20    45       P1 10747  1.00
      L1  C    11    41       P1 10171  1.00
      L1  C    11    41       P1 10175  0.80

> <Gold.PLP.Chemscore.Internal.Correction>
0.5321

> <Gold.Rescore>
     Score         DG    S(hbond)    S(metal)    S(lipo)     H(rot)  DE(clash)    DE(int)     intcor
     13.05     -14.82       1.98        0.00      72.23       2.24       0.01       1.76       ----

> <Gold.Chemscore.Fitness>
13.0469

> <Gold.Chemscore.DG>
-14.8235

> <Gold.Chemscore.ZeroCoef>
-5.4800

> <Gold.Chemscore.Hbond>
1.9824

> <Gold.Chemscore.Metal>
0.0000

> <Gold.Chemscore.Lipo>
72.2330

> <Gold.Chemscore.Internal_Hbond>
0.0000

> <Gold.Chemscore.DEClash>
0.0126

> <Gold.Chemscore.DEInternal>
1.7640

> <Gold.Chemscore.Rot>
2.2379

> <Gold.Chemscore.Internal.Correction>
   9.000000E+99

> <Gold.Chemscore.Hbonds>
donor molecule, donor type, donor heavy atom, donor atom, acceptor molecule, acceptor atom, score
      L1  H     3    58       P1  8028  0.95
      L1  H    20    45       P1 10747  0.94

> <Gold.Chemscore.Hbond.Weighted>
-6.6213

> <Gold.Chemscore.Metal.Weighted>
-0.0000

> <Gold.Chemscore.Lipo.Weighted>
-8.4513

> <Gold.Chemscore.Internal_Hbond.Weighted>
0.0000

> <Gold.Chemscore.DEClash.Weighted>
0.0126

> <Gold.Chemscore.DEInternal.Weighted>
1.7640

> <Gold.Chemscore.Rot.Weighted>
5.7291

> <Gold.Chemscore.Internal.Correction.Weighted>
   9.000000E+99

> <Gold.Protein.RotatedTorsions>
[ 6907 6896 6895 6894 ] final -165.71 input  -60.11 | X-H torsion
[ 7974 7965 7964 7962 ] final   48.10 input  175.53 | X-H torsion
[ 8008 7997 7996 7995 ] final   67.55 input   59.86 | X-H torsion
[ 10167 10162 10161 10158 ] final    7.12 input  -65.29 | X-H torsion
[ 10718 10713 10712 10709 ] final  148.06 input   66.30 | X-H torsion
[ 10763 10752 10751 10750 ] final  -34.55 input  -60.55 | X-H torsion
[ 11005 11000 10999 10996 ] final  -73.74 input  -57.11 | X-H torsion

> <Gold.Protein.ActiveResidues>
 VAL166  LYS551  ARG553  GLY616  TRP617  ASP618  TYR619  PRO620  LYS621  CYS622 
 ASP623  PHE694  ASN695  SER759  ASP760  ASP761  ALA762  ILE779  LEU786  VAL792 
 PHE793  MET794  SER795  GLU796  ALA797  LYS798  CYS799  TRP800  GLU811  SER814 

> <Gold.Protein.RotatedAtoms>
  151.4320  133.3667  159.2769 H   0  0  0  0  0  0  0  0  0  0  0  0  # atno 6907 bound_to 6896
  150.9218  134.8637  159.7505 H   0  0  0  0  0  0  0  0  0  0  0  0  # atno 6908 bound_to 6896
  152.4985  134.4258  159.9548 H   0  0  0  0  0  0  0  0  0  0  0  0  # atno 6909 bound_to 6896
  146.0236  139.4680  142.9881 H   0  0  0  0  0  0  0  0  0  0  0  0  # atno 7974 bound_to 7965
  155.6945  140.3496  155.4907 H   0  0  0  0  0  0  0  0  0  0  0  0  # atno 8008 bound_to 7997
  155.9494  140.1116  157.1011 H   0  0  0  0  0  0  0  0  0  0  0  0  # atno 8009 bound_to 7997
  154.4119  140.1197  156.5019 H   0  0  0  0  0  0  0  0  0  0  0  0  # atno 8010 bound_to 7997
  140.6390  143.7820  150.7400 H   0  0  0  0  0  0  0  0  0  0  0  0  # atno 10167 bound_to 10162
  157.3133  131.0891  151.1299 H   0  0  0  0  0  0  0  0  0  0  0  0  # atno 10718 bound_to 10713
  153.8486  135.6851  153.4795 H   0  0  0  0  0  0  0  0  0  0  0  0  # atno 10763 bound_to 10752
  153.1411  135.4657  154.9494 H   0  0  0  0  0  0  0  0  0  0  0  0  # atno 10764 bound_to 10752
  154.7812  135.3269  154.7932 H   0  0  0  0  0  0  0  0  0  0  0  0  # atno 10765 bound_to 10752
  141.1626  133.6888  156.7258 H   0  0  0  0  0  0  0  0  0  0  0  0  # atno 11005 bound_to 11000
  145.7153  141.0093  143.1431 LP  0  0  0  0  0  0  0  0  0  0  0  0  # atno 17320 bound_to 7965
  144.7000  139.8806  143.7447 LP  0  0  0  0  0  0  0  0  0  0  0  0  # atno 17321 bound_to 7965
  140.1447  143.4410  152.2171 LP  0  0  0  0  0  0  0  0  0  0  0  0  # atno 17342 bound_to 10162
  139.5599  144.7398  151.4185 LP  0  0  0  0  0  0  0  0  0  0  0  0  # atno 17343 bound_to 10162
  157.2613  130.6660  149.5976 LP  0  0  0  0  0  0  0  0  0  0  0  0  # atno 17370 bound_to 10713
  155.9679  130.4508  150.5710 LP  0  0  0  0  0  0  0  0  0  0  0  0  # atno 17371 bound_to 10713
  140.2782  134.8338  157.3909 LP  0  0  0  0  0  0  0  0  0  0  0  0  # atno 17394 bound_to 11000
  140.1458  134.4913  155.7997 LP  0  0  0  0  0  0  0  0  0  0  0  0  # atno 17395 bound_to 11000

$$$$
