AV-unprocessed.smi:1925|AV-procd|sdf|7793|dock2
  -GOLD-   22720 9533D 1   1.00000     0.00000
 Structure written by MMmdl.
 31 32  0  0  0  0  0  0  0  0  1 V2000
  144.8048  136.9043  152.6563 O   0  0  0  0  0  0  0  0  0  0  0  0
  145.9835  136.7014  152.3639 C   0  0  0  0  0  0  0  0  0  0  0  0
  146.9678  137.5757  152.6175 N   0  0  0  0  0  0  0  0  0  0  0  0
  146.7878  138.8802  153.2454 C   0  0  0  0  0  0  0  0  0  0  0  0
  148.0930  139.6992  153.2617 C   0  0  1  0  0  0  0  0  0  0  0  0
  147.9281  141.1178  153.7956 C   0  0  0  0  0  0  0  0  0  0  0  0
  149.1841  141.3567  154.6402 C   0  0  0  0  0  0  0  0  0  0  0  0
  150.0303  140.2461  154.3804 O   0  0  0  0  0  0  0  0  0  0  0  0
  149.1929  139.1262  154.1546 C   0  0  0  0  0  0  0  0  0  0  0  0
  146.4561  135.6009  151.7527 N   0  0  0  0  0  0  0  0  0  0  0  0
  145.7327  134.4579  151.3194 C   0  0  0  0  0  0  0  0  0  0  0  0
  146.5277  133.3954  150.8331 C   0  0  0  0  0  0  0  0  0  0  0  0
  145.9061  132.2163  150.3786 C   0  0  0  0  0  0  0  0  0  0  0  0
  144.5032  132.1293  150.4233 C   0  0  0  0  0  0  0  0  0  0  0  0
  143.7862  133.2320  150.9229 C   0  0  0  0  0  0  0  0  0  0  0  0
  144.3801  134.3630  151.3588 N   0  0  0  0  0  0  0  0  0  0  0  0
  147.9080  137.3274  152.3468 H   0  0  0  0  0  0  0  0  0  0  0  0
  145.9997  139.4348  152.7332 H   0  0  0  0  0  0  0  0  0  0  0  0
  146.4360  138.7165  154.2645 H   0  0  0  0  0  0  0  0  0  0  0  0
  148.4884  139.7700  152.2470 H   0  0  0  0  0  0  0  0  0  0  0  0
  147.8511  141.8338  152.9765 H   0  0  0  0  0  0  0  0  0  0  0  0
  147.0349  141.2228  154.4124 H   0  0  0  0  0  0  0  0  0  0  0  0
  149.6827  142.2944  154.3938 H   0  0  0  0  0  0  0  0  0  0  0  0
  148.9329  141.3742  155.7015 H   0  0  0  0  0  0  0  0  0  0  0  0
  148.7912  138.7710  155.1051 H   0  0  0  0  0  0  0  0  0  0  0  0
  149.7369  138.3084  153.6814 H   0  0  0  0  0  0  0  0  0  0  0  0
  147.4481  135.5815  151.5685 H   0  0  0  0  0  0  0  0  0  0  0  0
  147.6045  133.4790  150.8051 H   0  0  0  0  0  0  0  0  0  0  0  0
  146.4959  131.3939  150.0021 H   0  0  0  0  0  0  0  0  0  0  0  0
  143.9903  131.2416  150.0838 H   0  0  0  0  0  0  0  0  0  0  0  0
  142.7078  133.2057  150.9742 H   0  0  0  0  0  0  0  0  0  0  0  0
  1  2  2  0  0  0  0
  2  3  1  0  0  0  0
  2 10  1  0  0  0  0
  3  4  1  0  0  0  0
  3 17  1  0  0  0  0
  4  5  1  0  0  0  0
  4 18  1  0  0  0  0
  4 19  1  0  0  0  0
  5  9  1  0  0  0  0
  5  6  1  0  0  0  0
  5 20  1  0  0  0  0
  6  7  1  0  0  0  0
  6 21  1  0  0  0  0
  6 22  1  0  0  0  0
  7  8  1  0  0  0  0
  7 23  1  0  0  0  0
  7 24  1  0  0  0  0
  8  9  1  0  0  0  0
  9 25  1  0  0  0  0
  9 26  1  0  0  0  0
 10 11  1  0  0  0  0
 10 27  1  0  0  0  0
 11 16  1  0  0  0  0
 11 12  2  0  0  0  0
 12 13  1  0  0  0  0
 12 28  1  0  0  0  0
 13 14  2  0  0  0  0
 13 29  1  0  0  0  0
 14 15  1  0  0  0  0
 14 30  1  0  0  0  0
 15 16  2  0  0  0  0
 15 31  1  0  0  0  0
M  END
> <s_m_source_file>
AV-unprocessed.smi

> <i_m_source_file_index>
1925

> <i_lp_mmshare_version>
43012

> <i_f3d_flags>
0

> <s_epik_input>
bjFbY0hdW2NIXVtjSF1bY0hdYzFbTkhdQyg9TylbTkhdW0NIMl1bQ0BASF0yW0NIMl1bQ0gyXU9bQ0gyXTI=

> <s_epik_cmdline>
J2VwaWtfcHl0aG9uJywgJy1waCcsICc3LjAnLCAnLXRuJywgJzgnLCAnLW1hJywgJzIwMCcsICctbWV0YWxfYmluZGluZycsICctaW1hZScsICc8aW5maWxlLm1hZT4nLCAnLW9tYWUnLCAnPG91dGZpbGUubWFlPic=

> <r_lp_tautomer_probability>
1

> <r_epik_Ionization_Penalty>
4.81143e-05

> <r_epik_Ionization_Penalty_Charging>
0

> <r_epik_Ionization_Penalty_Neutral>
4.81143e-05

> <r_epik_State_Penalty>
-0

> <r_epik_Charging_Adjusted_Penalty>
0

> <i_epik_Tot_Q>
0

> <i_epik_Tot_abs_Q>
0

> <r_epik_Metal_State_Penalty>
-0

> <b_epik_Metal_Only>
0

> <s_lp_Force_Field>
OPLS_2005

> <r_lp_Energy>
20.4602

> <b_lp_Chiralities_Consistent>
1

> <s_lp_Variant>
AV-unprocessed.smi:1925-2

> <Gold.Version>
5.8.1

> <Gold.Id.Protein>
6NUR|6NUR_protein|mol2

> <Gold.PLP.Fitness>
40.8509

> <Gold.PLP.PLP>
-29.0364

> <Gold.PLP.part.hbond>
-2.8783

> <Gold.PLP.part.metal>
0.0000

> <Gold.PLP.part.buried>
-0.1156

> <Gold.PLP.part.nonpolar>
-26.4381

> <Gold.PLP.part.repulsive>
0.5740

> <Gold.PLP.ligand.clash>
0.0000

> <Gold.PLP.ligand.torsion>
0.0456

> <Gold.PLP.Chemscore.Hbond>
2.9680

> <Gold.PLP.Chemscore.CHOScore>
1.0000

> <Gold.PLP.Chemscore.Metal>
0.0000

> <Gold.Chemscore.Hbonds>
donor molecule, donor type, donor heavy atom, donor atom, acceptor molecule, acceptor atom, score
      L1  H     3    17       P1  7948  1.00
      L1  H    10    27       P1  7948  1.00
      P1  H  7989  7998       L1     8  0.96
      L1  C    15    31       P1 10186  1.00

> <Gold.PLP.Chemscore.Internal.Correction>
0.0017

> <Gold.Rescore>
     Score         DG    S(hbond)    S(metal)    S(lipo)     H(rot)  DE(clash)    DE(int)     intcor
     16.59     -19.28       2.70        0.00      68.64       1.27       1.36       1.33       ----

> <Gold.Chemscore.Fitness>
16.5911

> <Gold.Chemscore.DG>
-19.2776

> <Gold.Chemscore.ZeroCoef>
-5.4800

> <Gold.Chemscore.Hbond>
2.6982

> <Gold.Chemscore.Metal>
0.0000

> <Gold.Chemscore.Lipo>
68.6416

> <Gold.Chemscore.Internal_Hbond>
0.0000

> <Gold.Chemscore.DEClash>
1.3609

> <Gold.Chemscore.DEInternal>
1.3255

> <Gold.Chemscore.Rot>
1.2678

> <Gold.Chemscore.Internal.Correction>
   9.000000E+99

> <Gold.Chemscore.Hbonds>
donor molecule, donor type, donor heavy atom, donor atom, acceptor molecule, acceptor atom, score
      L1  H     3    17       P1  7948  0.92
      L1  H    10    27       P1  7948  0.92
      P1  H  7989  7998       L1     8  0.60

> <Gold.Chemscore.Hbond.Weighted>
-9.0120

> <Gold.Chemscore.Metal.Weighted>
-0.0000

> <Gold.Chemscore.Lipo.Weighted>
-8.0311

> <Gold.Chemscore.Internal_Hbond.Weighted>
0.0000

> <Gold.Chemscore.DEClash.Weighted>
1.3609

> <Gold.Chemscore.DEInternal.Weighted>
1.3255

> <Gold.Chemscore.Rot.Weighted>
3.2455

> <Gold.Chemscore.Internal.Correction.Weighted>
   9.000000E+99

> <Gold.Protein.RotatedTorsions>
[ 6907 6896 6895 6894 ] final -116.23 input  -60.11 | X-H torsion
[ 7974 7965 7964 7962 ] final  147.40 input  175.53 | X-H torsion
[ 8008 7997 7996 7995 ] final   48.10 input   59.86 | X-H torsion
[ 10167 10162 10161 10158 ] final -166.47 input  -65.29 | X-H torsion
[ 10718 10713 10712 10709 ] final  -42.20 input   66.30 | X-H torsion
[ 10763 10752 10751 10750 ] final -131.57 input  -60.55 | X-H torsion
[ 11005 11000 10999 10996 ] final -116.55 input  -57.11 | X-H torsion

> <Gold.Protein.ActiveResidues>
 VAL166  LYS551  ARG553  GLY616  TRP617  ASP618  TYR619  PRO620  LYS621  CYS622 
 ASP623  PHE694  ASN695  SER759  ASP760  ASP761  ALA762  ILE779  LEU786  VAL792 
 PHE793  MET794  SER795  GLU796  ALA797  LYS798  CYS799  TRP800  GLU811  SER814 

> <Gold.Protein.RotatedAtoms>
  150.8039  133.8546  159.3214 H   0  0  0  0  0  0  0  0  0  0  0  0  # atno 6907 bound_to 6896
  151.6350  135.1017  160.0139 H   0  0  0  0  0  0  0  0  0  0  0  0  # atno 6908 bound_to 6896
  152.4129  133.6952  159.6448 H   0  0  0  0  0  0  0  0  0  0  0  0  # atno 6909 bound_to 6896
  144.8594  139.6024  143.5937 H   0  0  0  0  0  0  0  0  0  0  0  0  # atno 7974 bound_to 7965
  155.3800  140.3428  155.4246 H   0  0  0  0  0  0  0  0  0  0  0  0  # atno 8008 bound_to 7997
  156.1616  140.1602  156.8636 H   0  0  0  0  0  0  0  0  0  0  0  0  # atno 8009 bound_to 7997
  154.5145  140.0782  156.8036 H   0  0  0  0  0  0  0  0  0  0  0  0  # atno 8010 bound_to 7997
  139.6113  144.0810  152.1844 H   0  0  0  0  0  0  0  0  0  0  0  0  # atno 10167 bound_to 10162
  156.2621  130.4198  149.8531 H   0  0  0  0  0  0  0  0  0  0  0  0  # atno 10718 bound_to 10713
  154.8750  135.3826  154.4268 H   0  0  0  0  0  0  0  0  0  0  0  0  # atno 10763 bound_to 10752
  153.4966  135.7030  153.5860 H   0  0  0  0  0  0  0  0  0  0  0  0  # atno 10764 bound_to 10752
  153.4210  135.3901  155.2078 H   0  0  0  0  0  0  0  0  0  0  0  0  # atno 10765 bound_to 10752
  141.0414  133.9830  157.2988 H   0  0  0  0  0  0  0  0  0  0  0  0  # atno 11005 bound_to 11000
  146.2849  139.6976  142.9203 LP  0  0  0  0  0  0  0  0  0  0  0  0  # atno 17320 bound_to 7965
  145.4341  141.0417  143.2894 LP  0  0  0  0  0  0  0  0  0  0  0  0  # atno 17321 bound_to 7965
  140.0429  144.5993  150.7397 LP  0  0  0  0  0  0  0  0  0  0  0  0  # atno 17342 bound_to 10162
  140.7320  143.2701  151.3915 LP  0  0  0  0  0  0  0  0  0  0  0  0  # atno 17343 bound_to 10162
  156.6042  130.8559  151.3439 LP  0  0  0  0  0  0  0  0  0  0  0  0  # atno 17370 bound_to 10713
  157.7254  130.9615  150.1614 LP  0  0  0  0  0  0  0  0  0  0  0  0  # atno 17371 bound_to 10713
  139.9279  135.0201  156.8297 LP  0  0  0  0  0  0  0  0  0  0  0  0  # atno 17394 bound_to 11000
  140.6227  133.9979  155.7626 LP  0  0  0  0  0  0  0  0  0  0  0  0  # atno 17395 bound_to 11000

$$$$
