AV-unprocessed.smi:76|AV-procd|sdf|767|dock5
  -GOLD-   2262017113D 1   1.00000     0.00000
 Structure written by MMmdl.
 55 58  0  0  0  0  0  0  0  0  1 V2000
  143.5811  136.1540  152.3879 C   0  0  0  0  0  0  0  0  0  0  0  0
  144.8094  135.9655  151.4751 C   0  0  2  0  0  0  0  0  0  0  0  0
  144.6766  134.7328  150.5557 C   0  0  0  0  0  0  0  0  0  0  0  0
  144.8645  133.4006  151.3144 C   0  0  1  0  0  0  0  0  0  0  0  0
  144.7549  132.1780  150.3812 C   0  0  0  0  0  0  0  0  0  0  0  0
  145.8001  132.1127  149.5562 F   0  0  0  0  0  0  0  0  0  0  0  0
  144.7050  131.0580  151.1023 F   0  0  0  0  0  0  0  0  0  0  0  0
  143.6384  132.2569  149.6571 F   0  0  0  0  0  0  0  0  0  0  0  0
  146.2069  133.4348  152.0714 C   0  0  0  0  0  0  0  0  0  0  0  0
  146.3056  134.6648  152.9868 C   0  0  0  0  0  0  0  0  0  0  0  0
  146.0643  135.8974  152.2331 N   0  0  0  0  0  0  0  0  0  0  0  0
  146.4883  137.0636  152.7863 C   0  0  0  0  0  0  0  0  0  0  0  0
  146.0634  138.2474  152.2684 N   0  0  0  0  0  0  0  0  0  0  0  0
  146.4771  139.4033  152.7947 C   0  0  0  0  0  0  0  0  0  0  0  0
  147.3008  139.6021  153.8245 N   0  0  0  0  0  0  0  0  0  0  0  0
  147.7310  138.4203  154.3510 C   0  0  0  0  0  0  0  0  0  0  0  0
  147.3741  137.1178  153.9000 C   0  0  0  0  0  0  0  0  0  0  0  0
  147.9864  136.1596  154.6991 N   0  0  0  0  0  0  0  0  0  0  0  0
  148.6691  136.8551  155.5666 C   0  0  0  0  0  0  0  0  0  0  0  0
  148.5883  138.2219  155.4202 N   0  0  0  0  0  0  0  0  0  0  0  0
  149.2345  139.2296  156.2495 C   0  0  0  0  0  0  0  0  0  0  0  0
  150.1501  140.2344  155.4802 C   0  0  0  0  0  0  0  0  0  0  0  0
  149.3028  141.3052  154.7429 C   0  0  0  0  0  0  0  0  0  0  0  0
  148.6652  142.1948  155.6371 O   0  0  0  0  0  0  0  0  0  0  0  0
  151.1173  140.9344  156.4675 C   0  0  0  0  0  0  0  0  0  0  0  0
  152.2120  139.9915  157.0015 C   0  0  0  0  0  0  0  0  0  0  0  0
  152.9362  139.4194  155.9195 O   0  0  0  0  0  0  0  0  0  0  0  0
  152.1202  138.6378  155.0563 C   0  0  0  0  0  0  0  0  0  0  0  0
  151.0339  139.5250  154.4229 C   0  0  0  0  0  0  0  0  0  0  0  0
  142.6654  136.2121  151.7994 H   0  0  0  0  0  0  0  0  0  0  0  0
  143.6550  137.0781  152.9620 H   0  0  0  0  0  0  0  0  0  0  0  0
  143.4640  135.3354  153.0976 H   0  0  0  0  0  0  0  0  0  0  0  0
  144.8431  136.8323  150.8169 H   0  0  0  0  0  0  0  0  0  0  0  0
  143.7103  134.7498  150.0511 H   0  0  0  0  0  0  0  0  0  0  0  0
  145.4278  134.8031  149.7680 H   0  0  0  0  0  0  0  0  0  0  0  0
  144.0666  133.3140  152.0527 H   0  0  0  0  0  0  0  0  0  0  0  0
  146.3299  132.5291  152.6657 H   0  0  0  0  0  0  0  0  0  0  0  0
  147.0321  133.4499  151.3585 H   0  0  0  0  0  0  0  0  0  0  0  0
  145.5861  134.5855  153.8025 H   0  0  0  0  0  0  0  0  0  0  0  0
  147.2985  134.6916  153.4386 H   0  0  0  0  0  0  0  0  0  0  0  0
  146.0931  140.2959  152.3232 H   0  0  0  0  0  0  0  0  0  0  0  0
  149.2559  136.3852  156.3423 H   0  0  0  0  0  0  0  0  0  0  0  0
  148.4546  139.7725  156.7846 H   0  0  0  0  0  0  0  0  0  0  0  0
  149.7909  138.7017  157.0224 H   0  0  0  0  0  0  0  0  0  0  0  0
  149.9318  141.8997  154.0795 H   0  0  0  0  0  0  0  0  0  0  0  0
  148.5457  140.8420  154.1099 H   0  0  0  0  0  0  0  0  0  0  0  0
  148.7282  143.0699  155.2838 H   0  0  0  0  0  0  0  0  0  0  0  0
  151.6056  141.7721  155.9673 H   0  0  0  0  0  0  0  0  0  0  0  0
  150.5662  141.3648  157.3044 H   0  0  0  0  0  0  0  0  0  0  0  0
  152.9079  140.5514  157.6264 H   0  0  0  0  0  0  0  0  0  0  0  0
  151.7948  139.2065  157.6325 H   0  0  0  0  0  0  0  0  0  0  0  0
  152.7515  138.2122  154.2760 H   0  0  0  0  0  0  0  0  0  0  0  0
  151.6886  137.7971  155.6000 H   0  0  0  0  0  0  0  0  0  0  0  0
  150.4303  138.9447  153.7263 H   0  0  0  0  0  0  0  0  0  0  0  0
  151.5370  140.2755  153.8113 H   0  0  0  0  0  0  0  0  0  0  0  0
  1  2  1  0  0  0  0
  1 30  1  0  0  0  0
  1 31  1  0  0  0  0
  1 32  1  0  0  0  0
  2 11  1  0  0  0  0
  2  3  1  0  0  0  0
  2 33  1  0  0  0  0
  3  4  1  0  0  0  0
  3 34  1  0  0  0  0
  3 35  1  0  0  0  0
  4  5  1  0  0  0  0
  4  9  1  0  0  0  0
  4 36  1  0  0  0  0
  5  6  1  0  0  0  0
  5  7  1  0  0  0  0
  5  8  1  0  0  0  0
  9 10  1  0  0  0  0
  9 37  1  0  0  0  0
  9 38  1  0  0  0  0
 10 11  1  0  0  0  0
 10 39  1  0  0  0  0
 10 40  1  0  0  0  0
 11 12  1  0  0  0  0
 12 17  1  0  0  0  0
 12 13  2  0  0  0  0
 13 14  1  0  0  0  0
 14 15  2  0  0  0  0
 14 41  1  0  0  0  0
 15 16  1  0  0  0  0
 16 20  1  0  0  0  0
 16 17  2  0  0  0  0
 17 18  1  0  0  0  0
 18 19  2  0  0  0  0
 19 20  1  0  0  0  0
 19 42  1  0  0  0  0
 20 21  1  0  0  0  0
 21 22  1  0  0  0  0
 21 43  1  0  0  0  0
 21 44  1  0  0  0  0
 22 29  1  0  0  0  0
 22 23  1  0  0  0  0
 22 25  1  0  0  0  0
 23 24  1  0  0  0  0
 23 45  1  0  0  0  0
 23 46  1  0  0  0  0
 24 47  1  0  0  0  0
 25 26  1  0  0  0  0
 25 48  1  0  0  0  0
 25 49  1  0  0  0  0
 26 27  1  0  0  0  0
 26 50  1  0  0  0  0
 26 51  1  0  0  0  0
 27 28  1  0  0  0  0
 28 29  1  0  0  0  0
 28 52  1  0  0  0  0
 28 53  1  0  0  0  0
 29 54  1  0  0  0  0
 29 55  1  0  0  0  0
M  END
> <s_m_source_file>
AV-unprocessed.smi

> <i_m_source_file_index>
76

> <i_lp_mmshare_version>
43012

> <i_f3d_flags>
0

> <s_epik_input>
W0NIM11bQ0BASF0xW0NIMl1bQ0BASF0oQyhGKShGKUYpW0NIMl1bQ0gyXU4xYyhuW2NIXW4yKWMoYzIzKW5bY0hdbjNbQ0gyXUM0KFtDSDJdW09IXSlbQ0gyXVtDSDJdT1tDSDJdW0NIMl00

> <s_epik_cmdline>
J2VwaWtfcHl0aG9uJywgJy1waCcsICc3LjAnLCAnLXRuJywgJzgnLCAnLW1hJywgJzIwMCcsICctbWV0YWxfYmluZGluZycsICctaW1hZScsICc8aW5maWxlLm1hZT4nLCAnLW9tYWUnLCAnPG91dGZpbGUubWFlPic=

> <r_lp_tautomer_probability>
1

> <r_epik_Ionization_Penalty>
0.00244097

> <r_epik_Ionization_Penalty_Charging>
0

> <r_epik_Ionization_Penalty_Neutral>
0.00244097

> <r_epik_State_Penalty>
0.00151846

> <r_epik_Charging_Adjusted_Penalty>
0.00151846

> <i_epik_Tot_Q>
0

> <i_epik_Tot_abs_Q>
0

> <r_epik_Metal_State_Penalty>
-0

> <b_epik_Metal_Only>
0

> <s_lp_Force_Field>
OPLS_2005

> <r_lp_Energy>
36.8654

> <b_lp_Chiralities_Consistent>
1

> <s_lp_Variant>
AV-unprocessed.smi:76-1

> <Gold.Version>
5.8.1

> <Gold.Id.Protein>
6NUR|6NUR_protein|mol2

> <Gold.PLP.Fitness>
46.6203

> <Gold.PLP.PLP>
-40.0395

> <Gold.PLP.part.hbond>
-2.0000

> <Gold.PLP.part.metal>
0.0000

> <Gold.PLP.part.buried>
1.1181

> <Gold.PLP.part.nonpolar>
-41.6088

> <Gold.PLP.part.repulsive>
2.3306

> <Gold.PLP.ligand.clash>
0.0000

> <Gold.PLP.ligand.torsion>
0.8692

> <Gold.PLP.Chemscore.Hbond>
2.0000

> <Gold.PLP.Chemscore.CHOScore>
0.5856

> <Gold.PLP.Chemscore.Metal>
0.0000

> <Gold.Chemscore.Hbonds>
donor molecule, donor type, donor heavy atom, donor atom, acceptor molecule, acceptor atom, score
      L1  H    24    47       P1  8028  0.93
      P1  H  7997  8009       L1    27  0.90
      L1  C    14    41       P1 10175  0.67

> <Gold.PLP.Chemscore.Internal.Correction>
0.5626

> <Gold.Rescore>
     Score         DG    S(hbond)    S(metal)    S(lipo)     H(rot)  DE(clash)    DE(int)     intcor
      9.44     -13.19       1.84        0.00      67.42       2.47       0.04       3.70       ----

> <Gold.Chemscore.Fitness>
9.4413

> <Gold.Chemscore.DG>
-13.1855

> <Gold.Chemscore.ZeroCoef>
-5.4800

> <Gold.Chemscore.Hbond>
1.8357

> <Gold.Chemscore.Metal>
0.0000

> <Gold.Chemscore.Lipo>
67.4223

> <Gold.Chemscore.Internal_Hbond>
0.0000

> <Gold.Chemscore.DEClash>
0.0396

> <Gold.Chemscore.DEInternal>
3.7045

> <Gold.Chemscore.Rot>
2.4665

> <Gold.Chemscore.Internal.Correction>
   9.000000E+99

> <Gold.Chemscore.Hbonds>
donor molecule, donor type, donor heavy atom, donor atom, acceptor molecule, acceptor atom, score
      L1  H    24    47       P1  8028  0.90
      P1  H  7997  8009       L1    27  0.18

> <Gold.Chemscore.Hbond.Weighted>
-6.1312

> <Gold.Chemscore.Metal.Weighted>
-0.0000

> <Gold.Chemscore.Lipo.Weighted>
-7.8884

> <Gold.Chemscore.Internal_Hbond.Weighted>
0.0000

> <Gold.Chemscore.DEClash.Weighted>
0.0396

> <Gold.Chemscore.DEInternal.Weighted>
3.7045

> <Gold.Chemscore.Rot.Weighted>
6.3142

> <Gold.Chemscore.Internal.Correction.Weighted>
   9.000000E+99

> <Gold.Protein.RotatedTorsions>
[ 6907 6896 6895 6894 ] final   57.63 input  -60.11 | X-H torsion
[ 7974 7965 7964 7962 ] final -115.59 input  175.53 | X-H torsion
[ 8008 7997 7996 7995 ] final -154.27 input   59.86 | X-H torsion
[ 10167 10162 10161 10158 ] final  109.94 input  -65.29 | X-H torsion
[ 10718 10713 10712 10709 ] final  110.99 input   66.30 | X-H torsion
[ 10763 10752 10751 10750 ] final   93.12 input  -60.55 | X-H torsion
[ 11005 11000 10999 10996 ] final -104.05 input  -57.11 | X-H torsion

> <Gold.Protein.ActiveResidues>
 VAL166  LYS551  ARG553  GLY616  TRP617  ASP618  TYR619  PRO620  LYS621  CYS622 
 ASP623  PHE694  ASN695  SER759  ASP760  ASP761  ALA762  ILE779  LEU786  VAL792 
 PHE793  MET794  SER795  GLU796  ALA797  LYS798  CYS799  TRP800  GLU811  SER814 

> <Gold.Protein.RotatedAtoms>
  152.3749  134.6679  160.0163 H   0  0  0  0  0  0  0  0  0  0  0  0  # atno 6907 bound_to 6896
  151.6960  133.3305  159.3262 H   0  0  0  0  0  0  0  0  0  0  0  0  # atno 6908 bound_to 6896
  150.7702  134.6592  159.6375 H   0  0  0  0  0  0  0  0  0  0  0  0  # atno 6909 bound_to 6896
  145.1067  140.8586  143.3894 H   0  0  0  0  0  0  0  0  0  0  0  0  # atno 7974 bound_to 7965
  155.6838  140.0747  157.2474 H   0  0  0  0  0  0  0  0  0  0  0  0  # atno 8008 bound_to 7997
  154.4101  140.1677  156.2063 H   0  0  0  0  0  0  0  0  0  0  0  0  # atno 8009 bound_to 7997
  155.9511  140.3377  155.6412 H   0  0  0  0  0  0  0  0  0  0  0  0  # atno 8010 bound_to 7997
  139.6727  144.7124  151.1659 H   0  0  0  0  0  0  0  0  0  0  0  0  # atno 10167 bound_to 10162
  157.6467  131.0942  150.6682 H   0  0  0  0  0  0  0  0  0  0  0  0  # atno 10718 bound_to 10713
  153.2267  135.4337  155.0550 H   0  0  0  0  0  0  0  0  0  0  0  0  # atno 10763 bound_to 10752
  154.8277  135.3369  154.6847 H   0  0  0  0  0  0  0  0  0  0  0  0  # atno 10764 bound_to 10752
  153.7276  135.7013  153.5053 H   0  0  0  0  0  0  0  0  0  0  0  0  # atno 10765 bound_to 10752
  141.1118  133.8691  157.1562 H   0  0  0  0  0  0  0  0  0  0  0  0  # atno 11005 bound_to 11000
  145.0894  139.2901  143.5743 LP  0  0  0  0  0  0  0  0  0  0  0  0  # atno 17320 bound_to 7965
  146.3528  140.0426  142.8642 LP  0  0  0  0  0  0  0  0  0  0  0  0  # atno 17321 bound_to 7965
  140.7624  143.5820  150.8885 LP  0  0  0  0  0  0  0  0  0  0  0  0  # atno 17342 bound_to 10162
  139.9486  143.6298  152.3035 LP  0  0  0  0  0  0  0  0  0  0  0  0  # atno 17343 bound_to 10162
  156.6999  130.4620  149.5576 LP  0  0  0  0  0  0  0  0  0  0  0  0  # atno 17370 bound_to 10713
  156.1803  130.6494  151.0943 LP  0  0  0  0  0  0  0  0  0  0  0  0  # atno 17371 bound_to 10713
  140.0016  135.0025  157.0203 LP  0  0  0  0  0  0  0  0  0  0  0  0  # atno 17394 bound_to 11000
  140.4754  134.1344  155.7209 LP  0  0  0  0  0  0  0  0  0  0  0  0  # atno 17395 bound_to 11000

$$$$
