AV-unprocessed.smi:1032|AV-procd|sdf|4485|dock9
  -GOLD-   22720 2463D 1   1.00000     0.00000
 Structure written by MMmdl.
 46 47  0  0  0  0  0  0  0  0  2 V2000
  145.0451  144.1948  156.5135 C   0  0  0  0  0  0  0  0  0  0  0  0
  144.4136  143.5758  155.2543 C   0  0  2  0  0  0  0  0  0  0  0  0
  143.8450  142.1667  155.5025 C   0  0  0  0  0  0  0  0  0  0  0  0
  144.9516  141.1041  155.6292 C   0  0  0  0  0  0  0  0  0  0  0  0
  145.8406  141.1090  154.4373 N   0  3  2  0  0  0  0  0  0  0  0  0
  146.8459  140.0151  154.4496 C   0  0  0  0  0  0  0  0  0  0  0  0
  147.3439  139.6531  153.0353 C   0  0  1  0  0  0  0  0  0  0  0  0
  148.4356  138.7688  153.1973 O   0  0  0  0  0  0  0  0  0  0  0  0
  146.2507  138.9346  152.2178 C   0  0  0  0  0  0  0  0  0  0  0  0
  146.5910  137.5398  151.9563 N   0  0  0  0  0  0  0  0  0  0  0  0
  145.7116  136.5792  151.6379 C   0  0  0  0  0  0  0  0  0  0  0  0
  144.4993  136.7741  151.5545 O   0  0  0  0  0  0  0  0  0  0  0  0
  146.3265  135.3982  151.4527 N   0  0  0  0  0  0  0  0  0  0  0  0
  145.7604  134.1522  151.0680 C   0  0  0  0  0  0  0  0  0  0  0  0
  144.3731  134.1104  150.8180 C   0  0  0  0  0  0  0  0  0  0  0  0
  143.7847  132.8821  150.4559 C   0  0  0  0  0  0  0  0  0  0  0  0
  144.4805  131.7311  150.3432 N   0  0  0  0  0  0  0  0  0  0  0  0
  145.8059  131.7700  150.5961 C   0  0  0  0  0  0  0  0  0  0  0  0
  146.4923  132.9447  150.9637 C   0  0  0  0  0  0  0  0  0  0  0  0
  146.4586  142.4422  154.2213 C   0  0  0  0  0  0  0  0  0  0  0  0
  145.3851  143.5336  154.0609 C   0  0  0  0  0  0  0  0  0  0  0  0
  145.8970  143.6190  156.8741 H   0  0  0  0  0  0  0  0  0  0  0  0
  144.3194  144.2526  157.3251 H   0  0  0  0  0  0  0  0  0  0  0  0
  145.3932  145.2091  156.3160 H   0  0  0  0  0  0  0  0  0  0  0  0
  143.5803  144.2235  154.9783 H   0  0  0  0  0  0  0  0  0  0  0  0
  143.2185  142.1638  156.3954 H   0  0  0  0  0  0  0  0  0  0  0  0
  143.1899  141.8951  154.6737 H   0  0  0  0  0  0  0  0  0  0  0  0
  145.5434  141.2770  156.5289 H   0  0  0  0  0  0  0  0  0  0  0  0
  144.4860  140.1264  155.7484 H   0  0  0  0  0  0  0  0  0  0  0  0
  147.7075  140.3083  155.0522 H   0  0  0  0  0  0  0  0  0  0  0  0
  146.4172  139.1420  154.9438 H   0  0  0  0  0  0  0  0  0  0  0  0
  147.6734  140.5460  152.5035 H   0  0  0  0  0  0  0  0  0  0  0  0
  149.1420  139.0571  152.6379 H   0  0  0  0  0  0  0  0  0  0  0  0
  145.2684  139.0280  152.6853 H   0  0  0  0  0  0  0  0  0  0  0  0
  146.1612  139.4061  151.2389 H   0  0  0  0  0  0  0  0  0  0  0  0
  147.5682  137.2915  152.0086 H   0  0  0  0  0  0  0  0  0  0  0  0
  147.3170  135.3788  151.6456 H   0  0  0  0  0  0  0  0  0  0  0  0
  143.7664  135.0009  150.8965 H   0  0  0  0  0  0  0  0  0  0  0  0
  142.7255  132.8225  150.2536 H   0  0  0  0  0  0  0  0  0  0  0  0
  146.3367  130.8334  150.5096 H   0  0  0  0  0  0  0  0  0  0  0  0
  147.5502  132.8910  151.1689 H   0  0  0  0  0  0  0  0  0  0  0  0
  147.1267  142.6766  155.0512 H   0  0  0  0  0  0  0  0  0  0  0  0
  147.0734  142.4195  153.3207 H   0  0  0  0  0  0  0  0  0  0  0  0
  144.8201  143.3403  153.1478 H   0  0  0  0  0  0  0  0  0  0  0  0
  145.8571  144.5070  153.9226 H   0  0  0  0  0  0  0  0  0  0  0  0
  145.2560  140.9397  153.6306 H   0  0  0  0  0  0  0  0  0  0  0  0
  1  2  1  0  0  0  0
  1 22  1  0  0  0  0
  1 23  1  0  0  0  0
  1 24  1  0  0  0  0
  2 21  1  0  0  0  0
  2  3  1  0  0  0  0
  2 25  1  0  0  0  0
  3  4  1  0  0  0  0
  3 26  1  0  0  0  0
  3 27  1  0  0  0  0
  4  5  1  0  0  0  0
  4 28  1  0  0  0  0
  4 29  1  0  0  0  0
  5  6  1  0  0  0  0
  5 20  1  0  0  0  0
  5 46  1  0  0  0  0
  6  7  1  0  0  0  0
  6 30  1  0  0  0  0
  6 31  1  0  0  0  0
  7  8  1  0  0  0  0
  7  9  1  0  0  0  0
  7 32  1  0  0  0  0
  8 33  1  0  0  0  0
  9 10  1  0  0  0  0
  9 34  1  0  0  0  0
  9 35  1  0  0  0  0
 10 11  1  0  0  0  0
 10 36  1  0  0  0  0
 11 12  2  0  0  0  0
 11 13  1  0  0  0  0
 13 14  1  0  0  0  0
 13 37  1  0  0  0  0
 14 19  1  0  0  0  0
 14 15  2  0  0  0  0
 15 16  1  0  0  0  0
 15 38  1  0  0  0  0
 16 17  2  0  0  0  0
 16 39  1  0  0  0  0
 17 18  1  0  0  0  0
 18 19  2  0  0  0  0
 18 40  1  0  0  0  0
 19 41  1  0  0  0  0
 20 21  1  0  0  0  0
 20 42  1  0  0  0  0
 20 43  1  0  0  0  0
 21 44  1  0  0  0  0
 21 45  1  0  0  0  0
M  CHG  1   5   1
M  END
> <s_m_source_file>
AV-unprocessed.smi

> <i_m_source_file_index>
1032

> <i_lp_mmshare_version>
43012

> <i_f3d_flags>
0

> <s_epik_input>
W0NIM11bQ0hdMVtDSDJdW0NIMl1OKFtDSDJdW0NIMl0xKVtDSDJdW0NASF0oW09IXSlbQ0gyXVtOSF1DKD1PKVtOSF1jMltjSF1bY0hdbltjSF1bY0hdMg==

> <s_epik_cmdline>
J2VwaWtfcHl0aG9uJywgJy1waCcsICc3LjAnLCAnLXRuJywgJzgnLCAnLW1hJywgJzIwMCcsICctbWV0YWxfYmluZGluZycsICctaW1hZScsICc8aW5maWxlLm1hZT4nLCAnLW9tYWUnLCAnPG91dGZpbGUubWFlPic=

> <r_epik_Ionization_Penalty>
0.11743

> <r_epik_Ionization_Penalty_Charging>
0.00147689

> <r_epik_Ionization_Penalty_Neutral>
0.115954

> <r_epik_State_Penalty>
0.105552

> <r_epik_Charging_Adjusted_Penalty>
0.107029

> <i_epik_Tot_Q>
1

> <i_epik_Tot_abs_Q>
1

> <r_epik_Metal_State_Penalty>
0.0881315

> <b_epik_Metal_Only>
0

> <s_lp_Force_Field>
OPLS_2005

> <r_lp_Energy>
26.5428

> <b_lp_Chiralities_Consistent>
1

> <s_lp_Variant>
AV-unprocessed.smi:1032-4

> <Gold.Version>
5.8.1

> <Gold.Id.Protein>
6NUR|6NUR_protein|mol2

> <Gold.PLP.Fitness>
52.8403

> <Gold.PLP.PLP>
-34.5824

> <Gold.PLP.part.hbond>
-5.1499

> <Gold.PLP.part.metal>
0.0000

> <Gold.PLP.part.buried>
-2.5987

> <Gold.PLP.part.nonpolar>
-30.4046

> <Gold.PLP.part.repulsive>
3.5825

> <Gold.PLP.ligand.clash>
0.0000

> <Gold.PLP.ligand.torsion>
1.1187

> <Gold.PLP.Chemscore.Hbond>
5.0000

> <Gold.PLP.Chemscore.CHOScore>
1.8143

> <Gold.PLP.Chemscore.Metal>
0.0000

> <Gold.Chemscore.Hbonds>
donor molecule, donor type, donor heavy atom, donor atom, acceptor molecule, acceptor atom, score
      L1  H     5    46       P1 10175  2.00
      L1  H     8    33       P1  7957  0.93
      L1  H    10    36       P1  7948  1.00
      L1  H    13    37       P1  7948  1.00
      L1  C    16    39       P1 10186  1.00
      L1  C    18    40       P1 10747  0.58

> <Gold.PLP.Chemscore.Internal.Correction>
0.0525

> <Gold.Rescore>
     Score         DG    S(hbond)    S(metal)    S(lipo)     H(rot)  DE(clash)    DE(int)     intcor
     17.07     -21.87       3.81        0.00      81.42       2.29       2.31       2.48       ----

> <Gold.Chemscore.Fitness>
17.0745

> <Gold.Chemscore.DG>
-21.8723

> <Gold.Chemscore.ZeroCoef>
-5.4800

> <Gold.Chemscore.Hbond>
3.8084

> <Gold.Chemscore.Metal>
0.0000

> <Gold.Chemscore.Lipo>
81.4186

> <Gold.Chemscore.Internal_Hbond>
0.0000

> <Gold.Chemscore.DEClash>
2.3147

> <Gold.Chemscore.DEInternal>
2.4831

> <Gold.Chemscore.Rot>
2.2865

> <Gold.Chemscore.Internal.Correction>
   9.000000E+99

> <Gold.Chemscore.Hbonds>
donor molecule, donor type, donor heavy atom, donor atom, acceptor molecule, acceptor atom, score
      L1  H     5    46       P1 10175  0.76
      L1  H     8    33       P1  7957  0.89
      L1  H    10    36       P1  7948  0.98
      L1  H    13    37       P1  7948  0.93

> <Gold.Chemscore.Hbond.Weighted>
-12.7199

> <Gold.Chemscore.Metal.Weighted>
-0.0000

> <Gold.Chemscore.Lipo.Weighted>
-9.5260

> <Gold.Chemscore.Internal_Hbond.Weighted>
0.0000

> <Gold.Chemscore.DEClash.Weighted>
2.3147

> <Gold.Chemscore.DEInternal.Weighted>
2.4831

> <Gold.Chemscore.Rot.Weighted>
5.8536

> <Gold.Chemscore.Internal.Correction.Weighted>
   9.000000E+99

> <Gold.Protein.RotatedTorsions>
[ 6907 6896 6895 6894 ] final   34.41 input  -60.11 | X-H torsion
[ 7974 7965 7964 7962 ] final  135.02 input  175.53 | X-H torsion
[ 8008 7997 7996 7995 ] final -148.80 input   59.86 | X-H torsion
[ 10167 10162 10161 10158 ] final    0.06 input  -65.29 | X-H torsion
[ 10718 10713 10712 10709 ] final  -37.31 input   66.30 | X-H torsion
[ 10763 10752 10751 10750 ] final  -88.42 input  -60.55 | X-H torsion
[ 11005 11000 10999 10996 ] final  -96.95 input  -57.11 | X-H torsion

> <Gold.Protein.ActiveResidues>
 VAL166  LYS551  ARG553  GLY616  TRP617  ASP618  TYR619  PRO620  LYS621  CYS622 
 ASP623  PHE694  ASN695  SER759  ASP760  ASP761  ALA762  ILE779  LEU786  VAL792 
 PHE793  MET794  SER795  GLU796  ALA797  LYS798  CYS799  TRP800  GLU811  SER814 

> <Gold.Protein.RotatedAtoms>
  152.1020  134.9335  160.0569 H   0  0  0  0  0  0  0  0  0  0  0  0  # atno 6907 bound_to 6896
  152.0546  133.4029  159.4400 H   0  0  0  0  0  0  0  0  0  0  0  0  # atno 6908 bound_to 6896
  150.6840  134.3190  159.4822 H   0  0  0  0  0  0  0  0  0  0  0  0  # atno 6909 bound_to 6896
  144.9705  139.4611  143.5435 H   0  0  0  0  0  0  0  0  0  0  0  0  # atno 7974 bound_to 7965
  155.5974  140.0658  157.2742 H   0  0  0  0  0  0  0  0  0  0  0  0  # atno 8008 bound_to 7997
  154.4288  140.1824  156.1184 H   0  0  0  0  0  0  0  0  0  0  0  0  # atno 8009 bound_to 7997
  156.0186  140.3319  155.7018 H   0  0  0  0  0  0  0  0  0  0  0  0  # atno 8010 bound_to 7997
  140.6745  143.6954  150.7994 H   0  0  0  0  0  0  0  0  0  0  0  0  # atno 10167 bound_to 10162
  156.3167  130.4260  149.7999 H   0  0  0  0  0  0  0  0  0  0  0  0  # atno 10718 bound_to 10713
  154.6443  135.5378  153.7826 H   0  0  0  0  0  0  0  0  0  0  0  0  # atno 10763 bound_to 10752
  153.0351  135.6467  154.1113 H   0  0  0  0  0  0  0  0  0  0  0  0  # atno 10764 bound_to 10752
  154.1035  135.2931  155.3226 H   0  0  0  0  0  0  0  0  0  0  0  0  # atno 10765 bound_to 10752
  141.1395  133.8135  157.0640 H   0  0  0  0  0  0  0  0  0  0  0  0  # atno 11005 bound_to 11000
  146.3380  139.8914  142.8808 LP  0  0  0  0  0  0  0  0  0  0  0  0  # atno 17320 bound_to 7965
  145.2566  141.0062  143.3850 LP  0  0  0  0  0  0  0  0  0  0  0  0  # atno 17321 bound_to 7965
  140.0645  143.5122  152.2611 LP  0  0  0  0  0  0  0  0  0  0  0  0  # atno 17342 bound_to 10162
  139.6030  144.7588  151.3126 LP  0  0  0  0  0  0  0  0  0  0  0  0  # atno 17343 bound_to 10162
  156.5322  130.8262  151.3241 LP  0  0  0  0  0  0  0  0  0  0  0  0  # atno 17370 bound_to 10713
  157.7403  130.9848  150.2369 LP  0  0  0  0  0  0  0  0  0  0  0  0  # atno 17371 bound_to 10713
  140.0553  134.9784  157.1209 LP  0  0  0  0  0  0  0  0  0  0  0  0  # atno 17394 bound_to 11000
  140.3929  134.2165  155.7165 LP  0  0  0  0  0  0  0  0  0  0  0  0  # atno 17395 bound_to 11000

$$$$
