AV-unprocessed.smi:1207|AV-procd|sdf|5055|dock10
  -GOLD-   22720 4 93D 1   1.00000     0.00000
 Structure written by MMmdl.
 52 54  0  0  0  0  0  0  0  0  2 V2000
  152.2735  144.0427  161.2787 C   0  0  0  0  0  0  0  0  0  0  0  0
  152.0945  143.1798  160.0412 C   0  0  0  0  0  0  0  0  0  0  0  0
  151.1354  143.5703  159.0793 C   0  0  0  0  0  0  0  0  0  0  0  0
  150.9994  142.7640  157.9555 C   0  0  0  0  0  0  0  0  0  0  0  0
  150.1615  142.8753  156.8434 N   0  3  0  0  0  0  0  0  0  0  0  0
  150.3963  141.8382  155.9919 C   0  0  0  0  0  0  0  0  0  0  0  0
  151.3710  141.0671  156.5453 N   0  0  0  0  0  0  0  0  0  0  0  0
  152.0039  139.8401  156.0444 C   0  0  0  0  0  0  0  0  0  0  0  0
  150.9863  138.8327  155.4745 C   0  0  2  0  0  0  0  0  0  0  0  0
  150.5652  139.2729  154.1985 O   0  0  0  0  0  0  0  0  0  0  0  0
  149.7438  138.7057  156.3794 C   0  0  0  0  0  0  0  0  0  0  0  0
  148.8140  137.6332  156.0186 N   0  0  0  0  0  0  0  0  0  0  0  0
  147.4381  138.0724  156.2356 C   0  0  0  0  0  0  0  0  0  0  0  0
  149.0862  136.3949  156.7566 C   0  0  0  0  0  0  0  0  0  0  0  0
  148.9255  136.5490  158.2472 C   0  0  0  0  0  0  0  0  0  0  0  0
  147.8390  136.1162  159.0597 C   0  0  0  0  0  0  0  0  0  0  0  0
  146.5893  135.3978  158.6385 C   0  0  0  0  0  0  0  0  0  0  0  0
  148.0234  136.4183  160.3340 N   0  0  0  0  0  0  0  0  0  0  0  0
  149.2579  137.0718  160.3974 O   0  0  0  0  0  0  0  0  0  0  0  0
  149.7747  137.1373  159.1439 C   0  0  0  0  0  0  0  0  0  0  0  0
  151.0985  137.8093  159.0022 C   0  0  0  0  0  0  0  0  0  0  0  0
  151.7757  141.6037  157.7715 C   0  0  0  0  0  0  0  0  0  0  0  0
  152.7217  141.2015  158.7107 C   0  0  0  0  0  0  0  0  0  0  0  0
  152.8772  142.0100  159.8592 C   0  0  0  0  0  0  0  0  0  0  0  0
  153.9061  141.5999  160.8990 C   0  0  0  0  0  0  0  0  0  0  0  0
  151.5956  144.8969  161.2710 H   0  0  0  0  0  0  0  0  0  0  0  0
  153.2924  144.4268  161.3329 H   0  0  0  0  0  0  0  0  0  0  0  0
  152.0717  143.4655  162.1815 H   0  0  0  0  0  0  0  0  0  0  0  0
  150.5364  144.4596  159.2111 H   0  0  0  0  0  0  0  0  0  0  0  0
  149.9035  141.6625  155.0464 H   0  0  0  0  0  0  0  0  0  0  0  0
  152.7422  140.1190  155.2912 H   0  0  0  0  0  0  0  0  0  0  0  0
  152.5575  139.3943  156.8722 H   0  0  0  0  0  0  0  0  0  0  0  0
  151.4822  137.8725  155.3479 H   0  0  0  0  0  0  0  0  0  0  0  0
  150.0673  138.5781  153.7947 H   0  0  0  0  0  0  0  0  0  0  0  0
  150.0615  138.5604  157.4132 H   0  0  0  0  0  0  0  0  0  0  0  0
  149.2238  139.6653  156.3687 H   0  0  0  0  0  0  0  0  0  0  0  0
  146.7236  137.3172  155.9075 H   0  0  0  0  0  0  0  0  0  0  0  0
  147.2269  138.9797  155.6687 H   0  0  0  0  0  0  0  0  0  0  0  0
  147.2524  138.2809  157.2900 H   0  0  0  0  0  0  0  0  0  0  0  0
  148.4187  135.6040  156.4212 H   0  0  0  0  0  0  0  0  0  0  0  0
  150.0880  136.0404  156.5095 H   0  0  0  0  0  0  0  0  0  0  0  0
  145.9567  136.0442  158.0301 H   0  0  0  0  0  0  0  0  0  0  0  0
  146.0004  135.0707  159.4962 H   0  0  0  0  0  0  0  0  0  0  0  0
  146.8289  134.5144  158.0465 H   0  0  0  0  0  0  0  0  0  0  0  0
  151.6041  137.4911  158.0904 H   0  0  0  0  0  0  0  0  0  0  0  0
  151.7467  137.5720  159.8459 H   0  0  0  0  0  0  0  0  0  0  0  0
  150.9779  138.8917  158.9618 H   0  0  0  0  0  0  0  0  0  0  0  0
  153.3174  140.3117  158.5698 H   0  0  0  0  0  0  0  0  0  0  0  0
  154.4198  140.6820  160.6119 H   0  0  0  0  0  0  0  0  0  0  0  0
  153.4281  141.4259  161.8633 H   0  0  0  0  0  0  0  0  0  0  0  0
  154.6595  142.3787  161.0204 H   0  0  0  0  0  0  0  0  0  0  0  0
  149.4813  143.6050  156.6734 H   0  0  0  0  0  0  0  0  0  0  0  0
  1  2  1  0  0  0  0
  1 26  1  0  0  0  0
  1 27  1  0  0  0  0
  1 28  1  0  0  0  0
  2 24  1  0  0  0  0
  2  3  2  0  0  0  0
  3  4  1  0  0  0  0
  3 29  1  0  0  0  0
  4 22  2  0  0  0  0
  4  5  1  0  0  0  0
  5  6  2  0  0  0  0
  5 52  1  0  0  0  0
  6  7  1  0  0  0  0
  6 30  1  0  0  0  0
  7  8  1  0  0  0  0
  7 22  1  0  0  0  0
  8  9  1  0  0  0  0
  8 31  1  0  0  0  0
  8 32  1  0  0  0  0
  9 10  1  0  0  0  0
  9 11  1  0  0  0  0
  9 33  1  0  0  0  0
 10 34  1  0  0  0  0
 11 12  1  0  0  0  0
 11 35  1  0  0  0  0
 11 36  1  0  0  0  0
 12 13  1  0  0  0  0
 12 14  1  0  0  0  0
 13 37  1  0  0  0  0
 13 38  1  0  0  0  0
 13 39  1  0  0  0  0
 14 15  1  0  0  0  0
 14 40  1  0  0  0  0
 14 41  1  0  0  0  0
 15 20  2  0  0  0  0
 15 16  1  0  0  0  0
 16 17  1  0  0  0  0
 16 18  2  0  0  0  0
 17 42  1  0  0  0  0
 17 43  1  0  0  0  0
 17 44  1  0  0  0  0
 18 19  1  0  0  0  0
 19 20  1  0  0  0  0
 20 21  1  0  0  0  0
 21 45  1  0  0  0  0
 21 46  1  0  0  0  0
 21 47  1  0  0  0  0
 22 23  1  0  0  0  0
 23 24  2  0  0  0  0
 23 48  1  0  0  0  0
 24 25  1  0  0  0  0
 25 49  1  0  0  0  0
 25 50  1  0  0  0  0
 25 51  1  0  0  0  0
M  CHG  1   5   1
M  END
> <s_m_source_file>
AV-unprocessed.smi

> <i_m_source_file_index>
1207

> <i_lp_mmshare_version>
43012

> <i_f3d_flags>
0

> <s_epik_input>
W0NIM11jKFtjSF0xKWMoW0NIM10pW2NIXWMoYzEyKW4oW2NIXW4yKVtDSDJdW0NASF0oW09IXSlbQ0gyXU4oW0NIM10pW0NIMl1jM2MoW0NIM10pbm9jM1tDSDNd

> <s_epik_cmdline>
J2VwaWtfcHl0aG9uJywgJy1waCcsICc3LjAnLCAnLXRuJywgJzgnLCAnLW1hJywgJzIwMCcsICctbWV0YWxfYmluZGluZycsICctaW1hZScsICc8aW5maWxlLm1hZT4nLCAnLW9tYWUnLCAnPG91dGZpbGUubWFlPic=

> <r_epik_Ionization_Penalty>
1.48114

> <r_epik_Ionization_Penalty_Charging>
1.21121

> <r_epik_Ionization_Penalty_Neutral>
0.269933

> <r_epik_State_Penalty>
1.53013

> <r_epik_Charging_Adjusted_Penalty>
2.74134

> <i_epik_Tot_Q>
1

> <i_epik_Tot_abs_Q>
1

> <r_epik_Metal_State_Penalty>
1.60462

> <b_epik_Metal_Only>
0

> <s_lp_Force_Field>
OPLS_2005

> <r_lp_Energy>
21.4613

> <b_lp_Chiralities_Consistent>
1

> <s_lp_Variant>
AV-unprocessed.smi:1207-7

> <Gold.Version>
5.8.1

> <Gold.Id.Protein>
6NUR|6NUR_protein|mol2

> <Gold.PLP.Fitness>
50.8968

> <Gold.PLP.PLP>
-42.2467

> <Gold.PLP.part.hbond>
-3.1580

> <Gold.PLP.part.metal>
0.0000

> <Gold.PLP.part.buried>
-6.7742

> <Gold.PLP.part.nonpolar>
-32.6294

> <Gold.PLP.part.repulsive>
0.0663

> <Gold.PLP.ligand.clash>
0.0000

> <Gold.PLP.ligand.torsion>
1.0755

> <Gold.PLP.Chemscore.Hbond>
3.5760

> <Gold.PLP.Chemscore.CHOScore>
0.0000

> <Gold.PLP.Chemscore.Metal>
0.0000

> <Gold.Chemscore.Hbonds>
donor molecule, donor type, donor heavy atom, donor atom, acceptor molecule, acceptor atom, score
      L1  H     5    52       P1  8028  1.95
      P1  H  6931  6943       L1    19  0.56
      P1  H  7989  7998       L1    10  0.99

> <Gold.PLP.Chemscore.Internal.Correction>
0.0732

> <Gold.Rescore>
     Score         DG    S(hbond)    S(metal)    S(lipo)     H(rot)  DE(clash)    DE(int)     intcor
     20.21     -21.40       2.66        0.00     113.80       2.46       0.06       1.14       ----

> <Gold.Chemscore.Fitness>
20.2056

> <Gold.Chemscore.DG>
-21.3985

> <Gold.Chemscore.ZeroCoef>
-5.4800

> <Gold.Chemscore.Hbond>
2.6615

> <Gold.Chemscore.Metal>
0.0000

> <Gold.Chemscore.Lipo>
113.8037

> <Gold.Chemscore.Internal_Hbond>
0.0000

> <Gold.Chemscore.DEClash>
0.0566

> <Gold.Chemscore.DEInternal>
1.1364

> <Gold.Chemscore.Rot>
2.4555

> <Gold.Chemscore.Internal.Correction>
   9.000000E+99

> <Gold.Chemscore.Hbonds>
donor molecule, donor type, donor heavy atom, donor atom, acceptor molecule, acceptor atom, score
      L1  H     5    52       P1  8028  0.91
      P1  H  6931  6943       L1    19  0.25
      P1  H  7989  7998       L1    10  0.81

> <Gold.Chemscore.Hbond.Weighted>
-8.8895

> <Gold.Chemscore.Metal.Weighted>
-0.0000

> <Gold.Chemscore.Lipo.Weighted>
-13.3150

> <Gold.Chemscore.Internal_Hbond.Weighted>
0.0000

> <Gold.Chemscore.DEClash.Weighted>
0.0566

> <Gold.Chemscore.DEInternal.Weighted>
1.1364

> <Gold.Chemscore.Rot.Weighted>
6.2861

> <Gold.Chemscore.Internal.Correction.Weighted>
   9.000000E+99

> <Gold.Protein.RotatedTorsions>
[ 6907 6896 6895 6894 ] final -175.69 input  -60.11 | X-H torsion
[ 7974 7965 7964 7962 ] final   97.52 input  175.53 | X-H torsion
[ 8008 7997 7996 7995 ] final   11.31 input   59.86 | X-H torsion
[ 10167 10162 10161 10158 ] final  -40.62 input  -65.29 | X-H torsion
[ 10718 10713 10712 10709 ] final  -75.07 input   66.30 | X-H torsion
[ 10763 10752 10751 10750 ] final  123.02 input  -60.55 | X-H torsion
[ 11005 11000 10999 10996 ] final  159.32 input  -57.11 | X-H torsion

> <Gold.Protein.ActiveResidues>
 VAL166  LYS551  ARG553  GLY616  TRP617  ASP618  TYR619  PRO620  LYS621  CYS622 
 ASP623  PHE694  ASN695  SER759  ASP760  ASP761  ALA762  ILE779  LEU786  VAL792 
 PHE793  MET794  SER795  GLU796  ALA797  LYS798  CYS799  TRP800  GLU811  SER814 

> <Gold.Protein.RotatedAtoms>
  151.5927  133.3365  159.3030 H   0  0  0  0  0  0  0  0  0  0  0  0  # atno 6907 bound_to 6896
  150.8251  134.7481  159.6817 H   0  0  0  0  0  0  0  0  0  0  0  0  # atno 6908 bound_to 6896
  152.4341  134.5726  159.9977 H   0  0  0  0  0  0  0  0  0  0  0  0  # atno 6909 bound_to 6896
  145.4243  139.2318  143.3179 H   0  0  0  0  0  0  0  0  0  0  0  0  # atno 7974 bound_to 7965
  154.8051  140.2858  155.5893 H   0  0  0  0  0  0  0  0  0  0  0  0  # atno 8008 bound_to 7997
  156.2982  140.2579  156.2857 H   0  0  0  0  0  0  0  0  0  0  0  0  # atno 8009 bound_to 7997
  154.9512  140.0379  157.2134 H   0  0  0  0  0  0  0  0  0  0  0  0  # atno 8010 bound_to 7997
  140.7028  143.3143  151.2950 H   0  0  0  0  0  0  0  0  0  0  0  0  # atno 10167 bound_to 10162
  156.0220  130.4432  150.2988 H   0  0  0  0  0  0  0  0  0  0  0  0  # atno 10718 bound_to 10713
  153.6389  135.3383  155.3065 H   0  0  0  0  0  0  0  0  0  0  0  0  # atno 10763 bound_to 10752
  154.8564  135.4313  154.2026 H   0  0  0  0  0  0  0  0  0  0  0  0  # atno 10764 bound_to 10752
  153.2940  135.7019  153.7340 H   0  0  0  0  0  0  0  0  0  0  0  0  # atno 10765 bound_to 10752
  140.1951  134.8379  157.2955 H   0  0  0  0  0  0  0  0  0  0  0  0  # atno 11005 bound_to 11000
  146.2640  140.4972  142.8842 LP  0  0  0  0  0  0  0  0  0  0  0  0  # atno 17320 bound_to 7965
  144.8224  140.6572  143.6344 LP  0  0  0  0  0  0  0  0  0  0  0  0  # atno 17321 bound_to 7965
  139.6576  144.0248  152.2670 LP  0  0  0  0  0  0  0  0  0  0  0  0  # atno 17342 bound_to 10162
  139.9805  144.6432  150.7905 LP  0  0  0  0  0  0  0  0  0  0  0  0  # atno 17343 bound_to 10162
  157.1091  131.0216  151.3055 LP  0  0  0  0  0  0  0  0  0  0  0  0  # atno 17370 bound_to 10713
  157.4719  130.7714  149.7331 LP  0  0  0  0  0  0  0  0  0  0  0  0  # atno 17371 bound_to 10713
  140.2117  134.4131  155.7609 LP  0  0  0  0  0  0  0  0  0  0  0  0  # atno 17394 bound_to 11000
  141.2227  133.7121  156.8348 LP  0  0  0  0  0  0  0  0  0  0  0  0  # atno 17395 bound_to 11000

$$$$
