AV-unprocessed.smi:166|AV-procd|sdf|1391|dock1
  -GOLD-   2262019133D 1   1.00000     0.00000
 Structure written by MMmdl.
 54 58  0  0  0  0  0  0  0  0  1 V2000
  145.0449  136.3528  149.9526 O   0  0  0  0  0  0  0  0  0  0  0  0
  144.8475  135.6623  151.1746 C   0  0  2  0  0  0  0  0  0  0  0  0
  144.5777  136.6836  152.3050 C   0  0  0  0  0  0  0  0  0  0  0  0
  145.7591  137.4241  152.7203 N   0  0  0  0  0  0  0  0  0  0  0  0
  146.4040  138.4183  152.0187 C   0  0  0  0  0  0  0  0  0  0  0  0
  147.4466  138.9323  152.6120 N   0  0  0  0  0  0  0  0  0  0  0  0
  147.5223  138.2460  153.8179 C   0  0  0  0  0  0  0  0  0  0  0  0
  148.3982  138.2942  154.9388 C   0  0  0  0  0  0  0  0  0  0  0  0
  149.4590  139.1202  155.0511 N   0  0  0  0  0  0  0  0  0  0  0  0
  150.7366  138.4390  154.8661 C   0  0  0  0  0  0  0  0  0  0  0  0
  151.8827  139.4582  154.7641 C   0  0  0  0  0  0  0  0  0  0  0  0
  151.8820  140.4021  155.9768 C   0  0  0  0  0  0  0  0  0  0  0  0
  150.5101  141.0814  156.1332 C   0  0  2  0  0  0  0  0  0  0  0  0
  150.5517  141.8594  157.3223 O   0  0  0  0  0  0  0  0  0  0  0  0
  151.4247  142.9771  157.2637 C   0  0  0  0  0  0  0  0  0  0  0  0
  151.4562  143.6409  158.6234 C   0  0  0  0  0  0  0  0  0  0  0  0
  152.3298  144.8520  158.8598 C   0  0  0  0  0  0  0  0  0  0  0  0
  152.6777  143.5367  159.5082 C   0  0  0  0  0  0  0  0  0  0  0  0
  149.3955  140.0164  156.2032 C   0  0  0  0  0  0  0  0  0  0  0  0
  148.1499  137.4620  155.9790 N   0  0  0  0  0  0  0  0  0  0  0  0
  147.1108  136.6228  155.9284 C   0  0  0  0  0  0  0  0  0  0  0  0
  146.2148  136.4605  154.9520 N   0  0  0  0  0  0  0  0  0  0  0  0
  146.4626  137.3006  153.9057 C   0  0  0  0  0  0  0  0  0  0  0  0
  146.0797  134.8052  151.4434 C   0  0  0  0  0  0  0  0  0  0  0  0
  145.7284  133.4812  150.7792 C   0  0  0  0  0  0  0  0  0  0  0  0
  144.3530  133.3384  151.0873 O   0  0  0  0  0  0  0  0  0  0  0  0
  143.7320  134.6142  150.9709 C   0  0  0  0  0  0  0  0  0  0  0  0
  144.4544  137.0902  149.9246 H   0  0  0  0  0  0  0  0  0  0  0  0
  143.8195  137.4019  151.9899 H   0  0  0  0  0  0  0  0  0  0  0  0
  144.1698  136.1750  153.1796 H   0  0  0  0  0  0  0  0  0  0  0  0
  146.0755  138.7543  151.0460 H   0  0  0  0  0  0  0  0  0  0  0  0
  150.9140  137.7644  155.7049 H   0  0  0  0  0  0  0  0  0  0  0  0
  150.7041  137.8264  153.9638 H   0  0  0  0  0  0  0  0  0  0  0  0
  152.8392  138.9399  154.6920 H   0  0  0  0  0  0  0  0  0  0  0  0
  151.7736  140.0399  153.8478 H   0  0  0  0  0  0  0  0  0  0  0  0
  152.1175  139.8352  156.8787 H   0  0  0  0  0  0  0  0  0  0  0  0
  152.6641  141.1540  155.8673 H   0  0  0  0  0  0  0  0  0  0  0  0
  150.3464  141.7316  155.2716 H   0  0  0  0  0  0  0  0  0  0  0  0
  152.4317  142.6669  156.9804 H   0  0  0  0  0  0  0  0  0  0  0  0
  151.0786  143.7060  156.5312 H   0  0  0  0  0  0  0  0  0  0  0  0
  150.4919  143.6531  159.1284 H   0  0  0  0  0  0  0  0  0  0  0  0
  152.9611  145.1903  158.0404 H   0  0  0  0  0  0  0  0  0  0  0  0
  151.9341  145.6388  159.4989 H   0  0  0  0  0  0  0  0  0  0  0  0
  152.5131  143.4434  160.5798 H   0  0  0  0  0  0  0  0  0  0  0  0
  153.5408  142.9987  159.1209 H   0  0  0  0  0  0  0  0  0  0  0  0
  148.4140  140.4902  156.2310 H   0  0  0  0  0  0  0  0  0  0  0  0
  149.5010  139.4412  157.1235 H   0  0  0  0  0  0  0  0  0  0  0  0
  146.9775  135.9919  156.7948 H   0  0  0  0  0  0  0  0  0  0  0  0
  147.0084  135.2389  151.0701 H   0  0  0  0  0  0  0  0  0  0  0  0
  146.1995  134.6405  152.5152 H   0  0  0  0  0  0  0  0  0  0  0  0
  145.8613  133.5351  149.6975 H   0  0  0  0  0  0  0  0  0  0  0  0
  146.3167  132.6468  151.1611 H   0  0  0  0  0  0  0  0  0  0  0  0
  142.9454  134.6845  151.7213 H   0  0  0  0  0  0  0  0  0  0  0  0
  143.2582  134.7037  149.9918 H   0  0  0  0  0  0  0  0  0  0  0  0
  1  2  1  0  0  0  0
  1 28  1  0  0  0  0
  2 27  1  0  0  0  0
  2  3  1  0  0  0  0
  2 24  1  0  0  0  0
  3  4  1  0  0  0  0
  3 29  1  0  0  0  0
  3 30  1  0  0  0  0
  4 23  1  0  0  0  0
  4  5  1  0  0  0  0
  5  6  2  0  0  0  0
  5 31  1  0  0  0  0
  6  7  1  0  0  0  0
  7 23  2  0  0  0  0
  7  8  1  0  0  0  0
  8  9  1  0  0  0  0
  8 20  2  0  0  0  0
  9 19  1  0  0  0  0
  9 10  1  0  0  0  0
 10 11  1  0  0  0  0
 10 32  1  0  0  0  0
 10 33  1  0  0  0  0
 11 12  1  0  0  0  0
 11 34  1  0  0  0  0
 11 35  1  0  0  0  0
 12 13  1  0  0  0  0
 12 36  1  0  0  0  0
 12 37  1  0  0  0  0
 13 14  1  0  0  0  0
 13 19  1  0  0  0  0
 13 38  1  0  0  0  0
 14 15  1  0  0  0  0
 15 16  1  0  0  0  0
 15 39  1  0  0  0  0
 15 40  1  0  0  0  0
 16 18  1  0  0  0  0
 16 17  1  0  0  0  0
 16 41  1  0  0  0  0
 17 18  1  0  0  0  0
 17 42  1  0  0  0  0
 17 43  1  0  0  0  0
 18 44  1  0  0  0  0
 18 45  1  0  0  0  0
 19 46  1  0  0  0  0
 19 47  1  0  0  0  0
 20 21  1  0  0  0  0
 21 22  2  0  0  0  0
 21 48  1  0  0  0  0
 22 23  1  0  0  0  0
 24 25  1  0  0  0  0
 24 49  1  0  0  0  0
 24 50  1  0  0  0  0
 25 26  1  0  0  0  0
 25 51  1  0  0  0  0
 25 52  1  0  0  0  0
 26 27  1  0  0  0  0
 27 53  1  0  0  0  0
 27 54  1  0  0  0  0
M  END
> <s_m_source_file>
AV-unprocessed.smi

> <i_m_source_file_index>
166

> <i_lp_mmshare_version>
43012

> <i_f3d_flags>
0

> <s_epik_input>
W0NIMl0xT1tDSDJdW0NIMl1bQ0BAXTEoW09IXSlbQ0gyXW4oW2NIXW4yKWMoYzIzKW5bY0hdbmMzTjRbQ0gyXVtDSDJdW0NIMl1bQ0BIXShbQ0gyXTQpT1tDSDJdW0NIXTVbQ0gyXVtDSDJdNQ==

> <s_epik_cmdline>
J2VwaWtfcHl0aG9uJywgJy1waCcsICc3LjAnLCAnLXRuJywgJzgnLCAnLW1hJywgJzIwMCcsICctbWV0YWxfYmluZGluZycsICctaW1hZScsICc8aW5maWxlLm1hZT4nLCAnLW9tYWUnLCAnPG91dGZpbGUubWFlPic=

> <r_lp_tautomer_probability>
1

> <r_epik_Ionization_Penalty>
0.00342552

> <r_epik_Ionization_Penalty_Charging>
0

> <r_epik_Ionization_Penalty_Neutral>
0.00342552

> <r_epik_State_Penalty>
0.0022204

> <r_epik_Charging_Adjusted_Penalty>
0.0022204

> <i_epik_Tot_Q>
0

> <i_epik_Tot_abs_Q>
0

> <r_epik_Metal_State_Penalty>
-0

> <b_epik_Metal_Only>
0

> <s_lp_Force_Field>
OPLS_2005

> <r_lp_Energy>
47.9091

> <b_lp_Chiralities_Consistent>
1

> <s_lp_Variant>
AV-unprocessed.smi:166-4

> <Gold.Version>
5.8.1

> <Gold.Id.Protein>
6NUR|6NUR_protein|mol2

> <Gold.PLP.Fitness>
47.1315

> <Gold.PLP.PLP>
-41.7746

> <Gold.PLP.part.hbond>
-2.0000

> <Gold.PLP.part.metal>
0.0000

> <Gold.PLP.part.buried>
-2.4955

> <Gold.PLP.part.nonpolar>
-39.6751

> <Gold.PLP.part.repulsive>
2.6733

> <Gold.PLP.ligand.clash>
0.0000

> <Gold.PLP.ligand.torsion>
0.8343

> <Gold.PLP.Chemscore.Hbond>
1.0000

> <Gold.PLP.Chemscore.CHOScore>
0.9944

> <Gold.PLP.Chemscore.Metal>
0.0000

> <Gold.Chemscore.Hbonds>
donor molecule, donor type, donor heavy atom, donor atom, acceptor molecule, acceptor atom, score
      L1  H     1    28       P1 10171  1.00
      L1  C     5    31       P1 10171  1.00

> <Gold.PLP.Chemscore.Internal.Correction>
1.0423

> <Gold.Rescore>
     Score         DG    S(hbond)    S(metal)    S(lipo)     H(rot)  DE(clash)    DE(int)     intcor
     12.38     -13.48       1.00        0.00      98.62       2.68       0.01       1.09       ----

> <Gold.Chemscore.Fitness>
12.3811

> <Gold.Chemscore.DG>
-13.4770

> <Gold.Chemscore.ZeroCoef>
-5.4800

> <Gold.Chemscore.Hbond>
0.9952

> <Gold.Chemscore.Metal>
0.0000

> <Gold.Chemscore.Lipo>
98.6168

> <Gold.Chemscore.Internal_Hbond>
0.0000

> <Gold.Chemscore.DEClash>
0.0060

> <Gold.Chemscore.DEInternal>
1.0899

> <Gold.Chemscore.Rot>
2.6817

> <Gold.Chemscore.Internal.Correction>
   9.000000E+99

> <Gold.Chemscore.Hbonds>
donor molecule, donor type, donor heavy atom, donor atom, acceptor molecule, acceptor atom, score
      L1  H     1    28       P1 10171  0.98

> <Gold.Chemscore.Hbond.Weighted>
-3.3239

> <Gold.Chemscore.Metal.Weighted>
-0.0000

> <Gold.Chemscore.Lipo.Weighted>
-11.5382

> <Gold.Chemscore.Internal_Hbond.Weighted>
0.0000

> <Gold.Chemscore.DEClash.Weighted>
0.0060

> <Gold.Chemscore.DEInternal.Weighted>
1.0899

> <Gold.Chemscore.Rot.Weighted>
6.8651

> <Gold.Chemscore.Internal.Correction.Weighted>
   9.000000E+99

> <Gold.Protein.RotatedTorsions>
[ 6907 6896 6895 6894 ] final  167.45 input  -60.11 | X-H torsion
[ 7974 7965 7964 7962 ] final    8.60 input  175.53 | X-H torsion
[ 8008 7997 7996 7995 ] final   31.75 input   59.86 | X-H torsion
[ 10167 10162 10161 10158 ] final  160.49 input  -65.29 | X-H torsion
[ 10718 10713 10712 10709 ] final   96.51 input   66.30 | X-H torsion
[ 10763 10752 10751 10750 ] final  -20.81 input  -60.55 | X-H torsion
[ 11005 11000 10999 10996 ] final  -17.72 input  -57.11 | X-H torsion

> <Gold.Protein.ActiveResidues>
 VAL166  LYS551  ARG553  GLY616  TRP617  ASP618  TYR619  PRO620  LYS621  CYS622 
 ASP623  PHE694  ASN695  SER759  ASP760  ASP761  ALA762  ILE779  LEU786  VAL792 
 PHE793  MET794  SER795  GLU796  ALA797  LYS798  CYS799  TRP800  GLU811  SER814 

> <Gold.Protein.RotatedAtoms>
  151.8631  133.3461  159.3709 H   0  0  0  0  0  0  0  0  0  0  0  0  # atno 6907 bound_to 6896
  150.7173  134.5187  159.5652 H   0  0  0  0  0  0  0  0  0  0  0  0  # atno 6908 bound_to 6896
  152.2704  134.7939  160.0466 H   0  0  0  0  0  0  0  0  0  0  0  0  # atno 6909 bound_to 6896
  146.2414  139.9909  142.8426 H   0  0  0  0  0  0  0  0  0  0  0  0  # atno 7974 bound_to 7965
  155.1115  140.3239  155.4520 H   0  0  0  0  0  0  0  0  0  0  0  0  # atno 8008 bound_to 7997
  156.2689  140.2043  156.6187 H   0  0  0  0  0  0  0  0  0  0  0  0  # atno 8009 bound_to 7997
  154.6752  140.0532  157.0195 H   0  0  0  0  0  0  0  0  0  0  0  0  # atno 8010 bound_to 7997
  139.4840  144.4629  151.8681 H   0  0  0  0  0  0  0  0  0  0  0  0  # atno 10167 bound_to 10162
  157.6926  131.0580  150.4503 H   0  0  0  0  0  0  0  0  0  0  0  0  # atno 10718 bound_to 10713
  153.6263  135.6991  153.5292 H   0  0  0  0  0  0  0  0  0  0  0  0  # atno 10763 bound_to 10752
  153.2896  135.4161  155.1154 H   0  0  0  0  0  0  0  0  0  0  0  0  # atno 10764 bound_to 10752
  154.8532  135.3622  154.5804 H   0  0  0  0  0  0  0  0  0  0  0  0  # atno 10765 bound_to 10752
  140.8196  133.8078  155.9646 H   0  0  0  0  0  0  0  0  0  0  0  0  # atno 11005 bound_to 11000
  145.1504  140.9620  143.4436 LP  0  0  0  0  0  0  0  0  0  0  0  0  # atno 17320 bound_to 7965
  145.0210  139.3424  143.6072 LP  0  0  0  0  0  0  0  0  0  0  0  0  # atno 17321 bound_to 7965
  140.4092  144.2391  150.5889 LP  0  0  0  0  0  0  0  0  0  0  0  0  # atno 17342 bound_to 10162
  140.4982  143.2326  151.8718 LP  0  0  0  0  0  0  0  0  0  0  0  0  # atno 17343 bound_to 10162
  156.4854  130.4083  149.6437 LP  0  0  0  0  0  0  0  0  0  0  0  0  # atno 17370 bound_to 10713
  156.3467  130.7410  151.2364 LP  0  0  0  0  0  0  0  0  0  0  0  0  # atno 17371 bound_to 10713
  140.9113  134.2257  157.4984 LP  0  0  0  0  0  0  0  0  0  0  0  0  # atno 17394 bound_to 11000
  139.8709  134.9751  156.4871 LP  0  0  0  0  0  0  0  0  0  0  0  0  # atno 17395 bound_to 11000

$$$$
