AV-unprocessed.smi:2078|AV-procd|sdf|8464|dock5
  -GOLD-   2272011163D 1   1.00000     0.00000
 Structure written by MMmdl.
 42 43  0  0  0  0  0  0  0  0  2 V2000
  153.8528  137.8960  156.9856 C   0  0  0  0  0  0  0  0  0  0  0  0
  152.7484  138.2109  156.0348 C   0  0  0  0  0  0  0  0  0  0  0  0
  151.6815  137.4882  155.5794 C   0  0  0  0  0  0  0  0  0  0  0  0
  151.0363  138.3931  154.6951 C   0  0  0  0  0  0  0  0  0  0  0  0
  149.8587  138.0169  154.0001 N   0  0  0  0  0  0  0  0  0  0  0  0
  148.6039  138.4404  154.2281 C   0  0  0  0  0  0  0  0  0  0  0  0
  148.2709  139.2414  155.1021 O   0  0  0  0  0  0  0  0  0  0  0  0
  147.7342  137.8758  153.3775 N   0  0  0  0  0  0  0  0  0  0  0  0
  146.3000  138.1380  153.3602 C   0  0  0  0  0  0  0  0  0  0  0  0
  145.6194  137.4915  152.1378 C   0  0  0  0  0  0  0  0  0  0  0  0
  145.9307  136.0450  152.0215 N   0  3  2  0  0  0  0  0  0  0  0  0
  145.2808  135.4011  150.8490 C   0  0  0  0  0  0  0  0  0  0  0  0
  145.7503  133.9469  150.6865 C   0  0  0  0  0  0  0  0  0  0  0  0
  145.4977  133.1401  151.9681 C   0  0  0  0  0  0  0  0  0  0  0  0
  146.1131  133.8352  153.1969 C   0  0  1  0  0  0  0  0  0  0  0  0
  147.6460  133.7094  153.2482 C   0  0  0  0  0  0  0  0  0  0  0  0
  145.6458  135.3036  153.2788 C   0  0  0  0  0  0  0  0  0  0  0  0
  151.6520  139.5629  154.6186 N   0  0  0  0  0  0  0  0  0  0  0  0
  152.7527  139.4521  155.4763 O   0  0  0  0  0  0  0  0  0  0  0  0
  153.4590  137.4643  157.9058 H   0  0  0  0  0  0  0  0  0  0  0  0
  154.4136  138.7935  157.2482 H   0  0  0  0  0  0  0  0  0  0  0  0
  154.5475  137.1805  156.5456 H   0  0  0  0  0  0  0  0  0  0  0  0
  151.4101  136.4754  155.8389 H   0  0  0  0  0  0  0  0  0  0  0  0
  149.9875  137.3567  153.2477 H   0  0  0  0  0  0  0  0  0  0  0  0
  148.0906  137.2300  152.6878 H   0  0  0  0  0  0  0  0  0  0  0  0
  145.8632  137.7880  154.2960 H   0  0  0  0  0  0  0  0  0  0  0  0
  146.1543  139.2184  153.3365 H   0  0  0  0  0  0  0  0  0  0  0  0
  144.5418  137.6230  152.2469 H   0  0  0  0  0  0  0  0  0  0  0  0
  145.8976  137.9991  151.2129 H   0  0  0  0  0  0  0  0  0  0  0  0
  144.1967  135.4339  150.9693 H   0  0  0  0  0  0  0  0  0  0  0  0
  145.5112  135.9482  149.9357 H   0  0  0  0  0  0  0  0  0  0  0  0
  145.2305  133.4811  149.8486 H   0  0  0  0  0  0  0  0  0  0  0  0
  146.8113  133.9278  150.4353 H   0  0  0  0  0  0  0  0  0  0  0  0
  144.4219  133.0365  152.1163 H   0  0  0  0  0  0  0  0  0  0  0  0
  145.8898  132.1277  151.8630 H   0  0  0  0  0  0  0  0  0  0  0  0
  145.7342  133.3224  154.0822 H   0  0  0  0  0  0  0  0  0  0  0  0
  148.1257  134.2170  152.4113 H   0  0  0  0  0  0  0  0  0  0  0  0
  147.9546  132.6639  153.2225 H   0  0  0  0  0  0  0  0  0  0  0  0
  148.0424  134.1441  154.1664 H   0  0  0  0  0  0  0  0  0  0  0  0
  146.1368  135.7929  154.1212 H   0  0  0  0  0  0  0  0  0  0  0  0
  144.5736  135.3422  153.4787 H   0  0  0  0  0  0  0  0  0  0  0  0
  146.9286  135.9790  151.8800 H   0  0  0  0  0  0  0  0  0  0  0  0
  1  2  1  0  0  0  0
  1 20  1  0  0  0  0
  1 21  1  0  0  0  0
  1 22  1  0  0  0  0
  2 19  1  0  0  0  0
  2  3  2  0  0  0  0
  3  4  1  0  0  0  0
  3 23  1  0  0  0  0
  4  5  1  0  0  0  0
  4 18  2  0  0  0  0
  5  6  1  0  0  0  0
  5 24  1  0  0  0  0
  6  7  2  0  0  0  0
  6  8  1  0  0  0  0
  8  9  1  0  0  0  0
  8 25  1  0  0  0  0
  9 10  1  0  0  0  0
  9 26  1  0  0  0  0
  9 27  1  0  0  0  0
 10 11  1  0  0  0  0
 10 28  1  0  0  0  0
 10 29  1  0  0  0  0
 11 17  1  0  0  0  0
 11 12  1  0  0  0  0
 11 42  1  0  0  0  0
 12 13  1  0  0  0  0
 12 30  1  0  0  0  0
 12 31  1  0  0  0  0
 13 14  1  0  0  0  0
 13 32  1  0  0  0  0
 13 33  1  0  0  0  0
 14 15  1  0  0  0  0
 14 34  1  0  0  0  0
 14 35  1  0  0  0  0
 15 16  1  0  0  0  0
 15 17  1  0  0  0  0
 15 36  1  0  0  0  0
 16 37  1  0  0  0  0
 16 38  1  0  0  0  0
 16 39  1  0  0  0  0
 17 40  1  0  0  0  0
 17 41  1  0  0  0  0
 18 19  1  0  0  0  0
M  CHG  1  11   1
M  END
> <s_m_source_file>
AV-unprocessed.smi

> <i_m_source_file_index>
2078

> <i_lp_mmshare_version>
43012

> <i_f3d_flags>
0

> <s_epik_input>
W0NIM11jMVtjSF1jKG5vMSlbTkhdQyg9TylbTkhdW0NIMl1bQ0gyXU4yW0NIMl1bQ0gyXVtDSDJdW0NAQEhdKFtDSDNdKVtDSDJdMg==

> <s_epik_cmdline>
J2VwaWtfcHl0aG9uJywgJy1waCcsICc3LjAnLCAnLXRuJywgJzgnLCAnLW1hJywgJzIwMCcsICctbWV0YWxfYmluZGluZycsICctaW1hZScsICc8aW5maWxlLm1hZT4nLCAnLW9tYWUnLCAnPG91dGZpbGUubWFlPic=

> <r_epik_Ionization_Penalty>
0.00216453

> <r_epik_Ionization_Penalty_Charging>
0.00212879

> <r_epik_Ionization_Penalty_Neutral>
3.57418e-05

> <r_epik_State_Penalty>
0.00146033

> <r_epik_Charging_Adjusted_Penalty>
0.00358912

> <i_epik_Tot_Q>
1

> <i_epik_Tot_abs_Q>
1

> <r_epik_Metal_State_Penalty>
0.0215827

> <b_epik_Metal_Only>
0

> <s_lp_Force_Field>
OPLS_2005

> <r_lp_Energy>
15.3902

> <b_lp_Chiralities_Consistent>
1

> <s_lp_Variant>
AV-unprocessed.smi:2078-2

> <Gold.Version>
5.8.1

> <Gold.Id.Protein>
6NUR|6NUR_protein|mol2

> <Gold.PLP.Fitness>
42.0153

> <Gold.PLP.PLP>
-25.8634

> <Gold.PLP.part.hbond>
-5.0000

> <Gold.PLP.part.metal>
0.0000

> <Gold.PLP.part.buried>
-1.7403

> <Gold.PLP.part.nonpolar>
-19.7707

> <Gold.PLP.part.repulsive>
0.2209

> <Gold.PLP.ligand.clash>
0.0000

> <Gold.PLP.ligand.torsion>
0.7404

> <Gold.PLP.Chemscore.Hbond>
5.8723

> <Gold.PLP.Chemscore.CHOScore>
0.0000

> <Gold.PLP.Chemscore.Metal>
0.0000

> <Gold.Chemscore.Hbonds>
donor molecule, donor type, donor heavy atom, donor atom, acceptor molecule, acceptor atom, score
      L1  H     5    24       P1  7948  0.88
      L1  H     8    25       P1  7948  1.00
      L1  H    11    42       P1  7948  2.00
      P1  H  7989  7998       L1    18  1.00
      P1  H  7997  8010       L1    19  1.00

> <Gold.PLP.Chemscore.Internal.Correction>
0.0158

> <Gold.Rescore>
     Score         DG    S(hbond)    S(metal)    S(lipo)     H(rot)  DE(clash)    DE(int)     intcor
     20.06     -21.25       3.99        0.00      55.38       1.57       0.48       0.70       ----

> <Gold.Chemscore.Fitness>
20.0649

> <Gold.Chemscore.DG>
-21.2519

> <Gold.Chemscore.ZeroCoef>
-5.4800

> <Gold.Chemscore.Hbond>
3.9855

> <Gold.Chemscore.Metal>
0.0000

> <Gold.Chemscore.Lipo>
55.3753

> <Gold.Chemscore.Internal_Hbond>
0.0000

> <Gold.Chemscore.DEClash>
0.4836

> <Gold.Chemscore.DEInternal>
0.7033

> <Gold.Chemscore.Rot>
1.5697

> <Gold.Chemscore.Internal.Correction>
   9.000000E+99

> <Gold.Chemscore.Hbonds>
donor molecule, donor type, donor heavy atom, donor atom, acceptor molecule, acceptor atom, score
      L1  H     5    24       P1  7948  0.25
      L1  H     8    25       P1  7948  0.95
      L1  H    11    42       P1  7948  0.95
      P1  H  7989  7998       L1    18  0.93
      P1  H  7997  8010       L1    19  0.30

> <Gold.Chemscore.Hbond.Weighted>
-13.3114

> <Gold.Chemscore.Metal.Weighted>
-0.0000

> <Gold.Chemscore.Lipo.Weighted>
-6.4789

> <Gold.Chemscore.Internal_Hbond.Weighted>
0.0000

> <Gold.Chemscore.DEClash.Weighted>
0.4836

> <Gold.Chemscore.DEInternal.Weighted>
0.7033

> <Gold.Chemscore.Rot.Weighted>
4.0185

> <Gold.Chemscore.Internal.Correction.Weighted>
   9.000000E+99

> <Gold.Protein.RotatedTorsions>
[ 6907 6896 6895 6894 ] final  178.56 input  -60.11 | X-H torsion
[ 7974 7965 7964 7962 ] final  -95.18 input  175.53 | X-H torsion
[ 8008 7997 7996 7995 ] final   87.24 input   59.86 | X-H torsion
[ 10167 10162 10161 10158 ] final  157.00 input  -65.29 | X-H torsion
[ 10718 10713 10712 10709 ] final  113.65 input   66.30 | X-H torsion
[ 10763 10752 10751 10750 ] final   98.50 input  -60.55 | X-H torsion
[ 11005 11000 10999 10996 ] final  -81.05 input  -57.11 | X-H torsion

> <Gold.Protein.ActiveResidues>
 VAL166  LYS551  ARG553  GLY616  TRP617  ASP618  TYR619  PRO620  LYS621  CYS622 
 ASP623  PHE694  ASN695  SER759  ASP760  ASP761  ALA762  ILE779  LEU786  VAL792 
 PHE793  MET794  SER795  GLU796  ALA797  LYS798  CYS799  TRP800  GLU811  SER814 

> <Gold.Protein.RotatedAtoms>
  151.6858  133.3311  159.3230 H   0  0  0  0  0  0  0  0  0  0  0  0  # atno 6907 bound_to 6896
  150.7802  134.6741  159.6417 H   0  0  0  0  0  0  0  0  0  0  0  0  # atno 6908 bound_to 6896
  152.3856  134.6525  160.0179 H   0  0  0  0  0  0  0  0  0  0  0  0  # atno 6909 bound_to 6896
  145.3634  140.9495  143.2488 H   0  0  0  0  0  0  0  0  0  0  0  0  # atno 7974 bound_to 7965
  155.9729  140.3384  155.6592 H   0  0  0  0  0  0  0  0  0  0  0  0  # atno 8008 bound_to 7997
  155.6650  140.0720  157.2558 H   0  0  0  0  0  0  0  0  0  0  0  0  # atno 8009 bound_to 7997
  154.4171  140.1702  156.1805 H   0  0  0  0  0  0  0  0  0  0  0  0  # atno 8010 bound_to 7997
  139.4822  144.4958  151.8242 H   0  0  0  0  0  0  0  0  0  0  0  0  # atno 10167 bound_to 10162
  157.6326  131.0987  150.7072 H   0  0  0  0  0  0  0  0  0  0  0  0  # atno 10718 bound_to 10713
  153.2898  135.4146  155.1156 H   0  0  0  0  0  0  0  0  0  0  0  0  # atno 10763 bound_to 10752
  154.8517  135.3515  154.5997 H   0  0  0  0  0  0  0  0  0  0  0  0  # atno 10764 bound_to 10752
  153.6419  135.7056  153.5296 H   0  0  0  0  0  0  0  0  0  0  0  0  # atno 10765 bound_to 10752
  141.1667  133.7178  156.8364 H   0  0  0  0  0  0  0  0  0  0  0  0  # atno 11005 bound_to 11000
  144.8629  139.5150  143.6803 LP  0  0  0  0  0  0  0  0  0  0  0  0  # atno 17320 bound_to 7965
  146.2917  139.7159  142.9156 LP  0  0  0  0  0  0  0  0  0  0  0  0  # atno 17321 bound_to 7965
  140.4446  144.1939  150.5893 LP  0  0  0  0  0  0  0  0  0  0  0  0  # atno 17342 bound_to 10162
  140.4648  143.2435  151.9170 LP  0  0  0  0  0  0  0  0  0  0  0  0  # atno 17343 bound_to 10162
  156.7409  130.4738  149.5478 LP  0  0  0  0  0  0  0  0  0  0  0  0  # atno 17370 bound_to 10713
  156.1541  130.6329  151.0633 LP  0  0  0  0  0  0  0  0  0  0  0  0  # atno 17371 bound_to 10713
  140.2014  134.8894  157.3173 LP  0  0  0  0  0  0  0  0  0  0  0  0  # atno 17394 bound_to 11000
  140.2183  134.4054  155.7578 LP  0  0  0  0  0  0  0  0  0  0  0  0  # atno 17395 bound_to 11000

$$$$
