AV-unprocessed.smi:1871|AV-procd|sdf|7602|dock4
  -GOLD-   22720 9323D 1   1.00000     0.00000
 Structure written by MMmdl.
 41 43  0  0  0  0  0  0  0  0  2 V2000
  148.9609  142.1183  154.7363 O   0  0  0  0  0  0  0  0  0  0  0  0
  149.6318  141.1858  155.5576 C   0  0  0  0  0  0  0  0  0  0  0  0
  150.4126  141.8266  156.6616 C   0  0  0  0  0  0  0  0  0  0  0  0
  150.4396  143.1569  156.9610 N   0  3  0  0  0  0  0  0  0  0  0  0
  151.2862  143.3829  158.0463 C   0  0  0  0  0  0  0  0  0  0  0  0
  151.6319  144.5592  158.7038 C   0  0  0  0  0  0  0  0  0  0  0  0
  152.5308  144.4393  159.7841 C   0  0  0  0  0  0  0  0  0  0  0  0
  153.0481  143.1865  160.1733 C   0  0  0  0  0  0  0  0  0  0  0  0
  152.6906  142.0008  159.4980 C   0  0  0  0  0  0  0  0  0  0  0  0
  151.8023  142.1290  158.4306 C   0  0  0  0  0  0  0  0  0  0  0  0
  151.2422  141.2001  157.5468 N   0  0  0  0  0  0  0  0  0  0  0  0
  151.6050  139.7800  157.6778 C   0  0  0  0  0  0  0  0  0  0  0  0
  151.8302  139.0945  156.3145 C   0  0  1  0  0  0  0  0  0  0  0  0
  153.2198  138.9128  156.1382 O   0  0  0  0  0  0  0  0  0  0  0  0
  151.0546  137.7906  156.1912 C   0  0  0  0  0  0  0  0  0  0  0  0
  151.0311  137.0761  154.9744 C   0  0  0  0  0  0  0  0  0  0  0  0
  150.3327  135.8571  154.8811 C   0  0  0  0  0  0  0  0  0  0  0  0
  149.6434  135.3371  155.9951 C   0  0  0  0  0  0  0  0  0  0  0  0
  148.9954  134.1320  155.8449 O   0  0  0  0  0  0  0  0  0  0  0  0
  149.6003  133.1317  155.1504 C   0  0  0  0  0  0  0  0  0  0  0  0
  150.5109  132.5120  155.9396 F   0  0  0  0  0  0  0  0  0  0  0  0
  148.6901  132.2021  154.7690 F   0  0  0  0  0  0  0  0  0  0  0  0
  149.6773  136.0500  157.2176 C   0  0  0  0  0  0  0  0  0  0  0  0
  150.3750  137.2692  157.3117 C   0  0  0  0  0  0  0  0  0  0  0  0
  149.1770  142.9897  155.0328 H   0  0  0  0  0  0  0  0  0  0  0  0
  148.8968  140.5018  155.9824 H   0  0  0  0  0  0  0  0  0  0  0  0
  150.3073  140.5967  154.9380 H   0  0  0  0  0  0  0  0  0  0  0  0
  151.2366  145.5196  158.4066 H   0  0  0  0  0  0  0  0  0  0  0  0
  152.8291  145.3256  160.3253 H   0  0  0  0  0  0  0  0  0  0  0  0
  153.7335  143.1334  161.0069 H   0  0  0  0  0  0  0  0  0  0  0  0
  153.0931  141.0461  159.8029 H   0  0  0  0  0  0  0  0  0  0  0  0
  152.5007  139.7177  158.2976 H   0  0  0  0  0  0  0  0  0  0  0  0
  150.8141  139.2762  158.2340 H   0  0  0  0  0  0  0  0  0  0  0  0
  151.5070  139.7637  155.5164 H   0  0  0  0  0  0  0  0  0  0  0  0
  153.3556  138.3107  155.4222 H   0  0  0  0  0  0  0  0  0  0  0  0
  151.5567  137.4544  154.1097 H   0  0  0  0  0  0  0  0  0  0  0  0
  150.3261  135.3163  153.9460 H   0  0  0  0  0  0  0  0  0  0  0  0
  150.1238  133.5099  154.2720 H   0  0  0  0  0  0  0  0  0  0  0  0
  149.1786  135.6681  158.0960 H   0  0  0  0  0  0  0  0  0  0  0  0
  150.3973  137.7973  158.2539 H   0  0  0  0  0  0  0  0  0  0  0  0
  149.9116  143.8552  156.4531 H   0  0  0  0  0  0  0  0  0  0  0  0
  1  2  1  0  0  0  0
  1 25  1  0  0  0  0
  2  3  1  0  0  0  0
  2 26  1  0  0  0  0
  2 27  1  0  0  0  0
  3 11  1  0  0  0  0
  3  4  2  0  0  0  0
  4  5  1  0  0  0  0
  4 41  1  0  0  0  0
  5 10  2  0  0  0  0
  5  6  1  0  0  0  0
  6  7  2  0  0  0  0
  6 28  1  0  0  0  0
  7  8  1  0  0  0  0
  7 29  1  0  0  0  0
  8  9  2  0  0  0  0
  8 30  1  0  0  0  0
  9 10  1  0  0  0  0
  9 31  1  0  0  0  0
 10 11  1  0  0  0  0
 11 12  1  0  0  0  0
 12 13  1  0  0  0  0
 12 32  1  0  0  0  0
 12 33  1  0  0  0  0
 13 14  1  0  0  0  0
 13 15  1  0  0  0  0
 13 34  1  0  0  0  0
 14 35  1  0  0  0  0
 15 24  1  0  0  0  0
 15 16  2  0  0  0  0
 16 17  1  0  0  0  0
 16 36  1  0  0  0  0
 17 18  2  0  0  0  0
 17 37  1  0  0  0  0
 18 19  1  0  0  0  0
 18 23  1  0  0  0  0
 19 20  1  0  0  0  0
 20 21  1  0  0  0  0
 20 22  1  0  0  0  0
 20 38  1  0  0  0  0
 23 24  2  0  0  0  0
 23 39  1  0  0  0  0
 24 40  1  0  0  0  0
M  CHG  1   4   1
M  END
> <s_m_source_file>
AV-unprocessed.smi

> <i_m_source_file_index>
1871

> <i_lp_mmshare_version>
43012

> <i_f3d_flags>
0

> <s_epik_input>
W2NIXTFbY0hdW2NIXVtjSF1jKGMxMiluKGMobjIpW0NIMl1bT0hdKVtDSDJdW0NASF0oW09IXSljM1tjSF1bY0hdYyhPW0NIXShGKUYpW2NIXVtjSF0z

> <s_epik_cmdline>
J2VwaWtfcHl0aG9uJywgJy1waCcsICc3LjAnLCAnLXRuJywgJzgnLCAnLW1hJywgJzIwMCcsICctbWV0YWxfYmluZGluZycsICctaW1hZScsICc8aW5maWxlLm1hZT4nLCAnLW9tYWUnLCAnPG91dGZpbGUubWFlPic=

> <r_lp_tautomer_probability>
1

> <r_epik_Ionization_Penalty>
1.35642

> <r_epik_Ionization_Penalty_Charging>
1.35557

> <r_epik_Ionization_Penalty_Neutral>
0.000856035

> <r_epik_State_Penalty>
1.43401

> <r_epik_Charging_Adjusted_Penalty>
2.78958

> <i_epik_Tot_Q>
1

> <i_epik_Tot_abs_Q>
1

> <r_epik_Metal_State_Penalty>
5.47166

> <b_epik_Metal_Only>
0

> <s_lp_Force_Field>
OPLS_2005

> <r_lp_Energy>
14.8195

> <b_lp_Chiralities_Consistent>
1

> <s_lp_Variant>
AV-unprocessed.smi:1871-4

> <Gold.Version>
5.8.1

> <Gold.Id.Protein>
6NUR|6NUR_protein|mol2

> <Gold.PLP.Fitness>
57.3260

> <Gold.PLP.PLP>
-47.9854

> <Gold.PLP.part.hbond>
-3.7579

> <Gold.PLP.part.metal>
0.0000

> <Gold.PLP.part.buried>
-6.1265

> <Gold.PLP.part.nonpolar>
-39.4223

> <Gold.PLP.part.repulsive>
0.0710

> <Gold.PLP.ligand.clash>
0.0000

> <Gold.PLP.ligand.torsion>
1.4429

> <Gold.PLP.Chemscore.Hbond>
4.0499

> <Gold.PLP.Chemscore.CHOScore>
0.0000

> <Gold.PLP.Chemscore.Metal>
0.0000

> <Gold.Chemscore.Hbonds>
donor molecule, donor type, donor heavy atom, donor atom, acceptor molecule, acceptor atom, score
      L1  H     1    25       P1  8028  1.00
      L1  H     4    41       P1  8028  2.00
      P1  H  7997  8009       L1    14  1.00

> <Gold.PLP.Chemscore.Internal.Correction>
0.0768

> <Gold.Rescore>
     Score         DG    S(hbond)    S(metal)    S(lipo)     H(rot)  DE(clash)    DE(int)     intcor
     19.15     -20.33       2.93        0.00     117.06       3.37       0.00       1.18       ----

> <Gold.Chemscore.Fitness>
19.1541

> <Gold.Chemscore.DG>
-20.3329

> <Gold.Chemscore.ZeroCoef>
-5.4800

> <Gold.Chemscore.Hbond>
2.9260

> <Gold.Chemscore.Metal>
0.0000

> <Gold.Chemscore.Lipo>
117.0644

> <Gold.Chemscore.Internal_Hbond>
0.0000

> <Gold.Chemscore.DEClash>
0.0024

> <Gold.Chemscore.DEInternal>
1.1764

> <Gold.Chemscore.Rot>
3.3659

> <Gold.Chemscore.Internal.Correction>
   9.000000E+99

> <Gold.Chemscore.Hbonds>
donor molecule, donor type, donor heavy atom, donor atom, acceptor molecule, acceptor atom, score
      L1  H     1    25       P1  8028  0.99
      L1  H     4    41       P1  8028  0.95
      P1  H  7997  8009       L1    14  0.88

> <Gold.Chemscore.Hbond.Weighted>
-9.7730

> <Gold.Chemscore.Metal.Weighted>
-0.0000

> <Gold.Chemscore.Lipo.Weighted>
-13.6965

> <Gold.Chemscore.Internal_Hbond.Weighted>
0.0000

> <Gold.Chemscore.DEClash.Weighted>
0.0024

> <Gold.Chemscore.DEInternal.Weighted>
1.1764

> <Gold.Chemscore.Rot.Weighted>
8.6167

> <Gold.Chemscore.Internal.Correction.Weighted>
   9.000000E+99

> <Gold.Protein.RotatedTorsions>
[ 6907 6896 6895 6894 ] final   48.34 input  -60.11 | X-H torsion
[ 7974 7965 7964 7962 ] final   78.54 input  175.53 | X-H torsion
[ 8008 7997 7996 7995 ] final -159.00 input   59.86 | X-H torsion
[ 10167 10162 10161 10158 ] final   66.20 input  -65.29 | X-H torsion
[ 10718 10713 10712 10709 ] final  -34.77 input   66.30 | X-H torsion
[ 10763 10752 10751 10750 ] final   85.41 input  -60.55 | X-H torsion
[ 11005 11000 10999 10996 ] final  -63.83 input  -57.11 | X-H torsion

> <Gold.Protein.ActiveResidues>
 VAL166  LYS551  ARG553  GLY616  TRP617  ASP618  TYR619  PRO620  LYS621  CYS622 
 ASP623  PHE694  ASN695  SER759  ASP760  ASP761  ALA762  ILE779  LEU786  VAL792 
 PHE793  MET794  SER795  GLU796  ALA797  LYS798  CYS799  TRP800  GLU811  SER814 

> <Gold.Protein.RotatedAtoms>
  152.2784  134.7856  160.0401 H   0  0  0  0  0  0  0  0  0  0  0  0  # atno 6907 bound_to 6896
  151.8444  133.3424  159.3661 H   0  0  0  0  0  0  0  0  0  0  0  0  # atno 6908 bound_to 6896
  150.7179  134.5288  159.5734 H   0  0  0  0  0  0  0  0  0  0  0  0  # atno 6909 bound_to 6896
  145.6758  139.2509  143.1842 H   0  0  0  0  0  0  0  0  0  0  0  0  # atno 7974 bound_to 7965
  155.7560  140.0833  157.2178 H   0  0  0  0  0  0  0  0  0  0  0  0  # atno 8008 bound_to 7997
  154.4008  140.1552  156.2834 H   0  0  0  0  0  0  0  0  0  0  0  0  # atno 8009 bound_to 7997
  155.8885  140.3416  155.5942 H   0  0  0  0  0  0  0  0  0  0  0  0  # atno 8010 bound_to 7997
  140.1030  144.4887  150.7025 H   0  0  0  0  0  0  0  0  0  0  0  0  # atno 10167 bound_to 10162
  156.3465  130.4301  149.7741 H   0  0  0  0  0  0  0  0  0  0  0  0  # atno 10718 bound_to 10713
  153.1472  135.4618  154.9584 H   0  0  0  0  0  0  0  0  0  0  0  0  # atno 10763 bound_to 10752
  154.7796  135.3184  154.8021 H   0  0  0  0  0  0  0  0  0  0  0  0  # atno 10764 bound_to 10752
  153.8533  135.6919  153.4844 H   0  0  0  0  0  0  0  0  0  0  0  0  # atno 10765 bound_to 10752
  141.1406  133.6657  156.5740 H   0  0  0  0  0  0  0  0  0  0  0  0  # atno 11005 bound_to 11000
  146.1006  140.7548  142.9551 LP  0  0  0  0  0  0  0  0  0  0  0  0  # atno 17320 bound_to 7965
  144.7042  140.3782  143.7131 LP  0  0  0  0  0  0  0  0  0  0  0  0  # atno 17321 bound_to 7965
  140.6967  143.2408  151.4980 LP  0  0  0  0  0  0  0  0  0  0  0  0  # atno 17342 bound_to 10162
  139.5661  144.2040  152.1766 LP  0  0  0  0  0  0  0  0  0  0  0  0  # atno 17343 bound_to 10162
  156.4958  130.8106  151.3113 LP  0  0  0  0  0  0  0  0  0  0  0  0  # atno 17370 bound_to 10713
  157.7455  130.9961  150.2767 LP  0  0  0  0  0  0  0  0  0  0  0  0  # atno 17371 bound_to 10713
  140.3890  134.7457  157.4709 LP  0  0  0  0  0  0  0  0  0  0  0  0  # atno 17394 bound_to 11000
  140.0580  134.6036  155.8782 LP  0  0  0  0  0  0  0  0  0  0  0  0  # atno 17395 bound_to 11000

$$$$
