AV-unprocessed.smi:3347|AV-procd|sdf|12911|dock9
  -GOLD-   2272019323D 1   1.00000     0.00000
 Structure written by MMmdl.
 40 42  0  0  0  0  0  0  0  0  2 V2000
  149.9544  135.2781  156.2947 O   0  0  0  0  0  0  0  0  0  0  0  0
  149.6329  135.6167  155.1564 C   0  0  0  0  0  0  0  0  0  0  0  0
  148.9906  134.8071  154.3022 N   0  0  0  0  0  0  0  0  0  0  0  0
  148.5478  133.4469  154.5941 C   0  0  0  0  0  0  0  0  0  0  0  0
  148.0244  132.7224  153.3392 C   0  0  2  0  0  0  0  0  0  0  0  0
  146.8342  133.4183  152.6819 C   0  0  0  0  0  0  0  0  0  0  0  0
  146.1604  132.3174  151.8539 C   0  0  0  0  0  0  0  0  0  0  0  0
  146.6221  131.0232  152.4077 N   0  3  2  0  0  0  0  0  0  0  0  0
  145.5361  130.0581  152.6806 C   0  0  0  0  0  0  0  0  0  0  0  0
  146.0232  128.6439  152.8865 C   0  0  0  0  0  0  0  0  0  0  0  0
  145.3502  129.0331  151.5877 C   0  0  0  0  0  0  0  0  0  0  0  0
  147.4715  131.3158  153.5804 C   0  0  0  0  0  0  0  0  0  0  0  0
  149.8648  136.8180  154.5995 N   0  0  0  0  0  0  0  0  0  0  0  0
  150.4772  137.9728  155.1608 C   0  0  0  0  0  0  0  0  0  0  0  0
  150.9922  138.0614  156.4778 C   0  0  0  0  0  0  0  0  0  0  0  0
  151.5774  139.2711  156.8993 C   0  0  0  0  0  0  0  0  0  0  0  0
  151.6311  140.3463  155.9918 C   0  0  0  0  0  0  0  0  0  0  0  0
  151.1515  140.2750  154.7327 N   0  0  0  0  0  0  0  0  0  0  0  0
  150.5919  139.1126  154.3358 C   0  0  0  0  0  0  0  0  0  0  0  0
  148.7650  135.1700  153.3873 H   0  0  0  0  0  0  0  0  0  0  0  0
  149.3475  132.8730  155.0658 H   0  0  0  0  0  0  0  0  0  0  0  0
  147.7481  133.5145  155.3323 H   0  0  0  0  0  0  0  0  0  0  0  0
  148.8280  132.6567  152.6035 H   0  0  0  0  0  0  0  0  0  0  0  0
  146.1406  133.7723  153.4465 H   0  0  0  0  0  0  0  0  0  0  0  0
  147.1283  134.2776  152.0781 H   0  0  0  0  0  0  0  0  0  0  0  0
  145.0741  132.4178  151.8803 H   0  0  0  0  0  0  0  0  0  0  0  0
  146.4706  132.3739  150.8101 H   0  0  0  0  0  0  0  0  0  0  0  0
  144.6793  130.4346  153.2370 H   0  0  0  0  0  0  0  0  0  0  0  0
  147.0957  128.4593  152.8615 H   0  0  0  0  0  0  0  0  0  0  0  0
  145.4590  128.0142  153.5714 H   0  0  0  0  0  0  0  0  0  0  0  0
  144.3427  128.6587  151.4171 H   0  0  0  0  0  0  0  0  0  0  0  0
  145.9751  129.1071  150.6995 H   0  0  0  0  0  0  0  0  0  0  0  0
  148.2567  130.5683  153.6972 H   0  0  0  0  0  0  0  0  0  0  0  0
  146.8616  131.3067  154.4856 H   0  0  0  0  0  0  0  0  0  0  0  0
  149.5147  136.9388  153.6604 H   0  0  0  0  0  0  0  0  0  0  0  0
  150.9611  137.2375  157.1722 H   0  0  0  0  0  0  0  0  0  0  0  0
  151.9780  139.3719  157.8972 H   0  0  0  0  0  0  0  0  0  0  0  0
  152.0731  141.2874  156.2839 H   0  0  0  0  0  0  0  0  0  0  0  0
  150.2202  139.0929  153.3216 H   0  0  0  0  0  0  0  0  0  0  0  0
  147.2248  130.6139  151.7083 H   0  0  0  0  0  0  0  0  0  0  0  0
  1  2  2  0  0  0  0
  2  3  1  0  0  0  0
  2 13  1  0  0  0  0
  3  4  1  0  0  0  0
  3 20  1  0  0  0  0
  4  5  1  0  0  0  0
  4 21  1  0  0  0  0
  4 22  1  0  0  0  0
  5 12  1  0  0  0  0
  5  6  1  0  0  0  0
  5 23  1  0  0  0  0
  6  7  1  0  0  0  0
  6 24  1  0  0  0  0
  6 25  1  0  0  0  0
  7  8  1  0  0  0  0
  7 26  1  0  0  0  0
  7 27  1  0  0  0  0
  8  9  1  0  0  0  0
  8 12  1  0  0  0  0
  8 40  1  0  0  0  0
  9 11  1  0  0  0  0
  9 10  1  0  0  0  0
  9 28  1  0  0  0  0
 10 11  1  0  0  0  0
 10 29  1  0  0  0  0
 10 30  1  0  0  0  0
 11 31  1  0  0  0  0
 11 32  1  0  0  0  0
 12 33  1  0  0  0  0
 12 34  1  0  0  0  0
 13 14  1  0  0  0  0
 13 35  1  0  0  0  0
 14 19  1  0  0  0  0
 14 15  2  0  0  0  0
 15 16  1  0  0  0  0
 15 36  1  0  0  0  0
 16 17  2  0  0  0  0
 16 37  1  0  0  0  0
 17 18  1  0  0  0  0
 17 38  1  0  0  0  0
 18 19  2  0  0  0  0
 19 39  1  0  0  0  0
M  CHG  1   8   1
M  END
> <s_m_source_file>
AV-unprocessed.smi

> <i_m_source_file_index>
3347

> <i_lp_mmshare_version>
43012

> <i_f3d_flags>
0

> <s_epik_input>
W2NIXTFuW2NIXVtjSF1bY0hdYzFbTkhdQyg9TylbTkhdW0NIMl1bQ0BASF0yW0NIMl1bQ0gyXU4oW0NIMl0yKVtDSF0zW0NIMl1bQ0gyXTM=

> <s_epik_cmdline>
J2VwaWtfcHl0aG9uJywgJy1waCcsICc3LjAnLCAnLXRuJywgJzgnLCAnLW1hJywgJzIwMCcsICctbWV0YWxfYmluZGluZycsICctaW1hZScsICc8aW5maWxlLm1hZT4nLCAnLW9tYWUnLCAnPG91dGZpbGUubWFlPic=

> <r_epik_Ionization_Penalty>
0.00442629

> <r_epik_Ionization_Penalty_Charging>
0.000203384

> <r_epik_Ionization_Penalty_Neutral>
0.00422291

> <r_epik_State_Penalty>
0.00301008

> <r_epik_Charging_Adjusted_Penalty>
0.00321347

> <i_epik_Tot_Q>
1

> <i_epik_Tot_abs_Q>
1

> <r_epik_Metal_State_Penalty>
-0

> <b_epik_Metal_Only>
0

> <s_lp_Force_Field>
OPLS_2005

> <r_lp_Energy>
39.8414

> <b_lp_Chiralities_Consistent>
1

> <s_lp_Variant>
AV-unprocessed.smi:3347-1

> <Gold.Version>
5.8.1

> <Gold.Id.Protein>
6NUR|6NUR_protein|mol2

> <Gold.PLP.Fitness>
50.0314

> <Gold.PLP.PLP>
-35.3058

> <Gold.PLP.part.hbond>
-4.2241

> <Gold.PLP.part.metal>
0.0000

> <Gold.PLP.part.buried>
-3.9719

> <Gold.PLP.part.nonpolar>
-27.0114

> <Gold.PLP.part.repulsive>
0.1933

> <Gold.PLP.ligand.clash>
0.0000

> <Gold.PLP.ligand.torsion>
0.6924

> <Gold.PLP.Chemscore.Hbond>
3.9513

> <Gold.PLP.Chemscore.CHOScore>
0.9992

> <Gold.PLP.Chemscore.Metal>
0.0000

> <Gold.Chemscore.Hbonds>
donor molecule, donor type, donor heavy atom, donor atom, acceptor molecule, acceptor atom, score
      L1  H     3    20       P1  7948  1.00
      L1  H     8    40       P1 10747  0.40
      L1  H    13    35       P1  7948  1.00
      P1  H  7989  7998       L1    18  0.80
      L1  C    19    39       P1  7957  1.00

> <Gold.PLP.Chemscore.Internal.Correction>
1.2589

> <Gold.Rescore>
     Score         DG    S(hbond)    S(metal)    S(lipo)     H(rot)  DE(clash)    DE(int)     intcor
     17.62     -19.69       2.35        0.00      85.48       1.42       0.09       1.97       ----

> <Gold.Chemscore.Fitness>
17.6238

> <Gold.Chemscore.DG>
-19.6876

> <Gold.Chemscore.ZeroCoef>
-5.4800

> <Gold.Chemscore.Hbond>
2.3494

> <Gold.Chemscore.Metal>
0.0000

> <Gold.Chemscore.Lipo>
85.4757

> <Gold.Chemscore.Internal_Hbond>
0.0000

> <Gold.Chemscore.DEClash>
0.0909

> <Gold.Chemscore.DEInternal>
1.9730

> <Gold.Chemscore.Rot>
1.4219

> <Gold.Chemscore.Internal.Correction>
   9.000000E+99

> <Gold.Chemscore.Hbonds>
donor molecule, donor type, donor heavy atom, donor atom, acceptor molecule, acceptor atom, score
      L1  H     3    20       P1  7948  0.69
      L1  H     8    40       P1 10747  0.39
      L1  H    13    35       P1  7948  0.83
      P1  H  7989  7998       L1    18  0.35

> <Gold.Chemscore.Hbond.Weighted>
-7.8471

> <Gold.Chemscore.Metal.Weighted>
-0.0000

> <Gold.Chemscore.Lipo.Weighted>
-10.0007

> <Gold.Chemscore.Internal_Hbond.Weighted>
0.0000

> <Gold.Chemscore.DEClash.Weighted>
0.0909

> <Gold.Chemscore.DEInternal.Weighted>
1.9730

> <Gold.Chemscore.Rot.Weighted>
3.6401

> <Gold.Chemscore.Internal.Correction.Weighted>
   9.000000E+99

> <Gold.Protein.RotatedTorsions>
[ 6907 6896 6895 6894 ] final   98.65 input  -60.11 | X-H torsion
[ 7974 7965 7964 7962 ] final   -3.53 input  175.53 | X-H torsion
[ 8008 7997 7996 7995 ] final -130.84 input   59.86 | X-H torsion
[ 10167 10162 10161 10158 ] final  -40.81 input  -65.29 | X-H torsion
[ 10718 10713 10712 10709 ] final   -4.10 input   66.30 | X-H torsion
[ 10763 10752 10751 10750 ] final  -50.47 input  -60.55 | X-H torsion
[ 11005 11000 10999 10996 ] final  159.15 input  -57.11 | X-H torsion

> <Gold.Protein.ActiveResidues>
 VAL166  LYS551  ARG553  GLY616  TRP617  ASP618  TYR619  PRO620  LYS621  CYS622 
 ASP623  PHE694  ASN695  SER759  ASP760  ASP761  ALA762  ILE779  LEU786  VAL792 
 PHE793  MET794  SER795  GLU796  ALA797  LYS798  CYS799  TRP800  GLU811  SER814 

> <Gold.Protein.RotatedAtoms>
  152.5405  134.0548  159.8125 H   0  0  0  0  0  0  0  0  0  0  0  0  # atno 6907 bound_to 6896
  151.0684  133.5478  159.2636 H   0  0  0  0  0  0  0  0  0  0  0  0  # atno 6908 bound_to 6896
  151.2351  135.0576  159.9057 H   0  0  0  0  0  0  0  0  0  0  0  0  # atno 6909 bound_to 6896
  146.2388  140.1736  142.8332 H   0  0  0  0  0  0  0  0  0  0  0  0  # atno 7974 bound_to 7965
  155.3024  140.0453  157.3030 H   0  0  0  0  0  0  0  0  0  0  0  0  # atno 8008 bound_to 7997
  154.5479  140.2308  155.8499 H   0  0  0  0  0  0  0  0  0  0  0  0  # atno 8009 bound_to 7997
  156.1941  140.3043  155.9398 H   0  0  0  0  0  0  0  0  0  0  0  0  # atno 8010 bound_to 7997
  140.7023  143.3131  151.2977 H   0  0  0  0  0  0  0  0  0  0  0  0  # atno 10167 bound_to 10162
  156.7663  130.5286  149.5775 H   0  0  0  0  0  0  0  0  0  0  0  0  # atno 10718 bound_to 10713
  154.1109  135.6549  153.4885 H   0  0  0  0  0  0  0  0  0  0  0  0  # atno 10763 bound_to 10752
  153.0257  135.5247  154.7193 H   0  0  0  0  0  0  0  0  0  0  0  0  # atno 10764 bound_to 10752
  154.6372  135.2983  155.0116 H   0  0  0  0  0  0  0  0  0  0  0  0  # atno 10765 bound_to 10752
  140.1934  134.8391  157.2937 H   0  0  0  0  0  0  0  0  0  0  0  0  # atno 11005 bound_to 11000
  144.9992  140.8616  143.5292 LP  0  0  0  0  0  0  0  0  0  0  0  0  # atno 17320 bound_to 7965
  145.1753  139.2382  143.5321 LP  0  0  0  0  0  0  0  0  0  0  0  0  # atno 17321 bound_to 7965
  139.6561  144.0274  152.2660 LP  0  0  0  0  0  0  0  0  0  0  0  0  # atno 17342 bound_to 10162
  139.9826  144.6418  150.7887 LP  0  0  0  0  0  0  0  0  0  0  0  0  # atno 17343 bound_to 10162
  156.1306  130.6175  151.0328 LP  0  0  0  0  0  0  0  0  0  0  0  0  # atno 17370 bound_to 10713
  157.6711  131.0861  150.7609 LP  0  0  0  0  0  0  0  0  0  0  0  0  # atno 17371 bound_to 10713
  140.2134  134.4110  155.7601 LP  0  0  0  0  0  0  0  0  0  0  0  0  # atno 17394 bound_to 11000
  141.2226  133.7130  156.8375 LP  0  0  0  0  0  0  0  0  0  0  0  0  # atno 17395 bound_to 11000

$$$$
