AV-unprocessed.smi:2823|AV-procd|sdf|10885|dock1
  -GOLD-   2272015323D 1   1.00000     0.00000
 Structure written by MMmdl.
 41 42  0  0  0  0  0  0  0  0  2 V2000
  144.5234  134.8967  162.7410 C   0  0  0  0  0  0  0  0  0  0  0  0
  145.7485  135.1690  161.9369 C   0  0  0  0  0  0  0  0  0  0  0  0
  146.5566  134.1892  161.5605 N   0  0  0  0  0  0  0  0  0  0  0  0
  147.5543  134.8601  160.8396 O   0  0  0  0  0  0  0  0  0  0  0  0
  147.2345  136.1801  160.8683 C   0  0  0  0  0  0  0  0  0  0  0  0
  148.0004  137.0981  160.2561 N   0  5  0  0  0  0  0  0  0  0  0  0
  148.9295  136.7068  159.3553 C   0  0  0  0  0  0  0  0  0  0  0  0
  149.0515  135.5762  158.8796 O   0  0  0  0  0  0  0  0  0  0  0  0
  149.7629  137.6884  158.9801 N   0  0  0  0  0  0  0  0  0  0  0  0
  150.8549  137.5897  158.0093 C   0  0  0  0  0  0  0  0  0  0  0  0
  150.7278  138.6196  156.8436 C   0  0  0  0  0  0  0  0  0  0  0  0
  150.5471  140.0883  157.3577 C   0  0  0  0  0  0  0  0  0  0  0  0
  149.5714  140.7275  156.9555 O   0  0  0  0  0  0  0  0  0  0  0  0
  151.4344  140.6765  158.2059 N   0  0  0  0  0  0  0  0  0  0  0  0
  151.2699  142.0922  158.5509 C   0  0  0  0  0  0  0  0  0  0  0  0
  152.6004  140.0702  158.8568 C   0  0  0  0  0  0  0  0  0  0  0  0
  151.9935  138.4890  155.9498 C   0  0  0  0  0  0  0  0  0  0  0  0
  151.6191  138.9893  154.5506 C   0  0  0  0  0  0  0  0  0  0  0  0
  150.1021  138.8205  154.4494 C   0  0  0  0  0  0  0  0  0  0  0  0
  149.6419  138.2551  155.8003 C   0  0  0  0  0  0  0  0  0  0  0  0
  146.1050  136.4185  161.5364 N   0  0  0  0  0  0  0  0  0  0  0  0
  144.6643  134.0189  163.3727 H   0  0  0  0  0  0  0  0  0  0  0  0
  143.6743  134.7180  162.0813 H   0  0  0  0  0  0  0  0  0  0  0  0
  144.2916  135.7474  163.3825 H   0  0  0  0  0  0  0  0  0  0  0  0
  149.6168  138.5945  159.4002 H   0  0  0  0  0  0  0  0  0  0  0  0
  151.7749  137.7827  158.5617 H   0  0  0  0  0  0  0  0  0  0  0  0
  150.9674  136.5654  157.6636 H   0  0  0  0  0  0  0  0  0  0  0  0
  150.3362  142.2508  159.0926 H   0  0  0  0  0  0  0  0  0  0  0  0
  151.2540  142.7088  157.6506 H   0  0  0  0  0  0  0  0  0  0  0  0
  152.0808  142.4651  159.1781 H   0  0  0  0  0  0  0  0  0  0  0  0
  152.6671  138.9900  158.7906 H   0  0  0  0  0  0  0  0  0  0  0  0
  152.5977  140.3072  159.9212 H   0  0  0  0  0  0  0  0  0  0  0  0
  153.5167  140.4802  158.4319 H   0  0  0  0  0  0  0  0  0  0  0  0
  152.8705  139.0019  156.3474 H   0  0  0  0  0  0  0  0  0  0  0  0
  152.2784  137.4391  155.8657 H   0  0  0  0  0  0  0  0  0  0  0  0
  151.8856  140.0406  154.4375 H   0  0  0  0  0  0  0  0  0  0  0  0
  152.1462  138.4342  153.7741 H   0  0  0  0  0  0  0  0  0  0  0  0
  149.6360  139.7898  154.2672 H   0  0  0  0  0  0  0  0  0  0  0  0
  149.8184  138.1629  153.6271 H   0  0  0  0  0  0  0  0  0  0  0  0
  149.5589  137.1702  155.7233 H   0  0  0  0  0  0  0  0  0  0  0  0
  148.6451  138.6273  156.0267 H   0  0  0  0  0  0  0  0  0  0  0  0
  1  2  1  0  0  0  0
  1 22  1  0  0  0  0
  1 23  1  0  0  0  0
  1 24  1  0  0  0  0
  2 21  1  0  0  0  0
  2  3  2  0  0  0  0
  3  4  1  0  0  0  0
  4  5  1  0  0  0  0
  5  6  1  0  0  0  0
  5 21  2  0  0  0  0
  6  7  1  0  0  0  0
  7  8  2  0  0  0  0
  7  9  1  0  0  0  0
  9 10  1  0  0  0  0
  9 25  1  0  0  0  0
 10 11  1  0  0  0  0
 10 26  1  0  0  0  0
 10 27  1  0  0  0  0
 11 20  1  0  0  0  0
 11 12  1  0  0  0  0
 11 17  1  0  0  0  0
 12 13  2  0  0  0  0
 12 14  1  0  0  0  0
 14 15  1  0  0  0  0
 14 16  1  0  0  0  0
 15 28  1  0  0  0  0
 15 29  1  0  0  0  0
 15 30  1  0  0  0  0
 16 31  1  0  0  0  0
 16 32  1  0  0  0  0
 16 33  1  0  0  0  0
 17 18  1  0  0  0  0
 17 34  1  0  0  0  0
 17 35  1  0  0  0  0
 18 19  1  0  0  0  0
 18 36  1  0  0  0  0
 18 37  1  0  0  0  0
 19 20  1  0  0  0  0
 19 38  1  0  0  0  0
 19 39  1  0  0  0  0
 20 40  1  0  0  0  0
 20 41  1  0  0  0  0
M  CHG  1   6  -1
M  END
> <s_m_source_file>
AV-unprocessed.smi

> <i_m_source_file_index>
2823

> <i_lp_mmshare_version>
43012

> <i_f3d_flags>
0

> <s_epik_input>
W0NIM11jMW5vYyhuMSlbTkhdQyg9TylbTkhdW0NIMl1DMihDKD1PKU4oW0NIM10pW0NIM10pW0NIMl1bQ0gyXVtDSDJdW0NIMl0y

> <s_epik_cmdline>
J2VwaWtfcHl0aG9uJywgJy1waCcsICc3LjAnLCAnLXRuJywgJzgnLCAnLW1hJywgJzIwMCcsICctbWV0YWxfYmluZGluZycsICctaW1hZScsICc8aW5maWxlLm1hZT4nLCAnLW9tYWUnLCAnPG91dGZpbGUubWFlPic=

> <r_lp_tautomer_probability>
1

> <r_epik_Ionization_Penalty>
6.03325

> <r_epik_Ionization_Penalty_Charging>
6.03318

> <r_epik_Ionization_Penalty_Neutral>
6.91426e-05

> <r_epik_State_Penalty>
6.03316

> <r_epik_Charging_Adjusted_Penalty>
12.0663

> <i_epik_Tot_Q>
-1

> <i_epik_Tot_abs_Q>
1

> <r_epik_Metal_State_Penalty>
1.98358

> <b_epik_Metal_Only>
1

> <s_lp_Force_Field>
OPLS_2005

> <r_lp_Energy>
29.6758

> <b_lp_Chiralities_Consistent>
1

> <s_lp_Variant>
AV-unprocessed.smi:2823-2

> <Gold.Version>
5.8.1

> <Gold.Id.Protein>
6NUR|6NUR_protein|mol2

> <Gold.PLP.Fitness>
40.4570

> <Gold.PLP.PLP>
-29.4747

> <Gold.PLP.part.hbond>
-3.0000

> <Gold.PLP.part.metal>
0.0000

> <Gold.PLP.part.buried>
-5.9267

> <Gold.PLP.part.nonpolar>
-21.4543

> <Gold.PLP.part.repulsive>
0.4113

> <Gold.PLP.ligand.clash>
0.0000

> <Gold.PLP.ligand.torsion>
0.2430

> <Gold.PLP.Chemscore.Hbond>
3.7350

> <Gold.PLP.Chemscore.CHOScore>
0.0000

> <Gold.PLP.Chemscore.Metal>
0.0000

> <Gold.Chemscore.Hbonds>
donor molecule, donor type, donor heavy atom, donor atom, acceptor molecule, acceptor atom, score
      P1  H  6896  6909       L1     8  1.00
      P1  H  6931  6943       L1     6  0.63
      P1  H  6934  6947       L1     6  0.92

> <Gold.PLP.Chemscore.Internal.Correction>
0.2633

> <Gold.Rescore>
     Score         DG    S(hbond)    S(metal)    S(lipo)     H(rot)  DE(clash)    DE(int)     intcor
     10.66     -12.73       1.75        0.00      49.52       1.71       0.16       1.91       ----

> <Gold.Chemscore.Fitness>
10.6574

> <Gold.Chemscore.DG>
-12.7312

> <Gold.Chemscore.ZeroCoef>
-5.4800

> <Gold.Chemscore.Hbond>
1.7508

> <Gold.Chemscore.Metal>
0.0000

> <Gold.Chemscore.Lipo>
49.5182

> <Gold.Chemscore.Internal_Hbond>
0.0000

> <Gold.Chemscore.DEClash>
0.1596

> <Gold.Chemscore.DEInternal>
1.9142

> <Gold.Chemscore.Rot>
1.7149

> <Gold.Chemscore.Internal.Correction>
   9.000000E+99

> <Gold.Chemscore.Hbonds>
donor molecule, donor type, donor heavy atom, donor atom, acceptor molecule, acceptor atom, score
      P1  H  6896  6909       L1     8  0.65
      P1  H  6931  6943       L1     6  0.12
      P1  H  6934  6947       L1     6  0.23

> <Gold.Chemscore.Hbond.Weighted>
-5.8477

> <Gold.Chemscore.Metal.Weighted>
-0.0000

> <Gold.Chemscore.Lipo.Weighted>
-5.7936

> <Gold.Chemscore.Internal_Hbond.Weighted>
0.0000

> <Gold.Chemscore.DEClash.Weighted>
0.1596

> <Gold.Chemscore.DEInternal.Weighted>
1.9142

> <Gold.Chemscore.Rot.Weighted>
4.3901

> <Gold.Chemscore.Internal.Correction.Weighted>
   9.000000E+99

> <Gold.Protein.RotatedTorsions>
[ 6907 6896 6895 6894 ] final   59.98 input  -60.11 | X-H torsion
[ 7974 7965 7964 7962 ] final  -73.37 input  175.53 | X-H torsion
[ 8008 7997 7996 7995 ] final   34.76 input   59.86 | X-H torsion
[ 10167 10162 10161 10158 ] final -163.19 input  -65.29 | X-H torsion
[ 10718 10713 10712 10709 ] final  109.66 input   66.30 | X-H torsion
[ 10763 10752 10751 10750 ] final   56.12 input  -60.55 | X-H torsion
[ 11005 11000 10999 10996 ] final  117.46 input  -57.11 | X-H torsion

> <Gold.Protein.ActiveResidues>
 VAL166  LYS551  ARG553  GLY616  TRP617  ASP618  TYR619  PRO620  LYS621  CYS622 
 ASP623  PHE694  ASN695  SER759  ASP760  ASP761  ALA762  ILE779  LEU786  VAL792 
 PHE793  MET794  SER795  GLU796  ALA797  LYS798  CYS799  TRP800  GLU811  SER814 

> <Gold.Protein.RotatedAtoms>
  152.3963  134.6360  160.0087 H   0  0  0  0  0  0  0  0  0  0  0  0  # atno 6907 bound_to 6896
  151.6579  133.3312  159.3175 H   0  0  0  0  0  0  0  0  0  0  0  0  # atno 6908 bound_to 6896
  150.7870  134.6906  159.6539 H   0  0  0  0  0  0  0  0  0  0  0  0  # atno 6909 bound_to 6896
  145.6530  140.9277  143.0974 H   0  0  0  0  0  0  0  0  0  0  0  0  # atno 7974 bound_to 7965
  155.1601  140.3282  155.4413 H   0  0  0  0  0  0  0  0  0  0  0  0  # atno 8008 bound_to 7997
  156.2545  140.1961  156.6659 H   0  0  0  0  0  0  0  0  0  0  0  0  # atno 8009 bound_to 7997
  154.6411  140.0570  156.9833 H   0  0  0  0  0  0  0  0  0  0  0  0  # atno 8010 bound_to 7997
  139.6339  144.0388  152.2038 H   0  0  0  0  0  0  0  0  0  0  0  0  # atno 10167 bound_to 10162
  157.6531  131.0918  150.6486 H   0  0  0  0  0  0  0  0  0  0  0  0  # atno 10718 bound_to 10713
  152.9827  135.5687  154.5177 H   0  0  0  0  0  0  0  0  0  0  0  0  # atno 10763 bound_to 10752
  154.4671  135.2783  155.1672 H   0  0  0  0  0  0  0  0  0  0  0  0  # atno 10764 bound_to 10752
  154.3236  135.6264  153.5572 H   0  0  0  0  0  0  0  0  0  0  0  0  # atno 10765 bound_to 10752
  139.9075  134.9610  156.7354 H   0  0  0  0  0  0  0  0  0  0  0  0  # atno 11005 bound_to 11000
  144.7116  139.8351  143.7413 LP  0  0  0  0  0  0  0  0  0  0  0  0  # atno 17320 bound_to 7965
  146.1188  139.4203  143.0241 LP  0  0  0  0  0  0  0  0  0  0  0  0  # atno 17321 bound_to 7965
  140.0060  144.6259  150.7688 LP  0  0  0  0  0  0  0  0  0  0  0  0  # atno 17342 bound_to 10162
  140.7454  143.2875  151.3422 LP  0  0  0  0  0  0  0  0  0  0  0  0  # atno 17343 bound_to 10162
  156.6795  130.4563  149.5632 LP  0  0  0  0  0  0  0  0  0  0  0  0  # atno 17370 bound_to 10713
  156.1939  130.6577  151.1092 LP  0  0  0  0  0  0  0  0  0  0  0  0  # atno 17371 bound_to 10713
  140.6892  133.9405  155.7956 LP  0  0  0  0  0  0  0  0  0  0  0  0  # atno 17394 bound_to 11000
  141.0454  134.0561  157.3850 LP  0  0  0  0  0  0  0  0  0  0  0  0  # atno 17395 bound_to 11000

$$$$
