AV-unprocessed.smi:1215|AV-procd|sdf|5096|dock7
  -GOLD-   22720 4143D 1   1.00000     0.00000
 Structure written by MMmdl.
 46 47  0  0  0  0  0  0  0  0  2 V2000
  149.9542  142.6470  158.3366 C   0  0  0  0  0  0  0  0  0  0  0  0
  151.1093  142.4255  157.3528 C   0  0  0  0  0  0  0  0  0  0  0  0
  150.7825  141.4239  156.3566 N   0  0  0  0  0  0  0  0  0  0  0  0
  149.7696  141.4521  155.4184 C   0  0  0  0  0  0  0  0  0  0  0  0
  149.8817  140.2838  154.7187 C   0  0  0  0  0  0  0  0  0  0  0  0
  149.0962  139.8005  153.6418 N   0  0  0  0  0  0  0  0  0  0  0  0
  147.9210  139.1546  153.7155 C   0  0  0  0  0  0  0  0  0  0  0  0
  147.3258  138.8810  154.7581 O   0  0  0  0  0  0  0  0  0  0  0  0
  147.4633  138.8306  152.4978 N   0  0  0  0  0  0  0  0  0  0  0  0
  146.2133  138.1262  152.2373 C   0  0  0  0  0  0  0  0  0  0  0  0
  146.0184  136.9427  153.2061 C   0  0  0  0  0  0  0  0  0  0  0  0
  146.4004  135.6295  152.6190 N   0  3  2  0  0  0  0  0  0  0  0  0
  145.5083  135.2426  151.4922 C   0  0  0  0  0  0  0  0  0  0  0  0
  146.0400  134.0041  150.7535 C   0  0  0  0  0  0  0  0  0  0  0  0
  146.2414  132.8308  151.7177 C   0  0  0  0  0  0  0  0  0  0  0  0
  147.1499  133.2608  152.8775 C   0  0  0  0  0  0  0  0  0  0  0  0
  146.6203  134.5186  153.5989 C   0  0  2  0  0  0  0  0  0  0  0  0
  145.3871  134.2117  154.4753 C   0  0  0  0  0  0  0  0  0  0  0  0
  150.9857  139.5965  155.2875 C   0  0  0  0  0  0  0  0  0  0  0  0
  151.5241  140.2912  156.2779 N   0  0  0  0  0  0  0  0  0  0  0  0
  150.2216  143.3909  159.0872 H   0  0  0  0  0  0  0  0  0  0  0  0
  149.6997  141.7241  158.8582 H   0  0  0  0  0  0  0  0  0  0  0  0
  149.0594  143.0002  157.8230 H   0  0  0  0  0  0  0  0  0  0  0  0
  151.3609  143.3579  156.8452 H   0  0  0  0  0  0  0  0  0  0  0  0
  152.0034  142.1054  157.8891 H   0  0  0  0  0  0  0  0  0  0  0  0
  149.0834  142.2825  155.3406 H   0  0  0  0  0  0  0  0  0  0  0  0
  149.4730  139.9592  152.7187 H   0  0  0  0  0  0  0  0  0  0  0  0
  148.0155  139.0961  151.6950 H   0  0  0  0  0  0  0  0  0  0  0  0
  145.3725  138.8192  152.3011 H   0  0  0  0  0  0  0  0  0  0  0  0
  146.2580  137.7796  151.2055 H   0  0  0  0  0  0  0  0  0  0  0  0
  146.5566  137.1142  154.1385 H   0  0  0  0  0  0  0  0  0  0  0  0
  144.9631  136.8940  153.4777 H   0  0  0  0  0  0  0  0  0  0  0  0
  144.4973  135.0621  151.8586 H   0  0  0  0  0  0  0  0  0  0  0  0
  145.4365  136.0676  150.7826 H   0  0  0  0  0  0  0  0  0  0  0  0
  145.3496  133.7189  149.9590 H   0  0  0  0  0  0  0  0  0  0  0  0
  146.9868  134.2457  150.2688 H   0  0  0  0  0  0  0  0  0  0  0  0
  145.2778  132.4916  152.0989 H   0  0  0  0  0  0  0  0  0  0  0  0
  146.6812  131.9839  151.1903 H   0  0  0  0  0  0  0  0  0  0  0  0
  147.2670  132.4386  153.5845 H   0  0  0  0  0  0  0  0  0  0  0  0
  148.1479  133.4658  152.4875 H   0  0  0  0  0  0  0  0  0  0  0  0
  147.4191  134.8245  154.2737 H   0  0  0  0  0  0  0  0  0  0  0  0
  145.5940  133.3820  155.1515 H   0  0  0  0  0  0  0  0  0  0  0  0
  144.5148  133.9354  153.8839 H   0  0  0  0  0  0  0  0  0  0  0  0
  145.1115  135.0613  155.0997 H   0  0  0  0  0  0  0  0  0  0  0  0
  151.4056  138.6376  155.0215 H   0  0  0  0  0  0  0  0  0  0  0  0
  147.3022  135.7868  152.1919 H   0  0  0  0  0  0  0  0  0  0  0  0
  1  2  1  0  0  0  0
  1 21  1  0  0  0  0
  1 22  1  0  0  0  0
  1 23  1  0  0  0  0
  2  3  1  0  0  0  0
  2 24  1  0  0  0  0
  2 25  1  0  0  0  0
  3 20  1  0  0  0  0
  3  4  1  0  0  0  0
  4  5  2  0  0  0  0
  4 26  1  0  0  0  0
  5  6  1  0  0  0  0
  5 19  1  0  0  0  0
  6  7  1  0  0  0  0
  6 27  1  0  0  0  0
  7  8  2  0  0  0  0
  7  9  1  0  0  0  0
  9 10  1  0  0  0  0
  9 28  1  0  0  0  0
 10 11  1  0  0  0  0
 10 29  1  0  0  0  0
 10 30  1  0  0  0  0
 11 12  1  0  0  0  0
 11 31  1  0  0  0  0
 11 32  1  0  0  0  0
 12 17  1  0  0  0  0
 12 13  1  0  0  0  0
 12 46  1  0  0  0  0
 13 14  1  0  0  0  0
 13 33  1  0  0  0  0
 13 34  1  0  0  0  0
 14 15  1  0  0  0  0
 14 35  1  0  0  0  0
 14 36  1  0  0  0  0
 15 16  1  0  0  0  0
 15 37  1  0  0  0  0
 15 38  1  0  0  0  0
 16 17  1  0  0  0  0
 16 39  1  0  0  0  0
 16 40  1  0  0  0  0
 17 18  1  0  0  0  0
 17 41  1  0  0  0  0
 18 42  1  0  0  0  0
 18 43  1  0  0  0  0
 18 44  1  0  0  0  0
 19 20  2  0  0  0  0
 19 45  1  0  0  0  0
M  CHG  1  12   1
M  END
> <s_m_source_file>
AV-unprocessed.smi

> <i_m_source_file_index>
1215

> <i_lp_mmshare_version>
43012

> <i_f3d_flags>
0

> <s_epik_input>
W0NIM11bQ0gyXW4xW2NIXWMoW2NIXW4xKVtOSF1DKD1PKVtOSF1bQ0gyXVtDSDJdTjJbQ0gyXVtDSDJdW0NIMl1bQ0gyXVtDQEhdMltDSDNd

> <s_epik_cmdline>
J2VwaWtfcHl0aG9uJywgJy1waCcsICc3LjAnLCAnLXRuJywgJzgnLCAnLW1hJywgJzIwMCcsICctbWV0YWxfYmluZGluZycsICctaW1hZScsICc8aW5maWxlLm1hZT4nLCAnLW9tYWUnLCAnPG91dGZpbGUubWFlPic=

> <r_lp_tautomer_probability>
1

> <r_epik_Ionization_Penalty>
0.00247187

> <r_epik_Ionization_Penalty_Charging>
0.00232067

> <r_epik_Ionization_Penalty_Neutral>
0.000151201

> <r_epik_State_Penalty>
0.00160128

> <r_epik_Charging_Adjusted_Penalty>
0.00392194

> <i_epik_Tot_Q>
1

> <i_epik_Tot_abs_Q>
1

> <r_epik_Metal_State_Penalty>
-0

> <b_epik_Metal_Only>
0

> <s_lp_Force_Field>
OPLS_2005

> <r_lp_Energy>
24.1958

> <b_lp_Chiralities_Consistent>
1

> <s_lp_Variant>
AV-unprocessed.smi:1215-3

> <Gold.Version>
5.8.1

> <Gold.Id.Protein>
6NUR|6NUR_protein|mol2

> <Gold.PLP.Fitness>
47.4711

> <Gold.PLP.PLP>
-35.0659

> <Gold.PLP.part.hbond>
-3.9564

> <Gold.PLP.part.metal>
0.0000

> <Gold.PLP.part.buried>
-2.7038

> <Gold.PLP.part.nonpolar>
-28.9216

> <Gold.PLP.part.repulsive>
0.3053

> <Gold.PLP.ligand.clash>
0.0000

> <Gold.PLP.ligand.torsion>
1.2000

> <Gold.PLP.Chemscore.Hbond>
3.9120

> <Gold.PLP.Chemscore.CHOScore>
1.0000

> <Gold.PLP.Chemscore.Metal>
0.0000

> <Gold.Chemscore.Hbonds>
donor molecule, donor type, donor heavy atom, donor atom, acceptor molecule, acceptor atom, score
      L1  H     6    27       P1  7957  1.00
      L1  H     9    28       P1  7957  0.90
      L1  H    12    46       P1  7948  2.00
      L1  C     4    26       P1  8028  1.00

> <Gold.PLP.Chemscore.Internal.Correction>
0.0692

> <Gold.Rescore>
     Score         DG    S(hbond)    S(metal)    S(lipo)     H(rot)  DE(clash)    DE(int)     intcor
     17.16     -19.80       2.94        0.00      73.27       1.59       0.01       2.63       ----

> <Gold.Chemscore.Fitness>
17.1611

> <Gold.Chemscore.DG>
-19.7998

> <Gold.Chemscore.ZeroCoef>
-5.4800

> <Gold.Chemscore.Hbond>
2.9400

> <Gold.Chemscore.Metal>
0.0000

> <Gold.Chemscore.Lipo>
73.2722

> <Gold.Chemscore.Internal_Hbond>
0.0000

> <Gold.Chemscore.DEClash>
0.0075

> <Gold.Chemscore.DEInternal>
2.6313

> <Gold.Chemscore.Rot>
1.5909

> <Gold.Chemscore.Internal.Correction>
   9.000000E+99

> <Gold.Chemscore.Hbonds>
donor molecule, donor type, donor heavy atom, donor atom, acceptor molecule, acceptor atom, score
      L1  H     6    27       P1  7957  0.97
      L1  H     9    28       P1  7957  0.83
      L1  H    12    46       P1  7948  1.00

> <Gold.Chemscore.Hbond.Weighted>
-9.8197

> <Gold.Chemscore.Metal.Weighted>
-0.0000

> <Gold.Chemscore.Lipo.Weighted>
-8.5729

> <Gold.Chemscore.Internal_Hbond.Weighted>
0.0000

> <Gold.Chemscore.DEClash.Weighted>
0.0075

> <Gold.Chemscore.DEInternal.Weighted>
2.6313

> <Gold.Chemscore.Rot.Weighted>
4.0728

> <Gold.Chemscore.Internal.Correction.Weighted>
   9.000000E+99

> <Gold.Protein.RotatedTorsions>
[ 6907 6896 6895 6894 ] final -139.41 input  -60.11 | X-H torsion
[ 7974 7965 7964 7962 ] final  -27.88 input  175.53 | X-H torsion
[ 8008 7997 7996 7995 ] final   25.63 input   59.86 | X-H torsion
[ 10167 10162 10161 10158 ] final  118.42 input  -65.29 | X-H torsion
[ 10718 10713 10712 10709 ] final  129.11 input   66.30 | X-H torsion
[ 10763 10752 10751 10750 ] final  131.01 input  -60.55 | X-H torsion
[ 11005 11000 10999 10996 ] final  144.70 input  -57.11 | X-H torsion

> <Gold.Protein.ActiveResidues>
 VAL166  LYS551  ARG553  GLY616  TRP617  ASP618  TYR619  PRO620  LYS621  CYS622 
 ASP623  PHE694  ASN695  SER759  ASP760  ASP761  ALA762  ILE779  LEU786  VAL792 
 PHE793  MET794  SER795  GLU796  ALA797  LYS798  CYS799  TRP800  GLU811  SER814 

> <Gold.Protein.RotatedAtoms>
  151.0474  133.5653  159.2645 H   0  0  0  0  0  0  0  0  0  0  0  0  # atno 6907 bound_to 6896
  151.2677  135.0674  159.9132 H   0  0  0  0  0  0  0  0  0  0  0  0  # atno 6908 bound_to 6896
  152.5375  134.0209  159.8035 H   0  0  0  0  0  0  0  0  0  0  0  0  # atno 6909 bound_to 6896
  146.1327  140.5210  142.8686 H   0  0  0  0  0  0  0  0  0  0  0  0  # atno 7974 bound_to 7965
  155.0147  140.3140  155.4816 H   0  0  0  0  0  0  0  0  0  0  0  0  # atno 8008 bound_to 7997
  156.2903  140.2208  156.5204 H   0  0  0  0  0  0  0  0  0  0  0  0  # atno 8009 bound_to 7997
  154.7504  140.0466  157.0876 H   0  0  0  0  0  0  0  0  0  0  0  0  # atno 8010 bound_to 7997
  139.6113  144.7082  151.2838 H   0  0  0  0  0  0  0  0  0  0  0  0  # atno 10167 bound_to 10162
  157.5183  131.1098  150.9191 H   0  0  0  0  0  0  0  0  0  0  0  0  # atno 10718 bound_to 10713
  153.7673  135.3187  155.3346 H   0  0  0  0  0  0  0  0  0  0  0  0  # atno 10763 bound_to 10752
  154.8209  135.4604  154.0778 H   0  0  0  0  0  0  0  0  0  0  0  0  # atno 10764 bound_to 10752
  153.2027  135.6925  153.8295 H   0  0  0  0  0  0  0  0  0  0  0  0  # atno 10765 bound_to 10752
  140.0653  134.9182  157.1253 H   0  0  0  0  0  0  0  0  0  0  0  0  # atno 11005 bound_to 11000
  144.7707  140.5631  143.6672 LP  0  0  0  0  0  0  0  0  0  0  0  0  # atno 17320 bound_to 7965
  145.5225  139.1476  143.3544 LP  0  0  0  0  0  0  0  0  0  0  0  0  # atno 17321 bound_to 7965
  140.7321  143.6834  150.7982 LP  0  0  0  0  0  0  0  0  0  0  0  0  # atno 17342 bound_to 10162
  140.0429  143.5328  152.2709 LP  0  0  0  0  0  0  0  0  0  0  0  0  # atno 17343 bound_to 10162
  156.9809  130.5527  149.5296 LP  0  0  0  0  0  0  0  0  0  0  0  0  # atno 17370 bound_to 10713
  156.0336  130.5425  150.8597 LP  0  0  0  0  0  0  0  0  0  0  0  0  # atno 17371 bound_to 10713
  140.3709  134.2392  155.7178 LP  0  0  0  0  0  0  0  0  0  0  0  0  # atno 17394 bound_to 11000
  141.1990  133.8022  157.0557 LP  0  0  0  0  0  0  0  0  0  0  0  0  # atno 17395 bound_to 11000

$$$$
