AV-unprocessed.smi:2972|AV-procd|sdf|11336|dock3
  -GOLD-   2272016243D 1   1.00000     0.00000
 Structure written by MMmdl.
 33 34  0  0  0  0  0  0  0  0  1 V2000
  147.0268  132.3457  153.4428 O   0  0  0  0  0  0  0  0  0  0  0  0
  147.4727  133.4584  153.1603 C   0  0  0  0  0  0  0  0  0  0  0  0
  148.5192  134.0526  153.7606 N   0  0  0  0  0  0  0  0  0  0  0  0
  149.3221  133.5547  154.8213 C   0  0  0  0  0  0  0  0  0  0  0  0
  149.4488  132.1476  154.8656 C   0  0  0  0  0  0  0  0  0  0  0  0
  150.2249  131.5530  155.8797 C   0  0  0  0  0  0  0  0  0  0  0  0
  150.8541  132.3835  156.8242 C   0  0  0  0  0  0  0  0  0  0  0  0
  151.8169  131.7138  158.0896 Cl  0  0  0  0  0  0  0  0  0  0  0  0
  150.6775  133.7749  156.7097 C   0  0  0  0  0  0  0  0  0  0  0  0
  149.9343  134.3458  155.7381 N   0  0  0  0  0  0  0  0  0  0  0  0
  146.9615  134.2368  152.1951 N   0  0  0  0  0  0  0  0  0  0  0  0
  145.8198  133.8946  151.3515 C   0  0  0  0  0  0  0  0  0  0  0  0
  144.5660  133.6324  152.2118 C   0  0  0  0  0  0  0  0  0  0  0  0
  143.3724  133.1946  151.3475 C   0  0  0  0  0  0  0  0  0  0  0  0
  143.7219  131.9653  150.4941 C   0  0  0  0  0  0  0  0  0  0  0  0
  144.9670  132.2253  149.6317 C   0  0  0  0  0  0  0  0  0  0  0  0
  146.1623  132.6609  150.4948 C   0  0  0  0  0  0  0  0  0  0  0  0
  148.7706  134.9682  153.4190 H   0  0  0  0  0  0  0  0  0  0  0  0
  148.9578  131.5253  154.1315 H   0  0  0  0  0  0  0  0  0  0  0  0
  150.3335  130.4796  155.9295 H   0  0  0  0  0  0  0  0  0  0  0  0
  151.1433  134.4483  157.4141 H   0  0  0  0  0  0  0  0  0  0  0  0
  147.3921  135.1350  152.0309 H   0  0  0  0  0  0  0  0  0  0  0  0
  145.6160  134.7281  150.6761 H   0  0  0  0  0  0  0  0  0  0  0  0
  144.7799  132.8584  152.9504 H   0  0  0  0  0  0  0  0  0  0  0  0
  144.2985  134.5284  152.7731 H   0  0  0  0  0  0  0  0  0  0  0  0
  142.5143  132.9743  151.9833 H   0  0  0  0  0  0  0  0  0  0  0  0
  143.0721  134.0176  150.6976 H   0  0  0  0  0  0  0  0  0  0  0  0
  143.8995  131.1075  151.1439 H   0  0  0  0  0  0  0  0  0  0  0  0
  142.8768  131.7016  149.8574 H   0  0  0  0  0  0  0  0  0  0  0  0
  145.2233  131.3275  149.0685 H   0  0  0  0  0  0  0  0  0  0  0  0
  144.7467  132.9998  148.8959 H   0  0  0  0  0  0  0  0  0  0  0  0
  147.0176  132.8764  149.8533 H   0  0  0  0  0  0  0  0  0  0  0  0
  146.4607  131.8331  151.1399 H   0  0  0  0  0  0  0  0  0  0  0  0
  1  2  2  0  0  0  0
  2  3  1  0  0  0  0
  2 11  1  0  0  0  0
  3  4  1  0  0  0  0
  3 18  1  0  0  0  0
  4 10  1  0  0  0  0
  4  5  2  0  0  0  0
  5  6  1  0  0  0  0
  5 19  1  0  0  0  0
  6  7  2  0  0  0  0
  6 20  1  0  0  0  0
  7  8  1  0  0  0  0
  7  9  1  0  0  0  0
  9 10  2  0  0  0  0
  9 21  1  0  0  0  0
 11 12  1  0  0  0  0
 11 22  1  0  0  0  0
 12 17  1  0  0  0  0
 12 13  1  0  0  0  0
 12 23  1  0  0  0  0
 13 14  1  0  0  0  0
 13 24  1  0  0  0  0
 13 25  1  0  0  0  0
 14 15  1  0  0  0  0
 14 26  1  0  0  0  0
 14 27  1  0  0  0  0
 15 16  1  0  0  0  0
 15 28  1  0  0  0  0
 15 29  1  0  0  0  0
 16 17  1  0  0  0  0
 16 30  1  0  0  0  0
 16 31  1  0  0  0  0
 17 32  1  0  0  0  0
 17 33  1  0  0  0  0
M  END
> <s_m_source_file>
AV-unprocessed.smi

> <i_m_source_file_index>
2972

> <i_lp_mmshare_version>
43012

> <i_f3d_flags>
0

> <s_epik_input>
W0NIMl0xW0NIMl1bQ0gyXVtDSDJdW0NIMl1bQ0hdMVtOSF1DKD1PKVtOSF1jMltjSF1bY0hdYyhDbClbY0hdbjI=

> <s_epik_cmdline>
J2VwaWtfcHl0aG9uJywgJy1waCcsICc3LjAnLCAnLXRuJywgJzgnLCAnLW1hJywgJzIwMCcsICctbWV0YWxfYmluZGluZycsICctaW1hZScsICc8aW5maWxlLm1hZT4nLCAnLW9tYWUnLCAnPG91dGZpbGUubWFlPic=

> <r_lp_tautomer_probability>
1

> <r_epik_Ionization_Penalty>
4.0409e-05

> <r_epik_Ionization_Penalty_Charging>
0

> <r_epik_Ionization_Penalty_Neutral>
4.0409e-05

> <r_epik_State_Penalty>
-0

> <r_epik_Charging_Adjusted_Penalty>
0

> <i_epik_Tot_Q>
0

> <i_epik_Tot_abs_Q>
0

> <r_epik_Metal_State_Penalty>
-0

> <b_epik_Metal_Only>
0

> <s_lp_Force_Field>
OPLS_2005

> <r_lp_Energy>
12.1461

> <b_lp_Chiralities_Consistent>
1

> <s_lp_Variant>
AV-unprocessed.smi:2972-1

> <Gold.Version>
5.8.1

> <Gold.Id.Protein>
6NUR|6NUR_protein|mol2

> <Gold.PLP.Fitness>
38.9475

> <Gold.PLP.PLP>
-33.5200

> <Gold.PLP.part.hbond>
-2.0000

> <Gold.PLP.part.metal>
0.0000

> <Gold.PLP.part.buried>
-5.2023

> <Gold.PLP.part.nonpolar>
-26.2456

> <Gold.PLP.part.repulsive>
0.1894

> <Gold.PLP.ligand.clash>
0.0000

> <Gold.PLP.ligand.torsion>
0.1919

> <Gold.PLP.Chemscore.Hbond>
1.9360

> <Gold.PLP.Chemscore.CHOScore>
0.0000

> <Gold.PLP.Chemscore.Metal>
0.0000

> <Gold.Chemscore.Hbonds>
donor molecule, donor type, donor heavy atom, donor atom, acceptor molecule, acceptor atom, score
      L1  H     3    18       P1  7948  0.96
      L1  H    11    22       P1  7948  0.99

> <Gold.PLP.Chemscore.Internal.Correction>
0.0032

> <Gold.Rescore>
     Score         DG    S(hbond)    S(metal)    S(lipo)     H(rot)  DE(clash)    DE(int)     intcor
     13.69     -16.50       1.35        0.00      77.61       1.00       0.11       2.70       ----

> <Gold.Chemscore.Fitness>
13.6873

> <Gold.Chemscore.DG>
-16.5019

> <Gold.Chemscore.ZeroCoef>
-5.4800

> <Gold.Chemscore.Hbond>
1.3479

> <Gold.Chemscore.Metal>
0.0000

> <Gold.Chemscore.Lipo>
77.6053

> <Gold.Chemscore.Internal_Hbond>
0.0000

> <Gold.Chemscore.DEClash>
0.1107

> <Gold.Chemscore.DEInternal>
2.7039

> <Gold.Chemscore.Rot>
1.0000

> <Gold.Chemscore.Internal.Correction>
   9.000000E+99

> <Gold.Chemscore.Hbonds>
donor molecule, donor type, donor heavy atom, donor atom, acceptor molecule, acceptor atom, score
      L1  H     3    18       P1  7948  0.50
      L1  H    11    22       P1  7948  0.92

> <Gold.Chemscore.Hbond.Weighted>
-4.5020

> <Gold.Chemscore.Metal.Weighted>
-0.0000

> <Gold.Chemscore.Lipo.Weighted>
-9.0798

> <Gold.Chemscore.Internal_Hbond.Weighted>
0.0000

> <Gold.Chemscore.DEClash.Weighted>
0.1107

> <Gold.Chemscore.DEInternal.Weighted>
2.7039

> <Gold.Chemscore.Rot.Weighted>
2.5600

> <Gold.Chemscore.Internal.Correction.Weighted>
   9.000000E+99

> <Gold.Protein.RotatedTorsions>
[ 6907 6896 6895 6894 ] final -153.22 input  -60.11 | X-H torsion
[ 7974 7965 7964 7962 ] final   29.56 input  175.53 | X-H torsion
[ 8008 7997 7996 7995 ] final -157.59 input   59.86 | X-H torsion
[ 10167 10162 10161 10158 ] final  -80.00 input  -65.29 | X-H torsion
[ 10718 10713 10712 10709 ] final   84.21 input   66.30 | X-H torsion
[ 10763 10752 10751 10750 ] final   46.20 input  -60.55 | X-H torsion
[ 11005 11000 10999 10996 ] final   67.19 input  -57.11 | X-H torsion

> <Gold.Protein.ActiveResidues>
 VAL166  LYS551  ARG553  GLY616  TRP617  ASP618  TYR619  PRO620  LYS621  CYS622 
 ASP623  PHE694  ASN695  SER759  ASP760  ASP761  ALA762  ILE779  LEU786  VAL792 
 PHE793  MET794  SER795  GLU796  ALA797  LYS798  CYS799  TRP800  GLU811  SER814 

> <Gold.Protein.RotatedAtoms>
  151.2393  133.4408  159.2606 H   0  0  0  0  0  0  0  0  0  0  0  0  # atno 6907 bound_to 6896
  151.0720  134.9805  159.8324 H   0  0  0  0  0  0  0  0  0  0  0  0  # atno 6908 bound_to 6896
  152.5413  134.2338  159.8888 H   0  0  0  0  0  0  0  0  0  0  0  0  # atno 6909 bound_to 6896
  146.1664  139.6906  142.8998 H   0  0  0  0  0  0  0  0  0  0  0  0  # atno 7974 bound_to 7965
  155.7347  140.0806  157.2273 H   0  0  0  0  0  0  0  0  0  0  0  0  # atno 8008 bound_to 7997
  154.4029  140.1589  156.2603 H   0  0  0  0  0  0  0  0  0  0  0  0  # atno 8009 bound_to 7997
  155.9076  140.3406  155.6077 H   0  0  0  0  0  0  0  0  0  0  0  0  # atno 8010 bound_to 7997
  140.4542  143.2473  151.8444 H   0  0  0  0  0  0  0  0  0  0  0  0  # atno 10167 bound_to 10162
  157.6894  131.0123  150.2638 H   0  0  0  0  0  0  0  0  0  0  0  0  # atno 10718 bound_to 10713
  152.9814  135.6015  154.3561 H   0  0  0  0  0  0  0  0  0  0  0  0  # atno 10763 bound_to 10752
  154.3247  135.2769  155.2504 H   0  0  0  0  0  0  0  0  0  0  0  0  # atno 10764 bound_to 10752
  154.4655  135.5955  153.6340 H   0  0  0  0  0  0  0  0  0  0  0  0  # atno 10765 bound_to 10752
  139.9786  134.6782  156.0306 H   0  0  0  0  0  0  0  0  0  0  0  0  # atno 11005 bound_to 11000
  145.4455  141.0425  143.2833 LP  0  0  0  0  0  0  0  0  0  0  0  0  # atno 17320 bound_to 7965
  144.8099  139.5981  143.7034 LP  0  0  0  0  0  0  0  0  0  0  0  0  # atno 17321 bound_to 7965
  139.4799  144.5084  151.8966 LP  0  0  0  0  0  0  0  0  0  0  0  0  # atno 17342 bound_to 10162
  140.4171  144.2293  150.5887 LP  0  0  0  0  0  0  0  0  0  0  0  0  # atno 17343 bound_to 10162
  156.3213  130.3786  149.7573 LP  0  0  0  0  0  0  0  0  0  0  0  0  # atno 17370 bound_to 10713
  156.5142  130.8186  151.3180 LP  0  0  0  0  0  0  0  0  0  0  0  0  # atno 17371 bound_to 10713
  141.1460  133.6556  156.3870 LP  0  0  0  0  0  0  0  0  0  0  0  0  # atno 17394 bound_to 11000
  140.5144  134.6365  157.5296 LP  0  0  0  0  0  0  0  0  0  0  0  0  # atno 17395 bound_to 11000

$$$$
