AV-unprocessed.smi:72|AV-procd|sdf|690|dock2
  -GOLD-   2262017 03D 1   1.00000     0.00000
 Structure written by MMmdl.
 29 30  0  0  0  0  0  0  0  0  1 V2000
  152.0216  136.4104  155.5238 N   0  0  0  0  0  0  0  0  0  0  0  0
  151.4544  137.5388  155.2883 C   0  0  0  0  0  0  0  0  0  0  0  0
  150.8194  137.8946  154.0900 N   0  0  0  0  0  0  0  0  0  0  0  0
  150.2559  139.0604  154.0082 C   0  0  0  0  0  0  0  0  0  0  0  0
  150.2182  139.9924  155.1304 N   0  0  0  0  0  0  0  0  0  0  0  0
  149.5893  141.3742  155.0020 C   0  0  1  0  0  0  0  0  0  0  0  0
  149.0542  141.5318  153.7153 O   0  0  0  0  0  0  0  0  0  0  0  0
  147.6297  141.4499  153.7180 C   0  0  1  0  0  0  0  0  0  0  0  0
  147.1609  139.9867  153.5442 C   0  0  0  0  0  0  0  0  0  0  0  0
  147.2476  139.6133  152.1857 O   0  0  0  0  0  0  0  0  0  0  0  0
  147.2960  142.0841  155.0720 C   0  0  1  0  0  0  0  0  0  0  0  0
  146.0213  141.7168  155.5622 O   0  0  0  0  0  0  0  0  0  0  0  0
  148.4129  141.5940  155.9845 C   0  0  2  0  0  0  0  0  0  0  0  0
  148.7044  142.5925  156.9417 O   0  0  0  0  0  0  0  0  0  0  0  0
  150.9528  139.6844  156.3054 C   0  0  0  0  0  0  0  0  0  0  0  0
  151.0808  140.4782  157.2367 O   0  0  0  0  0  0  0  0  0  0  0  0
  151.5113  138.4556  156.3439 N   0  0  0  0  0  0  0  0  0  0  0  0
  150.4225  142.0656  155.1404 H   0  0  0  0  0  0  0  0  0  0  0  0
  147.2191  142.0587  152.9112 H   0  0  0  0  0  0  0  0  0  0  0  0
  147.3409  143.1697  154.9664 H   0  0  0  0  0  0  0  0  0  0  0  0
  148.1342  140.6539  156.4634 H   0  0  0  0  0  0  0  0  0  0  0  0
  152.4106  136.4059  156.4561 H   0  0  0  0  0  0  0  0  0  0  0  0
  149.7772  139.4061  153.0918 H   0  0  0  0  0  0  0  0  0  0  0  0
  147.7168  139.2910  154.1705 H   0  0  0  0  0  0  0  0  0  0  0  0
  146.1117  139.8864  153.8222 H   0  0  0  0  0  0  0  0  0  0  0  0
  148.1493  139.6827  151.9118 H   0  0  0  0  0  0  0  0  0  0  0  0
  146.1386  141.2698  156.3867 H   0  0  0  0  0  0  0  0  0  0  0  0
  148.5244  143.4364  156.5546 H   0  0  0  0  0  0  0  0  0  0  0  0
  152.0174  138.1966  157.1780 H   0  0  0  0  0  0  0  0  0  0  0  0
  1  2  2  0  0  0  0
  1 22  1  0  0  0  0
  2 17  1  0  0  0  0
  2  3  1  0  0  0  0
  3  4  2  0  0  0  0
  4  5  1  0  0  0  0
  4 23  1  0  0  0  0
  5  6  1  0  0  0  0
  5 15  1  0  0  0  0
  6 18  1  0  0  0  0
  6 13  1  0  0  0  0
  6  7  1  0  0  0  0
  7  8  1  0  0  0  0
  8 19  1  0  0  0  0
  8  9  1  0  0  0  0
  8 11  1  0  0  0  0
  9 10  1  0  0  0  0
  9 24  1  0  0  0  0
  9 25  1  0  0  0  0
 10 26  1  0  0  0  0
 11 20  1  0  0  0  0
 11 12  1  0  0  0  0
 11 13  1  0  0  0  0
 12 27  1  0  0  0  0
 13 21  1  0  0  0  0
 13 14  1  0  0  0  0
 14 28  1  0  0  0  0
 15 16  2  0  0  0  0
 15 17  1  0  0  0  0
 17 29  1  0  0  0  0
M  END
> <s_m_source_file>
AV-unprocessed.smi

> <i_m_source_file_index>
72

> <i_lp_mmshare_version>
43012

> <i_f3d_flags>
0

> <s_epik_input>
W05IMl1jMW5bY0hdbihjKD1PKW4xKVtDQEBIXTJPW0NASF0oW0NIMl1bT0hdKVtDQEBIXShbT0hdKVtDQEhdMltPSF0=

> <s_epik_cmdline>
J2VwaWtfcHl0aG9uJywgJy1waCcsICc3LjAnLCAnLXRuJywgJzgnLCAnLW1hJywgJzIwMCcsICctbWV0YWxfYmluZGluZycsICctaW1hZScsICc8aW5maWxlLm1hZT4nLCAnLW9tYWUnLCAnPG91dGZpbGUubWFlPic=

> <r_lp_tautomer_probability>
7.17554e-07

> <r_epik_Ionization_Penalty>
0.0066451

> <r_epik_Ionization_Penalty_Charging>
0.00663793

> <r_epik_Ionization_Penalty_Neutral>
7.17052e-06

> <r_epik_State_Penalty>
0.419231

> <r_epik_Charging_Adjusted_Penalty>
0.425868

> <i_epik_Tot_Q>
0

> <i_epik_Tot_abs_Q>
0

> <r_epik_Metal_State_Penalty>
1.44144

> <b_epik_Metal_Only>
0

> <s_epik_Chemistry_Notes>
This compound contains an acetal/aminal-like group ( X-CH(R)-Y where X, Y are N, S, or O) that may be acid/base labile, releasing an aldehyde.

> <s_lp_Force_Field>
OPLS_2005

> <r_lp_Energy>
40.5406

> <b_lp_Chiralities_Consistent>
1

> <s_lp_Variant>
AV-unprocessed.smi:72-28

> <Gold.Version>
5.8.1

> <Gold.Id.Protein>
6NUR|6NUR_protein|mol2

> <Gold.PLP.Fitness>
39.5184

> <Gold.PLP.PLP>
-25.4558

> <Gold.PLP.part.hbond>
-4.6958

> <Gold.PLP.part.metal>
0.0000

> <Gold.PLP.part.buried>
-4.3191

> <Gold.PLP.part.nonpolar>
-18.0444

> <Gold.PLP.part.repulsive>
1.2669

> <Gold.PLP.ligand.clash>
0.0000

> <Gold.PLP.ligand.torsion>
0.1944

> <Gold.PLP.Chemscore.Hbond>
3.7840

> <Gold.PLP.Chemscore.CHOScore>
1.0000

> <Gold.PLP.Chemscore.Metal>
0.0000

> <Gold.Chemscore.Hbonds>
donor molecule, donor type, donor heavy atom, donor atom, acceptor molecule, acceptor atom, score
      L1  H    10    26       P1  7957  1.00
      L1  H    14    28       P1  8028  1.00
      P1  H  8011  8017       L1     7  0.75
      P1  H 10752 10765       L1     1  0.64
      L1  C     4    23       P1  7957  1.00

> <Gold.PLP.Chemscore.Internal.Correction>
0.0994

> <Gold.Rescore>
     Score         DG    S(hbond)    S(metal)    S(lipo)     H(rot)  DE(clash)    DE(int)     intcor
      8.18      -9.41       3.49        0.00      22.76       4.06       1.00       0.22       ----

> <Gold.Chemscore.Fitness>
8.1833

> <Gold.Chemscore.DG>
-9.4119

> <Gold.Chemscore.ZeroCoef>
-5.4800

> <Gold.Chemscore.Hbond>
3.4918

> <Gold.Chemscore.Metal>
0.0000

> <Gold.Chemscore.Lipo>
22.7586

> <Gold.Chemscore.Internal_Hbond>
0.0000

> <Gold.Chemscore.DEClash>
1.0049

> <Gold.Chemscore.DEInternal>
0.2237

> <Gold.Chemscore.Rot>
4.0600

> <Gold.Chemscore.Internal.Correction>
   9.000000E+99

> <Gold.Chemscore.Hbonds>
donor molecule, donor type, donor heavy atom, donor atom, acceptor molecule, acceptor atom, score
      L1  H    10    26       P1  7957  1.00
      L1  H    14    28       P1  8028  0.53
      P1  H  8011  8017       L1     7  0.68
      P1  H 10752 10765       L1     1  0.06

> <Gold.Chemscore.Hbond.Weighted>
-11.6627

> <Gold.Chemscore.Metal.Weighted>
-0.0000

> <Gold.Chemscore.Lipo.Weighted>
-2.6628

> <Gold.Chemscore.Internal_Hbond.Weighted>
0.0000

> <Gold.Chemscore.DEClash.Weighted>
1.0049

> <Gold.Chemscore.DEInternal.Weighted>
0.2237

> <Gold.Chemscore.Rot.Weighted>
10.3936

> <Gold.Chemscore.Internal.Correction.Weighted>
   9.000000E+99

> <Gold.Protein.RotatedTorsions>
[ 6907 6896 6895 6894 ] final -148.89 input  -60.11 | X-H torsion
[ 7974 7965 7964 7962 ] final  -18.64 input  175.53 | X-H torsion
[ 8008 7997 7996 7995 ] final -165.83 input   59.86 | X-H torsion
[ 10167 10162 10161 10158 ] final    0.58 input  -65.29 | X-H torsion
[ 10718 10713 10712 10709 ] final  101.40 input   66.30 | X-H torsion
[ 10763 10752 10751 10750 ] final -156.75 input  -60.55 | X-H torsion
[ 11005 11000 10999 10996 ] final   52.16 input  -57.11 | X-H torsion

> <Gold.Protein.ActiveResidues>
 VAL166  LYS551  ARG553  GLY616  TRP617  ASP618  TYR619  PRO620  LYS621  CYS622 
 ASP623  PHE694  ASN695  SER759  ASP760  ASP761  ALA762  ILE779  LEU786  VAL792 
 PHE793  MET794  SER795  GLU796  ALA797  LYS798  CYS799  TRP800  GLU811  SER814 

> <Gold.Protein.RotatedAtoms>
  151.1763  133.4753  159.2593 H   0  0  0  0  0  0  0  0  0  0  0  0  # atno 6907 bound_to 6896
  151.1305  135.0127  159.8590 H   0  0  0  0  0  0  0  0  0  0  0  0  # atno 6908 bound_to 6896
  152.5460  134.1666  159.8632 H   0  0  0  0  0  0  0  0  0  0  0  0  # atno 6909 bound_to 6896
  146.1882  140.3950  142.8468 H   0  0  0  0  0  0  0  0  0  0  0  0  # atno 7974 bound_to 7965
  155.8553  140.0969  157.1648 H   0  0  0  0  0  0  0  0  0  0  0  0  # atno 8008 bound_to 7997
  154.3987  140.1375  156.3956 H   0  0  0  0  0  0  0  0  0  0  0  0  # atno 8009 bound_to 7997
  155.7916  140.3455  155.5355 H   0  0  0  0  0  0  0  0  0  0  0  0  # atno 8010 bound_to 7997
  140.6722  143.7016  150.7947 H   0  0  0  0  0  0  0  0  0  0  0  0  # atno 10167 bound_to 10162
  157.6830  131.0725  150.5246 H   0  0  0  0  0  0  0  0  0  0  0  0  # atno 10718 bound_to 10713
  154.7689  135.3139  154.8230 H   0  0  0  0  0  0  0  0  0  0  0  0  # atno 10763 bound_to 10752
  153.8971  135.6819  153.4761 H   0  0  0  0  0  0  0  0  0  0  0  0  # atno 10764 bound_to 10752
  153.1299  135.4785  154.9266 H   0  0  0  0  0  0  0  0  0  0  0  0  # atno 10765 bound_to 10752
  140.0872  134.5258  155.8887 H   0  0  0  0  0  0  0  0  0  0  0  0  # atno 11005 bound_to 11000
  144.8436  140.6895  143.6213 LP  0  0  0  0  0  0  0  0  0  0  0  0  # atno 17320 bound_to 7965
  145.3875  139.1623  143.4247 LP  0  0  0  0  0  0  0  0  0  0  0  0  # atno 17321 bound_to 7965
  140.0703  143.5067  152.2583 LP  0  0  0  0  0  0  0  0  0  0  0  0  # atno 17342 bound_to 10162
  139.5996  144.7578  151.3203 LP  0  0  0  0  0  0  0  0  0  0  0  0  # atno 17343 bound_to 10162
  156.5558  130.4243  149.6086 LP  0  0  0  0  0  0  0  0  0  0  0  0  # atno 17370 bound_to 10713
  156.2863  130.7099  151.1936 LP  0  0  0  0  0  0  0  0  0  0  0  0  # atno 17371 bound_to 10713
  141.2066  133.6657  156.6255 LP  0  0  0  0  0  0  0  0  0  0  0  0  # atno 17394 bound_to 11000
  140.3403  134.7855  157.4392 LP  0  0  0  0  0  0  0  0  0  0  0  0  # atno 17395 bound_to 11000

$$$$
