AV-unprocessed.smi:374|AV-procd|sdf|2452|dock5
  -GOLD-   2262022393D 1   1.00000     0.00000
 Structure written by MMmdl.
 37 38  0  0  0  0  0  0  0  0  1 V2000
  151.4792  138.0826  154.7989 C   0  0  0  0  0  0  0  0  0  0  0  0
  151.0057  138.8463  156.0526 C   0  0  1  0  0  0  0  0  0  0  0  0
  152.1305  139.6753  156.6905 C   0  0  0  0  0  0  0  0  0  0  0  0
  153.2747  139.6300  156.2374 O   0  0  0  0  0  0  0  0  0  0  0  0
  151.7874  140.4307  157.7466 N   0  0  0  0  0  0  0  0  0  0  0  0
  152.6869  141.3082  158.4904 C   0  0  0  0  0  0  0  0  0  0  0  0
  151.9321  142.2860  159.4160 C   0  0  0  0  0  0  0  0  0  0  0  0
  151.3183  143.4390  158.5947 C   0  0  0  0  0  0  0  0  0  0  0  0
  150.5502  144.4327  159.4809 C   0  0  0  0  0  0  0  0  0  0  0  0
  151.4457  144.9882  160.5976 C   0  0  0  0  0  0  0  0  0  0  0  0
  152.0521  143.8508  161.4318 C   0  0  0  0  0  0  0  0  0  0  0  0
  152.8194  142.8550  160.5467 C   0  0  0  0  0  0  0  0  0  0  0  0
  149.8501  139.6939  155.7853 N   0  0  0  0  0  0  0  0  0  0  0  0
  149.1214  139.8213  154.6742 C   0  0  0  0  0  0  0  0  0  0  0  0
  148.0970  140.6542  154.7931 N   0  0  0  0  0  0  0  0  0  0  0  0
  148.2528  141.0213  156.0996 C   0  0  0  0  0  0  0  0  0  0  0  0
  149.2802  140.4674  156.7431 N   0  0  0  0  0  0  0  0  0  0  0  0
  152.3046  137.4113  155.0380 H   0  0  0  0  0  0  0  0  0  0  0  0
  151.8206  138.7555  154.0112 H   0  0  0  0  0  0  0  0  0  0  0  0
  150.6734  137.4742  154.3869 H   0  0  0  0  0  0  0  0  0  0  0  0
  150.6893  138.0987  156.7824 H   0  0  0  0  0  0  0  0  0  0  0  0
  150.8262  140.4033  158.0540 H   0  0  0  0  0  0  0  0  0  0  0  0
  153.4152  140.7300  159.0616 H   0  0  0  0  0  0  0  0  0  0  0  0
  153.2630  141.8729  157.7568 H   0  0  0  0  0  0  0  0  0  0  0  0
  151.1110  141.7369  159.8800 H   0  0  0  0  0  0  0  0  0  0  0  0
  152.1074  143.9685  158.0591 H   0  0  0  0  0  0  0  0  0  0  0  0
  150.6466  143.0386  157.8345 H   0  0  0  0  0  0  0  0  0  0  0  0
  150.1655  145.2518  158.8724 H   0  0  0  0  0  0  0  0  0  0  0  0
  149.6821  143.9382  159.9186 H   0  0  0  0  0  0  0  0  0  0  0  0
  152.2449  145.5893  160.1624 H   0  0  0  0  0  0  0  0  0  0  0  0
  150.8702  145.6558  161.2397 H   0  0  0  0  0  0  0  0  0  0  0  0
  152.7178  144.2612  162.1916 H   0  0  0  0  0  0  0  0  0  0  0  0
  151.2585  143.3269  161.9662 H   0  0  0  0  0  0  0  0  0  0  0  0
  153.1994  142.0502  161.1756 H   0  0  0  0  0  0  0  0  0  0  0  0
  153.6922  143.3475  160.1157 H   0  0  0  0  0  0  0  0  0  0  0  0
  149.3420  139.2897  153.7601 H   0  0  0  0  0  0  0  0  0  0  0  0
  147.5851  141.7125  156.5930 H   0  0  0  0  0  0  0  0  0  0  0  0
  1  2  1  0  0  0  0
  1 18  1  0  0  0  0
  1 19  1  0  0  0  0
  1 20  1  0  0  0  0
  2  3  1  0  0  0  0
  2 13  1  0  0  0  0
  2 21  1  0  0  0  0
  3  4  2  0  0  0  0
  3  5  1  0  0  0  0
  5  6  1  0  0  0  0
  5 22  1  0  0  0  0
  6  7  1  0  0  0  0
  6 23  1  0  0  0  0
  6 24  1  0  0  0  0
  7 12  1  0  0  0  0
  7  8  1  0  0  0  0
  7 25  1  0  0  0  0
  8  9  1  0  0  0  0
  8 26  1  0  0  0  0
  8 27  1  0  0  0  0
  9 10  1  0  0  0  0
  9 28  1  0  0  0  0
  9 29  1  0  0  0  0
 10 11  1  0  0  0  0
 10 30  1  0  0  0  0
 10 31  1  0  0  0  0
 11 12  1  0  0  0  0
 11 32  1  0  0  0  0
 11 33  1  0  0  0  0
 12 34  1  0  0  0  0
 12 35  1  0  0  0  0
 13 17  1  0  0  0  0
 13 14  1  0  0  0  0
 14 15  2  0  0  0  0
 14 36  1  0  0  0  0
 15 16  1  0  0  0  0
 16 17  2  0  0  0  0
 16 37  1  0  0  0  0
M  END
> <s_m_source_file>
AV-unprocessed.smi

> <i_m_source_file_index>
374

> <i_lp_mmshare_version>
43012

> <i_f3d_flags>
0

> <s_epik_input>
bjFbY0hdbltjSF1uMVtDQEhdKFtDSDNdKUMoPU8pW05IXVtDSDJdW0NIXTJbQ0gyXVtDSDJdW0NIMl1bQ0gyXVtDSDJdMg==

> <s_epik_cmdline>
J2VwaWtfcHl0aG9uJywgJy1waCcsICc3LjAnLCAnLXRuJywgJzgnLCAnLW1hJywgJzIwMCcsICctbWV0YWxfYmluZGluZycsICctaW1hZScsICc8aW5maWxlLm1hZT4nLCAnLW9tYWUnLCAnPG91dGZpbGUubWFlPic=

> <r_lp_tautomer_probability>
1

> <r_epik_Ionization_Penalty>
1.24899e-05

> <r_epik_Ionization_Penalty_Charging>
0

> <r_epik_Ionization_Penalty_Neutral>
1.24899e-05

> <r_epik_State_Penalty>
-0

> <r_epik_Charging_Adjusted_Penalty>
0

> <i_epik_Tot_Q>
0

> <i_epik_Tot_abs_Q>
0

> <r_epik_Metal_State_Penalty>
-0

> <b_epik_Metal_Only>
0

> <s_lp_Force_Field>
OPLS_2005

> <r_lp_Energy>
16.3067

> <b_lp_Chiralities_Consistent>
1

> <s_lp_Variant>
AV-unprocessed.smi:374-2

> <Gold.Version>
5.8.1

> <Gold.Id.Protein>
6NUR|6NUR_protein|mol2

> <Gold.PLP.Fitness>
45.2585

> <Gold.PLP.PLP>
-35.2260

> <Gold.PLP.part.hbond>
-2.8356

> <Gold.PLP.part.metal>
0.0000

> <Gold.PLP.part.buried>
0.2507

> <Gold.PLP.part.nonpolar>
-34.5594

> <Gold.PLP.part.repulsive>
0.9996

> <Gold.PLP.ligand.clash>
0.0000

> <Gold.PLP.ligand.torsion>
0.4359

> <Gold.PLP.Chemscore.Hbond>
1.8320

> <Gold.PLP.Chemscore.CHOScore>
1.7699

> <Gold.PLP.Chemscore.Metal>
0.0000

> <Gold.Chemscore.Hbonds>
donor molecule, donor type, donor heavy atom, donor atom, acceptor molecule, acceptor atom, score
      P1  H  7997  8010       L1     4  0.11
      L1  C    14    36       P1  7957  0.53

> <Gold.PLP.Chemscore.Internal.Correction>
0.0986

> <Gold.Rescore>
     Score         DG    S(hbond)    S(metal)    S(lipo)     H(rot)  DE(clash)    DE(int)     intcor
     12.54     -15.29       1.61        0.00      84.58       2.14       1.17       1.57       ----

> <Gold.Chemscore.Fitness>
12.5448

> <Gold.Chemscore.DG>
-15.2911

> <Gold.Chemscore.ZeroCoef>
-5.4800

> <Gold.Chemscore.Hbond>
1.6134

> <Gold.Chemscore.Metal>
0.0000

> <Gold.Chemscore.Lipo>
84.5835

> <Gold.Chemscore.Internal_Hbond>
0.0000

> <Gold.Chemscore.DEClash>
1.1734

> <Gold.Chemscore.DEInternal>
1.5729

> <Gold.Chemscore.Rot>
2.1383

> <Gold.Chemscore.Internal.Correction>
   9.000000E+99

> <Gold.Chemscore.Hbonds>
donor molecule, donor type, donor heavy atom, donor atom, acceptor molecule, acceptor atom, score
      P1  H  7997  8010       L1     4  0.14

> <Gold.Chemscore.Hbond.Weighted>
-5.3889

> <Gold.Chemscore.Metal.Weighted>
-0.0000

> <Gold.Chemscore.Lipo.Weighted>
-9.8963

> <Gold.Chemscore.Internal_Hbond.Weighted>
0.0000

> <Gold.Chemscore.DEClash.Weighted>
1.1734

> <Gold.Chemscore.DEInternal.Weighted>
1.5729

> <Gold.Chemscore.Rot.Weighted>
5.4741

> <Gold.Chemscore.Internal.Correction.Weighted>
   9.000000E+99

> <Gold.Protein.RotatedTorsions>
[ 6907 6896 6895 6894 ] final  -28.87 input  -60.11 | X-H torsion
[ 7974 7965 7964 7962 ] final  102.96 input  175.53 | X-H torsion
[ 8008 7997 7996 7995 ] final   73.40 input   59.86 | X-H torsion
[ 10167 10162 10161 10158 ] final   71.22 input  -65.29 | X-H torsion
[ 10718 10713 10712 10709 ] final -174.98 input   66.30 | X-H torsion
[ 10763 10752 10751 10750 ] final  -89.50 input  -60.55 | X-H torsion
[ 11005 11000 10999 10996 ] final  128.44 input  -57.11 | X-H torsion

> <Gold.Protein.ActiveResidues>
 VAL166  LYS551  ARG553  GLY616  TRP617  ASP618  TYR619  PRO620  LYS621  CYS622 
 ASP623  PHE694  ASN695  SER759  ASP760  ASP761  ALA762  ILE779  LEU786  VAL792 
 PHE793  MET794  SER795  GLU796  ALA797  LYS798  CYS799  TRP800  GLU811  SER814 

> <Gold.Protein.RotatedAtoms>
  151.1270  135.0110  159.8564 H   0  0  0  0  0  0  0  0  0  0  0  0  # atno 6907 bound_to 6896
  152.5450  134.1655  159.8585 H   0  0  0  0  0  0  0  0  0  0  0  0  # atno 6908 bound_to 6896
  151.1718  133.4734  159.2627 H   0  0  0  0  0  0  0  0  0  0  0  0  # atno 6909 bound_to 6896
  145.3523  139.2436  143.3551 H   0  0  0  0  0  0  0  0  0  0  0  0  # atno 7974 bound_to 7965
  155.7831  140.3481  155.5308 H   0  0  0  0  0  0  0  0  0  0  0  0  # atno 8008 bound_to 7997
  155.8709  140.0986  157.1571 H   0  0  0  0  0  0  0  0  0  0  0  0  # atno 8009 bound_to 7997
  154.4017  140.1340  156.4064 H   0  0  0  0  0  0  0  0  0  0  0  0  # atno 8010 bound_to 7997
  140.0484  144.5332  150.7381 H   0  0  0  0  0  0  0  0  0  0  0  0  # atno 10167 bound_to 10162
  156.7931  130.9525  151.3120 H   0  0  0  0  0  0  0  0  0  0  0  0  # atno 10718 bound_to 10713
  154.6560  135.5338  153.7959 H   0  0  0  0  0  0  0  0  0  0  0  0  # atno 10763 bound_to 10752
  153.0413  135.6494  154.0945 H   0  0  0  0  0  0  0  0  0  0  0  0  # atno 10764 bound_to 10752
  154.0858  135.2943  155.3261 H   0  0  0  0  0  0  0  0  0  0  0  0  # atno 10765 bound_to 10752
  139.9560  134.9612  156.9001 H   0  0  0  0  0  0  0  0  0  0  0  0  # atno 11005 bound_to 11000
  146.2963  140.4141  142.8720 LP  0  0  0  0  0  0  0  0  0  0  0  0  # atno 17320 bound_to 7965
  144.8708  140.7270  143.6048 LP  0  0  0  0  0  0  0  0  0  0  0  0  # atno 17321 bound_to 7965
  140.7228  143.2605  151.4222 LP  0  0  0  0  0  0  0  0  0  0  0  0  # atno 17342 bound_to 10162
  139.5969  144.1379  152.2153 LP  0  0  0  0  0  0  0  0  0  0  0  0  # atno 17343 bound_to 10162
  157.6591  130.8950  149.9791 LP  0  0  0  0  0  0  0  0  0  0  0  0  # atno 17370 bound_to 10713
  156.1147  130.3648  149.9989 LP  0  0  0  0  0  0  0  0  0  0  0  0  # atno 17371 bound_to 10713
  140.5607  134.0537  155.7398 LP  0  0  0  0  0  0  0  0  0  0  0  0  # atno 17394 bound_to 11000
  141.1232  133.9427  157.2688 LP  0  0  0  0  0  0  0  0  0  0  0  0  # atno 17395 bound_to 11000

$$$$
