AV-unprocessed.smi:799|AV-procd|sdf|3786|dock1
  -GOLD-   22720 1223D 1   1.00000     0.00000
 Structure written by MMmdl.
 47 48  0  0  0  0  0  0  0  0  1 V2000
  145.4927  129.7001  152.2935 C   0  0  0  0  0  0  0  0  0  0  0  0
  146.0420  131.0958  152.3157 C   0  0  0  0  0  0  0  0  0  0  0  0
  147.0516  131.6279  153.1691 C   0  0  0  0  0  0  0  0  0  0  0  0
  147.1476  132.9266  152.7498 C   0  0  0  0  0  0  0  0  0  0  0  0
  147.9508  133.9139  153.2273 N   0  0  0  0  0  0  0  0  0  0  0  0
  148.4708  134.0463  154.4598 C   0  0  0  0  0  0  0  0  0  0  0  0
  148.3085  133.2523  155.3864 O   0  0  0  0  0  0  0  0  0  0  0  0
  149.2117  135.1648  154.5475 N   0  0  0  0  0  0  0  0  0  0  0  0
  150.0023  135.6592  155.6882 C   0  0  2  0  0  0  0  0  0  0  0  0
  150.9701  134.5152  156.0715 C   0  0  0  0  0  0  0  0  0  0  0  0
  149.0547  135.9387  156.8919 C   0  0  0  0  0  0  0  0  0  0  0  0
  149.7529  136.0205  158.1206 O   0  0  0  0  0  0  0  0  0  0  0  0
  150.7946  136.9580  155.2896 C   0  0  0  0  0  0  0  0  0  0  0  0
  151.7583  137.4814  156.3887 C   0  0  0  0  0  0  0  0  0  0  0  0
  152.5925  138.6753  155.8966 C   0  0  0  0  0  0  0  0  0  0  0  0
  151.6944  139.8163  155.4008 C   0  0  0  0  0  0  0  0  0  0  0  0
  150.7359  139.3216  154.3096 C   0  0  0  0  0  0  0  0  0  0  0  0
  149.9009  138.1270  154.7990 C   0  0  0  0  0  0  0  0  0  0  0  0
  146.2437  133.1328  151.7294 N   0  0  0  0  0  0  0  0  0  0  0  0
  145.9566  134.3270  150.9580 C   0  0  0  0  0  0  0  0  0  0  0  0
  145.5670  131.9953  151.4618 N   0  0  0  0  0  0  0  0  0  0  0  0
  145.9284  129.0927  153.0871 H   0  0  0  0  0  0  0  0  0  0  0  0
  145.7072  129.2089  151.3443 H   0  0  0  0  0  0  0  0  0  0  0  0
  144.4115  129.7009  152.4329 H   0  0  0  0  0  0  0  0  0  0  0  0
  147.5976  131.1263  153.9540 H   0  0  0  0  0  0  0  0  0  0  0  0
  148.2160  134.6177  152.5543 H   0  0  0  0  0  0  0  0  0  0  0  0
  149.2661  135.7324  153.7149 H   0  0  0  0  0  0  0  0  0  0  0  0
  151.5474  134.7517  156.9649 H   0  0  0  0  0  0  0  0  0  0  0  0
  151.6747  134.2875  155.2723 H   0  0  0  0  0  0  0  0  0  0  0  0
  150.4303  133.5916  156.2839 H   0  0  0  0  0  0  0  0  0  0  0  0
  148.5278  136.8835  156.7632 H   0  0  0  0  0  0  0  0  0  0  0  0
  148.2883  135.1687  156.9810 H   0  0  0  0  0  0  0  0  0  0  0  0
  149.8630  136.9323  158.3428 H   0  0  0  0  0  0  0  0  0  0  0  0
  151.4216  136.6941  154.4376 H   0  0  0  0  0  0  0  0  0  0  0  0
  151.1957  137.7856  157.2710 H   0  0  0  0  0  0  0  0  0  0  0  0
  152.4436  136.7002  156.7161 H   0  0  0  0  0  0  0  0  0  0  0  0
  153.2377  139.0340  156.6990 H   0  0  0  0  0  0  0  0  0  0  0  0
  153.2531  138.3522  155.0910 H   0  0  0  0  0  0  0  0  0  0  0  0
  151.1218  140.2218  156.2358 H   0  0  0  0  0  0  0  0  0  0  0  0
  152.3063  140.6331  155.0172 H   0  0  0  0  0  0  0  0  0  0  0  0
  150.0762  140.1333  154.0014 H   0  0  0  0  0  0  0  0  0  0  0  0
  151.3048  139.0340  153.4245 H   0  0  0  0  0  0  0  0  0  0  0  0
  149.2552  137.8095  153.9820 H   0  0  0  0  0  0  0  0  0  0  0  0
  149.2444  138.4651  155.6007 H   0  0  0  0  0  0  0  0  0  0  0  0
  146.5244  135.1771  151.3362 H   0  0  0  0  0  0  0  0  0  0  0  0
  144.8932  134.5590  151.0207 H   0  0  0  0  0  0  0  0  0  0  0  0
  146.2243  134.1612  149.9139 H   0  0  0  0  0  0  0  0  0  0  0  0
  1  2  1  0  0  0  0
  1 22  1  0  0  0  0
  1 23  1  0  0  0  0
  1 24  1  0  0  0  0
  2 21  2  0  0  0  0
  2  3  1  0  0  0  0
  3  4  2  0  0  0  0
  3 25  1  0  0  0  0
  4  5  1  0  0  0  0
  4 19  1  0  0  0  0
  5  6  1  0  0  0  0
  5 26  1  0  0  0  0
  6  7  2  0  0  0  0
  6  8  1  0  0  0  0
  8  9  1  0  0  0  0
  8 27  1  0  0  0  0
  9 10  1  0  0  0  0
  9 11  1  0  0  0  0
  9 13  1  0  0  0  0
 10 28  1  0  0  0  0
 10 29  1  0  0  0  0
 10 30  1  0  0  0  0
 11 12  1  0  0  0  0
 11 31  1  0  0  0  0
 11 32  1  0  0  0  0
 12 33  1  0  0  0  0
 13 18  1  0  0  0  0
 13 14  1  0  0  0  0
 13 34  1  0  0  0  0
 14 15  1  0  0  0  0
 14 35  1  0  0  0  0
 14 36  1  0  0  0  0
 15 16  1  0  0  0  0
 15 37  1  0  0  0  0
 15 38  1  0  0  0  0
 16 17  1  0  0  0  0
 16 39  1  0  0  0  0
 16 40  1  0  0  0  0
 17 18  1  0  0  0  0
 17 41  1  0  0  0  0
 17 42  1  0  0  0  0
 18 43  1  0  0  0  0
 18 44  1  0  0  0  0
 19 20  1  0  0  0  0
 19 21  1  0  0  0  0
 20 45  1  0  0  0  0
 20 46  1  0  0  0  0
 20 47  1  0  0  0  0
M  END
> <s_m_source_file>
AV-unprocessed.smi

> <i_m_source_file_index>
799

> <i_lp_mmshare_version>
43012

> <i_f3d_flags>
0

> <s_epik_input>
W0NIM11jMVtjSF1jKG4objEpW0NIM10pW05IXUMoPU8pW05IXVtDQEBdKFtDSDNdKShbQ0gyXVtPSF0pW0NIXTJbQ0gyXVtDSDJdW0NIMl1bQ0gyXVtDSDJdMg==

> <s_epik_cmdline>
J2VwaWtfcHl0aG9uJywgJy1waCcsICc3LjAnLCAnLXRuJywgJzgnLCAnLW1hJywgJzIwMCcsICctbWV0YWxfYmluZGluZycsICctaW1hZScsICc8aW5maWxlLm1hZT4nLCAnLW9tYWUnLCAnPG91dGZpbGUubWFlPic=

> <r_lp_tautomer_probability>
1

> <r_epik_Ionization_Penalty>
9.86025e-05

> <r_epik_Ionization_Penalty_Charging>
0

> <r_epik_Ionization_Penalty_Neutral>
9.86025e-05

> <r_epik_State_Penalty>
-0

> <r_epik_Charging_Adjusted_Penalty>
0

> <i_epik_Tot_Q>
0

> <i_epik_Tot_abs_Q>
0

> <r_epik_Metal_State_Penalty>
-0

> <b_epik_Metal_Only>
0

> <s_lp_Force_Field>
OPLS_2005

> <r_lp_Energy>
22.5502

> <b_lp_Chiralities_Consistent>
1

> <s_lp_Variant>
AV-unprocessed.smi:799-2

> <Gold.Version>
5.8.1

> <Gold.Id.Protein>
6NUR|6NUR_protein|mol2

> <Gold.PLP.Fitness>
42.9190

> <Gold.PLP.PLP>
-34.6572

> <Gold.PLP.part.hbond>
-3.0000

> <Gold.PLP.part.metal>
0.0000

> <Gold.PLP.part.buried>
-4.2469

> <Gold.PLP.part.nonpolar>
-27.1087

> <Gold.PLP.part.repulsive>
0.1480

> <Gold.PLP.ligand.clash>
0.0000

> <Gold.PLP.ligand.torsion>
0.3847

> <Gold.PLP.Chemscore.Hbond>
2.9750

> <Gold.PLP.Chemscore.CHOScore>
0.0000

> <Gold.PLP.Chemscore.Metal>
0.0000

> <Gold.Chemscore.Hbonds>
donor molecule, donor type, donor heavy atom, donor atom, acceptor molecule, acceptor atom, score
      L1  H     5    26       P1  7948  1.00
      L1  H     8    27       P1  7948  1.00
      P1  H  6896  6909       L1    12  0.54

> <Gold.PLP.Chemscore.Internal.Correction>
0.1062

> <Gold.Rescore>
     Score         DG    S(hbond)    S(metal)    S(lipo)     H(rot)  DE(clash)    DE(int)     intcor
     14.69     -15.82       2.10        0.00      72.67       2.01       0.00       1.14       ----

> <Gold.Chemscore.Fitness>
14.6852

> <Gold.Chemscore.DG>
-15.8243

> <Gold.Chemscore.ZeroCoef>
-5.4800

> <Gold.Chemscore.Hbond>
2.0953

> <Gold.Chemscore.Metal>
0.0000

> <Gold.Chemscore.Lipo>
72.6725

> <Gold.Chemscore.Internal_Hbond>
0.0000

> <Gold.Chemscore.DEClash>
0.0004

> <Gold.Chemscore.DEInternal>
1.1387

> <Gold.Chemscore.Rot>
2.0144

> <Gold.Chemscore.Internal.Correction>
   9.000000E+99

> <Gold.Chemscore.Hbonds>
donor molecule, donor type, donor heavy atom, donor atom, acceptor molecule, acceptor atom, score
      L1  H     5    26       P1  7948  0.35
      L1  H     8    27       P1  7948  0.64
      P1  H  6896  6909       L1    12  0.46

> <Gold.Chemscore.Hbond.Weighted>
-6.9984

> <Gold.Chemscore.Metal.Weighted>
-0.0000

> <Gold.Chemscore.Lipo.Weighted>
-8.5027

> <Gold.Chemscore.Internal_Hbond.Weighted>
0.0000

> <Gold.Chemscore.DEClash.Weighted>
0.0004

> <Gold.Chemscore.DEInternal.Weighted>
1.1387

> <Gold.Chemscore.Rot.Weighted>
5.1568

> <Gold.Chemscore.Internal.Correction.Weighted>
   9.000000E+99

> <Gold.Protein.RotatedTorsions>
[ 6907 6896 6895 6894 ] final   52.76 input  -60.11 | X-H torsion
[ 7974 7965 7964 7962 ] final  175.65 input  175.53 | X-H torsion
[ 8008 7997 7996 7995 ] final  115.84 input   59.86 | X-H torsion
[ 10167 10162 10161 10158 ] final  175.58 input  -65.29 | X-H torsion
[ 10718 10713 10712 10709 ] final -102.35 input   66.30 | X-H torsion
[ 10763 10752 10751 10750 ] final -101.50 input  -60.55 | X-H torsion
[ 11005 11000 10999 10996 ] final  174.84 input  -57.11 | X-H torsion

> <Gold.Protein.ActiveResidues>
 VAL166  LYS551  ARG553  GLY616  TRP617  ASP618  TYR619  PRO620  LYS621  CYS622 
 ASP623  PHE694  ASN695  SER759  ASP760  ASP761  ALA762  ILE779  LEU786  VAL792 
 PHE793  MET794  SER795  GLU796  ALA797  LYS798  CYS799  TRP800  GLU811  SER814 

> <Gold.Protein.RotatedAtoms>
  152.3266  134.7312  160.0299 H   0  0  0  0  0  0  0  0  0  0  0  0  # atno 6907 bound_to 6896
  151.7743  133.3338  159.3461 H   0  0  0  0  0  0  0  0  0  0  0  0  # atno 6908 bound_to 6896
  150.7399  134.5921  159.6037 H   0  0  0  0  0  0  0  0  0  0  0  0  # atno 6909 bound_to 6896
  144.7198  139.9978  143.6440 H   0  0  0  0  0  0  0  0  0  0  0  0  # atno 7974 bound_to 7965
  156.2405  140.2930  156.0431 H   0  0  0  0  0  0  0  0  0  0  0  0  # atno 8008 bound_to 7997
  155.1965  140.0408  157.2927 H   0  0  0  0  0  0  0  0  0  0  0  0  # atno 8009 bound_to 7997
  154.6159  140.2463  155.7617 H   0  0  0  0  0  0  0  0  0  0  0  0  # atno 8010 bound_to 7997
  139.5182  144.3015  152.0374 H   0  0  0  0  0  0  0  0  0  0  0  0  # atno 10167 bound_to 10162
  156.0225  130.5416  150.7095 H   0  0  0  0  0  0  0  0  0  0  0  0  # atno 10718 bound_to 10713
  154.7663  135.4895  153.9560 H   0  0  0  0  0  0  0  0  0  0  0  0  # atno 10763 bound_to 10752
  153.1311  135.6753  153.9184 H   0  0  0  0  0  0  0  0  0  0  0  0  # atno 10764 bound_to 10752
  153.8887  135.3123  155.3425 H   0  0  0  0  0  0  0  0  0  0  0  0  # atno 10765 bound_to 10752
  140.3556  134.7157  157.4297 H   0  0  0  0  0  0  0  0  0  0  0  0  # atno 11005 bound_to 11000
  146.0359  139.3377  143.0726 LP  0  0  0  0  0  0  0  0  0  0  0  0  # atno 17320 bound_to 7965
  145.8394  140.9588  143.0807 LP  0  0  0  0  0  0  0  0  0  0  0  0  # atno 17321 bound_to 7965
  140.2462  144.4217  150.6240 LP  0  0  0  0  0  0  0  0  0  0  0  0  # atno 17342 bound_to 10162
  140.6256  143.2181  151.6603 LP  0  0  0  0  0  0  0  0  0  0  0  0  # atno 17343 bound_to 10162
  157.4737  131.0895  151.0614 LP  0  0  0  0  0  0  0  0  0  0  0  0  # atno 17370 bound_to 10713
  157.1067  130.6004  149.5472 LP  0  0  0  0  0  0  0  0  0  0  0  0  # atno 17371 bound_to 10713
  140.0667  134.5919  155.8687 LP  0  0  0  0  0  0  0  0  0  0  0  0  # atno 17394 bound_to 11000
  141.1999  133.6609  156.5869 LP  0  0  0  0  0  0  0  0  0  0  0  0  # atno 17395 bound_to 11000

$$$$
