AV-unprocessed.smi:2722|AV-procd|sdf|10505|dock1
  -GOLD-   2272014543D 1   1.00000     0.00000
 Structure written by MMmdl.
 27 27  0  0  0  0  0  0  0  0  2 V2000
  153.3095  138.0062  156.1910 C   0  0  0  0  0  0  0  0  0  0  0  0
  152.0476  138.8130  155.8094 C   0  0  2  0  0  0  0  0  0  0  0  0
  152.5175  139.9976  155.1907 O   0  0  0  0  0  0  0  0  0  0  0  0
  151.2244  139.2612  157.0579 C   0  0  0  0  0  0  0  0  0  0  0  0
  151.9111  140.1824  157.9869 N   0  0  0  0  0  0  0  0  0  0  0  0
  151.5952  141.5534  157.8893 C   0  0  0  0  0  0  0  0  0  0  0  0
  152.1619  142.4971  158.6645 C   0  0  0  0  0  0  0  0  0  0  0  0
  151.7516  143.9582  158.5684 C   0  0  0  0  0  0  0  0  0  0  0  0
  152.4420  144.7115  159.4250 F   0  0  0  0  0  0  0  0  0  0  0  0
  151.9821  144.4130  157.3373 F   0  0  0  0  0  0  0  0  0  0  0  0
  150.4527  144.1101  158.8292 F   0  0  0  0  0  0  0  0  0  0  0  0
  153.1180  142.0328  159.6496 C   0  0  0  0  0  0  0  0  0  0  0  0
  153.4446  140.7295  159.7465 C   0  0  0  0  0  0  0  0  0  0  0  0
  152.8499  139.7209  158.8663 C   0  0  0  0  0  0  0  0  0  0  0  0
  153.1834  138.5368  158.9164 O   0  0  0  0  0  0  0  0  0  0  0  0
  151.1779  138.0325  154.7942 C   0  0  0  0  0  0  0  0  0  0  0  0
  150.1860  138.6081  154.2925 O   0  0  0  0  0  0  0  0  0  0  0  0
  151.5406  136.8691  154.5085 O   0  5  0  0  0  0  0  0  0  0  0  0
  153.0619  137.0540  156.6603 H   0  0  0  0  0  0  0  0  0  0  0  0
  153.9352  138.5595  156.8921 H   0  0  0  0  0  0  0  0  0  0  0  0
  153.9212  137.7846  155.3151 H   0  0  0  0  0  0  0  0  0  0  0  0
  152.1849  140.0249  154.3074 H   0  0  0  0  0  0  0  0  0  0  0  0
  150.2741  139.6908  156.7363 H   0  0  0  0  0  0  0  0  0  0  0  0
  150.9274  138.3743  157.6214 H   0  0  0  0  0  0  0  0  0  0  0  0
  150.8490  141.7902  157.1446 H   0  0  0  0  0  0  0  0  0  0  0  0
  153.5835  142.7401  160.3198 H   0  0  0  0  0  0  0  0  0  0  0  0
  154.1626  140.4186  160.4911 H   0  0  0  0  0  0  0  0  0  0  0  0
  1  2  1  0  0  0  0
  1 19  1  0  0  0  0
  1 20  1  0  0  0  0
  1 21  1  0  0  0  0
  2  3  1  0  0  0  0
  2  4  1  0  0  0  0
  2 16  1  0  0  0  0
  3 22  1  0  0  0  0
  4  5  1  0  0  0  0
  4 23  1  0  0  0  0
  4 24  1  0  0  0  0
  5 14  1  0  0  0  0
  5  6  1  0  0  0  0
  6  7  2  0  0  0  0
  6 25  1  0  0  0  0
  7  8  1  0  0  0  0
  7 12  1  0  0  0  0
  8  9  1  0  0  0  0
  8 10  1  0  0  0  0
  8 11  1  0  0  0  0
 12 13  2  0  0  0  0
 12 26  1  0  0  0  0
 13 14  1  0  0  0  0
 13 27  1  0  0  0  0
 14 15  2  0  0  0  0
 16 17  2  0  0  0  0
 16 18  1  0  0  0  0
M  CHG  1  18  -1
M  END
> <s_m_source_file>
AV-unprocessed.smi

> <i_m_source_file_index>
2722

> <i_lp_mmshare_version>
43012

> <i_f3d_flags>
0

> <s_epik_input>
Tz1DKFtPSF0pW0NAXShbQ0gzXSkoW09IXSlbQ0gyXW4xW2NIXWMoQyhGKShGKUYpW2NIXVtjSF1jMT1P

> <s_epik_cmdline>
J2VwaWtfcHl0aG9uJywgJy1waCcsICc3LjAnLCAnLXRuJywgJzgnLCAnLW1hJywgJzIwMCcsICctbWV0YWxfYmluZGluZycsICctaW1hZScsICc8aW5maWxlLm1hZT4nLCAnLW9tYWUnLCAnPG91dGZpbGUubWFlPic=

> <r_lp_tautomer_probability>
1

> <r_epik_Ionization_Penalty>
0.000391429

> <r_epik_Ionization_Penalty_Charging>
0.000383902

> <r_epik_Ionization_Penalty_Neutral>
7.52792e-06

> <r_epik_State_Penalty>
0.000234534

> <r_epik_Charging_Adjusted_Penalty>
0.000618436

> <i_epik_Tot_Q>
-1

> <i_epik_Tot_abs_Q>
1

> <r_epik_Metal_State_Penalty>
-0

> <b_epik_Metal_Only>
0

> <s_lp_Force_Field>
OPLS_2005

> <r_lp_Energy>
14.9238

> <b_lp_Chiralities_Consistent>
1

> <s_lp_Variant>
AV-unprocessed.smi:2722-2

> <Gold.Version>
5.8.1

> <Gold.Id.Protein>
6NUR|6NUR_protein|mol2

> <Gold.PLP.Fitness>
46.7708

> <Gold.PLP.PLP>
-38.1666

> <Gold.PLP.part.hbond>
-3.0000

> <Gold.PLP.part.metal>
0.0000

> <Gold.PLP.part.buried>
-3.2333

> <Gold.PLP.part.nonpolar>
-31.9569

> <Gold.PLP.part.repulsive>
0.5557

> <Gold.PLP.ligand.clash>
0.0000

> <Gold.PLP.ligand.torsion>
0.3517

> <Gold.PLP.Chemscore.Hbond>
3.0000

> <Gold.PLP.Chemscore.CHOScore>
0.0000

> <Gold.PLP.Chemscore.Metal>
0.0000

> <Gold.Chemscore.Hbonds>
donor molecule, donor type, donor heavy atom, donor atom, acceptor molecule, acceptor atom, score
      P1  H  7997  8009       L1     3  0.94
      P1  H 10752 10765       L1    18  2.00

> <Gold.PLP.Chemscore.Internal.Correction>
0.3076

> <Gold.Rescore>
     Score         DG    S(hbond)    S(metal)    S(lipo)     H(rot)  DE(clash)    DE(int)     intcor
     11.83     -15.34       2.62        0.00      67.10       2.63       1.18       2.33       ----

> <Gold.Chemscore.Fitness>
11.8313

> <Gold.Chemscore.DG>
-15.3428

> <Gold.Chemscore.ZeroCoef>
-5.4800

> <Gold.Chemscore.Hbond>
2.6219

> <Gold.Chemscore.Metal>
0.0000

> <Gold.Chemscore.Lipo>
67.0996

> <Gold.Chemscore.Internal_Hbond>
0.0000

> <Gold.Chemscore.DEClash>
1.1814

> <Gold.Chemscore.DEInternal>
2.3301

> <Gold.Chemscore.Rot>
2.6348

> <Gold.Chemscore.Internal.Correction>
   9.000000E+99

> <Gold.Chemscore.Hbonds>
donor molecule, donor type, donor heavy atom, donor atom, acceptor molecule, acceptor atom, score
      P1  H  7997  8009       L1     3  0.36
      P1  H 10752 10765       L1    18  1.00

> <Gold.Chemscore.Hbond.Weighted>
-8.7573

> <Gold.Chemscore.Metal.Weighted>
-0.0000

> <Gold.Chemscore.Lipo.Weighted>
-7.8507

> <Gold.Chemscore.Internal_Hbond.Weighted>
0.0000

> <Gold.Chemscore.DEClash.Weighted>
1.1814

> <Gold.Chemscore.DEInternal.Weighted>
2.3301

> <Gold.Chemscore.Rot.Weighted>
6.7451

> <Gold.Chemscore.Internal.Correction.Weighted>
   9.000000E+99

> <Gold.Protein.RotatedTorsions>
[ 6907 6896 6895 6894 ] final -174.22 input  -60.11 | X-H torsion
[ 7974 7965 7964 7962 ] final   87.39 input  175.53 | X-H torsion
[ 8008 7997 7996 7995 ] final -140.47 input   59.86 | X-H torsion
[ 10167 10162 10161 10158 ] final -148.67 input  -65.29 | X-H torsion
[ 10718 10713 10712 10709 ] final  118.03 input   66.30 | X-H torsion
[ 10763 10752 10751 10750 ] final  170.61 input  -60.55 | X-H torsion
[ 11005 11000 10999 10996 ] final  -52.23 input  -57.11 | X-H torsion

> <Gold.Protein.ActiveResidues>
 VAL166  LYS551  ARG553  GLY616  TRP617  ASP618  TYR619  PRO620  LYS621  CYS622 
 ASP623  PHE694  ASN695  SER759  ASP760  ASP761  ALA762  ILE779  LEU786  VAL792 
 PHE793  MET794  SER795  GLU796  ALA797  LYS798  CYS799  TRP800  GLU811  SER814 

> <Gold.Protein.RotatedAtoms>
  151.5689  133.3392  159.2985 H   0  0  0  0  0  0  0  0  0  0  0  0  # atno 6907 bound_to 6896
  150.8379  134.7662  159.6919 H   0  0  0  0  0  0  0  0  0  0  0  0  # atno 6908 bound_to 6896
  152.4452  134.5516  159.9920 H   0  0  0  0  0  0  0  0  0  0  0  0  # atno 6909 bound_to 6896
  145.5596  139.2302  143.2467 H   0  0  0  0  0  0  0  0  0  0  0  0  # atno 7974 bound_to 7965
  155.4619  140.0546  157.2990 H   0  0  0  0  0  0  0  0  0  0  0  0  # atno 8008 bound_to 7997
  154.4734  140.2050  155.9893 H   0  0  0  0  0  0  0  0  0  0  0  0  # atno 8009 bound_to 7997
  156.1092  140.3207  155.8054 H   0  0  0  0  0  0  0  0  0  0  0  0  # atno 8010 bound_to 7997
  139.7511  143.8517  152.2586 H   0  0  0  0  0  0  0  0  0  0  0  0  # atno 10167 bound_to 10162
  157.6057  131.1043  150.7699 H   0  0  0  0  0  0  0  0  0  0  0  0  # atno 10718 bound_to 10713
  154.4001  135.2755  155.2102 H   0  0  0  0  0  0  0  0  0  0  0  0  # atno 10763 bound_to 10752
  154.4131  135.6017  153.5968 H   0  0  0  0  0  0  0  0  0  0  0  0  # atno 10764 bound_to 10752
  152.9831  135.5954  154.4268 H   0  0  0  0  0  0  0  0  0  0  0  0  # atno 10765 bound_to 10752
  141.0913  133.6632  156.3994 H   0  0  0  0  0  0  0  0  0  0  0  0  # atno 11005 bound_to 11000
  146.1860  140.6421  142.9167 LP  0  0  0  0  0  0  0  0  0  0  0  0  # atno 17320 bound_to 7965
  144.7489  140.5141  143.6816 LP  0  0  0  0  0  0  0  0  0  0  0  0  # atno 17321 bound_to 7965
  139.8495  144.7171  150.9231 LP  0  0  0  0  0  0  0  0  0  0  0  0  # atno 17342 bound_to 10162
  140.7798  143.3911  151.1308 LP  0  0  0  0  0  0  0  0  0  0  0  0  # atno 17343 bound_to 10162
  156.8087  130.4945  149.5359 LP  0  0  0  0  0  0  0  0  0  0  0  0  # atno 17370 bound_to 10713
  156.1143  130.6063  151.0096 LP  0  0  0  0  0  0  0  0  0  0  0  0  # atno 17371 bound_to 10713
  140.5244  134.6273  157.5329 LP  0  0  0  0  0  0  0  0  0  0  0  0  # atno 17394 bound_to 11000
  139.9740  134.7246  155.9986 LP  0  0  0  0  0  0  0  0  0  0  0  0  # atno 17395 bound_to 11000

$$$$
