AV-unprocessed.smi:970|AV-procd|sdf|4291|dock3
  -GOLD-   22720 2193D 1   1.00000     0.00000
 Structure written by MMmdl.
 31 31  0  0  0  0  0  0  0  0  1 V2000
  150.2685  137.0497  154.7041 C   0  0  0  0  0  0  0  0  0  0  0  0
  149.5299  135.8501  154.3409 N   0  0  0  0  0  0  0  0  0  0  0  0
  149.5072  134.7279  155.0742 C   0  0  0  0  0  0  0  0  0  0  0  0
  150.1131  134.6089  156.1408 O   0  0  0  0  0  0  0  0  0  0  0  0
  148.6538  133.5733  154.5246 C   0  0  2  0  0  0  0  0  0  0  0  0
  149.5928  132.3973  154.2090 C   0  0  0  0  0  0  0  0  0  0  0  0
  147.9970  133.9690  153.2804 N   0  0  0  0  0  0  0  0  0  0  0  0
  146.9158  133.3752  152.7475 C   0  0  0  0  0  0  0  0  0  0  0  0
  146.3579  132.4100  153.2716 O   0  0  0  0  0  0  0  0  0  0  0  0
  146.3851  133.9762  151.4334 C   0  0  2  0  0  0  0  0  0  0  0  0
  145.8949  135.4303  151.5866 C   0  0  0  0  0  0  0  0  0  0  0  0
  145.3570  133.1224  150.8492 N   0  0  0  0  0  0  0  0  0  0  0  0
  145.3824  132.3874  149.7353 C   0  0  0  0  0  0  0  0  0  0  0  0
  144.2721  131.6958  149.5209 N   0  0  0  0  0  0  0  0  0  0  0  0
  143.5540  132.0709  150.6208 C   0  0  0  0  0  0  0  0  0  0  0  0
  144.1589  132.9192  151.4520 N   0  0  0  0  0  0  0  0  0  0  0  0
  150.1576  137.8050  153.9263 H   0  0  0  0  0  0  0  0  0  0  0  0
  151.3314  136.8331  154.8199 H   0  0  0  0  0  0  0  0  0  0  0  0
  149.8936  137.4660  155.6401 H   0  0  0  0  0  0  0  0  0  0  0  0
  149.0056  135.8725  153.4780 H   0  0  0  0  0  0  0  0  0  0  0  0
  147.9109  133.2624  155.2620 H   0  0  0  0  0  0  0  0  0  0  0  0
  150.1071  132.0499  155.1060 H   0  0  0  0  0  0  0  0  0  0  0  0
  150.3519  132.6672  153.4730 H   0  0  0  0  0  0  0  0  0  0  0  0
  149.0341  131.5506  153.8089 H   0  0  0  0  0  0  0  0  0  0  0  0
  148.3898  134.7616  152.7938 H   0  0  0  0  0  0  0  0  0  0  0  0
  147.2252  133.9890  150.7370 H   0  0  0  0  0  0  0  0  0  0  0  0
  146.6926  136.0802  151.9481 H   0  0  0  0  0  0  0  0  0  0  0  0
  145.0614  135.5080  152.2858 H   0  0  0  0  0  0  0  0  0  0  0  0
  145.5604  135.8291  150.6287 H   0  0  0  0  0  0  0  0  0  0  0  0
  146.2327  132.3540  149.0698 H   0  0  0  0  0  0  0  0  0  0  0  0
  142.5575  131.7038  150.8175 H   0  0  0  0  0  0  0  0  0  0  0  0
  1  2  1  0  0  0  0
  1 17  1  0  0  0  0
  1 18  1  0  0  0  0
  1 19  1  0  0  0  0
  2  3  1  0  0  0  0
  2 20  1  0  0  0  0
  3  4  2  0  0  0  0
  3  5  1  0  0  0  0
  5  6  1  0  0  0  0
  5  7  1  0  0  0  0
  5 21  1  0  0  0  0
  6 22  1  0  0  0  0
  6 23  1  0  0  0  0
  6 24  1  0  0  0  0
  7  8  1  0  0  0  0
  7 25  1  0  0  0  0
  8  9  2  0  0  0  0
  8 10  1  0  0  0  0
 10 11  1  0  0  0  0
 10 12  1  0  0  0  0
 10 26  1  0  0  0  0
 11 27  1  0  0  0  0
 11 28  1  0  0  0  0
 11 29  1  0  0  0  0
 12 16  1  0  0  0  0
 12 13  1  0  0  0  0
 13 14  2  0  0  0  0
 13 30  1  0  0  0  0
 14 15  1  0  0  0  0
 15 16  2  0  0  0  0
 15 31  1  0  0  0  0
M  END
> <s_m_source_file>
AV-unprocessed.smi

> <i_m_source_file_index>
970

> <i_lp_mmshare_version>
43012

> <i_f3d_flags>
0

> <s_epik_input>
W0NIM11bTkhdQyg9TylbQ0BIXShbQ0gzXSlbTkhdQyg9TylbQ0BIXShbQ0gzXSluMVtjSF1uW2NIXW4x

> <s_epik_cmdline>
J2VwaWtfcHl0aG9uJywgJy1waCcsICc3LjAnLCAnLXRuJywgJzgnLCAnLW1hJywgJzIwMCcsICctbWV0YWxfYmluZGluZycsICctaW1hZScsICc8aW5maWxlLm1hZT4nLCAnLW9tYWUnLCAnPG91dGZpbGUubWFlPic=

> <r_lp_tautomer_probability>
1

> <r_epik_Ionization_Penalty>
1.07271e-05

> <r_epik_Ionization_Penalty_Charging>
0

> <r_epik_Ionization_Penalty_Neutral>
1.07271e-05

> <r_epik_State_Penalty>
-0

> <r_epik_Charging_Adjusted_Penalty>
0

> <i_epik_Tot_Q>
0

> <i_epik_Tot_abs_Q>
0

> <r_epik_Metal_State_Penalty>
-0

> <b_epik_Metal_Only>
0

> <s_lp_Force_Field>
OPLS_2005

> <r_lp_Energy>
8.61602

> <b_lp_Chiralities_Consistent>
1

> <s_lp_Variant>
AV-unprocessed.smi:970-1

> <Gold.Version>
5.8.1

> <Gold.Id.Protein>
6NUR|6NUR_protein|mol2

> <Gold.PLP.Fitness>
35.7346

> <Gold.PLP.PLP>
-25.9436

> <Gold.PLP.part.hbond>
-3.3159

> <Gold.PLP.part.metal>
0.0000

> <Gold.PLP.part.buried>
-2.0789

> <Gold.PLP.part.nonpolar>
-20.6370

> <Gold.PLP.part.repulsive>
0.5048

> <Gold.PLP.ligand.clash>
0.0000

> <Gold.PLP.ligand.torsion>
0.4692

> <Gold.PLP.Chemscore.Hbond>
2.5380

> <Gold.PLP.Chemscore.CHOScore>
1.0000

> <Gold.PLP.Chemscore.Metal>
0.0000

> <Gold.Chemscore.Hbonds>
donor molecule, donor type, donor heavy atom, donor atom, acceptor molecule, acceptor atom, score
      L1  H     2    20       P1  7948  0.94
      L1  H     7    25       P1  7948  1.00
      P1  H 10785 10796       L1    14  0.57
      L1  C    15    31       P1 10952  0.97

> <Gold.PLP.Chemscore.Internal.Correction>
0.1154

> <Gold.Rescore>
     Score         DG    S(hbond)    S(metal)    S(lipo)     H(rot)  DE(clash)    DE(int)     intcor
      9.59     -10.41       2.55        0.00      25.89       2.59       0.00       0.83       ----

> <Gold.Chemscore.Fitness>
9.5873

> <Gold.Chemscore.DG>
-10.4125

> <Gold.Chemscore.ZeroCoef>
-5.4800

> <Gold.Chemscore.Hbond>
2.5515

> <Gold.Chemscore.Metal>
0.0000

> <Gold.Chemscore.Lipo>
25.8854

> <Gold.Chemscore.Internal_Hbond>
0.0000

> <Gold.Chemscore.DEClash>
0.0000

> <Gold.Chemscore.DEInternal>
0.8252

> <Gold.Chemscore.Rot>
2.5852

> <Gold.Chemscore.Internal.Correction>
   9.000000E+99

> <Gold.Chemscore.Hbonds>
donor molecule, donor type, donor heavy atom, donor atom, acceptor molecule, acceptor atom, score
      L1  H     2    20       P1  7948  0.83
      L1  H     7    25       P1  7948  0.45
      P1  H 10785 10796       L1    14  0.27

> <Gold.Chemscore.Hbond.Weighted>
-8.5220

> <Gold.Chemscore.Metal.Weighted>
-0.0000

> <Gold.Chemscore.Lipo.Weighted>
-3.0286

> <Gold.Chemscore.Internal_Hbond.Weighted>
0.0000

> <Gold.Chemscore.DEClash.Weighted>
0.0000

> <Gold.Chemscore.DEInternal.Weighted>
0.8252

> <Gold.Chemscore.Rot.Weighted>
6.6182

> <Gold.Chemscore.Internal.Correction.Weighted>
   9.000000E+99

> <Gold.Protein.RotatedTorsions>
[ 6907 6896 6895 6894 ] final  129.83 input  -60.11 | X-H torsion
[ 7974 7965 7964 7962 ] final  -81.34 input  175.53 | X-H torsion
[ 8008 7997 7996 7995 ] final  -13.51 input   59.86 | X-H torsion
[ 10167 10162 10161 10158 ] final   36.84 input  -65.29 | X-H torsion
[ 10718 10713 10712 10709 ] final -103.74 input   66.30 | X-H torsion
[ 10763 10752 10751 10750 ] final  -96.07 input  -60.55 | X-H torsion
[ 11005 11000 10999 10996 ] final -153.88 input  -57.11 | X-H torsion

> <Gold.Protein.ActiveResidues>
 VAL166  LYS551  ARG553  GLY616  TRP617  ASP618  TYR619  PRO620  LYS621  CYS622 
 ASP623  PHE694  ASN695  SER759  ASP760  ASP761  ALA762  ILE779  LEU786  VAL792 
 PHE793  MET794  SER795  GLU796  ALA797  LYS798  CYS799  TRP800  GLU811  SER814 

> <Gold.Protein.RotatedAtoms>
  152.3586  133.6268  159.5997 H   0  0  0  0  0  0  0  0  0  0  0  0  # atno 6907 bound_to 6896
  150.7585  133.9460  159.3480 H   0  0  0  0  0  0  0  0  0  0  0  0  # atno 6908 bound_to 6896
  151.7302  135.0877  160.0350 H   0  0  0  0  0  0  0  0  0  0  0  0  # atno 6909 bound_to 6896
  145.5480  140.9500  143.1515 H   0  0  0  0  0  0  0  0  0  0  0  0  # atno 7974 bound_to 7965
  154.5286  140.2247  155.8845 H   0  0  0  0  0  0  0  0  0  0  0  0  # atno 8008 bound_to 7997
  156.1740  140.3115  155.8989 H   0  0  0  0  0  0  0  0  0  0  0  0  # atno 8009 bound_to 7997
  155.3499  140.0455  157.3036 H   0  0  0  0  0  0  0  0  0  0  0  0  # atno 8010 bound_to 7997
  140.4089  144.1620  150.6138 H   0  0  0  0  0  0  0  0  0  0  0  0  # atno 10167 bound_to 10162
  156.0277  130.5482  150.7296 H   0  0  0  0  0  0  0  0  0  0  0  0  # atno 10718 bound_to 10713
  154.7206  135.5097  153.8806 H   0  0  0  0  0  0  0  0  0  0  0  0  # atno 10763 bound_to 10752
  153.0859  135.6645  153.9959 H   0  0  0  0  0  0  0  0  0  0  0  0  # atno 10764 bound_to 10752
  153.9783  135.3031  155.3401 H   0  0  0  0  0  0  0  0  0  0  0  0  # atno 10765 bound_to 10752
  140.7033  134.3913  157.5207 H   0  0  0  0  0  0  0  0  0  0  0  0  # atno 11005 bound_to 11000
  144.7544  139.7113  143.7260 LP  0  0  0  0  0  0  0  0  0  0  0  0  # atno 17320 bound_to 7965
  146.1936  139.5190  142.9789 LP  0  0  0  0  0  0  0  0  0  0  0  0  # atno 17321 bound_to 7965
  140.4659  143.2431  151.9156 LP  0  0  0  0  0  0  0  0  0  0  0  0  # atno 17342 bound_to 10162
  139.4783  144.5419  151.8515 LP  0  0  0  0  0  0  0  0  0  0  0  0  # atno 17343 bound_to 10162
  157.4892  131.0909  151.0447 LP  0  0  0  0  0  0  0  0  0  0  0  0  # atno 17370 bound_to 10713
  157.0858  130.5922  149.5429 LP  0  0  0  0  0  0  0  0  0  0  0  0  # atno 17371 bound_to 10713
  139.8891  134.8839  156.2440 LP  0  0  0  0  0  0  0  0  0  0  0  0  # atno 17394 bound_to 11000
  141.0145  133.7076  156.1166 LP  0  0  0  0  0  0  0  0  0  0  0  0  # atno 17395 bound_to 11000

$$$$
