AV-unprocessed.smi:2238|AV-procd|sdf|9055|dock8
  -GOLD-   2272012263D 1   1.00000     0.00000
 Structure written by MMmdl.
 38 39  0  0  0  0  0  0  0  0  1 V2000
  154.5479  142.6241  163.9871 C   0  0  0  0  0  0  0  0  0  0  0  0
  154.0003  142.2605  162.6222 C   0  0  0  0  0  0  0  0  0  0  0  0
  154.2902  141.0064  162.0501 C   0  0  0  0  0  0  0  0  0  0  0  0
  153.7798  140.6791  160.7810 C   0  0  0  0  0  0  0  0  0  0  0  0
  152.9795  141.6021  160.0800 C   0  0  0  0  0  0  0  0  0  0  0  0
  152.3658  141.1739  158.5228 Cl  0  0  0  0  0  0  0  0  0  0  0  0
  152.6791  142.8641  160.6394 C   0  0  0  0  0  0  0  0  0  0  0  0
  151.8890  143.7159  159.8954 O   0  0  0  0  0  0  0  0  0  0  0  0
  151.5830  144.9963  160.4305 C   0  0  0  0  0  0  0  0  0  0  0  0
  150.1368  145.3578  160.0487 C   0  0  1  0  0  0  0  0  0  0  0  0
  149.8994  144.8939  158.7357 O   0  0  0  0  0  0  0  0  0  0  0  0
  149.0696  144.7065  160.9593 C   0  0  0  0  0  0  0  0  0  0  0  0
  147.6893  145.0627  160.5841 N   0  0  0  0  0  0  0  0  0  0  0  0
  146.8742  144.0200  160.0989 C   0  0  0  0  0  0  0  0  0  0  0  0
  145.6465  144.2233  159.7397 N   0  0  0  0  0  0  0  0  0  0  0  0
  145.1047  145.5091  159.8280 C   0  0  0  0  0  0  0  0  0  0  0  0
  143.6617  145.6900  159.4043 C   0  0  0  0  0  0  0  0  0  0  0  0
  145.8470  146.5465  160.2783 C   0  0  0  0  0  0  0  0  0  0  0  0
  147.2387  146.3479  160.6838 C   0  0  0  0  0  0  0  0  0  0  0  0
  147.9494  147.2699  161.0846 O   0  0  0  0  0  0  0  0  0  0  0  0
  153.1995  143.1842  161.9197 C   0  0  0  0  0  0  0  0  0  0  0  0
  154.9975  141.7604  164.4780 H   0  0  0  0  0  0  0  0  0  0  0  0
  153.7513  143.0017  164.6288 H   0  0  0  0  0  0  0  0  0  0  0  0
  155.3095  143.3985  163.8929 H   0  0  0  0  0  0  0  0  0  0  0  0
  154.9035  140.2922  162.5801 H   0  0  0  0  0  0  0  0  0  0  0  0
  154.0036  139.7166  160.3446 H   0  0  0  0  0  0  0  0  0  0  0  0
  151.7159  145.0251  161.5134 H   0  0  0  0  0  0  0  0  0  0  0  0
  152.2733  145.7150  159.9889 H   0  0  0  0  0  0  0  0  0  0  0  0
  150.0138  146.4412  160.0542 H   0  0  0  0  0  0  0  0  0  0  0  0
  149.4449  145.5713  158.2579 H   0  0  0  0  0  0  0  0  0  0  0  0
  149.1680  143.6201  160.9133 H   0  0  0  0  0  0  0  0  0  0  0  0
  149.2798  144.9559  162.0015 H   0  0  0  0  0  0  0  0  0  0  0  0
  147.3452  143.0367  160.0533 H   0  0  0  0  0  0  0  0  0  0  0  0
  143.5631  146.5507  158.7421 H   0  0  0  0  0  0  0  0  0  0  0  0
  143.0308  145.8542  160.2782 H   0  0  0  0  0  0  0  0  0  0  0  0
  143.2915  144.8112  158.8750 H   0  0  0  0  0  0  0  0  0  0  0  0
  145.4127  147.5339  160.3418 H   0  0  0  0  0  0  0  0  0  0  0  0
  152.9979  144.1369  162.3857 H   0  0  0  0  0  0  0  0  0  0  0  0
  1  2  1  0  0  0  0
  1 22  1  0  0  0  0
  1 23  1  0  0  0  0
  1 24  1  0  0  0  0
  2 21  1  0  0  0  0
  2  3  2  0  0  0  0
  3  4  1  0  0  0  0
  3 25  1  0  0  0  0
  4  5  2  0  0  0  0
  4 26  1  0  0  0  0
  5  6  1  0  0  0  0
  5  7  1  0  0  0  0
  7  8  1  0  0  0  0
  7 21  2  0  0  0  0
  8  9  1  0  0  0  0
  9 10  1  0  0  0  0
  9 27  1  0  0  0  0
  9 28  1  0  0  0  0
 10 11  1  0  0  0  0
 10 12  1  0  0  0  0
 10 29  1  0  0  0  0
 11 30  1  0  0  0  0
 12 13  1  0  0  0  0
 12 31  1  0  0  0  0
 12 32  1  0  0  0  0
 13 19  1  0  0  0  0
 13 14  1  0  0  0  0
 14 15  2  0  0  0  0
 14 33  1  0  0  0  0
 15 16  1  0  0  0  0
 16 17  1  0  0  0  0
 16 18  2  0  0  0  0
 17 34  1  0  0  0  0
 17 35  1  0  0  0  0
 17 36  1  0  0  0  0
 18 19  1  0  0  0  0
 18 37  1  0  0  0  0
 19 20  2  0  0  0  0
 21 38  1  0  0  0  0
M  END
> <s_m_source_file>
AV-unprocessed.smi

> <i_m_source_file_index>
2238

> <i_lp_mmshare_version>
43012

> <i_f3d_flags>
0

> <s_epik_input>
W0NIM11jMVtjSF1bY0hdYyhDbCljKFtjSF0xKU9bQ0gyXVtDQEhdKFtPSF0pW0NIMl1uMltjSF1uYyhbQ0gzXSlbY0hdYzI9Tw==

> <s_epik_cmdline>
J2VwaWtfcHl0aG9uJywgJy1waCcsICc3LjAnLCAnLXRuJywgJzgnLCAnLW1hJywgJzIwMCcsICctbWV0YWxfYmluZGluZycsICctaW1hZScsICc8aW5maWxlLm1hZT4nLCAnLW9tYWUnLCAnPG91dGZpbGUubWFlPic=

> <r_lp_tautomer_probability>
1

> <r_epik_Ionization_Penalty>
1.78029e-05

> <r_epik_Ionization_Penalty_Charging>
3.78421e-08

> <r_epik_Ionization_Penalty_Neutral>
1.7765e-05

> <r_epik_State_Penalty>
-0

> <r_epik_Charging_Adjusted_Penalty>
3.78421e-08

> <i_epik_Tot_Q>
0

> <i_epik_Tot_abs_Q>
0

> <r_epik_Metal_State_Penalty>
-0

> <b_epik_Metal_Only>
0

> <s_lp_Force_Field>
OPLS_2005

> <r_lp_Energy>
22.1977

> <b_lp_Chiralities_Consistent>
1

> <s_lp_Variant>
AV-unprocessed.smi:2238-2

> <Gold.Version>
5.8.1

> <Gold.Id.Protein>
6NUR|6NUR_protein|mol2

> <Gold.PLP.Fitness>
46.5932

> <Gold.PLP.PLP>
-44.5851

> <Gold.PLP.part.hbond>
-3.2088

> <Gold.PLP.part.metal>
0.0000

> <Gold.PLP.part.buried>
-2.8987

> <Gold.PLP.part.nonpolar>
-36.9860

> <Gold.PLP.part.repulsive>
0.3574

> <Gold.PLP.ligand.clash>
0.0000

> <Gold.PLP.ligand.torsion>
0.5032

> <Gold.PLP.Chemscore.Hbond>
0.9920

> <Gold.PLP.Chemscore.CHOScore>
0.0000

> <Gold.PLP.Chemscore.Metal>
0.0000

> <Gold.Chemscore.Hbonds>
donor molecule, donor type, donor heavy atom, donor atom, acceptor molecule, acceptor atom, score
      L1  H    11    30       P1  8029  0.90

> <Gold.PLP.Chemscore.Internal.Correction>
0.0385

> <Gold.Rescore>
     Score         DG    S(hbond)    S(metal)    S(lipo)     H(rot)  DE(clash)    DE(int)     intcor
      9.30     -15.42       0.75        0.00     117.60       2.47       4.63       1.50       ----

> <Gold.Chemscore.Fitness>
9.2970

> <Gold.Chemscore.DG>
-15.4239

> <Gold.Chemscore.ZeroCoef>
-5.4800

> <Gold.Chemscore.Hbond>
0.7523

> <Gold.Chemscore.Metal>
0.0000

> <Gold.Chemscore.Lipo>
117.5993

> <Gold.Chemscore.Internal_Hbond>
0.0000

> <Gold.Chemscore.DEClash>
4.6254

> <Gold.Chemscore.DEInternal>
1.5015

> <Gold.Chemscore.Rot>
2.4718

> <Gold.Chemscore.Internal.Correction>
   9.000000E+99

> <Gold.Chemscore.Hbonds>
donor molecule, donor type, donor heavy atom, donor atom, acceptor molecule, acceptor atom, score
      L1  H    11    30       P1  8029  0.66

> <Gold.Chemscore.Hbond.Weighted>
-2.5126

> <Gold.Chemscore.Metal.Weighted>
-0.0000

> <Gold.Chemscore.Lipo.Weighted>
-13.7591

> <Gold.Chemscore.Internal_Hbond.Weighted>
0.0000

> <Gold.Chemscore.DEClash.Weighted>
4.6254

> <Gold.Chemscore.DEInternal.Weighted>
1.5015

> <Gold.Chemscore.Rot.Weighted>
6.3279

> <Gold.Chemscore.Internal.Correction.Weighted>
   9.000000E+99

> <Gold.Protein.RotatedTorsions>
[ 6907 6896 6895 6894 ] final   12.07 input  -60.11 | X-H torsion
[ 7974 7965 7964 7962 ] final  -77.96 input  175.53 | X-H torsion
[ 8008 7997 7996 7995 ] final  -89.79 input   59.86 | X-H torsion
[ 10167 10162 10161 10158 ] final  170.61 input  -65.29 | X-H torsion
[ 10718 10713 10712 10709 ] final -123.74 input   66.30 | X-H torsion
[ 10763 10752 10751 10750 ] final  150.38 input  -60.55 | X-H torsion
[ 11005 11000 10999 10996 ] final  -24.30 input  -57.11 | X-H torsion

> <Gold.Protein.ActiveResidues>
 VAL166  LYS551  ARG553  GLY616  TRP617  ASP618  TYR619  PRO620  LYS621  CYS622 
 ASP623  PHE694  ASN695  SER759  ASP760  ASP761  ALA762  ILE779  LEU786  VAL792 
 PHE793  MET794  SER795  GLU796  ALA797  LYS798  CYS799  TRP800  GLU811  SER814 

> <Gold.Protein.RotatedAtoms>
  151.7645  135.0802  160.0350 H   0  0  0  0  0  0  0  0  0  0  0  0  # atno 6907 bound_to 6896
  152.3330  133.5976  159.5831 H   0  0  0  0  0  0  0  0  0  0  0  0  # atno 6908 bound_to 6896
  150.7434  133.9754  159.3601 H   0  0  0  0  0  0  0  0  0  0  0  0  # atno 6909 bound_to 6896
  145.5928  140.9426  143.1283 H   0  0  0  0  0  0  0  0  0  0  0  0  # atno 7974 bound_to 7965
  154.6907  140.0538  157.0361 H   0  0  0  0  0  0  0  0  0  0  0  0  # atno 8008 bound_to 7997
  155.0820  140.3210  155.4580 H   0  0  0  0  0  0  0  0  0  0  0  0  # atno 8009 bound_to 7997
  156.2727  140.2063  156.5948 H   0  0  0  0  0  0  0  0  0  0  0  0  # atno 8010 bound_to 7997
  139.5023  144.3577  151.9857 H   0  0  0  0  0  0  0  0  0  0  0  0  # atno 10167 bound_to 10162
  156.1528  130.6546  150.9938 H   0  0  0  0  0  0  0  0  0  0  0  0  # atno 10718 bound_to 10713
  154.0866  135.2855  155.3280 H   0  0  0  0  0  0  0  0  0  0  0  0  # atno 10763 bound_to 10752
  154.6648  135.5321  153.8067 H   0  0  0  0  0  0  0  0  0  0  0  0  # atno 10764 bound_to 10752
  153.0429  135.6543  154.1037 H   0  0  0  0  0  0  0  0  0  0  0  0  # atno 10765 bound_to 10752
  140.8833  133.7639  156.0328 H   0  0  0  0  0  0  0  0  0  0  0  0  # atno 11005 bound_to 11000
  144.7344  139.7630  143.7335 LP  0  0  0  0  0  0  0  0  0  0  0  0  # atno 17320 bound_to 7965
  146.1634  139.4757  142.9973 LP  0  0  0  0  0  0  0  0  0  0  0  0  # atno 17321 bound_to 7965
  140.3014  144.3643  150.6059 LP  0  0  0  0  0  0  0  0  0  0  0  0  # atno 17342 bound_to 10162
  140.5871  143.2169  151.7323 LP  0  0  0  0  0  0  0  0  0  0  0  0  # atno 17343 bound_to 10162
  157.6671  131.0869  150.7703 LP  0  0  0  0  0  0  0  0  0  0  0  0  # atno 17370 bound_to 10713
  156.7770  130.4847  149.5408 LP  0  0  0  0  0  0  0  0  0  0  0  0  # atno 17371 bound_to 10713
  140.8436  134.3038  157.5304 LP  0  0  0  0  0  0  0  0  0  0  0  0  # atno 17394 bound_to 11000
  139.8722  134.9429  156.3838 LP  0  0  0  0  0  0  0  0  0  0  0  0  # atno 17395 bound_to 11000

$$$$
