AV-unprocessed.smi:2437|AV-procd|sdf|9594|dock1
  -GOLD-   2272013223D 1   1.00000     0.00000
 Structure written by MMmdl.
 34 35  0  0  0  0  0  0  0  0  3 V2000
  150.8556  141.7354  158.8728 O   0  0  0  0  0  0  0  0  0  0  0  0
  150.3942  142.2313  157.8437 C   0  0  0  0  0  0  0  0  0  0  0  0
  149.4715  141.4238  156.9189 C   0  0  0  0  0  0  0  0  0  0  0  0
  149.8370  140.0005  156.8201 N   0  0  0  0  0  0  0  0  0  0  0  0
  149.3940  139.1533  157.8550 C   0  0  0  0  0  0  0  0  0  0  0  0
  149.6763  137.8358  157.8722 C   0  0  0  0  0  0  0  0  0  0  0  0
  149.2129  136.9807  158.9430 N   0  3  0  0  0  0  0  0  0  0  0  0
  149.5868  135.8125  158.9666 O   0  0  0  0  0  0  0  0  0  0  0  0
  148.4601  137.4461  159.7936 O   0  5  0  0  0  0  0  0  0  0  0  0
  150.4647  137.3009  156.7791 C   0  0  0  0  0  0  0  0  0  0  0  0
  150.8930  138.1061  155.7871 C   0  0  0  0  0  0  0  0  0  0  0  0
  150.5835  139.5396  155.7699 C   0  0  0  0  0  0  0  0  0  0  0  0
  150.9726  140.2807  154.8672 O   0  0  0  0  0  0  0  0  0  0  0  0
  150.6425  143.4932  157.4626 N   0  0  0  0  0  0  0  0  0  0  0  0
  151.4949  144.4372  158.1809 C   0  0  0  0  0  0  0  0  0  0  0  0
  152.8963  143.8510  158.4489 C   0  0  0  0  0  0  0  0  0  0  0  0
  152.9570  143.5726  159.9510 C   0  0  0  0  0  0  0  0  0  0  0  0
  152.0487  144.6337  160.5632 C   0  0  0  0  0  0  0  0  0  0  0  0
  150.8997  144.7705  159.5627 C   0  0  0  0  0  0  0  0  0  0  0  0
  148.4482  141.5299  157.2817 H   0  0  0  0  0  0  0  0  0  0  0  0
  149.4700  141.8824  155.9282 H   0  0  0  0  0  0  0  0  0  0  0  0
  148.8208  139.6486  158.6253 H   0  0  0  0  0  0  0  0  0  0  0  0
  150.7193  136.2516  156.7490 H   0  0  0  0  0  0  0  0  0  0  0  0
  151.4807  137.6870  154.9835 H   0  0  0  0  0  0  0  0  0  0  0  0
  150.2163  143.8233  156.6088 H   0  0  0  0  0  0  0  0  0  0  0  0
  151.5906  145.3552  157.5976 H   0  0  0  0  0  0  0  0  0  0  0  0
  153.1182  142.9599  157.8603 H   0  0  0  0  0  0  0  0  0  0  0  0
  153.6493  144.5971  158.1922 H   0  0  0  0  0  0  0  0  0  0  0  0
  152.5550  142.5798  160.1583 H   0  0  0  0  0  0  0  0  0  0  0  0
  153.9729  143.6105  160.3449 H   0  0  0  0  0  0  0  0  0  0  0  0
  151.7064  144.3682  161.5638 H   0  0  0  0  0  0  0  0  0  0  0  0
  152.5879  145.5793  160.6351 H   0  0  0  0  0  0  0  0  0  0  0  0
  150.4526  145.7648  159.5898 H   0  0  0  0  0  0  0  0  0  0  0  0
  150.1152  144.0590  159.8263 H   0  0  0  0  0  0  0  0  0  0  0  0
  1  2  2  0  0  0  0
  2  3  1  0  0  0  0
  2 14  1  0  0  0  0
  3  4  1  0  0  0  0
  3 20  1  0  0  0  0
  3 21  1  0  0  0  0
  4 12  1  0  0  0  0
  4  5  1  0  0  0  0
  5  6  2  0  0  0  0
  5 22  1  0  0  0  0
  6  7  1  0  0  0  0
  6 10  1  0  0  0  0
  7  8  2  0  0  0  0
  7  9  1  0  0  0  0
 10 11  2  0  0  0  0
 10 23  1  0  0  0  0
 11 12  1  0  0  0  0
 11 24  1  0  0  0  0
 12 13  2  0  0  0  0
 14 15  1  0  0  0  0
 14 25  1  0  0  0  0
 15 19  1  0  0  0  0
 15 16  1  0  0  0  0
 15 26  1  0  0  0  0
 16 17  1  0  0  0  0
 16 27  1  0  0  0  0
 16 28  1  0  0  0  0
 17 18  1  0  0  0  0
 17 29  1  0  0  0  0
 17 30  1  0  0  0  0
 18 19  1  0  0  0  0
 18 31  1  0  0  0  0
 18 32  1  0  0  0  0
 19 33  1  0  0  0  0
 19 34  1  0  0  0  0
M  CHG  1   7   1
M  CHG  1   9  -1
M  END
> <s_m_source_file>
AV-unprocessed.smi

> <i_m_source_file_index>
2437

> <i_lp_mmshare_version>
43012

> <i_f3d_flags>
0

> <s_epik_input>
W0NIMl0xW0NIMl1bQ0gyXVtDSDJdW0NIXTFbTkhdQyg9TylbQ0gyXW4yW2NIXWMoW04rXSg9TylbTy1dKVtjSF1bY0hdYzI9Tw==

> <s_epik_cmdline>
J2VwaWtfcHl0aG9uJywgJy1waCcsICc3LjAnLCAnLXRuJywgJzgnLCAnLW1hJywgJzIwMCcsICctbWV0YWxfYmluZGluZycsICctaW1hZScsICc8aW5maWxlLm1hZT4nLCAnLW9tYWUnLCAnPG91dGZpbGUubWFlPic=

> <r_lp_tautomer_probability>
1

> <r_epik_Ionization_Penalty>
1.93821e-08

> <r_epik_Ionization_Penalty_Charging>
8.03436e-11

> <r_epik_Ionization_Penalty_Neutral>
1.93017e-08

> <r_epik_State_Penalty>
-0

> <r_epik_Charging_Adjusted_Penalty>
8.03436e-11

> <i_epik_Tot_Q>
0

> <i_epik_Tot_abs_Q>
2

> <r_epik_Metal_State_Penalty>
-0

> <b_epik_Metal_Only>
0

> <s_lp_Force_Field>
OPLS_2005

> <r_lp_Energy>
29.2975

> <b_lp_Chiralities_Consistent>
1

> <s_lp_Variant>
AV-unprocessed.smi:2437-1

> <Gold.Version>
5.8.1

> <Gold.Id.Protein>
6NUR|6NUR_protein|mol2

> <Gold.PLP.Fitness>
45.1792

> <Gold.PLP.PLP>
-35.5833

> <Gold.PLP.part.hbond>
-5.4391

> <Gold.PLP.part.metal>
0.0000

> <Gold.PLP.part.buried>
-6.5728

> <Gold.PLP.part.nonpolar>
-24.6607

> <Gold.PLP.part.repulsive>
0.0610

> <Gold.PLP.ligand.clash>
0.0000

> <Gold.PLP.ligand.torsion>
0.6957

> <Gold.PLP.Chemscore.Hbond>
3.6552

> <Gold.PLP.Chemscore.CHOScore>
0.0000

> <Gold.PLP.Chemscore.Metal>
0.0000

> <Gold.Chemscore.Hbonds>
donor molecule, donor type, donor heavy atom, donor atom, acceptor molecule, acceptor atom, score
      L1  H    14    25       P1  8028  1.00
      P1  H  6896  6907       L1     8  1.00
      P1  H  6931  6943       L1     9  0.13
      P1  H  6934  6947       L1     9  0.14
      P1  H  7989  7998       L1    13  1.00

> <Gold.PLP.Chemscore.Internal.Correction>
0.0217

> <Gold.Rescore>
     Score         DG    S(hbond)    S(metal)    S(lipo)     H(rot)  DE(clash)    DE(int)     intcor
     21.04     -23.09       3.82        0.00      76.27       1.58       0.16       1.89       ----

> <Gold.Chemscore.Fitness>
21.0380

> <Gold.Chemscore.DG>
-23.0931

> <Gold.Chemscore.ZeroCoef>
-5.4800

> <Gold.Chemscore.Hbond>
3.8151

> <Gold.Chemscore.Metal>
0.0000

> <Gold.Chemscore.Lipo>
76.2690

> <Gold.Chemscore.Internal_Hbond>
0.0000

> <Gold.Chemscore.DEClash>
0.1611

> <Gold.Chemscore.DEInternal>
1.8940

> <Gold.Chemscore.Rot>
1.5831

> <Gold.Chemscore.Internal.Correction>
   9.000000E+99

> <Gold.Chemscore.Hbonds>
donor molecule, donor type, donor heavy atom, donor atom, acceptor molecule, acceptor atom, score
      L1  H    14    25       P1  8028  0.96
      P1  H  6896  6907       L1     8  1.00
      P1  H  6931  6943       L1     9  0.13
      P1  H  6934  6947       L1     9  0.14
      P1  H  7989  7998       L1    13  0.99

> <Gold.Chemscore.Hbond.Weighted>
-12.7423

> <Gold.Chemscore.Metal.Weighted>
-0.0000

> <Gold.Chemscore.Lipo.Weighted>
-8.9235

> <Gold.Chemscore.Internal_Hbond.Weighted>
0.0000

> <Gold.Chemscore.DEClash.Weighted>
0.1611

> <Gold.Chemscore.DEInternal.Weighted>
1.8940

> <Gold.Chemscore.Rot.Weighted>
4.0527

> <Gold.Chemscore.Internal.Correction.Weighted>
   9.000000E+99

> <Gold.Protein.RotatedTorsions>
[ 6907 6896 6895 6894 ] final  -70.37 input  -60.11 | X-H torsion
[ 7974 7965 7964 7962 ] final -171.07 input  175.53 | X-H torsion
[ 8008 7997 7996 7995 ] final -108.39 input   59.86 | X-H torsion
[ 10167 10162 10161 10158 ] final -166.44 input  -65.29 | X-H torsion
[ 10718 10713 10712 10709 ] final  168.46 input   66.30 | X-H torsion
[ 10763 10752 10751 10750 ] final -114.74 input  -60.55 | X-H torsion
[ 11005 11000 10999 10996 ] final -152.84 input  -57.11 | X-H torsion

> <Gold.Protein.ActiveResidues>
 VAL166  LYS551  ARG553  GLY616  TRP617  ASP618  TYR619  PRO620  LYS621  CYS622 
 ASP623  PHE694  ASN695  SER759  ASP760  ASP761  ALA762  ILE779  LEU786  VAL792 
 PHE793  MET794  SER795  GLU796  ALA797  LYS798  CYS799  TRP800  GLU811  SER814 

> <Gold.Protein.RotatedAtoms>
  150.7261  134.5462  159.5771 H   0  0  0  0  0  0  0  0  0  0  0  0  # atno 6907 bound_to 6896
  152.2961  134.7663  160.0377 H   0  0  0  0  0  0  0  0  0  0  0  0  # atno 6908 bound_to 6896
  151.8260  133.3366  159.3635 H   0  0  0  0  0  0  0  0  0  0  0  0  # atno 6909 bound_to 6896
  144.7161  140.1977  143.6341 H   0  0  0  0  0  0  0  0  0  0  0  0  # atno 7974 bound_to 7965
  154.9435  140.0402  157.2109 H   0  0  0  0  0  0  0  0  0  0  0  0  # atno 8008 bound_to 7997
  154.8046  140.2857  155.5875 H   0  0  0  0  0  0  0  0  0  0  0  0  # atno 8009 bound_to 7997
  156.2965  140.2548  156.2922 H   0  0  0  0  0  0  0  0  0  0  0  0  # atno 8010 bound_to 7997
  139.6114  144.0806  152.1846 H   0  0  0  0  0  0  0  0  0  0  0  0  # atno 10167 bound_to 10162
  157.0368  131.0275  151.2727 H   0  0  0  0  0  0  0  0  0  0  0  0  # atno 10718 bound_to 10713
  154.8452  135.4407  154.1553 H   0  0  0  0  0  0  0  0  0  0  0  0  # atno 10763 bound_to 10752
  153.2704  135.6944  153.7493 H   0  0  0  0  0  0  0  0  0  0  0  0  # atno 10764 bound_to 10752
  153.6736  135.3415  155.3135 H   0  0  0  0  0  0  0  0  0  0  0  0  # atno 10765 bound_to 10752
  140.7146  134.3795  157.5193 H   0  0  0  0  0  0  0  0  0  0  0  0  # atno 11005 bound_to 11000
  145.8709  139.2271  143.1662 LP  0  0  0  0  0  0  0  0  0  0  0  0  # atno 17320 bound_to 7965
  146.0086  140.8456  142.9982 LP  0  0  0  0  0  0  0  0  0  0  0  0  # atno 17321 bound_to 7965
  140.0426  144.5995  150.7399 LP  0  0  0  0  0  0  0  0  0  0  0  0  # atno 17342 bound_to 10162
  140.7322  143.2703  151.3911 LP  0  0  0  0  0  0  0  0  0  0  0  0  # atno 17343 bound_to 10162
  157.5135  130.7953  149.7731 LP  0  0  0  0  0  0  0  0  0  0  0  0  # atno 17370 bound_to 10713
  156.0051  130.3859  150.2460 LP  0  0  0  0  0  0  0  0  0  0  0  0  # atno 17371 bound_to 10713
  139.8863  134.8913  156.2593 LP  0  0  0  0  0  0  0  0  0  0  0  0  # atno 17394 bound_to 11000
  141.0055  133.7126  156.1028 LP  0  0  0  0  0  0  0  0  0  0  0  0  # atno 17395 bound_to 11000

$$$$
