AV-unprocessed.smi:2896|AV-procd|sdf|11138|dock3
  -GOLD-   2272016 13D 1   1.00000     0.00000
 Structure written by MMmdl.
 49 50  0  0  0  0  0  0  0  0  1 V2000
  146.7811  139.1947  155.5433 C   0  0  0  0  0  0  0  0  0  0  0  0
  147.2739  139.8226  154.2271 C   0  0  2  0  0  0  0  0  0  0  0  0
  147.5860  138.7546  153.1543 C   0  0  0  0  0  0  0  0  0  0  0  0
  146.4286  137.9176  152.8511 N   0  0  0  0  0  0  0  0  0  0  0  0
  146.1500  136.7248  153.4052 C   0  0  0  0  0  0  0  0  0  0  0  0
  146.8832  136.2039  154.2473 O   0  0  0  0  0  0  0  0  0  0  0  0
  144.8673  135.9867  152.9428 C   0  0  0  0  0  0  0  0  0  0  0  0
  143.9972  135.7138  154.1954 C   0  0  0  0  0  0  0  0  0  0  0  0
  144.0082  136.8450  151.9789 C   0  0  0  0  0  0  0  0  0  0  0  0
  145.3087  134.6962  152.2256 C   0  0  0  0  0  0  0  0  0  0  0  0
  144.3503  133.8563  151.6078 C   0  0  0  0  0  0  0  0  0  0  0  0
  144.7700  132.6813  150.9566 C   0  0  0  0  0  0  0  0  0  0  0  0
  146.1440  132.3793  150.9432 C   0  0  0  0  0  0  0  0  0  0  0  0
  147.0760  133.1618  151.5240 N   0  0  0  0  0  0  0  0  0  0  0  0
  146.6641  134.2878  152.1452 C   0  0  0  0  0  0  0  0  0  0  0  0
  148.5055  140.7127  154.5063 C   0  0  0  0  0  0  0  0  0  0  0  0
  149.5793  140.0969  155.2887 N   0  0  0  0  0  0  0  0  0  0  0  0
  150.4336  139.2197  154.4904 C   0  0  0  0  0  0  0  0  0  0  0  0
  151.5698  138.6076  155.3284 C   0  0  0  0  0  0  0  0  0  0  0  0
  152.3324  139.6454  155.9352 O   0  0  0  0  0  0  0  0  0  0  0  0
  151.5423  140.4948  156.7604 C   0  0  0  0  0  0  0  0  0  0  0  0
  150.4096  141.1146  155.9245 C   0  0  0  0  0  0  0  0  0  0  0  0
  147.5165  138.4992  155.9492 H   0  0  0  0  0  0  0  0  0  0  0  0
  145.8474  138.6495  155.4055 H   0  0  0  0  0  0  0  0  0  0  0  0
  146.5950  139.9592  156.2981 H   0  0  0  0  0  0  0  0  0  0  0  0
  146.4607  140.4489  153.8612 H   0  0  0  0  0  0  0  0  0  0  0  0
  147.8751  139.2388  152.2214 H   0  0  0  0  0  0  0  0  0  0  0  0
  148.4439  138.1516  153.4562 H   0  0  0  0  0  0  0  0  0  0  0  0
  145.7812  138.2755  152.1637 H   0  0  0  0  0  0  0  0  0  0  0  0
  144.5150  135.1093  154.9414 H   0  0  0  0  0  0  0  0  0  0  0  0
  143.0744  135.1944  153.9343 H   0  0  0  0  0  0  0  0  0  0  0  0
  143.7092  136.6448  154.6859 H   0  0  0  0  0  0  0  0  0  0  0  0
  144.5387  137.1158  151.0656 H   0  0  0  0  0  0  0  0  0  0  0  0
  143.6802  137.7715  152.4524 H   0  0  0  0  0  0  0  0  0  0  0  0
  143.1111  136.3047  151.6746 H   0  0  0  0  0  0  0  0  0  0  0  0
  143.2999  134.1069  151.6254 H   0  0  0  0  0  0  0  0  0  0  0  0
  144.0556  132.0284  150.4774 H   0  0  0  0  0  0  0  0  0  0  0  0
  146.5034  131.4868  150.4530 H   0  0  0  0  0  0  0  0  0  0  0  0
  147.4614  134.8643  152.5872 H   0  0  0  0  0  0  0  0  0  0  0  0
  148.9150  141.0678  153.5594 H   0  0  0  0  0  0  0  0  0  0  0  0
  148.1561  141.6049  155.0280 H   0  0  0  0  0  0  0  0  0  0  0  0
  149.8493  138.4079  154.0595 H   0  0  0  0  0  0  0  0  0  0  0  0
  150.8604  139.7774  153.6555 H   0  0  0  0  0  0  0  0  0  0  0  0
  151.1683  137.9456  156.0972 H   0  0  0  0  0  0  0  0  0  0  0  0
  152.2244  138.0061  154.6978 H   0  0  0  0  0  0  0  0  0  0  0  0
  151.1374  139.9260  157.5989 H   0  0  0  0  0  0  0  0  0  0  0  0
  152.1764  141.2762  157.1787 H   0  0  0  0  0  0  0  0  0  0  0  0
  150.8407  141.7681  155.1644 H   0  0  0  0  0  0  0  0  0  0  0  0
  149.7947  141.7464  156.5665 H   0  0  0  0  0  0  0  0  0  0  0  0
  1  2  1  0  0  0  0
  1 23  1  0  0  0  0
  1 24  1  0  0  0  0
  1 25  1  0  0  0  0
  2  3  1  0  0  0  0
  2 16  1  0  0  0  0
  2 26  1  0  0  0  0
  3  4  1  0  0  0  0
  3 27  1  0  0  0  0
  3 28  1  0  0  0  0
  4  5  1  0  0  0  0
  4 29  1  0  0  0  0
  5  6  2  0  0  0  0
  5  7  1  0  0  0  0
  7  8  1  0  0  0  0
  7  9  1  0  0  0  0
  7 10  1  0  0  0  0
  8 30  1  0  0  0  0
  8 31  1  0  0  0  0
  8 32  1  0  0  0  0
  9 33  1  0  0  0  0
  9 34  1  0  0  0  0
  9 35  1  0  0  0  0
 10 15  1  0  0  0  0
 10 11  2  0  0  0  0
 11 12  1  0  0  0  0
 11 36  1  0  0  0  0
 12 13  2  0  0  0  0
 12 37  1  0  0  0  0
 13 14  1  0  0  0  0
 13 38  1  0  0  0  0
 14 15  2  0  0  0  0
 15 39  1  0  0  0  0
 16 17  1  0  0  0  0
 16 40  1  0  0  0  0
 16 41  1  0  0  0  0
 17 22  1  0  0  0  0
 17 18  1  0  0  0  0
 18 19  1  0  0  0  0
 18 42  1  0  0  0  0
 18 43  1  0  0  0  0
 19 20  1  0  0  0  0
 19 44  1  0  0  0  0
 19 45  1  0  0  0  0
 20 21  1  0  0  0  0
 21 22  1  0  0  0  0
 21 46  1  0  0  0  0
 21 47  1  0  0  0  0
 22 48  1  0  0  0  0
 22 49  1  0  0  0  0
M  END
> <s_m_source_file>
AV-unprocessed.smi

> <i_m_source_file_index>
2896

> <i_lp_mmshare_version>
43012

> <i_f3d_flags>
0

> <s_epik_input>
W0NIMl0xW0NIMl1PW0NIMl1bQ0gyXU4xW0NIMl1bQ0BIXShbQ0gzXSlbQ0gyXVtOSF1DKD1PKUMoW0NIM10pKFtDSDNdKWMyW2NIXVtjSF1bY0hdbltjSF0y

> <s_epik_cmdline>
J2VwaWtfcHl0aG9uJywgJy1waCcsICc3LjAnLCAnLXRuJywgJzgnLCAnLW1hJywgJzIwMCcsICctbWV0YWxfYmluZGluZycsICctaW1hZScsICc8aW5maWxlLm1hZT4nLCAnLW9tYWUnLCAnPG91dGZpbGUubWFlPic=

> <r_epik_Ionization_Penalty>
0.458454

> <r_epik_Ionization_Penalty_Charging>
0

> <r_epik_Ionization_Penalty_Neutral>
0.458454

> <r_epik_State_Penalty>
0.453234

> <r_epik_Charging_Adjusted_Penalty>
0.453234

> <i_epik_Tot_Q>
0

> <i_epik_Tot_abs_Q>
0

> <r_epik_Metal_State_Penalty>
0.448418

> <b_epik_Metal_Only>
0

> <s_lp_Force_Field>
OPLS_2005

> <r_lp_Energy>
34.6302

> <b_lp_Chiralities_Consistent>
1

> <s_lp_Variant>
AV-unprocessed.smi:2896-3

> <Gold.Version>
5.8.1

> <Gold.Id.Protein>
6NUR|6NUR_protein|mol2

> <Gold.PLP.Fitness>
35.8476

> <Gold.PLP.PLP>
-28.3076

> <Gold.PLP.part.hbond>
-1.4823

> <Gold.PLP.part.metal>
0.0000

> <Gold.PLP.part.buried>
-0.7521

> <Gold.PLP.part.nonpolar>
-25.0932

> <Gold.PLP.part.repulsive>
0.3790

> <Gold.PLP.ligand.clash>
0.0000

> <Gold.PLP.ligand.torsion>
0.6108

> <Gold.PLP.Chemscore.Hbond>
0.9913

> <Gold.PLP.Chemscore.CHOScore>
1.8671

> <Gold.PLP.Chemscore.Metal>
0.0000

> <Gold.Chemscore.Hbonds>
donor molecule, donor type, donor heavy atom, donor atom, acceptor molecule, acceptor atom, score
      P1  H  7997  8008       L1    20  0.80
      L1  C    13    38       P1 10747  0.84
      L1  C    15    39       P1  7948  1.00

> <Gold.PLP.Chemscore.Internal.Correction>
0.1867

> <Gold.Rescore>
     Score         DG    S(hbond)    S(metal)    S(lipo)     H(rot)  DE(clash)    DE(int)     intcor
     11.48     -13.92       0.94        0.00      82.13       1.68       0.37       2.08       ----

> <Gold.Chemscore.Fitness>
11.4797

> <Gold.Chemscore.DG>
-13.9245

> <Gold.Chemscore.ZeroCoef>
-5.4800

> <Gold.Chemscore.Hbond>
0.9414

> <Gold.Chemscore.Metal>
0.0000

> <Gold.Chemscore.Lipo>
82.1306

> <Gold.Chemscore.Internal_Hbond>
0.0000

> <Gold.Chemscore.DEClash>
0.3690

> <Gold.Chemscore.DEInternal>
2.0759

> <Gold.Chemscore.Rot>
1.6832

> <Gold.Chemscore.Internal.Correction>
   9.000000E+99

> <Gold.Chemscore.Hbonds>
donor molecule, donor type, donor heavy atom, donor atom, acceptor molecule, acceptor atom, score
      P1  H  7997  8008       L1    20  0.58

> <Gold.Chemscore.Hbond.Weighted>
-3.1442

> <Gold.Chemscore.Metal.Weighted>
-0.0000

> <Gold.Chemscore.Lipo.Weighted>
-9.6093

> <Gold.Chemscore.Internal_Hbond.Weighted>
0.0000

> <Gold.Chemscore.DEClash.Weighted>
0.3690

> <Gold.Chemscore.DEInternal.Weighted>
2.0759

> <Gold.Chemscore.Rot.Weighted>
4.3090

> <Gold.Chemscore.Internal.Correction.Weighted>
   9.000000E+99

> <Gold.Protein.RotatedTorsions>
[ 6907 6896 6895 6894 ] final  120.81 input  -60.11 | X-H torsion
[ 7974 7965 7964 7962 ] final -109.82 input  175.53 | X-H torsion
[ 8008 7997 7996 7995 ] final  -27.53 input   59.86 | X-H torsion
[ 10167 10162 10161 10158 ] final  -81.26 input  -65.29 | X-H torsion
[ 10718 10713 10712 10709 ] final -179.40 input   66.30 | X-H torsion
[ 10763 10752 10751 10750 ] final -174.46 input  -60.55 | X-H torsion
[ 11005 11000 10999 10996 ] final  -86.30 input  -57.11 | X-H torsion

> <Gold.Protein.ActiveResidues>
 VAL166  LYS551  ARG553  GLY616  TRP617  ASP618  TYR619  PRO620  LYS621  CYS622 
 ASP623  PHE694  ASN695  SER759  ASP760  ASP761  ALA762  ILE779  LEU786  VAL792 
 PHE793  MET794  SER795  GLU796  ALA797  LYS798  CYS799  TRP800  GLU811  SER814 

> <Gold.Protein.RotatedAtoms>
  152.4370  133.7378  159.6623 H   0  0  0  0  0  0  0  0  0  0  0  0  # atno 6907 bound_to 6896
  150.8255  133.8169  159.3127 H   0  0  0  0  0  0  0  0  0  0  0  0  # atno 6908 bound_to 6896
  151.5839  135.1059  160.0075 H   0  0  0  0  0  0  0  0  0  0  0  0  # atno 6909 bound_to 6896
  145.1758  140.8947  143.3509 H   0  0  0  0  0  0  0  0  0  0  0  0  # atno 7974 bound_to 7965
  154.4373  140.1870  156.0946 H   0  0  0  0  0  0  0  0  0  0  0  0  # atno 8008 bound_to 7997
  156.0339  140.3327  155.7144 H   0  0  0  0  0  0  0  0  0  0  0  0  # atno 8009 bound_to 7997
  155.5798  140.0620  157.2776 H   0  0  0  0  0  0  0  0  0  0  0  0  # atno 8010 bound_to 7997
  140.4428  143.2509  151.8602 H   0  0  0  0  0  0  0  0  0  0  0  0  # atno 10167 bound_to 10162
  156.8586  130.9744  151.3085 H   0  0  0  0  0  0  0  0  0  0  0  0  # atno 10718 bound_to 10713
  154.5959  135.2849  155.0587 H   0  0  0  0  0  0  0  0  0  0  0  0  # atno 10763 bound_to 10752
  154.1870  135.6447  153.5053 H   0  0  0  0  0  0  0  0  0  0  0  0  # atno 10764 bound_to 10752
  153.0138  135.5437  154.6661 H   0  0  0  0  0  0  0  0  0  0  0  0  # atno 10765 bound_to 10752
  141.1631  133.7447  156.9141 H   0  0  0  0  0  0  0  0  0  0  0  0  # atno 11005 bound_to 11000
  145.0187  139.3444  143.6083 LP  0  0  0  0  0  0  0  0  0  0  0  0  # atno 17320 bound_to 7965
  146.3461  139.9478  142.8732 LP  0  0  0  0  0  0  0  0  0  0  0  0  # atno 17321 bound_to 7965
  139.4790  144.5210  151.8801 LP  0  0  0  0  0  0  0  0  0  0  0  0  # atno 17342 bound_to 10162
  140.4299  144.2130  150.5888 LP  0  0  0  0  0  0  0  0  0  0  0  0  # atno 17343 bound_to 10162
  157.6263  130.8694  149.9195 LP  0  0  0  0  0  0  0  0  0  0  0  0  # atno 17370 bound_to 10713
  156.0789  130.3675  150.0621 LP  0  0  0  0  0  0  0  0  0  0  0  0  # atno 17371 bound_to 10713
  140.1496  134.9239  157.2576 LP  0  0  0  0  0  0  0  0  0  0  0  0  # atno 17394 bound_to 11000
  140.2738  134.3429  155.7365 LP  0  0  0  0  0  0  0  0  0  0  0  0  # atno 17395 bound_to 11000

$$$$
