AV-unprocessed.smi:2078|AV-procd|sdf|8468|dock3
  -GOLD-   2272011163D 1   1.00000     0.00000
 Structure written by MMmdl.
 41 42  0  0  0  0  0  0  0  0  3 V2000
  151.3289  143.0532  157.9109 C   0  0  0  0  0  0  0  0  0  0  0  0
  150.5074  142.4568  156.8198 C   0  0  0  0  0  0  0  0  0  0  0  0
  150.8263  141.7087  155.7223 C   0  0  0  0  0  0  0  0  0  0  0  0
  149.5643  141.4714  155.1127 C   0  0  0  0  0  0  0  0  0  0  0  0
  149.3535  140.7833  153.9797 N   0  5  0  0  0  0  0  0  0  0  0  0
  148.1414  140.2381  153.7288 C   0  0  0  0  0  0  0  0  0  0  0  0
  147.1178  140.3835  154.4007 O   0  0  0  0  0  0  0  0  0  0  0  0
  148.1135  139.4724  152.6302 N   0  0  0  0  0  0  0  0  0  0  0  0
  146.9443  138.7602  152.1341 C   0  0  0  0  0  0  0  0  0  0  0  0
  146.4868  137.7100  153.1581 C   0  0  0  0  0  0  0  0  0  0  0  0
  146.3706  136.3543  152.5649 N   0  3  2  0  0  0  0  0  0  0  0  0
  145.4596  136.3320  151.3913 C   0  0  0  0  0  0  0  0  0  0  0  0
  145.4740  134.9588  150.7015 C   0  0  0  0  0  0  0  0  0  0  0  0
  145.1209  133.8413  151.6926 C   0  0  0  0  0  0  0  0  0  0  0  0
  146.0241  133.8949  152.9386 C   0  0  1  0  0  0  0  0  0  0  0  0
  147.4535  133.3969  152.6612 C   0  0  0  0  0  0  0  0  0  0  0  0
  146.0085  135.3076  153.5594 C   0  0  0  0  0  0  0  0  0  0  0  0
  148.5690  142.0393  155.7729 N   0  0  0  0  0  0  0  0  0  0  0  0
  149.1648  142.6678  156.8731 O   0  0  0  0  0  0  0  0  0  0  0  0
  152.1864  143.5860  157.5000 H   0  0  0  0  0  0  0  0  0  0  0  0
  151.7008  142.2774  158.5801 H   0  0  0  0  0  0  0  0  0  0  0  0
  150.7452  143.7591  158.5021 H   0  0  0  0  0  0  0  0  0  0  0  0
  151.8053  141.3806  155.4069 H   0  0  0  0  0  0  0  0  0  0  0  0
  148.9712  139.3808  152.1052 H   0  0  0  0  0  0  0  0  0  0  0  0
  146.1367  139.4691  151.9433 H   0  0  0  0  0  0  0  0  0  0  0  0
  147.2034  138.2992  151.1810 H   0  0  0  0  0  0  0  0  0  0  0  0
  147.1597  137.6829  154.0164 H   0  0  0  0  0  0  0  0  0  0  0  0
  145.5125  138.0189  153.5399 H   0  0  0  0  0  0  0  0  0  0  0  0
  144.4470  136.5843  151.7102 H   0  0  0  0  0  0  0  0  0  0  0  0
  145.7641  137.0931  150.6717 H   0  0  0  0  0  0  0  0  0  0  0  0
  144.7669  134.9532  149.8714 H   0  0  0  0  0  0  0  0  0  0  0  0
  146.4566  134.7750  150.2656 H   0  0  0  0  0  0  0  0  0  0  0  0
  144.0798  133.9540  151.9984 H   0  0  0  0  0  0  0  0  0  0  0  0
  145.1921  132.8670  151.2077 H   0  0  0  0  0  0  0  0  0  0  0  0
  145.6000  133.2107  153.6746 H   0  0  0  0  0  0  0  0  0  0  0  0
  147.9788  134.0362  151.9515 H   0  0  0  0  0  0  0  0  0  0  0  0
  147.4433  132.3859  152.2527 H   0  0  0  0  0  0  0  0  0  0  0  0
  148.0428  133.3721  153.5783 H   0  0  0  0  0  0  0  0  0  0  0  0
  146.6890  135.3323  154.4100 H   0  0  0  0  0  0  0  0  0  0  0  0
  145.0146  135.5238  153.9547 H   0  0  0  0  0  0  0  0  0  0  0  0
  147.2881  136.1209  152.2125 H   0  0  0  0  0  0  0  0  0  0  0  0
  1  2  1  0  0  0  0
  1 20  1  0  0  0  0
  1 21  1  0  0  0  0
  1 22  1  0  0  0  0
  2 19  1  0  0  0  0
  2  3  2  0  0  0  0
  3  4  1  0  0  0  0
  3 23  1  0  0  0  0
  4  5  1  0  0  0  0
  4 18  2  0  0  0  0
  5  6  1  0  0  0  0
  6  7  2  0  0  0  0
  6  8  1  0  0  0  0
  8  9  1  0  0  0  0
  8 24  1  0  0  0  0
  9 10  1  0  0  0  0
  9 25  1  0  0  0  0
  9 26  1  0  0  0  0
 10 11  1  0  0  0  0
 10 27  1  0  0  0  0
 10 28  1  0  0  0  0
 11 17  1  0  0  0  0
 11 12  1  0  0  0  0
 11 41  1  0  0  0  0
 12 13  1  0  0  0  0
 12 29  1  0  0  0  0
 12 30  1  0  0  0  0
 13 14  1  0  0  0  0
 13 31  1  0  0  0  0
 13 32  1  0  0  0  0
 14 15  1  0  0  0  0
 14 33  1  0  0  0  0
 14 34  1  0  0  0  0
 15 16  1  0  0  0  0
 15 17  1  0  0  0  0
 15 35  1  0  0  0  0
 16 36  1  0  0  0  0
 16 37  1  0  0  0  0
 16 38  1  0  0  0  0
 17 39  1  0  0  0  0
 17 40  1  0  0  0  0
 18 19  1  0  0  0  0
M  CHG  1   5  -1
M  CHG  1  11   1
M  END
> <s_m_source_file>
AV-unprocessed.smi

> <i_m_source_file_index>
2078

> <i_lp_mmshare_version>
43012

> <i_f3d_flags>
0

> <s_epik_input>
W0NIM11jMVtjSF1jKG5vMSlbTkhdQyg9TylbTkhdW0NIMl1bQ0gyXU4yW0NIMl1bQ0gyXVtDSDJdW0NAQEhdKFtDSDNdKVtDSDJdMg==

> <s_epik_cmdline>
J2VwaWtfcHl0aG9uJywgJy1waCcsICc3LjAnLCAnLXRuJywgJzgnLCAnLW1hJywgJzIwMCcsICctbWV0YWxfYmluZGluZycsICctaW1hZScsICc8aW5maWxlLm1hZT4nLCAnLW9tYWUnLCAnPG91dGZpbGUubWFlPic=

> <r_epik_Ionization_Penalty>
6.22434

> <r_epik_Ionization_Penalty_Charging>
6.22425

> <r_epik_Ionization_Penalty_Neutral>
9.37855e-05

> <r_epik_State_Penalty>
6.22423

> <r_epik_Charging_Adjusted_Penalty>
12.4485

> <i_epik_Tot_Q>
0

> <i_epik_Tot_abs_Q>
2

> <r_epik_Metal_State_Penalty>
2.16764

> <b_epik_Metal_Only>
1

> <s_lp_Force_Field>
OPLS_2005

> <r_lp_Energy>
8.87897

> <b_lp_Chiralities_Consistent>
1

> <s_lp_Variant>
AV-unprocessed.smi:2078-6

> <Gold.Version>
5.8.1

> <Gold.Id.Protein>
6NUR|6NUR_protein|mol2

> <Gold.PLP.Fitness>
38.2012

> <Gold.PLP.PLP>
-30.0608

> <Gold.PLP.part.hbond>
-2.3108

> <Gold.PLP.part.metal>
0.0000

> <Gold.PLP.part.buried>
-4.0682

> <Gold.PLP.part.nonpolar>
-23.7248

> <Gold.PLP.part.repulsive>
0.5673

> <Gold.PLP.ligand.clash>
0.0000

> <Gold.PLP.ligand.torsion>
0.5007

> <Gold.PLP.Chemscore.Hbond>
3.0229

> <Gold.PLP.Chemscore.CHOScore>
0.0000

> <Gold.PLP.Chemscore.Metal>
0.0000

> <Gold.Chemscore.Hbonds>
donor molecule, donor type, donor heavy atom, donor atom, acceptor molecule, acceptor atom, score
      L1  H     8    24       P1  7957  0.33
      L1  H    11    41       P1  7948  2.00
      P1  H  7989  7998       L1     5  0.08
      P1  H  8011  8017       L1     5  0.17

> <Gold.PLP.Chemscore.Internal.Correction>
0.0731

> <Gold.Rescore>
     Score         DG    S(hbond)    S(metal)    S(lipo)     H(rot)  DE(clash)    DE(int)     intcor
     13.47     -15.67       2.00        0.00      63.82       1.54       0.04       2.16       ----

> <Gold.Chemscore.Fitness>
13.4708

> <Gold.Chemscore.DG>
-15.6707

> <Gold.Chemscore.ZeroCoef>
-5.4800

> <Gold.Chemscore.Hbond>
1.9966

> <Gold.Chemscore.Metal>
0.0000

> <Gold.Chemscore.Lipo>
63.8181

> <Gold.Chemscore.Internal_Hbond>
0.0000

> <Gold.Chemscore.DEClash>
0.0382

> <Gold.Chemscore.DEInternal>
2.1617

> <Gold.Chemscore.Rot>
1.5409

> <Gold.Chemscore.Internal.Correction>
   9.000000E+99

> <Gold.Chemscore.Hbonds>
donor molecule, donor type, donor heavy atom, donor atom, acceptor molecule, acceptor atom, score
      L1  H     8    24       P1  7957  0.33
      L1  H    11    41       P1  7948  1.00
      P1  H  8011  8017       L1     5  0.04

> <Gold.Chemscore.Hbond.Weighted>
-6.6686

> <Gold.Chemscore.Metal.Weighted>
-0.0000

> <Gold.Chemscore.Lipo.Weighted>
-7.4667

> <Gold.Chemscore.Internal_Hbond.Weighted>
0.0000

> <Gold.Chemscore.DEClash.Weighted>
0.0382

> <Gold.Chemscore.DEInternal.Weighted>
2.1617

> <Gold.Chemscore.Rot.Weighted>
3.9446

> <Gold.Chemscore.Internal.Correction.Weighted>
   9.000000E+99

> <Gold.Protein.RotatedTorsions>
[ 6907 6896 6895 6894 ] final   86.10 input  -60.11 | X-H torsion
[ 7974 7965 7964 7962 ] final  -40.18 input  175.53 | X-H torsion
[ 8008 7997 7996 7995 ] final  123.83 input   59.86 | X-H torsion
[ 10167 10162 10161 10158 ] final   89.75 input  -65.29 | X-H torsion
[ 10718 10713 10712 10709 ] final  -37.70 input   66.30 | X-H torsion
[ 10763 10752 10751 10750 ] final   15.82 input  -60.55 | X-H torsion
[ 11005 11000 10999 10996 ] final  -82.47 input  -57.11 | X-H torsion

> <Gold.Protein.ActiveResidues>
 VAL166  LYS551  ARG553  GLY616  TRP617  ASP618  TYR619  PRO620  LYS621  CYS622 
 ASP623  PHE694  ASN695  SER759  ASP760  ASP761  ALA762  ILE779  LEU786  VAL792 
 PHE793  MET794  SER795  GLU796  ALA797  LYS798  CYS799  TRP800  GLU811  SER814 

> <Gold.Protein.RotatedAtoms>
  152.5388  134.2484  159.8888 H   0  0  0  0  0  0  0  0  0  0  0  0  # atno 6907 bound_to 6896
  151.2448  133.4374  159.2616 H   0  0  0  0  0  0  0  0  0  0  0  0  # atno 6908 bound_to 6896
  151.0593  134.9740  159.8308 H   0  0  0  0  0  0  0  0  0  0  0  0  # atno 6909 bound_to 6896
  146.0328  140.6709  142.9124 H   0  0  0  0  0  0  0  0  0  0  0  0  # atno 7974 bound_to 7965
  156.2780  140.2754  156.1691 H   0  0  0  0  0  0  0  0  0  0  0  0  # atno 8008 bound_to 7997
  155.0674  140.0387  157.2615 H   0  0  0  0  0  0  0  0  0  0  0  0  # atno 8009 bound_to 7997
  154.7068  140.2660  155.6672 H   0  0  0  0  0  0  0  0  0  0  0  0  # atno 8010 bound_to 7997
  139.8542  144.6578  150.9134 H   0  0  0  0  0  0  0  0  0  0  0  0  # atno 10167 bound_to 10162
  156.3122  130.4254  149.8040 H   0  0  0  0  0  0  0  0  0  0  0  0  # atno 10718 bound_to 10713
  153.1489  135.6774  153.8912 H   0  0  0  0  0  0  0  0  0  0  0  0  # atno 10763 bound_to 10752
  153.8345  135.3113  155.3422 H   0  0  0  0  0  0  0  0  0  0  0  0  # atno 10764 bound_to 10752
  154.7847  135.4869  154.0005 H   0  0  0  0  0  0  0  0  0  0  0  0  # atno 10765 bound_to 10752
  141.1663  133.7246  156.8576 H   0  0  0  0  0  0  0  0  0  0  0  0  # atno 11005 bound_to 11000
  144.7038  140.3767  143.7134 LP  0  0  0  0  0  0  0  0  0  0  0  0  # atno 17320 bound_to 7965
  145.7012  139.1662  143.2591 LP  0  0  0  0  0  0  0  0  0  0  0  0  # atno 17321 bound_to 7965
  140.7783  143.3801  151.1493 LP  0  0  0  0  0  0  0  0  0  0  0  0  # atno 17342 bound_to 10162
  139.7436  143.8886  152.3057 LP  0  0  0  0  0  0  0  0  0  0  0  0  # atno 17343 bound_to 10162
  156.5379  130.8287  151.3259 LP  0  0  0  0  0  0  0  0  0  0  0  0  # atno 17370 bound_to 10713
  157.7393  130.9830  150.2308 LP  0  0  0  0  0  0  0  0  0  0  0  0  # atno 17371 bound_to 10713
  140.1871  134.8992  157.3017 LP  0  0  0  0  0  0  0  0  0  0  0  0  # atno 17394 bound_to 11000
  140.2330  134.3886  155.7513 LP  0  0  0  0  0  0  0  0  0  0  0  0  # atno 17395 bound_to 11000

$$$$
