AV-unprocessed.smi:69|AV-procd|sdf|657|dock1
  -GOLD-   2262016553D 1   1.00000     0.00000
 Structure written by MMmdl.
 32 34  0  0  0  0  0  0  0  0  1 V2000
  154.3232  137.3168  156.7936 N   0  0  0  0  0  0  0  0  0  0  0  0
  153.2542  138.1248  156.7744 C   0  0  0  0  0  0  0  0  0  0  0  0
  153.3144  139.2877  157.4642 N   0  0  0  0  0  0  0  0  0  0  0  0
  152.2593  140.1086  157.4625 C   0  0  0  0  0  0  0  0  0  0  0  0
  151.0823  139.9545  156.8508 N   0  0  0  0  0  0  0  0  0  0  0  0
  151.0224  138.7817  156.1545 C   0  0  0  0  0  0  0  0  0  0  0  0
  152.0639  137.8163  156.0686 C   0  0  0  0  0  0  0  0  0  0  0  0
  151.6563  136.7481  155.2816 N   0  0  0  0  0  0  0  0  0  0  0  0
  150.4408  137.0669  154.9265 C   0  0  0  0  0  0  0  0  0  0  0  0
  149.9759  138.2707  155.4103 N   0  0  0  0  0  0  0  0  0  0  0  0
  148.6254  138.8803  155.1741 C   0  0  2  0  0  0  0  0  0  0  0  0
  147.8330  137.9934  154.4393 O   0  0  0  0  0  0  0  0  0  0  0  0
  147.4216  138.5866  153.2073 C   0  0  1  0  0  0  0  0  0  0  0  0
  146.0290  138.0658  152.8196 C   0  0  0  0  0  0  0  0  0  0  0  0
  145.0561  138.5643  153.7127 O   0  0  0  0  0  0  0  0  0  0  0  0
  147.4473  140.0837  153.5220 C   0  0  2  0  0  0  0  0  0  0  0  0
  147.4982  140.8972  152.3651 O   0  0  0  0  0  0  0  0  0  0  0  0
  148.6831  140.2123  154.4010 C   0  0  2  0  0  0  0  0  0  0  0  0
  149.8753  140.3880  153.6509 O   0  0  0  0  0  0  0  0  0  0  0  0
  148.1921  138.9889  156.1693 H   0  0  0  0  0  0  0  0  0  0  0  0
  148.1543  138.3672  152.4291 H   0  0  0  0  0  0  0  0  0  0  0  0
  146.5656  140.3512  154.1066 H   0  0  0  0  0  0  0  0  0  0  0  0
  148.5964  141.0441  155.1006 H   0  0  0  0  0  0  0  0  0  0  0  0
  154.3008  136.4427  156.2883 H   0  0  0  0  0  0  0  0  0  0  0  0
  155.1474  137.5838  157.3121 H   0  0  0  0  0  0  0  0  0  0  0  0
  152.3729  141.0189  158.0328 H   0  0  0  0  0  0  0  0  0  0  0  0
  149.8417  136.4231  154.2992 H   0  0  0  0  0  0  0  0  0  0  0  0
  145.7760  138.3332  151.7933 H   0  0  0  0  0  0  0  0  0  0  0  0
  146.0043  136.9777  152.8860 H   0  0  0  0  0  0  0  0  0  0  0  0
  144.5069  139.1769  153.2480 H   0  0  0  0  0  0  0  0  0  0  0  0
  148.3529  140.8077  151.9725 H   0  0  0  0  0  0  0  0  0  0  0  0
  149.6704  140.2874  152.7338 H   0  0  0  0  0  0  0  0  0  0  0  0
  1  2  1  0  0  0  0
  1 24  1  0  0  0  0
  1 25  1  0  0  0  0
  2  7  1  0  0  0  0
  2  3  2  0  0  0  0
  3  4  1  0  0  0  0
  4  5  2  0  0  0  0
  4 26  1  0  0  0  0
  5  6  1  0  0  0  0
  6 10  1  0  0  0  0
  6  7  2  0  0  0  0
  7  8  1  0  0  0  0
  8  9  2  0  0  0  0
  9 10  1  0  0  0  0
  9 27  1  0  0  0  0
 10 11  1  0  0  0  0
 11 20  1  0  0  0  0
 11 18  1  0  0  0  0
 11 12  1  0  0  0  0
 12 13  1  0  0  0  0
 13 21  1  0  0  0  0
 13 14  1  0  0  0  0
 13 16  1  0  0  0  0
 14 15  1  0  0  0  0
 14 28  1  0  0  0  0
 14 29  1  0  0  0  0
 15 30  1  0  0  0  0
 16 22  1  0  0  0  0
 16 17  1  0  0  0  0
 16 18  1  0  0  0  0
 17 31  1  0  0  0  0
 18 23  1  0  0  0  0
 18 19  1  0  0  0  0
 19 32  1  0  0  0  0
M  END
> <s_m_source_file>
AV-unprocessed.smi

> <i_m_source_file_index>
69

> <i_lp_mmshare_version>
43012

> <i_f3d_flags>
0

> <s_epik_input>
bjFbY0hdbmMoW05IMl0pYyhjMTIpbltjSF1uMltDQEBIXTNPW0NASF0oW0NIMl1bT0hdKVtDQEBIXShbT0hdKVtDQEhdM1tPSF0=

> <s_epik_cmdline>
J2VwaWtfcHl0aG9uJywgJy1waCcsICc3LjAnLCAnLXRuJywgJzgnLCAnLW1hJywgJzIwMCcsICctbWV0YWxfYmluZGluZycsICctaW1hZScsICc8aW5maWxlLm1hZT4nLCAnLW9tYWUnLCAnPG91dGZpbGUubWFlPic=

> <r_lp_tautomer_probability>
1

> <r_epik_Ionization_Penalty>
0.000428445

> <r_epik_Ionization_Penalty_Charging>
0

> <r_epik_Ionization_Penalty_Neutral>
0.000428445

> <r_epik_State_Penalty>
-0

> <r_epik_Charging_Adjusted_Penalty>
0

> <i_epik_Tot_Q>
0

> <i_epik_Tot_abs_Q>
0

> <r_epik_Metal_State_Penalty>
-0

> <b_epik_Metal_Only>
0

> <s_epik_Chemistry_Notes>
This compound contains an acetal/aminal-like group ( X-CH(R)-Y where X, Y are N, S, or O) that may be acid/base labile, releasing an aldehyde.

> <s_lp_Force_Field>
OPLS_2005

> <r_lp_Energy>
44.883

> <b_lp_Chiralities_Consistent>
1

> <s_lp_Variant>
AV-unprocessed.smi:69-15

> <Gold.Version>
5.8.1

> <Gold.Id.Protein>
6NUR|6NUR_protein|mol2

> <Gold.PLP.Fitness>
37.4098

> <Gold.PLP.PLP>
-18.0490

> <Gold.PLP.part.hbond>
-5.9831

> <Gold.PLP.part.metal>
0.0000

> <Gold.PLP.part.buried>
0.1172

> <Gold.PLP.part.nonpolar>
-13.2124

> <Gold.PLP.part.repulsive>
0.4184

> <Gold.PLP.ligand.clash>
0.0000

> <Gold.PLP.ligand.torsion>
0.0988

> <Gold.PLP.Chemscore.Hbond>
5.5168

> <Gold.PLP.Chemscore.CHOScore>
1.0000

> <Gold.PLP.Chemscore.Metal>
0.0000

> <Gold.Chemscore.Hbonds>
donor molecule, donor type, donor heavy atom, donor atom, acceptor molecule, acceptor atom, score
      L1  H    15    30       P1 10175  1.00
      L1  H    17    31       P1  7957  1.00
      L1  H    19    32       P1  7957  1.00
      P1  H  7989  7998       L1    19  0.53
      P1  H  7997  8008       L1     3  1.00
      P1  H 10752 10764       L1     8  1.00
      L1  C     9    27       P1  7948  0.90

> <Gold.PLP.Chemscore.Internal.Correction>
0.0080

> <Gold.Rescore>
     Score         DG    S(hbond)    S(metal)    S(lipo)     H(rot)  DE(clash)    DE(int)     intcor
     12.14     -13.73       4.49        0.00      30.39       4.03       1.51       0.08       ----

> <Gold.Chemscore.Fitness>
12.1408

> <Gold.Chemscore.DG>
-13.7322

> <Gold.Chemscore.ZeroCoef>
-5.4800

> <Gold.Chemscore.Hbond>
4.4933

> <Gold.Chemscore.Metal>
0.0000

> <Gold.Chemscore.Lipo>
30.3901

> <Gold.Chemscore.Internal_Hbond>
0.0000

> <Gold.Chemscore.DEClash>
1.5120

> <Gold.Chemscore.DEInternal>
0.0794

> <Gold.Chemscore.Rot>
4.0277

> <Gold.Chemscore.Internal.Correction>
   9.000000E+99

> <Gold.Chemscore.Hbonds>
donor molecule, donor type, donor heavy atom, donor atom, acceptor molecule, acceptor atom, score
      L1  H    15    30       P1 10175  1.00
      L1  H    17    31       P1  7957  0.99
      L1  H    19    32       P1  7957  0.98
      P1  H  7989  7998       L1    19  0.11
      P1  H  7997  8008       L1     3  0.15
      P1  H 10752 10764       L1     8  0.95

> <Gold.Chemscore.Hbond.Weighted>
-15.0075

> <Gold.Chemscore.Metal.Weighted>
-0.0000

> <Gold.Chemscore.Lipo.Weighted>
-3.5556

> <Gold.Chemscore.Internal_Hbond.Weighted>
0.0000

> <Gold.Chemscore.DEClash.Weighted>
1.5120

> <Gold.Chemscore.DEInternal.Weighted>
0.0794

> <Gold.Chemscore.Rot.Weighted>
10.3110

> <Gold.Chemscore.Internal.Correction.Weighted>
   9.000000E+99

> <Gold.Protein.RotatedTorsions>
[ 6907 6896 6895 6894 ] final  109.72 input  -60.11 | X-H torsion
[ 7974 7965 7964 7962 ] final  134.91 input  175.53 | X-H torsion
[ 8008 7997 7996 7995 ] final  -60.27 input   59.86 | X-H torsion
[ 10167 10162 10161 10158 ] final -128.43 input  -65.29 | X-H torsion
[ 10718 10713 10712 10709 ] final   84.89 input   66.30 | X-H torsion
[ 10763 10752 10751 10750 ] final  -58.03 input  -60.55 | X-H torsion
[ 11005 11000 10999 10996 ] final  159.38 input  -57.11 | X-H torsion

> <Gold.Protein.ActiveResidues>
 VAL166  LYS551  ARG553  GLY616  TRP617  ASP618  TYR619  PRO620  LYS621  CYS622 
 ASP623  PHE694  ASN695  SER759  ASP760  ASP761  ALA762  ILE779  LEU786  VAL792 
 PHE793  MET794  SER795  GLU796  ALA797  LYS798  CYS799  TRP800  GLU811  SER814 

> <Gold.Protein.RotatedAtoms>
  152.5054  133.8903  159.7390 H   0  0  0  0  0  0  0  0  0  0  0  0  # atno 6907 bound_to 6896
  150.9343  133.6721  159.2811 H   0  0  0  0  0  0  0  0  0  0  0  0  # atno 6908 bound_to 6896
  151.4054  135.0982  159.9621 H   0  0  0  0  0  0  0  0  0  0  0  0  # atno 6909 bound_to 6896
  144.9716  139.4599  143.5430 H   0  0  0  0  0  0  0  0  0  0  0  0  # atno 7974 bound_to 7965
  154.4390  140.1043  156.6246 H   0  0  0  0  0  0  0  0  0  0  0  0  # atno 8008 bound_to 7997
  155.5670  140.3488  155.4487 H   0  0  0  0  0  0  0  0  0  0  0  0  # atno 8009 bound_to 7997
  156.0418  140.1283  157.0137 H   0  0  0  0  0  0  0  0  0  0  0  0  # atno 8010 bound_to 7997
  139.9504  143.6062  152.2477 H   0  0  0  0  0  0  0  0  0  0  0  0  # atno 10167 bound_to 10162
  157.6906  131.0152  150.2740 H   0  0  0  0  0  0  0  0  0  0  0  0  # atno 10718 bound_to 10713
  154.2318  135.6359  153.5177 H   0  0  0  0  0  0  0  0  0  0  0  0  # atno 10763 bound_to 10752
  152.9947  135.5521  154.6005 H   0  0  0  0  0  0  0  0  0  0  0  0  # atno 10764 bound_to 10752
  154.5489  135.2900  155.1001 H   0  0  0  0  0  0  0  0  0  0  0  0  # atno 10765 bound_to 10752
  140.1956  134.8375  157.2961 H   0  0  0  0  0  0  0  0  0  0  0  0  # atno 11005 bound_to 11000
  146.3384  139.8932  142.8806 LP  0  0  0  0  0  0  0  0  0  0  0  0  # atno 17320 bound_to 7965
  145.2550  141.0057  143.3859 LP  0  0  0  0  0  0  0  0  0  0  0  0  # atno 17321 bound_to 7965
  139.6633  144.7662  151.1921 LP  0  0  0  0  0  0  0  0  0  0  0  0  # atno 17342 bound_to 10162
  140.7584  143.5977  150.8732 LP  0  0  0  0  0  0  0  0  0  0  0  0  # atno 17343 bound_to 10162
  156.3298  130.3798  149.7501 LP  0  0  0  0  0  0  0  0  0  0  0  0  # atno 17370 bound_to 10713
  156.5044  130.8143  151.3145 LP  0  0  0  0  0  0  0  0  0  0  0  0  # atno 17371 bound_to 10713
  140.2111  134.4137  155.7612 LP  0  0  0  0  0  0  0  0  0  0  0  0  # atno 17394 bound_to 11000
  141.2227  133.7119  156.8340 LP  0  0  0  0  0  0  0  0  0  0  0  0  # atno 17395 bound_to 11000

$$$$
