AV-unprocessed.smi:1978|AV-procd|sdf|8006|dock5
  -GOLD-   2272010193D 1   1.00000     0.00000
 Structure written by MMmdl.
 44 45  0  0  0  0  0  0  0  0  3 V2000
  147.4563  135.5497  163.1133 C   0  0  0  0  0  0  0  0  0  0  0  0
  147.6090  135.9059  161.6740 C   0  0  0  0  0  0  0  0  0  0  0  0
  147.1762  135.3139  160.5215 C   0  0  0  0  0  0  0  0  0  0  0  0
  147.6662  136.1812  159.5071 C   0  0  0  0  0  0  0  0  0  0  0  0
  147.5080  136.0166  158.1847 N   0  5  0  0  0  0  0  0  0  0  0  0
  148.4935  135.4600  157.4452 C   0  0  0  0  0  0  0  0  0  0  0  0
  149.6137  135.1328  157.8440 O   0  0  0  0  0  0  0  0  0  0  0  0
  148.1636  135.2777  156.1586 N   0  0  0  0  0  0  0  0  0  0  0  0
  149.0358  134.7262  155.1254 C   0  0  0  0  0  0  0  0  0  0  0  0
  148.3325  133.6610  154.2348 C   0  0  2  0  0  0  0  0  0  0  0  0
  149.3985  132.6884  153.6653 C   0  0  0  0  0  0  0  0  0  0  0  0
  147.4967  134.3015  153.1600 N   0  3  2  0  0  0  0  0  0  0  0  0
  146.4358  135.2177  153.6809 C   0  0  0  0  0  0  0  0  0  0  0  0
  145.7790  136.0289  152.5518 C   0  0  0  0  0  0  0  0  0  0  0  0
  145.1989  135.1159  151.4699 C   0  0  0  0  0  0  0  0  0  0  0  0
  146.2879  134.1619  150.9667 C   0  0  0  0  0  0  0  0  0  0  0  0
  146.9481  133.3711  152.1161 C   0  0  2  0  0  0  0  0  0  0  0  0
  146.0035  132.2897  152.6894 C   0  0  0  0  0  0  0  0  0  0  0  0
  148.3505  137.1997  159.9997 N   0  0  0  0  0  0  0  0  0  0  0  0
  148.3138  137.0338  161.3894 O   0  0  0  0  0  0  0  0  0  0  0  0
  148.0569  134.6739  163.3588 H   0  0  0  0  0  0  0  0  0  0  0  0
  146.4159  135.3227  163.3459 H   0  0  0  0  0  0  0  0  0  0  0  0
  147.7742  136.3698  163.7577 H   0  0  0  0  0  0  0  0  0  0  0  0
  146.5992  134.4072  160.4198 H   0  0  0  0  0  0  0  0  0  0  0  0
  147.2340  135.5528  155.8760 H   0  0  0  0  0  0  0  0  0  0  0  0
  149.4106  135.5740  154.5559 H   0  0  0  0  0  0  0  0  0  0  0  0
  149.9013  134.2831  155.6190 H   0  0  0  0  0  0  0  0  0  0  0  0
  147.6584  133.0788  154.8642 H   0  0  0  0  0  0  0  0  0  0  0  0
  150.0266  132.2655  154.4489 H   0  0  0  0  0  0  0  0  0  0  0  0
  150.0572  133.1938  152.9585 H   0  0  0  0  0  0  0  0  0  0  0  0
  148.9592  131.8281  153.1632 H   0  0  0  0  0  0  0  0  0  0  0  0
  145.6855  134.6494  154.2311 H   0  0  0  0  0  0  0  0  0  0  0  0
  146.8369  135.9432  154.3825 H   0  0  0  0  0  0  0  0  0  0  0  0
  144.9933  136.6656  152.9598 H   0  0  0  0  0  0  0  0  0  0  0  0
  146.5176  136.6977  152.1079 H   0  0  0  0  0  0  0  0  0  0  0  0
  144.3548  134.5527  151.8688 H   0  0  0  0  0  0  0  0  0  0  0  0
  144.8101  135.7120  150.6439 H   0  0  0  0  0  0  0  0  0  0  0  0
  145.8707  133.4775  150.2269 H   0  0  0  0  0  0  0  0  0  0  0  0
  147.0524  134.7393  150.4448 H   0  0  0  0  0  0  0  0  0  0  0  0
  147.7818  132.8562  151.6413 H   0  0  0  0  0  0  0  0  0  0  0  0
  145.6651  131.6191  151.8993 H   0  0  0  0  0  0  0  0  0  0  0  0
  145.1134  132.7151  153.1510 H   0  0  0  0  0  0  0  0  0  0  0  0
  146.4937  131.6704  153.4395 H   0  0  0  0  0  0  0  0  0  0  0  0
  148.1399  134.8974  152.6591 H   0  0  0  0  0  0  0  0  0  0  0  0
  1  2  1  0  0  0  0
  1 21  1  0  0  0  0
  1 22  1  0  0  0  0
  1 23  1  0  0  0  0
  2 20  1  0  0  0  0
  2  3  2  0  0  0  0
  3  4  1  0  0  0  0
  3 24  1  0  0  0  0
  4  5  1  0  0  0  0
  4 19  2  0  0  0  0
  5  6  1  0  0  0  0
  6  7  2  0  0  0  0
  6  8  1  0  0  0  0
  8  9  1  0  0  0  0
  8 25  1  0  0  0  0
  9 10  1  0  0  0  0
  9 26  1  0  0  0  0
  9 27  1  0  0  0  0
 10 11  1  0  0  0  0
 10 12  1  0  0  0  0
 10 28  1  0  0  0  0
 11 29  1  0  0  0  0
 11 30  1  0  0  0  0
 11 31  1  0  0  0  0
 12 17  1  0  0  0  0
 12 13  1  0  0  0  0
 12 44  1  0  0  0  0
 13 14  1  0  0  0  0
 13 32  1  0  0  0  0
 13 33  1  0  0  0  0
 14 15  1  0  0  0  0
 14 34  1  0  0  0  0
 14 35  1  0  0  0  0
 15 16  1  0  0  0  0
 15 36  1  0  0  0  0
 15 37  1  0  0  0  0
 16 17  1  0  0  0  0
 16 38  1  0  0  0  0
 16 39  1  0  0  0  0
 17 18  1  0  0  0  0
 17 40  1  0  0  0  0
 18 41  1  0  0  0  0
 18 42  1  0  0  0  0
 18 43  1  0  0  0  0
 19 20  1  0  0  0  0
M  CHG  1   5  -1
M  CHG  1  12   1
M  END
> <s_m_source_file>
AV-unprocessed.smi

> <i_m_source_file_index>
1978

> <i_lp_mmshare_version>
43012

> <i_f3d_flags>
0

> <s_epik_input>
W0NIM11jMVtjSF1jKG5vMSlbTkhdQyg9TylbTkhdW0NIMl1bQ0BIXShbQ0gzXSlOMltDSDJdW0NIMl1bQ0gyXVtDSDJdW0NASF0yW0NIM10=

> <s_epik_cmdline>
J2VwaWtfcHl0aG9uJywgJy1waCcsICc3LjAnLCAnLXRuJywgJzgnLCAnLW1hJywgJzIwMCcsICctbWV0YWxfYmluZGluZycsICctaW1hZScsICc8aW5maWxlLm1hZT4nLCAnLW9tYWUnLCAnPG91dGZpbGUubWFlPic=

> <r_epik_Ionization_Penalty>
6.22372

> <r_epik_Ionization_Penalty_Charging>
6.22362

> <r_epik_Ionization_Penalty_Neutral>
9.65074e-05

> <r_epik_State_Penalty>
6.22363

> <r_epik_Charging_Adjusted_Penalty>
12.4472

> <i_epik_Tot_Q>
0

> <i_epik_Tot_abs_Q>
2

> <r_epik_Metal_State_Penalty>
2.16675

> <b_epik_Metal_Only>
1

> <s_lp_Force_Field>
OPLS_2005

> <r_lp_Energy>
13.4454

> <b_lp_Chiralities_Consistent>
1

> <s_lp_Variant>
AV-unprocessed.smi:1978-15

> <Gold.Version>
5.8.1

> <Gold.Id.Protein>
6NUR|6NUR_protein|mol2

> <Gold.PLP.Fitness>
41.5055

> <Gold.PLP.PLP>
-31.6521

> <Gold.PLP.part.hbond>
-4.7428

> <Gold.PLP.part.metal>
0.0000

> <Gold.PLP.part.buried>
-4.4468

> <Gold.PLP.part.nonpolar>
-23.2907

> <Gold.PLP.part.repulsive>
0.0000

> <Gold.PLP.ligand.clash>
0.0000

> <Gold.PLP.ligand.torsion>
1.1468

> <Gold.PLP.Chemscore.Hbond>
4.0000

> <Gold.PLP.Chemscore.CHOScore>
0.0000

> <Gold.PLP.Chemscore.Metal>
0.0000

> <Gold.Chemscore.Hbonds>
donor molecule, donor type, donor heavy atom, donor atom, acceptor molecule, acceptor atom, score
      L1  H    12    44       P1  7948  2.00
      P1  H  6896  6907       L1     7  0.90
      P1  H  6931  6943       L1    20  0.93

> <Gold.PLP.Chemscore.Internal.Correction>
0.1469

> <Gold.Rescore>
     Score         DG    S(hbond)    S(metal)    S(lipo)     H(rot)  DE(clash)    DE(int)     intcor
     16.06     -18.06       2.59        0.00      66.79       1.52       0.03       1.96       ----

> <Gold.Chemscore.Fitness>
16.0648

> <Gold.Chemscore.DG>
-18.0619

> <Gold.Chemscore.ZeroCoef>
-5.4800

> <Gold.Chemscore.Hbond>
2.5916

> <Gold.Chemscore.Metal>
0.0000

> <Gold.Chemscore.Lipo>
66.7926

> <Gold.Chemscore.Internal_Hbond>
0.0000

> <Gold.Chemscore.DEClash>
0.0324

> <Gold.Chemscore.DEInternal>
1.9648

> <Gold.Chemscore.Rot>
1.5190

> <Gold.Chemscore.Internal.Correction>
   9.000000E+99

> <Gold.Chemscore.Hbonds>
donor molecule, donor type, donor heavy atom, donor atom, acceptor molecule, acceptor atom, score
      L1  H    12    44       P1  7948  0.74
      P1  H  6896  6907       L1     7  0.82
      P1  H  6931  6943       L1    20  0.35

> <Gold.Chemscore.Hbond.Weighted>
-8.6558

> <Gold.Chemscore.Metal.Weighted>
-0.0000

> <Gold.Chemscore.Lipo.Weighted>
-7.8147

> <Gold.Chemscore.Internal_Hbond.Weighted>
0.0000

> <Gold.Chemscore.DEClash.Weighted>
0.0324

> <Gold.Chemscore.DEInternal.Weighted>
1.9648

> <Gold.Chemscore.Rot.Weighted>
3.8886

> <Gold.Chemscore.Internal.Correction.Weighted>
   9.000000E+99

> <Gold.Protein.RotatedTorsions>
[ 6907 6896 6895 6894 ] final  -93.58 input  -60.11 | X-H torsion
[ 7974 7965 7964 7962 ] final -113.39 input  175.53 | X-H torsion
[ 8008 7997 7996 7995 ] final   80.57 input   59.86 | X-H torsion
[ 10167 10162 10161 10158 ] final  168.39 input  -65.29 | X-H torsion
[ 10718 10713 10712 10709 ] final   20.17 input   66.30 | X-H torsion
[ 10763 10752 10751 10750 ] final   27.77 input  -60.55 | X-H torsion
[ 11005 11000 10999 10996 ] final  148.04 input  -57.11 | X-H torsion

> <Gold.Protein.ActiveResidues>
 VAL166  LYS551  ARG553  GLY616  TRP617  ASP618  TYR619  PRO620  LYS621  CYS622 
 ASP623  PHE694  ASN695  SER759  ASP760  ASP761  ALA762  ILE779  LEU786  VAL792 
 PHE793  MET794  SER795  GLU796  ALA797  LYS798  CYS799  TRP800  GLU811  SER814 

> <Gold.Protein.RotatedAtoms>
  150.6925  134.1944  159.4297 H   0  0  0  0  0  0  0  0  0  0  0  0  # atno 6907 bound_to 6896
  151.9914  134.9975  160.0571 H   0  0  0  0  0  0  0  0  0  0  0  0  # atno 6908 bound_to 6896
  152.1664  133.4580  159.4924 H   0  0  0  0  0  0  0  0  0  0  0  0  # atno 6909 bound_to 6896
  145.1326  140.8733  143.3749 H   0  0  0  0  0  0  0  0  0  0  0  0  # atno 7974 bound_to 7965
  155.8854  140.3442  155.5917 H   0  0  0  0  0  0  0  0  0  0  0  0  # atno 8008 bound_to 7997
  155.7672  140.0840  157.2145 H   0  0  0  0  0  0  0  0  0  0  0  0  # atno 8009 bound_to 7997
  154.4028  140.1525  156.2888 H   0  0  0  0  0  0  0  0  0  0  0  0  # atno 8010 bound_to 7997
  139.4967  144.3820  151.9612 H   0  0  0  0  0  0  0  0  0  0  0  0  # atno 10167 bound_to 10162
  157.1207  130.6548  149.5923 H   0  0  0  0  0  0  0  0  0  0  0  0  # atno 10718 bound_to 10713
  153.0534  135.6529  154.0637 H   0  0  0  0  0  0  0  0  0  0  0  0  # atno 10763 bound_to 10752
  154.0320  135.2910  155.3368 H   0  0  0  0  0  0  0  0  0  0  0  0  # atno 10764 bound_to 10752
  154.6836  135.5310  153.8362 H   0  0  0  0  0  0  0  0  0  0  0  0  # atno 10765 bound_to 10752
  140.0926  134.9032  157.1674 H   0  0  0  0  0  0  0  0  0  0  0  0  # atno 11005 bound_to 11000
  145.0618  139.3099  143.5876 LP  0  0  0  0  0  0  0  0  0  0  0  0  # atno 17320 bound_to 7965
  146.3512  140.0063  142.8671 LP  0  0  0  0  0  0  0  0  0  0  0  0  # atno 17321 bound_to 7965
  140.3256  144.3376  150.5999 LP  0  0  0  0  0  0  0  0  0  0  0  0  # atno 17342 bound_to 10162
  140.5687  143.2183  151.7638 LP  0  0  0  0  0  0  0  0  0  0  0  0  # atno 17343 bound_to 10162
  155.9829  130.4845  150.6906 LP  0  0  0  0  0  0  0  0  0  0  0  0  # atno 17370 bound_to 10713
  157.4479  131.0869  151.0877 LP  0  0  0  0  0  0  0  0  0  0  0  0  # atno 17371 bound_to 10713
  140.3331  134.2788  155.7224 LP  0  0  0  0  0  0  0  0  0  0  0  0  # atno 17394 bound_to 11000
  141.2082  133.7783  157.0071 LP  0  0  0  0  0  0  0  0  0  0  0  0  # atno 17395 bound_to 11000

$$$$
