AV-unprocessed.smi:3196|AV-procd|sdf|12222|dock4
  -GOLD-   2272018 53D 1   1.00000     0.00000
 Structure written by MMmdl.
 33 34  0  0  0  0  0  0  0  0  1 V2000
  152.0502  144.5834  158.2904 C   0  0  0  0  0  0  0  0  0  0  0  0
  151.6740  145.3200  159.5803 C   0  0  0  0  0  0  0  0  0  0  0  0
  151.4407  144.3632  160.7571 C   0  0  0  0  0  0  0  0  0  0  0  0
  152.6969  143.6002  161.1392 C   0  0  1  0  0  0  0  0  0  0  0  0
  152.6123  142.2694  161.8378 C   0  0  0  0  0  0  0  0  0  0  0  0
  153.1317  142.3404  160.4158 C   0  0  1  0  0  0  0  0  0  0  0  0
  152.2929  141.7994  159.3873 N   0  0  0  0  0  0  0  0  0  0  0  0
  152.5273  140.7269  158.6102 C   0  0  0  0  0  0  0  0  0  0  0  0
  153.5456  140.0549  158.7558 O   0  0  0  0  0  0  0  0  0  0  0  0
  151.5442  140.4626  157.7262 N   0  0  0  0  0  0  0  0  0  0  0  0
  151.4357  139.4224  156.7610 C   0  0  0  0  0  0  0  0  0  0  0  0
  152.1563  138.2030  156.7983 C   0  0  0  0  0  0  0  0  0  0  0  0
  151.9487  137.2640  155.7677 C   0  0  0  0  0  0  0  0  0  0  0  0
  151.1001  137.4633  154.7374 N   0  0  0  0  0  0  0  0  0  0  0  0
  150.4196  138.6282  154.7011 C   0  0  0  0  0  0  0  0  0  0  0  0
  150.5517  139.6323  155.6809 C   0  0  0  0  0  0  0  0  0  0  0  0
  149.8377  140.7800  155.5821 F   0  0  0  0  0  0  0  0  0  0  0  0
  152.2098  145.2873  157.4734 H   0  0  0  0  0  0  0  0  0  0  0  0
  151.2619  143.8942  157.9868 H   0  0  0  0  0  0  0  0  0  0  0  0
  152.9678  144.0086  158.4186 H   0  0  0  0  0  0  0  0  0  0  0  0
  152.4652  146.0267  159.8338 H   0  0  0  0  0  0  0  0  0  0  0  0
  150.7745  145.9120  159.4072 H   0  0  0  0  0  0  0  0  0  0  0  0
  151.0781  144.9255  161.6184 H   0  0  0  0  0  0  0  0  0  0  0  0
  150.6638  143.6414  160.5024 H   0  0  0  0  0  0  0  0  0  0  0  0
  153.5108  144.2506  161.4546 H   0  0  0  0  0  0  0  0  0  0  0  0
  153.3343  142.0730  162.6277 H   0  0  0  0  0  0  0  0  0  0  0  0
  151.6228  141.8448  161.9984 H   0  0  0  0  0  0  0  0  0  0  0  0
  154.2045  142.1811  160.3182 H   0  0  0  0  0  0  0  0  0  0  0  0
  151.3942  142.2462  159.2762 H   0  0  0  0  0  0  0  0  0  0  0  0
  150.7532  141.0892  157.7607 H   0  0  0  0  0  0  0  0  0  0  0  0
  152.8603  137.9639  157.5789 H   0  0  0  0  0  0  0  0  0  0  0  0
  152.4833  136.3256  155.7707 H   0  0  0  0  0  0  0  0  0  0  0  0
  149.7499  138.7650  153.8651 H   0  0  0  0  0  0  0  0  0  0  0  0
  1  2  1  0  0  0  0
  1 18  1  0  0  0  0
  1 19  1  0  0  0  0
  1 20  1  0  0  0  0
  2  3  1  0  0  0  0
  2 21  1  0  0  0  0
  2 22  1  0  0  0  0
  3  4  1  0  0  0  0
  3 23  1  0  0  0  0
  3 24  1  0  0  0  0
  4  6  1  0  0  0  0
  4  5  1  0  0  0  0
  4 25  1  0  0  0  0
  5  6  1  0  0  0  0
  5 26  1  0  0  0  0
  5 27  1  0  0  0  0
  6  7  1  0  0  0  0
  6 28  1  0  0  0  0
  7  8  1  0  0  0  0
  7 29  1  0  0  0  0
  8  9  2  0  0  0  0
  8 10  1  0  0  0  0
 10 11  1  0  0  0  0
 10 30  1  0  0  0  0
 11 16  1  0  0  0  0
 11 12  2  0  0  0  0
 12 13  1  0  0  0  0
 12 31  1  0  0  0  0
 13 14  2  0  0  0  0
 13 32  1  0  0  0  0
 14 15  1  0  0  0  0
 15 16  2  0  0  0  0
 15 33  1  0  0  0  0
 16 17  1  0  0  0  0
M  END
> <s_m_source_file>
AV-unprocessed.smi

> <i_m_source_file_index>
3196

> <i_lp_mmshare_version>
43012

> <i_f3d_flags>
0

> <s_epik_input>
W0NIM11bQ0gyXVtDSDJdW0NAQEhdMVtDSDJdW0NASF0xW05IXUMoPU8pW05IXWMyW2NIXVtjSF1uW2NIXWMyRg==

> <s_epik_cmdline>
J2VwaWtfcHl0aG9uJywgJy1waCcsICc3LjAnLCAnLXRuJywgJzgnLCAnLW1hJywgJzIwMCcsICctbWV0YWxfYmluZGluZycsICctaW1hZScsICc8aW5maWxlLm1hZT4nLCAnLW9tYWUnLCAnPG91dGZpbGUubWFlPic=

> <r_epik_Ionization_Penalty>
0.00341997

> <r_epik_Ionization_Penalty_Charging>
0

> <r_epik_Ionization_Penalty_Neutral>
0.00341997

> <r_epik_State_Penalty>
0.00239198

> <r_epik_Charging_Adjusted_Penalty>
0.00239198

> <i_epik_Tot_Q>
0

> <i_epik_Tot_abs_Q>
0

> <r_epik_Metal_State_Penalty>
-0

> <b_epik_Metal_Only>
0

> <s_lp_Force_Field>
OPLS_2005

> <r_lp_Energy>
35.1311

> <b_lp_Chiralities_Consistent>
1

> <s_lp_Variant>
AV-unprocessed.smi:3196-2

> <Gold.Version>
5.8.1

> <Gold.Id.Protein>
6NUR|6NUR_protein|mol2

> <Gold.PLP.Fitness>
45.3183

> <Gold.PLP.PLP>
-39.5167

> <Gold.PLP.part.hbond>
-1.0000

> <Gold.PLP.part.metal>
0.0000

> <Gold.PLP.part.buried>
-5.2814

> <Gold.PLP.part.nonpolar>
-34.4343

> <Gold.PLP.part.repulsive>
0.3700

> <Gold.PLP.ligand.clash>
0.0000

> <Gold.PLP.ligand.torsion>
0.3771

> <Gold.PLP.Chemscore.Hbond>
1.0000

> <Gold.PLP.Chemscore.CHOScore>
1.0000

> <Gold.PLP.Chemscore.Metal>
0.0000

> <Gold.Chemscore.Hbonds>
donor molecule, donor type, donor heavy atom, donor atom, acceptor molecule, acceptor atom, score
      P1  H  7997  8010       L1     9  0.99

> <Gold.PLP.Chemscore.Internal.Correction>
0.5557

> <Gold.Rescore>
     Score         DG    S(hbond)    S(metal)    S(lipo)     H(rot)  DE(clash)    DE(int)     intcor
     16.79     -17.38       0.94        0.00     105.03       1.39       0.09       0.50       ----

> <Gold.Chemscore.Fitness>
16.7855

> <Gold.Chemscore.DG>
-17.3788

> <Gold.Chemscore.ZeroCoef>
-5.4800

> <Gold.Chemscore.Hbond>
0.9449

> <Gold.Chemscore.Metal>
0.0000

> <Gold.Chemscore.Lipo>
105.0324

> <Gold.Chemscore.Internal_Hbond>
0.0000

> <Gold.Chemscore.DEClash>
0.0943

> <Gold.Chemscore.DEInternal>
0.4990

> <Gold.Chemscore.Rot>
1.3852

> <Gold.Chemscore.Internal.Correction>
   9.000000E+99

> <Gold.Chemscore.Hbonds>
donor molecule, donor type, donor heavy atom, donor atom, acceptor molecule, acceptor atom, score
      P1  H  7997  8010       L1     9  0.70

> <Gold.Chemscore.Hbond.Weighted>
-3.1560

> <Gold.Chemscore.Metal.Weighted>
-0.0000

> <Gold.Chemscore.Lipo.Weighted>
-12.2888

> <Gold.Chemscore.Internal_Hbond.Weighted>
0.0000

> <Gold.Chemscore.DEClash.Weighted>
0.0943

> <Gold.Chemscore.DEInternal.Weighted>
0.4990

> <Gold.Chemscore.Rot.Weighted>
3.5460

> <Gold.Chemscore.Internal.Correction.Weighted>
   9.000000E+99

> <Gold.Protein.RotatedTorsions>
[ 6907 6896 6895 6894 ] final   71.88 input  -60.11 | X-H torsion
[ 7974 7965 7964 7962 ] final -136.20 input  175.53 | X-H torsion
[ 8008 7997 7996 7995 ] final   30.48 input   59.86 | X-H torsion
[ 10167 10162 10161 10158 ] final -107.16 input  -65.29 | X-H torsion
[ 10718 10713 10712 10709 ] final  -87.13 input   66.30 | X-H torsion
[ 10763 10752 10751 10750 ] final   -8.17 input  -60.55 | X-H torsion
[ 11005 11000 10999 10996 ] final  -66.30 input  -57.11 | X-H torsion

> <Gold.Protein.ActiveResidues>
 VAL166  LYS551  ARG553  GLY616  TRP617  ASP618  TYR619  PRO620  LYS621  CYS622 
 ASP623  PHE694  ASN695  SER759  ASP760  ASP761  ALA762  ILE779  LEU786  VAL792 
 PHE793  MET794  SER795  GLU796  ALA797  LYS798  CYS799  TRP800  GLU811  SER814 

> <Gold.Protein.RotatedAtoms>
  152.4836  134.4654  159.9618 H   0  0  0  0  0  0  0  0  0  0  0  0  # atno 6907 bound_to 6896
  151.4655  133.3576  159.2823 H   0  0  0  0  0  0  0  0  0  0  0  0  # atno 6908 bound_to 6896
  150.8928  134.8358  159.7366 H   0  0  0  0  0  0  0  0  0  0  0  0  # atno 6909 bound_to 6896
  144.8948  140.6691  143.5122 H   0  0  0  0  0  0  0  0  0  0  0  0  # atno 7974 bound_to 7965
  155.0911  140.3220  155.4573 H   0  0  0  0  0  0  0  0  0  0  0  0  # atno 8008 bound_to 7997
  156.2742  140.2078  156.5984 H   0  0  0  0  0  0  0  0  0  0  0  0  # atno 8009 bound_to 7997
  154.6903  140.0517  157.0343 H   0  0  0  0  0  0  0  0  0  0  0  0  # atno 8010 bound_to 7997
  140.1799  143.3975  152.1289 H   0  0  0  0  0  0  0  0  0  0  0  0  # atno 10167 bound_to 10162
  155.9986  130.4789  150.4820 H   0  0  0  0  0  0  0  0  0  0  0  0  # atno 10718 bound_to 10713
  153.4367  135.7013  153.6195 H   0  0  0  0  0  0  0  0  0  0  0  0  # atno 10763 bound_to 10752
  153.4587  135.3741  155.2326 H   0  0  0  0  0  0  0  0  0  0  0  0  # atno 10764 bound_to 10752
  154.8727  135.4014  154.3759 H   0  0  0  0  0  0  0  0  0  0  0  0  # atno 10765 bound_to 10752
  141.1478  133.6697  156.6118 H   0  0  0  0  0  0  0  0  0  0  0  0  # atno 11005 bound_to 11000
  145.3720  139.1656  143.4327 LP  0  0  0  0  0  0  0  0  0  0  0  0  # atno 17320 bound_to 7965
  146.3075  140.3793  142.8682 LP  0  0  0  0  0  0  0  0  0  0  0  0  # atno 17321 bound_to 7965
  139.5300  144.7148  151.5089 LP  0  0  0  0  0  0  0  0  0  0  0  0  # atno 17342 bound_to 10162
  140.6526  143.8665  150.6801 LP  0  0  0  0  0  0  0  0  0  0  0  0  # atno 17343 bound_to 10162
  157.2824  131.0609  151.2188 LP  0  0  0  0  0  0  0  0  0  0  0  0  # atno 17370 bound_to 10713
  157.3230  130.6947  149.6280 LP  0  0  0  0  0  0  0  0  0  0  0  0  # atno 17371 bound_to 10713
  140.3608  134.7689  157.4532 LP  0  0  0  0  0  0  0  0  0  0  0  0  # atno 17394 bound_to 11000
  140.0786  134.5762  155.8564 LP  0  0  0  0  0  0  0  0  0  0  0  0  # atno 17395 bound_to 11000

$$$$
