AV-unprocessed.smi:155|AV-procd|sdf|1284|dock1
  -GOLD-   2262018553D 1   1.00000     0.00000
 Structure written by MMmdl.
 64 67  0  0  0  0  0  0  0  0  3 V2000
  143.6703  132.9599  151.8020 C   0  0  0  0  0  0  0  0  0  0  0  0
  143.5493  133.8055  150.5916 N   0  3  0  0  0  0  0  0  0  0  0  0
  144.0936  133.1217  149.3971 C   0  0  0  0  0  0  0  0  0  0  0  0
  144.1194  135.1664  150.7633 C   0  0  0  0  0  0  0  0  0  0  0  0
  145.6513  135.1472  150.9758 C   0  0  0  0  0  0  0  0  0  0  0  0
  146.1574  136.2582  151.8259 N   0  3  1  0  0  0  0  0  0  0  0  0
  145.8608  137.6012  151.2689 C   0  0  0  0  0  0  0  0  0  0  0  0
  146.8057  138.6826  151.8096 C   0  0  0  0  0  0  0  0  0  0  0  0
  146.6939  138.9229  153.3227 C   0  0  0  0  0  0  0  0  0  0  0  0
  147.4107  137.9027  154.0926 N   0  0  0  0  0  0  0  0  0  0  0  0
  148.1820  138.3109  155.1338 C   0  0  0  0  0  0  0  0  0  0  0  0
  148.3698  137.4815  156.1948 N   0  0  0  0  0  0  0  0  0  0  0  0
  149.1409  137.8581  157.2194 C   0  0  0  0  0  0  0  0  0  0  0  0
  149.8093  139.0010  157.3844 N   0  0  0  0  0  0  0  0  0  0  0  0
  149.6259  139.8377  156.3241 C   0  0  0  0  0  0  0  0  0  0  0  0
  148.8380  139.5749  155.1676 C   0  0  0  0  0  0  0  0  0  0  0  0
  148.8845  140.6671  154.3085 N   0  0  0  0  0  0  0  0  0  0  0  0
  149.6598  141.5220  154.9181 C   0  0  0  0  0  0  0  0  0  0  0  0
  150.1532  141.1018  156.1320 N   0  0  0  0  0  0  0  0  0  0  0  0
  151.0341  141.8427  157.0172 C   0  0  0  0  0  0  0  0  0  0  0  0
  150.3046  142.4210  158.2479 C   0  0  2  0  0  0  0  0  0  0  0  0
  149.1329  143.0607  157.7823 O   0  0  0  0  0  0  0  0  0  0  0  0
  151.1595  143.4038  159.0815 C   0  0  1  0  0  0  0  0  0  0  0  0
  151.8060  144.5718  158.3306 C   0  0  0  0  0  0  0  0  0  0  0  0
  151.9967  145.5701  159.4504 C   0  0  0  0  0  0  0  0  0  0  0  0
  150.7276  145.3602  160.2731 C   0  0  0  0  0  0  0  0  0  0  0  0
  150.3977  143.9802  160.1385 O   0  0  0  0  0  0  0  0  0  0  0  0
  146.9342  136.5212  154.2024 C   0  0  0  0  0  0  0  0  0  0  0  0
  145.7851  136.1282  153.2583 C   0  0  0  0  0  0  0  0  0  0  0  0
  144.7162  132.8171  152.0772 H   0  0  0  0  0  0  0  0  0  0  0  0
  143.2287  131.9776  151.6297 H   0  0  0  0  0  0  0  0  0  0  0  0
  143.1482  133.4002  152.6509 H   0  0  0  0  0  0  0  0  0  0  0  0
  145.1700  132.9702  149.4899 H   0  0  0  0  0  0  0  0  0  0  0  0
  143.9058  133.7052  148.4949 H   0  0  0  0  0  0  0  0  0  0  0  0
  143.6225  132.1476  149.2604 H   0  0  0  0  0  0  0  0  0  0  0  0
  143.8495  135.7860  149.9070 H   0  0  0  0  0  0  0  0  0  0  0  0
  143.6473  135.6222  151.6346 H   0  0  0  0  0  0  0  0  0  0  0  0
  145.9515  134.2017  151.4303 H   0  0  0  0  0  0  0  0  0  0  0  0
  146.1682  135.1932  150.0171 H   0  0  0  0  0  0  0  0  0  0  0  0
  145.9748  137.5704  150.1844 H   0  0  0  0  0  0  0  0  0  0  0  0
  144.8216  137.8730  151.4601 H   0  0  0  0  0  0  0  0  0  0  0  0
  147.8386  138.4578  151.5393 H   0  0  0  0  0  0  0  0  0  0  0  0
  146.5643  139.6166  151.3010 H   0  0  0  0  0  0  0  0  0  0  0  0
  147.1178  139.9082  153.5204 H   0  0  0  0  0  0  0  0  0  0  0  0
  145.6510  138.9712  153.6376 H   0  0  0  0  0  0  0  0  0  0  0  0
  149.2373  137.1404  158.0211 H   0  0  0  0  0  0  0  0  0  0  0  0
  149.8977  142.4868  154.4939 H   0  0  0  0  0  0  0  0  0  0  0  0
  151.8406  141.1791  157.3324 H   0  0  0  0  0  0  0  0  0  0  0  0
  151.4983  142.6443  156.4412 H   0  0  0  0  0  0  0  0  0  0  0  0
  149.9985  141.5944  158.8902 H   0  0  0  0  0  0  0  0  0  0  0  0
  149.3631  143.6135  157.0515 H   0  0  0  0  0  0  0  0  0  0  0  0
  151.9519  142.8510  159.5876 H   0  0  0  0  0  0  0  0  0  0  0  0
  152.7396  144.2956  157.8402 H   0  0  0  0  0  0  0  0  0  0  0  0
  151.1363  144.9906  157.5789 H   0  0  0  0  0  0  0  0  0  0  0  0
  152.8760  145.3086  160.0411 H   0  0  0  0  0  0  0  0  0  0  0  0
  152.1124  146.5954  159.0981 H   0  0  0  0  0  0  0  0  0  0  0  0
  150.8568  145.6404  161.3186 H   0  0  0  0  0  0  0  0  0  0  0  0
  149.9082  145.9519  159.8631 H   0  0  0  0  0  0  0  0  0  0  0  0
  147.7701  135.8480  154.0143 H   0  0  0  0  0  0  0  0  0  0  0  0
  146.6192  136.3396  155.2312 H   0  0  0  0  0  0  0  0  0  0  0  0
  144.8797  136.6951  153.4803 H   0  0  0  0  0  0  0  0  0  0  0  0
  145.5392  135.0884  153.4780 H   0  0  0  0  0  0  0  0  0  0  0  0
  142.5611  133.9231  150.4166 H   0  0  0  0  0  0  0  0  0  0  0  0
  147.1629  136.1618  151.7967 H   0  0  0  0  0  0  0  0  0  0  0  0
  1  2  1  0  0  0  0
  1 30  1  0  0  0  0
  1 31  1  0  0  0  0
  1 32  1  0  0  0  0
  2  3  1  0  0  0  0
  2  4  1  0  0  0  0
  2 63  1  0  0  0  0
  3 33  1  0  0  0  0
  3 34  1  0  0  0  0
  3 35  1  0  0  0  0
  4  5  1  0  0  0  0
  4 36  1  0  0  0  0
  4 37  1  0  0  0  0
  5  6  1  0  0  0  0
  5 38  1  0  0  0  0
  5 39  1  0  0  0  0
  6 29  1  0  0  0  0
  6  7  1  0  0  0  0
  6 64  1  0  0  0  0
  7  8  1  0  0  0  0
  7 40  1  0  0  0  0
  7 41  1  0  0  0  0
  8  9  1  0  0  0  0
  8 42  1  0  0  0  0
  8 43  1  0  0  0  0
  9 10  1  0  0  0  0
  9 44  1  0  0  0  0
  9 45  1  0  0  0  0
 10 11  1  0  0  0  0
 10 28  1  0  0  0  0
 11 16  1  0  0  0  0
 11 12  2  0  0  0  0
 12 13  1  0  0  0  0
 13 14  2  0  0  0  0
 13 46  1  0  0  0  0
 14 15  1  0  0  0  0
 15 19  1  0  0  0  0
 15 16  2  0  0  0  0
 16 17  1  0  0  0  0
 17 18  2  0  0  0  0
 18 19  1  0  0  0  0
 18 47  1  0  0  0  0
 19 20  1  0  0  0  0
 20 21  1  0  0  0  0
 20 48  1  0  0  0  0
 20 49  1  0  0  0  0
 21 22  1  0  0  0  0
 21 23  1  0  0  0  0
 21 50  1  0  0  0  0
 22 51  1  0  0  0  0
 23 27  1  0  0  0  0
 23 24  1  0  0  0  0
 23 52  1  0  0  0  0
 24 25  1  0  0  0  0
 24 53  1  0  0  0  0
 24 54  1  0  0  0  0
 25 26  1  0  0  0  0
 25 55  1  0  0  0  0
 25 56  1  0  0  0  0
 26 27  1  0  0  0  0
 26 57  1  0  0  0  0
 26 58  1  0  0  0  0
 28 29  1  0  0  0  0
 28 59  1  0  0  0  0
 28 60  1  0  0  0  0
 29 61  1  0  0  0  0
 29 62  1  0  0  0  0
M  CHG  1   2   1
M  CHG  1   6   1
M  END
> <s_m_source_file>
AV-unprocessed.smi

> <i_m_source_file_index>
155

> <i_lp_mmshare_version>
43012

> <i_f3d_flags>
0

> <s_epik_input>
W0NIM11OKFtDSDNdKVtDSDJdW0NIMl1OMVtDSDJdW0NIMl1bQ0gyXU4oW0NIMl1bQ0gyXTEpYyhuW2NIXW4yKWMoYzIzKW5bY0hdbjNbQ0gyXVtDQEhdKFtPSF0pW0NAQEhdNFtDSDJdW0NIMl1bQ0gyXU80

> <s_epik_cmdline>
J2VwaWtfcHl0aG9uJywgJy1waCcsICc3LjAnLCAnLXRuJywgJzgnLCAnLW1hJywgJzIwMCcsICctbWV0YWxfYmluZGluZycsICctaW1hZScsICc8aW5maWxlLm1hZT4nLCAnLW9tYWUnLCAnPG91dGZpbGUubWFlPic=

> <r_lp_tautomer_probability>
1

> <r_epik_Ionization_Penalty>
3.0333

> <r_epik_Ionization_Penalty_Charging>
3.03317

> <r_epik_Ionization_Penalty_Neutral>
0.000131872

> <r_epik_State_Penalty>
1.99939

> <r_epik_Charging_Adjusted_Penalty>
5.03256

> <i_epik_Tot_Q>
2

> <i_epik_Tot_abs_Q>
2

> <r_epik_Metal_State_Penalty>
2.00021

> <b_epik_Metal_Only>
0

> <s_lp_Force_Field>
OPLS_2005

> <r_lp_Energy>
68.1254

> <b_lp_Chiralities_Consistent>
1

> <s_lp_Variant>
AV-unprocessed.smi:155-18

> <Gold.Version>
5.8.1

> <Gold.Id.Protein>
6NUR|6NUR_protein|mol2

> <Gold.PLP.Fitness>
62.2223

> <Gold.PLP.PLP>
-46.7241

> <Gold.PLP.part.hbond>
-4.4091

> <Gold.PLP.part.metal>
0.0000

> <Gold.PLP.part.buried>
1.5389

> <Gold.PLP.part.nonpolar>
-45.3360

> <Gold.PLP.part.repulsive>
0.3480

> <Gold.PLP.ligand.clash>
0.0000

> <Gold.PLP.ligand.torsion>
0.7172

> <Gold.PLP.Chemscore.Hbond>
5.0000

> <Gold.PLP.Chemscore.CHOScore>
0.5431

> <Gold.PLP.Chemscore.Metal>
0.0000

> <Gold.Chemscore.Hbonds>
donor molecule, donor type, donor heavy atom, donor atom, acceptor molecule, acceptor atom, score
      L1  H     2    63       P1 10186  2.00
      L1  H     6    64       P1  7948  2.00
      L1  H    22    51       P1  8028  1.00
      L1  C    18    47       P1  8028  0.46

> <Gold.PLP.Chemscore.Internal.Correction>
0.3033

> <Gold.Rescore>
     Score         DG    S(hbond)    S(metal)    S(lipo)     H(rot)  DE(clash)    DE(int)     intcor
     18.24     -21.99       2.80        0.00     121.37       2.75       1.80       1.94       ----

> <Gold.Chemscore.Fitness>
18.2442

> <Gold.Chemscore.DG>
-21.9869

> <Gold.Chemscore.ZeroCoef>
-5.4800

> <Gold.Chemscore.Hbond>
2.7979

> <Gold.Chemscore.Metal>
0.0000

> <Gold.Chemscore.Lipo>
121.3698

> <Gold.Chemscore.Internal_Hbond>
0.0000

> <Gold.Chemscore.DEClash>
1.7989

> <Gold.Chemscore.DEInternal>
1.9439

> <Gold.Chemscore.Rot>
2.7493

> <Gold.Chemscore.Internal.Correction>
   9.000000E+99

> <Gold.Chemscore.Hbonds>
donor molecule, donor type, donor heavy atom, donor atom, acceptor molecule, acceptor atom, score
      L1  H     2    63       P1 10186  0.94
      L1  H     6    64       P1  7948  1.00
      L1  H    22    51       P1  8028  0.78

> <Gold.Chemscore.Hbond.Weighted>
-9.3449

> <Gold.Chemscore.Metal.Weighted>
-0.0000

> <Gold.Chemscore.Lipo.Weighted>
-14.2003

> <Gold.Chemscore.Internal_Hbond.Weighted>
0.0000

> <Gold.Chemscore.DEClash.Weighted>
1.7989

> <Gold.Chemscore.DEInternal.Weighted>
1.9439

> <Gold.Chemscore.Rot.Weighted>
7.0383

> <Gold.Chemscore.Internal.Correction.Weighted>
   9.000000E+99

> <Gold.Protein.RotatedTorsions>
[ 6907 6896 6895 6894 ] final   15.01 input  -60.11 | X-H torsion
[ 7974 7965 7964 7962 ] final  -22.30 input  175.53 | X-H torsion
[ 8008 7997 7996 7995 ] final  -55.05 input   59.86 | X-H torsion
[ 10167 10162 10161 10158 ] final  -42.54 input  -65.29 | X-H torsion
[ 10718 10713 10712 10709 ] final  -34.35 input   66.30 | X-H torsion
[ 10763 10752 10751 10750 ] final -121.65 input  -60.55 | X-H torsion
[ 11005 11000 10999 10996 ] final  170.40 input  -57.11 | X-H torsion

> <Gold.Protein.ActiveResidues>
 VAL166  LYS551  ARG553  GLY616  TRP617  ASP618  TYR619  PRO620  LYS621  CYS622 
 ASP623  PHE694  ASN695  SER759  ASP760  ASP761  ALA762  ILE779  LEU786  VAL792 
 PHE793  MET794  SER795  GLU796  ALA797  LYS798  CYS799  TRP800  GLU811  SER814 

> <Gold.Protein.RotatedAtoms>
  151.8113  135.0680  160.0413 H   0  0  0  0  0  0  0  0  0  0  0  0  # atno 6907 bound_to 6896
  152.3018  133.5659  159.5632 H   0  0  0  0  0  0  0  0  0  0  0  0  # atno 6908 bound_to 6896
  150.7277  134.0196  159.3739 H   0  0  0  0  0  0  0  0  0  0  0  0  # atno 6909 bound_to 6896
  146.1683  140.4460  142.8543 H   0  0  0  0  0  0  0  0  0  0  0  0  # atno 7974 bound_to 7965
  154.4182  140.1162  156.5415 H   0  0  0  0  0  0  0  0  0  0  0  0  # atno 8008 bound_to 7997
  155.6503  140.3496  155.4727 H   0  0  0  0  0  0  0  0  0  0  0  0  # atno 8009 bound_to 7997
  155.9798  140.1158  157.0727 H   0  0  0  0  0  0  0  0  0  0  0  0  # atno 8010 bound_to 7997
  140.6965  143.3032  151.3224 H   0  0  0  0  0  0  0  0  0  0  0  0  # atno 10167 bound_to 10162
  156.3516  130.4309  149.7699 H   0  0  0  0  0  0  0  0  0  0  0  0  # atno 10718 bound_to 10713
  154.8673  135.4160  154.2654 H   0  0  0  0  0  0  0  0  0  0  0  0  # atno 10763 bound_to 10752
  153.3574  135.7001  153.6745 H   0  0  0  0  0  0  0  0  0  0  0  0  # atno 10764 bound_to 10752
  153.5660  135.3600  155.2791 H   0  0  0  0  0  0  0  0  0  0  0  0  # atno 10765 bound_to 10752
  140.3080  134.7541  157.3968 H   0  0  0  0  0  0  0  0  0  0  0  0  # atno 11005 bound_to 11000
  144.8126  140.6411  143.6405 LP  0  0  0  0  0  0  0  0  0  0  0  0  # atno 17320 bound_to 7965
  145.4407  139.1536  143.3972 LP  0  0  0  0  0  0  0  0  0  0  0  0  # atno 17321 bound_to 7965
  139.6428  144.0508  152.2567 LP  0  0  0  0  0  0  0  0  0  0  0  0  # atno 17342 bound_to 10162
  140.0019  144.6287  150.7722 LP  0  0  0  0  0  0  0  0  0  0  0  0  # atno 17343 bound_to 10162
  156.4897  130.8079  151.3089 LP  0  0  0  0  0  0  0  0  0  0  0  0  # atno 17370 bound_to 10713
  157.7462  130.9979  150.2834 LP  0  0  0  0  0  0  0  0  0  0  0  0  # atno 17371 bound_to 10713
  140.1050  134.5421  155.8317 LP  0  0  0  0  0  0  0  0  0  0  0  0  # atno 17394 bound_to 11000
  141.2114  133.6706  156.6582 LP  0  0  0  0  0  0  0  0  0  0  0  0  # atno 17395 bound_to 11000

$$$$
