AV-unprocessed.smi:13|AV-procd|sdf|76|dock5
  -GOLD-   2262015203D 1   1.00000     0.00000
 Structure written by MMmdl.
 54 58  0  0  0  0  0  0  0  0  1 V2000
  151.0893  143.3310  158.0119 C   0  0  0  0  0  0  0  0  0  0  0  0
  150.7907  141.8325  157.9619 C   0  0  0  0  0  0  0  0  0  0  0  0
  151.7208  141.1671  158.9854 C   0  0  0  0  0  0  0  0  0  0  0  0
  149.3090  141.4396  158.0632 C   0  0  0  0  0  0  0  0  0  0  0  0
  149.5721  140.4581  157.0261 N   0  0  0  0  0  0  0  0  0  0  0  0
  148.4715  140.2726  156.1437 C   0  0  0  0  0  0  0  0  0  0  0  0
  148.5255  140.6639  154.8414 N   0  0  0  0  0  0  0  0  0  0  0  0
  147.4835  140.4805  154.0253 C   0  0  0  0  0  0  0  0  0  0  0  0
  146.2989  139.9323  154.2973 N   0  0  0  0  0  0  0  0  0  0  0  0
  146.2310  139.5353  155.5994 C   0  0  0  0  0  0  0  0  0  0  0  0
  147.2577  139.6727  156.5758 C   0  0  0  0  0  0  0  0  0  0  0  0
  146.8246  139.1639  157.7935 N   0  0  0  0  0  0  0  0  0  0  0  0
  145.6117  138.7480  157.5509 C   0  0  0  0  0  0  0  0  0  0  0  0
  145.1782  138.9207  156.2552 N   0  0  0  0  0  0  0  0  0  0  0  0
  143.8813  138.5475  155.7103 C   0  0  0  0  0  0  0  0  0  0  0  0
  143.9557  137.4480  154.6238 C   0  0  2  0  0  0  0  0  0  0  0  0
  144.7619  137.9051  153.5519 O   0  0  0  0  0  0  0  0  0  0  0  0
  142.5871  137.0770  154.0655 C   0  0  0  0  0  0  0  0  0  0  0  0
  142.7695  135.6195  153.6649 C   0  0  0  0  0  0  0  0  0  0  0  0
  143.5651  135.1016  154.7171 O   0  0  0  0  0  0  0  0  0  0  0  0
  144.5106  136.0924  155.1095 C   0  0  0  0  0  0  0  0  0  0  0  0
  150.7264  141.2145  156.5468 C   0  0  2  0  0  0  0  0  0  0  0  0
  151.8458  140.3037  156.0254 C   0  0  1  0  0  0  0  0  0  0  0  0
  152.0645  139.0376  156.8615 C   0  0  0  0  0  0  0  0  0  0  0  0
  151.0753  138.0664  156.2607 C   0  0  0  0  0  0  0  0  0  0  0  0
  151.1692  138.4253  154.7835 C   0  0  0  0  0  0  0  0  0  0  0  0
  151.4318  139.8250  154.7450 O   0  0  0  0  0  0  0  0  0  0  0  0
  150.9139  143.7428  159.0062 H   0  0  0  0  0  0  0  0  0  0  0  0
  150.4592  143.8875  157.3173 H   0  0  0  0  0  0  0  0  0  0  0  0
  152.1257  143.5397  157.7443 H   0  0  0  0  0  0  0  0  0  0  0  0
  151.5496  140.0922  159.0485 H   0  0  0  0  0  0  0  0  0  0  0  0
  151.5677  141.5719  159.9863 H   0  0  0  0  0  0  0  0  0  0  0  0
  152.7706  141.3135  158.7289 H   0  0  0  0  0  0  0  0  0  0  0  0
  149.0174  141.0016  159.0181 H   0  0  0  0  0  0  0  0  0  0  0  0
  148.6251  142.2289  157.7441 H   0  0  0  0  0  0  0  0  0  0  0  0
  147.6195  140.8205  153.0094 H   0  0  0  0  0  0  0  0  0  0  0  0
  144.9974  138.2983  158.3172 H   0  0  0  0  0  0  0  0  0  0  0  0
  143.2509  138.2160  156.5361 H   0  0  0  0  0  0  0  0  0  0  0  0
  143.4078  139.4436  155.3065 H   0  0  0  0  0  0  0  0  0  0  0  0
  144.3630  138.6790  153.1847 H   0  0  0  0  0  0  0  0  0  0  0  0
  141.8293  137.1376  154.8482 H   0  0  0  0  0  0  0  0  0  0  0  0
  142.2622  137.7120  153.2401 H   0  0  0  0  0  0  0  0  0  0  0  0
  141.8246  135.0839  153.5730 H   0  0  0  0  0  0  0  0  0  0  0  0
  143.3095  135.5361  152.7203 H   0  0  0  0  0  0  0  0  0  0  0  0
  145.4888  135.8681  154.6807 H   0  0  0  0  0  0  0  0  0  0  0  0
  144.6119  136.0487  156.1933 H   0  0  0  0  0  0  0  0  0  0  0  0
  150.4489  141.9911  155.8325 H   0  0  0  0  0  0  0  0  0  0  0  0
  152.7816  140.8539  155.9221 H   0  0  0  0  0  0  0  0  0  0  0  0
  153.0784  138.6662  156.7073 H   0  0  0  0  0  0  0  0  0  0  0  0
  151.9288  139.1828  157.9326 H   0  0  0  0  0  0  0  0  0  0  0  0
  151.3185  137.0232  156.4638 H   0  0  0  0  0  0  0  0  0  0  0  0
  150.0718  138.2655  156.6392 H   0  0  0  0  0  0  0  0  0  0  0  0
  152.0049  137.9023  154.3173 H   0  0  0  0  0  0  0  0  0  0  0  0
  150.2619  138.1746  154.2336 H   0  0  0  0  0  0  0  0  0  0  0  0
  1  2  1  0  0  0  0
  1 28  1  0  0  0  0
  1 29  1  0  0  0  0
  1 30  1  0  0  0  0
  2 22  1  0  0  0  0
  2  3  1  0  0  0  0
  2  4  1  0  0  0  0
  3 31  1  0  0  0  0
  3 32  1  0  0  0  0
  3 33  1  0  0  0  0
  4  5  1  0  0  0  0
  4 34  1  0  0  0  0
  4 35  1  0  0  0  0
  5  6  1  0  0  0  0
  5 22  1  0  0  0  0
  6 11  1  0  0  0  0
  6  7  2  0  0  0  0
  7  8  1  0  0  0  0
  8  9  2  0  0  0  0
  8 36  1  0  0  0  0
  9 10  1  0  0  0  0
 10 14  1  0  0  0  0
 10 11  2  0  0  0  0
 11 12  1  0  0  0  0
 12 13  2  0  0  0  0
 13 14  1  0  0  0  0
 13 37  1  0  0  0  0
 14 15  1  0  0  0  0
 15 16  1  0  0  0  0
 15 38  1  0  0  0  0
 15 39  1  0  0  0  0
 16 21  1  0  0  0  0
 16 17  1  0  0  0  0
 16 18  1  0  0  0  0
 17 40  1  0  0  0  0
 18 19  1  0  0  0  0
 18 41  1  0  0  0  0
 18 42  1  0  0  0  0
 19 20  1  0  0  0  0
 19 43  1  0  0  0  0
 19 44  1  0  0  0  0
 20 21  1  0  0  0  0
 21 45  1  0  0  0  0
 21 46  1  0  0  0  0
 22 23  1  0  0  0  0
 22 47  1  0  0  0  0
 23 27  1  0  0  0  0
 23 24  1  0  0  0  0
 23 48  1  0  0  0  0
 24 25  1  0  0  0  0
 24 49  1  0  0  0  0
 24 50  1  0  0  0  0
 25 26  1  0  0  0  0
 25 51  1  0  0  0  0
 25 52  1  0  0  0  0
 26 27  1  0  0  0  0
 26 53  1  0  0  0  0
 26 54  1  0  0  0  0
M  END
> <s_m_source_file>
AV-unprocessed.smi

> <i_m_source_file_index>
13

> <i_lp_mmshare_version>
43012

> <i_f3d_flags>
0

> <s_epik_input>
TzFbQ0gyXVtDSDJdW0NIMl1bQ0BIXTFbQ0BASF0yTihbQ0gyXUMyKFtDSDNdKVtDSDNdKWMobltjSF1uMyljKGMzNCluW2NIXW40W0NIMl1bQ0BAXTUoW09IXSlbQ0gyXVtDSDJdT1tDSDJdNQ==

> <s_epik_cmdline>
J2VwaWtfcHl0aG9uJywgJy1waCcsICc3LjAnLCAnLXRuJywgJzgnLCAnLW1hJywgJzIwMCcsICctbWV0YWxfYmluZGluZycsICctaW1hZScsICc8aW5maWxlLm1hZT4nLCAnLW9tYWUnLCAnPG91dGZpbGUubWFlPic=

> <r_lp_tautomer_probability>
1

> <r_epik_Ionization_Penalty>
0.00202764

> <r_epik_Ionization_Penalty_Charging>
0

> <r_epik_Ionization_Penalty_Neutral>
0.00202764

> <r_epik_State_Penalty>
0.00134017

> <r_epik_Charging_Adjusted_Penalty>
0.00134017

> <i_epik_Tot_Q>
0

> <i_epik_Tot_abs_Q>
0

> <r_epik_Metal_State_Penalty>
-0

> <b_epik_Metal_Only>
0

> <s_lp_Force_Field>
OPLS_2005

> <r_lp_Energy>
64.8662

> <b_lp_Chiralities_Consistent>
1

> <s_lp_Variant>
AV-unprocessed.smi:13-8

> <Gold.Version>
5.8.1

> <Gold.Id.Protein>
6NUR|6NUR_protein|mol2

> <Gold.PLP.Fitness>
37.3448

> <Gold.PLP.PLP>
-28.4891

> <Gold.PLP.part.hbond>
-2.0000

> <Gold.PLP.part.metal>
0.0000

> <Gold.PLP.part.buried>
-5.1378

> <Gold.PLP.part.nonpolar>
-22.2178

> <Gold.PLP.part.repulsive>
0.4312

> <Gold.PLP.ligand.clash>
0.0000

> <Gold.PLP.ligand.torsion>
0.2935

> <Gold.PLP.Chemscore.Hbond>
2.0000

> <Gold.PLP.Chemscore.CHOScore>
1.0000

> <Gold.PLP.Chemscore.Metal>
0.0000

> <Gold.Chemscore.Hbonds>
donor molecule, donor type, donor heavy atom, donor atom, acceptor molecule, acceptor atom, score
      L1  H    17    40       P1 10175  0.99
      P1  H  7989  7998       L1    27  1.00
      L1  C     8    36       P1  7957  0.29

> <Gold.PLP.Chemscore.Internal.Correction>
0.4427

> <Gold.Rescore>
     Score         DG    S(hbond)    S(metal)    S(lipo)     H(rot)  DE(clash)    DE(int)     intcor
     12.67     -14.40       1.94        0.00      71.25       2.30       0.00       1.73       ----

> <Gold.Chemscore.Fitness>
12.6655

> <Gold.Chemscore.DG>
-14.3963

> <Gold.Chemscore.ZeroCoef>
-5.4800

> <Gold.Chemscore.Hbond>
1.9364

> <Gold.Chemscore.Metal>
0.0000

> <Gold.Chemscore.Lipo>
71.2457

> <Gold.Chemscore.Internal_Hbond>
0.0000

> <Gold.Chemscore.DEClash>
0.0009

> <Gold.Chemscore.DEInternal>
1.7299

> <Gold.Chemscore.Rot>
2.2996

> <Gold.Chemscore.Internal.Correction>
   9.000000E+99

> <Gold.Chemscore.Hbonds>
donor molecule, donor type, donor heavy atom, donor atom, acceptor molecule, acceptor atom, score
      L1  H    17    40       P1 10175  0.92
      P1  H  7989  7998       L1    27  0.92

> <Gold.Chemscore.Hbond.Weighted>
-6.4675

> <Gold.Chemscore.Metal.Weighted>
-0.0000

> <Gold.Chemscore.Lipo.Weighted>
-8.3357

> <Gold.Chemscore.Internal_Hbond.Weighted>
0.0000

> <Gold.Chemscore.DEClash.Weighted>
0.0009

> <Gold.Chemscore.DEInternal.Weighted>
1.7299

> <Gold.Chemscore.Rot.Weighted>
5.8869

> <Gold.Chemscore.Internal.Correction.Weighted>
   9.000000E+99

> <Gold.Protein.RotatedTorsions>
[ 6907 6896 6895 6894 ] final   77.33 input  -60.11 | X-H torsion
[ 7974 7965 7964 7962 ] final -170.51 input  175.53 | X-H torsion
[ 8008 7997 7996 7995 ] final   50.83 input   59.86 | X-H torsion
[ 10167 10162 10161 10158 ] final  -40.61 input  -65.29 | X-H torsion
[ 10718 10713 10712 10709 ] final  -48.21 input   66.30 | X-H torsion
[ 10763 10752 10751 10750 ] final  -32.28 input  -60.55 | X-H torsion
[ 11005 11000 10999 10996 ] final -132.77 input  -57.11 | X-H torsion

> <Gold.Protein.ActiveResidues>
 VAL166  LYS551  ARG553  GLY616  TRP617  ASP618  TYR619  PRO620  LYS621  CYS622 
 ASP623  PHE694  ASN695  SER759  ASP760  ASP761  ALA762  ILE779  LEU786  VAL792 
 PHE793  MET794  SER795  GLU796  ALA797  LYS798  CYS799  TRP800  GLU811  SER814 

> <Gold.Protein.RotatedAtoms>
  152.5113  134.3833  159.9358 H   0  0  0  0  0  0  0  0  0  0  0  0  # atno 6907 bound_to 6896
  151.3791  133.3821  159.2716 H   0  0  0  0  0  0  0  0  0  0  0  0  # atno 6908 bound_to 6896
  150.9518  134.8937  159.7735 H   0  0  0  0  0  0  0  0  0  0  0  0  # atno 6909 bound_to 6896
  144.7169  140.2061  143.6333 H   0  0  0  0  0  0  0  0  0  0  0  0  # atno 7974 bound_to 7965
  155.4252  140.3448  155.4275 H   0  0  0  0  0  0  0  0  0  0  0  0  # atno 8008 bound_to 7997
  156.1369  140.1530  156.9011 H   0  0  0  0  0  0  0  0  0  0  0  0  # atno 8009 bound_to 7997
  154.4939  140.0833  156.7635 H   0  0  0  0  0  0  0  0  0  0  0  0  # atno 8010 bound_to 7997
  140.7029  143.3143  151.2949 H   0  0  0  0  0  0  0  0  0  0  0  0  # atno 10167 bound_to 10162
  156.2009  130.4156  149.9242 H   0  0  0  0  0  0  0  0  0  0  0  0  # atno 10718 bound_to 10713
  153.8112  135.6882  153.4840 H   0  0  0  0  0  0  0  0  0  0  0  0  # atno 10763 bound_to 10752
  153.1627  135.4573  154.9792 H   0  0  0  0  0  0  0  0  0  0  0  0  # atno 10764 bound_to 10752
  154.7966  135.3321  154.7593 H   0  0  0  0  0  0  0  0  0  0  0  0  # atno 10765 bound_to 10752
  140.9141  134.1530  157.4366 H   0  0  0  0  0  0  0  0  0  0  0  0  # atno 11005 bound_to 11000
  145.8635  139.2235  143.1703 LP  0  0  0  0  0  0  0  0  0  0  0  0  # atno 17320 bound_to 7965
  146.0152  140.8399  142.9951 LP  0  0  0  0  0  0  0  0  0  0  0  0  # atno 17321 bound_to 7965
  139.6577  144.0247  152.2671 LP  0  0  0  0  0  0  0  0  0  0  0  0  # atno 17342 bound_to 10162
  139.9804  144.6432  150.7906 LP  0  0  0  0  0  0  0  0  0  0  0  0  # atno 17343 bound_to 10162
  156.6952  130.8911  151.3593 LP  0  0  0  0  0  0  0  0  0  0  0  0  # atno 17370 bound_to 10713
  157.6985  130.9308  150.0715 LP  0  0  0  0  0  0  0  0  0  0  0  0  # atno 17371 bound_to 10713
  139.8763  134.9947  156.5705 LP  0  0  0  0  0  0  0  0  0  0  0  0  # atno 17394 bound_to 11000
  140.8073  133.8457  155.8778 LP  0  0  0  0  0  0  0  0  0  0  0  0  # atno 17395 bound_to 11000

$$$$
