AV-unprocessed.smi:1762|AV-procd|sdf|7121|dock2
  -GOLD-   22720 8353D 1   1.00000     0.00000
 Structure written by MMmdl.
 52 53  0  0  0  0  0  0  0  0  3 V2000
  150.7248  134.1965  155.7229 C   0  0  0  0  0  0  0  0  0  0  0  0
  149.5546  134.9026  155.0303 C   0  0  2  0  0  0  0  0  0  0  0  0
  149.5508  136.4159  155.3037 C   0  0  0  0  0  0  0  0  0  0  0  0
  148.3534  137.0370  154.6873 N   0  3  2  0  0  0  0  0  0  0  0  0
  148.3174  138.5322  154.6476 C   0  0  1  0  0  0  0  0  0  0  0  0
  149.6716  139.2059  154.9889 C   0  0  0  0  0  0  0  0  0  0  0  0
  150.5366  139.2305  154.1068 O   0  0  0  0  0  0  0  0  0  0  0  0
  149.7131  139.6886  156.2633 N   0  5  0  0  0  0  0  0  0  0  0  0
  150.6206  140.7484  156.7060 C   0  0  0  0  0  0  0  0  0  0  0  0
  149.9598  141.6656  157.7641 C   0  0  0  0  0  0  0  0  0  0  0  0
  150.8777  142.7001  158.4132 C   0  0  0  0  0  0  0  0  0  0  0  0
  151.4902  143.7066  157.6326 C   0  0  0  0  0  0  0  0  0  0  0  0
  152.3554  144.6199  158.2653 C   0  0  0  0  0  0  0  0  0  0  0  0
  152.5838  144.4931  159.6482 C   0  0  0  0  0  0  0  0  0  0  0  0
  151.9403  143.4479  160.3391 C   0  0  0  0  0  0  0  0  0  0  0  0
  151.1131  142.5641  159.7420 N   0  0  0  0  0  0  0  0  0  0  0  0
  147.5943  139.0858  153.3772 C   0  0  0  0  0  0  0  0  0  0  0  0
  147.4235  140.6186  153.4077 C   0  0  0  0  0  0  0  0  0  0  0  0
  146.2180  138.4259  153.1647 C   0  0  0  0  0  0  0  0  0  0  0  0
  147.1154  136.4065  155.2062 C   0  0  0  0  0  0  0  0  0  0  0  0
  147.1465  134.8834  154.9771 C   0  0  1  0  0  0  0  0  0  0  0  0
  146.9309  134.4812  153.5070 C   0  0  0  0  0  0  0  0  0  0  0  0
  148.3448  134.3257  155.5189 O   0  0  0  0  0  0  0  0  0  0  0  0
  151.6811  134.6032  155.3932 H   0  0  0  0  0  0  0  0  0  0  0  0
  150.7224  133.1291  155.5010 H   0  0  0  0  0  0  0  0  0  0  0  0
  150.6674  134.3107  156.8051 H   0  0  0  0  0  0  0  0  0  0  0  0
  149.6408  134.7257  153.9581 H   0  0  0  0  0  0  0  0  0  0  0  0
  149.5486  136.5947  156.3775 H   0  0  0  0  0  0  0  0  0  0  0  0
  150.4620  136.8606  154.9054 H   0  0  0  0  0  0  0  0  0  0  0  0
  147.6555  138.8107  155.4697 H   0  0  0  0  0  0  0  0  0  0  0  0
  151.5403  140.3331  157.1186 H   0  0  0  0  0  0  0  0  0  0  0  0
  150.9451  141.3699  155.8702 H   0  0  0  0  0  0  0  0  0  0  0  0
  149.1386  142.2060  157.2920 H   0  0  0  0  0  0  0  0  0  0  0  0
  149.4968  141.0572  158.5424 H   0  0  0  0  0  0  0  0  0  0  0  0
  151.3029  143.7743  156.5711 H   0  0  0  0  0  0  0  0  0  0  0  0
  152.8401  145.4013  157.6993 H   0  0  0  0  0  0  0  0  0  0  0  0
  153.2411  145.1756  160.1665 H   0  0  0  0  0  0  0  0  0  0  0  0
  152.0981  143.3150  161.3992 H   0  0  0  0  0  0  0  0  0  0  0  0
  148.1925  138.8532  152.4960 H   0  0  0  0  0  0  0  0  0  0  0  0
  146.8544  140.9357  154.2820 H   0  0  0  0  0  0  0  0  0  0  0  0
  146.8942  140.9714  152.5223 H   0  0  0  0  0  0  0  0  0  0  0  0
  148.3816  141.1376  153.4287 H   0  0  0  0  0  0  0  0  0  0  0  0
  145.5655  138.5876  154.0233 H   0  0  0  0  0  0  0  0  0  0  0  0
  146.3018  137.3510  153.0050 H   0  0  0  0  0  0  0  0  0  0  0  0
  145.7179  138.8375  152.2875 H   0  0  0  0  0  0  0  0  0  0  0  0
  147.0241  136.6121  156.2738 H   0  0  0  0  0  0  0  0  0  0  0  0
  146.2363  136.8371  154.7249 H   0  0  0  0  0  0  0  0  0  0  0  0
  146.3255  134.4464  155.5463 H   0  0  0  0  0  0  0  0  0  0  0  0
  145.9531  134.8117  153.1559 H   0  0  0  0  0  0  0  0  0  0  0  0
  146.9728  133.3982  153.3901 H   0  0  0  0  0  0  0  0  0  0  0  0
  147.6764  134.9190  152.8436 H   0  0  0  0  0  0  0  0  0  0  0  0
  148.3921  136.7700  153.7146 H   0  0  0  0  0  0  0  0  0  0  0  0
  1  2  1  0  0  0  0
  1 24  1  0  0  0  0
  1 25  1  0  0  0  0
  1 26  1  0  0  0  0
  2 23  1  0  0  0  0
  2  3  1  0  0  0  0
  2 27  1  0  0  0  0
  3  4  1  0  0  0  0
  3 28  1  0  0  0  0
  3 29  1  0  0  0  0
  4  5  1  0  0  0  0
  4 20  1  0  0  0  0
  4 52  1  0  0  0  0
  5  6  1  0  0  0  0
  5 17  1  0  0  0  0
  5 30  1  0  0  0  0
  6  7  2  0  0  0  0
  6  8  1  0  0  0  0
  8  9  1  0  0  0  0
  9 10  1  0  0  0  0
  9 31  1  0  0  0  0
  9 32  1  0  0  0  0
 10 11  1  0  0  0  0
 10 33  1  0  0  0  0
 10 34  1  0  0  0  0
 11 16  1  0  0  0  0
 11 12  2  0  0  0  0
 12 13  1  0  0  0  0
 12 35  1  0  0  0  0
 13 14  2  0  0  0  0
 13 36  1  0  0  0  0
 14 15  1  0  0  0  0
 14 37  1  0  0  0  0
 15 16  2  0  0  0  0
 15 38  1  0  0  0  0
 17 18  1  0  0  0  0
 17 19  1  0  0  0  0
 17 39  1  0  0  0  0
 18 40  1  0  0  0  0
 18 41  1  0  0  0  0
 18 42  1  0  0  0  0
 19 43  1  0  0  0  0
 19 44  1  0  0  0  0
 19 45  1  0  0  0  0
 20 21  1  0  0  0  0
 20 46  1  0  0  0  0
 20 47  1  0  0  0  0
 21 22  1  0  0  0  0
 21 23  1  0  0  0  0
 21 48  1  0  0  0  0
 22 49  1  0  0  0  0
 22 50  1  0  0  0  0
 22 51  1  0  0  0  0
M  CHG  1   4   1
M  CHG  1   8  -1
M  END
> <s_m_source_file>
AV-unprocessed.smi

> <i_m_source_file_index>
1762

> <i_lp_mmshare_version>
43012

> <i_f3d_flags>
0

> <s_epik_input>
W0NIM11bQ0BASF0xW0NIMl1OKFtDSDJdW0NASF0oTzEpW0NIM10pW0NAQEhdKFtDSF0oW0NIM10pW0NIM10pQyg9TylbTkhdW0NIMl1bQ0gyXWMyW2NIXVtjSF1bY0hdW2NIXW4y

> <s_epik_cmdline>
J2VwaWtfcHl0aG9uJywgJy1waCcsICc3LjAnLCAnLXRuJywgJzgnLCAnLW1hJywgJzIwMCcsICctbWV0YWxfYmluZGluZycsICctaW1hZScsICc8aW5maWxlLm1hZT4nLCAnLW9tYWUnLCAnPG91dGZpbGUubWFlPic=

> <r_epik_Ionization_Penalty>
7.82966

> <r_epik_Ionization_Penalty_Charging>
7.7461

> <r_epik_Ionization_Penalty_Neutral>
0.0835571

> <r_epik_State_Penalty>
8.52273

> <r_epik_Charging_Adjusted_Penalty>
16.2688

> <i_epik_Tot_Q>
0

> <i_epik_Tot_abs_Q>
2

> <r_epik_Metal_State_Penalty>
4.47451

> <b_epik_Metal_Only>
1

> <s_lp_Force_Field>
OPLS_2005

> <r_lp_Energy>
25.1161

> <b_lp_Chiralities_Consistent>
1

> <s_lp_Variant>
AV-unprocessed.smi:1762-23

> <Gold.Version>
5.8.1

> <Gold.Id.Protein>
6NUR|6NUR_protein|mol2

> <Gold.PLP.Fitness>
43.0232

> <Gold.PLP.PLP>
-36.3315

> <Gold.PLP.part.hbond>
-3.0000

> <Gold.PLP.part.metal>
0.0000

> <Gold.PLP.part.buried>
-2.5663

> <Gold.PLP.part.nonpolar>
-31.3888

> <Gold.PLP.part.repulsive>
0.2445

> <Gold.PLP.ligand.clash>
0.0000

> <Gold.PLP.ligand.torsion>
1.5628

> <Gold.PLP.Chemscore.Hbond>
3.0000

> <Gold.PLP.Chemscore.CHOScore>
0.0000

> <Gold.PLP.Chemscore.Metal>
0.0000

> <Gold.Chemscore.Hbonds>
donor molecule, donor type, donor heavy atom, donor atom, acceptor molecule, acceptor atom, score
      L1  H     4    52       P1  7948  2.00
      P1  H  7989  7998       L1     7  0.94

> <Gold.PLP.Chemscore.Internal.Correction>
0.8173

> <Gold.Rescore>
     Score         DG    S(hbond)    S(metal)    S(lipo)     H(rot)  DE(clash)    DE(int)     intcor
     18.65     -21.28       1.95        0.00     114.34       1.60       0.93       1.70       ----

> <Gold.Chemscore.Fitness>
18.6488

> <Gold.Chemscore.DG>
-21.2822

> <Gold.Chemscore.ZeroCoef>
-5.4800

> <Gold.Chemscore.Hbond>
1.9532

> <Gold.Chemscore.Metal>
0.0000

> <Gold.Chemscore.Lipo>
114.3364

> <Gold.Chemscore.Internal_Hbond>
0.0000

> <Gold.Chemscore.DEClash>
0.9309

> <Gold.Chemscore.DEInternal>
1.7026

> <Gold.Chemscore.Rot>
1.6012

> <Gold.Chemscore.Internal.Correction>
   9.000000E+99

> <Gold.Chemscore.Hbonds>
donor molecule, donor type, donor heavy atom, donor atom, acceptor molecule, acceptor atom, score
      L1  H     4    52       P1  7948  0.96
      P1  H  7989  7998       L1     7  0.89

> <Gold.Chemscore.Hbond.Weighted>
-6.5238

> <Gold.Chemscore.Metal.Weighted>
-0.0000

> <Gold.Chemscore.Lipo.Weighted>
-13.3774

> <Gold.Chemscore.Internal_Hbond.Weighted>
0.0000

> <Gold.Chemscore.DEClash.Weighted>
0.9309

> <Gold.Chemscore.DEInternal.Weighted>
1.7026

> <Gold.Chemscore.Rot.Weighted>
4.0990

> <Gold.Chemscore.Internal.Correction.Weighted>
   9.000000E+99

> <Gold.Protein.RotatedTorsions>
[ 6907 6896 6895 6894 ] final   43.47 input  -60.11 | X-H torsion
[ 7974 7965 7964 7962 ] final  -33.18 input  175.53 | X-H torsion
[ 8008 7997 7996 7995 ] final   68.90 input   59.86 | X-H torsion
[ 10167 10162 10161 10158 ] final   97.90 input  -65.29 | X-H torsion
[ 10718 10713 10712 10709 ] final  167.10 input   66.30 | X-H torsion
[ 10763 10752 10751 10750 ] final -123.10 input  -60.55 | X-H torsion
[ 11005 11000 10999 10996 ] final -131.39 input  -57.11 | X-H torsion

> <Gold.Protein.ActiveResidues>
 VAL166  LYS551  ARG553  GLY616  TRP617  ASP618  TYR619  PRO620  LYS621  CYS622 
 ASP623  PHE694  ASN695  SER759  ASP760  ASP761  ALA762  ILE779  LEU786  VAL792 
 PHE793  MET794  SER795  GLU796  ALA797  LYS798  CYS799  TRP800  GLU811  SER814 

> <Gold.Protein.RotatedAtoms>
  152.2207  134.8415  160.0486 H   0  0  0  0  0  0  0  0  0  0  0  0  # atno 6907 bound_to 6896
  151.9200  133.3578  159.3902 H   0  0  0  0  0  0  0  0  0  0  0  0  # atno 6908 bound_to 6896
  150.6999  134.4570  159.5407 H   0  0  0  0  0  0  0  0  0  0  0  0  # atno 6909 bound_to 6896
  146.0931  140.5885  142.8855 H   0  0  0  0  0  0  0  0  0  0  0  0  # atno 7974 bound_to 7965
  155.7153  140.3494  155.4992 H   0  0  0  0  0  0  0  0  0  0  0  0  # atno 8008 bound_to 7997
  155.9319  140.1085  157.1147 H   0  0  0  0  0  0  0  0  0  0  0  0  # atno 8009 bound_to 7997
  154.4087  140.1229  156.4800 H   0  0  0  0  0  0  0  0  0  0  0  0  # atno 8010 bound_to 7997
  139.7758  144.6906  151.0092 H   0  0  0  0  0  0  0  0  0  0  0  0  # atno 10167 bound_to 10162
  157.0563  131.0327  151.2663 H   0  0  0  0  0  0  0  0  0  0  0  0  # atno 10718 bound_to 10713
  154.8702  135.4110  154.2889 H   0  0  0  0  0  0  0  0  0  0  0  0  # atno 10763 bound_to 10752
  153.3768  135.7010  153.6601 H   0  0  0  0  0  0  0  0  0  0  0  0  # atno 10764 bound_to 10752
  153.5440  135.3642  155.2702 H   0  0  0  0  0  0  0  0  0  0  0  0  # atno 10765 bound_to 10752
  140.9263  134.1378  157.4273 H   0  0  0  0  0  0  0  0  0  0  0  0  # atno 11005 bound_to 11000
  144.7375  140.4849  143.6893 LP  0  0  0  0  0  0  0  0  0  0  0  0  # atno 17320 bound_to 7965
  145.6001  139.1503  143.3134 LP  0  0  0  0  0  0  0  0  0  0  0  0  # atno 17321 bound_to 7965
  140.7816  143.4538  151.0375 LP  0  0  0  0  0  0  0  0  0  0  0  0  # atno 17342 bound_to 10162
  139.8220  143.7807  152.3177 LP  0  0  0  0  0  0  0  0  0  0  0  0  # atno 17343 bound_to 10162
  157.4990  130.7868  149.7585 LP  0  0  0  0  0  0  0  0  0  0  0  0  # atno 17370 bound_to 10713
  155.9992  130.3890  150.2673 LP  0  0  0  0  0  0  0  0  0  0  0  0  # atno 17371 bound_to 10713
  139.8786  134.9989  156.5926 LP  0  0  0  0  0  0  0  0  0  0  0  0  # atno 17394 bound_to 11000
  140.7922  133.8573  155.8655 LP  0  0  0  0  0  0  0  0  0  0  0  0  # atno 17395 bound_to 11000

$$$$
