AV-unprocessed.smi:2533|AV-procd|sdf|9973|dock3
  -GOLD-   2272014 23D 1   1.00000     0.00000
 Structure written by MMmdl.
 35 36  0  0  0  0  0  0  0  0  1 V2000
  153.4671  142.2936  161.7486 C   0  0  0  0  0  0  0  0  0  0  0  0
  153.0792  143.2226  160.7472 O   0  0  0  0  0  0  0  0  0  0  0  0
  152.4342  142.7403  159.6282 C   0  0  0  0  0  0  0  0  0  0  0  0
  152.1320  141.3720  159.4134 C   0  0  0  0  0  0  0  0  0  0  0  0
  151.4631  140.9636  158.2435 C   0  0  0  0  0  0  0  0  0  0  0  0
  151.0866  141.9111  157.2689 C   0  0  0  0  0  0  0  0  0  0  0  0
  150.3196  141.4814  156.0245 C   0  0  1  0  0  0  0  0  0  0  0  0
  151.0183  140.5086  155.2753 O   0  0  0  0  0  0  0  0  0  0  0  0
  148.9109  140.9310  156.3505 C   0  0  0  0  0  0  0  0  0  0  0  0
  147.8550  141.5611  155.5455 N   0  0  0  0  0  0  0  0  0  0  0  0
  146.7581  141.9855  156.2768 N   0  0  0  0  0  0  0  0  0  0  0  0
  145.7796  142.6190  155.7159 C   0  0  0  0  0  0  0  0  0  0  0  0
  144.6458  143.0685  156.6033 C   0  0  0  0  0  0  0  0  0  0  0  0
  144.0174  142.0248  157.1451 F   0  0  0  0  0  0  0  0  0  0  0  0
  145.1111  143.8401  157.5862 F   0  0  0  0  0  0  0  0  0  0  0  0
  143.7629  143.7733  155.8944 F   0  0  0  0  0  0  0  0  0  0  0  0
  145.8264  142.8634  154.2840 C   0  0  0  0  0  0  0  0  0  0  0  0
  146.8894  142.4345  153.5705 C   0  0  0  0  0  0  0  0  0  0  0  0
  148.0057  141.7340  154.2006 C   0  0  0  0  0  0  0  0  0  0  0  0
  148.9968  141.3475  153.5820 O   0  0  0  0  0  0  0  0  0  0  0  0
  151.3897  143.2719  157.4769 C   0  0  0  0  0  0  0  0  0  0  0  0
  152.0565  143.6811  158.6472 C   0  0  0  0  0  0  0  0  0  0  0  0
  152.3310  144.9945  158.8317 F   0  0  0  0  0  0  0  0  0  0  0  0
  153.9565  142.8271  162.5634 H   0  0  0  0  0  0  0  0  0  0  0  0
  154.1766  141.5620  161.3601 H   0  0  0  0  0  0  0  0  0  0  0  0
  152.6035  141.7742  162.1663 H   0  0  0  0  0  0  0  0  0  0  0  0
  152.3981  140.6144  160.1344 H   0  0  0  0  0  0  0  0  0  0  0  0
  151.2285  139.9186  158.1026 H   0  0  0  0  0  0  0  0  0  0  0  0
  150.2136  142.3512  155.3750 H   0  0  0  0  0  0  0  0  0  0  0  0
  151.5000  139.9587  155.8744 H   0  0  0  0  0  0  0  0  0  0  0  0
  148.8894  139.8474  156.2203 H   0  0  0  0  0  0  0  0  0  0  0  0
  148.6969  141.0963  157.4086 H   0  0  0  0  0  0  0  0  0  0  0  0
  145.0143  143.3828  153.7971 H   0  0  0  0  0  0  0  0  0  0  0  0
  146.9195  142.6173  152.5064 H   0  0  0  0  0  0  0  0  0  0  0  0
  151.0978  144.0111  156.7454 H   0  0  0  0  0  0  0  0  0  0  0  0
  1  2  1  0  0  0  0
  1 24  1  0  0  0  0
  1 25  1  0  0  0  0
  1 26  1  0  0  0  0
  2  3  1  0  0  0  0
  3 22  1  0  0  0  0
  3  4  2  0  0  0  0
  4  5  1  0  0  0  0
  4 27  1  0  0  0  0
  5  6  2  0  0  0  0
  5 28  1  0  0  0  0
  6  7  1  0  0  0  0
  6 21  1  0  0  0  0
  7  8  1  0  0  0  0
  7  9  1  0  0  0  0
  7 29  1  0  0  0  0
  8 30  1  0  0  0  0
  9 10  1  0  0  0  0
  9 31  1  0  0  0  0
  9 32  1  0  0  0  0
 10 19  1  0  0  0  0
 10 11  1  0  0  0  0
 11 12  2  0  0  0  0
 12 13  1  0  0  0  0
 12 17  1  0  0  0  0
 13 14  1  0  0  0  0
 13 15  1  0  0  0  0
 13 16  1  0  0  0  0
 17 18  2  0  0  0  0
 17 33  1  0  0  0  0
 18 19  1  0  0  0  0
 18 34  1  0  0  0  0
 19 20  2  0  0  0  0
 21 22  2  0  0  0  0
 21 35  1  0  0  0  0
 22 23  1  0  0  0  0
M  END
> <s_m_source_file>
AV-unprocessed.smi

> <i_m_source_file_index>
2533

> <i_lp_mmshare_version>
43012

> <i_f3d_flags>
0

> <s_epik_input>
W0NIM11PYzFbY0hdW2NIXWMoW2NIXWMxRilbQ0BIXShbT0hdKVtDSDJdbjJuYyhDKEYpKEYpRilbY0hdW2NIXWMyPU8=

> <s_epik_cmdline>
J2VwaWtfcHl0aG9uJywgJy1waCcsICc3LjAnLCAnLXRuJywgJzgnLCAnLW1hJywgJzIwMCcsICctbWV0YWxfYmluZGluZycsICctaW1hZScsICc8aW5maWxlLm1hZT4nLCAnLW9tYWUnLCAnPG91dGZpbGUubWFlPic=

> <r_lp_tautomer_probability>
1

> <r_epik_Ionization_Penalty>
5.00966e-08

> <r_epik_Ionization_Penalty_Charging>
3.92872e-09

> <r_epik_Ionization_Penalty_Neutral>
4.61679e-08

> <r_epik_State_Penalty>
-0

> <r_epik_Charging_Adjusted_Penalty>
3.92872e-09

> <i_epik_Tot_Q>
0

> <i_epik_Tot_abs_Q>
0

> <r_epik_Metal_State_Penalty>
-0

> <b_epik_Metal_Only>
0

> <s_lp_Force_Field>
OPLS_2005

> <r_lp_Energy>
30.5098

> <b_lp_Chiralities_Consistent>
1

> <s_lp_Variant>
AV-unprocessed.smi:2533-2

> <Gold.Version>
5.8.1

> <Gold.Id.Protein>
6NUR|6NUR_protein|mol2

> <Gold.PLP.Fitness>
51.3650

> <Gold.PLP.PLP>
-47.5290

> <Gold.PLP.part.hbond>
-3.0000

> <Gold.PLP.part.metal>
0.0000

> <Gold.PLP.part.buried>
-8.3710

> <Gold.PLP.part.nonpolar>
-39.2513

> <Gold.PLP.part.repulsive>
2.7080

> <Gold.PLP.ligand.clash>
0.0000

> <Gold.PLP.ligand.torsion>
0.9171

> <Gold.PLP.Chemscore.Hbond>
1.8720

> <Gold.PLP.Chemscore.CHOScore>
0.0000

> <Gold.PLP.Chemscore.Metal>
0.0000

> <Gold.Chemscore.Hbonds>
donor molecule, donor type, donor heavy atom, donor atom, acceptor molecule, acceptor atom, score
      P1  H  7989  7998       L1     8  0.96
      P1  H  8011  8017       L1    20  0.88

> <Gold.PLP.Chemscore.Internal.Correction>
0.0543

> <Gold.Rescore>
     Score         DG    S(hbond)    S(metal)    S(lipo)     H(rot)  DE(clash)    DE(int)     intcor
     11.07     -15.48       1.69        0.00      92.10       2.50       0.68       3.73       ----

> <Gold.Chemscore.Fitness>
11.0714

> <Gold.Chemscore.DG>
-15.4761

> <Gold.Chemscore.ZeroCoef>
-5.4800

> <Gold.Chemscore.Hbond>
1.6851

> <Gold.Chemscore.Metal>
0.0000

> <Gold.Chemscore.Lipo>
92.1000

> <Gold.Chemscore.Internal_Hbond>
0.0000

> <Gold.Chemscore.DEClash>
0.6783

> <Gold.Chemscore.DEInternal>
3.7264

> <Gold.Chemscore.Rot>
2.5031

> <Gold.Chemscore.Internal.Correction>
   9.000000E+99

> <Gold.Chemscore.Hbonds>
donor molecule, donor type, donor heavy atom, donor atom, acceptor molecule, acceptor atom, score
      P1  H  7989  7998       L1     8  0.90
      P1  H  8011  8017       L1    20  0.85

> <Gold.Chemscore.Hbond.Weighted>
-5.6283

> <Gold.Chemscore.Metal.Weighted>
-0.0000

> <Gold.Chemscore.Lipo.Weighted>
-10.7757

> <Gold.Chemscore.Internal_Hbond.Weighted>
0.0000

> <Gold.Chemscore.DEClash.Weighted>
0.6783

> <Gold.Chemscore.DEInternal.Weighted>
3.7264

> <Gold.Chemscore.Rot.Weighted>
6.4079

> <Gold.Chemscore.Internal.Correction.Weighted>
   9.000000E+99

> <Gold.Protein.RotatedTorsions>
[ 6907 6896 6895 6894 ] final  -56.84 input  -60.11 | X-H torsion
[ 7974 7965 7964 7962 ] final  -44.15 input  175.53 | X-H torsion
[ 8008 7997 7996 7995 ] final  -33.36 input   59.86 | X-H torsion
[ 10167 10162 10161 10158 ] final   49.89 input  -65.29 | X-H torsion
[ 10718 10713 10712 10709 ] final  154.41 input   66.30 | X-H torsion
[ 10763 10752 10751 10750 ] final  171.30 input  -60.55 | X-H torsion
[ 11005 11000 10999 10996 ] final   79.86 input  -57.11 | X-H torsion

> <Gold.Protein.ActiveResidues>
 VAL166  LYS551  ARG553  GLY616  TRP617  ASP618  TYR619  PRO620  LYS621  CYS622 
 ASP623  PHE694  ASN695  SER759  ASP760  ASP761  ALA762  ILE779  LEU786  VAL792 
 PHE793  MET794  SER795  GLU796  ALA797  LYS798  CYS799  TRP800  GLU811  SER814 

> <Gold.Protein.RotatedAtoms>
  150.8135  134.7303  159.6708 H   0  0  0  0  0  0  0  0  0  0  0  0  # atno 6907 bound_to 6896
  152.4254  134.5875  159.9974 H   0  0  0  0  0  0  0  0  0  0  0  0  # atno 6908 bound_to 6896
  151.6078  133.3313  159.3097 H   0  0  0  0  0  0  0  0  0  0  0  0  # atno 6909 bound_to 6896
  145.9949  140.7140  142.9299 H   0  0  0  0  0  0  0  0  0  0  0  0  # atno 7974 bound_to 7965
  154.4151  140.1713  156.1875 H   0  0  0  0  0  0  0  0  0  0  0  0  # atno 8008 bound_to 7997
  155.9631  140.3392  155.6484 H   0  0  0  0  0  0  0  0  0  0  0  0  # atno 8009 bound_to 7997
  155.6723  140.0713  157.2506 H   0  0  0  0  0  0  0  0  0  0  0  0  # atno 8010 bound_to 7997
  140.2781  144.3188  150.6271 H   0  0  0  0  0  0  0  0  0  0  0  0  # atno 10167 bound_to 10162
  157.2320  131.0741  151.1847 H   0  0  0  0  0  0  0  0  0  0  0  0  # atno 10718 bound_to 10713
  154.4099  135.2756  155.2043 H   0  0  0  0  0  0  0  0  0  0  0  0  # atno 10763 bound_to 10752
  154.4034  135.6039  153.5914 H   0  0  0  0  0  0  0  0  0  0  0  0  # atno 10764 bound_to 10752
  152.9831  135.5932  154.4379 H   0  0  0  0  0  0  0  0  0  0  0  0  # atno 10765 bound_to 10752
  139.9156  134.7876  156.1834 H   0  0  0  0  0  0  0  0  0  0  0  0  # atno 11005 bound_to 11000
  144.6900  140.3133  143.7244 LP  0  0  0  0  0  0  0  0  0  0  0  0  # atno 17320 bound_to 7965
  145.7575  139.1813  143.2286 LP  0  0  0  0  0  0  0  0  0  0  0  0  # atno 17321 bound_to 7965
  140.5834  143.2171  151.7386 LP  0  0  0  0  0  0  0  0  0  0  0  0  # atno 17342 bound_to 10162
  139.4970  144.4046  152.0145 LP  0  0  0  0  0  0  0  0  0  0  0  0  # atno 17343 bound_to 10162
  157.3468  130.7062  149.6416 LP  0  0  0  0  0  0  0  0  0  0  0  0  # atno 17370 bound_to 10713
  155.9675  130.4264  150.4696 LP  0  0  0  0  0  0  0  0  0  0  0  0  # atno 17371 bound_to 10713
  141.0628  133.6833  156.1986 LP  0  0  0  0  0  0  0  0  0  0  0  0  # atno 17394 bound_to 11000
  140.6633  134.4944  157.5584 LP  0  0  0  0  0  0  0  0  0  0  0  0  # atno 17395 bound_to 11000

$$$$
