AV-unprocessed.smi:1703|AV-procd|sdf|6862|dock6
  -GOLD-   22720 8 53D 1   1.00000     0.00000
 Structure written by MMmdl.
 49 51  0  0  0  0  0  0  0  0  2 V2000
  150.1260  131.8008  155.2875 C   0  0  0  0  0  0  0  0  0  0  0  0
  149.7544  133.2627  155.5590 C   0  0  1  0  0  0  0  0  0  0  0  0
  149.8025  134.1187  154.2744 C   0  0  0  0  0  0  0  0  0  0  0  0
  149.3135  135.5009  154.5144 N   0  3  2  0  0  0  0  0  0  0  0  0
  150.2924  136.4042  155.1774 C   0  0  0  0  0  0  0  0  0  0  0  0
  149.8607  137.8825  155.1236 C   0  0  1  0  0  0  0  0  0  0  0  0
  148.9569  138.1313  156.1834 O   0  0  0  0  0  0  0  0  0  0  0  0
  151.0722  138.8290  155.2402 C   0  0  0  0  0  0  0  0  0  0  0  0
  150.7701  140.0533  155.9699 N   0  0  0  0  0  0  0  0  0  0  0  0
  149.8081  140.9734  155.7046 C   0  0  0  0  0  0  0  0  0  0  0  0
  148.8694  140.8414  154.5443 C   0  0  0  0  0  0  0  0  0  0  0  0
  149.5205  140.9623  153.2977 O   0  0  0  0  0  0  0  0  0  0  0  0
  149.7516  142.0109  156.5400 N   0  0  0  0  0  0  0  0  0  0  0  0
  150.7754  141.7436  157.4275 C   0  0  0  0  0  0  0  0  0  0  0  0
  151.2312  142.4713  158.5500 C   0  0  0  0  0  0  0  0  0  0  0  0
  152.3128  141.9942  159.3189 C   0  0  0  0  0  0  0  0  0  0  0  0
  152.9526  140.7851  158.9777 C   0  0  0  0  0  0  0  0  0  0  0  0
  152.5146  140.0445  157.8631 C   0  0  0  0  0  0  0  0  0  0  0  0
  151.4344  140.5252  157.0984 C   0  0  0  0  0  0  0  0  0  0  0  0
  147.9857  135.4742  155.1744 C   0  0  0  0  0  0  0  0  0  0  0  0
  148.0110  134.6044  156.4471 C   0  0  1  0  0  0  0  0  0  0  0  0
  146.6291  134.5005  157.1009 C   0  0  0  0  0  0  0  0  0  0  0  0
  148.4362  133.2919  156.0962 O   0  0  0  0  0  0  0  0  0  0  0  0
  151.1354  131.7212  154.8829 H   0  0  0  0  0  0  0  0  0  0  0  0
  149.4414  131.3446  154.5718 H   0  0  0  0  0  0  0  0  0  0  0  0
  150.0894  131.2123  156.2045 H   0  0  0  0  0  0  0  0  0  0  0  0
  150.4501  133.6550  156.3016 H   0  0  0  0  0  0  0  0  0  0  0  0
  150.8082  134.1253  153.8558 H   0  0  0  0  0  0  0  0  0  0  0  0
  149.1623  133.6661  153.5158 H   0  0  0  0  0  0  0  0  0  0  0  0
  150.4071  136.1187  156.2243 H   0  0  0  0  0  0  0  0  0  0  0  0
  151.2767  136.2816  154.7262 H   0  0  0  0  0  0  0  0  0  0  0  0
  149.3425  138.0907  154.1888 H   0  0  0  0  0  0  0  0  0  0  0  0
  148.2145  138.6084  155.8448 H   0  0  0  0  0  0  0  0  0  0  0  0
  151.8990  138.3240  155.7414 H   0  0  0  0  0  0  0  0  0  0  0  0
  151.4421  139.0921  154.2493 H   0  0  0  0  0  0  0  0  0  0  0  0
  148.3519  139.8838  154.5917 H   0  0  0  0  0  0  0  0  0  0  0  0
  148.1036  141.6149  154.6113 H   0  0  0  0  0  0  0  0  0  0  0  0
  149.0515  140.4435  152.6624 H   0  0  0  0  0  0  0  0  0  0  0  0
  150.7479  143.3987  158.8198 H   0  0  0  0  0  0  0  0  0  0  0  0
  152.6531  142.5589  160.1746 H   0  0  0  0  0  0  0  0  0  0  0  0
  153.7802  140.4267  159.5722 H   0  0  0  0  0  0  0  0  0  0  0  0
  153.0035  139.1182  157.6016 H   0  0  0  0  0  0  0  0  0  0  0  0
  147.6498  136.4872  155.3990 H   0  0  0  0  0  0  0  0  0  0  0  0
  147.2628  135.0641  154.4677 H   0  0  0  0  0  0  0  0  0  0  0  0
  148.7049  135.0261  157.1763 H   0  0  0  0  0  0  0  0  0  0  0  0
  146.2595  135.4828  157.3962 H   0  0  0  0  0  0  0  0  0  0  0  0
  146.6670  133.8779  157.9951 H   0  0  0  0  0  0  0  0  0  0  0  0
  145.9008  134.0600  156.4192 H   0  0  0  0  0  0  0  0  0  0  0  0
  149.1589  135.9142  153.6051 H   0  0  0  0  0  0  0  0  0  0  0  0
  1  2  1  0  0  0  0
  1 24  1  0  0  0  0
  1 25  1  0  0  0  0
  1 26  1  0  0  0  0
  2 23  1  0  0  0  0
  2  3  1  0  0  0  0
  2 27  1  0  0  0  0
  3  4  1  0  0  0  0
  3 28  1  0  0  0  0
  3 29  1  0  0  0  0
  4  5  1  0  0  0  0
  4 20  1  0  0  0  0
  4 49  1  0  0  0  0
  5  6  1  0  0  0  0
  5 30  1  0  0  0  0
  5 31  1  0  0  0  0
  6  7  1  0  0  0  0
  6  8  1  0  0  0  0
  6 32  1  0  0  0  0
  7 33  1  0  0  0  0
  8  9  1  0  0  0  0
  8 34  1  0  0  0  0
  8 35  1  0  0  0  0
  9 19  1  0  0  0  0
  9 10  1  0  0  0  0
 10 11  1  0  0  0  0
 10 13  2  0  0  0  0
 11 12  1  0  0  0  0
 11 36  1  0  0  0  0
 11 37  1  0  0  0  0
 12 38  1  0  0  0  0
 13 14  1  0  0  0  0
 14 19  2  0  0  0  0
 14 15  1  0  0  0  0
 15 16  2  0  0  0  0
 15 39  1  0  0  0  0
 16 17  1  0  0  0  0
 16 40  1  0  0  0  0
 17 18  2  0  0  0  0
 17 41  1  0  0  0  0
 18 19  1  0  0  0  0
 18 42  1  0  0  0  0
 20 21  1  0  0  0  0
 20 43  1  0  0  0  0
 20 44  1  0  0  0  0
 21 22  1  0  0  0  0
 21 23  1  0  0  0  0
 21 45  1  0  0  0  0
 22 46  1  0  0  0  0
 22 47  1  0  0  0  0
 22 48  1  0  0  0  0
M  CHG  1   4   1
M  END
> <s_m_source_file>
AV-unprocessed.smi

> <i_m_source_file_index>
1703

> <i_lp_mmshare_version>
43012

> <i_f3d_flags>
0

> <s_epik_input>
W0NIM11bQ0BASF0xW0NIMl1OKFtDSDJdW0NASF0oTzEpW0NIM10pW0NIMl1bQ0BIXShbT0hdKVtDSDJdbihjKG4yKVtDSDJdW09IXSljKGMyMylbY0hdW2NIXVtjSF1bY0hdMw==

> <s_epik_cmdline>
J2VwaWtfcHl0aG9uJywgJy1waCcsICc3LjAnLCAnLXRuJywgJzgnLCAnLW1hJywgJzIwMCcsICctbWV0YWxfYmluZGluZycsICctaW1hZScsICc8aW5maWxlLm1hZT4nLCAnLW9tYWUnLCAnPG91dGZpbGUubWFlPic=

> <r_epik_Ionization_Penalty>
0.655661

> <r_epik_Ionization_Penalty_Charging>
0.608065

> <r_epik_Ionization_Penalty_Neutral>
0.0475963

> <r_epik_State_Penalty>
0.695267

> <r_epik_Charging_Adjusted_Penalty>
1.30333

> <i_epik_Tot_Q>
1

> <i_epik_Tot_abs_Q>
1

> <r_epik_Metal_State_Penalty>
0.653591

> <b_epik_Metal_Only>
0

> <s_lp_Force_Field>
OPLS_2005

> <r_lp_Energy>
23.9002

> <b_lp_Chiralities_Consistent>
1

> <s_lp_Variant>
AV-unprocessed.smi:1703-10

> <Gold.Version>
5.8.1

> <Gold.Id.Protein>
6NUR|6NUR_protein|mol2

> <Gold.PLP.Fitness>
42.7573

> <Gold.PLP.PLP>
-33.0820

> <Gold.PLP.part.hbond>
-3.1600

> <Gold.PLP.part.metal>
0.0000

> <Gold.PLP.part.buried>
-4.2168

> <Gold.PLP.part.nonpolar>
-26.6930

> <Gold.PLP.part.repulsive>
1.0517

> <Gold.PLP.ligand.clash>
0.0000

> <Gold.PLP.ligand.torsion>
0.8341

> <Gold.PLP.Chemscore.Hbond>
3.7502

> <Gold.PLP.Chemscore.CHOScore>
0.0000

> <Gold.PLP.Chemscore.Metal>
0.0000

> <Gold.Chemscore.Hbonds>
donor molecule, donor type, donor heavy atom, donor atom, acceptor molecule, acceptor atom, score
      L1  H     4    49       P1  7948  2.00
      L1  H    12    38       P1  7957  0.51
      P1  H  7989  7998       L1    12  0.18
      P1  H  8011  8017       L1    12  0.95

> <Gold.PLP.Chemscore.Internal.Correction>
0.0930

> <Gold.Rescore>
     Score         DG    S(hbond)    S(metal)    S(lipo)     H(rot)  DE(clash)    DE(int)     intcor
     12.42     -14.90       2.01        0.00      87.86       2.96       0.12       2.36       ----

> <Gold.Chemscore.Fitness>
12.4189

> <Gold.Chemscore.DG>
-14.9000

> <Gold.Chemscore.ZeroCoef>
-5.4800

> <Gold.Chemscore.Hbond>
2.0121

> <Gold.Chemscore.Metal>
0.0000

> <Gold.Chemscore.Lipo>
87.8642

> <Gold.Chemscore.Internal_Hbond>
0.0000

> <Gold.Chemscore.DEClash>
0.1197

> <Gold.Chemscore.DEInternal>
2.3614

> <Gold.Chemscore.Rot>
2.9611

> <Gold.Chemscore.Internal.Correction>
   9.000000E+99

> <Gold.Chemscore.Hbonds>
donor molecule, donor type, donor heavy atom, donor atom, acceptor molecule, acceptor atom, score
      L1  H     4    49       P1  7948  0.82
      L1  H    12    38       P1  7957  0.50
      P1  H  7989  7998       L1    12  0.15
      P1  H  8011  8017       L1    12  0.21

> <Gold.Chemscore.Hbond.Weighted>
-6.7203

> <Gold.Chemscore.Metal.Weighted>
-0.0000

> <Gold.Chemscore.Lipo.Weighted>
-10.2801

> <Gold.Chemscore.Internal_Hbond.Weighted>
0.0000

> <Gold.Chemscore.DEClash.Weighted>
0.1197

> <Gold.Chemscore.DEInternal.Weighted>
2.3614

> <Gold.Chemscore.Rot.Weighted>
7.5803

> <Gold.Chemscore.Internal.Correction.Weighted>
   9.000000E+99

> <Gold.Protein.RotatedTorsions>
[ 6907 6896 6895 6894 ] final -176.46 input  -60.11 | X-H torsion
[ 7974 7965 7964 7962 ] final  151.08 input  175.53 | X-H torsion
[ 8008 7997 7996 7995 ] final  -67.57 input   59.86 | X-H torsion
[ 10167 10162 10161 10158 ] final  127.52 input  -65.29 | X-H torsion
[ 10718 10713 10712 10709 ] final  143.32 input   66.30 | X-H torsion
[ 10763 10752 10751 10750 ] final  152.22 input  -60.55 | X-H torsion
[ 11005 11000 10999 10996 ] final  -58.18 input  -57.11 | X-H torsion

> <Gold.Protein.ActiveResidues>
 VAL166  LYS551  ARG553  GLY616  TRP617  ASP618  TYR619  PRO620  LYS621  CYS622 
 ASP623  PHE694  ASN695  SER759  ASP760  ASP761  ALA762  ILE779  LEU786  VAL792 
 PHE793  MET794  SER795  GLU796  ALA797  LYS798  CYS799  TRP800  GLU811  SER814 

> <Gold.Protein.RotatedAtoms>
  151.6052  133.3352  159.3055 H   0  0  0  0  0  0  0  0  0  0  0  0  # atno 6907 bound_to 6896
  150.8186  134.7385  159.6764 H   0  0  0  0  0  0  0  0  0  0  0  0  # atno 6908 bound_to 6896
  152.4281  134.5835  160.0006 H   0  0  0  0  0  0  0  0  0  0  0  0  # atno 6909 bound_to 6896
  144.8318  139.6492  143.6055 H   0  0  0  0  0  0  0  0  0  0  0  0  # atno 7974 bound_to 7965
  154.4809  140.0890  156.7375 H   0  0  0  0  0  0  0  0  0  0  0  0  # atno 8008 bound_to 7997
  155.4473  140.3456  155.4278 H   0  0  0  0  0  0  0  0  0  0  0  0  # atno 8009 bound_to 7997
  156.1189  140.1468  156.9220 H   0  0  0  0  0  0  0  0  0  0  0  0  # atno 8010 bound_to 7997
  139.5574  144.6858  151.4143 H   0  0  0  0  0  0  0  0  0  0  0  0  # atno 10167 bound_to 10162
  157.3703  131.0978  151.0834 H   0  0  0  0  0  0  0  0  0  0  0  0  # atno 10718 bound_to 10713
  154.1165  135.2835  155.3218 H   0  0  0  0  0  0  0  0  0  0  0  0  # atno 10763 bound_to 10752
  154.6453  135.5388  153.7840 H   0  0  0  0  0  0  0  0  0  0  0  0  # atno 10764 bound_to 10752
  153.0327  135.6496  154.1321 H   0  0  0  0  0  0  0  0  0  0  0  0  # atno 10765 bound_to 10752
  141.1196  133.6612  156.4882 H   0  0  0  0  0  0  0  0  0  0  0  0  # atno 11005 bound_to 11000
  146.2620  139.6432  142.9355 LP  0  0  0  0  0  0  0  0  0  0  0  0  # atno 17320 bound_to 7965
  145.4880  141.0438  143.2609 LP  0  0  0  0  0  0  0  0  0  0  0  0  # atno 17321 bound_to 7965
  140.6849  143.7997  150.7172 LP  0  0  0  0  0  0  0  0  0  0  0  0  # atno 17342 bound_to 10162
  140.1462  143.4398  152.2161 LP  0  0  0  0  0  0  0  0  0  0  0  0  # atno 17343 bound_to 10162
  157.1941  130.6365  149.5715 LP  0  0  0  0  0  0  0  0  0  0  0  0  # atno 17370 bound_to 10713
  155.9754  130.4712  150.6457 LP  0  0  0  0  0  0  0  0  0  0  0  0  # atno 17371 bound_to 10713
  140.4545  134.6898  157.5055 LP  0  0  0  0  0  0  0  0  0  0  0  0  # atno 17394 bound_to 11000
  140.0144  134.6642  155.9332 LP  0  0  0  0  0  0  0  0  0  0  0  0  # atno 17395 bound_to 11000

$$$$
