AV-unprocessed.smi:824|AV-procd|sdf|3848|dock5
  -GOLD-   22720 1293D 1   1.00000     0.00000
 Structure written by MMmdl.
 52 53  0  0  0  0  0  0  0  0  1 V2000
  151.5221  137.1949  158.5932 C   0  0  0  0  0  0  0  0  0  0  0  0
  150.9981  137.1948  157.1678 C   0  0  0  0  0  0  0  0  0  0  0  0
  150.3384  136.0272  156.7648 N   0  0  0  0  0  0  0  0  0  0  0  0
  149.8593  135.9276  155.5644 C   0  0  0  0  0  0  0  0  0  0  0  0
  149.1787  134.8242  155.0439 N   0  0  0  0  0  0  0  0  0  0  0  0
  149.2989  133.4922  155.6429 C   0  0  0  0  0  0  0  0  0  0  0  0
  148.9401  132.3893  154.6330 C   0  0  0  0  0  0  0  0  0  0  0  0
  147.6384  132.6207  154.1122 O   0  0  0  0  0  0  0  0  0  0  0  0
  147.5715  133.8594  153.4197 C   0  0  0  0  0  0  0  0  0  0  0  0
  147.8845  135.0121  154.3881 C   0  0  0  0  0  0  0  0  0  0  0  0
  149.9879  136.9935  154.6672 N   0  0  0  0  0  0  0  0  0  0  0  0
  150.6006  138.1616  154.9602 C   0  0  0  0  0  0  0  0  0  0  0  0
  150.6702  139.0569  154.1195 O   0  0  0  0  0  0  0  0  0  0  0  0
  151.1458  138.2542  156.3242 C   0  0  0  0  0  0  0  0  0  0  0  0
  151.8705  139.5394  156.7146 C   0  0  0  0  0  0  0  0  0  0  0  0
  151.3193  140.1385  158.0237 C   0  0  0  0  0  0  0  0  0  0  0  0
  152.1236  141.3427  158.5469 C   0  0  0  0  0  0  0  0  0  0  0  0
  152.8800  141.1901  159.5080 O   0  0  0  0  0  0  0  0  0  0  0  0
  151.9758  142.5395  157.9286 N   0  0  0  0  0  0  0  0  0  0  0  0
  151.0543  142.7411  156.8055 C   0  0  0  0  0  0  0  0  0  0  0  0
  152.7038  143.7350  158.3826 C   0  0  0  0  0  0  0  0  0  0  0  0
  152.0190  144.4466  159.5727 C   0  0  0  0  0  0  0  0  0  0  0  0
  151.9924  143.5329  160.8066 C   0  0  0  0  0  0  0  0  0  0  0  0
  150.6009  144.9370  159.2337 C   0  0  0  0  0  0  0  0  0  0  0  0
  149.5970  136.8932  153.7419 H   0  0  0  0  0  0  0  0  0  0  0  0
  151.1776  138.0786  159.1305 H   0  0  0  0  0  0  0  0  0  0  0  0
  152.6123  137.1879  158.5970 H   0  0  0  0  0  0  0  0  0  0  0  0
  151.1787  136.3168  159.1417 H   0  0  0  0  0  0  0  0  0  0  0  0
  150.3051  133.3057  156.0180 H   0  0  0  0  0  0  0  0  0  0  0  0
  148.6303  133.4370  156.5030 H   0  0  0  0  0  0  0  0  0  0  0  0
  149.6697  132.3520  153.8224 H   0  0  0  0  0  0  0  0  0  0  0  0
  148.9576  131.4144  155.1206 H   0  0  0  0  0  0  0  0  0  0  0  0
  148.2668  133.8589  152.5784 H   0  0  0  0  0  0  0  0  0  0  0  0
  146.5710  133.9798  153.0046 H   0  0  0  0  0  0  0  0  0  0  0  0
  147.1090  135.0797  155.1521 H   0  0  0  0  0  0  0  0  0  0  0  0
  147.8689  135.9521  153.8348 H   0  0  0  0  0  0  0  0  0  0  0  0
  152.9386  139.3473  156.8167 H   0  0  0  0  0  0  0  0  0  0  0  0
  151.7868  140.2615  155.9006 H   0  0  0  0  0  0  0  0  0  0  0  0
  150.2872  140.4543  157.8676 H   0  0  0  0  0  0  0  0  0  0  0  0
  151.3045  139.3616  158.7886 H   0  0  0  0  0  0  0  0  0  0  0  0
  150.0197  142.6453  157.1367 H   0  0  0  0  0  0  0  0  0  0  0  0
  151.2332  142.0145  156.0123 H   0  0  0  0  0  0  0  0  0  0  0  0
  151.1623  143.7263  156.3512 H   0  0  0  0  0  0  0  0  0  0  0  0
  153.7297  143.4790  158.6508 H   0  0  0  0  0  0  0  0  0  0  0  0
  152.8038  144.4313  157.5477 H   0  0  0  0  0  0  0  0  0  0  0  0
  152.6133  145.3221  159.8369 H   0  0  0  0  0  0  0  0  0  0  0  0
  151.4037  142.6337  160.6211 H   0  0  0  0  0  0  0  0  0  0  0  0
  151.5571  144.0444  161.6654 H   0  0  0  0  0  0  0  0  0  0  0  0
  152.9986  143.2202  161.0872 H   0  0  0  0  0  0  0  0  0  0  0  0
  149.9585  144.1104  158.9286 H   0  0  0  0  0  0  0  0  0  0  0  0
  150.6122  145.6681  158.4251 H   0  0  0  0  0  0  0  0  0  0  0  0
  150.1362  145.4180  160.0947 H   0  0  0  0  0  0  0  0  0  0  0  0
  1  2  1  0  0  0  0
  1 26  1  0  0  0  0
  1 27  1  0  0  0  0
  1 28  1  0  0  0  0
  2 14  2  0  0  0  0
  2  3  1  0  0  0  0
  3  4  2  0  0  0  0
  4  5  1  0  0  0  0
  4 11  1  0  0  0  0
  5 10  1  0  0  0  0
  5  6  1  0  0  0  0
  6  7  1  0  0  0  0
  6 29  1  0  0  0  0
  6 30  1  0  0  0  0
  7  8  1  0  0  0  0
  7 31  1  0  0  0  0
  7 32  1  0  0  0  0
  8  9  1  0  0  0  0
  9 10  1  0  0  0  0
  9 33  1  0  0  0  0
  9 34  1  0  0  0  0
 10 35  1  0  0  0  0
 10 36  1  0  0  0  0
 11 25  1  0  0  0  0
 11 12  1  0  0  0  0
 12 13  2  0  0  0  0
 12 14  1  0  0  0  0
 14 15  1  0  0  0  0
 15 16  1  0  0  0  0
 15 37  1  0  0  0  0
 15 38  1  0  0  0  0
 16 17  1  0  0  0  0
 16 39  1  0  0  0  0
 16 40  1  0  0  0  0
 17 18  2  0  0  0  0
 17 19  1  0  0  0  0
 19 20  1  0  0  0  0
 19 21  1  0  0  0  0
 20 41  1  0  0  0  0
 20 42  1  0  0  0  0
 20 43  1  0  0  0  0
 21 22  1  0  0  0  0
 21 44  1  0  0  0  0
 21 45  1  0  0  0  0
 22 23  1  0  0  0  0
 22 24  1  0  0  0  0
 22 46  1  0  0  0  0
 23 47  1  0  0  0  0
 23 48  1  0  0  0  0
 23 49  1  0  0  0  0
 24 50  1  0  0  0  0
 24 51  1  0  0  0  0
 24 52  1  0  0  0  0
M  END
> <s_m_source_file>
AV-unprocessed.smi

> <i_m_source_file_index>
824

> <i_lp_mmshare_version>
43012

> <i_f3d_flags>
0

> <s_epik_input>
W0NIMl0xW0NIMl1PW0NIMl1bQ0gyXU4xYyhuYzJbQ0gzXSlbbkhdYyg9TyljMltDSDJdW0NIMl1DKD1PKU4oW0NIM10pW0NIMl1bQ0hdKFtDSDNdKVtDSDNd

> <s_epik_cmdline>
J2VwaWtfcHl0aG9uJywgJy1waCcsICc3LjAnLCAnLXRuJywgJzgnLCAnLW1hJywgJzIwMCcsICctbWV0YWxfYmluZGluZycsICctaW1hZScsICc8aW5maWxlLm1hZT4nLCAnLW9tYWUnLCAnPG91dGZpbGUubWFlPic=

> <r_lp_tautomer_probability>
0.878553

> <r_epik_Ionization_Penalty>
0.00115806

> <r_epik_Ionization_Penalty_Charging>
0.00113132

> <r_epik_Ionization_Penalty_Neutral>
2.67354e-05

> <r_epik_State_Penalty>
0.0423856

> <r_epik_Charging_Adjusted_Penalty>
0.0435169

> <i_epik_Tot_Q>
0

> <i_epik_Tot_abs_Q>
0

> <r_epik_Metal_State_Penalty>
1.05917

> <b_epik_Metal_Only>
0

> <s_lp_Force_Field>
OPLS_2005

> <r_lp_Energy>
33.2944

> <b_lp_Chiralities_Consistent>
1

> <s_lp_Variant>
AV-unprocessed.smi:824-1

> <Gold.Version>
5.8.1

> <Gold.Id.Protein>
6NUR|6NUR_protein|mol2

> <Gold.PLP.Fitness>
43.4634

> <Gold.PLP.PLP>
-40.2469

> <Gold.PLP.part.hbond>
-1.7848

> <Gold.PLP.part.metal>
0.0000

> <Gold.PLP.part.buried>
-3.0624

> <Gold.PLP.part.nonpolar>
-34.0570

> <Gold.PLP.part.repulsive>
0.3280

> <Gold.PLP.ligand.clash>
0.0000

> <Gold.PLP.ligand.torsion>
1.1400

> <Gold.PLP.Chemscore.Hbond>
1.7225

> <Gold.PLP.Chemscore.CHOScore>
0.0000

> <Gold.PLP.Chemscore.Metal>
0.0000

> <Gold.Chemscore.Hbonds>
donor molecule, donor type, donor heavy atom, donor atom, acceptor molecule, acceptor atom, score
      L1  H    11    25       P1  7948  0.91
      P1  H  7989  7998       L1    13  0.75

> <Gold.PLP.Chemscore.Internal.Correction>
0.3290

> <Gold.Rescore>
     Score         DG    S(hbond)    S(metal)    S(lipo)     H(rot)  DE(clash)    DE(int)     intcor
     14.25     -17.56       1.42        0.00     100.21       1.71       0.27       3.05       ----

> <Gold.Chemscore.Fitness>
14.2500

> <Gold.Chemscore.DG>
-17.5609

> <Gold.Chemscore.ZeroCoef>
-5.4800

> <Gold.Chemscore.Hbond>
1.4168

> <Gold.Chemscore.Metal>
0.0000

> <Gold.Chemscore.Lipo>
100.2102

> <Gold.Chemscore.Internal_Hbond>
0.0000

> <Gold.Chemscore.DEClash>
0.2655

> <Gold.Chemscore.DEInternal>
3.0454

> <Gold.Chemscore.Rot>
1.7093

> <Gold.Chemscore.Internal.Correction>
   9.000000E+99

> <Gold.Chemscore.Hbonds>
donor molecule, donor type, donor heavy atom, donor atom, acceptor molecule, acceptor atom, score
      L1  H    11    25       P1  7948  0.73
      P1  H  7989  7998       L1    13  0.74

> <Gold.Chemscore.Hbond.Weighted>
-4.7322

> <Gold.Chemscore.Metal.Weighted>
-0.0000

> <Gold.Chemscore.Lipo.Weighted>
-11.7246

> <Gold.Chemscore.Internal_Hbond.Weighted>
0.0000

> <Gold.Chemscore.DEClash.Weighted>
0.2655

> <Gold.Chemscore.DEInternal.Weighted>
3.0454

> <Gold.Chemscore.Rot.Weighted>
4.3759

> <Gold.Chemscore.Internal.Correction.Weighted>
   9.000000E+99

> <Gold.Protein.RotatedTorsions>
[ 6907 6896 6895 6894 ] final  -26.18 input  -60.11 | X-H torsion
[ 7974 7965 7964 7962 ] final  -62.95 input  175.53 | X-H torsion
[ 8008 7997 7996 7995 ] final  -49.16 input   59.86 | X-H torsion
[ 10167 10162 10161 10158 ] final   50.16 input  -65.29 | X-H torsion
[ 10718 10713 10712 10709 ] final   97.02 input   66.30 | X-H torsion
[ 10763 10752 10751 10750 ] final  -69.09 input  -60.55 | X-H torsion
[ 11005 11000 10999 10996 ] final  -70.57 input  -57.11 | X-H torsion

> <Gold.Protein.ActiveResidues>
 VAL166  LYS551  ARG553  GLY616  TRP617  ASP618  TYR619  PRO620  LYS621  CYS622 
 ASP623  PHE694  ASN695  SER759  ASP760  ASP761  ALA762  ILE779  LEU786  VAL792 
 PHE793  MET794  SER795  GLU796  ALA797  LYS798  CYS799  TRP800  GLU811  SER814 

> <Gold.Protein.RotatedAtoms>
  151.1646  135.0289  159.8724 H   0  0  0  0  0  0  0  0  0  0  0  0  # atno 6907 bound_to 6896
  152.5450  134.1240  159.8421 H   0  0  0  0  0  0  0  0  0  0  0  0  # atno 6908 bound_to 6896
  151.1339  133.4971  159.2631 H   0  0  0  0  0  0  0  0  0  0  0  0  # atno 6909 bound_to 6896
  145.7851  140.8741  143.0310 H   0  0  0  0  0  0  0  0  0  0  0  0  # atno 7974 bound_to 7965
  154.4039  140.1303  156.4457 H   0  0  0  0  0  0  0  0  0  0  0  0  # atno 8008 bound_to 7997
  155.7415  140.3489  155.5087 H   0  0  0  0  0  0  0  0  0  0  0  0  # atno 8009 bound_to 7997
  155.9034  140.1023  157.1323 H   0  0  0  0  0  0  0  0  0  0  0  0  # atno 8010 bound_to 7997
  140.2753  144.3218  150.6278 H   0  0  0  0  0  0  0  0  0  0  0  0  # atno 10167 bound_to 10162
  157.6919  131.0596  150.4579 H   0  0  0  0  0  0  0  0  0  0  0  0  # atno 10718 bound_to 10713
  154.3983  135.6037  153.5883 H   0  0  0  0  0  0  0  0  0  0  0  0  # atno 10763 bound_to 10752
  152.9788  135.5900  154.4214 H   0  0  0  0  0  0  0  0  0  0  0  0  # atno 10764 bound_to 10752
  154.4009  135.2843  155.2075 H   0  0  0  0  0  0  0  0  0  0  0  0  # atno 10765 bound_to 10752
  141.1576  133.6793  156.6773 H   0  0  0  0  0  0  0  0  0  0  0  0  # atno 11005 bound_to 11000
  144.6790  140.0044  143.7484 LP  0  0  0  0  0  0  0  0  0  0  0  0  # atno 17320 bound_to 7965
  146.0034  139.3110  143.0914 LP  0  0  0  0  0  0  0  0  0  0  0  0  # atno 17321 bound_to 7965
  140.5856  143.2170  151.7348 LP  0  0  0  0  0  0  0  0  0  0  0  0  # atno 17342 bound_to 10162
  139.4977  144.4016  152.0175 LP  0  0  0  0  0  0  0  0  0  0  0  0  # atno 17343 bound_to 10162
  156.4926  130.4098  149.6398 LP  0  0  0  0  0  0  0  0  0  0  0  0  # atno 17370 bound_to 10713
  156.3403  130.7378  151.2322 LP  0  0  0  0  0  0  0  0  0  0  0  0  # atno 17371 bound_to 10713
  140.3129  134.8071  157.4191 LP  0  0  0  0  0  0  0  0  0  0  0  0  # atno 17394 bound_to 11000
  140.1163  134.5279  155.8222 LP  0  0  0  0  0  0  0  0  0  0  0  0  # atno 17395 bound_to 11000

$$$$
