AV-unprocessed.smi:3181|AV-procd|sdf|12149|dock8
  -GOLD-   2272017583D 1   1.00000     0.00000
 Structure written by MMmdl.
 42 43  0  0  0  0  0  0  0  0  2 V2000
  150.0608  140.2351  154.9971 C   0  0  0  0  0  0  0  0  0  0  0  0
  151.4825  139.9040  155.4817 C   0  0  2  0  0  0  0  0  0  0  0  0
  151.9994  138.5491  154.9581 C   0  0  0  0  0  0  0  0  0  0  0  0
  151.1001  137.4493  155.2548 N   0  0  0  0  0  0  0  0  0  0  0  0
  150.0002  137.4086  156.0084 C   0  0  0  0  0  0  0  0  0  0  0  0
  149.4253  136.2152  156.0520 N   0  0  0  0  0  0  0  0  0  0  0  0
  150.2795  135.5204  155.2428 C   0  0  0  0  0  0  0  0  0  0  0  0
  151.3001  136.2143  154.7382 N   0  0  0  0  0  0  0  0  0  0  0  0
  151.5226  139.9061  156.9619 N   0  3  0  0  0  0  0  0  0  0  0  0
  151.9336  141.1792  157.5951 C   0  0  1  0  0  0  0  0  0  0  0  0
  151.1117  142.3684  157.0577 C   0  0  0  0  0  0  0  0  0  0  0  0
  151.4942  143.6817  157.7586 C   0  0  0  0  0  0  0  0  0  0  0  0
  151.3557  143.5699  159.2900 C   0  0  2  0  0  0  0  0  0  0  0  0
  151.6627  144.9041  159.9899 C   0  0  0  0  0  0  0  0  0  0  0  0
  152.1734  142.3787  159.8520 C   0  0  2  0  0  0  0  0  0  0  0  0
  153.7000  142.5990  159.8439 C   0  0  0  0  0  0  0  0  0  0  0  0
  151.7811  141.0748  159.1252 C   0  0  0  0  0  0  0  0  0  0  0  0
  150.0171  140.3200  153.9112 H   0  0  0  0  0  0  0  0  0  0  0  0
  149.7156  141.1846  155.4068 H   0  0  0  0  0  0  0  0  0  0  0  0
  149.3499  139.4652  155.2988 H   0  0  0  0  0  0  0  0  0  0  0  0
  152.1494  140.6796  155.1017 H   0  0  0  0  0  0  0  0  0  0  0  0
  152.1306  138.5914  153.8760 H   0  0  0  0  0  0  0  0  0  0  0  0
  152.9802  138.3257  155.3818 H   0  0  0  0  0  0  0  0  0  0  0  0
  149.6138  138.2676  156.5374 H   0  0  0  0  0  0  0  0  0  0  0  0
  150.1457  134.4721  155.0194 H   0  0  0  0  0  0  0  0  0  0  0  0
  150.6160  139.6391  157.3180 H   0  0  0  0  0  0  0  0  0  0  0  0
  152.9886  141.3376  157.3680 H   0  0  0  0  0  0  0  0  0  0  0  0
  151.2570  142.4818  155.9832 H   0  0  0  0  0  0  0  0  0  0  0  0
  150.0476  142.1776  157.2049 H   0  0  0  0  0  0  0  0  0  0  0  0
  152.5150  143.9569  157.4919 H   0  0  0  0  0  0  0  0  0  0  0  0
  150.8574  144.4856  157.3876 H   0  0  0  0  0  0  0  0  0  0  0  0
  150.3062  143.3539  159.4971 H   0  0  0  0  0  0  0  0  0  0  0  0
  152.6701  145.2563  159.7675 H   0  0  0  0  0  0  0  0  0  0  0  0
  151.5701  144.8116  161.0723 H   0  0  0  0  0  0  0  0  0  0  0  0
  150.9691  145.6808  159.6668 H   0  0  0  0  0  0  0  0  0  0  0  0
  151.8899  142.2545  160.8982 H   0  0  0  0  0  0  0  0  0  0  0  0
  154.0827  142.8068  158.8452 H   0  0  0  0  0  0  0  0  0  0  0  0
  154.2214  141.7174  160.2173 H   0  0  0  0  0  0  0  0  0  0  0  0
  153.9866  143.4311  160.4865 H   0  0  0  0  0  0  0  0  0  0  0  0
  150.7446  140.8338  159.3669 H   0  0  0  0  0  0  0  0  0  0  0  0
  152.3780  140.2447  159.5057 H   0  0  0  0  0  0  0  0  0  0  0  0
  152.1900  139.2017  157.2418 H   0  0  0  0  0  0  0  0  0  0  0  0
  1  2  1  0  0  0  0
  1 18  1  0  0  0  0
  1 19  1  0  0  0  0
  1 20  1  0  0  0  0
  2  3  1  0  0  0  0
  2  9  1  0  0  0  0
  2 21  1  0  0  0  0
  3  4  1  0  0  0  0
  3 22  1  0  0  0  0
  3 23  1  0  0  0  0
  4  8  1  0  0  0  0
  4  5  1  0  0  0  0
  5  6  2  0  0  0  0
  5 24  1  0  0  0  0
  6  7  1  0  0  0  0
  7  8  2  0  0  0  0
  7 25  1  0  0  0  0
  9 10  1  0  0  0  0
  9 26  1  0  0  0  0
  9 42  1  0  0  0  0
 10 17  1  0  0  0  0
 10 11  1  0  0  0  0
 10 27  1  0  0  0  0
 11 12  1  0  0  0  0
 11 28  1  0  0  0  0
 11 29  1  0  0  0  0
 12 13  1  0  0  0  0
 12 30  1  0  0  0  0
 12 31  1  0  0  0  0
 13 14  1  0  0  0  0
 13 15  1  0  0  0  0
 13 32  1  0  0  0  0
 14 33  1  0  0  0  0
 14 34  1  0  0  0  0
 14 35  1  0  0  0  0
 15 16  1  0  0  0  0
 15 17  1  0  0  0  0
 15 36  1  0  0  0  0
 16 37  1  0  0  0  0
 16 38  1  0  0  0  0
 16 39  1  0  0  0  0
 17 40  1  0  0  0  0
 17 41  1  0  0  0  0
M  CHG  1   9   1
M  END
> <s_m_source_file>
AV-unprocessed.smi

> <i_m_source_file_index>
3181

> <i_lp_mmshare_version>
43012

> <i_f3d_flags>
0

> <s_epik_input>
bjFbY0hdbltjSF1uMVtDSDJdW0NAQEhdKFtDSDNdKVtOSF1bQ0BASF0yW0NIMl1bQ0gyXVtDQEBIXShbQ0gzXSlbQ0BASF0oW0NIM10pW0NIMl0y

> <s_epik_cmdline>
J2VwaWtfcHl0aG9uJywgJy1waCcsICc3LjAnLCAnLXRuJywgJzgnLCAnLW1hJywgJzIwMCcsICctbWV0YWxfYmluZGluZycsICctaW1hZScsICc8aW5maWxlLm1hZT4nLCAnLW9tYWUnLCAnPG91dGZpbGUubWFlPic=

> <r_lp_tautomer_probability>
1

> <r_epik_Ionization_Penalty>
0.000617007

> <r_epik_Ionization_Penalty_Charging>
0.000616215

> <r_epik_Ionization_Penalty_Neutral>
7.92544e-07

> <r_epik_State_Penalty>
0.000388807

> <r_epik_Charging_Adjusted_Penalty>
0.00100502

> <i_epik_Tot_Q>
1

> <i_epik_Tot_abs_Q>
1

> <r_epik_Metal_State_Penalty>
-0

> <b_epik_Metal_Only>
0

> <s_lp_Force_Field>
OPLS_2005

> <r_lp_Energy>
22.4909

> <b_lp_Chiralities_Consistent>
1

> <s_lp_Variant>
AV-unprocessed.smi:3181-15

> <Gold.Version>
5.8.1

> <Gold.Id.Protein>
6NUR|6NUR_protein|mol2

> <Gold.PLP.Fitness>
38.2945

> <Gold.PLP.PLP>
-36.5022

> <Gold.PLP.part.hbond>
-1.0000

> <Gold.PLP.part.metal>
0.0000

> <Gold.PLP.part.buried>
-3.9921

> <Gold.PLP.part.nonpolar>
-31.6326

> <Gold.PLP.part.repulsive>
0.2964

> <Gold.PLP.ligand.clash>
0.0000

> <Gold.PLP.ligand.torsion>
0.6121

> <Gold.PLP.Chemscore.Hbond>
1.0000

> <Gold.PLP.Chemscore.CHOScore>
0.0000

> <Gold.PLP.Chemscore.Metal>
0.0000

> <Gold.Chemscore.Hbonds>
donor molecule, donor type, donor heavy atom, donor atom, acceptor molecule, acceptor atom, score
      P1  H 10752 10765       L1     8  1.00

> <Gold.PLP.Chemscore.Internal.Correction>
0.0165

> <Gold.Rescore>
     Score         DG    S(hbond)    S(metal)    S(lipo)     H(rot)  DE(clash)    DE(int)     intcor
     13.63     -15.42       0.98        0.00     103.25       2.11       0.06       1.73       ----

> <Gold.Chemscore.Fitness>
13.6306

> <Gold.Chemscore.DG>
-15.4242

> <Gold.Chemscore.ZeroCoef>
-5.4800

> <Gold.Chemscore.Hbond>
0.9774

> <Gold.Chemscore.Metal>
0.0000

> <Gold.Chemscore.Lipo>
103.2475

> <Gold.Chemscore.Internal_Hbond>
0.0000

> <Gold.Chemscore.DEClash>
0.0645

> <Gold.Chemscore.DEInternal>
1.7290

> <Gold.Chemscore.Rot>
2.1095

> <Gold.Chemscore.Internal.Correction>
   9.000000E+99

> <Gold.Chemscore.Hbonds>
donor molecule, donor type, donor heavy atom, donor atom, acceptor molecule, acceptor atom, score
      P1  H 10752 10765       L1     8  0.95

> <Gold.Chemscore.Hbond.Weighted>
-3.2646

> <Gold.Chemscore.Metal.Weighted>
-0.0000

> <Gold.Chemscore.Lipo.Weighted>
-12.0800

> <Gold.Chemscore.Internal_Hbond.Weighted>
0.0000

> <Gold.Chemscore.DEClash.Weighted>
0.0645

> <Gold.Chemscore.DEInternal.Weighted>
1.7290

> <Gold.Chemscore.Rot.Weighted>
5.4003

> <Gold.Chemscore.Internal.Correction.Weighted>
   9.000000E+99

> <Gold.Protein.RotatedTorsions>
[ 6907 6896 6895 6894 ] final -160.04 input  -60.11 | X-H torsion
[ 7974 7965 7964 7962 ] final   34.08 input  175.53 | X-H torsion
[ 8008 7997 7996 7995 ] final   72.12 input   59.86 | X-H torsion
[ 10167 10162 10161 10158 ] final  166.22 input  -65.29 | X-H torsion
[ 10718 10713 10712 10709 ] final  -19.31 input   66.30 | X-H torsion
[ 10763 10752 10751 10750 ] final -172.24 input  -60.55 | X-H torsion
[ 11005 11000 10999 10996 ] final  -60.98 input  -57.11 | X-H torsion

> <Gold.Protein.ActiveResidues>
 VAL166  LYS551  ARG553  GLY616  TRP617  ASP618  TYR619  PRO620  LYS621  CYS622 
 ASP623  PHE694  ASN695  SER759  ASP760  ASP761  ALA762  ILE779  LEU786  VAL792 
 PHE793  MET794  SER795  GLU796  ALA797  LYS798  CYS799  TRP800  GLU811  SER814 

> <Gold.Protein.RotatedAtoms>
  151.3428  133.3955  159.2672 H   0  0  0  0  0  0  0  0  0  0  0  0  # atno 6907 bound_to 6896
  150.9864  134.9209  159.7884 H   0  0  0  0  0  0  0  0  0  0  0  0  # atno 6908 bound_to 6896
  152.5233  134.3393  159.9263 H   0  0  0  0  0  0  0  0  0  0  0  0  # atno 6909 bound_to 6896
  146.1377  139.6315  142.9184 H   0  0  0  0  0  0  0  0  0  0  0  0  # atno 7974 bound_to 7965
  155.7641  140.3486  155.5213 H   0  0  0  0  0  0  0  0  0  0  0  0  # atno 8008 bound_to 7997
  155.8885  140.1014  157.1456 H   0  0  0  0  0  0  0  0  0  0  0  0  # atno 8009 bound_to 7997
  154.4031  140.1309  156.4273 H   0  0  0  0  0  0  0  0  0  0  0  0  # atno 8010 bound_to 7997
  139.4920  144.4050  151.9366 H   0  0  0  0  0  0  0  0  0  0  0  0  # atno 10167 bound_to 10162
  156.5474  130.4693  149.6468 H   0  0  0  0  0  0  0  0  0  0  0  0  # atno 10718 bound_to 10713
  154.6215  135.2876  155.0321 H   0  0  0  0  0  0  0  0  0  0  0  0  # atno 10763 bound_to 10752
  154.1514  135.6503  153.4968 H   0  0  0  0  0  0  0  0  0  0  0  0  # atno 10764 bound_to 10752
  153.0238  135.5356  154.7006 H   0  0  0  0  0  0  0  0  0  0  0  0  # atno 10765 bound_to 10752
  141.1307  133.6626  156.5305 H   0  0  0  0  0  0  0  0  0  0  0  0  # atno 11005 bound_to 11000
  145.5117  141.0435  143.2484 LP  0  0  0  0  0  0  0  0  0  0  0  0  # atno 17320 bound_to 7965
  144.7758  139.6633  143.7175 LP  0  0  0  0  0  0  0  0  0  0  0  0  # atno 17321 bound_to 7965
  140.3490  144.3112  150.5953 LP  0  0  0  0  0  0  0  0  0  0  0  0  # atno 17342 bound_to 10162
  140.5502  143.2208  151.7940 LP  0  0  0  0  0  0  0  0  0  0  0  0  # atno 17343 bound_to 10162
  156.2916  130.7127  151.1977 LP  0  0  0  0  0  0  0  0  0  0  0  0  # atno 17370 bound_to 10713
  157.7394  131.0530  150.5234 LP  0  0  0  0  0  0  0  0  0  0  0  0  # atno 17371 bound_to 10713
  140.4219  134.7179  157.4895 LP  0  0  0  0  0  0  0  0  0  0  0  0  # atno 17394 bound_to 11000
  140.0354  134.6345  155.9051 LP  0  0  0  0  0  0  0  0  0  0  0  0  # atno 17395 bound_to 11000

$$$$
