AV-unprocessed.smi:321|AV-procd|sdf|2334|dock3
  -GOLD-   2262022243D 1   1.00000     0.00000
 Structure written by MMmdl.
 49 50  0  0  0  0  0  0  0  0  1 V2000
  150.0475  136.9289  155.1249 C   0  0  0  0  0  0  0  0  0  0  0  0
  151.5117  137.3834  155.1318 C   0  0  0  0  0  0  0  0  0  0  0  0
  151.6728  139.1934  155.4721 S   0  0  0  0  0  0  0  0  0  0  0  0
  153.0940  139.5145  155.6778 O   0  0  0  0  0  0  0  0  0  0  0  0
  150.8985  139.9220  154.4558 O   0  0  0  0  0  0  0  0  0  0  0  0
  150.8613  139.4115  156.9975 N   0  0  0  0  0  0  0  0  0  0  0  0
  149.3880  139.5156  157.0586 C   0  0  0  0  0  0  0  0  0  0  0  0
  148.7367  138.2231  157.5819 C   0  0  0  0  0  0  0  0  0  0  0  0
  149.3575  137.7777  158.9173 C   0  0  0  0  0  0  0  0  0  0  0  0
  148.7948  136.5044  159.3561 N   0  0  0  0  0  0  0  0  0  0  0  0
  148.2002  136.2829  160.5425 C   0  0  0  0  0  0  0  0  0  0  0  0
  148.0647  137.1619  161.3951 O   0  0  0  0  0  0  0  0  0  0  0  0
  147.7102  134.8935  160.7605 C   0  0  0  0  0  0  0  0  0  0  0  0
  147.0563  134.6072  162.0262 C   0  0  0  0  0  0  0  0  0  0  0  0
  146.6029  133.3536  162.2447 C   0  0  0  0  0  0  0  0  0  0  0  0
  146.7518  132.2906  161.2495 C   0  0  0  0  0  0  0  0  0  0  0  0
  146.3419  131.1439  161.4263 O   0  0  0  0  0  0  0  0  0  0  0  0
  147.3859  132.6882  160.1049 N   0  0  0  0  0  0  0  0  0  0  0  0
  147.6111  131.7558  158.9940 C   0  0  0  0  0  0  0  0  0  0  0  0
  149.1072  131.4772  158.7751 C   0  0  0  0  0  0  0  0  0  0  0  0
  149.7580  132.6552  158.3279 O   0  0  0  0  0  0  0  0  0  0  0  0
  149.4537  132.9666  156.9801 C   0  0  0  0  0  0  0  0  0  0  0  0
  147.8553  133.9698  159.8659 N   0  0  0  0  0  0  0  0  0  0  0  0
  150.8777  137.6431  158.7512 C   0  0  0  0  0  0  0  0  0  0  0  0
  151.5029  138.9546  158.2453 C   0  0  0  0  0  0  0  0  0  0  0  0
  149.9732  135.8665  154.8934 H   0  0  0  0  0  0  0  0  0  0  0  0
  149.4654  137.4730  154.3817 H   0  0  0  0  0  0  0  0  0  0  0  0
  149.5809  137.0889  156.0970 H   0  0  0  0  0  0  0  0  0  0  0  0
  152.0460  136.8545  155.9210 H   0  0  0  0  0  0  0  0  0  0  0  0
  152.0098  137.1453  154.1955 H   0  0  0  0  0  0  0  0  0  0  0  0
  149.1330  140.3417  157.7232 H   0  0  0  0  0  0  0  0  0  0  0  0
  148.9814  139.7744  156.0816 H   0  0  0  0  0  0  0  0  0  0  0  0
  147.6657  138.3880  157.7049 H   0  0  0  0  0  0  0  0  0  0  0  0
  148.8322  137.4303  156.8411 H   0  0  0  0  0  0  0  0  0  0  0  0
  149.1602  138.5369  159.6768 H   0  0  0  0  0  0  0  0  0  0  0  0
  148.8651  135.7289  158.7130 H   0  0  0  0  0  0  0  0  0  0  0  0
  146.9319  135.3720  162.7789 H   0  0  0  0  0  0  0  0  0  0  0  0
  146.1148  133.1272  163.1813 H   0  0  0  0  0  0  0  0  0  0  0  0
  147.1042  130.8150  159.2155 H   0  0  0  0  0  0  0  0  0  0  0  0
  147.1553  132.1129  158.0690 H   0  0  0  0  0  0  0  0  0  0  0  0
  149.5660  131.1130  159.6960 H   0  0  0  0  0  0  0  0  0  0  0  0
  149.2231  130.6941  158.0244 H   0  0  0  0  0  0  0  0  0  0  0  0
  149.9826  133.8730  156.6853 H   0  0  0  0  0  0  0  0  0  0  0  0
  148.3853  133.1421  156.8477 H   0  0  0  0  0  0  0  0  0  0  0  0
  149.7629  132.1636  156.3099 H   0  0  0  0  0  0  0  0  0  0  0  0
  151.3333  137.3679  159.7031 H   0  0  0  0  0  0  0  0  0  0  0  0
  151.1043  136.8330  158.0583 H   0  0  0  0  0  0  0  0  0  0  0  0
  152.5755  138.8316  158.0969 H   0  0  0  0  0  0  0  0  0  0  0  0
  151.3833  139.7327  158.9999 H   0  0  0  0  0  0  0  0  0  0  0  0
  1  2  1  0  0  0  0
  1 26  1  0  0  0  0
  1 27  1  0  0  0  0
  1 28  1  0  0  0  0
  2  3  1  0  0  0  0
  2 29  1  0  0  0  0
  2 30  1  0  0  0  0
  3  4  2  0  0  0  0
  3  5  2  0  0  0  0
  3  6  1  0  0  0  0
  6 25  1  0  0  0  0
  6  7  1  0  0  0  0
  7  8  1  0  0  0  0
  7 31  1  0  0  0  0
  7 32  1  0  0  0  0
  8  9  1  0  0  0  0
  8 33  1  0  0  0  0
  8 34  1  0  0  0  0
  9 10  1  0  0  0  0
  9 24  1  0  0  0  0
  9 35  1  0  0  0  0
 10 11  1  0  0  0  0
 10 36  1  0  0  0  0
 11 12  2  0  0  0  0
 11 13  1  0  0  0  0
 13 23  2  0  0  0  0
 13 14  1  0  0  0  0
 14 15  2  0  0  0  0
 14 37  1  0  0  0  0
 15 16  1  0  0  0  0
 15 38  1  0  0  0  0
 16 17  2  0  0  0  0
 16 18  1  0  0  0  0
 18 19  1  0  0  0  0
 18 23  1  0  0  0  0
 19 20  1  0  0  0  0
 19 39  1  0  0  0  0
 19 40  1  0  0  0  0
 20 21  1  0  0  0  0
 20 41  1  0  0  0  0
 20 42  1  0  0  0  0
 21 22  1  0  0  0  0
 22 43  1  0  0  0  0
 22 44  1  0  0  0  0
 22 45  1  0  0  0  0
 24 25  1  0  0  0  0
 24 46  1  0  0  0  0
 24 47  1  0  0  0  0
 25 48  1  0  0  0  0
 25 49  1  0  0  0  0
M  END
> <s_m_source_file>
AV-unprocessed.smi

> <i_m_source_file_index>
321

> <i_lp_mmshare_version>
43012

> <i_f3d_flags>
0

> <s_epik_input>
W0NIM11bQ0gyXVMoPU8pKD1PKU4xW0NIMl1bQ0gyXVtDSF0oW0NIMl1bQ0gyXTEpW05IXUMoPU8pYzJbY0hdW2NIXWMoPU8pbihuMilbQ0gyXVtDSDJdT1tDSDNd

> <s_epik_cmdline>
J2VwaWtfcHl0aG9uJywgJy1waCcsICc3LjAnLCAnLXRuJywgJzgnLCAnLW1hJywgJzIwMCcsICctbWV0YWxfYmluZGluZycsICctaW1hZScsICc8aW5maWxlLm1hZT4nLCAnLW9tYWUnLCAnPG91dGZpbGUubWFlPic=

> <r_lp_tautomer_probability>
1

> <r_epik_Ionization_Penalty>
1.38514e-06

> <r_epik_Ionization_Penalty_Charging>
6.369e-09

> <r_epik_Ionization_Penalty_Neutral>
1.37877e-06

> <r_epik_State_Penalty>
-0

> <r_epik_Charging_Adjusted_Penalty>
6.369e-09

> <i_epik_Tot_Q>
0

> <i_epik_Tot_abs_Q>
0

> <r_epik_Metal_State_Penalty>
-0

> <b_epik_Metal_Only>
0

> <s_lp_Force_Field>
OPLS_2005

> <r_lp_Energy>
23.8323

> <b_lp_Chiralities_Consistent>
1

> <s_lp_Variant>
AV-unprocessed.smi:321-1

> <Gold.Version>
5.8.1

> <Gold.Id.Protein>
6NUR|6NUR_protein|mol2

> <Gold.PLP.Fitness>
47.8807

> <Gold.PLP.PLP>
-34.0418

> <Gold.PLP.part.hbond>
-4.9691

> <Gold.PLP.part.metal>
0.0000

> <Gold.PLP.part.buried>
-5.3823

> <Gold.PLP.part.nonpolar>
-24.5111

> <Gold.PLP.part.repulsive>
0.3437

> <Gold.PLP.ligand.clash>
0.0000

> <Gold.PLP.ligand.torsion>
1.1933

> <Gold.PLP.Chemscore.Hbond>
4.6661

> <Gold.PLP.Chemscore.CHOScore>
0.0000

> <Gold.PLP.Chemscore.Metal>
0.0000

> <Gold.Chemscore.Hbonds>
donor molecule, donor type, donor heavy atom, donor atom, acceptor molecule, acceptor atom, score
      P1  H  6896  6907       L1    21  1.00
      P1  H  6931  6943       L1    12  1.00
      P1  H  6934  6947       L1    12  0.53
      P1  H  7989  7998       L1     5  1.00
      P1  H  7997  8009       L1     4  1.00

> <Gold.PLP.Chemscore.Internal.Correction>
2.2272

> <Gold.Rescore>
     Score         DG    S(hbond)    S(metal)    S(lipo)     H(rot)  DE(clash)    DE(int)     intcor
     20.34     -22.88       4.69        0.00      55.41       1.86       0.01       2.53       ----

> <Gold.Chemscore.Fitness>
20.3367

> <Gold.Chemscore.DG>
-22.8798

> <Gold.Chemscore.ZeroCoef>
-5.4800

> <Gold.Chemscore.Hbond>
4.6917

> <Gold.Chemscore.Metal>
0.0000

> <Gold.Chemscore.Lipo>
55.4071

> <Gold.Chemscore.Internal_Hbond>
0.0000

> <Gold.Chemscore.DEClash>
0.0096

> <Gold.Chemscore.DEInternal>
2.5334

> <Gold.Chemscore.Rot>
1.8567

> <Gold.Chemscore.Internal.Correction>
   9.000000E+99

> <Gold.Chemscore.Hbonds>
donor molecule, donor type, donor heavy atom, donor atom, acceptor molecule, acceptor atom, score
      P1  H  6896  6907       L1    21  0.98
      P1  H  6931  6943       L1    12  0.93
      P1  H  6934  6947       L1    12  0.51
      P1  H  7989  7998       L1     5  0.91
      P1  H  7997  8009       L1     4  0.93

> <Gold.Chemscore.Hbond.Weighted>
-15.6702

> <Gold.Chemscore.Metal.Weighted>
-0.0000

> <Gold.Chemscore.Lipo.Weighted>
-6.4826

> <Gold.Chemscore.Internal_Hbond.Weighted>
0.0000

> <Gold.Chemscore.DEClash.Weighted>
0.0096

> <Gold.Chemscore.DEInternal.Weighted>
2.5334

> <Gold.Chemscore.Rot.Weighted>
4.7530

> <Gold.Chemscore.Internal.Correction.Weighted>
   9.000000E+99

> <Gold.Protein.RotatedTorsions>
[ 6907 6896 6895 6894 ] final -129.49 input  -60.11 | X-H torsion
[ 7974 7965 7964 7962 ] final   64.00 input  175.53 | X-H torsion
[ 8008 7997 7996 7995 ] final -165.88 input   59.86 | X-H torsion
[ 10167 10162 10161 10158 ] final  -55.08 input  -65.29 | X-H torsion
[ 10718 10713 10712 10709 ] final   26.70 input   66.30 | X-H torsion
[ 10763 10752 10751 10750 ] final    8.69 input  -60.55 | X-H torsion
[ 11005 11000 10999 10996 ] final  -44.32 input  -57.11 | X-H torsion

> <Gold.Protein.ActiveResidues>
 VAL166  LYS551  ARG553  GLY616  TRP617  ASP618  TYR619  PRO620  LYS621  CYS622 
 ASP623  PHE694  ASN695  SER759  ASP760  ASP761  ALA762  ILE779  LEU786  VAL792 
 PHE793  MET794  SER795  GLU796  ALA797  LYS798  CYS799  TRP800  GLU811  SER814 

> <Gold.Protein.RotatedAtoms>
  150.9293  133.6785  159.2814 H   0  0  0  0  0  0  0  0  0  0  0  0  # atno 6907 bound_to 6896
  151.4213  135.0997  159.9624 H   0  0  0  0  0  0  0  0  0  0  0  0  # atno 6908 bound_to 6896
  152.5018  133.8744  159.7370 H   0  0  0  0  0  0  0  0  0  0  0  0  # atno 6909 bound_to 6896
  145.8553  139.3280  143.0851 H   0  0  0  0  0  0  0  0  0  0  0  0  # atno 7974 bound_to 7965
  155.8560  140.0970  157.1644 H   0  0  0  0  0  0  0  0  0  0  0  0  # atno 8008 bound_to 7997
  154.3988  140.1374  156.3964 H   0  0  0  0  0  0  0  0  0  0  0  0  # atno 8009 bound_to 7997
  155.7909  140.3456  155.5351 H   0  0  0  0  0  0  0  0  0  0  0  0  # atno 8010 bound_to 7997
  140.6395  143.2500  151.5028 H   0  0  0  0  0  0  0  0  0  0  0  0  # atno 10167 bound_to 10162
  157.2104  130.6931  149.6226 H   0  0  0  0  0  0  0  0  0  0  0  0  # atno 10718 bound_to 10713
  153.2222  135.6882  153.7986 H   0  0  0  0  0  0  0  0  0  0  0  0  # atno 10763 bound_to 10752
  153.7181  135.3271  155.3261 H   0  0  0  0  0  0  0  0  0  0  0  0  # atno 10764 bound_to 10752
  154.8275  135.4606  154.1075 H   0  0  0  0  0  0  0  0  0  0  0  0  # atno 10765 bound_to 10752
  141.0442  133.6767  156.2856 H   0  0  0  0  0  0  0  0  0  0  0  0  # atno 11005 bound_to 11000
  145.9310  140.9048  143.0356 LP  0  0  0  0  0  0  0  0  0  0  0  0  # atno 17320 bound_to 7965
  144.6728  140.1419  143.7436 LP  0  0  0  0  0  0  0  0  0  0  0  0  # atno 17321 bound_to 7965
  139.5604  144.2170  152.1682 LP  0  0  0  0  0  0  0  0  0  0  0  0  # atno 17342 bound_to 10162
  140.1436  144.5179  150.6729 LP  0  0  0  0  0  0  0  0  0  0  0  0  # atno 17343 bound_to 10162
  155.9691  130.4553  150.5882 LP  0  0  0  0  0  0  0  0  0  0  0  0  # atno 17370 bound_to 10713
  157.3678  131.0760  151.1583 LP  0  0  0  0  0  0  0  0  0  0  0  0  # atno 17371 bound_to 10713
  140.6177  134.5394  157.5543 LP  0  0  0  0  0  0  0  0  0  0  0  0  # atno 17394 bound_to 11000
  139.9299  134.7983  156.0960 LP  0  0  0  0  0  0  0  0  0  0  0  0  # atno 17395 bound_to 11000

$$$$
