AV-unprocessed.smi:291|AV-procd|sdf|2247|dock3
  -GOLD-   2262022133D 1   1.00000     0.00000
 Structure written by MMmdl.
 35 36  0  0  0  0  0  0  0  0  1 V2000
  152.2416  144.6665  160.4675 C   0  0  0  0  0  0  0  0  0  0  0  0
  151.5818  143.5789  159.6076 C   0  0  2  0  0  0  0  0  0  0  0  0
  152.2770  142.2164  159.7924 C   0  0  0  0  0  0  0  0  0  0  0  0
  151.6251  141.1239  158.9297 C   0  0  0  0  0  0  0  0  0  0  0  0
  151.5973  141.5220  157.4411 C   0  0  1  0  0  0  0  0  0  0  0  0
  150.9020  140.5079  156.6556 N   0  0  0  0  0  0  0  0  0  0  0  0
  151.4200  139.8375  155.6139 C   0  0  0  0  0  0  0  0  0  0  0  0
  152.5702  139.9980  155.2071 O   0  0  0  0  0  0  0  0  0  0  0  0
  150.5042  138.8208  154.9290 C   0  0  0  0  0  0  0  0  0  0  0  0
  149.2773  139.4404  154.4598 N   0  0  0  0  0  0  0  0  0  0  0  0
  148.2419  138.9212  153.7911 C   0  0  0  0  0  0  0  0  0  0  0  0
  147.2825  139.7972  153.5183 N   0  0  0  0  0  0  0  0  0  0  0  0
  147.8379  140.9047  154.0904 C   0  0  0  0  0  0  0  0  0  0  0  0
  147.1615  142.1905  154.0699 C   0  0  0  0  0  0  0  0  0  0  0  0
  146.6224  143.2143  154.0542 N   0  0  0  0  0  0  0  0  0  0  0  0
  149.0279  140.7565  154.6686 N   0  0  0  0  0  0  0  0  0  0  0  0
  150.9036  142.8832  157.2546 C   0  0  0  0  0  0  0  0  0  0  0  0
  151.5610  143.9721  158.1180 C   0  0  0  0  0  0  0  0  0  0  0  0
  153.2825  144.8219  160.1817 H   0  0  0  0  0  0  0  0  0  0  0  0
  152.2232  144.3961  161.5237 H   0  0  0  0  0  0  0  0  0  0  0  0
  151.7218  145.6193  160.3626 H   0  0  0  0  0  0  0  0  0  0  0  0
  150.5486  143.4774  159.9431 H   0  0  0  0  0  0  0  0  0  0  0  0
  153.3326  142.3020  159.5308 H   0  0  0  0  0  0  0  0  0  0  0  0
  152.2432  141.9201  160.8414 H   0  0  0  0  0  0  0  0  0  0  0  0
  152.1672  140.1860  159.0580 H   0  0  0  0  0  0  0  0  0  0  0  0
  150.6088  140.9434  159.2832 H   0  0  0  0  0  0  0  0  0  0  0  0
  152.6242  141.6160  157.0819 H   0  0  0  0  0  0  0  0  0  0  0  0
  149.9485  140.3049  156.9194 H   0  0  0  0  0  0  0  0  0  0  0  0
  151.0151  138.3724  154.0756 H   0  0  0  0  0  0  0  0  0  0  0  0
  150.2654  138.0132  155.6226 H   0  0  0  0  0  0  0  0  0  0  0  0
  148.1913  137.8830  153.4964 H   0  0  0  0  0  0  0  0  0  0  0  0
  150.9362  143.1785  156.2049 H   0  0  0  0  0  0  0  0  0  0  0  0
  149.8483  142.8014  157.5195 H   0  0  0  0  0  0  0  0  0  0  0  0
  151.0254  144.9130  157.9883 H   0  0  0  0  0  0  0  0  0  0  0  0
  152.5792  144.1469  157.7676 H   0  0  0  0  0  0  0  0  0  0  0  0
  1  2  1  0  0  0  0
  1 19  1  0  0  0  0
  1 20  1  0  0  0  0
  1 21  1  0  0  0  0
  2 18  1  0  0  0  0
  2  3  1  0  0  0  0
  2 22  1  0  0  0  0
  3  4  1  0  0  0  0
  3 23  1  0  0  0  0
  3 24  1  0  0  0  0
  4  5  1  0  0  0  0
  4 25  1  0  0  0  0
  4 26  1  0  0  0  0
  5  6  1  0  0  0  0
  5 17  1  0  0  0  0
  5 27  1  0  0  0  0
  6  7  1  0  0  0  0
  6 28  1  0  0  0  0
  7  8  2  0  0  0  0
  7  9  1  0  0  0  0
  9 10  1  0  0  0  0
  9 29  1  0  0  0  0
  9 30  1  0  0  0  0
 10 16  1  0  0  0  0
 10 11  1  0  0  0  0
 11 12  2  0  0  0  0
 11 31  1  0  0  0  0
 12 13  1  0  0  0  0
 13 14  1  0  0  0  0
 13 16  2  0  0  0  0
 14 15  3  0  0  0  0
 17 18  1  0  0  0  0
 17 32  1  0  0  0  0
 17 33  1  0  0  0  0
 18 34  1  0  0  0  0
 18 35  1  0  0  0  0
M  END
> <s_m_source_file>
AV-unprocessed.smi

> <i_m_source_file_index>
291

> <i_lp_mmshare_version>
43012

> <i_f3d_flags>
0

> <s_epik_input>
W0NIM11bQ0BASF0xW0NIMl1bQ0gyXVtDQEhdKFtDSDJdW0NIMl0xKVtOSF1DKD1PKVtDSDJdbjJbY0hdbmMobjIpQyNO

> <s_epik_cmdline>
J2VwaWtfcHl0aG9uJywgJy1waCcsICc3LjAnLCAnLXRuJywgJzgnLCAnLW1hJywgJzIwMCcsICctbWV0YWxfYmluZGluZycsICctaW1hZScsICc8aW5maWxlLm1hZT4nLCAnLW9tYWUnLCAnPG91dGZpbGUubWFlPic=

> <r_lp_tautomer_probability>
1

> <r_epik_Ionization_Penalty>
5.31112e-08

> <r_epik_Ionization_Penalty_Charging>
0

> <r_epik_Ionization_Penalty_Neutral>
5.31112e-08

> <r_epik_State_Penalty>
-0

> <r_epik_Charging_Adjusted_Penalty>
0

> <i_epik_Tot_Q>
0

> <i_epik_Tot_abs_Q>
0

> <r_epik_Metal_State_Penalty>
-0

> <b_epik_Metal_Only>
0

> <s_lp_Force_Field>
OPLS_2005

> <r_lp_Energy>
12.4936

> <b_lp_Chiralities_Consistent>
1

> <s_lp_Variant>
AV-unprocessed.smi:291-1

> <Gold.Version>
5.8.1

> <Gold.Id.Protein>
6NUR|6NUR_protein|mol2

> <Gold.PLP.Fitness>
42.7817

> <Gold.PLP.PLP>
-36.3204

> <Gold.PLP.part.hbond>
-2.5972

> <Gold.PLP.part.metal>
0.0000

> <Gold.PLP.part.buried>
-3.8836

> <Gold.PLP.part.nonpolar>
-31.2456

> <Gold.PLP.part.repulsive>
0.7398

> <Gold.PLP.ligand.clash>
0.0000

> <Gold.PLP.ligand.torsion>
0.0289

> <Gold.PLP.Chemscore.Hbond>
1.1720

> <Gold.PLP.Chemscore.CHOScore>
1.0000

> <Gold.PLP.Chemscore.Metal>
0.0000

> <Gold.Chemscore.Hbonds>
donor molecule, donor type, donor heavy atom, donor atom, acceptor molecule, acceptor atom, score
      P1  H  7989  7998       L1     8  0.14
      P1  H  7997  8008       L1     8  1.00
      L1  C    11    31       P1  7948  1.00

> <Gold.PLP.Chemscore.Internal.Correction>
0.0031

> <Gold.Rescore>
     Score         DG    S(hbond)    S(metal)    S(lipo)     H(rot)  DE(clash)    DE(int)     intcor
     11.22     -12.78       1.01        0.00      76.17       1.95       0.14       1.42       ----

> <Gold.Chemscore.Fitness>
11.2186

> <Gold.Chemscore.DG>
-12.7840

> <Gold.Chemscore.ZeroCoef>
-5.4800

> <Gold.Chemscore.Hbond>
1.0113

> <Gold.Chemscore.Metal>
0.0000

> <Gold.Chemscore.Lipo>
76.1661

> <Gold.Chemscore.Internal_Hbond>
0.0000

> <Gold.Chemscore.DEClash>
0.1426

> <Gold.Chemscore.DEInternal>
1.4228

> <Gold.Chemscore.Rot>
1.9474

> <Gold.Chemscore.Internal.Correction>
   9.000000E+99

> <Gold.Chemscore.Hbonds>
donor molecule, donor type, donor heavy atom, donor atom, acceptor molecule, acceptor atom, score
      P1  H  7997  8008       L1     8  0.95

> <Gold.Chemscore.Hbond.Weighted>
-3.3778

> <Gold.Chemscore.Metal.Weighted>
-0.0000

> <Gold.Chemscore.Lipo.Weighted>
-8.9114

> <Gold.Chemscore.Internal_Hbond.Weighted>
0.0000

> <Gold.Chemscore.DEClash.Weighted>
0.1426

> <Gold.Chemscore.DEInternal.Weighted>
1.4228

> <Gold.Chemscore.Rot.Weighted>
4.9852

> <Gold.Chemscore.Internal.Correction.Weighted>
   9.000000E+99

> <Gold.Protein.RotatedTorsions>
[ 6907 6896 6895 6894 ] final  -36.33 input  -60.11 | X-H torsion
[ 7974 7965 7964 7962 ] final  -14.10 input  175.53 | X-H torsion
[ 8008 7997 7996 7995 ] final  -16.45 input   59.86 | X-H torsion
[ 10167 10162 10161 10158 ] final  -10.61 input  -65.29 | X-H torsion
[ 10718 10713 10712 10709 ] final   88.36 input   66.30 | X-H torsion
[ 10763 10752 10751 10750 ] final   49.58 input  -60.55 | X-H torsion
[ 11005 11000 10999 10996 ] final  157.28 input  -57.11 | X-H torsion

> <Gold.Protein.ActiveResidues>
 VAL166  LYS551  ARG553  GLY616  TRP617  ASP618  TYR619  PRO620  LYS621  CYS622 
 ASP623  PHE694  ASN695  SER759  ASP760  ASP761  ALA762  ILE779  LEU786  VAL792 
 PHE793  MET794  SER795  GLU796  ALA797  LYS798  CYS799  TRP800  GLU811  SER814 

> <Gold.Protein.RotatedAtoms>
  151.0285  134.9522  159.8097 H   0  0  0  0  0  0  0  0  0  0  0  0  # atno 6907 bound_to 6896
  152.5340  134.2811  159.9017 H   0  0  0  0  0  0  0  0  0  0  0  0  # atno 6908 bound_to 6896
  151.2820  133.4163  159.2661 H   0  0  0  0  0  0  0  0  0  0  0  0  # atno 6909 bound_to 6896
  146.2088  140.3299  142.8398 H   0  0  0  0  0  0  0  0  0  0  0  0  # atno 7974 bound_to 7965
  154.5052  140.2169  155.9266 H   0  0  0  0  0  0  0  0  0  0  0  0  # atno 8008 bound_to 7997
  156.1484  140.3166  155.8575 H   0  0  0  0  0  0  0  0  0  0  0  0  # atno 8009 bound_to 7997
  155.3986  140.0483  157.3028 H   0  0  0  0  0  0  0  0  0  0  0  0  # atno 8010 bound_to 7997
  140.7118  143.5729  150.9073 H   0  0  0  0  0  0  0  0  0  0  0  0  # atno 10167 bound_to 10162
  157.6948  131.0292  150.3263 H   0  0  0  0  0  0  0  0  0  0  0  0  # atno 10718 bound_to 10713
  152.9786  135.5907  154.4112 H   0  0  0  0  0  0  0  0  0  0  0  0  # atno 10763 bound_to 10752
  154.3747  135.2767  155.2248 H   0  0  0  0  0  0  0  0  0  0  0  0  # atno 10764 bound_to 10752
  154.4188  135.6064  153.6052 H   0  0  0  0  0  0  0  0  0  0  0  0  # atno 10765 bound_to 10752
  140.1755  134.8513  157.2741 H   0  0  0  0  0  0  0  0  0  0  0  0  # atno 11005 bound_to 11000
  144.8860  140.7462  143.5957 LP  0  0  0  0  0  0  0  0  0  0  0  0  # atno 17320 bound_to 7965
  145.3220  139.1785  143.4583 LP  0  0  0  0  0  0  0  0  0  0  0  0  # atno 17321 bound_to 7965
  139.9455  143.6332  152.3042 LP  0  0  0  0  0  0  0  0  0  0  0  0  # atno 17342 bound_to 10162
  139.6832  144.7654  151.1571 LP  0  0  0  0  0  0  0  0  0  0  0  0  # atno 17343 bound_to 10162
  156.3743  130.3869  149.7151 LP  0  0  0  0  0  0  0  0  0  0  0  0  # atno 17370 bound_to 10713
  156.4554  130.7927  151.2948 LP  0  0  0  0  0  0  0  0  0  0  0  0  # atno 17371 bound_to 10713
  140.2328  134.3889  155.7514 LP  0  0  0  0  0  0  0  0  0  0  0  0  # atno 17394 bound_to 11000
  141.2220  133.7224  156.8667 LP  0  0  0  0  0  0  0  0  0  0  0  0  # atno 17395 bound_to 11000

$$$$
