AV-unprocessed.smi:285|AV-procd|sdf|2166|dock1
  -GOLD-   2262021523D 1   1.00000     0.00000
 Structure written by MMmdl.
 31 33  0  0  0  0  0  0  0  0  1 V2000
  151.6483  141.8386  161.4227 N   0  0  0  0  0  0  0  0  0  0  0  0
  152.0367  141.0244  160.4314 C   0  0  0  0  0  0  0  0  0  0  0  0
  153.0504  140.1598  160.6697 N   0  0  0  0  0  0  0  0  0  0  0  0
  153.4572  139.3371  159.6974 C   0  0  0  0  0  0  0  0  0  0  0  0
  152.9941  139.2245  158.4498 N   0  0  0  0  0  0  0  0  0  0  0  0
  151.9700  140.0951  158.2098 C   0  0  0  0  0  0  0  0  0  0  0  0
  151.4355  141.0270  159.1475 C   0  0  0  0  0  0  0  0  0  0  0  0
  150.4059  141.7563  158.5664 N   0  0  0  0  0  0  0  0  0  0  0  0
  150.3528  141.2657  157.3596 C   0  0  0  0  0  0  0  0  0  0  0  0
  149.0889  141.9372  156.1027 Br  0  0  0  0  0  0  0  0  0  0  0  0
  151.2457  140.2655  157.0462 N   0  0  0  0  0  0  0  0  0  0  0  0
  151.4101  139.5213  155.7602 C   0  0  1  0  0  0  0  0  0  0  0  0
  150.9747  138.0726  155.8921 C   0  0  0  0  0  0  0  0  0  0  0  0
  150.7369  137.7552  154.4320 C   0  0  1  0  0  0  0  0  0  0  0  0
  149.9239  136.6087  154.2762 O   0  0  0  0  0  0  0  0  0  0  0  0
  150.1447  139.0725  153.8775 C   0  0  1  0  0  0  0  0  0  0  0  0
  148.6043  139.1339  153.8293 C   0  0  0  0  0  0  0  0  0  0  0  0
  148.1427  138.6460  152.5877 O   0  0  0  0  0  0  0  0  0  0  0  0
  150.5799  140.0829  154.7956 O   0  0  0  0  0  0  0  0  0  0  0  0
  150.8940  142.4926  161.2700 H   0  0  0  0  0  0  0  0  0  0  0  0
  152.1077  141.7941  162.3207 H   0  0  0  0  0  0  0  0  0  0  0  0
  154.2697  138.6739  159.9554 H   0  0  0  0  0  0  0  0  0  0  0  0
  152.4539  139.6356  155.4680 H   0  0  0  0  0  0  0  0  0  0  0  0
  151.7464  137.4635  156.3638 H   0  0  0  0  0  0  0  0  0  0  0  0
  150.0508  138.0101  156.4692 H   0  0  0  0  0  0  0  0  0  0  0  0
  151.6978  137.5652  153.9513 H   0  0  0  0  0  0  0  0  0  0  0  0
  149.6494  136.5545  153.3734 H   0  0  0  0  0  0  0  0  0  0  0  0
  150.5570  139.2614  152.8853 H   0  0  0  0  0  0  0  0  0  0  0  0
  148.1630  138.4947  154.5936 H   0  0  0  0  0  0  0  0  0  0  0  0
  148.2355  140.1443  154.0027 H   0  0  0  0  0  0  0  0  0  0  0  0
  148.5503  137.8094  152.4242 H   0  0  0  0  0  0  0  0  0  0  0  0
  1  2  1  0  0  0  0
  1 20  1  0  0  0  0
  1 21  1  0  0  0  0
  2  7  1  0  0  0  0
  2  3  2  0  0  0  0
  3  4  1  0  0  0  0
  4  5  2  0  0  0  0
  4 22  1  0  0  0  0
  5  6  1  0  0  0  0
  6 11  1  0  0  0  0
  6  7  2  0  0  0  0
  7  8  1  0  0  0  0
  8  9  2  0  0  0  0
  9 10  1  0  0  0  0
  9 11  1  0  0  0  0
 11 12  1  0  0  0  0
 12 19  1  0  0  0  0
 12 13  1  0  0  0  0
 12 23  1  0  0  0  0
 13 14  1  0  0  0  0
 13 24  1  0  0  0  0
 13 25  1  0  0  0  0
 14 15  1  0  0  0  0
 14 16  1  0  0  0  0
 14 26  1  0  0  0  0
 15 27  1  0  0  0  0
 16 17  1  0  0  0  0
 16 19  1  0  0  0  0
 16 28  1  0  0  0  0
 17 18  1  0  0  0  0
 17 29  1  0  0  0  0
 17 30  1  0  0  0  0
 18 31  1  0  0  0  0
M  END
> <s_m_source_file>
AV-unprocessed.smi

> <i_m_source_file_index>
285

> <i_lp_mmshare_version>
43012

> <i_f3d_flags>
0

> <s_epik_input>
bjFbY0hdbmMoW05IMl0pYyhjMTIpbmMoQnIpbjJbQ0BASF0zW0NIMl1bQ0BASF0oW09IXSlbQ0BIXShPMylbQ0gyXVtPSF0=

> <s_epik_cmdline>
J2VwaWtfcHl0aG9uJywgJy1waCcsICc3LjAnLCAnLXRuJywgJzgnLCAnLW1hJywgJzIwMCcsICctbWV0YWxfYmluZGluZycsICctaW1hZScsICc8aW5maWxlLm1hZT4nLCAnLW9tYWUnLCAnPG91dGZpbGUubWFlPic=

> <r_lp_tautomer_probability>
1

> <r_epik_Ionization_Penalty>
0.000103242

> <r_epik_Ionization_Penalty_Charging>
0

> <r_epik_Ionization_Penalty_Neutral>
0.000103242

> <r_epik_State_Penalty>
-0

> <r_epik_Charging_Adjusted_Penalty>
0

> <i_epik_Tot_Q>
0

> <i_epik_Tot_abs_Q>
0

> <r_epik_Metal_State_Penalty>
-0

> <b_epik_Metal_Only>
0

> <s_epik_Chemistry_Notes>
This compound contains an acetal/aminal-like group ( X-CH(R)-Y where X, Y are N, S, or O) that may be acid/base labile, releasing an aldehyde.

> <s_lp_Force_Field>
OPLS_2005

> <r_lp_Energy>
35.0354

> <b_lp_Chiralities_Consistent>
1

> <s_lp_Variant>
AV-unprocessed.smi:285-2

> <Gold.Version>
5.8.1

> <Gold.Id.Protein>
6NUR|6NUR_protein|mol2

> <Gold.PLP.Fitness>
39.5911

> <Gold.PLP.PLP>
-28.5119

> <Gold.PLP.part.hbond>
-5.0000

> <Gold.PLP.part.metal>
0.0000

> <Gold.PLP.part.buried>
0.1775

> <Gold.PLP.part.nonpolar>
-24.5789

> <Gold.PLP.part.repulsive>
0.2581

> <Gold.PLP.ligand.clash>
0.0000

> <Gold.PLP.ligand.torsion>
0.4558

> <Gold.PLP.Chemscore.Hbond>
3.9920

> <Gold.PLP.Chemscore.CHOScore>
0.0000

> <Gold.PLP.Chemscore.Metal>
0.0000

> <Gold.Chemscore.Hbonds>
donor molecule, donor type, donor heavy atom, donor atom, acceptor molecule, acceptor atom, score
      L1  H    15    27       P1  7948  1.00
      L1  H    18    31       P1  7948  1.00
      P1  H  7989  7998       L1    19  0.55
      P1  H  7997  8009       L1     5  0.25

> <Gold.PLP.Chemscore.Internal.Correction>
0.0147

> <Gold.Rescore>
     Score         DG    S(hbond)    S(metal)    S(lipo)     H(rot)  DE(clash)    DE(int)     intcor
      6.88     -10.69       2.57        0.00      38.16       3.06       1.46       2.35       ----

> <Gold.Chemscore.Fitness>
6.8810

> <Gold.Chemscore.DG>
-10.6936

> <Gold.Chemscore.ZeroCoef>
-5.4800

> <Gold.Chemscore.Hbond>
2.5702

> <Gold.Chemscore.Metal>
0.0000

> <Gold.Chemscore.Lipo>
38.1590

> <Gold.Chemscore.Internal_Hbond>
0.0000

> <Gold.Chemscore.DEClash>
1.4606

> <Gold.Chemscore.DEInternal>
2.3520

> <Gold.Chemscore.Rot>
3.0607

> <Gold.Chemscore.Internal.Correction>
   9.000000E+99

> <Gold.Chemscore.Hbonds>
donor molecule, donor type, donor heavy atom, donor atom, acceptor molecule, acceptor atom, score
      L1  H    15    27       P1  7948  0.45
      L1  H    18    31       P1  7948  1.00
      P1  H  7989  7998       L1    19  0.02
      P1  H  7997  8009       L1     5  0.04

> <Gold.Chemscore.Hbond.Weighted>
-8.5843

> <Gold.Chemscore.Metal.Weighted>
-0.0000

> <Gold.Chemscore.Lipo.Weighted>
-4.4646

> <Gold.Chemscore.Internal_Hbond.Weighted>
0.0000

> <Gold.Chemscore.DEClash.Weighted>
1.4606

> <Gold.Chemscore.DEInternal.Weighted>
2.3520

> <Gold.Chemscore.Rot.Weighted>
7.8354

> <Gold.Chemscore.Internal.Correction.Weighted>
   9.000000E+99

> <Gold.Protein.RotatedTorsions>
[ 6907 6896 6895 6894 ] final  -14.44 input  -60.11 | X-H torsion
[ 7974 7965 7964 7962 ] final   10.68 input  175.53 | X-H torsion
[ 8008 7997 7996 7995 ] final  166.48 input   59.86 | X-H torsion
[ 10167 10162 10161 10158 ] final   94.80 input  -65.29 | X-H torsion
[ 10718 10713 10712 10709 ] final -144.76 input   66.30 | X-H torsion
[ 10763 10752 10751 10750 ] final -177.27 input  -60.55 | X-H torsion
[ 11005 11000 10999 10996 ] final -136.98 input  -57.11 | X-H torsion

> <Gold.Protein.ActiveResidues>
 VAL166  LYS551  ARG553  GLY616  TRP617  ASP618  TYR619  PRO620  LYS621  CYS622 
 ASP623  PHE694  ASN695  SER759  ASP760  ASP761  ALA762  ILE779  LEU786  VAL792 
 PHE793  MET794  SER795  GLU796  ALA797  LYS798  CYS799  TRP800  GLU811  SER814 

> <Gold.Protein.RotatedAtoms>
  151.3393  135.0860  159.9365 H   0  0  0  0  0  0  0  0  0  0  0  0  # atno 6907 bound_to 6896
  152.5215  133.9463  159.7661 H   0  0  0  0  0  0  0  0  0  0  0  0  # atno 6908 bound_to 6896
  150.9817  133.6186  159.2751 H   0  0  0  0  0  0  0  0  0  0  0  0  # atno 6909 bound_to 6896
  146.2384  139.9598  142.8460 H   0  0  0  0  0  0  0  0  0  0  0  0  # atno 7974 bound_to 7965
  156.1715  140.1642  156.8439 H   0  0  0  0  0  0  0  0  0  0  0  0  # atno 8008 bound_to 7997
  154.5262  140.0767  156.8296 H   0  0  0  0  0  0  0  0  0  0  0  0  # atno 8009 bound_to 7997
  155.3503  140.3389  155.4241 H   0  0  0  0  0  0  0  0  0  0  0  0  # atno 8010 bound_to 7997
  139.8049  144.6798  150.9715 H   0  0  0  0  0  0  0  0  0  0  0  0  # atno 10167 bound_to 10162
  156.3741  130.7803  151.1987 H   0  0  0  0  0  0  0  0  0  0  0  0  # atno 10718 bound_to 10713
  154.5622  135.2821  155.0908 H   0  0  0  0  0  0  0  0  0  0  0  0  # atno 10763 bound_to 10752
  154.2313  135.6373  153.5180 H   0  0  0  0  0  0  0  0  0  0  0  0  # atno 10764 bound_to 10752
  153.0032  135.5538  154.6219 H   0  0  0  0  0  0  0  0  0  0  0  0  # atno 10765 bound_to 10752
  140.8755  134.1998  157.4625 H   0  0  0  0  0  0  0  0  0  0  0  0  # atno 11005 bound_to 11000
  145.1782  140.9754  143.4282 LP  0  0  0  0  0  0  0  0  0  0  0  0  # atno 17320 bound_to 7965
  144.9966  139.3638  143.6188 LP  0  0  0  0  0  0  0  0  0  0  0  0  # atno 17321 bound_to 7965
  140.7819  143.4243  151.0792 LP  0  0  0  0  0  0  0  0  0  0  0  0  # atno 17342 bound_to 10162
  139.7913  143.8214  152.3152 LP  0  0  0  0  0  0  0  0  0  0  0  0  # atno 17343 bound_to 10162
  157.7486  131.0363  150.4405 LP  0  0  0  0  0  0  0  0  0  0  0  0  # atno 17370 bound_to 10713
  156.4637  130.4037  149.6560 LP  0  0  0  0  0  0  0  0  0  0  0  0  # atno 17371 bound_to 10713
  139.8715  134.9793  156.5033 LP  0  0  0  0  0  0  0  0  0  0  0  0  # atno 17394 bound_to 11000
  140.8523  133.8122  155.9181 LP  0  0  0  0  0  0  0  0  0  0  0  0  # atno 17395 bound_to 11000

$$$$
