AV-unprocessed.smi:2849|AV-procd|sdf|10959|dock4
  -GOLD-   2272015413D 1   1.00000     0.00000
 Structure written by MMmdl.
 55 58  0  0  0  0  0  0  0  0  2 V2000
  145.9106  134.1151  151.4847 C   0  0  0  0  0  0  0  0  0  0  0  0
  146.2332  135.3816  152.1840 N   0  3  2  0  0  0  0  0  0  0  0  0
  146.2309  135.2953  153.6649 C   0  0  2  0  0  0  0  0  0  0  0  0
  144.7942  135.1106  154.2155 C   0  0  0  0  0  0  0  0  0  0  0  0
  143.7859  136.1516  153.6938 C   0  0  0  0  0  0  0  0  0  0  0  0
  143.9648  136.4450  152.1917 C   0  0  0  0  0  0  0  0  0  0  0  0
  145.4440  136.5567  151.7407 C   0  0  1  0  0  0  0  0  0  0  0  0
  146.1675  137.8444  152.1988 C   0  0  0  0  0  0  0  0  0  0  0  0
  146.5062  137.8858  153.7080 C   0  0  2  0  0  0  0  0  0  0  0  0
  147.5270  138.9053  153.9427 N   0  0  0  0  0  0  0  0  0  0  0  0
  148.1966  139.0804  155.0916 C   0  0  0  0  0  0  0  0  0  0  0  0
  148.0242  138.3772  156.0862 O   0  0  0  0  0  0  0  0  0  0  0  0
  149.0548  140.1112  154.9977 N   0  0  0  0  0  0  0  0  0  0  0  0
  149.9210  140.6602  155.9840 C   0  0  0  0  0  0  0  0  0  0  0  0
  150.3189  142.0165  156.0536 C   0  0  0  0  0  0  0  0  0  0  0  0
  151.1846  142.4224  157.0876 C   0  0  0  0  0  0  0  0  0  0  0  0
  151.6275  141.4677  158.0331 C   0  0  0  0  0  0  0  0  0  0  0  0
  152.5038  141.8290  159.0751 N   0  0  0  0  0  0  0  0  0  0  0  0
  153.1622  140.8387  159.9123 C   0  0  0  0  0  0  0  0  0  0  0  0
  153.9435  141.6597  160.9367 C   0  0  0  0  0  0  0  0  0  0  0  0
  153.0746  142.9047  161.1205 C   0  0  0  0  0  0  0  0  0  0  0  0
  152.4281  143.1185  159.7467 C   0  0  0  0  0  0  0  0  0  0  0  0
  151.2418  140.1718  157.9684 N   0  0  0  0  0  0  0  0  0  0  0  0
  150.4129  139.7879  156.9758 C   0  0  0  0  0  0  0  0  0  0  0  0
  146.9927  136.5127  154.2389 C   0  0  0  0  0  0  0  0  0  0  0  0
  144.8912  133.7825  151.6776 H   0  0  0  0  0  0  0  0  0  0  0  0
  146.5894  133.3226  151.8012 H   0  0  0  0  0  0  0  0  0  0  0  0
  146.0271  134.2365  150.4076 H   0  0  0  0  0  0  0  0  0  0  0  0
  146.8026  134.4101  153.9482 H   0  0  0  0  0  0  0  0  0  0  0  0
  144.4373  134.1178  153.9412 H   0  0  0  0  0  0  0  0  0  0  0  0
  144.8053  135.1217  155.3058 H   0  0  0  0  0  0  0  0  0  0  0  0
  142.7713  135.7962  153.8757 H   0  0  0  0  0  0  0  0  0  0  0  0
  143.8574  137.0695  154.2710 H   0  0  0  0  0  0  0  0  0  0  0  0
  143.4854  135.6452  151.6265 H   0  0  0  0  0  0  0  0  0  0  0  0
  143.4209  137.3520  151.9258 H   0  0  0  0  0  0  0  0  0  0  0  0
  145.4501  136.5698  150.6497 H   0  0  0  0  0  0  0  0  0  0  0  0
  147.0972  137.9156  151.6313 H   0  0  0  0  0  0  0  0  0  0  0  0
  145.5851  138.7243  151.9219 H   0  0  0  0  0  0  0  0  0  0  0  0
  145.6149  138.1904  154.2515 H   0  0  0  0  0  0  0  0  0  0  0  0
  147.7309  139.5310  153.1771 H   0  0  0  0  0  0  0  0  0  0  0  0
  149.0586  140.5977  154.1130 H   0  0  0  0  0  0  0  0  0  0  0  0
  149.9834  142.7584  155.3471 H   0  0  0  0  0  0  0  0  0  0  0  0
  151.4990  143.4543  157.1357 H   0  0  0  0  0  0  0  0  0  0  0  0
  152.4095  140.2216  160.4049 H   0  0  0  0  0  0  0  0  0  0  0  0
  153.8180  140.1889  159.3318 H   0  0  0  0  0  0  0  0  0  0  0  0
  154.1207  141.1193  161.8670 H   0  0  0  0  0  0  0  0  0  0  0  0
  154.9111  141.9448  160.5213 H   0  0  0  0  0  0  0  0  0  0  0  0
  152.2998  142.6999  161.8605 H   0  0  0  0  0  0  0  0  0  0  0  0
  153.6405  143.7723  161.4609 H   0  0  0  0  0  0  0  0  0  0  0  0
  152.9877  143.8518  159.1652 H   0  0  0  0  0  0  0  0  0  0  0  0
  151.4012  143.4708  159.8492 H   0  0  0  0  0  0  0  0  0  0  0  0
  150.1369  138.7434  156.9727 H   0  0  0  0  0  0  0  0  0  0  0  0
  146.9586  136.4981  155.3289 H   0  0  0  0  0  0  0  0  0  0  0  0
  148.0455  136.3933  153.9765 H   0  0  0  0  0  0  0  0  0  0  0  0
  147.1887  135.5797  151.9239 H   0  0  0  0  0  0  0  0  0  0  0  0
  1  2  1  0  0  0  0
  1 26  1  0  0  0  0
  1 27  1  0  0  0  0
  1 28  1  0  0  0  0
  2  7  1  0  0  0  0
  2  3  1  0  0  0  0
  2 55  1  0  0  0  0
  3 25  1  0  0  0  0
  3  4  1  0  0  0  0
  3 29  1  0  0  0  0
  4  5  1  0  0  0  0
  4 30  1  0  0  0  0
  4 31  1  0  0  0  0
  5  6  1  0  0  0  0
  5 32  1  0  0  0  0
  5 33  1  0  0  0  0
  6  7  1  0  0  0  0
  6 34  1  0  0  0  0
  6 35  1  0  0  0  0
  7  8  1  0  0  0  0
  7 36  1  0  0  0  0
  8  9  1  0  0  0  0
  8 37  1  0  0  0  0
  8 38  1  0  0  0  0
  9 10  1  0  0  0  0
  9 25  1  0  0  0  0
  9 39  1  0  0  0  0
 10 11  1  0  0  0  0
 10 40  1  0  0  0  0
 11 12  2  0  0  0  0
 11 13  1  0  0  0  0
 13 14  1  0  0  0  0
 13 41  1  0  0  0  0
 14 24  1  0  0  0  0
 14 15  2  0  0  0  0
 15 16  1  0  0  0  0
 15 42  1  0  0  0  0
 16 17  2  0  0  0  0
 16 43  1  0  0  0  0
 17 18  1  0  0  0  0
 17 23  1  0  0  0  0
 18 22  1  0  0  0  0
 18 19  1  0  0  0  0
 19 20  1  0  0  0  0
 19 44  1  0  0  0  0
 19 45  1  0  0  0  0
 20 21  1  0  0  0  0
 20 46  1  0  0  0  0
 20 47  1  0  0  0  0
 21 22  1  0  0  0  0
 21 48  1  0  0  0  0
 21 49  1  0  0  0  0
 22 50  1  0  0  0  0
 22 51  1  0  0  0  0
 23 24  2  0  0  0  0
 24 52  1  0  0  0  0
 25 53  1  0  0  0  0
 25 54  1  0  0  0  0
M  CHG  1   2   1
M  END
> <s_m_source_file>
AV-unprocessed.smi

> <i_m_source_file_index>
2849

> <i_lp_mmshare_version>
43012

> <i_f3d_flags>
0

> <s_epik_input>
W0NIMl0xW0NIMl1bQ0gyXVtDQEhdKE4oW0NIM10pW0NIXTEyKVtDSDJdW0NASF0oW0NIMl0yKVtOSF1DKD1PKVtOSF1jM1tjSF1bY0hdYyhuW2NIXTMpTjRbQ0gyXVtDSDJdW0NIMl1bQ0gyXTQ=

> <s_epik_cmdline>
J2VwaWtfcHl0aG9uJywgJy1waCcsICc3LjAnLCAnLXRuJywgJzgnLCAnLW1hJywgJzIwMCcsICctbWV0YWxfYmluZGluZycsICctaW1hZScsICc8aW5maWxlLm1hZT4nLCAnLW9tYWUnLCAnPG91dGZpbGUubWFlPic=

> <r_lp_tautomer_probability>
1

> <r_epik_Ionization_Penalty>
0.07954

> <r_epik_Ionization_Penalty_Charging>
0.00089841

> <r_epik_Ionization_Penalty_Neutral>
0.0786416

> <r_epik_State_Penalty>
0.0689917

> <r_epik_Charging_Adjusted_Penalty>
0.0698901

> <i_epik_Tot_Q>
1

> <i_epik_Tot_abs_Q>
1

> <r_epik_Metal_State_Penalty>
0.060891

> <b_epik_Metal_Only>
0

> <s_lp_Force_Field>
OPLS_2005

> <r_lp_Energy>
61.678

> <b_lp_Chiralities_Consistent>
1

> <s_lp_Variant>
AV-unprocessed.smi:2849-3

> <Gold.Version>
5.8.1

> <Gold.Id.Protein>
6NUR|6NUR_protein|mol2

> <Gold.PLP.Fitness>
42.5489

> <Gold.PLP.PLP>
-37.6135

> <Gold.PLP.part.hbond>
-1.0000

> <Gold.PLP.part.metal>
0.0000

> <Gold.PLP.part.buried>
-2.6974

> <Gold.PLP.part.nonpolar>
-33.1612

> <Gold.PLP.part.repulsive>
0.0993

> <Gold.PLP.ligand.clash>
0.0000

> <Gold.PLP.ligand.torsion>
0.6070

> <Gold.PLP.Chemscore.Hbond>
2.0000

> <Gold.PLP.Chemscore.CHOScore>
0.0000

> <Gold.PLP.Chemscore.Metal>
0.0000

> <Gold.Chemscore.Hbonds>
donor molecule, donor type, donor heavy atom, donor atom, acceptor molecule, acceptor atom, score
      L1  H     2    55       P1  7948  2.00

> <Gold.PLP.Chemscore.Internal.Correction>
0.1494

> <Gold.Rescore>
     Score         DG    S(hbond)    S(metal)    S(lipo)     H(rot)  DE(clash)    DE(int)     intcor
     14.76     -18.30       0.99        0.00     103.12       1.00       0.43       3.11       ----

> <Gold.Chemscore.Fitness>
14.7590

> <Gold.Chemscore.DG>
-18.2989

> <Gold.Chemscore.ZeroCoef>
-5.4800

> <Gold.Chemscore.Hbond>
0.9922

> <Gold.Chemscore.Metal>
0.0000

> <Gold.Chemscore.Lipo>
103.1190

> <Gold.Chemscore.Internal_Hbond>
0.0000

> <Gold.Chemscore.DEClash>
0.4331

> <Gold.Chemscore.DEInternal>
3.1068

> <Gold.Chemscore.Rot>
1.0000

> <Gold.Chemscore.Internal.Correction>
   9.000000E+99

> <Gold.Chemscore.Hbonds>
donor molecule, donor type, donor heavy atom, donor atom, acceptor molecule, acceptor atom, score
      L1  H     2    55       P1  7948  1.00

> <Gold.Chemscore.Hbond.Weighted>
-3.3139

> <Gold.Chemscore.Metal.Weighted>
-0.0000

> <Gold.Chemscore.Lipo.Weighted>
-12.0649

> <Gold.Chemscore.Internal_Hbond.Weighted>
0.0000

> <Gold.Chemscore.DEClash.Weighted>
0.4331

> <Gold.Chemscore.DEInternal.Weighted>
3.1068

> <Gold.Chemscore.Rot.Weighted>
2.5600

> <Gold.Chemscore.Internal.Correction.Weighted>
   9.000000E+99

> <Gold.Protein.RotatedTorsions>
[ 6907 6896 6895 6894 ] final   71.03 input  -60.11 | X-H torsion
[ 7974 7965 7964 7962 ] final  -32.34 input  175.53 | X-H torsion
[ 8008 7997 7996 7995 ] final   11.42 input   59.86 | X-H torsion
[ 10167 10162 10161 10158 ] final  146.03 input  -65.29 | X-H torsion
[ 10718 10713 10712 10709 ] final  -52.25 input   66.30 | X-H torsion
[ 10763 10752 10751 10750 ] final   16.39 input  -60.55 | X-H torsion
[ 11005 11000 10999 10996 ] final   88.04 input  -57.11 | X-H torsion

> <Gold.Protein.ActiveResidues>
 VAL166  LYS551  ARG553  GLY616  TRP617  ASP618  TYR619  PRO620  LYS621  CYS622 
 ASP623  PHE694  ASN695  SER759  ASP760  ASP761  ALA762  ILE779  LEU786  VAL792 
 PHE793  MET794  SER795  GLU796  ALA797  LYS798  CYS799  TRP800  GLU811  SER814 

> <Gold.Protein.RotatedAtoms>
  152.4785  134.4781  159.9656 H   0  0  0  0  0  0  0  0  0  0  0  0  # atno 6907 bound_to 6896
  151.4792  133.3544  159.2843 H   0  0  0  0  0  0  0  0  0  0  0  0  # atno 6908 bound_to 6896
  150.8841  134.8262  159.7307 H   0  0  0  0  0  0  0  0  0  0  0  0  # atno 6909 bound_to 6896
  146.0997  140.5780  142.8826 H   0  0  0  0  0  0  0  0  0  0  0  0  # atno 7974 bound_to 7965
  154.8067  140.2861  155.5883 H   0  0  0  0  0  0  0  0  0  0  0  0  # atno 8008 bound_to 7997
  156.2983  140.2576  156.2876 H   0  0  0  0  0  0  0  0  0  0  0  0  # atno 8009 bound_to 7997
  154.9495  140.0379  157.2126 H   0  0  0  0  0  0  0  0  0  0  0  0  # atno 8010 bound_to 7997
  139.4915  144.5859  151.6779 H   0  0  0  0  0  0  0  0  0  0  0  0  # atno 10167 bound_to 10162
  156.1638  130.4149  149.9752 H   0  0  0  0  0  0  0  0  0  0  0  0  # atno 10718 bound_to 10713
  153.1435  135.6764  153.8990 H   0  0  0  0  0  0  0  0  0  0  0  0  # atno 10763 bound_to 10752
  153.8439  135.3102  155.3429 H   0  0  0  0  0  0  0  0  0  0  0  0  # atno 10764 bound_to 10752
  154.7807  135.4890  153.9922 H   0  0  0  0  0  0  0  0  0  0  0  0  # atno 10765 bound_to 10752
  139.8905  134.8462  156.2944 H   0  0  0  0  0  0  0  0  0  0  0  0  # atno 11005 bound_to 11000
  144.7423  140.4976  143.6860 LP  0  0  0  0  0  0  0  0  0  0  0  0  # atno 17320 bound_to 7965
  145.5878  139.1493  143.3199 LP  0  0  0  0  0  0  0  0  0  0  0  0  # atno 17321 bound_to 7965
  140.5475  144.0479  150.6113 LP  0  0  0  0  0  0  0  0  0  0  0  0  # atno 17342 bound_to 10162
  140.3522  143.2956  152.0475 LP  0  0  0  0  0  0  0  0  0  0  0  0  # atno 17343 bound_to 10162
  156.7573  130.9138  151.3640 LP  0  0  0  0  0  0  0  0  0  0  0  0  # atno 17370 bound_to 10713
  157.6752  130.9088  150.0134 LP  0  0  0  0  0  0  0  0  0  0  0  0  # atno 17371 bound_to 10713
  140.9955  133.7183  156.0879 LP  0  0  0  0  0  0  0  0  0  0  0  0  # atno 17394 bound_to 11000
  140.7568  134.3983  157.5532 LP  0  0  0  0  0  0  0  0  0  0  0  0  # atno 17395 bound_to 11000

$$$$
