AV-unprocessed.smi:3036|AV-procd|sdf|11584|dock8
  -GOLD-   2272016553D 1   1.00000     0.00000
 Structure written by MMmdl.
 41 42  0  0  0  0  0  0  0  0  1 V2000
  146.5281  132.7056  154.5405 C   0  0  0  0  0  0  0  0  0  0  0  0
  147.1355  133.5074  153.3759 C   0  0  2  0  0  0  0  0  0  0  0  0
  147.2397  132.6394  152.1054 C   0  0  0  0  0  0  0  0  0  0  0  0
  146.0311  132.6723  151.2995 N   0  0  0  0  0  0  0  0  0  0  0  0
  145.7796  132.0280  150.1063 C   0  0  0  0  0  0  0  0  0  0  0  0
  144.5071  132.3505  149.7305 C   0  0  0  0  0  0  0  0  0  0  0  0
  144.0525  133.2037  150.7747 C   0  0  0  0  0  0  0  0  0  0  0  0
  144.9652  133.3913  151.7141 N   0  0  0  0  0  0  0  0  0  0  0  0
  148.4693  133.9756  153.7384 N   0  0  0  0  0  0  0  0  0  0  0  0
  148.4993  134.5450  155.0809 C   0  0  0  0  0  0  0  0  0  0  0  0
  148.7917  136.0595  155.0425 C   0  0  0  0  0  0  0  0  0  0  0  0
  150.2857  136.4387  154.9901 C   0  0  0  0  0  0  0  0  0  0  0  0
  151.1242  135.6288  155.3896 O   0  0  0  0  0  0  0  0  0  0  0  0
  150.6375  137.6568  154.5115 N   0  0  0  0  0  0  0  0  0  0  0  0
  152.0286  138.1125  154.4274 C   0  0  0  0  0  0  0  0  0  0  0  0
  152.2131  139.2991  155.3900 C   0  0  0  0  0  0  0  0  0  0  0  0
  151.2986  140.3375  155.0482 O   0  0  0  0  0  0  0  0  0  0  0  0
  149.9369  139.9194  155.0972 C   0  0  0  0  0  0  0  0  0  0  0  0
  149.7189  138.7370  154.1353 C   0  0  0  0  0  0  0  0  0  0  0  0
  145.5531  132.3027  154.2657 H   0  0  0  0  0  0  0  0  0  0  0  0
  146.3803  133.3192  155.4288 H   0  0  0  0  0  0  0  0  0  0  0  0
  147.1655  131.8652  154.8191 H   0  0  0  0  0  0  0  0  0  0  0  0
  146.4952  134.3633  153.1568 H   0  0  0  0  0  0  0  0  0  0  0  0
  148.0823  132.9576  151.4895 H   0  0  0  0  0  0  0  0  0  0  0  0
  147.4303  131.5999  152.3765 H   0  0  0  0  0  0  0  0  0  0  0  0
  146.5191  131.4019  149.6289 H   0  0  0  0  0  0  0  0  0  0  0  0
  143.9802  132.0249  148.8460 H   0  0  0  0  0  0  0  0  0  0  0  0
  143.0924  133.6874  150.8784 H   0  0  0  0  0  0  0  0  0  0  0  0
  148.7584  134.6865  153.0818 H   0  0  0  0  0  0  0  0  0  0  0  0
  147.5342  134.3734  155.5593 H   0  0  0  0  0  0  0  0  0  0  0  0
  149.2486  134.0452  155.6943 H   0  0  0  0  0  0  0  0  0  0  0  0
  148.2831  136.4859  154.1770 H   0  0  0  0  0  0  0  0  0  0  0  0
  148.3559  136.5230  155.9282 H   0  0  0  0  0  0  0  0  0  0  0  0
  152.7497  137.3296  154.6652 H   0  0  0  0  0  0  0  0  0  0  0  0
  152.2464  138.4206  153.4037 H   0  0  0  0  0  0  0  0  0  0  0  0
  152.0570  138.9890  156.4245 H   0  0  0  0  0  0  0  0  0  0  0  0
  153.2295  139.6870  155.3222 H   0  0  0  0  0  0  0  0  0  0  0  0
  149.6679  139.6442  156.1184 H   0  0  0  0  0  0  0  0  0  0  0  0
  149.3009  140.7585  154.8146 H   0  0  0  0  0  0  0  0  0  0  0  0
  149.9286  139.0446  153.1098 H   0  0  0  0  0  0  0  0  0  0  0  0
  148.6688  138.4518  154.1521 H   0  0  0  0  0  0  0  0  0  0  0  0
  1  2  1  0  0  0  0
  1 20  1  0  0  0  0
  1 21  1  0  0  0  0
  1 22  1  0  0  0  0
  2  3  1  0  0  0  0
  2  9  1  0  0  0  0
  2 23  1  0  0  0  0
  3  4  1  0  0  0  0
  3 24  1  0  0  0  0
  3 25  1  0  0  0  0
  4  8  1  0  0  0  0
  4  5  1  0  0  0  0
  5  6  2  0  0  0  0
  5 26  1  0  0  0  0
  6  7  1  0  0  0  0
  6 27  1  0  0  0  0
  7  8  2  0  0  0  0
  7 28  1  0  0  0  0
  9 10  1  0  0  0  0
  9 29  1  0  0  0  0
 10 11  1  0  0  0  0
 10 30  1  0  0  0  0
 10 31  1  0  0  0  0
 11 12  1  0  0  0  0
 11 32  1  0  0  0  0
 11 33  1  0  0  0  0
 12 13  2  0  0  0  0
 12 14  1  0  0  0  0
 14 19  1  0  0  0  0
 14 15  1  0  0  0  0
 15 16  1  0  0  0  0
 15 34  1  0  0  0  0
 15 35  1  0  0  0  0
 16 17  1  0  0  0  0
 16 36  1  0  0  0  0
 16 37  1  0  0  0  0
 17 18  1  0  0  0  0
 18 19  1  0  0  0  0
 18 38  1  0  0  0  0
 18 39  1  0  0  0  0
 19 40  1  0  0  0  0
 19 41  1  0  0  0  0
M  END
> <s_m_source_file>
AV-unprocessed.smi

> <i_m_source_file_index>
3036

> <i_lp_mmshare_version>
43012

> <i_f3d_flags>
0

> <s_epik_input>
bjFbY0hdW2NIXVtjSF1uMVtDSDJdW0NAQEhdKFtDSDNdKVtOSF1bQ0gyXVtDSDJdQyg9TylOMltDSDJdW0NIMl1PW0NIMl1bQ0gyXTI=

> <s_epik_cmdline>
J2VwaWtfcHl0aG9uJywgJy1waCcsICc3LjAnLCAnLXRuJywgJzgnLCAnLW1hJywgJzIwMCcsICctbWV0YWxfYmluZGluZycsICctaW1hZScsICc8aW5maWxlLm1hZT4nLCAnLW9tYWUnLCAnPG91dGZpbGUubWFlPic=

> <r_lp_tautomer_probability>
1

> <r_epik_Ionization_Penalty>
2.55703

> <r_epik_Ionization_Penalty_Charging>
0

> <r_epik_Ionization_Penalty_Neutral>
2.55703

> <r_epik_State_Penalty>
2.726

> <r_epik_Charging_Adjusted_Penalty>
2.726

> <i_epik_Tot_Q>
0

> <i_epik_Tot_abs_Q>
0

> <r_epik_Metal_State_Penalty>
2.72597

> <b_epik_Metal_Only>
0

> <s_lp_Force_Field>
OPLS_2005

> <r_lp_Energy>
22.7119

> <b_lp_Chiralities_Consistent>
1

> <s_lp_Variant>
AV-unprocessed.smi:3036-3

> <Gold.Version>
5.8.1

> <Gold.Id.Protein>
6NUR|6NUR_protein|mol2

> <Gold.PLP.Fitness>
48.2780

> <Gold.PLP.PLP>
-36.0077

> <Gold.PLP.part.hbond>
-3.0000

> <Gold.PLP.part.metal>
0.0000

> <Gold.PLP.part.buried>
-2.9586

> <Gold.PLP.part.nonpolar>
-30.5178

> <Gold.PLP.part.repulsive>
0.2429

> <Gold.PLP.ligand.clash>
0.0093

> <Gold.PLP.ligand.torsion>
1.2612

> <Gold.PLP.Chemscore.Hbond>
2.9000

> <Gold.PLP.Chemscore.CHOScore>
2.0000

> <Gold.PLP.Chemscore.Metal>
0.0000

> <Gold.Chemscore.Hbonds>
donor molecule, donor type, donor heavy atom, donor atom, acceptor molecule, acceptor atom, score
      L1  H     9    29       P1  7948  0.90
      P1  H  7989  7998       L1    17  1.00
      P1  H 10752 10764       L1    13  1.00
      L1  C     5    26       P1 10747  0.88
      L1  C     7    28       P1 10186  0.89

> <Gold.PLP.Chemscore.Internal.Correction>
0.1019

> <Gold.Rescore>
     Score         DG    S(hbond)    S(metal)    S(lipo)     H(rot)  DE(clash)    DE(int)     intcor
     15.00     -16.22       2.00        0.00      78.35       1.99       0.07       1.15       ----

> <Gold.Chemscore.Fitness>
14.9963

> <Gold.Chemscore.DG>
-16.2175

> <Gold.Chemscore.ZeroCoef>
-5.4800

> <Gold.Chemscore.Hbond>
1.9956

> <Gold.Chemscore.Metal>
0.0000

> <Gold.Chemscore.Lipo>
78.3474

> <Gold.Chemscore.Internal_Hbond>
0.0000

> <Gold.Chemscore.DEClash>
0.0689

> <Gold.Chemscore.DEInternal>
1.1523

> <Gold.Chemscore.Rot>
1.9900

> <Gold.Chemscore.Internal.Correction>
   9.000000E+99

> <Gold.Chemscore.Hbonds>
donor molecule, donor type, donor heavy atom, donor atom, acceptor molecule, acceptor atom, score
      L1  H     9    29       P1  7948  0.18
      P1  H  7989  7998       L1    17  0.47
      P1  H 10752 10764       L1    13  0.93

> <Gold.Chemscore.Hbond.Weighted>
-6.6652

> <Gold.Chemscore.Metal.Weighted>
-0.0000

> <Gold.Chemscore.Lipo.Weighted>
-9.1666

> <Gold.Chemscore.Internal_Hbond.Weighted>
0.0000

> <Gold.Chemscore.DEClash.Weighted>
0.0689

> <Gold.Chemscore.DEInternal.Weighted>
1.1523

> <Gold.Chemscore.Rot.Weighted>
5.0944

> <Gold.Chemscore.Internal.Correction.Weighted>
   9.000000E+99

> <Gold.Protein.RotatedTorsions>
[ 6907 6896 6895 6894 ] final   84.25 input  -60.11 | X-H torsion
[ 7974 7965 7964 7962 ] final  101.71 input  175.53 | X-H torsion
[ 8008 7997 7996 7995 ] final   99.52 input   59.86 | X-H torsion
[ 10167 10162 10161 10158 ] final   29.96 input  -65.29 | X-H torsion
[ 10718 10713 10712 10709 ] final  -23.56 input   66.30 | X-H torsion
[ 10763 10752 10751 10750 ] final  -35.82 input  -60.55 | X-H torsion
[ 11005 11000 10999 10996 ] final  142.00 input  -57.11 | X-H torsion

> <Gold.Protein.ActiveResidues>
 VAL166  LYS551  ARG553  GLY616  TRP617  ASP618  TYR619  PRO620  LYS621  CYS622 
 ASP623  PHE694  ASN695  SER759  ASP760  ASP761  ALA762  ILE779  LEU786  VAL792 
 PHE793  MET794  SER795  GLU796  ALA797  LYS798  CYS799  TRP800  GLU811  SER814 

> <Gold.Protein.RotatedAtoms>
  152.5347  134.2770  159.8992 H   0  0  0  0  0  0  0  0  0  0  0  0  # atno 6907 bound_to 6896
  151.2725  133.4241  159.2630 H   0  0  0  0  0  0  0  0  0  0  0  0  # atno 6908 bound_to 6896
  151.0355  134.9585  159.8190 H   0  0  0  0  0  0  0  0  0  0  0  0  # atno 6909 bound_to 6896
  145.3687  139.2402  143.3467 H   0  0  0  0  0  0  0  0  0  0  0  0  # atno 7974 bound_to 7965
  156.1113  140.3227  155.8076 H   0  0  0  0  0  0  0  0  0  0  0  0  # atno 8008 bound_to 7997
  155.4668  140.0543  157.3001 H   0  0  0  0  0  0  0  0  0  0  0  0  # atno 8009 bound_to 7997
  154.4762  140.2033  155.9887 H   0  0  0  0  0  0  0  0  0  0  0  0  # atno 8010 bound_to 7997
  140.4720  144.0748  150.6240 H   0  0  0  0  0  0  0  0  0  0  0  0  # atno 10167 bound_to 10162
  156.4895  130.4563  149.6764 H   0  0  0  0  0  0  0  0  0  0  0  0  # atno 10718 bound_to 10713
  153.8695  135.6832  153.4775 H   0  0  0  0  0  0  0  0  0  0  0  0  # atno 10763 bound_to 10752
  153.1296  135.4704  154.9325 H   0  0  0  0  0  0  0  0  0  0  0  0  # atno 10764 bound_to 10752
  154.7721  135.3242  154.8118 H   0  0  0  0  0  0  0  0  0  0  0  0  # atno 10765 bound_to 10752
  140.0444  134.9288  157.0903 H   0  0  0  0  0  0  0  0  0  0  0  0  # atno 11005 bound_to 11000
  146.2895  140.4334  142.8745 LP  0  0  0  0  0  0  0  0  0  0  0  0  # atno 17320 bound_to 7965
  144.8592  140.7115  143.6118 LP  0  0  0  0  0  0  0  0  0  0  0  0  # atno 17321 bound_to 7965
  140.3965  143.2725  151.9999 LP  0  0  0  0  0  0  0  0  0  0  0  0  # atno 17342 bound_to 10162
  139.4820  144.6034  151.7565 LP  0  0  0  0  0  0  0  0  0  0  0  0  # atno 17343 bound_to 10162
  156.3441  130.7397  151.2347 LP  0  0  0  0  0  0  0  0  0  0  0  0  # atno 17370 bound_to 10713
  157.7475  131.0395  150.4555 LP  0  0  0  0  0  0  0  0  0  0  0  0  # atno 17371 bound_to 10713
  140.4017  134.2075  155.7163 LP  0  0  0  0  0  0  0  0  0  0  0  0  # atno 17394 bound_to 11000
  141.1899  133.8228  157.0938 LP  0  0  0  0  0  0  0  0  0  0  0  0  # atno 17395 bound_to 11000

$$$$
