AV-unprocessed.smi:1464|AV-procd|sdf|5948|dock8
  -GOLD-   22720 6 33D 1   1.00000     0.00000
 Structure written by MMmdl.
 41 42  0  0  0  0  0  0  0  0  1 V2000
  151.7188  144.8841  159.2518 C   0  0  0  0  0  0  0  0  0  0  0  0
  152.3879  143.5251  158.9729 C   0  0  1  0  0  0  0  0  0  0  0  0
  152.8099  142.8766  160.3063 C   0  0  0  0  0  0  0  0  0  0  0  0
  153.5147  141.5333  160.0900 C   0  0  0  0  0  0  0  0  0  0  0  0
  152.6156  140.5733  159.3062 C   0  0  0  0  0  0  0  0  0  0  0  0
  152.1815  141.1815  157.9583 C   0  0  1  0  0  0  0  0  0  0  0  0
  151.2863  140.2466  157.2783 N   0  0  0  0  0  0  0  0  0  0  0  0
  151.4622  139.7573  156.0413 C   0  0  0  0  0  0  0  0  0  0  0  0
  152.4155  140.0621  155.3230 O   0  0  0  0  0  0  0  0  0  0  0  0
  150.3786  138.7889  155.5450 C   0  0  0  0  0  0  0  0  0  0  0  0
  149.2803  139.4542  154.8290 N   0  0  0  0  0  0  0  0  0  0  0  0
  149.3766  140.8374  154.8030 N   0  0  0  0  0  0  0  0  0  0  0  0
  148.4765  141.5350  154.1965 C   0  0  0  0  0  0  0  0  0  0  0  0
  148.6117  142.9016  154.1941 O   0  0  0  0  0  0  0  0  0  0  0  0
  147.3559  140.9009  153.5375 C   0  0  0  0  0  0  0  0  0  0  0  0
  147.2679  139.5532  153.5726 C   0  0  0  0  0  0  0  0  0  0  0  0
  148.2703  138.7315  154.2535 C   0  0  0  0  0  0  0  0  0  0  0  0
  148.2128  137.5030  154.3055 O   0  0  0  0  0  0  0  0  0  0  0  0
  151.4942  142.5627  158.1392 C   0  0  2  0  0  0  0  0  0  0  0  0
  151.1084  143.1719  156.7729 C   0  0  0  0  0  0  0  0  0  0  0  0
  148.7325  143.1431  155.0995 H   0  0  0  0  0  0  0  0  0  0  0  0
  150.7532  144.7579  159.7424 H   0  0  0  0  0  0  0  0  0  0  0  0
  151.5609  145.4557  158.3378 H   0  0  0  0  0  0  0  0  0  0  0  0
  152.3410  145.5003  159.9016 H   0  0  0  0  0  0  0  0  0  0  0  0
  153.2968  143.7203  158.4014 H   0  0  0  0  0  0  0  0  0  0  0  0
  153.4746  143.5460  160.8537 H   0  0  0  0  0  0  0  0  0  0  0  0
  151.9332  142.7297  160.9388 H   0  0  0  0  0  0  0  0  0  0  0  0
  154.4505  141.6878  159.5509 H   0  0  0  0  0  0  0  0  0  0  0  0
  153.7790  141.0929  161.0518 H   0  0  0  0  0  0  0  0  0  0  0  0
  153.1452  139.6338  159.1425 H   0  0  0  0  0  0  0  0  0  0  0  0
  151.7361  140.3312  159.9047 H   0  0  0  0  0  0  0  0  0  0  0  0
  153.0727  141.3318  157.3457 H   0  0  0  0  0  0  0  0  0  0  0  0
  150.4719  139.9452  157.7934 H   0  0  0  0  0  0  0  0  0  0  0  0
  150.8329  138.0315  154.9031 H   0  0  0  0  0  0  0  0  0  0  0  0
  149.9920  138.2458  156.4093 H   0  0  0  0  0  0  0  0  0  0  0  0
  146.6122  141.4996  153.0324 H   0  0  0  0  0  0  0  0  0  0  0  0
  146.4363  139.0663  153.0848 H   0  0  0  0  0  0  0  0  0  0  0  0
  150.5705  142.4026  158.6980 H   0  0  0  0  0  0  0  0  0  0  0  0
  151.9941  143.4065  156.1819 H   0  0  0  0  0  0  0  0  0  0  0  0
  150.5289  144.0872  156.8858 H   0  0  0  0  0  0  0  0  0  0  0  0
  150.4908  142.4938  156.1844 H   0  0  0  0  0  0  0  0  0  0  0  0
  1  2  1  0  0  0  0
  1 22  1  0  0  0  0
  1 23  1  0  0  0  0
  1 24  1  0  0  0  0
  2 19  1  0  0  0  0
  2  3  1  0  0  0  0
  2 25  1  0  0  0  0
  3  4  1  0  0  0  0
  3 26  1  0  0  0  0
  3 27  1  0  0  0  0
  4  5  1  0  0  0  0
  4 28  1  0  0  0  0
  4 29  1  0  0  0  0
  5  6  1  0  0  0  0
  5 30  1  0  0  0  0
  5 31  1  0  0  0  0
  6  7  1  0  0  0  0
  6 19  1  0  0  0  0
  6 32  1  0  0  0  0
  7  8  1  0  0  0  0
  7 33  1  0  0  0  0
  8  9  2  0  0  0  0
  8 10  1  0  0  0  0
 10 34  1  0  0  0  0
 10 35  1  0  0  0  0
 10 11  1  0  0  0  0
 11 12  1  0  0  0  0
 11 17  1  0  0  0  0
 12 13  2  0  0  0  0
 13 14  1  0  0  0  0
 13 15  1  0  0  0  0
 14 21  1  0  0  0  0
 15 36  1  0  0  0  0
 15 16  2  0  0  0  0
 16 37  1  0  0  0  0
 16 17  1  0  0  0  0
 17 18  2  0  0  0  0
 19 20  1  0  0  0  0
 19 38  1  0  0  0  0
 20 39  1  0  0  0  0
 20 40  1  0  0  0  0
 20 41  1  0  0  0  0
M  END
> <s_m_source_file>
AV-unprocessed.smi

> <i_m_source_file_index>
1464

> <i_lp_mmshare_version>
43012

> <i_f3d_flags>
0

> <s_epik_input>
W0NIM11bQ0BASF0xW0NIMl1bQ0gyXVtDSDJdW0NASF0oW0NASF0xW0NIM10pW05IXUMoPU8pW0NIMl1uMltuSF1jKD1PKVtjSF1bY0hdYzI9Tw==

> <s_epik_cmdline>
J2VwaWtfcHl0aG9uJywgJy1waCcsICc3LjAnLCAnLXRuJywgJzgnLCAnLW1hJywgJzIwMCcsICctbWV0YWxfYmluZGluZycsICctaW1hZScsICc8aW5maWxlLm1hZT4nLCAnLW9tYWUnLCAnPG91dGZpbGUubWFlPic=

> <r_lp_tautomer_probability>
0.9996

> <r_epik_Ionization_Penalty>
2.10335

> <r_epik_Ionization_Penalty_Charging>
3.98079e-08

> <r_epik_Ionization_Penalty_Neutral>
2.10335

> <r_epik_State_Penalty>
1.67957

> <r_epik_Charging_Adjusted_Penalty>
1.67957

> <i_epik_Tot_Q>
0

> <i_epik_Tot_abs_Q>
0

> <r_epik_Metal_State_Penalty>
1.67957

> <b_epik_Metal_Only>
0

> <s_lp_Force_Field>
OPLS_2005

> <r_lp_Energy>
24.139

> <b_lp_Chiralities_Consistent>
1

> <s_lp_Variant>
AV-unprocessed.smi:1464-14

> <Gold.Version>
5.8.1

> <Gold.Id.Protein>
6NUR|6NUR_protein|mol2

> <Gold.PLP.Fitness>
46.0595

> <Gold.PLP.PLP>
-39.6042

> <Gold.PLP.part.hbond>
-4.1288

> <Gold.PLP.part.metal>
0.0000

> <Gold.PLP.part.buried>
-1.4992

> <Gold.PLP.part.nonpolar>
-34.7098

> <Gold.PLP.part.repulsive>
2.0434

> <Gold.PLP.ligand.clash>
0.0000

> <Gold.PLP.ligand.torsion>
0.4290

> <Gold.PLP.Chemscore.Hbond>
2.4353

> <Gold.PLP.Chemscore.CHOScore>
0.0000

> <Gold.PLP.Chemscore.Metal>
0.0000

> <Gold.Chemscore.Hbonds>
donor molecule, donor type, donor heavy atom, donor atom, acceptor molecule, acceptor atom, score
      L1  H    14    21       P1  8028  0.46
      P1  H  7989  7998       L1     9  0.49
      P1  H  7997  8010       L1     9  0.83
      P1  H  8022  8030       L1    14  0.65

> <Gold.PLP.Chemscore.Internal.Correction>
0.0073

> <Gold.Rescore>
     Score         DG    S(hbond)    S(metal)    S(lipo)     H(rot)  DE(clash)    DE(int)     intcor
     16.27     -17.64       1.72        0.00     103.33       2.22       0.95       0.42       ----

> <Gold.Chemscore.Fitness>
16.2732

> <Gold.Chemscore.DG>
-17.6396

> <Gold.Chemscore.ZeroCoef>
-5.4800

> <Gold.Chemscore.Hbond>
1.7245

> <Gold.Chemscore.Metal>
0.0000

> <Gold.Chemscore.Lipo>
103.3250

> <Gold.Chemscore.Internal_Hbond>
0.0000

> <Gold.Chemscore.DEClash>
0.9455

> <Gold.Chemscore.DEInternal>
0.4209

> <Gold.Chemscore.Rot>
2.2224

> <Gold.Chemscore.Internal.Correction>
   9.000000E+99

> <Gold.Chemscore.Hbonds>
donor molecule, donor type, donor heavy atom, donor atom, acceptor molecule, acceptor atom, score
      L1  H    14    21       P1  8028  0.48
      P1  H  7989  7998       L1     9  0.33
      P1  H  7997  8010       L1     9  0.82
      P1  H  8022  8030       L1    14  0.06

> <Gold.Chemscore.Hbond.Weighted>
-5.7599

> <Gold.Chemscore.Metal.Weighted>
-0.0000

> <Gold.Chemscore.Lipo.Weighted>
-12.0890

> <Gold.Chemscore.Internal_Hbond.Weighted>
0.0000

> <Gold.Chemscore.DEClash.Weighted>
0.9455

> <Gold.Chemscore.DEInternal.Weighted>
0.4209

> <Gold.Chemscore.Rot.Weighted>
5.6893

> <Gold.Chemscore.Internal.Correction.Weighted>
   9.000000E+99

> <Gold.Protein.RotatedTorsions>
[ 6907 6896 6895 6894 ] final  -55.35 input  -60.11 | X-H torsion
[ 7974 7965 7964 7962 ] final  -28.04 input  175.53 | X-H torsion
[ 8008 7997 7996 7995 ] final   94.19 input   59.86 | X-H torsion
[ 10167 10162 10161 10158 ] final   12.51 input  -65.29 | X-H torsion
[ 10718 10713 10712 10709 ] final   56.64 input   66.30 | X-H torsion
[ 10763 10752 10751 10750 ] final   15.53 input  -60.55 | X-H torsion
[ 11005 11000 10999 10996 ] final -147.20 input  -57.11 | X-H torsion

> <Gold.Protein.ActiveResidues>
 VAL166  LYS551  ARG553  GLY616  TRP617  ASP618  TYR619  PRO620  LYS621  CYS622 
 ASP623  PHE694  ASN695  SER759  ASP760  ASP761  ALA762  ILE779  LEU786  VAL792 
 PHE793  MET794  SER795  GLU796  ALA797  LYS798  CYS799  TRP800  GLU811  SER814 

> <Gold.Protein.RotatedAtoms>
  150.8259  134.7490  159.6812 H   0  0  0  0  0  0  0  0  0  0  0  0  # atno 6907 bound_to 6896
  152.4370  134.5663  159.9918 H   0  0  0  0  0  0  0  0  0  0  0  0  # atno 6908 bound_to 6896
  151.5836  133.3337  159.3049 H   0  0  0  0  0  0  0  0  0  0  0  0  # atno 6909 bound_to 6896
  146.1316  140.5230  142.8691 H   0  0  0  0  0  0  0  0  0  0  0  0  # atno 7974 bound_to 7965
  156.0552  140.3303  155.7397 H   0  0  0  0  0  0  0  0  0  0  0  0  # atno 8008 bound_to 7997
  155.5540  140.0613  157.2861 H   0  0  0  0  0  0  0  0  0  0  0  0  # atno 8009 bound_to 7997
  154.4454  140.1889  156.0704 H   0  0  0  0  0  0  0  0  0  0  0  0  # atno 8010 bound_to 7997
  140.6063  143.8501  150.7017 H   0  0  0  0  0  0  0  0  0  0  0  0  # atno 10167 bound_to 10162
  157.5448  130.8723  149.8875 H   0  0  0  0  0  0  0  0  0  0  0  0  # atno 10718 bound_to 10713
  153.1516  135.6779  153.8874 H   0  0  0  0  0  0  0  0  0  0  0  0  # atno 10763 bound_to 10752
  153.8298  135.3119  155.3419 H   0  0  0  0  0  0  0  0  0  0  0  0  # atno 10764 bound_to 10752
  154.7866  135.4858  154.0047 H   0  0  0  0  0  0  0  0  0  0  0  0  # atno 10765 bound_to 10752
  140.7741  134.3155  157.5066 H   0  0  0  0  0  0  0  0  0  0  0  0  # atno 11005 bound_to 11000
  144.7696  140.5609  143.6679 LP  0  0  0  0  0  0  0  0  0  0  0  0  # atno 17320 bound_to 7965
  145.5248  139.1476  143.3532 LP  0  0  0  0  0  0  0  0  0  0  0  0  # atno 17321 bound_to 7965
  140.2059  143.3922  152.1756 LP  0  0  0  0  0  0  0  0  0  0  0  0  # atno 17342 bound_to 10162
  139.5327  144.7177  151.4998 LP  0  0  0  0  0  0  0  0  0  0  0  0  # atno 17343 bound_to 10162
  156.0526  130.3714  150.1164 LP  0  0  0  0  0  0  0  0  0  0  0  0  # atno 17370 bound_to 10713
  156.9342  130.9723  151.3528 LP  0  0  0  0  0  0  0  0  0  0  0  0  # atno 17371 bound_to 10713
  139.8751  134.9279  156.3436 LP  0  0  0  0  0  0  0  0  0  0  0  0  # atno 17394 bound_to 11000
  140.9546  133.7429  156.0317 LP  0  0  0  0  0  0  0  0  0  0  0  0  # atno 17395 bound_to 11000

$$$$
