AV-unprocessed.smi:1703|AV-procd|sdf|6859|dock4
  -GOLD-   22720 8 43D 1   1.00000     0.00000
 Structure written by MMmdl.
 49 51  0  0  0  0  0  0  0  0  2 V2000
  146.9262  136.2059  156.0983 C   0  0  0  0  0  0  0  0  0  0  0  0
  147.5255  137.0515  154.9693 C   0  0  2  0  0  0  0  0  0  0  0  0
  149.0404  137.2606  155.1473 C   0  0  0  0  0  0  0  0  0  0  0  0
  149.5648  138.1537  154.0895 N   0  3  2  0  0  0  0  0  0  0  0  0
  151.0412  138.2996  154.1412 C   0  0  0  0  0  0  0  0  0  0  0  0
  151.4916  139.2890  155.2379 C   0  0  2  0  0  0  0  0  0  0  0  0
  152.9007  139.3931  155.2089 O   0  0  0  0  0  0  0  0  0  0  0  0
  151.0770  138.8683  156.6619 C   0  0  0  0  0  0  0  0  0  0  0  0
  151.8176  139.5823  157.6938 N   0  0  0  0  0  0  0  0  0  0  0  0
  152.7460  139.1008  158.5600 C   0  0  0  0  0  0  0  0  0  0  0  0
  153.1671  137.6633  158.5722 C   0  0  0  0  0  0  0  0  0  0  0  0
  153.0065  137.0593  159.8376 O   0  0  0  0  0  0  0  0  0  0  0  0
  153.2620  139.9896  159.4093 N   0  0  0  0  0  0  0  0  0  0  0  0
  152.6193  141.1592  159.0550 C   0  0  0  0  0  0  0  0  0  0  0  0
  152.7331  142.4657  159.5816 C   0  0  0  0  0  0  0  0  0  0  0  0
  151.9614  143.5193  159.0493 C   0  0  0  0  0  0  0  0  0  0  0  0
  151.0674  143.2825  157.9852 C   0  0  0  0  0  0  0  0  0  0  0  0
  150.9388  141.9881  157.4457 C   0  0  0  0  0  0  0  0  0  0  0  0
  151.7100  140.9395  157.9818 C   0  0  0  0  0  0  0  0  0  0  0  0
  148.8407  139.4485  154.1064 C   0  0  0  0  0  0  0  0  0  0  0  0
  147.3206  139.2325  153.9756 C   0  0  1  0  0  0  0  0  0  0  0  0
  146.8788  138.8250  152.5587 C   0  0  0  0  0  0  0  0  0  0  0  0
  146.8662  138.3153  154.9710 O   0  0  0  0  0  0  0  0  0  0  0  0
  147.3878  135.2190  156.1383 H   0  0  0  0  0  0  0  0  0  0  0  0
  145.8548  136.0649  155.9530 H   0  0  0  0  0  0  0  0  0  0  0  0
  147.0700  136.6823  157.0686 H   0  0  0  0  0  0  0  0  0  0  0  0
  147.3352  136.5383  154.0265 H   0  0  0  0  0  0  0  0  0  0  0  0
  149.2549  137.6908  156.1271 H   0  0  0  0  0  0  0  0  0  0  0  0
  149.5482  136.2965  155.1011 H   0  0  0  0  0  0  0  0  0  0  0  0
  151.4828  137.3136  154.2906 H   0  0  0  0  0  0  0  0  0  0  0  0
  151.4151  138.6554  153.1798 H   0  0  0  0  0  0  0  0  0  0  0  0
  151.0845  140.2797  155.0406 H   0  0  0  0  0  0  0  0  0  0  0  0
  153.2040  139.1674  154.3423 H   0  0  0  0  0  0  0  0  0  0  0  0
  150.0072  139.0159  156.8060 H   0  0  0  0  0  0  0  0  0  0  0  0
  151.2549  137.8009  156.8018 H   0  0  0  0  0  0  0  0  0  0  0  0
  152.5744  137.1076  157.8445 H   0  0  0  0  0  0  0  0  0  0  0  0
  154.2069  137.5800  158.2568 H   0  0  0  0  0  0  0  0  0  0  0  0
  152.6116  137.6871  160.4233 H   0  0  0  0  0  0  0  0  0  0  0  0
  153.4165  142.6579  160.3954 H   0  0  0  0  0  0  0  0  0  0  0  0
  152.0574  144.5144  159.4584 H   0  0  0  0  0  0  0  0  0  0  0  0
  150.4818  144.0960  157.5822 H   0  0  0  0  0  0  0  0  0  0  0  0
  150.2569  141.8054  156.6287 H   0  0  0  0  0  0  0  0  0  0  0  0
  149.0552  139.9637  155.0441 H   0  0  0  0  0  0  0  0  0  0  0  0
  149.1886  140.1015  153.3066 H   0  0  0  0  0  0  0  0  0  0  0  0
  146.8316  140.1820  154.1958 H   0  0  0  0  0  0  0  0  0  0  0  0
  147.1303  139.6034  151.8380 H   0  0  0  0  0  0  0  0  0  0  0  0
  145.8000  138.6743  152.5162 H   0  0  0  0  0  0  0  0  0  0  0  0
  147.3588  137.9068  152.2217 H   0  0  0  0  0  0  0  0  0  0  0  0
  149.3547  137.7050  153.2089 H   0  0  0  0  0  0  0  0  0  0  0  0
  1  2  1  0  0  0  0
  1 24  1  0  0  0  0
  1 25  1  0  0  0  0
  1 26  1  0  0  0  0
  2 23  1  0  0  0  0
  2  3  1  0  0  0  0
  2 27  1  0  0  0  0
  3  4  1  0  0  0  0
  3 28  1  0  0  0  0
  3 29  1  0  0  0  0
  4  5  1  0  0  0  0
  4 20  1  0  0  0  0
  4 49  1  0  0  0  0
  5  6  1  0  0  0  0
  5 30  1  0  0  0  0
  5 31  1  0  0  0  0
  6  7  1  0  0  0  0
  6  8  1  0  0  0  0
  6 32  1  0  0  0  0
  7 33  1  0  0  0  0
  8  9  1  0  0  0  0
  8 34  1  0  0  0  0
  8 35  1  0  0  0  0
  9 19  1  0  0  0  0
  9 10  1  0  0  0  0
 10 11  1  0  0  0  0
 10 13  2  0  0  0  0
 11 12  1  0  0  0  0
 11 36  1  0  0  0  0
 11 37  1  0  0  0  0
 12 38  1  0  0  0  0
 13 14  1  0  0  0  0
 14 19  2  0  0  0  0
 14 15  1  0  0  0  0
 15 16  2  0  0  0  0
 15 39  1  0  0  0  0
 16 17  1  0  0  0  0
 16 40  1  0  0  0  0
 17 18  2  0  0  0  0
 17 41  1  0  0  0  0
 18 19  1  0  0  0  0
 18 42  1  0  0  0  0
 20 21  1  0  0  0  0
 20 43  1  0  0  0  0
 20 44  1  0  0  0  0
 21 22  1  0  0  0  0
 21 23  1  0  0  0  0
 21 45  1  0  0  0  0
 22 46  1  0  0  0  0
 22 47  1  0  0  0  0
 22 48  1  0  0  0  0
M  CHG  1   4   1
M  END
> <s_m_source_file>
AV-unprocessed.smi

> <i_m_source_file_index>
1703

> <i_lp_mmshare_version>
43012

> <i_f3d_flags>
0

> <s_epik_input>
W0NIM11bQ0BASF0xW0NIMl1OKFtDSDJdW0NASF0oTzEpW0NIM10pW0NIMl1bQ0BIXShbT0hdKVtDSDJdbihjKG4yKVtDSDJdW09IXSljKGMyMylbY0hdW2NIXVtjSF1bY0hdMw==

> <s_epik_cmdline>
J2VwaWtfcHl0aG9uJywgJy1waCcsICc3LjAnLCAnLXRuJywgJzgnLCAnLW1hJywgJzIwMCcsICctbWV0YWxfYmluZGluZycsICctaW1hZScsICc8aW5maWxlLm1hZT4nLCAnLW9tYWUnLCAnPG91dGZpbGUubWFlPic=

> <r_epik_Ionization_Penalty>
0.655661

> <r_epik_Ionization_Penalty_Charging>
0.608065

> <r_epik_Ionization_Penalty_Neutral>
0.0475963

> <r_epik_State_Penalty>
0.695267

> <r_epik_Charging_Adjusted_Penalty>
1.30333

> <i_epik_Tot_Q>
1

> <i_epik_Tot_abs_Q>
1

> <r_epik_Metal_State_Penalty>
0.653591

> <b_epik_Metal_Only>
0

> <s_lp_Force_Field>
OPLS_2005

> <r_lp_Energy>
25.4362

> <b_lp_Chiralities_Consistent>
1

> <s_lp_Variant>
AV-unprocessed.smi:1703-7

> <Gold.Version>
5.8.1

> <Gold.Id.Protein>
6NUR|6NUR_protein|mol2

> <Gold.PLP.Fitness>
49.1163

> <Gold.PLP.PLP>
-37.6869

> <Gold.PLP.part.hbond>
-2.9846

> <Gold.PLP.part.metal>
0.0000

> <Gold.PLP.part.buried>
-4.1279

> <Gold.PLP.part.nonpolar>
-31.0513

> <Gold.PLP.part.repulsive>
0.0873

> <Gold.PLP.ligand.clash>
0.0000

> <Gold.PLP.ligand.torsion>
0.3490

> <Gold.PLP.Chemscore.Hbond>
4.0000

> <Gold.PLP.Chemscore.CHOScore>
0.0000

> <Gold.PLP.Chemscore.Metal>
0.0000

> <Gold.Chemscore.Hbonds>
donor molecule, donor type, donor heavy atom, donor atom, acceptor molecule, acceptor atom, score
      L1  H     4    49       P1  7948  2.00
      P1  H  6896  6907       L1    12  0.47
      P1  H  7997  8009       L1     7  1.00

> <Gold.PLP.Chemscore.Internal.Correction>
0.1274

> <Gold.Rescore>
     Score         DG    S(hbond)    S(metal)    S(lipo)     H(rot)  DE(clash)    DE(int)     intcor
     18.89     -19.52       2.80        0.00     104.86       2.96       0.10       0.53       ----

> <Gold.Chemscore.Fitness>
18.8920

> <Gold.Chemscore.DG>
-19.5216

> <Gold.Chemscore.ZeroCoef>
-5.4800

> <Gold.Chemscore.Hbond>
2.8006

> <Gold.Chemscore.Metal>
0.0000

> <Gold.Chemscore.Lipo>
104.8555

> <Gold.Chemscore.Internal_Hbond>
0.0000

> <Gold.Chemscore.DEClash>
0.0997

> <Gold.Chemscore.DEInternal>
0.5299

> <Gold.Chemscore.Rot>
2.9611

> <Gold.Chemscore.Internal.Correction>
   9.000000E+99

> <Gold.Chemscore.Hbonds>
donor molecule, donor type, donor heavy atom, donor atom, acceptor molecule, acceptor atom, score
      L1  H     4    49       P1  7948  0.93
      P1  H  6896  6907       L1    12  0.33
      P1  H  7997  8009       L1     7  0.45

> <Gold.Chemscore.Hbond.Weighted>
-9.3538

> <Gold.Chemscore.Metal.Weighted>
-0.0000

> <Gold.Chemscore.Lipo.Weighted>
-12.2681

> <Gold.Chemscore.Internal_Hbond.Weighted>
0.0000

> <Gold.Chemscore.DEClash.Weighted>
0.0997

> <Gold.Chemscore.DEInternal.Weighted>
0.5299

> <Gold.Chemscore.Rot.Weighted>
7.5803

> <Gold.Chemscore.Internal.Correction.Weighted>
   9.000000E+99

> <Gold.Protein.RotatedTorsions>
[ 6907 6896 6895 6894 ] final   22.42 input  -60.11 | X-H torsion
[ 7974 7965 7964 7962 ] final   25.01 input  175.53 | X-H torsion
[ 8008 7997 7996 7995 ] final -144.00 input   59.86 | X-H torsion
[ 10167 10162 10161 10158 ] final  135.84 input  -65.29 | X-H torsion
[ 10718 10713 10712 10709 ] final   86.86 input   66.30 | X-H torsion
[ 10763 10752 10751 10750 ] final  164.00 input  -60.55 | X-H torsion
[ 11005 11000 10999 10996 ] final  -37.23 input  -57.11 | X-H torsion

> <Gold.Protein.ActiveResidues>
 VAL166  LYS551  ARG553  GLY616  TRP617  ASP618  TYR619  PRO620  LYS621  CYS622 
 ASP623  PHE694  ASN695  SER759  ASP760  ASP761  ALA762  ILE779  LEU786  VAL792 
 PHE793  MET794  SER795  GLU796  ALA797  LYS798  CYS799  TRP800  GLU811  SER814 

> <Gold.Protein.RotatedAtoms>
  151.9269  135.0274  160.0526 H   0  0  0  0  0  0  0  0  0  0  0  0  # atno 6907 bound_to 6896
  152.2152  133.4937  159.5140 H   0  0  0  0  0  0  0  0  0  0  0  0  # atno 6908 bound_to 6896
  150.6986  134.1332  159.4120 H   0  0  0  0  0  0  0  0  0  0  0  0  # atno 6909 bound_to 6896
  146.1910  139.7525  142.8832 H   0  0  0  0  0  0  0  0  0  0  0  0  # atno 7974 bound_to 7965
  155.5197  140.0590  157.2909 H   0  0  0  0  0  0  0  0  0  0  0  0  # atno 8008 bound_to 7997
  154.4522  140.1954  156.0432 H   0  0  0  0  0  0  0  0  0  0  0  0  # atno 8009 bound_to 7997
  156.0727  140.3258  155.7600 H   0  0  0  0  0  0  0  0  0  0  0  0  # atno 8010 bound_to 7997
  139.5202  144.6496  151.5341 H   0  0  0  0  0  0  0  0  0  0  0  0  # atno 10167 bound_to 10162
  157.6934  131.0232  150.3036 H   0  0  0  0  0  0  0  0  0  0  0  0  # atno 10718 bound_to 10713
  154.3023  135.2759  155.2605 H   0  0  0  0  0  0  0  0  0  0  0  0  # atno 10763 bound_to 10752
  154.5036  135.5801  153.6554 H   0  0  0  0  0  0  0  0  0  0  0  0  # atno 10764 bound_to 10752
  152.9899  135.6164  154.3195 H   0  0  0  0  0  0  0  0  0  0  0  0  # atno 10765 bound_to 10752
  140.9936  133.6992  156.1894 H   0  0  0  0  0  0  0  0  0  0  0  0  # atno 11005 bound_to 11000
  145.3793  141.0355  143.3186 LP  0  0  0  0  0  0  0  0  0  0  0  0  # atno 17320 bound_to 7965
  144.8486  139.5357  143.6867 LP  0  0  0  0  0  0  0  0  0  0  0  0  # atno 17321 bound_to 7965
  140.6295  143.9104  150.6593 LP  0  0  0  0  0  0  0  0  0  0  0  0  # atno 17342 bound_to 10162
  140.2403  143.3669  152.1492 LP  0  0  0  0  0  0  0  0  0  0  0  0  # atno 17343 bound_to 10162
  156.3548  130.3837  149.7299 LP  0  0  0  0  0  0  0  0  0  0  0  0  # atno 17370 bound_to 10713
  156.4765  130.8021  151.3037 LP  0  0  0  0  0  0  0  0  0  0  0  0  # atno 17371 bound_to 10713
  140.7001  134.4573  157.5586 LP  0  0  0  0  0  0  0  0  0  0  0  0  # atno 17394 bound_to 11000
  139.9004  134.8570  156.1921 LP  0  0  0  0  0  0  0  0  0  0  0  0  # atno 17395 bound_to 11000

$$$$
