AV-unprocessed.smi:261|AV-procd|sdf|1985|dock8
  -GOLD-   2262021163D 1   1.00000     0.00000
 Structure written by MMmdl.
 51 54  0  0  0  0  0  0  0  0  1 V2000
  152.9360  143.0380  160.5114 C   0  0  0  0  0  0  0  0  0  0  0  0
  152.2933  143.4319  159.3102 O   0  0  0  0  0  0  0  0  0  0  0  0
  152.1514  142.3745  158.3730 C   0  0  1  0  0  0  0  0  0  0  0  0
  151.6900  141.0601  159.0046 C   0  0  0  0  0  0  0  0  0  0  0  0
  150.9876  140.3058  157.8593 C   0  0  2  0  0  0  0  0  0  0  0  0
  151.9157  139.2795  157.1910 C   0  0  0  0  0  0  0  0  0  0  0  0
  151.5105  138.0074  157.1993 N   0  0  0  0  0  0  0  0  0  0  0  0
  152.9872  139.6187  156.6908 O   0  0  0  0  0  0  0  0  0  0  0  0
  150.6077  141.3516  156.9052 N   0  0  0  0  0  0  0  0  0  0  0  0
  149.3690  141.2765  156.3734 C   0  0  0  0  0  0  0  0  0  0  0  0
  148.3339  141.9306  156.9629 N   0  0  0  0  0  0  0  0  0  0  0  0
  147.1086  141.8495  156.4342 C   0  0  0  0  0  0  0  0  0  0  0  0
  146.7097  141.1846  155.3467 N   0  0  0  0  0  0  0  0  0  0  0  0
  147.7515  140.5305  154.7565 C   0  0  0  0  0  0  0  0  0  0  0  0
  149.1025  140.5248  155.2007 C   0  0  0  0  0  0  0  0  0  0  0  0
  149.8827  139.7502  154.3520 N   0  0  0  0  0  0  0  0  0  0  0  0
  149.0381  139.3189  153.4545 C   0  0  0  0  0  0  0  0  0  0  0  0
  147.7373  139.7390  153.6226 N   0  0  0  0  0  0  0  0  0  0  0  0
  146.5984  139.4123  152.7840 C   0  0  0  0  0  0  0  0  0  0  0  0
  146.7423  138.0325  152.1136 C   0  0  2  0  0  0  0  0  0  0  0  0
  146.5154  138.1302  150.7203 O   0  0  0  0  0  0  0  0  0  0  0  0
  145.8209  136.9664  152.7398 C   0  0  2  0  0  0  0  0  0  0  0  0
  145.8515  135.5757  152.1004 C   0  0  0  0  0  0  0  0  0  0  0  0
  144.5127  135.0239  152.5363 C   0  0  0  0  0  0  0  0  0  0  0  0
  143.6187  136.2581  152.4381 C   0  0  0  0  0  0  0  0  0  0  0  0
  144.4545  137.3737  152.7360 O   0  0  0  0  0  0  0  0  0  0  0  0
  151.0129  142.6601  157.3993 C   0  0  0  0  0  0  0  0  0  0  0  0
  153.0749  142.2216  157.8108 H   0  0  0  0  0  0  0  0  0  0  0  0
  150.1150  139.7800  158.2527 H   0  0  0  0  0  0  0  0  0  0  0  0
  153.0347  143.9002  161.1707 H   0  0  0  0  0  0  0  0  0  0  0  0
  153.9366  142.6507  160.3145 H   0  0  0  0  0  0  0  0  0  0  0  0
  152.3638  142.2765  161.0421 H   0  0  0  0  0  0  0  0  0  0  0  0
  152.5107  140.5015  159.4573 H   0  0  0  0  0  0  0  0  0  0  0  0
  150.9655  141.2677  159.7935 H   0  0  0  0  0  0  0  0  0  0  0  0
  152.0835  137.2922  156.7759 H   0  0  0  0  0  0  0  0  0  0  0  0
  150.6310  137.7656  157.6325 H   0  0  0  0  0  0  0  0  0  0  0  0
  146.3373  142.3955  156.9570 H   0  0  0  0  0  0  0  0  0  0  0  0
  149.3419  138.6747  152.6423 H   0  0  0  0  0  0  0  0  0  0  0  0
  145.7013  139.4384  153.4038 H   0  0  0  0  0  0  0  0  0  0  0  0
  146.4829  140.1955  152.0335 H   0  0  0  0  0  0  0  0  0  0  0  0
  147.7721  137.6943  152.2358 H   0  0  0  0  0  0  0  0  0  0  0  0
  145.6449  138.4722  150.5842 H   0  0  0  0  0  0  0  0  0  0  0  0
  146.0947  136.8535  153.7903 H   0  0  0  0  0  0  0  0  0  0  0  0
  145.8850  135.6321  151.0119 H   0  0  0  0  0  0  0  0  0  0  0  0
  146.6945  134.9716  152.4366 H   0  0  0  0  0  0  0  0  0  0  0  0
  144.1667  134.1955  151.9176 H   0  0  0  0  0  0  0  0  0  0  0  0
  144.5676  134.6800  153.5702 H   0  0  0  0  0  0  0  0  0  0  0  0
  143.2407  136.3723  151.4214 H   0  0  0  0  0  0  0  0  0  0  0  0
  142.7640  136.2083  153.1131 H   0  0  0  0  0  0  0  0  0  0  0  0
  150.1861  143.1529  157.9142 H   0  0  0  0  0  0  0  0  0  0  0  0
  151.3357  143.3076  156.5834 H   0  0  0  0  0  0  0  0  0  0  0  0
  1  2  1  0  0  0  0
  1 30  1  0  0  0  0
  1 31  1  0  0  0  0
  1 32  1  0  0  0  0
  2  3  1  0  0  0  0
  3 28  1  0  0  0  0
  3 27  1  0  0  0  0
  3  4  1  0  0  0  0
  4  5  1  0  0  0  0
  4 33  1  0  0  0  0
  4 34  1  0  0  0  0
  5 29  1  0  0  0  0
  5  6  1  0  0  0  0
  5  9  1  0  0  0  0
  6  7  1  0  0  0  0
  6  8  2  0  0  0  0
  7 35  1  0  0  0  0
  7 36  1  0  0  0  0
  9 10  1  0  0  0  0
  9 27  1  0  0  0  0
 10 15  1  0  0  0  0
 10 11  2  0  0  0  0
 11 12  1  0  0  0  0
 12 13  2  0  0  0  0
 12 37  1  0  0  0  0
 13 14  1  0  0  0  0
 14 18  1  0  0  0  0
 14 15  2  0  0  0  0
 15 16  1  0  0  0  0
 16 17  2  0  0  0  0
 17 18  1  0  0  0  0
 17 38  1  0  0  0  0
 18 19  1  0  0  0  0
 19 20  1  0  0  0  0
 19 39  1  0  0  0  0
 19 40  1  0  0  0  0
 20 21  1  0  0  0  0
 20 22  1  0  0  0  0
 20 41  1  0  0  0  0
 21 42  1  0  0  0  0
 22 26  1  0  0  0  0
 22 23  1  0  0  0  0
 22 43  1  0  0  0  0
 23 24  1  0  0  0  0
 23 44  1  0  0  0  0
 23 45  1  0  0  0  0
 24 25  1  0  0  0  0
 24 46  1  0  0  0  0
 24 47  1  0  0  0  0
 25 26  1  0  0  0  0
 25 48  1  0  0  0  0
 25 49  1  0  0  0  0
 27 50  1  0  0  0  0
 27 51  1  0  0  0  0
M  END
> <s_m_source_file>
AV-unprocessed.smi

> <i_m_source_file_index>
261

> <i_lp_mmshare_version>
43012

> <i_f3d_flags>
0

> <s_epik_input>
W0NIM11PW0NASF0xW0NIMl1bQ0BASF0oQyg9TylbTkgyXSlOKFtDSDJdMSljKG5bY0hdbjIpYyhjMjMpbltjSF1uM1tDSDJdW0NASF0oW09IXSlbQ0BASF00W0NIMl1bQ0gyXVtDSDJdTzQ=

> <s_epik_cmdline>
J2VwaWtfcHl0aG9uJywgJy1waCcsICc3LjAnLCAnLXRuJywgJzgnLCAnLW1hJywgJzIwMCcsICctbWV0YWxfYmluZGluZycsICctaW1hZScsICc8aW5maWxlLm1hZT4nLCAnLW9tYWUnLCAnPG91dGZpbGUubWFlPic=

> <r_lp_tautomer_probability>
1

> <r_epik_Ionization_Penalty>
0.000713824

> <r_epik_Ionization_Penalty_Charging>
0

> <r_epik_Ionization_Penalty_Neutral>
0.000713824

> <r_epik_State_Penalty>
0.000402132

> <r_epik_Charging_Adjusted_Penalty>
0.000402132

> <i_epik_Tot_Q>
0

> <i_epik_Tot_abs_Q>
0

> <r_epik_Metal_State_Penalty>
-0

> <b_epik_Metal_Only>
0

> <s_lp_Force_Field>
OPLS_2005

> <r_lp_Energy>
48.1487

> <b_lp_Chiralities_Consistent>
1

> <s_lp_Variant>
AV-unprocessed.smi:261-3

> <Gold.Version>
5.8.1

> <Gold.Id.Protein>
6NUR|6NUR_protein|mol2

> <Gold.PLP.Fitness>
44.8660

> <Gold.PLP.PLP>
-33.8104

> <Gold.PLP.part.hbond>
-4.0093

> <Gold.PLP.part.metal>
0.0000

> <Gold.PLP.part.buried>
1.5741

> <Gold.PLP.part.nonpolar>
-33.1937

> <Gold.PLP.part.repulsive>
2.5086

> <Gold.PLP.ligand.clash>
0.0000

> <Gold.PLP.ligand.torsion>
1.9281

> <Gold.PLP.Chemscore.Hbond>
3.5038

> <Gold.PLP.Chemscore.CHOScore>
1.3801

> <Gold.PLP.Chemscore.Metal>
0.0000

> <Gold.Chemscore.Hbonds>
donor molecule, donor type, donor heavy atom, donor atom, acceptor molecule, acceptor atom, score
      L1  H    21    42       P1 10171  1.00
      P1  H  7954  7966       L1    21  1.00
      P1  H  7989  7998       L1    16  0.49
      P1  H  7997  8010       L1     8  0.83
      L1  C    17    38       P1  7948  0.95
      L1  C    17    38       P1  7957  0.42

> <Gold.PLP.Chemscore.Internal.Correction>
0.2601

> <Gold.Rescore>
     Score         DG    S(hbond)    S(metal)    S(lipo)     H(rot)  DE(clash)    DE(int)     intcor
     10.04     -15.22       2.88        0.00      79.25       3.57       3.57       1.60       ----

> <Gold.Chemscore.Fitness>
10.0449

> <Gold.Chemscore.DG>
-15.2217

> <Gold.Chemscore.ZeroCoef>
-5.4800

> <Gold.Chemscore.Hbond>
2.8799

> <Gold.Chemscore.Metal>
0.0000

> <Gold.Chemscore.Lipo>
79.2514

> <Gold.Chemscore.Internal_Hbond>
0.0000

> <Gold.Chemscore.DEClash>
3.5738

> <Gold.Chemscore.DEInternal>
1.6030

> <Gold.Chemscore.Rot>
3.5740

> <Gold.Chemscore.Internal.Correction>
   9.000000E+99

> <Gold.Chemscore.Hbonds>
donor molecule, donor type, donor heavy atom, donor atom, acceptor molecule, acceptor atom, score
      L1  H    21    42       P1 10171  0.98
      P1  H  7954  7966       L1    21  0.58
      P1  H  7989  7998       L1    16  0.34
      P1  H  7997  8010       L1     8  0.82

> <Gold.Chemscore.Hbond.Weighted>
-9.6188

> <Gold.Chemscore.Metal.Weighted>
-0.0000

> <Gold.Chemscore.Lipo.Weighted>
-9.2724

> <Gold.Chemscore.Internal_Hbond.Weighted>
0.0000

> <Gold.Chemscore.DEClash.Weighted>
3.5738

> <Gold.Chemscore.DEInternal.Weighted>
1.6030

> <Gold.Chemscore.Rot.Weighted>
9.1495

> <Gold.Chemscore.Internal.Correction.Weighted>
   9.000000E+99

> <Gold.Protein.RotatedTorsions>
[ 6907 6896 6895 6894 ] final -136.48 input  -60.11 | X-H torsion
[ 7974 7965 7964 7962 ] final  105.19 input  175.53 | X-H torsion
[ 8008 7997 7996 7995 ] final   73.59 input   59.86 | X-H torsion
[ 10167 10162 10161 10158 ] final  144.74 input  -65.29 | X-H torsion
[ 10718 10713 10712 10709 ] final -117.69 input   66.30 | X-H torsion
[ 10763 10752 10751 10750 ] final  172.19 input  -60.55 | X-H torsion
[ 11005 11000 10999 10996 ] final  -97.54 input  -57.11 | X-H torsion

> <Gold.Protein.ActiveResidues>
 VAL166  LYS551  ARG553  GLY616  TRP617  ASP618  TYR619  PRO620  LYS621  CYS622 
 ASP623  PHE694  ASN695  SER759  ASP760  ASP761  ALA762  ILE779  LEU786  VAL792 
 PHE793  MET794  SER795  GLU796  ALA797  LYS798  CYS799  TRP800  GLU811  SER814 

> <Gold.Protein.RotatedAtoms>
  151.0106  133.5969  159.2682 H   0  0  0  0  0  0  0  0  0  0  0  0  # atno 6907 bound_to 6896
  151.3122  135.0796  159.9286 H   0  0  0  0  0  0  0  0  0  0  0  0  # atno 6908 bound_to 6896
  152.5298  133.9768  159.7842 H   0  0  0  0  0  0  0  0  0  0  0  0  # atno 6909 bound_to 6896
  145.3229  139.2508  143.3702 H   0  0  0  0  0  0  0  0  0  0  0  0  # atno 7974 bound_to 7965
  155.7860  140.3480  155.5323 H   0  0  0  0  0  0  0  0  0  0  0  0  # atno 8008 bound_to 7997
  155.8682  140.0982  157.1589 H   0  0  0  0  0  0  0  0  0  0  0  0  # atno 8009 bound_to 7997
  154.4016  140.1345  156.4032 H   0  0  0  0  0  0  0  0  0  0  0  0  # atno 8010 bound_to 7997
  139.4940  144.5951  151.6600 H   0  0  0  0  0  0  0  0  0  0  0  0  # atno 10167 bound_to 10162
  156.1052  130.6204  150.9197 H   0  0  0  0  0  0  0  0  0  0  0  0  # atno 10718 bound_to 10713
  154.4226  135.2758  155.1965 H   0  0  0  0  0  0  0  0  0  0  0  0  # atno 10763 bound_to 10752
  154.3905  135.6067  153.5844 H   0  0  0  0  0  0  0  0  0  0  0  0  # atno 10764 bound_to 10752
  152.9833  135.5902  154.4524 H   0  0  0  0  0  0  0  0  0  0  0  0  # atno 10765 bound_to 10752
  141.1375  133.8178  157.0720 H   0  0  0  0  0  0  0  0  0  0  0  0  # atno 11005 bound_to 11000
  146.3075  140.3790  142.8682 LP  0  0  0  0  0  0  0  0  0  0  0  0  # atno 17320 bound_to 7965
  144.8925  140.7541  143.5918 LP  0  0  0  0  0  0  0  0  0  0  0  0  # atno 17321 bound_to 7965
  140.5587  144.0305  150.6159 LP  0  0  0  0  0  0  0  0  0  0  0  0  # atno 17342 bound_to 10162
  140.3384  143.3035  152.0614 LP  0  0  0  0  0  0  0  0  0  0  0  0  # atno 17343 bound_to 10162
  157.6228  131.0928  150.8590 LP  0  0  0  0  0  0  0  0  0  0  0  0  # atno 17370 bound_to 10713
  156.8711  130.5146  149.5297 LP  0  0  0  0  0  0  0  0  0  0  0  0  # atno 17371 bound_to 10713
  140.0505  134.9808  157.1128 LP  0  0  0  0  0  0  0  0  0  0  0  0  # atno 17394 bound_to 11000
  140.3997  134.2096  155.7164 LP  0  0  0  0  0  0  0  0  0  0  0  0  # atno 17395 bound_to 11000

$$$$
