AV-unprocessed.smi:651|AV-procd|sdf|3191|dock7
  -GOLD-   22720 0113D 1   1.00000     0.00000
 Structure written by MMmdl.
 39 40  0  0  0  0  0  0  0  0  2 V2000
  140.1815  140.3172  153.9229 C   0  0  0  0  0  0  0  0  0  0  0  0
  140.4819  138.8392  153.7901 C   0  0  0  0  0  0  0  0  0  0  0  0
  139.5415  137.8445  154.1336 C   0  0  0  0  0  0  0  0  0  0  0  0
  139.8877  136.4860  153.9785 C   0  0  0  0  0  0  0  0  0  0  0  0
  141.1666  136.1482  153.4831 C   0  0  0  0  0  0  0  0  0  0  0  0
  141.5672  134.6949  153.2966 C   0  0  0  0  0  0  0  0  0  0  0  0
  142.9413  134.6064  152.6325 C   0  0  0  0  0  0  0  0  0  0  0  0
  143.9253  135.0713  153.2062 O   0  0  0  0  0  0  0  0  0  0  0  0
  142.9841  134.0225  151.4222 N   0  0  0  0  0  0  0  0  0  0  0  0
  144.1523  133.8523  150.5523 C   0  0  1  0  0  0  0  0  0  0  0  0
  145.4969  133.8494  151.3098 C   0  0  0  0  0  0  0  0  0  0  0  0
  146.1086  132.4680  151.0742 C   0  0  0  0  0  0  0  0  0  0  0  0
  145.5526  132.0258  149.7222 C   0  0  0  0  0  0  0  0  0  0  0  0
  144.1097  132.5541  149.7023 C   0  0  2  0  0  0  0  0  0  0  0  0
  143.5732  132.7811  148.2810 C   0  0  0  0  0  0  0  0  0  0  0  0
  142.4177  132.1905  147.9663 N   0  0  0  0  0  0  0  0  0  0  0  0
  144.1893  133.4789  147.4773 O   0  0  0  0  0  0  0  0  0  0  0  0
  142.0675  137.1871  153.1603 C   0  0  0  0  0  0  0  0  0  0  0  0
  141.6967  138.4761  153.3210 N   0  3  0  0  0  0  0  0  0  0  0  0
  139.2605  140.4812  154.4829 H   0  0  0  0  0  0  0  0  0  0  0  0
  140.0677  140.7700  152.9375 H   0  0  0  0  0  0  0  0  0  0  0  0
  140.9911  140.8276  154.4454 H   0  0  0  0  0  0  0  0  0  0  0  0
  138.5657  138.1160  154.5097 H   0  0  0  0  0  0  0  0  0  0  0  0
  139.1765  135.7143  154.2355 H   0  0  0  0  0  0  0  0  0  0  0  0
  141.5941  134.1975  154.2672 H   0  0  0  0  0  0  0  0  0  0  0  0
  140.8266  134.1685  152.6926 H   0  0  0  0  0  0  0  0  0  0  0  0
  142.1126  133.6702  151.0535 H   0  0  0  0  0  0  0  0  0  0  0  0
  144.1544  134.7286  149.9019 H   0  0  0  0  0  0  0  0  0  0  0  0
  146.1518  134.6083  150.8798 H   0  0  0  0  0  0  0  0  0  0  0  0
  145.4035  134.0784  152.3719 H   0  0  0  0  0  0  0  0  0  0  0  0
  147.1986  132.4837  151.0942 H   0  0  0  0  0  0  0  0  0  0  0  0
  145.7739  131.7789  151.8503 H   0  0  0  0  0  0  0  0  0  0  0  0
  146.1478  132.4710  148.9233 H   0  0  0  0  0  0  0  0  0  0  0  0
  145.5964  130.9429  149.6011 H   0  0  0  0  0  0  0  0  0  0  0  0
  143.4877  131.8062  150.1965 H   0  0  0  0  0  0  0  0  0  0  0  0
  142.0220  132.3134  147.0455 H   0  0  0  0  0  0  0  0  0  0  0  0
  141.9412  131.6256  148.6543 H   0  0  0  0  0  0  0  0  0  0  0  0
  143.0637  137.0269  152.7740 H   0  0  0  0  0  0  0  0  0  0  0  0
  142.3637  139.2082  153.0754 H   0  0  0  0  0  0  0  0  0  0  0  0
  1  2  1  0  0  0  0
  1 20  1  0  0  0  0
  1 21  1  0  0  0  0
  1 22  1  0  0  0  0
  2 19  1  0  0  0  0
  2  3  2  0  0  0  0
  3  4  1  0  0  0  0
  3 23  1  0  0  0  0
  4  5  2  0  0  0  0
  4 24  1  0  0  0  0
  5  6  1  0  0  0  0
  5 18  1  0  0  0  0
  6  7  1  0  0  0  0
  6 25  1  0  0  0  0
  6 26  1  0  0  0  0
  7  8  2  0  0  0  0
  7  9  1  0  0  0  0
  9 10  1  0  0  0  0
  9 27  1  0  0  0  0
 10 14  1  0  0  0  0
 10 11  1  0  0  0  0
 10 28  1  0  0  0  0
 11 12  1  0  0  0  0
 11 29  1  0  0  0  0
 11 30  1  0  0  0  0
 12 13  1  0  0  0  0
 12 31  1  0  0  0  0
 12 32  1  0  0  0  0
 13 14  1  0  0  0  0
 13 33  1  0  0  0  0
 13 34  1  0  0  0  0
 14 15  1  0  0  0  0
 14 35  1  0  0  0  0
 15 16  1  0  0  0  0
 15 17  2  0  0  0  0
 16 36  1  0  0  0  0
 16 37  1  0  0  0  0
 18 19  2  0  0  0  0
 18 38  1  0  0  0  0
 19 39  1  0  0  0  0
M  CHG  1  19   1
M  END
> <s_m_source_file>
AV-unprocessed.smi

> <i_m_source_file_index>
651

> <i_lp_mmshare_version>
43012

> <i_f3d_flags>
0

> <s_epik_input>
W0NIM11jMVtjSF1bY0hdYyhbY0hdbjEpW0NIMl1DKD1PKVtOSF1bQ0BASF0yW0NIMl1bQ0gyXVtDSDJdW0NASF0yQyg9TylbTkgyXQ==

> <s_epik_cmdline>
J2VwaWtfcHl0aG9uJywgJy1waCcsICc3LjAnLCAnLXRuJywgJzgnLCAnLW1hJywgJzIwMCcsICctbWV0YWxfYmluZGluZycsICctaW1hZScsICc8aW5maWxlLm1hZT4nLCAnLW9tYWUnLCAnPG91dGZpbGUubWFlPic=

> <r_epik_Ionization_Penalty>
2.14971

> <r_epik_Ionization_Penalty_Charging>
2.14971

> <r_epik_Ionization_Penalty_Neutral>
1.65229e-07

> <r_epik_State_Penalty>
2.28946

> <r_epik_Charging_Adjusted_Penalty>
4.43917

> <i_epik_Tot_Q>
1

> <i_epik_Tot_abs_Q>
1

> <r_epik_Metal_State_Penalty>
2.30508

> <b_epik_Metal_Only>
0

> <s_lp_Force_Field>
OPLS_2005

> <r_lp_Energy>
21.472

> <b_lp_Chiralities_Consistent>
1

> <s_lp_Variant>
AV-unprocessed.smi:651-8

> <Gold.Version>
5.8.1

> <Gold.Id.Protein>
6NUR|6NUR_protein|mol2

> <Gold.PLP.Fitness>
54.4003

> <Gold.PLP.PLP>
-39.1958

> <Gold.PLP.part.hbond>
-6.0000

> <Gold.PLP.part.metal>
0.0000

> <Gold.PLP.part.buried>
-7.1715

> <Gold.PLP.part.nonpolar>
-31.7638

> <Gold.PLP.part.repulsive>
5.6981

> <Gold.PLP.ligand.clash>
0.0210

> <Gold.PLP.ligand.torsion>
0.4556

> <Gold.PLP.Chemscore.Hbond>
5.3760

> <Gold.PLP.Chemscore.CHOScore>
0.0000

> <Gold.PLP.Chemscore.Metal>
0.0000

> <Gold.Chemscore.Hbonds>
donor molecule, donor type, donor heavy atom, donor atom, acceptor molecule, acceptor atom, score
      L1  H     9    27       P1 10186  0.58
      L1  H    16    36       P1 10195  1.00
      L1  H    16    37       P1 10952  1.00
      L1  H    19    39       P1 10175  2.00
      P1  H  7918  7932       L1    17  0.72

> <Gold.PLP.Chemscore.Internal.Correction>
0.0088

> <Gold.Rescore>
     Score         DG    S(hbond)    S(metal)    S(lipo)     H(rot)  DE(clash)    DE(int)     intcor
     17.69     -22.94       3.85        0.00      83.84       2.04       2.12       3.14       ----

> <Gold.Chemscore.Fitness>
17.6866

> <Gold.Chemscore.DG>
-22.9441

> <Gold.Chemscore.ZeroCoef>
-5.4800

> <Gold.Chemscore.Hbond>
3.8543

> <Gold.Chemscore.Metal>
0.0000

> <Gold.Chemscore.Lipo>
83.8421

> <Gold.Chemscore.Internal_Hbond>
0.0000

> <Gold.Chemscore.DEClash>
2.1217

> <Gold.Chemscore.DEInternal>
3.1358

> <Gold.Chemscore.Rot>
2.0386

> <Gold.Chemscore.Internal.Correction>
   9.000000E+99

> <Gold.Chemscore.Hbonds>
donor molecule, donor type, donor heavy atom, donor atom, acceptor molecule, acceptor atom, score
      L1  H     9    27       P1 10186  0.28
      L1  H    16    36       P1 10195  0.98
      L1  H    16    37       P1 10952  1.00
      L1  H    19    39       P1 10175  1.00
      P1  H  7918  7932       L1    17  0.72

> <Gold.Chemscore.Hbond.Weighted>
-12.8733

> <Gold.Chemscore.Metal.Weighted>
-0.0000

> <Gold.Chemscore.Lipo.Weighted>
-9.8095

> <Gold.Chemscore.Internal_Hbond.Weighted>
0.0000

> <Gold.Chemscore.DEClash.Weighted>
2.1217

> <Gold.Chemscore.DEInternal.Weighted>
3.1358

> <Gold.Chemscore.Rot.Weighted>
5.2188

> <Gold.Chemscore.Internal.Correction.Weighted>
   9.000000E+99

> <Gold.Protein.RotatedTorsions>
[ 6907 6896 6895 6894 ] final -166.44 input  -60.11 | X-H torsion
[ 7974 7965 7964 7962 ] final   16.81 input  175.53 | X-H torsion
[ 8008 7997 7996 7995 ] final  -91.26 input   59.86 | X-H torsion
[ 10167 10162 10161 10158 ] final  -67.03 input  -65.29 | X-H torsion
[ 10718 10713 10712 10709 ] final -119.49 input   66.30 | X-H torsion
[ 10763 10752 10751 10750 ] final -114.01 input  -60.55 | X-H torsion
[ 11005 11000 10999 10996 ] final   -6.55 input  -57.11 | X-H torsion

> <Gold.Protein.ActiveResidues>
 VAL166  LYS551  ARG553  GLY616  TRP617  ASP618  TYR619  PRO620  LYS621  CYS622 
 ASP623  PHE694  ASN695  SER759  ASP760  ASP761  ALA762  ILE779  LEU786  VAL792 
 PHE793  MET794  SER795  GLU796  ALA797  LYS798  CYS799  TRP800  GLU811  SER814 

> <Gold.Protein.RotatedAtoms>
  151.4436  133.3636  159.2785 H   0  0  0  0  0  0  0  0  0  0  0  0  # atno 6907 bound_to 6896
  150.9140  134.8559  159.7455 H   0  0  0  0  0  0  0  0  0  0  0  0  # atno 6908 bound_to 6896
  152.4947  134.4368  159.9582 H   0  0  0  0  0  0  0  0  0  0  0  0  # atno 6909 bound_to 6896
  146.2238  139.8693  142.8590 H   0  0  0  0  0  0  0  0  0  0  0  0  # atno 7974 bound_to 7965
  154.7086  140.0521  157.0528 H   0  0  0  0  0  0  0  0  0  0  0  0  # atno 8008 bound_to 7997
  155.0586  140.3187  155.4649 H   0  0  0  0  0  0  0  0  0  0  0  0  # atno 8009 bound_to 7997
  156.2782  140.2103  156.5712 H   0  0  0  0  0  0  0  0  0  0  0  0  # atno 8010 bound_to 7997
  140.5613  143.2313  151.6721 H   0  0  0  0  0  0  0  0  0  0  0  0  # atno 10167 bound_to 10162
  156.1185  130.6305  150.9423 H   0  0  0  0  0  0  0  0  0  0  0  0  # atno 10718 bound_to 10713
  154.8421  135.4433  154.1439 H   0  0  0  0  0  0  0  0  0  0  0  0  # atno 10763 bound_to 10752
  153.2617  135.6937  153.7578 H   0  0  0  0  0  0  0  0  0  0  0  0  # atno 10764 bound_to 10752
  153.6852  135.3396  155.3164 H   0  0  0  0  0  0  0  0  0  0  0  0  # atno 10765 bound_to 10752
  140.7032  133.8971  155.8698 H   0  0  0  0  0  0  0  0  0  0  0  0  # atno 11005 bound_to 11000
  145.2624  141.0081  143.3819 LP  0  0  0  0  0  0  0  0  0  0  0  0  # atno 17320 bound_to 7965
  144.9288  139.4323  143.6505 LP  0  0  0  0  0  0  0  0  0  0  0  0  # atno 17321 bound_to 7965
  139.5071  144.3656  152.0520 LP  0  0  0  0  0  0  0  0  0  0  0  0  # atno 17342 bound_to 10162
  140.2783  144.3888  150.6127 LP  0  0  0  0  0  0  0  0  0  0  0  0  # atno 17343 bound_to 10162
  157.6369  131.0915  150.8331 LP  0  0  0  0  0  0  0  0  0  0  0  0  # atno 17370 bound_to 10713
  156.8431  130.5054  149.5319 LP  0  0  0  0  0  0  0  0  0  0  0  0  # atno 17371 bound_to 10713
  141.0146  134.0973  157.4186 LP  0  0  0  0  0  0  0  0  0  0  0  0  # atno 17394 bound_to 11000
  139.8891  135.0102  156.6659 LP  0  0  0  0  0  0  0  0  0  0  0  0  # atno 17395 bound_to 11000

$$$$
