AV-unprocessed.smi:1887|AV-procd|sdf|7655|dock10
  -GOLD-   22720 9393D 1   1.00000     0.00000
 Structure written by MMmdl.
 44 46  0  0  0  0  0  0  0  0  1 V2000
  152.6437  137.5350  159.8250 C   0  0  0  0  0  0  0  0  0  0  0  0
  151.6068  137.0675  158.9819 O   0  0  0  0  0  0  0  0  0  0  0  0
  152.0320  136.8800  157.6425 C   0  0  0  0  0  0  0  0  0  0  0  0
  152.6716  138.1740  157.1210 C   0  0  0  0  0  0  0  0  0  0  0  0
  151.6719  139.1324  156.6578 N   0  0  0  0  0  0  0  0  0  0  0  0
  151.4014  140.3720  157.1435 C   0  0  0  0  0  0  0  0  0  0  0  0
  152.1189  140.9128  158.2309 N   0  0  0  0  0  0  0  0  0  0  0  0
  153.2773  140.3457  158.6262 N   0  0  0  0  0  0  0  0  0  0  0  0
  153.6761  141.0708  159.6572 C   0  0  0  0  0  0  0  0  0  0  0  0
  154.9660  140.7158  160.3391 C   0  0  0  0  0  0  0  0  0  0  0  0
  152.7655  142.1230  159.9670 C   0  0  0  0  0  0  0  0  0  0  0  0
  152.8803  143.1374  161.0719 C   0  0  0  0  0  0  0  0  0  0  0  0
  151.7763  141.9883  159.0305 C   0  0  0  0  0  0  0  0  0  0  0  0
  150.5280  142.7862  158.8199 C   0  0  0  0  0  0  0  0  0  0  0  0
  150.4402  141.0351  156.4947 N   0  0  0  0  0  0  0  0  0  0  0  0
  150.0602  140.1356  155.5089 C   0  0  0  0  0  0  0  0  0  0  0  0
  150.7909  138.9937  155.5861 C   0  0  0  0  0  0  0  0  0  0  0  0
  150.6165  137.8793  154.6466 C   0  0  0  0  0  0  0  0  0  0  0  0
  151.2754  136.8429  154.6952 O   0  0  0  0  0  0  0  0  0  0  0  0
  149.6597  138.1146  153.7162 N   0  0  0  0  0  0  0  0  0  0  0  0
  148.8885  139.2367  153.5820 C   0  0  0  0  0  0  0  0  0  0  0  0
  148.0585  139.3074  152.6758 O   0  0  0  0  0  0  0  0  0  0  0  0
  149.0814  140.2546  154.4810 N   0  0  0  0  0  0  0  0  0  0  0  0
  148.2854  141.4793  154.3820 C   0  0  0  0  0  0  0  0  0  0  0  0
  149.4998  137.3798  153.0427 H   0  0  0  0  0  0  0  0  0  0  0  0
  152.2619  137.6570  160.8387 H   0  0  0  0  0  0  0  0  0  0  0  0
  153.0197  138.5018  159.4881 H   0  0  0  0  0  0  0  0  0  0  0  0
  153.4732  136.8277  159.8596 H   0  0  0  0  0  0  0  0  0  0  0  0
  152.7485  136.0590  157.5892 H   0  0  0  0  0  0  0  0  0  0  0  0
  151.1804  136.6109  157.0160 H   0  0  0  0  0  0  0  0  0  0  0  0
  153.2777  138.6404  157.8969 H   0  0  0  0  0  0  0  0  0  0  0  0
  153.3633  137.9428  156.3127 H   0  0  0  0  0  0  0  0  0  0  0  0
  155.1467  141.3480  161.2082 H   0  0  0  0  0  0  0  0  0  0  0  0
  155.8118  140.8368  159.6620 H   0  0  0  0  0  0  0  0  0  0  0  0
  154.9575  139.6805  160.6808 H   0  0  0  0  0  0  0  0  0  0  0  0
  151.9431  143.6665  161.2436 H   0  0  0  0  0  0  0  0  0  0  0  0
  153.6375  143.8890  160.8483 H   0  0  0  0  0  0  0  0  0  0  0  0
  153.1574  142.6728  162.0182 H   0  0  0  0  0  0  0  0  0  0  0  0
  150.6629  143.8164  159.1495 H   0  0  0  0  0  0  0  0  0  0  0  0
  149.6985  142.3568  159.3818 H   0  0  0  0  0  0  0  0  0  0  0  0
  150.2428  142.8155  157.7682 H   0  0  0  0  0  0  0  0  0  0  0  0
  147.2189  141.2486  154.3951 H   0  0  0  0  0  0  0  0  0  0  0  0
  148.5095  142.0031  153.4518 H   0  0  0  0  0  0  0  0  0  0  0  0
  148.4760  142.1708  155.2027 H   0  0  0  0  0  0  0  0  0  0  0  0
  1  2  1  0  0  0  0
  1 26  1  0  0  0  0
  1 27  1  0  0  0  0
  1 28  1  0  0  0  0
  2  3  1  0  0  0  0
  3  4  1  0  0  0  0
  3 29  1  0  0  0  0
  3 30  1  0  0  0  0
  4  5  1  0  0  0  0
  4 31  1  0  0  0  0
  4 32  1  0  0  0  0
  5 17  1  0  0  0  0
  5  6  1  0  0  0  0
  6  7  1  0  0  0  0
  6 15  2  0  0  0  0
  7 13  1  0  0  0  0
  7  8  1  0  0  0  0
  8  9  2  0  0  0  0
  9 10  1  0  0  0  0
  9 11  1  0  0  0  0
 10 33  1  0  0  0  0
 10 34  1  0  0  0  0
 10 35  1  0  0  0  0
 11 12  1  0  0  0  0
 11 13  2  0  0  0  0
 12 36  1  0  0  0  0
 12 37  1  0  0  0  0
 12 38  1  0  0  0  0
 13 14  1  0  0  0  0
 14 39  1  0  0  0  0
 14 40  1  0  0  0  0
 14 41  1  0  0  0  0
 15 16  1  0  0  0  0
 16 23  1  0  0  0  0
 16 17  2  0  0  0  0
 17 18  1  0  0  0  0
 18 19  2  0  0  0  0
 18 20  1  0  0  0  0
 20 25  1  0  0  0  0
 20 21  1  0  0  0  0
 21 22  2  0  0  0  0
 21 23  1  0  0  0  0
 23 24  1  0  0  0  0
 24 42  1  0  0  0  0
 24 43  1  0  0  0  0
 24 44  1  0  0  0  0
M  END
> <s_m_source_file>
AV-unprocessed.smi

> <i_m_source_file_index>
1887

> <i_lp_mmshare_version>
43012

> <i_f3d_flags>
0

> <s_epik_input>
W0NIM11uMWMoPU8pW25IXWMoPU8pYyhjMTIpbihbQ0gyXVtDSDJdT1tDSDNdKWMobjIpLW4zbmMoW0NIM10pYyhbQ0gzXSljM1tDSDNd

> <s_epik_cmdline>
J2VwaWtfcHl0aG9uJywgJy1waCcsICc3LjAnLCAnLXRuJywgJzgnLCAnLW1hJywgJzIwMCcsICctbWV0YWxfYmluZGluZycsICctaW1hZScsICc8aW5maWxlLm1hZT4nLCAnLW9tYWUnLCAnPG91dGZpbGUubWFlPic=

> <r_lp_tautomer_probability>
1

> <r_epik_Ionization_Penalty>
0.00244877

> <r_epik_Ionization_Penalty_Charging>
0.000731299

> <r_epik_Ionization_Penalty_Neutral>
0.00171747

> <r_epik_State_Penalty>
-0

> <r_epik_Charging_Adjusted_Penalty>
0.000731299

> <i_epik_Tot_Q>
0

> <i_epik_Tot_abs_Q>
0

> <r_epik_Metal_State_Penalty>
0.260296

> <b_epik_Metal_Only>
0

> <s_lp_Force_Field>
OPLS_2005

> <r_lp_Energy>
24.2445

> <b_lp_Chiralities_Consistent>
1

> <s_lp_Variant>
AV-unprocessed.smi:1887-1

> <Gold.Version>
5.8.1

> <Gold.Id.Protein>
6NUR|6NUR_protein|mol2

> <Gold.PLP.Fitness>
44.7585

> <Gold.PLP.PLP>
-35.7249

> <Gold.PLP.part.hbond>
-4.4035

> <Gold.PLP.part.metal>
0.0000

> <Gold.PLP.part.buried>
-3.8710

> <Gold.PLP.part.nonpolar>
-33.9858

> <Gold.PLP.part.repulsive>
5.5442

> <Gold.PLP.ligand.clash>
1.4155

> <Gold.PLP.ligand.torsion>
0.2572

> <Gold.PLP.Chemscore.Hbond>
3.5321

> <Gold.PLP.Chemscore.CHOScore>
0.0000

> <Gold.PLP.Chemscore.Metal>
0.0000

> <Gold.Chemscore.Hbonds>
donor molecule, donor type, donor heavy atom, donor atom, acceptor molecule, acceptor atom, score
      L1  H    20    25       P1  7948  1.00
      P1  H  6896  6907       L1     2  0.61
      P1  H  7997  8008       L1     8  0.77
      P1  H 10752 10763       L1    19  0.86

> <Gold.PLP.Chemscore.Internal.Correction>
0.3672

> <Gold.Rescore>
     Score         DG    S(hbond)    S(metal)    S(lipo)     H(rot)  DE(clash)    DE(int)     intcor
     16.21     -20.65       2.91        0.00      79.55       1.50       1.35       3.09       ----

> <Gold.Chemscore.Fitness>
16.2084

> <Gold.Chemscore.DG>
-20.6494

> <Gold.Chemscore.ZeroCoef>
-5.4800

> <Gold.Chemscore.Hbond>
2.9058

> <Gold.Chemscore.Metal>
0.0000

> <Gold.Chemscore.Lipo>
79.5541

> <Gold.Chemscore.Internal_Hbond>
0.0000

> <Gold.Chemscore.DEClash>
1.3542

> <Gold.Chemscore.DEInternal>
3.0868

> <Gold.Chemscore.Rot>
1.5014

> <Gold.Chemscore.Internal.Correction>
   9.000000E+99

> <Gold.Chemscore.Hbonds>
donor molecule, donor type, donor heavy atom, donor atom, acceptor molecule, acceptor atom, score
      L1  H    20    25       P1  7948  0.82
      P1  H  6896  6907       L1     2  0.08
      P1  H  7997  8008       L1     8  0.62
      P1  H 10752 10763       L1    19  0.84

> <Gold.Chemscore.Hbond.Weighted>
-9.7053

> <Gold.Chemscore.Metal.Weighted>
-0.0000

> <Gold.Chemscore.Lipo.Weighted>
-9.3078

> <Gold.Chemscore.Internal_Hbond.Weighted>
0.0000

> <Gold.Chemscore.DEClash.Weighted>
1.3542

> <Gold.Chemscore.DEInternal.Weighted>
3.0868

> <Gold.Chemscore.Rot.Weighted>
3.8437

> <Gold.Chemscore.Internal.Correction.Weighted>
   9.000000E+99

> <Gold.Protein.RotatedTorsions>
[ 6907 6896 6895 6894 ] final  -15.92 input  -60.11 | X-H torsion
[ 7974 7965 7964 7962 ] final -109.46 input  175.53 | X-H torsion
[ 8008 7997 7996 7995 ] final  -94.43 input   59.86 | X-H torsion
[ 10167 10162 10161 10158 ] final  -88.69 input  -65.29 | X-H torsion
[ 10718 10713 10712 10709 ] final  174.91 input   66.30 | X-H torsion
[ 10763 10752 10751 10750 ] final   39.47 input  -60.55 | X-H torsion
[ 11005 11000 10999 10996 ] final -176.87 input  -57.11 | X-H torsion

> <Gold.Protein.ActiveResidues>
 VAL166  LYS551  ARG553  GLY616  TRP617  ASP618  TYR619  PRO620  LYS621  CYS622 
 ASP623  PHE694  ASN695  SER759  ASP760  ASP761  ALA762  ILE779  LEU786  VAL792 
 PHE793  MET794  SER795  GLU796  ALA797  LYS798  CYS799  TRP800  GLU811  SER814 

> <Gold.Protein.RotatedAtoms>
  151.3165  135.0808  159.9290 H   0  0  0  0  0  0  0  0  0  0  0  0  # atno 6907 bound_to 6896
  152.5266  133.9682  159.7760 H   0  0  0  0  0  0  0  0  0  0  0  0  # atno 6908 bound_to 6896
  150.9995  133.6018  159.2727 H   0  0  0  0  0  0  0  0  0  0  0  0  # atno 6909 bound_to 6896
  145.1802  140.8967  143.3484 H   0  0  0  0  0  0  0  0  0  0  0  0  # atno 7974 bound_to 7965
  154.7484  140.0489  157.0872 H   0  0  0  0  0  0  0  0  0  0  0  0  # atno 8008 bound_to 7997
  155.0089  140.3133  155.4818 H   0  0  0  0  0  0  0  0  0  0  0  0  # atno 8009 bound_to 7997
  156.2880  140.2188  156.5202 H   0  0  0  0  0  0  0  0  0  0  0  0  # atno 8010 bound_to 7997
  140.3722  143.2789  151.9487 H   0  0  0  0  0  0  0  0  0  0  0  0  # atno 10167 bound_to 10162
  156.9426  131.0006  151.2965 H   0  0  0  0  0  0  0  0  0  0  0  0  # atno 10718 bound_to 10713
  152.9966  135.6219  154.2470 H   0  0  0  0  0  0  0  0  0  0  0  0  # atno 10763 bound_to 10752
  154.2210  135.2796  155.2926 H   0  0  0  0  0  0  0  0  0  0  0  0  # atno 10764 bound_to 10752
  154.5529  135.5728  153.6996 H   0  0  0  0  0  0  0  0  0  0  0  0  # atno 10765 bound_to 10752
  140.4472  134.6377  157.4785 H   0  0  0  0  0  0  0  0  0  0  0  0  # atno 11005 bound_to 11000
  145.0144  139.3481  143.6104 LP  0  0  0  0  0  0  0  0  0  0  0  0  # atno 17320 bound_to 7965
  146.3454  139.9419  142.8740 LP  0  0  0  0  0  0  0  0  0  0  0  0  # atno 17321 bound_to 7965
  139.4803  144.5897  151.7794 LP  0  0  0  0  0  0  0  0  0  0  0  0  # atno 17342 bound_to 10162
  140.5022  144.1152  150.5974 LP  0  0  0  0  0  0  0  0  0  0  0  0  # atno 17343 bound_to 10162
  157.5775  130.8353  149.8476 LP  0  0  0  0  0  0  0  0  0  0  0  0  # atno 17370 bound_to 10713
  156.0398  130.3742  150.1466 LP  0  0  0  0  0  0  0  0  0  0  0  0  # atno 17371 bound_to 10713
  140.0030  134.6806  155.9499 LP  0  0  0  0  0  0  0  0  0  0  0  0  # atno 17394 bound_to 11000
  141.1680  133.6537  156.4548 LP  0  0  0  0  0  0  0  0  0  0  0  0  # atno 17395 bound_to 11000

$$$$
