AV-unprocessed.smi:1830|AV-procd|sdf|7433|dock9
  -GOLD-   22720 9123D 1   1.00000     0.00000
 Structure written by MMmdl.
 53 56  0  0  0  0  0  0  0  0  2 V2000
  145.4944  138.3541  152.9817 O   0  0  0  0  0  0  0  0  0  0  0  0
  146.4943  137.6361  152.9789 C   0  0  0  0  0  0  0  0  0  0  0  0
  146.4704  136.3358  152.6574 N   0  0  0  0  0  0  0  0  0  0  0  0
  145.2737  135.5871  152.2916 C   0  0  0  0  0  0  0  0  0  0  0  0
  145.3871  134.9800  150.8749 C   0  0  1  0  0  0  0  0  0  0  0  0
  146.5512  133.9678  150.7441 C   0  0  0  0  0  0  0  0  0  0  0  0
  146.1711  132.7068  151.4082 N   0  3  2  0  0  0  0  0  0  0  0  0
  147.1421  131.5990  151.4045 C   0  0  0  0  0  0  0  0  0  0  0  0
  146.2911  130.3267  151.5887 C   0  0  0  0  0  0  0  0  0  0  0  0
  144.8251  130.7897  151.5107 C   0  0  0  0  0  0  0  0  0  0  0  0
  144.9299  132.1625  150.8536 C   0  0  1  0  0  0  0  0  0  0  0  0
  143.7930  133.1627  151.0914 C   0  0  0  0  0  0  0  0  0  0  0  0
  144.1470  134.3913  150.4510 O   0  0  0  0  0  0  0  0  0  0  0  0
  147.7336  138.0294  153.3142 N   0  0  0  0  0  0  0  0  0  0  0  0
  148.1463  139.3036  153.7934 C   0  0  0  0  0  0  0  0  0  0  0  0
  147.2760  140.4205  153.7656 C   0  0  0  0  0  0  0  0  0  0  0  0
  147.7522  141.6755  154.1821 C   0  0  0  0  0  0  0  0  0  0  0  0
  149.0905  141.7738  154.5975 C   0  0  0  0  0  0  0  0  0  0  0  0
  149.9347  140.7231  154.6180 N   0  0  0  0  0  0  0  0  0  0  0  0
  149.4863  139.5028  154.2334 C   0  0  0  0  0  0  0  0  0  0  0  0
  150.4090  138.4332  154.2944 N   0  0  0  0  0  0  0  0  0  0  0  0
  151.8374  138.6959  154.4357 C   0  0  0  0  0  0  0  0  0  0  0  0
  152.4446  137.3599  154.8537 C   0  0  0  0  0  0  0  0  0  0  0  0
  151.3528  136.7696  155.7408 C   0  0  0  0  0  0  0  0  0  0  0  0
  150.0529  137.2693  155.1010 C   0  0  0  0  0  0  0  0  0  0  0  0
  147.3404  135.8240  152.6844 H   0  0  0  0  0  0  0  0  0  0  0  0
  145.0980  134.7979  153.0245 H   0  0  0  0  0  0  0  0  0  0  0  0
  144.4174  136.2569  152.3641 H   0  0  0  0  0  0  0  0  0  0  0  0
  145.5910  135.7972  150.1821 H   0  0  0  0  0  0  0  0  0  0  0  0
  146.7620  133.7735  149.6914 H   0  0  0  0  0  0  0  0  0  0  0  0
  147.4654  134.3650  151.1861 H   0  0  0  0  0  0  0  0  0  0  0  0
  147.6652  131.5643  150.4476 H   0  0  0  0  0  0  0  0  0  0  0  0
  147.8840  131.7253  152.1933 H   0  0  0  0  0  0  0  0  0  0  0  0
  146.5142  129.6082  150.7991 H   0  0  0  0  0  0  0  0  0  0  0  0
  146.4951  129.8398  152.5430 H   0  0  0  0  0  0  0  0  0  0  0  0
  144.1919  130.1011  150.9502 H   0  0  0  0  0  0  0  0  0  0  0  0
  144.4129  130.8834  152.5165 H   0  0  0  0  0  0  0  0  0  0  0  0
  145.0606  132.0202  149.7784 H   0  0  0  0  0  0  0  0  0  0  0  0
  142.8640  132.7922  150.6577 H   0  0  0  0  0  0  0  0  0  0  0  0
  143.6091  133.3162  152.1551 H   0  0  0  0  0  0  0  0  0  0  0  0
  148.4368  137.3061  153.3521 H   0  0  0  0  0  0  0  0  0  0  0  0
  146.2601  140.3391  153.4094 H   0  0  0  0  0  0  0  0  0  0  0  0
  147.1104  142.5440  154.1698 H   0  0  0  0  0  0  0  0  0  0  0  0
  149.4969  142.7221  154.9166 H   0  0  0  0  0  0  0  0  0  0  0  0
  152.2685  139.0636  153.5041 H   0  0  0  0  0  0  0  0  0  0  0  0
  152.0208  139.4365  155.2152 H   0  0  0  0  0  0  0  0  0  0  0  0
  152.5970  136.7273  153.9781 H   0  0  0  0  0  0  0  0  0  0  0  0
  153.4006  137.4695  155.3662 H   0  0  0  0  0  0  0  0  0  0  0  0
  151.4001  135.6824  155.8092 H   0  0  0  0  0  0  0  0  0  0  0  0
  151.4440  137.1745  156.7497 H   0  0  0  0  0  0  0  0  0  0  0  0
  149.3035  137.5074  155.8574 H   0  0  0  0  0  0  0  0  0  0  0  0
  149.6420  136.4996  154.4474 H   0  0  0  0  0  0  0  0  0  0  0  0
  145.9833  132.9195  152.3776 H   0  0  0  0  0  0  0  0  0  0  0  0
  1  2  2  0  0  0  0
  2  3  1  0  0  0  0
  2 14  1  0  0  0  0
  3  4  1  0  0  0  0
  3 26  1  0  0  0  0
  4  5  1  0  0  0  0
  4 27  1  0  0  0  0
  4 28  1  0  0  0  0
  5 13  1  0  0  0  0
  5  6  1  0  0  0  0
  5 29  1  0  0  0  0
  6  7  1  0  0  0  0
  6 30  1  0  0  0  0
  6 31  1  0  0  0  0
  7 11  1  0  0  0  0
  7  8  1  0  0  0  0
  7 53  1  0  0  0  0
  8  9  1  0  0  0  0
  8 32  1  0  0  0  0
  8 33  1  0  0  0  0
  9 10  1  0  0  0  0
  9 34  1  0  0  0  0
  9 35  1  0  0  0  0
 10 11  1  0  0  0  0
 10 36  1  0  0  0  0
 10 37  1  0  0  0  0
 11 12  1  0  0  0  0
 11 38  1  0  0  0  0
 12 13  1  0  0  0  0
 12 39  1  0  0  0  0
 12 40  1  0  0  0  0
 14 15  1  0  0  0  0
 14 41  1  0  0  0  0
 15 20  1  0  0  0  0
 15 16  2  0  0  0  0
 16 17  1  0  0  0  0
 16 42  1  0  0  0  0
 17 18  2  0  0  0  0
 17 43  1  0  0  0  0
 18 19  1  0  0  0  0
 18 44  1  0  0  0  0
 19 20  2  0  0  0  0
 20 21  1  0  0  0  0
 21 25  1  0  0  0  0
 21 22  1  0  0  0  0
 22 23  1  0  0  0  0
 22 45  1  0  0  0  0
 22 46  1  0  0  0  0
 23 24  1  0  0  0  0
 23 47  1  0  0  0  0
 23 48  1  0  0  0  0
 24 25  1  0  0  0  0
 24 49  1  0  0  0  0
 24 50  1  0  0  0  0
 25 51  1  0  0  0  0
 25 52  1  0  0  0  0
M  CHG  1   7   1
M  END
> <s_m_source_file>
AV-unprocessed.smi

> <i_m_source_file_index>
1830

> <i_lp_mmshare_version>
43012

> <i_f3d_flags>
0

> <s_epik_input>
W0NIMl0xW0NIMl1bQ0gyXVtDQEhdKE4xMilbQ0gyXU9bQ0BASF0oW0NIMl0yKVtDSDJdW05IXUMoPU8pW05IXWMzW2NIXVtjSF1bY0hdbmMzTjRbQ0gyXVtDSDJdW0NIMl1bQ0gyXTQ=

> <s_epik_cmdline>
J2VwaWtfcHl0aG9uJywgJy1waCcsICc3LjAnLCAnLXRuJywgJzgnLCAnLW1hJywgJzIwMCcsICctbWV0YWxfYmluZGluZycsICctaW1hZScsICc8aW5maWxlLm1hZT4nLCAnLW9tYWUnLCAnPG91dGZpbGUubWFlPic=

> <r_lp_tautomer_probability>
1

> <r_epik_Ionization_Penalty>
0.193547

> <r_epik_Ionization_Penalty_Charging>
0.10673

> <r_epik_Ionization_Penalty_Neutral>
0.0868166

> <r_epik_State_Penalty>
0.173595

> <r_epik_Charging_Adjusted_Penalty>
0.280326

> <i_epik_Tot_Q>
1

> <i_epik_Tot_abs_Q>
1

> <r_epik_Metal_State_Penalty>
0.164683

> <b_epik_Metal_Only>
0

> <s_lp_Force_Field>
OPLS_2005

> <r_lp_Energy>
66.0686

> <b_lp_Chiralities_Consistent>
1

> <s_lp_Variant>
AV-unprocessed.smi:1830-2

> <Gold.Version>
5.8.1

> <Gold.Id.Protein>
6NUR|6NUR_protein|mol2

> <Gold.PLP.Fitness>
39.6428

> <Gold.PLP.PLP>
-31.5438

> <Gold.PLP.part.hbond>
-3.0000

> <Gold.PLP.part.metal>
0.0000

> <Gold.PLP.part.buried>
5.8780

> <Gold.PLP.part.nonpolar>
-36.0951

> <Gold.PLP.part.repulsive>
2.8921

> <Gold.PLP.ligand.clash>
0.0000

> <Gold.PLP.ligand.torsion>
0.2275

> <Gold.PLP.Chemscore.Hbond>
1.7430

> <Gold.PLP.Chemscore.CHOScore>
1.0000

> <Gold.PLP.Chemscore.Metal>
0.0000

> <Gold.Chemscore.Hbonds>
donor molecule, donor type, donor heavy atom, donor atom, acceptor molecule, acceptor atom, score
      L1  H     3    26       P1  7948  0.58
      L1  H    14    41       P1  7948  0.48
      P1  H  7989  7998       L1    19  0.77
      L1  C    18    44       P1  8028  1.00

> <Gold.PLP.Chemscore.Internal.Correction>
0.3250

> <Gold.Rescore>
     Score         DG    S(hbond)    S(metal)    S(lipo)     H(rot)  DE(clash)    DE(int)     intcor
     12.78     -19.60       1.28        0.00     114.98       1.41       5.16       1.67       ----

> <Gold.Chemscore.Fitness>
12.7759

> <Gold.Chemscore.DG>
-19.6036

> <Gold.Chemscore.ZeroCoef>
-5.4800

> <Gold.Chemscore.Hbond>
1.2790

> <Gold.Chemscore.Metal>
0.0000

> <Gold.Chemscore.Lipo>
114.9818

> <Gold.Chemscore.Internal_Hbond>
0.0000

> <Gold.Chemscore.DEClash>
5.1588

> <Gold.Chemscore.DEInternal>
1.6689

> <Gold.Chemscore.Rot>
1.4067

> <Gold.Chemscore.Internal.Correction>
   9.000000E+99

> <Gold.Chemscore.Hbonds>
donor molecule, donor type, donor heavy atom, donor atom, acceptor molecule, acceptor atom, score
      L1  H     3    26       P1  7948  0.58
      L1  H    14    41       P1  7948  0.48
      P1  H  7989  7998       L1    19  0.20

> <Gold.Chemscore.Hbond.Weighted>
-4.2718

> <Gold.Chemscore.Metal.Weighted>
-0.0000

> <Gold.Chemscore.Lipo.Weighted>
-13.4529

> <Gold.Chemscore.Internal_Hbond.Weighted>
0.0000

> <Gold.Chemscore.DEClash.Weighted>
5.1588

> <Gold.Chemscore.DEInternal.Weighted>
1.6689

> <Gold.Chemscore.Rot.Weighted>
3.6011

> <Gold.Chemscore.Internal.Correction.Weighted>
   9.000000E+99

> <Gold.Protein.RotatedTorsions>
[ 6907 6896 6895 6894 ] final   26.06 input  -60.11 | X-H torsion
[ 7974 7965 7964 7962 ] final  -18.41 input  175.53 | X-H torsion
[ 8008 7997 7996 7995 ] final   -5.19 input   59.86 | X-H torsion
[ 10167 10162 10161 10158 ] final   50.71 input  -65.29 | X-H torsion
[ 10718 10713 10712 10709 ] final   -6.06 input   66.30 | X-H torsion
[ 10763 10752 10751 10750 ] final -139.26 input  -60.55 | X-H torsion
[ 11005 11000 10999 10996 ] final  -69.60 input  -57.11 | X-H torsion

> <Gold.Protein.ActiveResidues>
 VAL166  LYS551  ARG553  GLY616  TRP617  ASP618  TYR619  PRO620  LYS621  CYS622 
 ASP623  PHE694  ASN695  SER759  ASP760  ASP761  ALA762  ILE779  LEU786  VAL792 
 PHE793  MET794  SER795  GLU796  ALA797  LYS798  CYS799  TRP800  GLU811  SER814 

> <Gold.Protein.RotatedAtoms>
  151.9818  135.0024  160.0557 H   0  0  0  0  0  0  0  0  0  0  0  0  # atno 6907 bound_to 6896
  152.1689  133.4626  159.4907 H   0  0  0  0  0  0  0  0  0  0  0  0  # atno 6908 bound_to 6896
  150.6898  134.1896  159.4323 H   0  0  0  0  0  0  0  0  0  0  0  0  # atno 6909 bound_to 6896
  146.1893  140.3918  142.8464 H   0  0  0  0  0  0  0  0  0  0  0  0  # atno 7974 bound_to 7965
  154.6065  140.2465  155.7724 H   0  0  0  0  0  0  0  0  0  0  0  0  # atno 8008 bound_to 7997
  156.2344  140.2955  156.0224 H   0  0  0  0  0  0  0  0  0  0  0  0  # atno 8009 bound_to 7997
  155.2124  140.0397  157.2926 H   0  0  0  0  0  0  0  0  0  0  0  0  # atno 8010 bound_to 7997
  140.2695  144.3281  150.6294 H   0  0  0  0  0  0  0  0  0  0  0  0  # atno 10167 bound_to 10162
  156.7375  130.5199  149.5831 H   0  0  0  0  0  0  0  0  0  0  0  0  # atno 10718 bound_to 10713
  154.8614  135.3588  154.5518 H   0  0  0  0  0  0  0  0  0  0  0  0  # atno 10763 bound_to 10752
  153.6136  135.7008  153.5342 H   0  0  0  0  0  0  0  0  0  0  0  0  # atno 10764 bound_to 10752
  153.3188  135.4157  155.1360 H   0  0  0  0  0  0  0  0  0  0  0  0  # atno 10765 bound_to 10752
  141.1557  133.6768  156.6624 H   0  0  0  0  0  0  0  0  0  0  0  0  # atno 11005 bound_to 11000
  144.8456  140.6924  143.6201 LP  0  0  0  0  0  0  0  0  0  0  0  0  # atno 17320 bound_to 7965
  145.3842  139.1630  143.4264 LP  0  0  0  0  0  0  0  0  0  0  0  0  # atno 17321 bound_to 7965
  140.5901  143.2168  151.7269 LP  0  0  0  0  0  0  0  0  0  0  0  0  # atno 17342 bound_to 10162
  139.4993  144.3952  152.0238 LP  0  0  0  0  0  0  0  0  0  0  0  0  # atno 17343 bound_to 10162
  156.1487  130.6295  151.0566 LP  0  0  0  0  0  0  0  0  0  0  0  0  # atno 17370 bound_to 10713
  157.6833  131.0832  150.7312 LP  0  0  0  0  0  0  0  0  0  0  0  0  # atno 17371 bound_to 10713
  140.3237  134.7986  157.4273 LP  0  0  0  0  0  0  0  0  0  0  0  0  # atno 17394 bound_to 11000
  140.1075  134.5390  155.8296 LP  0  0  0  0  0  0  0  0  0  0  0  0  # atno 17395 bound_to 11000

$$$$
