AV-unprocessed.smi:1285|AV-procd|sdf|5374|dock4
  -GOLD-   22720 4523D 1   1.00000     0.00000
 Structure written by MMmdl.
 47 48  0  0  0  0  0  0  0  0  2 V2000
  144.7875  136.5681  152.2355 C   0  0  0  0  0  0  0  0  0  0  0  0
  143.3445  136.0335  152.2596 C   0  0  0  0  0  0  0  0  0  0  0  0
  143.0905  134.8137  153.1992 C   0  0  2  0  0  0  0  0  0  0  0  0
  141.5617  134.5454  153.1975 C   0  0  0  0  0  0  0  0  0  0  0  0
  143.5375  135.1620  154.6541 C   0  0  0  0  0  0  0  0  0  0  0  0
  142.5293  135.9154  155.3974 N   0  0  0  0  0  0  0  0  0  0  0  0
  142.4483  137.2536  155.4781 C   0  0  0  0  0  0  0  0  0  0  0  0
  143.2902  138.0093  154.9916 O   0  0  0  0  0  0  0  0  0  0  0  0
  141.2045  137.8099  156.1900 C   0  0  1  0  0  0  0  0  0  0  0  0
  141.3372  139.2995  156.5663 C   0  0  0  0  0  0  0  0  0  0  0  0
  140.0157  137.5559  155.3842 N   0  0  0  0  0  0  0  0  0  0  0  0
  138.7246  137.7054  155.6881 C   0  0  0  0  0  0  0  0  0  0  0  0
  137.8969  137.3203  154.7271 N   0  0  0  0  0  0  0  0  0  0  0  0
  138.8060  136.9117  153.7930 C   0  0  0  0  0  0  0  0  0  0  0  0
  140.0882  137.0203  154.1398 N   0  0  0  0  0  0  0  0  0  0  0  0
  143.8363  133.6061  152.6872 N   0  3  0  0  0  0  0  0  0  0  0  0
  143.4749  133.1517  151.3140 C   0  0  0  0  0  0  0  0  0  0  0  0
  144.1393  131.8014  151.0026 C   0  0  0  0  0  0  0  0  0  0  0  0
  145.5487  131.9303  151.1236 O   0  0  0  0  0  0  0  0  0  0  0  0
  145.9328  132.2846  152.4447 C   0  0  0  0  0  0  0  0  0  0  0  0
  145.3202  133.6447  152.8224 C   0  0  0  0  0  0  0  0  0  0  0  0
  144.8653  137.4142  151.5527 H   0  0  0  0  0  0  0  0  0  0  0  0
  145.4941  135.8128  151.8928 H   0  0  0  0  0  0  0  0  0  0  0  0
  145.1122  136.9138  153.2166 H   0  0  0  0  0  0  0  0  0  0  0  0
  142.6673  136.8512  152.5047 H   0  0  0  0  0  0  0  0  0  0  0  0
  143.0855  135.7672  151.2347 H   0  0  0  0  0  0  0  0  0  0  0  0
  140.9903  135.4630  153.3443 H   0  0  0  0  0  0  0  0  0  0  0  0
  141.2629  133.8699  153.9993 H   0  0  0  0  0  0  0  0  0  0  0  0
  141.2273  134.1080  152.2566 H   0  0  0  0  0  0  0  0  0  0  0  0
  143.7236  134.2523  155.2241 H   0  0  0  0  0  0  0  0  0  0  0  0
  144.4791  135.7113  154.6564 H   0  0  0  0  0  0  0  0  0  0  0  0
  141.7968  135.3758  155.8355 H   0  0  0  0  0  0  0  0  0  0  0  0
  141.0896  137.2493  157.1192 H   0  0  0  0  0  0  0  0  0  0  0  0
  142.1941  139.4660  157.2198 H   0  0  0  0  0  0  0  0  0  0  0  0
  140.4504  139.6446  157.0987 H   0  0  0  0  0  0  0  0  0  0  0  0
  141.4621  139.9343  155.6881 H   0  0  0  0  0  0  0  0  0  0  0  0
  138.3828  138.0939  156.6362 H   0  0  0  0  0  0  0  0  0  0  0  0
  138.5139  136.5143  152.8321 H   0  0  0  0  0  0  0  0  0  0  0  0
  142.3996  133.0327  151.1991 H   0  0  0  0  0  0  0  0  0  0  0  0
  143.7982  133.8838  150.5740 H   0  0  0  0  0  0  0  0  0  0  0  0
  143.7704  131.0201  151.6693 H   0  0  0  0  0  0  0  0  0  0  0  0
  143.9002  131.4913  149.9852 H   0  0  0  0  0  0  0  0  0  0  0  0
  145.6224  131.5089  153.1466 H   0  0  0  0  0  0  0  0  0  0  0  0
  147.0206  132.3378  152.4914 H   0  0  0  0  0  0  0  0  0  0  0  0
  145.7375  134.4223  152.1821 H   0  0  0  0  0  0  0  0  0  0  0  0
  145.6258  133.8692  153.8426 H   0  0  0  0  0  0  0  0  0  0  0  0
  143.5412  132.8569  153.2971 H   0  0  0  0  0  0  0  0  0  0  0  0
  1  2  1  0  0  0  0
  1 22  1  0  0  0  0
  1 23  1  0  0  0  0
  1 24  1  0  0  0  0
  2  3  1  0  0  0  0
  2 25  1  0  0  0  0
  2 26  1  0  0  0  0
  3  4  1  0  0  0  0
  3  5  1  0  0  0  0
  3 16  1  0  0  0  0
  4 27  1  0  0  0  0
  4 28  1  0  0  0  0
  4 29  1  0  0  0  0
  5  6  1  0  0  0  0
  5 30  1  0  0  0  0
  5 31  1  0  0  0  0
  6  7  1  0  0  0  0
  6 32  1  0  0  0  0
  7  8  2  0  0  0  0
  7  9  1  0  0  0  0
  9 10  1  0  0  0  0
  9 11  1  0  0  0  0
  9 33  1  0  0  0  0
 10 34  1  0  0  0  0
 10 35  1  0  0  0  0
 10 36  1  0  0  0  0
 11 15  1  0  0  0  0
 11 12  1  0  0  0  0
 12 13  2  0  0  0  0
 12 37  1  0  0  0  0
 13 14  1  0  0  0  0
 14 15  2  0  0  0  0
 14 38  1  0  0  0  0
 16 21  1  0  0  0  0
 16 17  1  0  0  0  0
 16 47  1  0  0  0  0
 17 18  1  0  0  0  0
 17 39  1  0  0  0  0
 17 40  1  0  0  0  0
 18 19  1  0  0  0  0
 18 41  1  0  0  0  0
 18 42  1  0  0  0  0
 19 20  1  0  0  0  0
 20 21  1  0  0  0  0
 20 43  1  0  0  0  0
 20 44  1  0  0  0  0
 21 45  1  0  0  0  0
 21 46  1  0  0  0  0
M  CHG  1  16   1
M  END
> <s_m_source_file>
AV-unprocessed.smi

> <i_m_source_file_index>
1285

> <i_lp_mmshare_version>
43012

> <i_f3d_flags>
0

> <s_epik_input>
W0NIMl0xW0NIMl1PW0NIMl1bQ0gyXU4xW0NAQF0oW0NIM10pKFtDSDJdW0NIM10pW0NIMl1bTkhdQyg9TylbQ0BIXShbQ0gzXSluMltjSF1uW2NIXW4y

> <s_epik_cmdline>
J2VwaWtfcHl0aG9uJywgJy1waCcsICc3LjAnLCAnLXRuJywgJzgnLCAnLW1hJywgJzIwMCcsICctbWV0YWxfYmluZGluZycsICctaW1hZScsICc8aW5maWxlLm1hZT4nLCAnLW9tYWUnLCAnPG91dGZpbGUubWFlPic=

> <r_lp_tautomer_probability>
1

> <r_epik_Ionization_Penalty>
0.569304

> <r_epik_Ionization_Penalty_Charging>
0.569295

> <r_epik_Ionization_Penalty_Neutral>
8.22697e-06

> <r_epik_State_Penalty>
0.581114

> <r_epik_Charging_Adjusted_Penalty>
1.15041

> <i_epik_Tot_Q>
1

> <i_epik_Tot_abs_Q>
1

> <r_epik_Metal_State_Penalty>
0.581117

> <b_epik_Metal_Only>
0

> <s_lp_Force_Field>
OPLS_2005

> <r_lp_Energy>
34.4039

> <b_lp_Chiralities_Consistent>
1

> <s_lp_Variant>
AV-unprocessed.smi:1285-8

> <Gold.Version>
5.8.1

> <Gold.Id.Protein>
6NUR|6NUR_protein|mol2

> <Gold.PLP.Fitness>
36.4561

> <Gold.PLP.PLP>
-28.3774

> <Gold.PLP.part.hbond>
-2.0000

> <Gold.PLP.part.metal>
0.0000

> <Gold.PLP.part.buried>
-6.8805

> <Gold.PLP.part.nonpolar>
-20.0858

> <Gold.PLP.part.repulsive>
0.3121

> <Gold.PLP.ligand.clash>
0.0000

> <Gold.PLP.ligand.torsion>
1.0135

> <Gold.PLP.Chemscore.Hbond>
2.2500

> <Gold.PLP.Chemscore.CHOScore>
1.0000

> <Gold.PLP.Chemscore.Metal>
0.0000

> <Gold.Chemscore.Hbonds>
donor molecule, donor type, donor heavy atom, donor atom, acceptor molecule, acceptor atom, score
      L1  H     6    32       P1 11000  0.18
      L1  H    16    47       P1 10957  1.98
      L1  C    14    38       P1 10187  0.99

> <Gold.PLP.Chemscore.Internal.Correction>
0.3556

> <Gold.Rescore>
     Score         DG    S(hbond)    S(metal)    S(lipo)     H(rot)  DE(clash)    DE(int)     intcor
      5.67      -6.95       0.96        0.00      45.58       2.76       0.03       1.25       ----

> <Gold.Chemscore.Fitness>
5.6740

> <Gold.Chemscore.DG>
-6.9481

> <Gold.Chemscore.ZeroCoef>
-5.4800

> <Gold.Chemscore.Hbond>
0.9576

> <Gold.Chemscore.Metal>
0.0000

> <Gold.Chemscore.Lipo>
45.5766

> <Gold.Chemscore.Internal_Hbond>
0.0000

> <Gold.Chemscore.DEClash>
0.0270

> <Gold.Chemscore.DEInternal>
1.2471

> <Gold.Chemscore.Rot>
2.7589

> <Gold.Chemscore.Internal.Correction>
   9.000000E+99

> <Gold.Chemscore.Hbonds>
donor molecule, donor type, donor heavy atom, donor atom, acceptor molecule, acceptor atom, score
      L1  H    16    47       P1 10957  0.56

> <Gold.Chemscore.Hbond.Weighted>
-3.1983

> <Gold.Chemscore.Metal.Weighted>
-0.0000

> <Gold.Chemscore.Lipo.Weighted>
-5.3325

> <Gold.Chemscore.Internal_Hbond.Weighted>
0.0000

> <Gold.Chemscore.DEClash.Weighted>
0.0270

> <Gold.Chemscore.DEInternal.Weighted>
1.2471

> <Gold.Chemscore.Rot.Weighted>
7.0627

> <Gold.Chemscore.Internal.Correction.Weighted>
   9.000000E+99

> <Gold.Protein.RotatedTorsions>
[ 6907 6896 6895 6894 ] final    5.85 input  -60.11 | X-H torsion
[ 7974 7965 7964 7962 ] final   25.50 input  175.53 | X-H torsion
[ 8008 7997 7996 7995 ] final  -70.55 input   59.86 | X-H torsion
[ 10167 10162 10161 10158 ] final   46.93 input  -65.29 | X-H torsion
[ 10718 10713 10712 10709 ] final -134.34 input   66.30 | X-H torsion
[ 10763 10752 10751 10750 ] final  124.79 input  -60.55 | X-H torsion
[ 11005 11000 10999 10996 ] final  173.68 input  -57.11 | X-H torsion

> <Gold.Protein.ActiveResidues>
 VAL166  LYS551  ARG553  GLY616  TRP617  ASP618  TYR619  PRO620  LYS621  CYS622 
 ASP623  PHE694  ASN695  SER759  ASP760  ASP761  ALA762  ILE779  LEU786  VAL792 
 PHE793  MET794  SER795  GLU796  ALA797  LYS798  CYS799  TRP800  GLU811  SER814 

> <Gold.Protein.RotatedAtoms>
  151.6642  135.0985  160.0185 H   0  0  0  0  0  0  0  0  0  0  0  0  # atno 6907 bound_to 6896
  152.3929  133.6700  159.6260 H   0  0  0  0  0  0  0  0  0  0  0  0  # atno 6908 bound_to 6896
  150.7841  133.8841  159.3335 H   0  0  0  0  0  0  0  0  0  0  0  0  # atno 6909 bound_to 6896
  146.1885  139.7457  142.8849 H   0  0  0  0  0  0  0  0  0  0  0  0  # atno 7974 bound_to 7965
  154.5020  140.0832  156.7818 H   0  0  0  0  0  0  0  0  0  0  0  0  # atno 8008 bound_to 7997
  155.3980  140.3435  155.4237 H   0  0  0  0  0  0  0  0  0  0  0  0  # atno 8009 bound_to 7997
  156.1469  140.1546  156.8820 H   0  0  0  0  0  0  0  0  0  0  0  0  # atno 8010 bound_to 7997
  140.3089  144.2844  150.6204 H   0  0  0  0  0  0  0  0  0  0  0  0  # atno 10167 bound_to 10162
  156.2545  130.7173  151.1084 H   0  0  0  0  0  0  0  0  0  0  0  0  # atno 10718 bound_to 10713
  153.6670  135.3337  155.3143 H   0  0  0  0  0  0  0  0  0  0  0  0  # atno 10763 bound_to 10752
  154.8500  135.4377  154.1745 H   0  0  0  0  0  0  0  0  0  0  0  0  # atno 10764 bound_to 10752
  153.2726  135.7002  153.7541 H   0  0  0  0  0  0  0  0  0  0  0  0  # atno 10765 bound_to 10752
  140.3431  134.7259  157.4216 H   0  0  0  0  0  0  0  0  0  0  0  0  # atno 11005 bound_to 11000
  145.3865  141.0366  143.3148 LP  0  0  0  0  0  0  0  0  0  0  0  0  # atno 17320 bound_to 7965
  144.8442  139.5424  143.6886 LP  0  0  0  0  0  0  0  0  0  0  0  0  # atno 17321 bound_to 7965
  140.5586  143.2195  151.7805 LP  0  0  0  0  0  0  0  0  0  0  0  0  # atno 17342 bound_to 10162
  139.4898  144.4380  151.9797 LP  0  0  0  0  0  0  0  0  0  0  0  0  # atno 17343 bound_to 10162
  157.7227  131.0671  150.6066 LP  0  0  0  0  0  0  0  0  0  0  0  0  # atno 17370 bound_to 10713
  156.6149  130.4390  149.5844 LP  0  0  0  0  0  0  0  0  0  0  0  0  # atno 17371 bound_to 10713
  140.0764  134.5791  155.8586 LP  0  0  0  0  0  0  0  0  0  0  0  0  # atno 17394 bound_to 11000
  141.2033  133.6631  156.6055 LP  0  0  0  0  0  0  0  0  0  0  0  0  # atno 17395 bound_to 11000

$$$$
