AV-unprocessed.smi:1120|AV-procd|sdf|4820|dock3
  -GOLD-   22720 3373D 1   1.00000     0.00000
 Structure written by MMmdl.
 49 50  0  0  0  0  0  0  0  0  2 V2000
  149.5565  129.6576  154.5392 C   0  0  0  0  0  0  0  0  0  0  0  0
  149.2363  130.9780  155.2542 C   0  0  2  0  0  0  0  0  0  0  0  0
  148.9016  132.0972  154.2490 C   0  0  0  0  0  0  0  0  0  0  0  0
  148.5807  133.4214  154.9610 C   0  0  0  0  0  0  0  0  0  0  0  0
  149.7309  133.8473  155.8889 C   0  0  1  0  0  0  0  0  0  0  0  0
  149.3641  135.0710  156.6041 N   0  0  0  0  0  0  0  0  0  0  0  0
  150.3512  136.4868  156.5432 S   0  0  0  0  0  0  0  0  0  0  0  0
  150.1428  137.2148  157.8042 O   0  0  0  0  0  0  0  0  0  0  0  0
  151.7012  136.0545  156.1487 O   0  0  0  0  0  0  0  0  0  0  0  0
  149.5972  137.4675  155.1654 C   0  0  0  0  0  0  0  0  0  0  0  0
  150.2929  138.8198  155.0149 C   0  0  0  0  0  0  0  0  0  0  0  0
  150.4614  139.3049  153.8966 O   0  0  0  0  0  0  0  0  0  0  0  0
  150.6962  139.4177  156.1464 N   0  0  0  0  0  0  0  0  0  0  0  0
  151.3595  140.7135  156.2164 C   0  0  0  0  0  0  0  0  0  0  0  0
  150.4680  141.7715  156.8884 C   0  0  0  0  0  0  0  0  0  0  0  0
  151.2424  142.6342  157.8652 C   0  0  0  0  0  0  0  0  0  0  0  0
  151.9668  142.0810  158.9431 C   0  0  0  0  0  0  0  0  0  0  0  0
  152.6575  142.9409  159.8226 C   0  0  0  0  0  0  0  0  0  0  0  0
  152.6082  144.3337  159.6069 C   0  0  0  0  0  0  0  0  0  0  0  0
  151.8679  144.8322  158.5155 C   0  0  0  0  0  0  0  0  0  0  0  0
  151.2197  143.9762  157.6952 N   0  3  0  0  0  0  0  0  0  0  0  0
  150.0775  132.7351  156.8945 C   0  0  0  0  0  0  0  0  0  0  0  0
  150.3910  131.4121  156.1779 C   0  0  0  0  0  0  0  0  0  0  0  0
  150.4353  129.7543  153.9010 H   0  0  0  0  0  0  0  0  0  0  0  0
  148.7238  129.3384  153.9122 H   0  0  0  0  0  0  0  0  0  0  0  0
  149.7524  128.8601  155.2567 H   0  0  0  0  0  0  0  0  0  0  0  0
  148.3549  130.8094  155.8747 H   0  0  0  0  0  0  0  0  0  0  0  0
  149.7416  132.2458  153.5691 H   0  0  0  0  0  0  0  0  0  0  0  0
  148.0533  131.8023  153.6305 H   0  0  0  0  0  0  0  0  0  0  0  0
  148.3895  134.1999  154.2213 H   0  0  0  0  0  0  0  0  0  0  0  0
  147.6608  133.3088  155.5367 H   0  0  0  0  0  0  0  0  0  0  0  0
  150.6097  134.0493  155.2753 H   0  0  0  0  0  0  0  0  0  0  0  0
  148.8292  134.9487  157.4633 H   0  0  0  0  0  0  0  0  0  0  0  0
  149.6322  136.8924  154.2408 H   0  0  0  0  0  0  0  0  0  0  0  0
  148.5476  137.6309  155.4111 H   0  0  0  0  0  0  0  0  0  0  0  0
  150.5242  138.9440  157.0214 H   0  0  0  0  0  0  0  0  0  0  0  0
  152.2827  140.5887  156.7829 H   0  0  0  0  0  0  0  0  0  0  0  0
  151.6490  141.0367  155.2150 H   0  0  0  0  0  0  0  0  0  0  0  0
  150.0114  142.4165  156.1364 H   0  0  0  0  0  0  0  0  0  0  0  0
  149.6453  141.2871  157.4163 H   0  0  0  0  0  0  0  0  0  0  0  0
  151.9916  141.0119  159.0971 H   0  0  0  0  0  0  0  0  0  0  0  0
  153.2171  142.5361  160.6532 H   0  0  0  0  0  0  0  0  0  0  0  0
  153.1296  145.0091  160.2693 H   0  0  0  0  0  0  0  0  0  0  0  0
  151.7748  145.8813  158.2756 H   0  0  0  0  0  0  0  0  0  0  0  0
  150.9328  133.0301  157.5023 H   0  0  0  0  0  0  0  0  0  0  0  0
  149.2448  132.5847  157.5830 H   0  0  0  0  0  0  0  0  0  0  0  0
  150.5892  130.6356  156.9176 H   0  0  0  0  0  0  0  0  0  0  0  0
  151.3070  131.5238  155.5958 H   0  0  0  0  0  0  0  0  0  0  0  0
  150.6898  144.3595  156.9123 H   0  0  0  0  0  0  0  0  0  0  0  0
  1  2  1  0  0  0  0
  1 24  1  0  0  0  0
  1 25  1  0  0  0  0
  1 26  1  0  0  0  0
  2 23  1  0  0  0  0
  2  3  1  0  0  0  0
  2 27  1  0  0  0  0
  3  4  1  0  0  0  0
  3 28  1  0  0  0  0
  3 29  1  0  0  0  0
  4  5  1  0  0  0  0
  4 30  1  0  0  0  0
  4 31  1  0  0  0  0
  5  6  1  0  0  0  0
  5 22  1  0  0  0  0
  5 32  1  0  0  0  0
  6  7  1  0  0  0  0
  6 33  1  0  0  0  0
  7  8  2  0  0  0  0
  7  9  2  0  0  0  0
  7 10  1  0  0  0  0
 10 11  1  0  0  0  0
 10 34  1  0  0  0  0
 10 35  1  0  0  0  0
 11 12  2  0  0  0  0
 11 13  1  0  0  0  0
 13 14  1  0  0  0  0
 13 36  1  0  0  0  0
 14 15  1  0  0  0  0
 14 37  1  0  0  0  0
 14 38  1  0  0  0  0
 15 16  1  0  0  0  0
 15 39  1  0  0  0  0
 15 40  1  0  0  0  0
 16 21  1  0  0  0  0
 16 17  2  0  0  0  0
 17 18  1  0  0  0  0
 17 41  1  0  0  0  0
 18 19  2  0  0  0  0
 18 42  1  0  0  0  0
 19 20  1  0  0  0  0
 19 43  1  0  0  0  0
 20 21  2  0  0  0  0
 20 44  1  0  0  0  0
 21 49  1  0  0  0  0
 22 23  1  0  0  0  0
 22 45  1  0  0  0  0
 22 46  1  0  0  0  0
 23 47  1  0  0  0  0
 23 48  1  0  0  0  0
M  CHG  1  21   1
M  END
> <s_m_source_file>
AV-unprocessed.smi

> <i_m_source_file_index>
1120

> <i_lp_mmshare_version>
43012

> <i_f3d_flags>
0

> <s_epik_input>
W0NIM11bQ0BASF0xW0NIMl1bQ0gyXVtDQEhdKFtDSDJdW0NIMl0xKVtOSF1TKD1PKSg9TylbQ0gyXUMoPU8pW05IXVtDSDJdW0NIMl1jMltjSF1bY0hdW2NIXVtjSF1uMg==

> <s_epik_cmdline>
J2VwaWtfcHl0aG9uJywgJy1waCcsICc3LjAnLCAnLXRuJywgJzgnLCAnLW1hJywgJzIwMCcsICctbWV0YWxfYmluZGluZycsICctaW1hZScsICc8aW5maWxlLm1hZT4nLCAnLW9tYWUnLCAnPG91dGZpbGUubWFlPic=

> <r_epik_Ionization_Penalty>
1.97387

> <r_epik_Ionization_Penalty_Charging>
1.97382

> <r_epik_Ionization_Penalty_Neutral>
4.57635e-05

> <r_epik_State_Penalty>
2.10057

> <r_epik_Charging_Adjusted_Penalty>
4.07439

> <i_epik_Tot_Q>
1

> <i_epik_Tot_abs_Q>
1

> <r_epik_Metal_State_Penalty>
2.15877

> <b_epik_Metal_Only>
0

> <s_lp_Force_Field>
OPLS_2005

> <r_lp_Energy>
9.01473

> <b_lp_Chiralities_Consistent>
1

> <s_lp_Variant>
AV-unprocessed.smi:1120-3

> <Gold.Version>
5.8.1

> <Gold.Id.Protein>
6NUR|6NUR_protein|mol2

> <Gold.PLP.Fitness>
53.2285

> <Gold.PLP.PLP>
-42.5959

> <Gold.PLP.part.hbond>
-3.0000

> <Gold.PLP.part.metal>
0.0000

> <Gold.PLP.part.buried>
-5.8637

> <Gold.PLP.part.nonpolar>
-35.7875

> <Gold.PLP.part.repulsive>
2.2087

> <Gold.PLP.ligand.clash>
0.0000

> <Gold.PLP.ligand.torsion>
1.2861

> <Gold.PLP.Chemscore.Hbond>
4.0000

> <Gold.PLP.Chemscore.CHOScore>
0.0000

> <Gold.PLP.Chemscore.Metal>
0.0000

> <Gold.Chemscore.Hbonds>
donor molecule, donor type, donor heavy atom, donor atom, acceptor molecule, acceptor atom, score
      L1  H    21    49       P1  8028  1.17
      P1  H  7989  7998       L1    12  1.00
      P1  H 10752 10765       L1     9  1.00

> <Gold.PLP.Chemscore.Internal.Correction>
1.2049

> <Gold.Rescore>
     Score         DG    S(hbond)    S(metal)    S(lipo)     H(rot)  DE(clash)    DE(int)     intcor
     21.26     -22.85       2.96        0.00     108.83       2.05       0.36       1.23       ----

> <Gold.Chemscore.Fitness>
21.2613

> <Gold.Chemscore.DG>
-22.8497

> <Gold.Chemscore.ZeroCoef>
-5.4800

> <Gold.Chemscore.Hbond>
2.9565

> <Gold.Chemscore.Metal>
0.0000

> <Gold.Chemscore.Lipo>
108.8341

> <Gold.Chemscore.Internal_Hbond>
0.0000

> <Gold.Chemscore.DEClash>
0.3597

> <Gold.Chemscore.DEInternal>
1.2287

> <Gold.Chemscore.Rot>
2.0463

> <Gold.Chemscore.Internal.Correction>
   9.000000E+99

> <Gold.Chemscore.Hbonds>
donor molecule, donor type, donor heavy atom, donor atom, acceptor molecule, acceptor atom, score
      L1  H    21    49       P1  8028  0.55
      P1  H  7989  7998       L1    12  0.94
      P1  H 10752 10765       L1     9  0.98

> <Gold.Chemscore.Hbond.Weighted>
-9.8747

> <Gold.Chemscore.Metal.Weighted>
-0.0000

> <Gold.Chemscore.Lipo.Weighted>
-12.7336

> <Gold.Chemscore.Internal_Hbond.Weighted>
0.0000

> <Gold.Chemscore.DEClash.Weighted>
0.3597

> <Gold.Chemscore.DEInternal.Weighted>
1.2287

> <Gold.Chemscore.Rot.Weighted>
5.2386

> <Gold.Chemscore.Internal.Correction.Weighted>
   9.000000E+99

> <Gold.Protein.RotatedTorsions>
[ 6907 6896 6895 6894 ] final  -56.52 input  -60.11 | X-H torsion
[ 7974 7965 7964 7962 ] final -173.40 input  175.53 | X-H torsion
[ 8008 7997 7996 7995 ] final   48.19 input   59.86 | X-H torsion
[ 10167 10162 10161 10158 ] final  -16.73 input  -65.29 | X-H torsion
[ 10718 10713 10712 10709 ] final  -24.00 input   66.30 | X-H torsion
[ 10763 10752 10751 10750 ] final -138.91 input  -60.55 | X-H torsion
[ 11005 11000 10999 10996 ] final   26.85 input  -57.11 | X-H torsion

> <Gold.Protein.ActiveResidues>
 VAL166  LYS551  ARG553  GLY616  TRP617  ASP618  TYR619  PRO620  LYS621  CYS622 
 ASP623  PHE694  ASN695  SER759  ASP760  ASP761  ALA762  ILE779  LEU786  VAL792 
 PHE793  MET794  SER795  GLU796  ALA797  LYS798  CYS799  TRP800  GLU811  SER814 

> <Gold.Protein.RotatedAtoms>
  150.8161  134.7343  159.6730 H   0  0  0  0  0  0  0  0  0  0  0  0  # atno 6907 bound_to 6896
  152.4279  134.5829  159.9963 H   0  0  0  0  0  0  0  0  0  0  0  0  # atno 6908 bound_to 6896
  151.6026  133.3317  159.3086 H   0  0  0  0  0  0  0  0  0  0  0  0  # atno 6909 bound_to 6896
  144.7138  140.1627  143.6374 H   0  0  0  0  0  0  0  0  0  0  0  0  # atno 7974 bound_to 7965
  155.3816  140.3429  155.4247 H   0  0  0  0  0  0  0  0  0  0  0  0  # atno 8008 bound_to 7997
  156.1607  140.1600  156.8650 H   0  0  0  0  0  0  0  0  0  0  0  0  # atno 8009 bound_to 7997
  154.5137  140.0783  156.8022 H   0  0  0  0  0  0  0  0  0  0  0  0  # atno 8010 bound_to 7997
  140.7238  143.5087  150.9778 H   0  0  0  0  0  0  0  0  0  0  0  0  # atno 10167 bound_to 10162
  156.4835  130.4550  149.6797 H   0  0  0  0  0  0  0  0  0  0  0  0  # atno 10718 bound_to 10713
  154.8624  135.3598  154.5462 H   0  0  0  0  0  0  0  0  0  0  0  0  # atno 10763 bound_to 10752
  153.6082  135.7010  153.5362 H   0  0  0  0  0  0  0  0  0  0  0  0  # atno 10764 bound_to 10752
  153.3232  135.4145  155.1395 H   0  0  0  0  0  0  0  0  0  0  0  0  # atno 10765 bound_to 10752
  140.3326  134.2421  155.7700 H   0  0  0  0  0  0  0  0  0  0  0  0  # atno 11005 bound_to 11000
  145.9015  139.2433  143.1490 LP  0  0  0  0  0  0  0  0  0  0  0  0  # atno 17320 bound_to 7965
  145.9806  140.8686  143.0116 LP  0  0  0  0  0  0  0  0  0  0  0  0  # atno 17321 bound_to 7965
  139.8799  143.7085  152.3158 LP  0  0  0  0  0  0  0  0  0  0  0  0  # atno 17342 bound_to 10162
  139.7363  144.7570  151.0722 LP  0  0  0  0  0  0  0  0  0  0  0  0  # atno 17343 bound_to 10162
  156.3498  130.7426  151.2383 LP  0  0  0  0  0  0  0  0  0  0  0  0  # atno 17370 bound_to 10713
  157.7481  131.0380  150.4484 LP  0  0  0  0  0  0  0  0  0  0  0  0  # atno 17371 bound_to 10713
  141.2059  133.7846  157.0204 LP  0  0  0  0  0  0  0  0  0  0  0  0  # atno 17394 bound_to 11000
  140.0848  134.9627  157.1683 LP  0  0  0  0  0  0  0  0  0  0  0  0  # atno 17395 bound_to 11000

$$$$
