AV-unprocessed.smi:2151|AV-procd|sdf|8760|dock8
  -GOLD-   2272011533D 1   1.00000     0.00000
 Structure written by MMmdl.
 39 40  0  0  0  0  0  0  0  0  1 V2000
  149.5029  141.3062  154.4271 C   0  0  0  0  0  0  0  0  0  0  0  0
  149.9235  140.8355  155.8271 C   0  0  2  0  0  0  0  0  0  0  0  0
  150.7193  141.8859  156.4598 N   0  0  0  0  0  0  0  0  0  0  0  0
  150.5749  142.3361  157.7159 C   0  0  0  0  0  0  0  0  0  0  0  0
  149.7079  141.9261  158.4887 O   0  0  0  0  0  0  0  0  0  0  0  0
  151.5644  143.4245  158.1552 C   0  0  0  0  0  0  0  0  0  0  0  0
  152.1546  143.1689  159.4798 N   0  0  0  0  0  0  0  0  0  0  0  0
  153.0060  142.0531  159.5992 C   0  0  0  0  0  0  0  0  0  0  0  0
  153.6021  141.7062  160.7561 C   0  0  0  0  0  0  0  0  0  0  0  0
  154.5693  140.5353  160.8383 C   0  0  0  0  0  0  0  0  0  0  0  0
  153.9718  139.3943  160.4942 F   0  0  0  0  0  0  0  0  0  0  0  0
  155.5926  140.7342  160.0087 F   0  0  0  0  0  0  0  0  0  0  0  0
  155.0563  140.3976  162.0722 F   0  0  0  0  0  0  0  0  0  0  0  0
  153.3484  142.5660  161.8955 C   0  0  0  0  0  0  0  0  0  0  0  0
  152.5480  143.6454  161.7949 C   0  0  0  0  0  0  0  0  0  0  0  0
  151.8960  144.0015  160.5328 C   0  0  0  0  0  0  0  0  0  0  0  0
  151.1651  144.9872  160.4276 O   0  0  0  0  0  0  0  0  0  0  0  0
  150.7228  139.5168  155.7726 C   0  0  1  0  0  0  0  0  0  0  0  0
  149.9660  138.3214  155.1876 C   0  0  0  0  0  0  0  0  0  0  0  0
  151.1019  137.4382  154.7264 C   0  0  0  0  0  0  0  0  0  0  0  0
  152.0924  138.4653  154.1871 C   0  0  0  0  0  0  0  0  0  0  0  0
  151.8683  139.6584  154.9346 O   0  0  0  0  0  0  0  0  0  0  0  0
  148.8788  140.5616  153.9325 H   0  0  0  0  0  0  0  0  0  0  0  0
  150.3699  141.4880  153.7909 H   0  0  0  0  0  0  0  0  0  0  0  0
  148.9276  142.2310  154.4802 H   0  0  0  0  0  0  0  0  0  0  0  0
  149.0124  140.6617  156.4025 H   0  0  0  0  0  0  0  0  0  0  0  0
  151.4577  142.2879  155.9006 H   0  0  0  0  0  0  0  0  0  0  0  0
  152.3553  143.5215  157.4087 H   0  0  0  0  0  0  0  0  0  0  0  0
  151.0422  144.3821  158.1437 H   0  0  0  0  0  0  0  0  0  0  0  0
  153.1554  141.5019  158.6821 H   0  0  0  0  0  0  0  0  0  0  0  0
  153.8057  142.3396  162.8473 H   0  0  0  0  0  0  0  0  0  0  0  0
  152.3809  144.2633  162.6652 H   0  0  0  0  0  0  0  0  0  0  0  0
  151.0757  139.2527  156.7711 H   0  0  0  0  0  0  0  0  0  0  0  0
  149.3120  137.8335  155.9110 H   0  0  0  0  0  0  0  0  0  0  0  0
  149.3624  138.6280  154.3321 H   0  0  0  0  0  0  0  0  0  0  0  0
  151.5333  136.9092  155.5773 H   0  0  0  0  0  0  0  0  0  0  0  0
  150.8007  136.7018  153.9808 H   0  0  0  0  0  0  0  0  0  0  0  0
  153.1259  138.1291  154.2732 H   0  0  0  0  0  0  0  0  0  0  0  0
  151.8906  138.6742  153.1358 H   0  0  0  0  0  0  0  0  0  0  0  0
  1  2  1  0  0  0  0
  1 23  1  0  0  0  0
  1 24  1  0  0  0  0
  1 25  1  0  0  0  0
  2  3  1  0  0  0  0
  2 18  1  0  0  0  0
  2 26  1  0  0  0  0
  3  4  1  0  0  0  0
  3 27  1  0  0  0  0
  4  5  2  0  0  0  0
  4  6  1  0  0  0  0
  6  7  1  0  0  0  0
  6 28  1  0  0  0  0
  6 29  1  0  0  0  0
  7 16  1  0  0  0  0
  7  8  1  0  0  0  0
  8  9  2  0  0  0  0
  8 30  1  0  0  0  0
  9 10  1  0  0  0  0
  9 14  1  0  0  0  0
 10 11  1  0  0  0  0
 10 12  1  0  0  0  0
 10 13  1  0  0  0  0
 14 15  2  0  0  0  0
 14 31  1  0  0  0  0
 15 16  1  0  0  0  0
 15 32  1  0  0  0  0
 16 17  2  0  0  0  0
 18 22  1  0  0  0  0
 18 19  1  0  0  0  0
 18 33  1  0  0  0  0
 19 20  1  0  0  0  0
 19 34  1  0  0  0  0
 19 35  1  0  0  0  0
 20 21  1  0  0  0  0
 20 36  1  0  0  0  0
 20 37  1  0  0  0  0
 21 22  1  0  0  0  0
 21 38  1  0  0  0  0
 21 39  1  0  0  0  0
M  END
> <s_m_source_file>
AV-unprocessed.smi

> <i_m_source_file_index>
2151

> <i_lp_mmshare_version>
43012

> <i_f3d_flags>
0

> <s_epik_input>
TzFbQ0gyXVtDSDJdW0NIMl1bQ0BIXTFbQ0BIXShbQ0gzXSlbTkhdQyg9TylbQ0gyXW4yW2NIXWMoQyhGKShGKUYpW2NIXVtjSF1jMj1P

> <s_epik_cmdline>
J2VwaWtfcHl0aG9uJywgJy1waCcsICc3LjAnLCAnLXRuJywgJzgnLCAnLW1hJywgJzIwMCcsICctbWV0YWxfYmluZGluZycsICctaW1hZScsICc8aW5maWxlLm1hZT4nLCAnLW9tYWUnLCAnPG91dGZpbGUubWFlPic=

> <r_lp_tautomer_probability>
1

> <r_epik_Ionization_Penalty>
4.20109e-08

> <r_epik_Ionization_Penalty_Charging>
1.89977e-08

> <r_epik_Ionization_Penalty_Neutral>
2.30132e-08

> <r_epik_State_Penalty>
-0

> <r_epik_Charging_Adjusted_Penalty>
1.89977e-08

> <i_epik_Tot_Q>
0

> <i_epik_Tot_abs_Q>
0

> <r_epik_Metal_State_Penalty>
-0

> <b_epik_Metal_Only>
0

> <s_lp_Force_Field>
OPLS_2005

> <r_lp_Energy>
29.4657

> <b_lp_Chiralities_Consistent>
1

> <s_lp_Variant>
AV-unprocessed.smi:2151-3

> <Gold.Version>
5.8.1

> <Gold.Id.Protein>
6NUR|6NUR_protein|mol2

> <Gold.PLP.Fitness>
53.4369

> <Gold.PLP.PLP>
-51.1989

> <Gold.PLP.part.hbond>
-1.0493

> <Gold.PLP.part.metal>
0.0000

> <Gold.PLP.part.buried>
-5.1239

> <Gold.PLP.part.nonpolar>
-43.7353

> <Gold.PLP.part.repulsive>
0.3816

> <Gold.PLP.ligand.clash>
0.0000

> <Gold.PLP.ligand.torsion>
0.4173

> <Gold.PLP.Chemscore.Hbond>
1.0000

> <Gold.PLP.Chemscore.CHOScore>
0.0000

> <Gold.PLP.Chemscore.Metal>
0.0000

> <Gold.Chemscore.Hbonds>
donor molecule, donor type, donor heavy atom, donor atom, acceptor molecule, acceptor atom, score
      P1  H  7989  7998       L1    22  0.94

> <Gold.PLP.Chemscore.Internal.Correction>
0.0727

> <Gold.Rescore>
     Score         DG    S(hbond)    S(metal)    S(lipo)     H(rot)  DE(clash)    DE(int)     intcor
     12.89     -13.69       0.15        0.00     105.76       1.82       0.37       0.43       ----

> <Gold.Chemscore.Fitness>
12.8940

> <Gold.Chemscore.DG>
-13.6910

> <Gold.Chemscore.ZeroCoef>
-5.4800

> <Gold.Chemscore.Hbond>
0.1507

> <Gold.Chemscore.Metal>
0.0000

> <Gold.Chemscore.Lipo>
105.7615

> <Gold.Chemscore.Internal_Hbond>
0.0000

> <Gold.Chemscore.DEClash>
0.3695

> <Gold.Chemscore.DEInternal>
0.4275

> <Gold.Chemscore.Rot>
1.8228

> <Gold.Chemscore.Internal.Correction>
   9.000000E+99

> <Gold.Chemscore.Hbonds>
donor molecule, donor type, donor heavy atom, donor atom, acceptor molecule, acceptor atom, score
      P1  H  7989  7998       L1    22  0.18

> <Gold.Chemscore.Hbond.Weighted>
-0.5033

> <Gold.Chemscore.Metal.Weighted>
-0.0000

> <Gold.Chemscore.Lipo.Weighted>
-12.3741

> <Gold.Chemscore.Internal_Hbond.Weighted>
0.0000

> <Gold.Chemscore.DEClash.Weighted>
0.3695

> <Gold.Chemscore.DEInternal.Weighted>
0.4275

> <Gold.Chemscore.Rot.Weighted>
4.6665

> <Gold.Chemscore.Internal.Correction.Weighted>
   9.000000E+99

> <Gold.Protein.RotatedTorsions>
[ 6907 6896 6895 6894 ] final -157.35 input  -60.11 | X-H torsion
[ 7974 7965 7964 7962 ] final -136.24 input  175.53 | X-H torsion
[ 8008 7997 7996 7995 ] final  -62.70 input   59.86 | X-H torsion
[ 10167 10162 10161 10158 ] final  177.90 input  -65.29 | X-H torsion
[ 10718 10713 10712 10709 ] final -117.11 input   66.30 | X-H torsion
[ 10763 10752 10751 10750 ] final -110.40 input  -60.55 | X-H torsion
[ 11005 11000 10999 10996 ] final  -20.74 input  -57.11 | X-H torsion

> <Gold.Protein.ActiveResidues>
 VAL166  LYS551  ARG553  GLY616  TRP617  ASP618  TYR619  PRO620  LYS621  CYS622 
 ASP623  PHE694  ASN695  SER759  ASP760  ASP761  ALA762  ILE779  LEU786  VAL792 
 PHE793  MET794  SER795  GLU796  ALA797  LYS798  CYS799  TRP800  GLU811  SER814 

> <Gold.Protein.RotatedAtoms>
  151.3015  133.4120  159.2639 H   0  0  0  0  0  0  0  0  0  0  0  0  # atno 6907 bound_to 6896
  151.0191  134.9456  159.8060 H   0  0  0  0  0  0  0  0  0  0  0  0  # atno 6908 bound_to 6896
  152.5320  134.2978  159.9119 H   0  0  0  0  0  0  0  0  0  0  0  0  # atno 6909 bound_to 6896
  144.8944  140.6687  143.5124 H   0  0  0  0  0  0  0  0  0  0  0  0  # atno 7974 bound_to 7965
  154.4514  140.0990  156.6629 H   0  0  0  0  0  0  0  0  0  0  0  0  # atno 8008 bound_to 7997
  155.5273  140.3480  155.4400 H   0  0  0  0  0  0  0  0  0  0  0  0  # atno 8009 bound_to 7997
  156.0688  140.1344  156.9842 H   0  0  0  0  0  0  0  0  0  0  0  0  # atno 8010 bound_to 7997
  139.5272  144.2743  152.0601 H   0  0  0  0  0  0  0  0  0  0  0  0  # atno 10167 bound_to 10162
  156.1011  130.6172  150.9122 H   0  0  0  0  0  0  0  0  0  0  0  0  # atno 10718 bound_to 10713
  154.8246  135.4565  154.0880 H   0  0  0  0  0  0  0  0  0  0  0  0  # atno 10763 bound_to 10752
  153.2205  135.6893  153.8012 H   0  0  0  0  0  0  0  0  0  0  0  0  # atno 10764 bound_to 10752
  153.7431  135.3309  155.3284 H   0  0  0  0  0  0  0  0  0  0  0  0  # atno 10765 bound_to 10752
  140.8494  133.7868  155.9949 H   0  0  0  0  0  0  0  0  0  0  0  0  # atno 11005 bound_to 11000
  145.3725  139.1655  143.4324 LP  0  0  0  0  0  0  0  0  0  0  0  0  # atno 17320 bound_to 7965
  146.3073  140.3798  142.8683 LP  0  0  0  0  0  0  0  0  0  0  0  0  # atno 17321 bound_to 7965
  140.2201  144.4475  150.6346 LP  0  0  0  0  0  0  0  0  0  0  0  0  # atno 17342 bound_to 10162
  140.6424  143.2206  151.6261 LP  0  0  0  0  0  0  0  0  0  0  0  0  # atno 17343 bound_to 10162
  157.6181  131.0932  150.8674 LP  0  0  0  0  0  0  0  0  0  0  0  0  # atno 17370 bound_to 10713
  156.8801  130.5176  149.5291 LP  0  0  0  0  0  0  0  0  0  0  0  0  # atno 17371 bound_to 10713
  140.8807  134.2615  157.5145 LP  0  0  0  0  0  0  0  0  0  0  0  0  # atno 17394 bound_to 11000
  139.8704  134.9613  156.4393 LP  0  0  0  0  0  0  0  0  0  0  0  0  # atno 17395 bound_to 11000

$$$$
