AV-unprocessed.smi:1632|AV-procd|sdf|6530|dock2
  -GOLD-   22720 7213D 1   1.00000     0.00000
 Structure written by MMmdl.
 43 45  0  0  0  0  0  0  0  0  2 V2000
  150.9215  135.5658  154.6439 O   0  0  0  0  0  0  0  0  0  0  0  0
  150.7076  136.8732  155.1274 C   0  0  0  0  0  0  0  0  0  0  0  0
  151.5486  137.8694  154.3138 C   0  0  0  0  0  0  0  0  0  0  0  0
  151.6370  139.2676  154.9476 C   0  0  0  0  0  0  0  0  0  0  0  0
  150.3305  139.9953  154.9064 C   0  0  0  0  0  0  0  0  0  0  0  0
  149.5473  140.1580  153.8031 N   0  3  0  0  0  0  0  0  0  0  0  0
  148.4125  140.8994  154.1331 C   0  0  0  0  0  0  0  0  0  0  0  0
  147.3371  141.3132  153.3531 C   0  0  0  0  0  0  0  0  0  0  0  0
  146.3340  142.0608  154.0040 C   0  0  0  0  0  0  0  0  0  0  0  0
  146.4224  142.3684  155.3772 C   0  0  0  0  0  0  0  0  0  0  0  0
  147.5178  141.9433  156.1573 C   0  0  0  0  0  0  0  0  0  0  0  0
  148.5072  141.2066  155.5057 C   0  0  0  0  0  0  0  0  0  0  0  0
  149.7078  140.6314  155.9408 N   0  0  0  0  0  0  0  0  0  0  0  0
  150.1121  140.7750  157.3490 C   0  0  0  0  0  0  0  0  0  0  0  0
  150.4837  142.2248  157.7219 C   0  0  2  0  0  0  0  0  0  0  0  0
  150.9244  142.9334  156.5800 O   0  0  0  0  0  0  0  0  0  0  0  0
  151.4988  142.2677  158.8554 C   0  0  0  0  0  0  0  0  0  0  0  0
  152.0565  141.0630  159.3364 C   0  0  0  0  0  0  0  0  0  0  0  0
  153.0019  141.0817  160.3799 C   0  0  0  0  0  0  0  0  0  0  0  0
  153.3980  142.3064  160.9492 C   0  0  0  0  0  0  0  0  0  0  0  0
  152.8491  143.5121  160.4731 C   0  0  0  0  0  0  0  0  0  0  0  0
  151.9035  143.4963  159.4291 C   0  0  0  0  0  0  0  0  0  0  0  0
  151.3916  144.6678  158.9804 F   0  0  0  0  0  0  0  0  0  0  0  0
  150.8789  135.5823  153.6998 H   0  0  0  0  0  0  0  0  0  0  0  0
  149.6466  137.1109  155.0498 H   0  0  0  0  0  0  0  0  0  0  0  0
  150.9746  136.9020  156.1841 H   0  0  0  0  0  0  0  0  0  0  0  0
  152.5537  137.4704  154.1716 H   0  0  0  0  0  0  0  0  0  0  0  0
  151.1167  137.9662  153.3169 H   0  0  0  0  0  0  0  0  0  0  0  0
  151.9488  139.1779  155.9885 H   0  0  0  0  0  0  0  0  0  0  0  0
  152.4052  139.8591  154.4494 H   0  0  0  0  0  0  0  0  0  0  0  0
  147.2663  141.0767  152.3014 H   0  0  0  0  0  0  0  0  0  0  0  0
  145.4791  142.4038  153.4394 H   0  0  0  0  0  0  0  0  0  0  0  0
  145.6334  142.9408  155.8430 H   0  0  0  0  0  0  0  0  0  0  0  0
  147.5705  142.1790  157.2101 H   0  0  0  0  0  0  0  0  0  0  0  0
  149.2753  140.4402  157.9621 H   0  0  0  0  0  0  0  0  0  0  0  0
  150.9277  140.0838  157.5599 H   0  0  0  0  0  0  0  0  0  0  0  0
  149.5786  142.7319  158.0585 H   0  0  0  0  0  0  0  0  0  0  0  0
  150.3433  143.6655  156.4390 H   0  0  0  0  0  0  0  0  0  0  0  0
  151.7624  140.1167  158.9065 H   0  0  0  0  0  0  0  0  0  0  0  0
  153.4235  140.1559  160.7432 H   0  0  0  0  0  0  0  0  0  0  0  0
  154.1232  142.3211  161.7495 H   0  0  0  0  0  0  0  0  0  0  0  0
  153.1551  144.4519  160.9089 H   0  0  0  0  0  0  0  0  0  0  0  0
  149.7761  139.7877  152.8896 H   0  0  0  0  0  0  0  0  0  0  0  0
  1  2  1  0  0  0  0
  1 24  1  0  0  0  0
  2  3  1  0  0  0  0
  2 25  1  0  0  0  0
  2 26  1  0  0  0  0
  3  4  1  0  0  0  0
  3 27  1  0  0  0  0
  3 28  1  0  0  0  0
  4  5  1  0  0  0  0
  4 29  1  0  0  0  0
  4 30  1  0  0  0  0
  5 13  1  0  0  0  0
  5  6  2  0  0  0  0
  6  7  1  0  0  0  0
  6 43  1  0  0  0  0
  7 12  2  0  0  0  0
  7  8  1  0  0  0  0
  8  9  2  0  0  0  0
  8 31  1  0  0  0  0
  9 10  1  0  0  0  0
  9 32  1  0  0  0  0
 10 11  2  0  0  0  0
 10 33  1  0  0  0  0
 11 12  1  0  0  0  0
 11 34  1  0  0  0  0
 12 13  1  0  0  0  0
 13 14  1  0  0  0  0
 14 15  1  0  0  0  0
 14 35  1  0  0  0  0
 14 36  1  0  0  0  0
 15 16  1  0  0  0  0
 15 17  1  0  0  0  0
 15 37  1  0  0  0  0
 16 38  1  0  0  0  0
 17 22  1  0  0  0  0
 17 18  2  0  0  0  0
 18 19  1  0  0  0  0
 18 39  1  0  0  0  0
 19 20  2  0  0  0  0
 19 40  1  0  0  0  0
 20 21  1  0  0  0  0
 20 41  1  0  0  0  0
 21 22  2  0  0  0  0
 21 42  1  0  0  0  0
 22 23  1  0  0  0  0
M  CHG  1   6   1
M  END
> <s_m_source_file>
AV-unprocessed.smi

> <i_m_source_file_index>
1632

> <i_lp_mmshare_version>
43012

> <i_f3d_flags>
0

> <s_epik_input>
W09IXVtDSDJdW0NIMl1bQ0gyXWMobjEpbihjKGMxMilbY0hdW2NIXVtjSF1bY0hdMilbQ0gyXVtDQEhdKFtPSF0pYzNbY0hdW2NIXVtjSF1bY0hdYzNG

> <s_epik_cmdline>
J2VwaWtfcHl0aG9uJywgJy1waCcsICc3LjAnLCAnLXRuJywgJzgnLCAnLW1hJywgJzIwMCcsICctbWV0YWxfYmluZGluZycsICctaW1hZScsICc8aW5maWxlLm1hZT4nLCAnLW9tYWUnLCAnPG91dGZpbGUubWFlPic=

> <r_epik_Ionization_Penalty>
0.786441

> <r_epik_Ionization_Penalty_Charging>
0.786439

> <r_epik_Ionization_Penalty_Neutral>
1.50852e-06

> <r_epik_State_Penalty>
0.816472

> <r_epik_Charging_Adjusted_Penalty>
1.60291

> <i_epik_Tot_Q>
1

> <i_epik_Tot_abs_Q>
1

> <r_epik_Metal_State_Penalty>
4.73733

> <b_epik_Metal_Only>
0

> <s_lp_Force_Field>
OPLS_2005

> <r_lp_Energy>
17.2969

> <b_lp_Chiralities_Consistent>
1

> <s_lp_Variant>
AV-unprocessed.smi:1632-3

> <Gold.Version>
5.8.1

> <Gold.Id.Protein>
6NUR|6NUR_protein|mol2

> <Gold.PLP.Fitness>
62.0484

> <Gold.PLP.PLP>
-52.1078

> <Gold.PLP.part.hbond>
-4.3860

> <Gold.PLP.part.metal>
0.0000

> <Gold.PLP.part.buried>
-3.5489

> <Gold.PLP.part.nonpolar>
-44.1871

> <Gold.PLP.part.repulsive>
1.0661

> <Gold.PLP.ligand.clash>
0.0000

> <Gold.PLP.ligand.torsion>
0.6475

> <Gold.PLP.Chemscore.Hbond>
3.7000

> <Gold.PLP.Chemscore.CHOScore>
0.0000

> <Gold.PLP.Chemscore.Metal>
0.0000

> <Gold.Chemscore.Hbonds>
donor molecule, donor type, donor heavy atom, donor atom, acceptor molecule, acceptor atom, score
      L1  H     1    24       P1  7949  0.32
      L1  H     6    43       P1  7957  0.90
      L1  H    16    38       P1  8028  1.00
      P1  H 10752 10765       L1     1  0.52

> <Gold.PLP.Chemscore.Internal.Correction>
0.1356

> <Gold.Rescore>
     Score         DG    S(hbond)    S(metal)    S(lipo)     H(rot)  DE(clash)    DE(int)     intcor
     18.76     -20.58       2.45        0.00     128.18       3.16       0.53       1.29       ----

> <Gold.Chemscore.Fitness>
18.7576

> <Gold.Chemscore.DG>
-20.5773

> <Gold.Chemscore.ZeroCoef>
-5.4800

> <Gold.Chemscore.Hbond>
2.4522

> <Gold.Chemscore.Metal>
0.0000

> <Gold.Chemscore.Lipo>
128.1841

> <Gold.Chemscore.Internal_Hbond>
0.0000

> <Gold.Chemscore.DEClash>
0.5306

> <Gold.Chemscore.DEInternal>
1.2891

> <Gold.Chemscore.Rot>
3.1604

> <Gold.Chemscore.Internal.Correction>
   9.000000E+99

> <Gold.Chemscore.Hbonds>
donor molecule, donor type, donor heavy atom, donor atom, acceptor molecule, acceptor atom, score
      L1  H     1    24       P1  7949  0.03
      L1  H     6    43       P1  7957  0.88
      L1  H    16    38       P1  8028  0.98
      P1  H 10752 10765       L1     1  0.01

> <Gold.Chemscore.Hbond.Weighted>
-8.1905

> <Gold.Chemscore.Metal.Weighted>
-0.0000

> <Gold.Chemscore.Lipo.Weighted>
-14.9975

> <Gold.Chemscore.Internal_Hbond.Weighted>
0.0000

> <Gold.Chemscore.DEClash.Weighted>
0.5306

> <Gold.Chemscore.DEInternal.Weighted>
1.2891

> <Gold.Chemscore.Rot.Weighted>
8.0907

> <Gold.Chemscore.Internal.Correction.Weighted>
   9.000000E+99

> <Gold.Protein.RotatedTorsions>
[ 6907 6896 6895 6894 ] final -132.77 input  -60.11 | X-H torsion
[ 7974 7965 7964 7962 ] final -110.31 input  175.53 | X-H torsion
[ 8008 7997 7996 7995 ] final -127.51 input   59.86 | X-H torsion
[ 10167 10162 10161 10158 ] final -137.02 input  -65.29 | X-H torsion
[ 10718 10713 10712 10709 ] final  179.28 input   66.30 | X-H torsion
[ 10763 10752 10751 10750 ] final -178.44 input  -60.55 | X-H torsion
[ 11005 11000 10999 10996 ] final -164.25 input  -57.11 | X-H torsion

> <Gold.Protein.ActiveResidues>
 VAL166  LYS551  ARG553  GLY616  TRP617  ASP618  TYR619  PRO620  LYS621  CYS622 
 ASP623  PHE694  ASN695  SER759  ASP760  ASP761  ALA762  ILE779  LEU786  VAL792 
 PHE793  MET794  SER795  GLU796  ALA797  LYS798  CYS799  TRP800  GLU811  SER814 

> <Gold.Protein.RotatedAtoms>
  150.9662  133.6392  159.2745 H   0  0  0  0  0  0  0  0  0  0  0  0  # atno 6907 bound_to 6896
  151.3697  135.0919  159.9471 H   0  0  0  0  0  0  0  0  0  0  0  0  # atno 6908 bound_to 6896
  152.5166  133.9219  159.7593 H   0  0  0  0  0  0  0  0  0  0  0  0  # atno 6909 bound_to 6896
  145.1698  140.8920  143.3542 H   0  0  0  0  0  0  0  0  0  0  0  0  # atno 7974 bound_to 7965
  155.2473  140.0431  157.2982 H   0  0  0  0  0  0  0  0  0  0  0  0  # atno 8008 bound_to 7997
  154.5791  140.2395  155.8050 H   0  0  0  0  0  0  0  0  0  0  0  0  # atno 8009 bound_to 7997
  156.2179  140.2979  155.9892 H   0  0  0  0  0  0  0  0  0  0  0  0  # atno 8010 bound_to 7997
  139.8620  143.7065  152.2649 H   0  0  0  0  0  0  0  0  0  0  0  0  # atno 10167 bound_to 10162
  156.8780  130.9806  151.3065 H   0  0  0  0  0  0  0  0  0  0  0  0  # atno 10718 bound_to 10713
  154.5476  135.2810  155.1038 H   0  0  0  0  0  0  0  0  0  0  0  0  # atno 10763 bound_to 10752
  154.2496  135.6342  153.5239 H   0  0  0  0  0  0  0  0  0  0  0  0  # atno 10764 bound_to 10752
  152.9994  135.5579  154.6033 H   0  0  0  0  0  0  0  0  0  0  0  0  # atno 10765 bound_to 10752
  140.5890  134.5064  157.5190 H   0  0  0  0  0  0  0  0  0  0  0  0  # atno 11005 bound_to 11000
  145.0244  139.3395  143.6056 LP  0  0  0  0  0  0  0  0  0  0  0  0  # atno 17320 bound_to 7965
  146.3470  139.9558  142.8723 LP  0  0  0  0  0  0  0  0  0  0  0  0  # atno 17321 bound_to 7965
  139.7365  144.7570  151.0720 LP  0  0  0  0  0  0  0  0  0  0  0  0  # atno 17342 bound_to 10162
  140.7773  143.5024  150.9754 LP  0  0  0  0  0  0  0  0  0  0  0  0  # atno 17343 bound_to 10162
  157.6157  130.8616  149.9024 LP  0  0  0  0  0  0  0  0  0  0  0  0  # atno 17370 bound_to 10713
  156.0692  130.3687  150.0813 LP  0  0  0  0  0  0  0  0  0  0  0  0  # atno 17371 bound_to 10713
  139.9282  134.8014  156.1006 LP  0  0  0  0  0  0  0  0  0  0  0  0  # atno 17394 bound_to 11000
  141.0947  133.6700  156.2618 LP  0  0  0  0  0  0  0  0  0  0  0  0  # atno 17395 bound_to 11000

$$$$
