AV-unprocessed.smi:40|AV-procd|sdf|371|dock5
  -GOLD-   2262016213D 1   1.00000     0.00000
 Structure written by MMmdl.
 47 48  0  0  0  0  0  0  0  0  1 V2000
  151.5183  144.6416  159.9768 C   0  0  0  0  0  0  0  0  0  0  0  0
  152.3179  143.5239  160.6553 C   0  0  0  0  0  0  0  0  0  0  0  0
  152.7524  142.4284  159.6710 C   0  0  0  0  0  0  0  0  0  0  0  0
  153.2749  141.1723  160.3807 C   0  0  0  0  0  0  0  0  0  0  0  0
  153.8196  140.1298  159.3927 C   0  0  0  0  0  0  0  0  0  0  0  0
  153.2092  140.2801  158.1182 O   0  0  0  0  0  0  0  0  0  0  0  0
  151.9842  139.7699  157.8696 C   0  0  0  0  0  0  0  0  0  0  0  0
  151.3966  138.9937  158.6227 O   0  0  0  0  0  0  0  0  0  0  0  0
  151.4314  140.2715  156.6216 N   0  0  0  0  0  0  0  0  0  0  0  0
  150.2412  140.0007  156.0309 C   0  0  0  0  0  0  0  0  0  0  0  0
  149.1364  140.6810  156.2911 N   0  0  0  0  0  0  0  0  0  0  0  0
  147.9289  140.4401  155.6943 C   0  0  0  0  0  0  0  0  0  0  0  0
  146.9301  141.0746  156.0300 O   0  0  0  0  0  0  0  0  0  0  0  0
  147.8775  139.4357  154.6968 N   0  0  0  0  0  0  0  0  0  0  0  0
  146.5377  139.1256  154.0476 C   0  0  2  0  0  0  0  0  0  0  0  0
  145.7152  138.4541  154.9624 O   0  0  0  0  0  0  0  0  0  0  0  0
  145.6152  137.0685  154.6449 C   0  0  2  0  0  0  0  0  0  0  0  0
  146.7089  136.2608  155.3721 C   0  0  0  0  0  0  0  0  0  0  0  0
  145.7042  137.0678  153.1175 C   0  0  2  0  0  0  0  0  0  0  0  0
  146.1523  135.8310  152.5976 O   0  0  0  0  0  0  0  0  0  0  0  0
  146.6835  138.1957  152.8168 C   0  0  1  0  0  0  0  0  0  0  0  0
  146.3007  138.8419  151.6192 O   0  0  0  0  0  0  0  0  0  0  0  0
  149.0196  138.6884  154.4352 C   0  0  0  0  0  0  0  0  0  0  0  0
  150.1964  138.9402  155.0480 C   0  0  0  0  0  0  0  0  0  0  0  0
  151.2912  138.2174  154.7543 F   0  0  0  0  0  0  0  0  0  0  0  0
  146.1104  140.1044  153.8219 H   0  0  0  0  0  0  0  0  0  0  0  0
  144.6413  136.6997  154.9686 H   0  0  0  0  0  0  0  0  0  0  0  0
  144.7185  137.2989  152.7092 H   0  0  0  0  0  0  0  0  0  0  0  0
  147.7041  137.8151  152.7484 H   0  0  0  0  0  0  0  0  0  0  0  0
  151.2246  145.4033  160.6994 H   0  0  0  0  0  0  0  0  0  0  0  0
  150.6104  144.2521  159.5159 H   0  0  0  0  0  0  0  0  0  0  0  0
  152.1072  145.1298  159.1996 H   0  0  0  0  0  0  0  0  0  0  0  0
  153.1974  143.9538  161.1360 H   0  0  0  0  0  0  0  0  0  0  0  0
  151.7153  143.0838  161.4508 H   0  0  0  0  0  0  0  0  0  0  0  0
  151.9099  142.1584  159.0331 H   0  0  0  0  0  0  0  0  0  0  0  0
  153.5269  142.8204  159.0106 H   0  0  0  0  0  0  0  0  0  0  0  0
  154.0629  141.4499  161.0815 H   0  0  0  0  0  0  0  0  0  0  0  0
  152.4730  140.7325  160.9746 H   0  0  0  0  0  0  0  0  0  0  0  0
  154.9060  140.1942  159.3168 H   0  0  0  0  0  0  0  0  0  0  0  0
  153.5932  139.1278  159.7578 H   0  0  0  0  0  0  0  0  0  0  0  0
  152.0450  140.9042  156.1285 H   0  0  0  0  0  0  0  0  0  0  0  0
  146.6040  135.1930  155.1784 H   0  0  0  0  0  0  0  0  0  0  0  0
  146.6400  136.3994  156.4510 H   0  0  0  0  0  0  0  0  0  0  0  0
  147.7106  136.5543  155.0583 H   0  0  0  0  0  0  0  0  0  0  0  0
  147.0594  135.9243  152.3484 H   0  0  0  0  0  0  0  0  0  0  0  0
  145.4224  138.5663  151.4020 H   0  0  0  0  0  0  0  0  0  0  0  0
  149.0030  137.8773  153.7237 H   0  0  0  0  0  0  0  0  0  0  0  0
  1  2  1  0  0  0  0
  1 30  1  0  0  0  0
  1 31  1  0  0  0  0
  1 32  1  0  0  0  0
  2  3  1  0  0  0  0
  2 33  1  0  0  0  0
  2 34  1  0  0  0  0
  3  4  1  0  0  0  0
  3 35  1  0  0  0  0
  3 36  1  0  0  0  0
  4  5  1  0  0  0  0
  4 37  1  0  0  0  0
  4 38  1  0  0  0  0
  5  6  1  0  0  0  0
  5 39  1  0  0  0  0
  5 40  1  0  0  0  0
  6  7  1  0  0  0  0
  7  8  2  0  0  0  0
  7  9  1  0  0  0  0
  9 10  1  0  0  0  0
  9 41  1  0  0  0  0
 10 24  1  0  0  0  0
 10 11  2  0  0  0  0
 11 12  1  0  0  0  0
 12 13  2  0  0  0  0
 12 14  1  0  0  0  0
 14 15  1  0  0  0  0
 14 23  1  0  0  0  0
 15 26  1  0  0  0  0
 15 21  1  0  0  0  0
 15 16  1  0  0  0  0
 16 17  1  0  0  0  0
 17 27  1  0  0  0  0
 17 18  1  0  0  0  0
 17 19  1  0  0  0  0
 18 42  1  0  0  0  0
 18 43  1  0  0  0  0
 18 44  1  0  0  0  0
 19 28  1  0  0  0  0
 19 20  1  0  0  0  0
 19 21  1  0  0  0  0
 20 45  1  0  0  0  0
 21 29  1  0  0  0  0
 21 22  1  0  0  0  0
 22 46  1  0  0  0  0
 23 24  2  0  0  0  0
 23 47  1  0  0  0  0
 24 25  1  0  0  0  0
M  END
> <s_m_source_file>
AV-unprocessed.smi

> <i_m_source_file_index>
40

> <i_lp_mmshare_version>
43012

> <i_f3d_flags>
0

> <s_epik_input>
W0NIM11bQ0gyXVtDSDJdW0NIMl1bQ0gyXU9DKD1PKVtOSF1jMW5jKD1PKW4oW2NIXWMxRilbQ0BASF0yT1tDQEhdKFtDSDNdKVtDQEBIXShbT0hdKVtDQEhdMltPSF0=

> <s_epik_cmdline>
J2VwaWtfcHl0aG9uJywgJy1waCcsICc3LjAnLCAnLXRuJywgJzgnLCAnLW1hJywgJzIwMCcsICctbWV0YWxfYmluZGluZycsICctaW1hZScsICc8aW5maWxlLm1hZT4nLCAnLW9tYWUnLCAnPG91dGZpbGUubWFlPic=

> <r_lp_tautomer_probability>
1

> <r_epik_Ionization_Penalty>
2.29506e-06

> <r_epik_Ionization_Penalty_Charging>
8.26867e-09

> <r_epik_Ionization_Penalty_Neutral>
2.2868e-06

> <r_epik_State_Penalty>
-0

> <r_epik_Charging_Adjusted_Penalty>
8.26867e-09

> <i_epik_Tot_Q>
0

> <i_epik_Tot_abs_Q>
0

> <r_epik_Metal_State_Penalty>
-0

> <b_epik_Metal_Only>
0

> <s_epik_Chemistry_Notes>
This compound has an ester and may undergo hydrolysis at high or low pH. This compound contains an acetal/aminal-like group ( X-CH(R)-Y where X, Y are N, S, or O) that may be acid/base labile, releasing an aldehyde.

> <s_lp_Force_Field>
OPLS_2005

> <r_lp_Energy>
32.726

> <b_lp_Chiralities_Consistent>
1

> <s_lp_Variant>
AV-unprocessed.smi:40-5

> <Gold.Version>
5.8.1

> <Gold.Id.Protein>
6NUR|6NUR_protein|mol2

> <Gold.PLP.Fitness>
49.8481

> <Gold.PLP.PLP>
-42.6870

> <Gold.PLP.part.hbond>
-4.6409

> <Gold.PLP.part.metal>
0.0000

> <Gold.PLP.part.buried>
-2.5095

> <Gold.PLP.part.nonpolar>
-37.1817

> <Gold.PLP.part.repulsive>
1.3892

> <Gold.PLP.ligand.clash>
0.0000

> <Gold.PLP.ligand.torsion>
1.5817

> <Gold.PLP.Chemscore.Hbond>
2.4010

> <Gold.PLP.Chemscore.CHOScore>
1.0000

> <Gold.PLP.Chemscore.Metal>
0.0000

> <Gold.Chemscore.Hbonds>
donor molecule, donor type, donor heavy atom, donor atom, acceptor molecule, acceptor atom, score
      L1  H    20    45       P1  7948  1.00
      L1  H    22    46       P1 10171  0.48
      L1  C    23    47       P1  7948  1.00

> <Gold.PLP.Chemscore.Internal.Correction>
0.1215

> <Gold.Rescore>
     Score         DG    S(hbond)    S(metal)    S(lipo)     H(rot)  DE(clash)    DE(int)     intcor
      8.75     -13.03       2.18        0.00      83.16       3.70       2.73       1.55       ----

> <Gold.Chemscore.Fitness>
8.7514

> <Gold.Chemscore.DG>
-13.0268

> <Gold.Chemscore.ZeroCoef>
-5.4800

> <Gold.Chemscore.Hbond>
2.1790

> <Gold.Chemscore.Metal>
0.0000

> <Gold.Chemscore.Lipo>
83.1627

> <Gold.Chemscore.Internal_Hbond>
0.0000

> <Gold.Chemscore.DEClash>
2.7264

> <Gold.Chemscore.DEInternal>
1.5490

> <Gold.Chemscore.Rot>
3.6957

> <Gold.Chemscore.Internal.Correction>
   9.000000E+99

> <Gold.Chemscore.Hbonds>
donor molecule, donor type, donor heavy atom, donor atom, acceptor molecule, acceptor atom, score
      L1  H    20    45       P1  7948  0.99
      L1  H    22    46       P1 10171  0.46

> <Gold.Chemscore.Hbond.Weighted>
-7.2777

> <Gold.Chemscore.Metal.Weighted>
-0.0000

> <Gold.Chemscore.Lipo.Weighted>
-9.7300

> <Gold.Chemscore.Internal_Hbond.Weighted>
0.0000

> <Gold.Chemscore.DEClash.Weighted>
2.7264

> <Gold.Chemscore.DEInternal.Weighted>
1.5490

> <Gold.Chemscore.Rot.Weighted>
9.4610

> <Gold.Chemscore.Internal.Correction.Weighted>
   9.000000E+99

> <Gold.Protein.RotatedTorsions>
[ 6907 6896 6895 6894 ] final  169.26 input  -60.11 | X-H torsion
[ 7974 7965 7964 7962 ] final  148.35 input  175.53 | X-H torsion
[ 8008 7997 7996 7995 ] final   40.58 input   59.86 | X-H torsion
[ 10167 10162 10161 10158 ] final   52.86 input  -65.29 | X-H torsion
[ 10718 10713 10712 10709 ] final  -70.48 input   66.30 | X-H torsion
[ 10763 10752 10751 10750 ] final  129.51 input  -60.55 | X-H torsion
[ 11005 11000 10999 10996 ] final -151.27 input  -57.11 | X-H torsion

> <Gold.Protein.ActiveResidues>
 VAL166  LYS551  ARG553  GLY616  TRP617  ASP618  TYR619  PRO620  LYS621  CYS622 
 ASP623  PHE694  ASN695  SER759  ASP760  ASP761  ALA762  ILE779  LEU786  VAL792 
 PHE793  MET794  SER795  GLU796  ALA797  LYS798  CYS799  TRP800  GLU811  SER814 

> <Gold.Protein.RotatedAtoms>
  151.8348  133.3414  159.3624 H   0  0  0  0  0  0  0  0  0  0  0  0  # atno 6907 bound_to 6896
  150.7253  134.5448  159.5775 H   0  0  0  0  0  0  0  0  0  0  0  0  # atno 6908 bound_to 6896
  152.2909  134.7723  160.0429 H   0  0  0  0  0  0  0  0  0  0  0  0  # atno 6909 bound_to 6896
  144.8520  139.6143  143.5969 H   0  0  0  0  0  0  0  0  0  0  0  0  # atno 7974 bound_to 7965
  155.2554  140.3355  155.4278 H   0  0  0  0  0  0  0  0  0  0  0  0  # atno 8008 bound_to 7997
  156.2198  140.1804  156.7548 H   0  0  0  0  0  0  0  0  0  0  0  0  # atno 8009 bound_to 7997
  154.5807  140.0654  156.9085 H   0  0  0  0  0  0  0  0  0  0  0  0  # atno 8010 bound_to 7997
  140.2469  144.3522  150.6361 H   0  0  0  0  0  0  0  0  0  0  0  0  # atno 10167 bound_to 10162
  156.0406  130.4332  150.2301 H   0  0  0  0  0  0  0  0  0  0  0  0  # atno 10718 bound_to 10713
  153.7429  135.3221  155.3307 H   0  0  0  0  0  0  0  0  0  0  0  0  # atno 10763 bound_to 10752
  154.8289  135.4549  154.1009 H   0  0  0  0  0  0  0  0  0  0  0  0  # atno 10764 bound_to 10752
  153.2189  135.6945  153.8106 H   0  0  0  0  0  0  0  0  0  0  0  0  # atno 10765 bound_to 10752
  140.7314  134.3617  157.5166 H   0  0  0  0  0  0  0  0  0  0  0  0  # atno 11005 bound_to 11000
  146.2793  139.6834  142.9241 LP  0  0  0  0  0  0  0  0  0  0  0  0  # atno 17320 bound_to 7965
  145.4480  141.0426  143.2820 LP  0  0  0  0  0  0  0  0  0  0  0  0  # atno 17321 bound_to 7965
  140.6071  143.2168  151.6960 LP  0  0  0  0  0  0  0  0  0  0  0  0  # atno 17342 bound_to 10162
  139.5059  144.3701  152.0478 LP  0  0  0  0  0  0  0  0  0  0  0  0  # atno 17343 bound_to 10162
  157.0396  131.0031  151.3287 LP  0  0  0  0  0  0  0  0  0  0  0  0  # atno 17370 bound_to 10713
  157.5219  130.8003  149.7818 LP  0  0  0  0  0  0  0  0  0  0  0  0  # atno 17371 bound_to 10713
  139.8825  134.9021  156.2824 LP  0  0  0  0  0  0  0  0  0  0  0  0  # atno 17394 bound_to 11000
  140.9917  133.7204  156.0825 LP  0  0  0  0  0  0  0  0  0  0  0  0  # atno 17395 bound_to 11000

$$$$
