AV-unprocessed.smi:53|AV-procd|sdf|526|dock9
  -GOLD-   2262016403D 1   1.00000     0.00000
 Structure written by MMmdl.
 30 31  0  0  0  0  0  0  0  0  1 V2000
  152.4623  143.8192  159.3227 N   0  0  0  0  0  0  0  0  0  0  0  0
  152.0872  142.7375  158.6251 C   0  0  0  0  0  0  0  0  0  0  0  0
  150.9254  142.7897  157.7668 C   0  0  0  0  0  0  0  0  0  0  0  0
  150.6090  141.6597  157.0965 C   0  0  0  0  0  0  0  0  0  0  0  0
  151.3556  140.4942  157.2169 N   0  0  0  0  0  0  0  0  0  0  0  0
  150.9975  139.2201  156.4713 C   0  0  1  0  0  0  0  0  0  0  0  0
  149.7207  139.3401  155.9141 O   0  0  0  0  0  0  0  0  0  0  0  0
  149.8138  139.4875  154.5005 C   0  0  2  0  0  0  0  0  0  0  0  0
  148.4975  139.0902  153.8105 C   0  0  0  0  0  0  0  0  0  0  0  0
  148.2160  137.7281  154.0519 O   0  0  0  0  0  0  0  0  0  0  0  0
  151.0336  138.6279  154.1483 C   0  0  2  0  0  0  0  0  0  0  0  0
  150.6918  137.2546  154.0848 O   0  0  0  0  0  0  0  0  0  0  0  0
  151.9760  138.8908  155.3154 C   0  0  1  0  0  0  0  0  0  0  0  0
  152.8529  139.9547  154.9846 O   0  0  0  0  0  0  0  0  0  0  0  0
  152.4894  140.4765  158.0645 C   0  0  0  0  0  0  0  0  0  0  0  0
  153.1854  139.4694  158.1900 O   0  0  0  0  0  0  0  0  0  0  0  0
  152.7946  141.6300  158.7360 N   0  0  0  0  0  0  0  0  0  0  0  0
  150.9463  138.4371  157.2307 H   0  0  0  0  0  0  0  0  0  0  0  0
  150.0588  140.5248  154.2647 H   0  0  0  0  0  0  0  0  0  0  0  0
  151.4661  138.9104  153.1873 H   0  0  0  0  0  0  0  0  0  0  0  0
  152.5761  138.0175  155.5749 H   0  0  0  0  0  0  0  0  0  0  0  0
  153.2743  143.7795  159.9212 H   0  0  0  0  0  0  0  0  0  0  0  0
  151.9305  144.6743  159.2463 H   0  0  0  0  0  0  0  0  0  0  0  0
  150.3159  143.6738  157.6450 H   0  0  0  0  0  0  0  0  0  0  0  0
  149.7415  141.6947  156.4556 H   0  0  0  0  0  0  0  0  0  0  0  0
  147.6700  139.6707  154.2191 H   0  0  0  0  0  0  0  0  0  0  0  0
  148.5350  139.2834  152.7378 H   0  0  0  0  0  0  0  0  0  0  0  0
  148.5078  137.2237  153.3078 H   0  0  0  0  0  0  0  0  0  0  0  0
  150.0864  137.1278  153.3705 H   0  0  0  0  0  0  0  0  0  0  0  0
  153.7112  139.5914  154.8261 H   0  0  0  0  0  0  0  0  0  0  0  0
  1  2  1  0  0  0  0
  1 22  1  0  0  0  0
  1 23  1  0  0  0  0
  2 17  2  0  0  0  0
  2  3  1  0  0  0  0
  3  4  2  0  0  0  0
  3 24  1  0  0  0  0
  4  5  1  0  0  0  0
  4 25  1  0  0  0  0
  5  6  1  0  0  0  0
  5 15  1  0  0  0  0
  6 18  1  0  0  0  0
  6 13  1  0  0  0  0
  6  7  1  0  0  0  0
  7  8  1  0  0  0  0
  8 19  1  0  0  0  0
  8  9  1  0  0  0  0
  8 11  1  0  0  0  0
  9 10  1  0  0  0  0
  9 26  1  0  0  0  0
  9 27  1  0  0  0  0
 10 28  1  0  0  0  0
 11 20  1  0  0  0  0
 11 12  1  0  0  0  0
 11 13  1  0  0  0  0
 12 29  1  0  0  0  0
 13 21  1  0  0  0  0
 13 14  1  0  0  0  0
 14 30  1  0  0  0  0
 15 16  2  0  0  0  0
 15 17  1  0  0  0  0
M  END
> <s_m_source_file>
AV-unprocessed.smi

> <i_m_source_file_index>
53

> <i_lp_mmshare_version>
43012

> <i_f3d_flags>
0

> <s_epik_input>
W05IMl1jMVtjSF1bY0hdbihjKD1PKW4xKVtDQEBIXTJPW0NASF0oW0NIMl1bT0hdKVtDQEBIXShbT0hdKVtDQEBIXTJbT0hd

> <s_epik_cmdline>
J2VwaWtfcHl0aG9uJywgJy1waCcsICc3LjAnLCAnLXRuJywgJzgnLCAnLW1hJywgJzIwMCcsICctbWV0YWxfYmluZGluZycsICctaW1hZScsICc8aW5maWxlLm1hZT4nLCAnLW9tYWUnLCAnPG91dGZpbGUubWFlPic=

> <r_lp_tautomer_probability>
0.99996

> <r_epik_Ionization_Penalty>
0.00069087

> <r_epik_Ionization_Penalty_Charging>
2.61959e-08

> <r_epik_Ionization_Penalty_Neutral>
0.000690844

> <r_epik_State_Penalty>
1.15523e-05

> <r_epik_Charging_Adjusted_Penalty>
1.15785e-05

> <i_epik_Tot_Q>
0

> <i_epik_Tot_abs_Q>
0

> <r_epik_Metal_State_Penalty>
-0

> <b_epik_Metal_Only>
0

> <s_epik_Chemistry_Notes>
This compound contains an acetal/aminal-like group ( X-CH(R)-Y where X, Y are N, S, or O) that may be acid/base labile, releasing an aldehyde.

> <s_lp_Force_Field>
OPLS_2005

> <r_lp_Energy>
36.7572

> <b_lp_Chiralities_Consistent>
1

> <s_lp_Variant>
AV-unprocessed.smi:53-14

> <Gold.Version>
5.8.1

> <Gold.Id.Protein>
6NUR|6NUR_protein|mol2

> <Gold.PLP.Fitness>
37.7197

> <Gold.PLP.PLP>
-27.8076

> <Gold.PLP.part.hbond>
-6.0000

> <Gold.PLP.part.metal>
0.0000

> <Gold.PLP.part.buried>
-0.6331

> <Gold.PLP.part.nonpolar>
-19.1145

> <Gold.PLP.part.repulsive>
0.0174

> <Gold.PLP.ligand.clash>
0.0000

> <Gold.PLP.ligand.torsion>
0.2644

> <Gold.PLP.Chemscore.Hbond>
3.4599

> <Gold.PLP.Chemscore.CHOScore>
0.0000

> <Gold.PLP.Chemscore.Metal>
0.0000

> <Gold.Chemscore.Hbonds>
donor molecule, donor type, donor heavy atom, donor atom, acceptor molecule, acceptor atom, score
      L1  H    10    28       P1  7948  1.00
      L1  H    12    29       P1  7948  0.88
      P1  H  7989  7998       L1    14  0.33
      P1  H  7997  8010       L1    16  1.00

> <Gold.PLP.Chemscore.Internal.Correction>
0.0610

> <Gold.Rescore>
     Score         DG    S(hbond)    S(metal)    S(lipo)     H(rot)  DE(clash)    DE(int)     intcor
     10.02     -10.35       2.89        0.00      40.30       3.71       0.12       0.21       ----

> <Gold.Chemscore.Fitness>
10.0204

> <Gold.Chemscore.DG>
-10.3478

> <Gold.Chemscore.ZeroCoef>
-5.4800

> <Gold.Chemscore.Hbond>
2.8890

> <Gold.Chemscore.Metal>
0.0000

> <Gold.Chemscore.Lipo>
40.2988

> <Gold.Chemscore.Internal_Hbond>
0.0000

> <Gold.Chemscore.DEClash>
0.1214

> <Gold.Chemscore.DEInternal>
0.2060

> <Gold.Chemscore.Rot>
3.7095

> <Gold.Chemscore.Internal.Correction>
   9.000000E+99

> <Gold.Chemscore.Hbonds>
donor molecule, donor type, donor heavy atom, donor atom, acceptor molecule, acceptor atom, score
      L1  H    10    28       P1  7948  1.00
      L1  H    12    29       P1  7948  0.16
      P1  H  7989  7998       L1    14  0.07
      P1  H  7997  8010       L1    16  0.25

> <Gold.Chemscore.Hbond.Weighted>
-9.6492

> <Gold.Chemscore.Metal.Weighted>
-0.0000

> <Gold.Chemscore.Lipo.Weighted>
-4.7150

> <Gold.Chemscore.Internal_Hbond.Weighted>
0.0000

> <Gold.Chemscore.DEClash.Weighted>
0.1214

> <Gold.Chemscore.DEInternal.Weighted>
0.2060

> <Gold.Chemscore.Rot.Weighted>
9.4964

> <Gold.Chemscore.Internal.Correction.Weighted>
   9.000000E+99

> <Gold.Protein.RotatedTorsions>
[ 6907 6896 6895 6894 ] final -170.02 input  -60.11 | X-H torsion
[ 7974 7965 7964 7962 ] final  135.95 input  175.53 | X-H torsion
[ 8008 7997 7996 7995 ] final   20.66 input   59.86 | X-H torsion
[ 10167 10162 10161 10158 ] final  146.55 input  -65.29 | X-H torsion
[ 10718 10713 10712 10709 ] final -172.14 input   66.30 | X-H torsion
[ 10763 10752 10751 10750 ] final   -5.28 input  -60.55 | X-H torsion
[ 11005 11000 10999 10996 ] final  -84.24 input  -57.11 | X-H torsion

> <Gold.Protein.ActiveResidues>
 VAL166  LYS551  ARG553  GLY616  TRP617  ASP618  TYR619  PRO620  LYS621  CYS622 
 ASP623  PHE694  ASN695  SER759  ASP760  ASP761  ALA762  ILE779  LEU786  VAL792 
 PHE793  MET794  SER795  GLU796  ALA797  LYS798  CYS799  TRP800  GLU811  SER814 

> <Gold.Protein.RotatedAtoms>
  151.5010  133.3504  159.2868 H   0  0  0  0  0  0  0  0  0  0  0  0  # atno 6907 bound_to 6896
  150.8773  134.8160  159.7210 H   0  0  0  0  0  0  0  0  0  0  0  0  # atno 6908 bound_to 6896
  152.4739  134.4903  159.9745 H   0  0  0  0  0  0  0  0  0  0  0  0  # atno 6909 bound_to 6896
  144.9612  139.4708  143.5478 H   0  0  0  0  0  0  0  0  0  0  0  0  # atno 7974 bound_to 7965
  154.9389  140.3050  155.5130 H   0  0  0  0  0  0  0  0  0  0  0  0  # atno 8008 bound_to 7997
  156.2997  140.2340  156.4393 H   0  0  0  0  0  0  0  0  0  0  0  0  # atno 8009 bound_to 7997
  154.8165  140.0425  157.1368 H   0  0  0  0  0  0  0  0  0  0  0  0  # atno 8010 bound_to 7997
  139.4905  144.5821  151.6852 H   0  0  0  0  0  0  0  0  0  0  0  0  # atno 10167 bound_to 10162
  156.7512  130.9379  151.3114 H   0  0  0  0  0  0  0  0  0  0  0  0  # atno 10718 bound_to 10713
  153.3964  135.7003  153.6457 H   0  0  0  0  0  0  0  0  0  0  0  0  # atno 10763 bound_to 10752
  153.5009  135.3652  155.2539 H   0  0  0  0  0  0  0  0  0  0  0  0  # atno 10764 bound_to 10752
  154.8707  135.4111  154.3291 H   0  0  0  0  0  0  0  0  0  0  0  0  # atno 10765 bound_to 10752
  141.1652  133.7335  156.8838 H   0  0  0  0  0  0  0  0  0  0  0  0  # atno 11005 bound_to 11000
  146.3354  139.8763  142.8831 LP  0  0  0  0  0  0  0  0  0  0  0  0  # atno 17320 bound_to 7965
  145.2697  141.0104  143.3779 LP  0  0  0  0  0  0  0  0  0  0  0  0  # atno 17321 bound_to 7965
  140.5429  144.0550  150.6095 LP  0  0  0  0  0  0  0  0  0  0  0  0  # atno 17342 bound_to 10162
  140.3578  143.2925  152.0416 LP  0  0  0  0  0  0  0  0  0  0  0  0  # atno 17343 bound_to 10162
  157.6776  130.9109  150.0188 LP  0  0  0  0  0  0  0  0  0  0  0  0  # atno 17370 bound_to 10713
  156.1400  130.3642  149.9597 LP  0  0  0  0  0  0  0  0  0  0  0  0  # atno 17371 bound_to 10713
  140.1696  134.9109  157.2817 LP  0  0  0  0  0  0  0  0  0  0  0  0  # atno 17394 bound_to 11000
  140.2517  134.3675  155.7439 LP  0  0  0  0  0  0  0  0  0  0  0  0  # atno 17395 bound_to 11000

$$$$
