AV-unprocessed.smi:224|AV-procd|sdf|1710|dock5
  -GOLD-   2262020173D 1   1.00000     0.00000
 Structure written by MMmdl.
 56 59  0  0  0  0  0  0  0  0  2 V2000
  145.1939  131.8990  149.3245 C   0  0  0  0  0  0  0  0  0  0  0  0
  143.8128  132.5621  149.4052 C   0  0  1  0  0  0  0  0  0  0  0  0
  142.8717  131.6944  148.8062 O   0  0  0  0  0  0  0  0  0  0  0  0
  143.3929  132.8437  150.8623 C   0  0  0  0  0  0  0  0  0  0  0  0
  143.5241  134.2728  151.2609 N   0  3  1  0  0  0  0  0  0  0  0  0
  142.9161  134.5382  152.5918 C   0  0  0  0  0  0  0  0  0  0  0  0
  142.9145  136.0421  152.9175 C   0  0  0  0  0  0  0  0  0  0  0  0
  144.2519  136.6130  152.7792 N   0  0  0  0  0  0  0  0  0  0  0  0
  145.0802  136.6517  153.8584 C   0  0  0  0  0  0  0  0  0  0  0  0
  144.8388  135.8364  154.9200 N   0  0  0  0  0  0  0  0  0  0  0  0
  145.6509  135.8430  155.9804 C   0  0  0  0  0  0  0  0  0  0  0  0
  146.7445  136.5772  156.1870 N   0  0  0  0  0  0  0  0  0  0  0  0
  146.9887  137.4083  155.1344 C   0  0  0  0  0  0  0  0  0  0  0  0
  146.2127  137.5128  153.9446 C   0  0  0  0  0  0  0  0  0  0  0  0
  146.7586  138.4840  153.1131 N   0  0  0  0  0  0  0  0  0  0  0  0
  147.8026  138.9163  153.7655 C   0  0  0  0  0  0  0  0  0  0  0  0
  148.0223  138.3165  154.9845 N   0  0  0  0  0  0  0  0  0  0  0  0
  149.1057  138.6041  155.9128 C   0  0  0  0  0  0  0  0  0  0  0  0
  150.4941  138.6870  155.2356 C   0  0  1  0  0  0  0  0  0  0  0  0
  150.5589  139.8739  154.4629 O   0  0  0  0  0  0  0  0  0  0  0  0
  151.6430  138.7033  156.2351 C   0  0  0  0  0  0  0  0  0  0  0  0
  152.7874  138.0912  155.4387 C   0  0  0  0  0  0  0  0  0  0  0  0
  152.1505  137.0591  154.7046 O   0  0  0  0  0  0  0  0  0  0  0  0
  150.8463  137.4916  154.3262 C   0  0  0  0  0  0  0  0  0  0  0  0
  144.8641  136.3779  151.4732 C   0  0  0  0  0  0  0  0  0  0  0  0
  144.8853  134.8768  151.1049 C   0  0  1  0  0  0  0  0  0  0  0  0
  145.9924  134.1086  151.8582 C   0  0  0  0  0  0  0  0  0  0  0  0
  145.9609  132.5408  149.7589 H   0  0  0  0  0  0  0  0  0  0  0  0
  145.4775  131.7038  148.2897 H   0  0  0  0  0  0  0  0  0  0  0  0
  145.2135  130.9491  149.8601 H   0  0  0  0  0  0  0  0  0  0  0  0
  143.8519  133.4855  148.8286 H   0  0  0  0  0  0  0  0  0  0  0  0
  142.0517  131.7677  149.2704 H   0  0  0  0  0  0  0  0  0  0  0  0
  142.3506  132.5435  150.9818 H   0  0  0  0  0  0  0  0  0  0  0  0
  143.9598  132.2148  151.5492 H   0  0  0  0  0  0  0  0  0  0  0  0
  141.8891  134.1722  152.6073 H   0  0  0  0  0  0  0  0  0  0  0  0
  143.4550  133.9815  153.3591 H   0  0  0  0  0  0  0  0  0  0  0  0
  142.2542  136.5634  152.2236 H   0  0  0  0  0  0  0  0  0  0  0  0
  142.5058  136.2236  153.9124 H   0  0  0  0  0  0  0  0  0  0  0  0
  145.3886  135.1613  156.7758 H   0  0  0  0  0  0  0  0  0  0  0  0
  148.4483  139.6879  153.3716 H   0  0  0  0  0  0  0  0  0  0  0  0
  148.8785  139.5414  156.4226 H   0  0  0  0  0  0  0  0  0  0  0  0
  149.1092  137.8322  156.6836 H   0  0  0  0  0  0  0  0  0  0  0  0
  150.3418  140.6054  155.0205 H   0  0  0  0  0  0  0  0  0  0  0  0
  151.8729  139.6955  156.6261 H   0  0  0  0  0  0  0  0  0  0  0  0
  151.4154  138.0565  157.0837 H   0  0  0  0  0  0  0  0  0  0  0  0
  153.2186  138.8183  154.7488 H   0  0  0  0  0  0  0  0  0  0  0  0
  153.5838  137.7015  156.0728 H   0  0  0  0  0  0  0  0  0  0  0  0
  150.1668  136.6522  154.4676 H   0  0  0  0  0  0  0  0  0  0  0  0
  150.8238  137.7537  153.2674 H   0  0  0  0  0  0  0  0  0  0  0  0
  144.2731  136.9206  150.7345 H   0  0  0  0  0  0  0  0  0  0  0  0
  145.8703  136.7874  151.4038 H   0  0  0  0  0  0  0  0  0  0  0  0
  145.1451  134.8442  150.0477 H   0  0  0  0  0  0  0  0  0  0  0  0
  146.9493  134.6232  151.7658 H   0  0  0  0  0  0  0  0  0  0  0  0
  146.1352  133.1066  151.4548 H   0  0  0  0  0  0  0  0  0  0  0  0
  145.7781  134.0114  152.9218 H   0  0  0  0  0  0  0  0  0  0  0  0
  142.9419  134.7779  150.6078 H   0  0  0  0  0  0  0  0  0  0  0  0
  1  2  1  0  0  0  0
  1 28  1  0  0  0  0
  1 29  1  0  0  0  0
  1 30  1  0  0  0  0
  2  3  1  0  0  0  0
  2  4  1  0  0  0  0
  2 31  1  0  0  0  0
  3 32  1  0  0  0  0
  4  5  1  0  0  0  0
  4 33  1  0  0  0  0
  4 34  1  0  0  0  0
  5 26  1  0  0  0  0
  5  6  1  0  0  0  0
  5 56  1  0  0  0  0
  6  7  1  0  0  0  0
  6 35  1  0  0  0  0
  6 36  1  0  0  0  0
  7  8  1  0  0  0  0
  7 37  1  0  0  0  0
  7 38  1  0  0  0  0
  8  9  1  0  0  0  0
  8 25  1  0  0  0  0
  9 14  1  0  0  0  0
  9 10  2  0  0  0  0
 10 11  1  0  0  0  0
 11 12  2  0  0  0  0
 11 39  1  0  0  0  0
 12 13  1  0  0  0  0
 13 17  1  0  0  0  0
 13 14  2  0  0  0  0
 14 15  1  0  0  0  0
 15 16  2  0  0  0  0
 16 17  1  0  0  0  0
 16 40  1  0  0  0  0
 17 18  1  0  0  0  0
 18 19  1  0  0  0  0
 18 41  1  0  0  0  0
 18 42  1  0  0  0  0
 19 24  1  0  0  0  0
 19 20  1  0  0  0  0
 19 21  1  0  0  0  0
 20 43  1  0  0  0  0
 21 22  1  0  0  0  0
 21 44  1  0  0  0  0
 21 45  1  0  0  0  0
 22 23  1  0  0  0  0
 22 46  1  0  0  0  0
 22 47  1  0  0  0  0
 23 24  1  0  0  0  0
 24 48  1  0  0  0  0
 24 49  1  0  0  0  0
 25 26  1  0  0  0  0
 25 50  1  0  0  0  0
 25 51  1  0  0  0  0
 26 27  1  0  0  0  0
 26 52  1  0  0  0  0
 27 53  1  0  0  0  0
 27 54  1  0  0  0  0
 27 55  1  0  0  0  0
M  CHG  1   5   1
M  END
> <s_m_source_file>
AV-unprocessed.smi

> <i_m_source_file_index>
224

> <i_lp_mmshare_version>
43012

> <i_f3d_flags>
0

> <s_epik_input>
W0NIM11bQ0BIXShbT0hdKVtDSDJdTjFbQ0gyXVtDSDJdTihbQ0gyXVtDQEhdMVtDSDNdKWMobltjSF1uMiljKGMyMyluW2NIXW4zW0NIMl1bQ0BAXTQoW09IXSlbQ0gyXVtDSDJdT1tDSDJdNA==

> <s_epik_cmdline>
J2VwaWtfcHl0aG9uJywgJy1waCcsICc3LjAnLCAnLXRuJywgJzgnLCAnLW1hJywgJzIwMCcsICctbWV0YWxfYmluZGluZycsICctaW1hZScsICc8aW5maWxlLm1hZT4nLCAnLW9tYWUnLCAnPG91dGZpbGUubWFlPic=

> <r_lp_tautomer_probability>
1

> <r_epik_Ionization_Penalty>
0.00516958

> <r_epik_Ionization_Penalty_Charging>
0.00509693

> <r_epik_Ionization_Penalty_Neutral>
7.26542e-05

> <r_epik_State_Penalty>
-0

> <r_epik_Charging_Adjusted_Penalty>
0.00509693

> <i_epik_Tot_Q>
1

> <i_epik_Tot_abs_Q>
1

> <r_epik_Metal_State_Penalty>
-0

> <b_epik_Metal_Only>
0

> <s_lp_Force_Field>
OPLS_2005

> <r_lp_Energy>
49.6762

> <b_lp_Chiralities_Consistent>
1

> <s_lp_Variant>
AV-unprocessed.smi:224-4

> <Gold.Version>
5.8.1

> <Gold.Id.Protein>
6NUR|6NUR_protein|mol2

> <Gold.PLP.Fitness>
54.0772

> <Gold.PLP.PLP>
-40.3778

> <Gold.PLP.part.hbond>
-5.5595

> <Gold.PLP.part.metal>
0.0000

> <Gold.PLP.part.buried>
-3.9091

> <Gold.PLP.part.nonpolar>
-34.2774

> <Gold.PLP.part.repulsive>
0.4412

> <Gold.PLP.ligand.clash>
0.0000

> <Gold.PLP.ligand.torsion>
1.4734

> <Gold.PLP.Chemscore.Hbond>
4.4471

> <Gold.PLP.Chemscore.CHOScore>
0.9863

> <Gold.PLP.Chemscore.Metal>
0.0000

> <Gold.Chemscore.Hbonds>
donor molecule, donor type, donor heavy atom, donor atom, acceptor molecule, acceptor atom, score
      L1  H     3    32       P1 10952  0.53
      L1  H     5    56       P1 10186  0.74
      P1  H  7989  7998       L1    20  0.60
      P1  H 10752 10763       L1    23  0.74
      P1  H 10785 10796       L1     3  1.00
      L1  C    16    40       P1  7957  1.00

> <Gold.PLP.Chemscore.Internal.Correction>
0.3458

> <Gold.Rescore>
     Score         DG    S(hbond)    S(metal)    S(lipo)     H(rot)  DE(clash)    DE(int)     intcor
     15.84     -17.70       2.83        0.00      89.91       3.02       0.09       1.77       ----

> <Gold.Chemscore.Fitness>
15.8374

> <Gold.Chemscore.DG>
-17.7017

> <Gold.Chemscore.ZeroCoef>
-5.4800

> <Gold.Chemscore.Hbond>
2.8266

> <Gold.Chemscore.Metal>
0.0000

> <Gold.Chemscore.Lipo>
89.9143

> <Gold.Chemscore.Internal_Hbond>
0.0000

> <Gold.Chemscore.DEClash>
0.0916

> <Gold.Chemscore.DEInternal>
1.7728

> <Gold.Chemscore.Rot>
3.0231

> <Gold.Chemscore.Internal.Correction>
   9.000000E+99

> <Gold.Chemscore.Hbonds>
donor molecule, donor type, donor heavy atom, donor atom, acceptor molecule, acceptor atom, score
      L1  H     3    32       P1 10952  0.52
      L1  H     5    56       P1 10186  0.08
      P1  H  7989  7998       L1    20  0.04
      P1  H 10752 10763       L1    23  0.73
      P1  H 10785 10796       L1     3  0.52

> <Gold.Chemscore.Hbond.Weighted>
-9.4408

> <Gold.Chemscore.Metal.Weighted>
-0.0000

> <Gold.Chemscore.Lipo.Weighted>
-10.5200

> <Gold.Chemscore.Internal_Hbond.Weighted>
0.0000

> <Gold.Chemscore.DEClash.Weighted>
0.0916

> <Gold.Chemscore.DEInternal.Weighted>
1.7728

> <Gold.Chemscore.Rot.Weighted>
7.7391

> <Gold.Chemscore.Internal.Correction.Weighted>
   9.000000E+99

> <Gold.Protein.RotatedTorsions>
[ 6907 6896 6895 6894 ] final   23.33 input  -60.11 | X-H torsion
[ 7974 7965 7964 7962 ] final   36.87 input  175.53 | X-H torsion
[ 8008 7997 7996 7995 ] final   86.64 input   59.86 | X-H torsion
[ 10167 10162 10161 10158 ] final  -59.57 input  -65.29 | X-H torsion
[ 10718 10713 10712 10709 ] final   -1.64 input   66.30 | X-H torsion
[ 10763 10752 10751 10750 ] final   31.56 input  -60.55 | X-H torsion
[ 11005 11000 10999 10996 ] final  -63.59 input  -57.11 | X-H torsion

> <Gold.Protein.ActiveResidues>
 VAL166  LYS551  ARG553  GLY616  TRP617  ASP618  TYR619  PRO620  LYS621  CYS622 
 ASP623  PHE694  ASN695  SER759  ASP760  ASP761  ALA762  ILE779  LEU786  VAL792 
 PHE793  MET794  SER795  GLU796  ALA797  LYS798  CYS799  TRP800  GLU811  SER814 

> <Gold.Protein.RotatedAtoms>
  151.9407  135.0214  160.0535 H   0  0  0  0  0  0  0  0  0  0  0  0  # atno 6907 bound_to 6896
  152.2038  133.4856  159.5081 H   0  0  0  0  0  0  0  0  0  0  0  0  # atno 6908 bound_to 6896
  150.6960  134.1472  159.4170 H   0  0  0  0  0  0  0  0  0  0  0  0  # atno 6909 bound_to 6896
  146.1180  139.5965  142.9308 H   0  0  0  0  0  0  0  0  0  0  0  0  # atno 7974 bound_to 7965
  155.9653  140.3390  155.6527 H   0  0  0  0  0  0  0  0  0  0  0  0  # atno 8008 bound_to 7997
  155.6745  140.0730  157.2526 H   0  0  0  0  0  0  0  0  0  0  0  0  # atno 8009 bound_to 7997
  154.4153  140.1685  156.1902 H   0  0  0  0  0  0  0  0  0  0  0  0  # atno 8010 bound_to 7997
  140.6127  143.2392  151.5672 H   0  0  0  0  0  0  0  0  0  0  0  0  # atno 10167 bound_to 10162
  156.8026  130.5398  149.5719 H   0  0  0  0  0  0  0  0  0  0  0  0  # atno 10718 bound_to 10713
  153.0309  135.6436  154.1219 H   0  0  0  0  0  0  0  0  0  0  0  0  # atno 10763 bound_to 10752
  154.0941  135.2864  155.3267 H   0  0  0  0  0  0  0  0  0  0  0  0  # atno 10764 bound_to 10752
  154.6444  135.5448  153.7891 H   0  0  0  0  0  0  0  0  0  0  0  0  # atno 10765 bound_to 10752
  141.1398  133.6654  156.5704 H   0  0  0  0  0  0  0  0  0  0  0  0  # atno 11005 bound_to 11000
  145.5526  141.0412  143.2270 LP  0  0  0  0  0  0  0  0  0  0  0  0  # atno 17320 bound_to 7965
  144.7570  139.7049  143.7250 LP  0  0  0  0  0  0  0  0  0  0  0  0  # atno 17321 bound_to 7965
  139.5374  144.2744  152.1279 LP  0  0  0  0  0  0  0  0  0  0  0  0  # atno 17342 bound_to 10162
  140.1946  144.4718  150.6461 LP  0  0  0  0  0  0  0  0  0  0  0  0  # atno 17343 bound_to 10162
  156.1092  130.6027  151.0020 LP  0  0  0  0  0  0  0  0  0  0  0  0  # atno 17370 bound_to 10713
  157.6546  131.0891  150.7975 LP  0  0  0  0  0  0  0  0  0  0  0  0  # atno 17371 bound_to 10713
  140.3918  134.7434  157.4726 LP  0  0  0  0  0  0  0  0  0  0  0  0  # atno 17394 bound_to 11000
  140.0561  134.6062  155.8804 LP  0  0  0  0  0  0  0  0  0  0  0  0  # atno 17395 bound_to 11000

$$$$
