AV-unprocessed.smi:283|AV-procd|sdf|2140|dock7
  -GOLD-   2262021463D 1   1.00000     0.00000
 Structure written by MMmdl.
 48 51  0  0  0  0  0  0  0  0  1 V2000
  149.0035  142.1262  157.7226 C   0  0  0  0  0  0  0  0  0  0  0  0
  150.3186  141.3786  157.4646 C   0  0  1  0  0  0  0  0  0  0  0  0
  150.5062  141.1923  156.0271 N   0  0  0  0  0  0  0  0  0  0  0  0
  150.6808  139.9597  155.5008 C   0  0  0  0  0  0  0  0  0  0  0  0
  151.3577  139.9151  154.3286 N   0  0  0  0  0  0  0  0  0  0  0  0
  151.6104  138.7411  153.7444 C   0  0  0  0  0  0  0  0  0  0  0  0
  151.2795  137.5168  154.1570 N   0  0  0  0  0  0  0  0  0  0  0  0
  150.5798  137.5522  155.3284 C   0  0  0  0  0  0  0  0  0  0  0  0
  150.2344  138.7252  156.0590 C   0  0  0  0  0  0  0  0  0  0  0  0
  149.5115  138.3633  157.1902 N   0  0  0  0  0  0  0  0  0  0  0  0
  149.4570  137.0609  157.1400 C   0  0  0  0  0  0  0  0  0  0  0  0
  150.0811  136.4892  156.0561 N   0  0  0  0  0  0  0  0  0  0  0  0
  150.1988  135.0309  155.7411 C   0  0  1  0  0  0  0  0  0  0  0  0
  149.5579  134.2915  156.7286 O   0  0  0  0  0  0  0  0  0  0  0  0
  149.0823  133.0702  156.1721 C   0  0  1  0  0  0  0  0  0  0  0  0
  147.6766  132.7813  156.7305 C   0  0  0  0  0  0  0  0  0  0  0  0
  147.1646  131.5503  156.2638 O   0  0  0  0  0  0  0  0  0  0  0  0
  149.1854  133.1906  154.6364 C   0  0  2  0  0  0  0  0  0  0  0  0
  150.2284  132.3557  154.1694 O   0  0  0  0  0  0  0  0  0  0  0  0
  149.5524  134.6505  154.4013 C   0  0  1  0  0  0  0  0  0  0  0  0
  148.4066  135.4207  154.0871 O   0  0  0  0  0  0  0  0  0  0  0  0
  151.4778  142.0803  158.1792 C   0  0  0  0  0  0  0  0  0  0  0  0
  151.4831  143.4897  158.3022 C   0  0  0  0  0  0  0  0  0  0  0  0
  152.5441  144.1508  158.9484 C   0  0  0  0  0  0  0  0  0  0  0  0
  153.6088  143.4085  159.4898 C   0  0  0  0  0  0  0  0  0  0  0  0
  153.6064  142.0053  159.3888 C   0  0  0  0  0  0  0  0  0  0  0  0
  152.5473  141.3381  158.7413 C   0  0  0  0  0  0  0  0  0  0  0  0
  152.5925  139.6115  158.6589 Cl  0  0  0  0  0  0  0  0  0  0  0  0
  151.2682  134.8164  155.7664 H   0  0  0  0  0  0  0  0  0  0  0  0
  149.7495  132.2850  156.5321 H   0  0  0  0  0  0  0  0  0  0  0  0
  148.2690  132.9022  154.1195 H   0  0  0  0  0  0  0  0  0  0  0  0
  150.2759  134.7834  153.5958 H   0  0  0  0  0  0  0  0  0  0  0  0
  148.7982  142.2012  158.7909 H   0  0  0  0  0  0  0  0  0  0  0  0
  148.1600  141.6103  157.2628 H   0  0  0  0  0  0  0  0  0  0  0  0
  149.0364  143.1389  157.3191 H   0  0  0  0  0  0  0  0  0  0  0  0
  150.1976  140.3802  157.8810 H   0  0  0  0  0  0  0  0  0  0  0  0
  150.7844  142.0252  155.5288 H   0  0  0  0  0  0  0  0  0  0  0  0
  152.1602  138.7882  152.8161 H   0  0  0  0  0  0  0  0  0  0  0  0
  148.9621  136.4772  157.9025 H   0  0  0  0  0  0  0  0  0  0  0  0
  147.7160  132.7332  157.8190 H   0  0  0  0  0  0  0  0  0  0  0  0
  146.9875  133.5851  156.4705 H   0  0  0  0  0  0  0  0  0  0  0  0
  146.5640  131.7260  155.5545 H   0  0  0  0  0  0  0  0  0  0  0  0
  150.5502  131.8437  154.8958 H   0  0  0  0  0  0  0  0  0  0  0  0
  148.5237  135.7928  153.2263 H   0  0  0  0  0  0  0  0  0  0  0  0
  150.6721  144.0760  157.8958 H   0  0  0  0  0  0  0  0  0  0  0  0
  152.5398  145.2278  159.0290 H   0  0  0  0  0  0  0  0  0  0  0  0
  154.4237  143.9140  159.9865 H   0  0  0  0  0  0  0  0  0  0  0  0
  154.4218  141.4378  159.8128 H   0  0  0  0  0  0  0  0  0  0  0  0
  1  2  1  0  0  0  0
  1 33  1  0  0  0  0
  1 34  1  0  0  0  0
  1 35  1  0  0  0  0
  2  3  1  0  0  0  0
  2 22  1  0  0  0  0
  2 36  1  0  0  0  0
  3  4  1  0  0  0  0
  3 37  1  0  0  0  0
  4  9  1  0  0  0  0
  4  5  2  0  0  0  0
  5  6  1  0  0  0  0
  6  7  2  0  0  0  0
  6 38  1  0  0  0  0
  7  8  1  0  0  0  0
  8 12  1  0  0  0  0
  8  9  2  0  0  0  0
  9 10  1  0  0  0  0
 10 11  2  0  0  0  0
 11 12  1  0  0  0  0
 11 39  1  0  0  0  0
 12 13  1  0  0  0  0
 13 29  1  0  0  0  0
 13 20  1  0  0  0  0
 13 14  1  0  0  0  0
 14 15  1  0  0  0  0
 15 30  1  0  0  0  0
 15 16  1  0  0  0  0
 15 18  1  0  0  0  0
 16 17  1  0  0  0  0
 16 40  1  0  0  0  0
 16 41  1  0  0  0  0
 17 42  1  0  0  0  0
 18 31  1  0  0  0  0
 18 19  1  0  0  0  0
 18 20  1  0  0  0  0
 19 43  1  0  0  0  0
 20 32  1  0  0  0  0
 20 21  1  0  0  0  0
 21 44  1  0  0  0  0
 22 27  1  0  0  0  0
 22 23  2  0  0  0  0
 23 24  1  0  0  0  0
 23 45  1  0  0  0  0
 24 25  2  0  0  0  0
 24 46  1  0  0  0  0
 25 26  1  0  0  0  0
 25 47  1  0  0  0  0
 26 27  2  0  0  0  0
 26 48  1  0  0  0  0
 27 28  1  0  0  0  0
M  END
> <s_m_source_file>
AV-unprocessed.smi

> <i_m_source_file_index>
283

> <i_lp_mmshare_version>
43012

> <i_f3d_flags>
0

> <s_epik_input>
Q2xjMVtjSF1bY0hdW2NIXVtjSF1jMVtDQEhdKFtDSDNdKVtOSF1jKG5bY0hdbjIpYyhjMjMpbltjSF1uM1tDQEBIXTRPW0NASF0oW0NIMl1bT0hdKVtDQEBIXShbT0hdKVtDQEhdNFtPSF0=

> <s_epik_cmdline>
J2VwaWtfcHl0aG9uJywgJy1waCcsICc3LjAnLCAnLXRuJywgJzgnLCAnLW1hJywgJzIwMCcsICctbWV0YWxfYmluZGluZycsICctaW1hZScsICc8aW5maWxlLm1hZT4nLCAnLW9tYWUnLCAnPG91dGZpbGUubWFlPic=

> <r_lp_tautomer_probability>
1

> <r_epik_Ionization_Penalty>
0.000266407

> <r_epik_Ionization_Penalty_Charging>
0

> <r_epik_Ionization_Penalty_Neutral>
0.000266407

> <r_epik_State_Penalty>
-0

> <r_epik_Charging_Adjusted_Penalty>
0

> <i_epik_Tot_Q>
0

> <i_epik_Tot_abs_Q>
0

> <r_epik_Metal_State_Penalty>
-0

> <b_epik_Metal_Only>
0

> <s_epik_Chemistry_Notes>
This compound contains an acetal/aminal-like group ( X-CH(R)-Y where X, Y are N, S, or O) that may be acid/base labile, releasing an aldehyde.

> <s_lp_Force_Field>
OPLS_2005

> <r_lp_Energy>
47.3301

> <b_lp_Chiralities_Consistent>
1

> <s_lp_Variant>
AV-unprocessed.smi:283-16

> <Gold.Version>
5.8.1

> <Gold.Id.Protein>
6NUR|6NUR_protein|mol2

> <Gold.PLP.Fitness>
51.1952

> <Gold.PLP.PLP>
-41.5502

> <Gold.PLP.part.hbond>
-4.0000

> <Gold.PLP.part.metal>
0.0000

> <Gold.PLP.part.buried>
-6.5689

> <Gold.PLP.part.nonpolar>
-30.9104

> <Gold.PLP.part.repulsive>
0.2793

> <Gold.PLP.ligand.clash>
0.0000

> <Gold.PLP.ligand.torsion>
0.9063

> <Gold.PLP.Chemscore.Hbond>
3.7961

> <Gold.PLP.Chemscore.CHOScore>
0.0000

> <Gold.PLP.Chemscore.Metal>
0.0000

> <Gold.Chemscore.Hbonds>
donor molecule, donor type, donor heavy atom, donor atom, acceptor molecule, acceptor atom, score
      L1  H    21    44       P1  7948  0.88
      P1  H  7989  7998       L1     5  0.41

> <Gold.PLP.Chemscore.Internal.Correction>
0.0694

> <Gold.Rescore>
     Score         DG    S(hbond)    S(metal)    S(lipo)     H(rot)  DE(clash)    DE(int)     intcor
     14.12     -15.08       2.55        0.00      98.80       4.10       0.08       0.88       ----

> <Gold.Chemscore.Fitness>
14.1216

> <Gold.Chemscore.DG>
-15.0764

> <Gold.Chemscore.ZeroCoef>
-5.4800

> <Gold.Chemscore.Hbond>
2.5524

> <Gold.Chemscore.Metal>
0.0000

> <Gold.Chemscore.Lipo>
98.7977

> <Gold.Chemscore.Internal_Hbond>
0.0000

> <Gold.Chemscore.DEClash>
0.0786

> <Gold.Chemscore.DEInternal>
0.8762

> <Gold.Chemscore.Rot>
4.0968

> <Gold.Chemscore.Internal.Correction>
   9.000000E+99

> <Gold.Chemscore.Hbonds>
donor molecule, donor type, donor heavy atom, donor atom, acceptor molecule, acceptor atom, score
      L1  H    21    44       P1  7948  0.86
      P1  H  7989  7998       L1     5  0.26
      P1  H 10752 10764       L1     7  0.01

> <Gold.Chemscore.Hbond.Weighted>
-8.5250

> <Gold.Chemscore.Metal.Weighted>
-0.0000

> <Gold.Chemscore.Lipo.Weighted>
-11.5593

> <Gold.Chemscore.Internal_Hbond.Weighted>
0.0000

> <Gold.Chemscore.DEClash.Weighted>
0.0786

> <Gold.Chemscore.DEInternal.Weighted>
0.8762

> <Gold.Chemscore.Rot.Weighted>
10.4879

> <Gold.Chemscore.Internal.Correction.Weighted>
   9.000000E+99

> <Gold.Protein.RotatedTorsions>
[ 6907 6896 6895 6894 ] final    5.93 input  -60.11 | X-H torsion
[ 7974 7965 7964 7962 ] final  106.50 input  175.53 | X-H torsion
[ 8008 7997 7996 7995 ] final   78.39 input   59.86 | X-H torsion
[ 10167 10162 10161 10158 ] final -109.52 input  -65.29 | X-H torsion
[ 10718 10713 10712 10709 ] final  169.42 input   66.30 | X-H torsion
[ 10763 10752 10751 10750 ] final  -70.20 input  -60.55 | X-H torsion
[ 11005 11000 10999 10996 ] final  156.89 input  -57.11 | X-H torsion

> <Gold.Protein.ActiveResidues>
 VAL166  LYS551  ARG553  GLY616  TRP617  ASP618  TYR619  PRO620  LYS621  CYS622 
 ASP623  PHE694  ASN695  SER759  ASP760  ASP761  ALA762  ILE779  LEU786  VAL792 
 PHE793  MET794  SER795  GLU796  ALA797  LYS798  CYS799  TRP800  GLU811  SER814 

> <Gold.Protein.RotatedAtoms>
  151.6655  135.0983  160.0187 H   0  0  0  0  0  0  0  0  0  0  0  0  # atno 6907 bound_to 6896
  152.3922  133.6691  159.6255 H   0  0  0  0  0  0  0  0  0  0  0  0  # atno 6908 bound_to 6896
  150.7835  133.8852  159.3338 H   0  0  0  0  0  0  0  0  0  0  0  0  # atno 6909 bound_to 6896
  145.3058  139.2555  143.3789 H   0  0  0  0  0  0  0  0  0  0  0  0  # atno 7974 bound_to 7965
  155.8550  140.3456  155.5718 H   0  0  0  0  0  0  0  0  0  0  0  0  # atno 8008 bound_to 7997
  155.7996  140.0883  157.1984 H   0  0  0  0  0  0  0  0  0  0  0  0  # atno 8009 bound_to 7997
  154.4009  140.1468  156.3245 H   0  0  0  0  0  0  0  0  0  0  0  0  # atno 8010 bound_to 7997
  140.1544  143.4172  152.1471 H   0  0  0  0  0  0  0  0  0  0  0  0  # atno 10167 bound_to 10162
  157.0229  131.0237  151.2769 H   0  0  0  0  0  0  0  0  0  0  0  0  # atno 10718 bound_to 10713
  154.4142  135.6002  153.5971 H   0  0  0  0  0  0  0  0  0  0  0  0  # atno 10763 bound_to 10752
  152.9791  135.5937  154.4033 H   0  0  0  0  0  0  0  0  0  0  0  0  # atno 10764 bound_to 10752
  154.3849  135.2841  155.2167 H   0  0  0  0  0  0  0  0  0  0  0  0  # atno 10765 bound_to 10752
  140.1717  134.8538  157.2698 H   0  0  0  0  0  0  0  0  0  0  0  0  # atno 11005 bound_to 11000
  146.3135  140.3583  142.8662 LP  0  0  0  0  0  0  0  0  0  0  0  0  # atno 17320 bound_to 7965
  144.9056  140.7695  143.5840 LP  0  0  0  0  0  0  0  0  0  0  0  0  # atno 17321 bound_to 7965
  139.5410  144.7256  151.4733 LP  0  0  0  0  0  0  0  0  0  0  0  0  # atno 17342 bound_to 10162
  140.6682  143.8352  150.6967 LP  0  0  0  0  0  0  0  0  0  0  0  0  # atno 17343 bound_to 10162
  157.5236  130.8013  149.7836 LP  0  0  0  0  0  0  0  0  0  0  0  0  # atno 17370 bound_to 10713
  156.0096  130.3839  150.2311 LP  0  0  0  0  0  0  0  0  0  0  0  0  # atno 17371 bound_to 10713
  140.2369  134.3842  155.7497 LP  0  0  0  0  0  0  0  0  0  0  0  0  # atno 17394 bound_to 11000
  141.2218  133.7244  156.8729 LP  0  0  0  0  0  0  0  0  0  0  0  0  # atno 17395 bound_to 11000

$$$$
