AV-unprocessed.smi:1401|AV-procd|sdf|5691|dock10
  -GOLD-   22720 5323D 1   1.00000     0.00000
 Structure written by MMmdl.
 48 50  0  0  0  0  0  0  0  0  1 V2000
  154.1682  136.8926  162.4307 C   0  0  0  0  0  0  0  0  0  0  0  0
  154.0678  136.7323  160.9377 C   0  0  0  0  0  0  0  0  0  0  0  0
  153.0818  137.3304  160.3539 N   0  0  0  0  0  0  0  0  0  0  0  0
  152.8950  137.2430  158.9879 N   0  0  0  0  0  0  0  0  0  0  0  0
  151.7131  137.9643  158.4941 C   0  0  0  0  0  0  0  0  0  0  0  0
  152.0726  139.2601  157.7542 C   0  0  0  0  0  0  0  0  0  0  0  0
  153.0799  139.3178  157.0477 O   0  0  0  0  0  0  0  0  0  0  0  0
  151.2244  140.2865  157.9181 N   0  0  0  0  0  0  0  0  0  0  0  0
  151.3797  141.6221  157.3446 C   0  0  1  0  0  0  0  0  0  0  0  0
  150.3570  141.7933  156.2078 C   0  0  0  0  0  0  0  0  0  0  0  0
  151.2245  142.6829  158.4624 C   0  0  1  0  0  0  0  0  0  0  0  0
  152.3106  142.5907  159.5651 C   0  0  0  0  0  0  0  0  0  0  0  0
  152.8791  144.0190  159.6255 C   0  0  2  0  0  0  0  0  0  0  0  0
  151.8224  144.9715  160.2138 C   0  0  0  0  0  0  0  0  0  0  0  0
  150.7979  145.0865  159.0698 C   0  0  0  0  0  0  0  0  0  0  0  0
  151.3827  144.1517  157.9932 C   0  0  1  0  0  0  0  0  0  0  0  0
  152.8781  144.4079  158.1537 C   0  0  0  0  0  0  0  0  0  0  0  0
  153.7074  136.5538  158.1351 C   0  0  0  0  0  0  0  0  0  0  0  0
  153.5081  136.5108  156.9198 O   0  0  0  0  0  0  0  0  0  0  0  0
  154.8219  135.8789  158.8036 C   0  0  0  0  0  0  0  0  0  0  0  0
  155.6926  135.1398  157.9476 C   0  0  0  0  0  0  0  0  0  0  0  0
  156.3850  134.5246  157.2530 N   0  0  0  0  0  0  0  0  0  0  0  0
  155.0115  135.9506  160.1448 C   0  0  0  0  0  0  0  0  0  0  0  0
  156.1521  135.2679  160.8871 C   0  0  0  0  0  0  0  0  0  0  0  0
  155.1179  137.3498  162.7078 H   0  0  0  0  0  0  0  0  0  0  0  0
  154.0996  135.9252  162.9281 H   0  0  0  0  0  0  0  0  0  0  0  0
  153.3715  137.5234  162.8276 H   0  0  0  0  0  0  0  0  0  0  0  0
  151.1393  137.3347  157.8116 H   0  0  0  0  0  0  0  0  0  0  0  0
  151.0401  138.1833  159.3256 H   0  0  0  0  0  0  0  0  0  0  0  0
  150.4202  140.1411  158.5110 H   0  0  0  0  0  0  0  0  0  0  0  0
  152.3805  141.7182  156.9202 H   0  0  0  0  0  0  0  0  0  0  0  0
  150.4825  142.7420  155.6879 H   0  0  0  0  0  0  0  0  0  0  0  0
  149.3345  141.7521  156.5842 H   0  0  0  0  0  0  0  0  0  0  0  0
  150.4667  141.0056  155.4614 H   0  0  0  0  0  0  0  0  0  0  0  0
  150.2399  142.5507  158.9142 H   0  0  0  0  0  0  0  0  0  0  0  0
  151.9027  142.2646  160.5224 H   0  0  0  0  0  0  0  0  0  0  0  0
  153.1041  141.8932  159.2921 H   0  0  0  0  0  0  0  0  0  0  0  0
  153.8497  144.0817  160.1184 H   0  0  0  0  0  0  0  0  0  0  0  0
  151.3806  144.5810  161.1312 H   0  0  0  0  0  0  0  0  0  0  0  0
  152.2571  145.9463  160.4387 H   0  0  0  0  0  0  0  0  0  0  0  0
  149.7927  144.7952  159.3770 H   0  0  0  0  0  0  0  0  0  0  0  0
  150.7487  146.1129  158.7040 H   0  0  0  0  0  0  0  0  0  0  0  0
  150.9911  144.3593  156.9983 H   0  0  0  0  0  0  0  0  0  0  0  0
  153.1603  145.4481  157.9815 H   0  0  0  0  0  0  0  0  0  0  0  0
  153.5025  143.7623  157.5341 H   0  0  0  0  0  0  0  0  0  0  0  0
  156.8020  134.7041  160.2184 H   0  0  0  0  0  0  0  0  0  0  0  0
  155.7624  134.5701  161.6290 H   0  0  0  0  0  0  0  0  0  0  0  0
  156.7708  136.0054  161.3994 H   0  0  0  0  0  0  0  0  0  0  0  0
  1  2  1  0  0  0  0
  1 25  1  0  0  0  0
  1 26  1  0  0  0  0
  1 27  1  0  0  0  0
  2 23  1  0  0  0  0
  2  3  2  0  0  0  0
  3  4  1  0  0  0  0
  4  5  1  0  0  0  0
  4 18  1  0  0  0  0
  5  6  1  0  0  0  0
  5 28  1  0  0  0  0
  5 29  1  0  0  0  0
  6  7  2  0  0  0  0
  6  8  1  0  0  0  0
  8  9  1  0  0  0  0
  8 30  1  0  0  0  0
  9 10  1  0  0  0  0
  9 11  1  0  0  0  0
  9 31  1  0  0  0  0
 10 32  1  0  0  0  0
 10 33  1  0  0  0  0
 10 34  1  0  0  0  0
 11 16  1  0  0  0  0
 11 12  1  0  0  0  0
 11 35  1  0  0  0  0
 12 13  1  0  0  0  0
 12 36  1  0  0  0  0
 12 37  1  0  0  0  0
 13 17  1  0  0  0  0
 13 14  1  0  0  0  0
 13 38  1  0  0  0  0
 14 15  1  0  0  0  0
 14 39  1  0  0  0  0
 14 40  1  0  0  0  0
 15 16  1  0  0  0  0
 15 41  1  0  0  0  0
 15 42  1  0  0  0  0
 16 17  1  0  0  0  0
 16 43  1  0  0  0  0
 17 44  1  0  0  0  0
 17 45  1  0  0  0  0
 18 19  2  0  0  0  0
 18 20  1  0  0  0  0
 20 21  1  0  0  0  0
 20 23  2  0  0  0  0
 21 22  3  0  0  0  0
 23 24  1  0  0  0  0
 24 46  1  0  0  0  0
 24 47  1  0  0  0  0
 24 48  1  0  0  0  0
M  END
> <s_m_source_file>
AV-unprocessed.smi

> <i_m_source_file_index>
1401

> <i_lp_mmshare_version>
43012

> <i_f3d_flags>
0

> <s_epik_input>
TiNDYyhjMVtDSDNdKWMoPU8pbihuYzFbQ0gzXSlbQ0gyXUMoPU8pW05IXVtDQEhdKFtDSDNdKVtDQEhdKFtDSDJdW0NASF0yMylbQ0BIXShbQ0gyXTMpW0NIMl1bQ0gyXTI=

> <s_epik_cmdline>
J2VwaWtfcHl0aG9uJywgJy1waCcsICc3LjAnLCAnLXRuJywgJzgnLCAnLW1hJywgJzIwMCcsICctbWV0YWxfYmluZGluZycsICctaW1hZScsICc8aW5maWxlLm1hZT4nLCAnLW9tYWUnLCAnPG91dGZpbGUubWFlPic=

> <r_lp_tautomer_probability>
1

> <r_epik_Ionization_Penalty>
2.16501e-08

> <r_epik_Ionization_Penalty_Charging>
2.29436e-11

> <r_epik_Ionization_Penalty_Neutral>
2.16271e-08

> <r_epik_State_Penalty>
-0

> <r_epik_Charging_Adjusted_Penalty>
2.29436e-11

> <i_epik_Tot_Q>
0

> <i_epik_Tot_abs_Q>
0

> <r_epik_Metal_State_Penalty>
-0

> <b_epik_Metal_Only>
0

> <s_lp_Force_Field>
OPLS_2005

> <r_lp_Energy>
65.5995

> <b_lp_Chiralities_Consistent>
1

> <s_lp_Variant>
AV-unprocessed.smi:1401-4

> <Gold.Version>
5.8.1

> <Gold.Id.Protein>
6NUR|6NUR_protein|mol2

> <Gold.PLP.Fitness>
48.9926

> <Gold.PLP.PLP>
-44.2184

> <Gold.PLP.part.hbond>
-2.0000

> <Gold.PLP.part.metal>
0.0000

> <Gold.PLP.part.buried>
-6.5999

> <Gold.PLP.part.nonpolar>
-36.6255

> <Gold.PLP.part.repulsive>
0.0886

> <Gold.PLP.ligand.clash>
0.0000

> <Gold.PLP.ligand.torsion>
0.6241

> <Gold.PLP.Chemscore.Hbond>
2.0000

> <Gold.PLP.Chemscore.CHOScore>
0.0000

> <Gold.PLP.Chemscore.Metal>
0.0000

> <Gold.Chemscore.Hbonds>
donor molecule, donor type, donor heavy atom, donor atom, acceptor molecule, acceptor atom, score
      P1  H  7997  8008       L1     7  1.00
      P1  H 10752 10765       L1    19  1.00

> <Gold.PLP.Chemscore.Internal.Correction>
0.0224

> <Gold.Rescore>
     Score         DG    S(hbond)    S(metal)    S(lipo)     H(rot)  DE(clash)    DE(int)     intcor
     21.67     -22.49       1.98        0.00     124.56       1.63       0.04       0.78       ----

> <Gold.Chemscore.Fitness>
21.6747

> <Gold.Chemscore.DG>
-22.4934

> <Gold.Chemscore.ZeroCoef>
-5.4800

> <Gold.Chemscore.Hbond>
1.9784

> <Gold.Chemscore.Metal>
0.0000

> <Gold.Chemscore.Lipo>
124.5599

> <Gold.Chemscore.Internal_Hbond>
0.0000

> <Gold.Chemscore.DEClash>
0.0382

> <Gold.Chemscore.DEInternal>
0.7805

> <Gold.Chemscore.Rot>
1.6281

> <Gold.Chemscore.Internal.Correction>
   9.000000E+99

> <Gold.Chemscore.Hbonds>
donor molecule, donor type, donor heavy atom, donor atom, acceptor molecule, acceptor atom, score
      P1  H  7997  8008       L1     7  0.96
      P1  H 10752 10765       L1    19  0.96

> <Gold.Chemscore.Hbond.Weighted>
-6.6077

> <Gold.Chemscore.Metal.Weighted>
-0.0000

> <Gold.Chemscore.Lipo.Weighted>
-14.5735

> <Gold.Chemscore.Internal_Hbond.Weighted>
0.0000

> <Gold.Chemscore.DEClash.Weighted>
0.0382

> <Gold.Chemscore.DEInternal.Weighted>
0.7805

> <Gold.Chemscore.Rot.Weighted>
4.1678

> <Gold.Chemscore.Internal.Correction.Weighted>
   9.000000E+99

> <Gold.Protein.RotatedTorsions>
[ 6907 6896 6895 6894 ] final  -76.03 input  -60.11 | X-H torsion
[ 7974 7965 7964 7962 ] final   90.65 input  175.53 | X-H torsion
[ 8008 7997 7996 7995 ] final  -62.24 input   59.86 | X-H torsion
[ 10167 10162 10161 10158 ] final -127.86 input  -65.29 | X-H torsion
[ 10718 10713 10712 10709 ] final  113.51 input   66.30 | X-H torsion
[ 10763 10752 10751 10750 ] final -119.99 input  -60.55 | X-H torsion
[ 11005 11000 10999 10996 ] final   59.35 input  -57.11 | X-H torsion

> <Gold.Protein.ActiveResidues>
 VAL166  LYS551  ARG553  GLY616  TRP617  ASP618  TYR619  PRO620  LYS621  CYS622 
 ASP623  PHE694  ASN695  SER759  ASP760  ASP761  ALA762  ILE779  LEU786  VAL792 
 PHE793  MET794  SER795  GLU796  ALA797  LYS798  CYS799  TRP800  GLU811  SER814 

> <Gold.Protein.RotatedAtoms>
  150.7040  134.4633  159.5390 H   0  0  0  0  0  0  0  0  0  0  0  0  # atno 6907 bound_to 6896
  152.2303  134.8325  160.0483 H   0  0  0  0  0  0  0  0  0  0  0  0  # atno 6908 bound_to 6896
  151.9143  133.3534  159.3911 H   0  0  0  0  0  0  0  0  0  0  0  0  # atno 6909 bound_to 6896
  145.5161  139.2278  143.2697 H   0  0  0  0  0  0  0  0  0  0  0  0  # atno 7974 bound_to 7965
  154.4489  140.1000  156.6556 H   0  0  0  0  0  0  0  0  0  0  0  0  # atno 8008 bound_to 7997
  155.5350  140.3482  155.4416 H   0  0  0  0  0  0  0  0  0  0  0  0  # atno 8009 bound_to 7997
  156.0637  140.1332  156.9899 H   0  0  0  0  0  0  0  0  0  0  0  0  # atno 8010 bound_to 7997
  139.9563  143.5999  152.2459 H   0  0  0  0  0  0  0  0  0  0  0  0  # atno 10167 bound_to 10162
  157.6334  131.0984  150.7051 H   0  0  0  0  0  0  0  0  0  0  0  0  # atno 10718 bound_to 10713
  154.8632  135.4219  154.2387 H   0  0  0  0  0  0  0  0  0  0  0  0  # atno 10763 bound_to 10752
  153.3357  135.6991  153.6915 H   0  0  0  0  0  0  0  0  0  0  0  0  # atno 10764 bound_to 10752
  153.5914  135.3554  155.2885 H   0  0  0  0  0  0  0  0  0  0  0  0  # atno 10765 bound_to 10752
  140.0310  134.6011  155.9506 H   0  0  0  0  0  0  0  0  0  0  0  0  # atno 11005 bound_to 11000
  146.2135  140.5971  142.9049 LP  0  0  0  0  0  0  0  0  0  0  0  0  # atno 17320 bound_to 7965
  144.7701  140.5618  143.6676 LP  0  0  0  0  0  0  0  0  0  0  0  0  # atno 17321 bound_to 7965
  139.6588  144.7662  151.2002 LP  0  0  0  0  0  0  0  0  0  0  0  0  # atno 17342 bound_to 10162
  140.7567  143.6042  150.8669 LP  0  0  0  0  0  0  0  0  0  0  0  0  # atno 17343 bound_to 10162
  156.7386  130.4732  149.5482 LP  0  0  0  0  0  0  0  0  0  0  0  0  # atno 17370 bound_to 10713
  156.1554  130.6338  151.0650 LP  0  0  0  0  0  0  0  0  0  0  0  0  # atno 17371 bound_to 10713
  141.1831  133.6550  156.5103 LP  0  0  0  0  0  0  0  0  0  0  0  0  # atno 17394 bound_to 11000
  140.4225  134.7174  157.4898 LP  0  0  0  0  0  0  0  0  0  0  0  0  # atno 17395 bound_to 11000

$$$$
