AV-unprocessed.smi:2013|AV-procd|sdf|8157|dock6
  -GOLD-   2272010403D 1   1.00000     0.00000
 Structure written by MMmdl.
 51 52  0  0  0  0  0  0  0  0  2 V2000
  144.1257  135.2087  150.5029 C   0  0  0  0  0  0  0  0  0  0  0  0
  145.2472  135.5455  151.5039 C   0  0  0  0  0  0  0  0  0  0  0  0
  145.6858  134.2494  152.2150 C   0  0  0  0  0  0  0  0  0  0  0  0
  144.8461  136.6564  152.5177 C   0  0  2  0  0  0  0  0  0  0  0  0
  145.8464  136.7756  153.7028 C   0  0  0  0  0  0  0  0  0  0  0  0
  146.8719  137.7906  153.4855 N   0  0  0  0  0  0  0  0  0  0  0  0
  146.9690  138.9494  154.1530 C   0  0  0  0  0  0  0  0  0  0  0  0
  146.1820  139.2887  155.0374 O   0  0  0  0  0  0  0  0  0  0  0  0
  148.1161  139.8756  153.7284 C   0  0  0  0  0  0  0  0  0  0  0  0
  149.3960  139.5277  154.3586 N   0  0  0  0  0  0  0  0  0  0  0  0
  150.1162  138.4427  153.8920 C   0  0  0  0  0  0  0  0  0  0  0  0
  151.3043  138.0598  154.4078 C   0  0  0  0  0  0  0  0  0  0  0  0
  151.9061  138.7887  155.5169 C   0  0  0  0  0  0  0  0  0  0  0  0
  152.9881  138.4841  156.0213 O   0  0  0  0  0  0  0  0  0  0  0  0
  151.1491  139.8894  155.9788 N   0  0  0  0  0  0  0  0  0  0  0  0
  151.7126  140.6389  157.0823 C   0  0  0  0  0  0  0  0  0  0  0  0
  149.9089  140.2920  155.4299 C   0  0  0  0  0  0  0  0  0  0  0  0
  149.2836  141.2677  155.8514 O   0  0  0  0  0  0  0  0  0  0  0  0
  143.4227  136.4628  152.9408 N   0  3  0  0  0  0  0  0  0  0  0  0
  143.0640  135.1155  153.4507 C   0  0  0  0  0  0  0  0  0  0  0  0
  141.5398  135.0079  153.6195 C   0  0  0  0  0  0  0  0  0  0  0  0
  141.0822  136.0399  154.4860 O   0  0  0  0  0  0  0  0  0  0  0  0
  141.3453  137.3361  153.9611 C   0  0  0  0  0  0  0  0  0  0  0  0
  142.8624  137.5322  153.8037 C   0  0  0  0  0  0  0  0  0  0  0  0
  143.2029  134.9359  151.0158 H   0  0  0  0  0  0  0  0  0  0  0  0
  144.4081  134.3704  149.8652 H   0  0  0  0  0  0  0  0  0  0  0  0
  143.9096  136.0427  149.8358 H   0  0  0  0  0  0  0  0  0  0  0  0
  146.0972  135.8997  150.9196 H   0  0  0  0  0  0  0  0  0  0  0  0
  144.8906  133.8583  152.8505 H   0  0  0  0  0  0  0  0  0  0  0  0
  146.5669  134.4018  152.8382 H   0  0  0  0  0  0  0  0  0  0  0  0
  145.9429  133.4733  151.4935 H   0  0  0  0  0  0  0  0  0  0  0  0
  144.8926  137.5978  151.9676 H   0  0  0  0  0  0  0  0  0  0  0  0
  145.3016  136.9588  154.6305 H   0  0  0  0  0  0  0  0  0  0  0  0
  146.3812  135.8376  153.8452 H   0  0  0  0  0  0  0  0  0  0  0  0
  147.5659  137.5950  152.7787 H   0  0  0  0  0  0  0  0  0  0  0  0
  148.2189  139.8693  152.6416 H   0  0  0  0  0  0  0  0  0  0  0  0
  147.8386  140.8975  153.9905 H   0  0  0  0  0  0  0  0  0  0  0  0
  149.7124  137.8715  153.0687 H   0  0  0  0  0  0  0  0  0  0  0  0
  151.8166  137.2035  153.9942 H   0  0  0  0  0  0  0  0  0  0  0  0
  151.0293  141.4141  157.4272 H   0  0  0  0  0  0  0  0  0  0  0  0
  152.6410  141.0871  156.7248 H   0  0  0  0  0  0  0  0  0  0  0  0
  151.8980  139.9342  157.8951 H   0  0  0  0  0  0  0  0  0  0  0  0
  143.4128  134.3458  152.7622 H   0  0  0  0  0  0  0  0  0  0  0  0
  143.5437  134.9301  154.4116 H   0  0  0  0  0  0  0  0  0  0  0  0
  141.0343  135.0750  152.6546 H   0  0  0  0  0  0  0  0  0  0  0  0
  141.2771  134.0417  154.0505 H   0  0  0  0  0  0  0  0  0  0  0  0
  140.8338  137.4649  153.0057 H   0  0  0  0  0  0  0  0  0  0  0  0
  140.9382  138.0832  154.6427 H   0  0  0  0  0  0  0  0  0  0  0  0
  143.3309  137.5213  154.7868 H   0  0  0  0  0  0  0  0  0  0  0  0
  143.0586  138.5103  153.3633 H   0  0  0  0  0  0  0  0  0  0  0  0
  142.9058  136.5581  152.0781 H   0  0  0  0  0  0  0  0  0  0  0  0
  1  2  1  0  0  0  0
  1 25  1  0  0  0  0
  1 26  1  0  0  0  0
  1 27  1  0  0  0  0
  2  3  1  0  0  0  0
  2  4  1  0  0  0  0
  2 28  1  0  0  0  0
  3 29  1  0  0  0  0
  3 30  1  0  0  0  0
  3 31  1  0  0  0  0
  4  5  1  0  0  0  0
  4 19  1  0  0  0  0
  4 32  1  0  0  0  0
  5  6  1  0  0  0  0
  5 33  1  0  0  0  0
  5 34  1  0  0  0  0
  6  7  1  0  0  0  0
  6 35  1  0  0  0  0
  7  8  2  0  0  0  0
  7  9  1  0  0  0  0
  9 10  1  0  0  0  0
  9 36  1  0  0  0  0
  9 37  1  0  0  0  0
 10 17  1  0  0  0  0
 10 11  1  0  0  0  0
 11 12  2  0  0  0  0
 11 38  1  0  0  0  0
 12 13  1  0  0  0  0
 12 39  1  0  0  0  0
 13 14  2  0  0  0  0
 13 15  1  0  0  0  0
 15 16  1  0  0  0  0
 15 17  1  0  0  0  0
 16 40  1  0  0  0  0
 16 41  1  0  0  0  0
 16 42  1  0  0  0  0
 17 18  2  0  0  0  0
 19 24  1  0  0  0  0
 19 20  1  0  0  0  0
 19 51  1  0  0  0  0
 20 21  1  0  0  0  0
 20 43  1  0  0  0  0
 20 44  1  0  0  0  0
 21 22  1  0  0  0  0
 21 45  1  0  0  0  0
 21 46  1  0  0  0  0
 22 23  1  0  0  0  0
 23 24  1  0  0  0  0
 23 47  1  0  0  0  0
 23 48  1  0  0  0  0
 24 49  1  0  0  0  0
 24 50  1  0  0  0  0
M  CHG  1  19   1
M  END
> <s_m_source_file>
AV-unprocessed.smi

> <i_m_source_file_index>
2013

> <i_lp_mmshare_version>
43012

> <i_f3d_flags>
0

> <s_epik_input>
W0NIMl0xW0NIMl1PW0NIMl1bQ0gyXU4xW0NASF0oW0NIXShbQ0gzXSlbQ0gzXSlbQ0gyXVtOSF1DKD1PKVtDSDJdbjJbY0hdW2NIXWMoPU8pbihbQ0gzXSljMj1P

> <s_epik_cmdline>
J2VwaWtfcHl0aG9uJywgJy1waCcsICc3LjAnLCAnLXRuJywgJzgnLCAnLW1hJywgJzIwMCcsICctbWV0YWxfYmluZGluZycsICctaW1hZScsICc8aW5maWxlLm1hZT4nLCAnLW9tYWUnLCAnPG91dGZpbGUubWFlPic=

> <r_lp_tautomer_probability>
1

> <r_epik_Ionization_Penalty>
0.370738

> <r_epik_Ionization_Penalty_Charging>
0.370738

> <r_epik_Ionization_Penalty_Neutral>
8.1827e-08

> <r_epik_State_Penalty>
0.368162

> <r_epik_Charging_Adjusted_Penalty>
0.7389

> <i_epik_Tot_Q>
1

> <i_epik_Tot_abs_Q>
1

> <r_epik_Metal_State_Penalty>
0.368194

> <b_epik_Metal_Only>
0

> <s_lp_Force_Field>
OPLS_2005

> <r_lp_Energy>
40.4187

> <b_lp_Chiralities_Consistent>
1

> <s_lp_Variant>
AV-unprocessed.smi:2013-1

> <Gold.Version>
5.8.1

> <Gold.Id.Protein>
6NUR|6NUR_protein|mol2

> <Gold.PLP.Fitness>
47.3254

> <Gold.PLP.PLP>
-40.6032

> <Gold.PLP.part.hbond>
-2.3763

> <Gold.PLP.part.metal>
0.0000

> <Gold.PLP.part.buried>
-2.0644

> <Gold.PLP.part.nonpolar>
-35.6535

> <Gold.PLP.part.repulsive>
0.2851

> <Gold.PLP.ligand.clash>
0.0000

> <Gold.PLP.ligand.torsion>
1.4899

> <Gold.PLP.Chemscore.Hbond>
1.8112

> <Gold.PLP.Chemscore.CHOScore>
1.2984

> <Gold.PLP.Chemscore.Metal>
0.0000

> <Gold.Chemscore.Hbonds>
donor molecule, donor type, donor heavy atom, donor atom, acceptor molecule, acceptor atom, score
      L1  H     6    35       P1  7948  0.73
      P1  H  7997  8008       L1    14  0.73
      L1  C    11    38       P1  7948  1.00
      L1  C    11    38       P1  7957  0.06

> <Gold.PLP.Chemscore.Internal.Correction>
0.3733

> <Gold.Rescore>
     Score         DG    S(hbond)    S(metal)    S(lipo)     H(rot)  DE(clash)    DE(int)     intcor
     11.61     -13.50       1.82        0.00      66.49       2.28       0.18       1.71       ----

> <Gold.Chemscore.Fitness>
11.6068

> <Gold.Chemscore.DG>
-13.4967

> <Gold.Chemscore.ZeroCoef>
-5.4800

> <Gold.Chemscore.Hbond>
1.8195

> <Gold.Chemscore.Metal>
0.0000

> <Gold.Chemscore.Lipo>
66.4940

> <Gold.Chemscore.Internal_Hbond>
0.0000

> <Gold.Chemscore.DEClash>
0.1846

> <Gold.Chemscore.DEInternal>
1.7052

> <Gold.Chemscore.Rot>
2.2814

> <Gold.Chemscore.Internal.Correction>
   9.000000E+99

> <Gold.Chemscore.Hbonds>
donor molecule, donor type, donor heavy atom, donor atom, acceptor molecule, acceptor atom, score
      L1  H     6    35       P1  7948  0.69
      P1  H  7997  8008       L1    14  0.66

> <Gold.Chemscore.Hbond.Weighted>
-6.0773

> <Gold.Chemscore.Metal.Weighted>
-0.0000

> <Gold.Chemscore.Lipo.Weighted>
-7.7798

> <Gold.Chemscore.Internal_Hbond.Weighted>
0.0000

> <Gold.Chemscore.DEClash.Weighted>
0.1846

> <Gold.Chemscore.DEInternal.Weighted>
1.7052

> <Gold.Chemscore.Rot.Weighted>
5.8404

> <Gold.Chemscore.Internal.Correction.Weighted>
   9.000000E+99

> <Gold.Protein.RotatedTorsions>
[ 6907 6896 6895 6894 ] final  -44.03 input  -60.11 | X-H torsion
[ 7974 7965 7964 7962 ] final -161.01 input  175.53 | X-H torsion
[ 8008 7997 7996 7995 ] final  -46.10 input   59.86 | X-H torsion
[ 10167 10162 10161 10158 ] final   78.19 input  -65.29 | X-H torsion
[ 10718 10713 10712 10709 ] final    0.62 input   66.30 | X-H torsion
[ 10763 10752 10751 10750 ] final  -91.08 input  -60.55 | X-H torsion
[ 11005 11000 10999 10996 ] final    4.68 input  -57.11 | X-H torsion

> <Gold.Protein.ActiveResidues>
 VAL166  LYS551  ARG553  GLY616  TRP617  ASP618  TYR619  PRO620  LYS621  CYS622 
 ASP623  PHE694  ASN695  SER759  ASP760  ASP761  ALA762  ILE779  LEU786  VAL792 
 PHE793  MET794  SER795  GLU796  ALA797  LYS798  CYS799  TRP800  GLU811  SER814 

> <Gold.Protein.RotatedAtoms>
  150.9373  134.8784  159.7589 H   0  0  0  0  0  0  0  0  0  0  0  0  # atno 6907 bound_to 6896
  152.5065  134.3992  159.9421 H   0  0  0  0  0  0  0  0  0  0  0  0  # atno 6908 bound_to 6896
  151.4016  133.3716  159.2768 H   0  0  0  0  0  0  0  0  0  0  0  0  # atno 6909 bound_to 6896
  144.7406  140.3459  143.6125 H   0  0  0  0  0  0  0  0  0  0  0  0  # atno 7974 bound_to 7965
  154.4005  140.1380  156.3955 H   0  0  0  0  0  0  0  0  0  0  0  0  # atno 8008 bound_to 7997
  155.7873  140.3480  155.5309 H   0  0  0  0  0  0  0  0  0  0  0  0  # atno 8009 bound_to 7997
  155.8614  140.0957  157.1601 H   0  0  0  0  0  0  0  0  0  0  0  0  # atno 8010 bound_to 7997
  139.9735  144.5877  150.7964 H   0  0  0  0  0  0  0  0  0  0  0  0  # atno 10167 bound_to 10162
  156.8361  130.5505  149.5682 H   0  0  0  0  0  0  0  0  0  0  0  0  # atno 10718 bound_to 10713
  154.6724  135.5281  153.8156 H   0  0  0  0  0  0  0  0  0  0  0  0  # atno 10763 bound_to 10752
  153.0510  135.6532  154.0703 H   0  0  0  0  0  0  0  0  0  0  0  0  # atno 10764 bound_to 10752
  154.0601  135.2962  155.3306 H   0  0  0  0  0  0  0  0  0  0  0  0  # atno 10765 bound_to 10752
  140.5792  134.0029  155.8040 H   0  0  0  0  0  0  0  0  0  0  0  0  # atno 11005 bound_to 11000
  145.7327  139.1741  143.2421 LP  0  0  0  0  0  0  0  0  0  0  0  0  # atno 17320 bound_to 7965
  146.1194  140.7328  142.9465 LP  0  0  0  0  0  0  0  0  0  0  0  0  # atno 17321 bound_to 7965
  140.7514  143.2971  151.3176 LP  0  0  0  0  0  0  0  0  0  0  0  0  # atno 17342 bound_to 10162
  139.6463  144.0445  152.2593 LP  0  0  0  0  0  0  0  0  0  0  0  0  # atno 17343 bound_to 10162
  156.0906  130.5893  150.9727 LP  0  0  0  0  0  0  0  0  0  0  0  0  # atno 17370 bound_to 10713
  157.6380  131.0913  150.8308 LP  0  0  0  0  0  0  0  0  0  0  0  0  # atno 17371 bound_to 10713
  141.1007  133.9773  157.3084 LP  0  0  0  0  0  0  0  0  0  0  0  0  # atno 17394 bound_to 11000
  139.9325  135.0199  156.8448 LP  0  0  0  0  0  0  0  0  0  0  0  0  # atno 17395 bound_to 11000

$$$$
