AV-unprocessed.smi:2355|AV-procd|sdf|9391|dock6
  -GOLD-   2272013 23D 1   1.00000     0.00000
 Structure written by MMmdl.
 49 50  0  0  0  0  0  0  0  0  2 V2000
  145.4519  132.4521  149.9243 C   0  0  0  0  0  0  0  0  0  0  0  0
  145.0215  133.5495  150.8749 C   0  0  0  0  0  0  0  0  0  0  0  0
  143.6999  133.6111  151.3561 C   0  0  0  0  0  0  0  0  0  0  0  0
  143.3613  134.6565  152.2373 C   0  0  0  0  0  0  0  0  0  0  0  0
  141.9573  134.7852  152.7889 C   0  0  0  0  0  0  0  0  0  0  0  0
  144.2430  135.5980  152.6370 N   0  0  0  0  0  0  0  0  0  0  0  0
  145.5187  135.5489  152.1800 C   0  0  0  0  0  0  0  0  0  0  0  0
  146.5200  136.4903  152.5393 N   0  0  0  0  0  0  0  0  0  0  0  0
  146.4052  137.5524  153.3560 C   0  0  0  0  0  0  0  0  0  0  0  0
  145.3775  137.8957  153.9411 O   0  0  0  0  0  0  0  0  0  0  0  0
  147.5689  138.2104  153.4671 N   0  0  0  0  0  0  0  0  0  0  0  0
  147.7847  139.4085  154.2776 C   0  0  2  0  0  0  0  0  0  0  0  0
  146.8179  140.5072  153.8017 C   0  0  0  0  0  0  0  0  0  0  0  0
  149.2812  139.8532  154.2673 C   0  0  1  0  0  0  0  0  0  0  0  0
  149.5473  140.9706  155.3082 C   0  0  0  0  0  0  0  0  0  0  0  0
  150.2019  138.6749  154.4007 N   0  3  0  0  0  0  0  0  0  0  0  0
  151.6153  139.0740  154.6466 C   0  0  0  0  0  0  0  0  0  0  0  0
  152.5404  137.8476  154.7037 C   0  0  0  0  0  0  0  0  0  0  0  0
  152.0907  136.9594  155.7155 O   0  0  0  0  0  0  0  0  0  0  0  0
  150.7838  136.4792  155.4400 C   0  0  0  0  0  0  0  0  0  0  0  0
  149.7919  137.6543  155.4050 C   0  0  0  0  0  0  0  0  0  0  0  0
  145.9414  134.5318  151.2945 C   0  0  0  0  0  0  0  0  0  0  0  0
  144.6125  131.8108  149.6535 H   0  0  0  0  0  0  0  0  0  0  0  0
  146.2198  131.8316  150.3865 H   0  0  0  0  0  0  0  0  0  0  0  0
  145.8605  132.8822  149.0096 H   0  0  0  0  0  0  0  0  0  0  0  0
  142.9651  132.8776  151.0577 H   0  0  0  0  0  0  0  0  0  0  0  0
  141.3703  133.8887  152.5865 H   0  0  0  0  0  0  0  0  0  0  0  0
  141.4504  135.6362  152.3331 H   0  0  0  0  0  0  0  0  0  0  0  0
  141.9823  134.9369  153.8685 H   0  0  0  0  0  0  0  0  0  0  0  0
  147.4278  136.3350  152.1266 H   0  0  0  0  0  0  0  0  0  0  0  0
  148.3631  137.8611  152.9507 H   0  0  0  0  0  0  0  0  0  0  0  0
  147.4849  139.1445  155.2910 H   0  0  0  0  0  0  0  0  0  0  0  0
  146.8999  141.4051  154.4144 H   0  0  0  0  0  0  0  0  0  0  0  0
  145.7835  140.1679  153.8653 H   0  0  0  0  0  0  0  0  0  0  0  0
  147.0038  140.7911  152.7657 H   0  0  0  0  0  0  0  0  0  0  0  0
  149.4929  140.3005  153.2948 H   0  0  0  0  0  0  0  0  0  0  0  0
  148.8366  141.7912  155.2139 H   0  0  0  0  0  0  0  0  0  0  0  0
  150.5317  141.4199  155.1770 H   0  0  0  0  0  0  0  0  0  0  0  0
  149.4819  140.5973  156.3303 H   0  0  0  0  0  0  0  0  0  0  0  0
  151.9806  139.7359  153.8643 H   0  0  0  0  0  0  0  0  0  0  0  0
  151.6802  139.6271  155.5849 H   0  0  0  0  0  0  0  0  0  0  0  0
  152.5759  137.3384  153.7393 H   0  0  0  0  0  0  0  0  0  0  0  0
  153.5591  138.1579  154.9365 H   0  0  0  0  0  0  0  0  0  0  0  0
  150.7746  135.9329  154.4953 H   0  0  0  0  0  0  0  0  0  0  0  0
  150.4978  135.7710  156.2181 H   0  0  0  0  0  0  0  0  0  0  0  0
  149.7238  138.1161  156.3915 H   0  0  0  0  0  0  0  0  0  0  0  0
  148.8113  137.2443  155.1659 H   0  0  0  0  0  0  0  0  0  0  0  0
  146.9610  134.5033  150.9377 H   0  0  0  0  0  0  0  0  0  0  0  0
  150.1827  138.2027  153.5081 H   0  0  0  0  0  0  0  0  0  0  0  0
  1  2  1  0  0  0  0
  1 23  1  0  0  0  0
  1 24  1  0  0  0  0
  1 25  1  0  0  0  0
  2 22  1  0  0  0  0
  2  3  2  0  0  0  0
  3  4  1  0  0  0  0
  3 26  1  0  0  0  0
  4  5  1  0  0  0  0
  4  6  2  0  0  0  0
  5 27  1  0  0  0  0
  5 28  1  0  0  0  0
  5 29  1  0  0  0  0
  6  7  1  0  0  0  0
  7  8  1  0  0  0  0
  7 22  2  0  0  0  0
  8  9  1  0  0  0  0
  8 30  1  0  0  0  0
  9 10  2  0  0  0  0
  9 11  1  0  0  0  0
 11 12  1  0  0  0  0
 11 31  1  0  0  0  0
 12 13  1  0  0  0  0
 12 14  1  0  0  0  0
 12 32  1  0  0  0  0
 13 33  1  0  0  0  0
 13 34  1  0  0  0  0
 13 35  1  0  0  0  0
 14 15  1  0  0  0  0
 14 16  1  0  0  0  0
 14 36  1  0  0  0  0
 15 37  1  0  0  0  0
 15 38  1  0  0  0  0
 15 39  1  0  0  0  0
 16 21  1  0  0  0  0
 16 17  1  0  0  0  0
 16 49  1  0  0  0  0
 17 18  1  0  0  0  0
 17 40  1  0  0  0  0
 17 41  1  0  0  0  0
 18 19  1  0  0  0  0
 18 42  1  0  0  0  0
 18 43  1  0  0  0  0
 19 20  1  0  0  0  0
 20 21  1  0  0  0  0
 20 44  1  0  0  0  0
 20 45  1  0  0  0  0
 21 46  1  0  0  0  0
 21 47  1  0  0  0  0
 22 48  1  0  0  0  0
M  CHG  1  16   1
M  END
> <s_m_source_file>
AV-unprocessed.smi

> <i_m_source_file_index>
2355

> <i_lp_mmshare_version>
43012

> <i_f3d_flags>
0

> <s_epik_input>
W0NIM11jMVtjSF1jKFtDSDNdKW5jKFtjSF0xKVtOSF1DKD1PKVtOSF1bQ0BIXShbQ0gzXSlbQ0BIXShbQ0gzXSlOMltDSDJdW0NIMl1PW0NIMl1bQ0gyXTI=

> <s_epik_cmdline>
J2VwaWtfcHl0aG9uJywgJy1waCcsICc3LjAnLCAnLXRuJywgJzgnLCAnLW1hJywgJzIwMCcsICctbWV0YWxfYmluZGluZycsICctaW1hZScsICc8aW5maWxlLm1hZT4nLCAnLW9tYWUnLCAnPG91dGZpbGUubWFlPic=

> <r_epik_Ionization_Penalty>
0.602711

> <r_epik_Ionization_Penalty_Charging>
0.602531

> <r_epik_Ionization_Penalty_Neutral>
0.000180055

> <r_epik_State_Penalty>
0.617039

> <r_epik_Charging_Adjusted_Penalty>
1.21957

> <i_epik_Tot_Q>
1

> <i_epik_Tot_abs_Q>
1

> <r_epik_Metal_State_Penalty>
0.617075

> <b_epik_Metal_Only>
0

> <s_lp_Force_Field>
OPLS_2005

> <r_lp_Energy>
24.3328

> <b_lp_Chiralities_Consistent>
1

> <s_lp_Variant>
AV-unprocessed.smi:2355-7

> <Gold.Version>
5.8.1

> <Gold.Id.Protein>
6NUR|6NUR_protein|mol2

> <Gold.PLP.Fitness>
40.3348

> <Gold.PLP.PLP>
-33.4158

> <Gold.PLP.part.hbond>
-2.9707

> <Gold.PLP.part.metal>
0.0000

> <Gold.PLP.part.buried>
-2.5612

> <Gold.PLP.part.nonpolar>
-28.4805

> <Gold.PLP.part.repulsive>
0.3655

> <Gold.PLP.ligand.clash>
0.0000

> <Gold.PLP.ligand.torsion>
0.4685

> <Gold.PLP.Chemscore.Hbond>
2.5808

> <Gold.PLP.Chemscore.CHOScore>
0.0000

> <Gold.PLP.Chemscore.Metal>
0.0000

> <Gold.Chemscore.Hbonds>
donor molecule, donor type, donor heavy atom, donor atom, acceptor molecule, acceptor atom, score
      L1  H     8    30       P1  7948  1.00
      L1  H    11    31       P1  7948  0.83
      P1  H 10752 10765       L1    19  0.58

> <Gold.PLP.Chemscore.Internal.Correction>
0.1136

> <Gold.Rescore>
     Score         DG    S(hbond)    S(metal)    S(lipo)     H(rot)  DE(clash)    DE(int)     intcor
     14.67     -17.96       1.90        0.00      84.24       1.45       1.65       1.64       ----

> <Gold.Chemscore.Fitness>
14.6719

> <Gold.Chemscore.DG>
-17.9649

> <Gold.Chemscore.ZeroCoef>
-5.4800

> <Gold.Chemscore.Hbond>
1.8956

> <Gold.Chemscore.Metal>
0.0000

> <Gold.Chemscore.Lipo>
84.2375

> <Gold.Chemscore.Internal_Hbond>
0.0000

> <Gold.Chemscore.DEClash>
1.6515

> <Gold.Chemscore.DEInternal>
1.6415

> <Gold.Chemscore.Rot>
1.4462

> <Gold.Chemscore.Internal.Correction>
   9.000000E+99

> <Gold.Chemscore.Hbonds>
donor molecule, donor type, donor heavy atom, donor atom, acceptor molecule, acceptor atom, score
      L1  H     8    30       P1  7948  0.93
      L1  H    11    31       P1  7948  0.78
      P1  H 10752 10765       L1    19  0.01

> <Gold.Chemscore.Hbond.Weighted>
-6.3314

> <Gold.Chemscore.Metal.Weighted>
-0.0000

> <Gold.Chemscore.Lipo.Weighted>
-9.8558

> <Gold.Chemscore.Internal_Hbond.Weighted>
0.0000

> <Gold.Chemscore.DEClash.Weighted>
1.6515

> <Gold.Chemscore.DEInternal.Weighted>
1.6415

> <Gold.Chemscore.Rot.Weighted>
3.7023

> <Gold.Chemscore.Internal.Correction.Weighted>
   9.000000E+99

> <Gold.Protein.RotatedTorsions>
[ 6907 6896 6895 6894 ] final  140.35 input  -60.11 | X-H torsion
[ 7974 7965 7964 7962 ] final  -82.69 input  175.53 | X-H torsion
[ 8008 7997 7996 7995 ] final  -99.12 input   59.86 | X-H torsion
[ 10167 10162 10161 10158 ] final   -8.31 input  -65.29 | X-H torsion
[ 10718 10713 10712 10709 ] final  164.46 input   66.30 | X-H torsion
[ 10763 10752 10751 10750 ] final -147.66 input  -60.55 | X-H torsion
[ 11005 11000 10999 10996 ] final  -18.09 input  -57.11 | X-H torsion

> <Gold.Protein.ActiveResidues>
 VAL166  LYS551  ARG553  GLY616  TRP617  ASP618  TYR619  PRO620  LYS621  CYS622 
 ASP623  PHE694  ASN695  SER759  ASP760  ASP761  ALA762  ILE779  LEU786  VAL792 
 PHE793  MET794  SER795  GLU796  ALA797  LYS798  CYS799  TRP800  GLU811  SER814 

> <Gold.Protein.RotatedAtoms>
  152.2441  133.5159  159.5286 H   0  0  0  0  0  0  0  0  0  0  0  0  # atno 6907 bound_to 6896
  150.7073  134.1050  159.3988 H   0  0  0  0  0  0  0  0  0  0  0  0  # atno 6908 bound_to 6896
  151.8970  135.0393  160.0553 H   0  0  0  0  0  0  0  0  0  0  0  0  # atno 6909 bound_to 6896
  145.5300  140.9522  143.1608 H   0  0  0  0  0  0  0  0  0  0  0  0  # atno 7974 bound_to 7965
  154.8104  140.0450  157.1338 H   0  0  0  0  0  0  0  0  0  0  0  0  # atno 8008 bound_to 7997
  154.9375  140.3048  155.5117 H   0  0  0  0  0  0  0  0  0  0  0  0  # atno 8009 bound_to 7997
  156.2971  140.2312  156.4441 H   0  0  0  0  0  0  0  0  0  0  0  0  # atno 8010 bound_to 7997
  140.7055  143.5983  150.8823 H   0  0  0  0  0  0  0  0  0  0  0  0  # atno 10167 bound_to 10162
  157.0941  131.0425  151.2525 H   0  0  0  0  0  0  0  0  0  0  0  0  # atno 10718 bound_to 10713
  154.8274  135.3354  154.6853 H   0  0  0  0  0  0  0  0  0  0  0  0  # atno 10763 bound_to 10752
  153.7477  135.6941  153.4957 H   0  0  0  0  0  0  0  0  0  0  0  0  # atno 10764 bound_to 10752
  153.2199  135.4452  155.0427 H   0  0  0  0  0  0  0  0  0  0  0  0  # atno 10765 bound_to 10752
  140.8233  133.8052  155.9682 H   0  0  0  0  0  0  0  0  0  0  0  0  # atno 11005 bound_to 11000
  144.7631  139.6909  143.7226 LP  0  0  0  0  0  0  0  0  0  0  0  0  # atno 17320 bound_to 7965
  146.2050  139.5369  142.9718 LP  0  0  0  0  0  0  0  0  0  0  0  0  # atno 17321 bound_to 7965
  139.9708  143.6059  152.2974 LP  0  0  0  0  0  0  0  0  0  0  0  0  # atno 17342 bound_to 10162
  139.6645  144.7662  151.1899 LP  0  0  0  0  0  0  0  0  0  0  0  0  # atno 17343 bound_to 10162
  157.4696  130.7701  149.7311 LP  0  0  0  0  0  0  0  0  0  0  0  0  # atno 17370 bound_to 10713
  155.9890  130.3955  150.3091 LP  0  0  0  0  0  0  0  0  0  0  0  0  # atno 17371 bound_to 10713
  140.9076  134.2301  157.5005 LP  0  0  0  0  0  0  0  0  0  0  0  0  # atno 17394 bound_to 11000
  139.8707  134.9735  156.4812 LP  0  0  0  0  0  0  0  0  0  0  0  0  # atno 17395 bound_to 11000

$$$$
