AV-unprocessed.smi:1410|AV-procd|sdf|5737|dock4
  -GOLD-   22720 5373D 1   1.00000     0.00000
 Structure written by MMmdl.
 40 41  0  0  0  0  0  0  0  0  4 V2000
  154.0010  134.7675  159.8920 N   0  5  0  0  0  0  0  0  0  0  0  0
  154.9856  134.7064  160.8088 C   0  0  0  0  0  0  0  0  0  0  0  0
  155.0390  134.0009  161.8141 O   0  0  0  0  0  0  0  0  0  0  0  0
  156.1296  135.6800  160.5056 C   0  0  0  0  0  0  0  0  0  0  0  0
  155.6373  137.0795  160.5523 N   0  3  2  0  0  0  0  0  0  0  0  0
  156.6900  138.0809  160.2319 C   0  0  0  0  0  0  0  0  0  0  0  0
  156.1012  139.4990  160.1587 C   0  0  0  0  0  0  0  0  0  0  0  0
  155.3891  139.8714  161.4685 C   0  0  1  0  0  0  0  0  0  0  0  0
  154.7755  141.1903  161.3405 N   0  0  0  0  0  0  0  0  0  0  0  0
  153.6895  141.4682  160.6051 C   0  0  0  0  0  0  0  0  0  0  0  0
  153.0969  140.6299  159.9261 O   0  0  0  0  0  0  0  0  0  0  0  0
  153.3583  142.7681  160.6958 N   0  0  0  0  0  0  0  0  0  0  0  0
  152.2572  143.4432  160.1017 C   0  0  0  0  0  0  0  0  0  0  0  0
  151.6693  142.8574  158.9586 C   0  0  0  0  0  0  0  0  0  0  0  0
  150.5860  143.5012  158.3263 C   0  0  0  0  0  0  0  0  0  0  0  0
  150.1260  144.6749  158.8100 N   0  3  0  0  0  0  0  0  0  0  0  0
  150.6647  145.2808  159.8897 C   0  0  0  0  0  0  0  0  0  0  0  0
  151.7499  144.6845  160.5638 C   0  0  0  0  0  0  0  0  0  0  0  0
  154.3330  138.8021  161.8018 C   0  0  0  0  0  0  0  0  0  0  0  0
  154.9560  137.3960  161.8334 C   0  0  0  0  0  0  0  0  0  0  0  0
  154.0946  134.2160  159.0304 H   0  0  0  0  0  0  0  0  0  0  0  0
  156.8870  135.5251  161.2751 H   0  0  0  0  0  0  0  0  0  0  0  0
  156.6155  135.4781  159.5483 H   0  0  0  0  0  0  0  0  0  0  0  0
  157.4757  138.0387  160.9879 H   0  0  0  0  0  0  0  0  0  0  0  0
  157.1604  137.8442  159.2774 H   0  0  0  0  0  0  0  0  0  0  0  0
  156.8956  140.2157  159.9468 H   0  0  0  0  0  0  0  0  0  0  0  0
  155.4014  139.5564  159.3234 H   0  0  0  0  0  0  0  0  0  0  0  0
  156.1341  139.8974  162.2662 H   0  0  0  0  0  0  0  0  0  0  0  0
  155.2033  141.9417  161.8618 H   0  0  0  0  0  0  0  0  0  0  0  0
  153.9954  143.3534  161.2162 H   0  0  0  0  0  0  0  0  0  0  0  0
  152.0381  141.9193  158.5692 H   0  0  0  0  0  0  0  0  0  0  0  0
  150.0790  143.1161  157.4537 H   0  0  0  0  0  0  0  0  0  0  0  0
  150.2193  146.2221  160.1769 H   0  0  0  0  0  0  0  0  0  0  0  0
  152.1787  145.1968  161.4116 H   0  0  0  0  0  0  0  0  0  0  0  0
  153.8684  139.0170  162.7650 H   0  0  0  0  0  0  0  0  0  0  0  0
  153.5326  138.8259  161.0604 H   0  0  0  0  0  0  0  0  0  0  0  0
  154.1717  136.6627  162.0250 H   0  0  0  0  0  0  0  0  0  0  0  0
  155.6707  137.3187  162.6544 H   0  0  0  0  0  0  0  0  0  0  0  0
  154.9349  137.1468  159.8293 H   0  0  0  0  0  0  0  0  0  0  0  0
  149.3421  145.1256  158.3370 H   0  0  0  0  0  0  0  0  0  0  0  0
  1  2  1  0  0  0  0
  1 21  1  0  0  0  0
  2  3  2  0  0  0  0
  2  4  1  0  0  0  0
  4  5  1  0  0  0  0
  4 22  1  0  0  0  0
  4 23  1  0  0  0  0
  5 20  1  0  0  0  0
  5  6  1  0  0  0  0
  5 39  1  0  0  0  0
  6  7  1  0  0  0  0
  6 24  1  0  0  0  0
  6 25  1  0  0  0  0
  7  8  1  0  0  0  0
  7 26  1  0  0  0  0
  7 27  1  0  0  0  0
  8  9  1  0  0  0  0
  8 19  1  0  0  0  0
  8 28  1  0  0  0  0
  9 10  1  0  0  0  0
  9 29  1  0  0  0  0
 10 11  2  0  0  0  0
 10 12  1  0  0  0  0
 12 13  1  0  0  0  0
 12 30  1  0  0  0  0
 13 18  1  0  0  0  0
 13 14  2  0  0  0  0
 14 15  1  0  0  0  0
 14 31  1  0  0  0  0
 15 16  2  0  0  0  0
 15 32  1  0  0  0  0
 16 17  1  0  0  0  0
 16 40  1  0  0  0  0
 17 18  2  0  0  0  0
 17 33  1  0  0  0  0
 18 34  1  0  0  0  0
 19 20  1  0  0  0  0
 19 35  1  0  0  0  0
 19 36  1  0  0  0  0
 20 37  1  0  0  0  0
 20 38  1  0  0  0  0
M  CHG  1   1  -1
M  CHG  1   5   1
M  CHG  1  16   1
M  END
> <s_m_source_file>
AV-unprocessed.smi

> <i_m_source_file_index>
1410

> <i_lp_mmshare_version>
43012

> <i_f3d_flags>
0

> <s_epik_input>
W05IMl1DKD1PKVtDSDJdTjFbQ0gyXVtDSDJdW0NIXShbQ0gyXVtDSDJdMSlbTkhdQyg9TylbTkhdYzJbY0hdW2NIXW5bY0hdW2NIXTI=

> <s_epik_cmdline>
J2VwaWtfcHl0aG9uJywgJy1waCcsICc3LjAnLCAnLXRuJywgJzgnLCAnLW1hJywgJzIwMCcsICctbWV0YWxfYmluZGluZycsICctaW1hZScsICc8aW5maWxlLm1hZT4nLCAnLW9tYWUnLCAnPG91dGZpbGUubWFlPic=

> <r_epik_Ionization_Penalty>
6.84067

> <r_epik_Ionization_Penalty_Charging>
6.84065

> <r_epik_Ionization_Penalty_Neutral>
1.84563e-05

> <r_epik_State_Penalty>
7.68217

> <r_epik_Charging_Adjusted_Penalty>
14.5228

> <i_epik_Tot_Q>
1

> <i_epik_Tot_abs_Q>
3

> <r_epik_Metal_State_Penalty>
3.74331

> <b_epik_Metal_Only>
1

> <s_lp_Force_Field>
OPLS_2005

> <r_lp_Energy>
19.1226

> <b_lp_Chiralities_Consistent>
1

> <s_lp_Variant>
AV-unprocessed.smi:1410-9

> <Gold.Version>
5.8.1

> <Gold.Id.Protein>
6NUR|6NUR_protein|mol2

> <Gold.PLP.Fitness>
42.7837

> <Gold.PLP.PLP>
-31.2287

> <Gold.PLP.part.hbond>
-3.4386

> <Gold.PLP.part.metal>
0.0000

> <Gold.PLP.part.buried>
-4.4960

> <Gold.PLP.part.nonpolar>
-24.0039

> <Gold.PLP.part.repulsive>
0.1866

> <Gold.PLP.ligand.clash>
0.0000

> <Gold.PLP.ligand.torsion>
0.2406

> <Gold.PLP.Chemscore.Hbond>
4.0000

> <Gold.PLP.Chemscore.CHOScore>
0.0000

> <Gold.PLP.Chemscore.Metal>
0.0000

> <Gold.Chemscore.Hbonds>
donor molecule, donor type, donor heavy atom, donor atom, acceptor molecule, acceptor atom, score
      L1  H    16    40       P1  8029  2.00
      P1  H  6896  6907       L1     1  0.76

> <Gold.PLP.Chemscore.Internal.Correction>
0.0362

> <Gold.Rescore>
     Score         DG    S(hbond)    S(metal)    S(lipo)     H(rot)  DE(clash)    DE(int)     intcor
     11.49     -14.90       1.71        0.00      74.52       1.96       0.20       3.20       ----

> <Gold.Chemscore.Fitness>
11.4911

> <Gold.Chemscore.DG>
-14.8958

> <Gold.Chemscore.ZeroCoef>
-5.4800

> <Gold.Chemscore.Hbond>
1.7120

> <Gold.Chemscore.Metal>
0.0000

> <Gold.Chemscore.Lipo>
74.5179

> <Gold.Chemscore.Internal_Hbond>
0.0000

> <Gold.Chemscore.DEClash>
0.2047

> <Gold.Chemscore.DEInternal>
3.1999

> <Gold.Chemscore.Rot>
1.9612

> <Gold.Chemscore.Internal.Correction>
   9.000000E+99

> <Gold.Chemscore.Hbonds>
donor molecule, donor type, donor heavy atom, donor atom, acceptor molecule, acceptor atom, score
      L1  H    16    40       P1  8029  0.64
      P1  H  6896  6907       L1     1  0.01

> <Gold.Chemscore.Hbond.Weighted>
-5.7179

> <Gold.Chemscore.Metal.Weighted>
-0.0000

> <Gold.Chemscore.Lipo.Weighted>
-8.7186

> <Gold.Chemscore.Internal_Hbond.Weighted>
0.0000

> <Gold.Chemscore.DEClash.Weighted>
0.2047

> <Gold.Chemscore.DEInternal.Weighted>
3.1999

> <Gold.Chemscore.Rot.Weighted>
5.0208

> <Gold.Chemscore.Internal.Correction.Weighted>
   9.000000E+99

> <Gold.Protein.RotatedTorsions>
[ 6907 6896 6895 6894 ] final   77.57 input  -60.11 | X-H torsion
[ 7974 7965 7964 7962 ] final   99.47 input  175.53 | X-H torsion
[ 8008 7997 7996 7995 ] final   37.86 input   59.86 | X-H torsion
[ 10167 10162 10161 10158 ] final -114.92 input  -65.29 | X-H torsion
[ 10718 10713 10712 10709 ] final   69.08 input   66.30 | X-H torsion
[ 10763 10752 10751 10750 ] final  102.43 input  -60.55 | X-H torsion
[ 11005 11000 10999 10996 ] final  106.73 input  -57.11 | X-H torsion

> <Gold.Protein.ActiveResidues>
 VAL166  LYS551  ARG553  GLY616  TRP617  ASP618  TYR619  PRO620  LYS621  CYS622 
 ASP623  PHE694  ASN695  SER759  ASP760  ASP761  ALA762  ILE779  LEU786  VAL792 
 PHE793  MET794  SER795  GLU796  ALA797  LYS798  CYS799  TRP800  GLU811  SER814 

> <Gold.Protein.RotatedAtoms>
  152.5123  134.3797  159.9346 H   0  0  0  0  0  0  0  0  0  0  0  0  # atno 6907 bound_to 6896
  151.3754  133.3834  159.2712 H   0  0  0  0  0  0  0  0  0  0  0  0  # atno 6908 bound_to 6896
  150.9546  134.8961  159.7751 H   0  0  0  0  0  0  0  0  0  0  0  0  # atno 6909 bound_to 6896
  145.3985  139.2351  143.3313 H   0  0  0  0  0  0  0  0  0  0  0  0  # atno 7974 bound_to 7965
  155.2108  140.3323  155.4329 H   0  0  0  0  0  0  0  0  0  0  0  0  # atno 8008 bound_to 7997
  156.2371  140.1877  156.7138 H   0  0  0  0  0  0  0  0  0  0  0  0  # atno 8009 bound_to 7997
  154.6079  140.0613  156.9441 H   0  0  0  0  0  0  0  0  0  0  0  0  # atno 8010 bound_to 7997
  140.0957  143.4658  152.1842 H   0  0  0  0  0  0  0  0  0  0  0  0  # atno 10167 bound_to 10162
  157.6326  130.9407  150.0465 H   0  0  0  0  0  0  0  0  0  0  0  0  # atno 10718 bound_to 10713
  153.3394  135.4011  155.1560 H   0  0  0  0  0  0  0  0  0  0  0  0  # atno 10763 bound_to 10752
  154.8640  135.3630  154.5365 H   0  0  0  0  0  0  0  0  0  0  0  0  # atno 10764 bound_to 10752
  153.5809  135.7076  153.5523 H   0  0  0  0  0  0  0  0  0  0  0  0  # atno 10765 bound_to 10752
  139.8818  134.9378  156.5711 H   0  0  0  0  0  0  0  0  0  0  0  0  # atno 11005 bound_to 11000
  146.2763  140.4679  142.8794 LP  0  0  0  0  0  0  0  0  0  0  0  0  # atno 17320 bound_to 7965
  144.8390  140.6828  143.6241 LP  0  0  0  0  0  0  0  0  0  0  0  0  # atno 17321 bound_to 7965
  139.5699  144.7457  151.3919 LP  0  0  0  0  0  0  0  0  0  0  0  0  # atno 17342 bound_to 10162
  140.7004  143.7644  150.7394 LP  0  0  0  0  0  0  0  0  0  0  0  0  # atno 17343 bound_to 10162
  156.1540  130.3643  149.9396 LP  0  0  0  0  0  0  0  0  0  0  0  0  # atno 17370 bound_to 10713
  156.7409  130.9079  151.3632 LP  0  0  0  0  0  0  0  0  0  0  0  0  # atno 17371 bound_to 10713
  140.8098  133.8438  155.8799 LP  0  0  0  0  0  0  0  0  0  0  0  0  # atno 17394 bound_to 11000
  140.9517  134.1770  157.4723 LP  0  0  0  0  0  0  0  0  0  0  0  0  # atno 17395 bound_to 11000

$$$$
