AV-unprocessed.smi:1399|AV-procd|sdf|5685|dock9
  -GOLD-   22720 5313D 1   1.00000     0.00000
 Structure written by MMmdl.
 37 38  0  0  0  0  0  0  0  0  3 V2000
  152.7201  139.8204  155.8731 N   0  5  0  0  0  0  0  0  0  0  0  0
  151.7672  139.5732  154.9538 C   0  0  0  0  0  0  0  0  0  0  0  0
  150.9974  140.3751  154.4288 O   0  0  0  0  0  0  0  0  0  0  0  0
  151.7129  138.0967  154.5470 C   0  0  0  0  0  0  0  0  0  0  0  0
  150.5396  137.4339  155.1701 N   0  3  2  0  0  0  0  0  0  0  0  0
  150.5525  135.9629  154.9671 C   0  0  0  0  0  0  0  0  0  0  0  0
  149.4087  135.2830  155.7402 C   0  0  0  0  0  0  0  0  0  0  0  0
  148.0322  135.8705  155.3710 C   0  0  2  0  0  0  0  0  0  0  0  0
  147.6281  135.5035  154.0140 N   0  0  0  0  0  0  0  0  0  0  0  0
  146.4626  134.9309  153.6799 C   0  0  0  0  0  0  0  0  0  0  0  0
  145.5928  134.6315  154.4976 O   0  0  0  0  0  0  0  0  0  0  0  0
  146.3801  134.7307  152.3549 N   0  0  0  0  0  0  0  0  0  0  0  0
  145.2996  134.1561  151.6402 C   0  0  0  0  0  0  0  0  0  0  0  0
  144.1960  133.3964  152.1288 C   0  0  0  0  0  0  0  0  0  0  0  0
  143.3896  133.0336  151.1415 N   0  0  0  0  0  0  0  0  0  0  0  0
  143.9640  133.5520  150.0328 N   0  0  0  0  0  0  0  0  0  0  0  0
  145.1275  134.2424  150.2909 C   0  0  0  0  0  0  0  0  0  0  0  0
  148.0661  137.4005  155.5261 C   0  0  0  0  0  0  0  0  0  0  0  0
  149.2411  138.0334  154.7591 C   0  0  0  0  0  0  0  0  0  0  0  0
  143.5546  133.4267  149.1179 H   0  0  0  0  0  0  0  0  0  0  0  0
  152.4460  140.2165  156.7803 H   0  0  0  0  0  0  0  0  0  0  0  0
  151.7007  137.9554  153.4640 H   0  0  0  0  0  0  0  0  0  0  0  0
  152.6346  137.6377  154.9075 H   0  0  0  0  0  0  0  0  0  0  0  0
  150.4774  135.7395  153.9019 H   0  0  0  0  0  0  0  0  0  0  0  0
  151.5037  135.5534  155.3093 H   0  0  0  0  0  0  0  0  0  0  0  0
  149.4279  134.2065  155.5669 H   0  0  0  0  0  0  0  0  0  0  0  0
  149.5769  135.4162  156.8096 H   0  0  0  0  0  0  0  0  0  0  0  0
  147.2842  135.4774  156.0618 H   0  0  0  0  0  0  0  0  0  0  0  0
  148.2793  135.7157  153.2724 H   0  0  0  0  0  0  0  0  0  0  0  0
  147.1705  135.0208  151.7982 H   0  0  0  0  0  0  0  0  0  0  0  0
  143.9507  133.0982  153.1372 H   0  0  0  0  0  0  0  0  0  0  0  0
  145.7103  134.7178  149.5156 H   0  0  0  0  0  0  0  0  0  0  0  0
  147.1229  137.8364  155.1940 H   0  0  0  0  0  0  0  0  0  0  0  0
  148.1583  137.6509  156.5839 H   0  0  0  0  0  0  0  0  0  0  0  0
  149.2446  139.1072  154.9474 H   0  0  0  0  0  0  0  0  0  0  0  0
  149.1046  137.9064  153.6841 H   0  0  0  0  0  0  0  0  0  0  0  0
  150.6339  137.5870  156.1643 H   0  0  0  0  0  0  0  0  0  0  0  0
  1  2  1  0  0  0  0
  1 21  1  0  0  0  0
  2  3  2  0  0  0  0
  2  4  1  0  0  0  0
  4  5  1  0  0  0  0
  4 22  1  0  0  0  0
  4 23  1  0  0  0  0
  5 19  1  0  0  0  0
  5  6  1  0  0  0  0
  5 37  1  0  0  0  0
  6  7  1  0  0  0  0
  6 24  1  0  0  0  0
  6 25  1  0  0  0  0
  7  8  1  0  0  0  0
  7 26  1  0  0  0  0
  7 27  1  0  0  0  0
  8  9  1  0  0  0  0
  8 18  1  0  0  0  0
  8 28  1  0  0  0  0
  9 10  1  0  0  0  0
  9 29  1  0  0  0  0
 10 11  2  0  0  0  0
 10 12  1  0  0  0  0
 12 13  1  0  0  0  0
 12 30  1  0  0  0  0
 13 17  2  0  0  0  0
 13 14  1  0  0  0  0
 14 15  2  0  0  0  0
 14 31  1  0  0  0  0
 15 16  1  0  0  0  0
 16 20  1  0  0  0  0
 16 17  1  0  0  0  0
 17 32  1  0  0  0  0
 18 19  1  0  0  0  0
 18 33  1  0  0  0  0
 18 34  1  0  0  0  0
 19 35  1  0  0  0  0
 19 36  1  0  0  0  0
M  CHG  1   1  -1
M  CHG  1   5   1
M  END
> <s_m_source_file>
AV-unprocessed.smi

> <i_m_source_file_index>
1399

> <i_lp_mmshare_version>
43012

> <i_f3d_flags>
0

> <s_epik_input>
W05IMl1DKD1PKVtDSDJdTjFbQ0gyXVtDSDJdW0NIXShbQ0gyXVtDSDJdMSlbTkhdQyg9TylbTkhdYzJbY0hdbltuSF1bY0hdMg==

> <s_epik_cmdline>
J2VwaWtfcHl0aG9uJywgJy1waCcsICc3LjAnLCAnLXRuJywgJzgnLCAnLW1hJywgJzIwMCcsICctbWV0YWxfYmluZGluZycsICctaW1hZScsICc8aW5maWxlLm1hZT4nLCAnLW9tYWUnLCAnPG91dGZpbGUubWFlPic=

> <r_lp_tautomer_probability>
0.5

> <r_epik_Ionization_Penalty>
5.72885

> <r_epik_Ionization_Penalty_Charging>
5.7288

> <r_epik_Ionization_Penalty_Neutral>
4.21226e-05

> <r_epik_State_Penalty>
6.54882

> <r_epik_Charging_Adjusted_Penalty>
12.2776

> <i_epik_Tot_Q>
0

> <i_epik_Tot_abs_Q>
2

> <r_epik_Metal_State_Penalty>
2.51297

> <b_epik_Metal_Only>
1

> <s_lp_Force_Field>
OPLS_2005

> <r_lp_Energy>
10.897

> <b_lp_Chiralities_Consistent>
1

> <s_lp_Variant>
AV-unprocessed.smi:1399-5

> <Gold.Version>
5.8.1

> <Gold.Id.Protein>
6NUR|6NUR_protein|mol2

> <Gold.PLP.Fitness>
44.1400

> <Gold.PLP.PLP>
-23.5056

> <Gold.PLP.part.hbond>
-4.8717

> <Gold.PLP.part.metal>
0.0000

> <Gold.PLP.part.buried>
-2.2320

> <Gold.PLP.part.nonpolar>
-16.6992

> <Gold.PLP.part.repulsive>
0.6417

> <Gold.PLP.ligand.clash>
0.0000

> <Gold.PLP.ligand.torsion>
0.3384

> <Gold.PLP.Chemscore.Hbond>
5.1074

> <Gold.PLP.Chemscore.CHOScore>
1.9868

> <Gold.PLP.Chemscore.Metal>
0.0000

> <Gold.Chemscore.Hbonds>
donor molecule, donor type, donor heavy atom, donor atom, acceptor molecule, acceptor atom, score
      L1  H     9    29       P1  7948  1.00
      L1  H    12    30       P1  7948  0.70
      P1  H  7989  7998       L1     3  0.24
      P1  H  7997  8009       L1     1  1.70
      L1  C    14    31       P1 10957  1.00
      L1  C    17    32       P1  7921  0.74

> <Gold.PLP.Chemscore.Internal.Correction>
0.0287

> <Gold.Rescore>
     Score         DG    S(hbond)    S(metal)    S(lipo)     H(rot)  DE(clash)    DE(int)     intcor
     14.92     -17.87       3.99        0.00      36.92       2.06       0.04       2.91       ----

> <Gold.Chemscore.Fitness>
14.9163

> <Gold.Chemscore.DG>
-17.8724

> <Gold.Chemscore.ZeroCoef>
-5.4800

> <Gold.Chemscore.Hbond>
3.9945

> <Gold.Chemscore.Metal>
0.0000

> <Gold.Chemscore.Lipo>
36.9247

> <Gold.Chemscore.Internal_Hbond>
0.0000

> <Gold.Chemscore.DEClash>
0.0442

> <Gold.Chemscore.DEInternal>
2.9118

> <Gold.Chemscore.Rot>
2.0584

> <Gold.Chemscore.Internal.Correction>
   9.000000E+99

> <Gold.Chemscore.Hbonds>
donor molecule, donor type, donor heavy atom, donor atom, acceptor molecule, acceptor atom, score
      L1  H     9    29       P1  7948  0.99
      L1  H    12    30       P1  7948  0.63
      P1  H  7989  7998       L1     3  0.12
      P1  H  7997  8009       L1     1  0.15

> <Gold.Chemscore.Hbond.Weighted>
-13.3417

> <Gold.Chemscore.Metal.Weighted>
-0.0000

> <Gold.Chemscore.Lipo.Weighted>
-4.3202

> <Gold.Chemscore.Internal_Hbond.Weighted>
0.0000

> <Gold.Chemscore.DEClash.Weighted>
0.0442

> <Gold.Chemscore.DEInternal.Weighted>
2.9118

> <Gold.Chemscore.Rot.Weighted>
5.2695

> <Gold.Chemscore.Internal.Correction.Weighted>
   9.000000E+99

> <Gold.Protein.RotatedTorsions>
[ 6907 6896 6895 6894 ] final  -57.48 input  -60.11 | X-H torsion
[ 7974 7965 7964 7962 ] final   91.03 input  175.53 | X-H torsion
[ 8008 7997 7996 7995 ] final -141.40 input   59.86 | X-H torsion
[ 10167 10162 10161 10158 ] final  168.55 input  -65.29 | X-H torsion
[ 10718 10713 10712 10709 ] final  120.89 input   66.30 | X-H torsion
[ 10763 10752 10751 10750 ] final   82.77 input  -60.55 | X-H torsion
[ 11005 11000 10999 10996 ] final  -16.92 input  -57.11 | X-H torsion

> <Gold.Protein.ActiveResidues>
 VAL166  LYS551  ARG553  GLY616  TRP617  ASP618  TYR619  PRO620  LYS621  CYS622 
 ASP623  PHE694  ASN695  SER759  ASP760  ASP761  ALA762  ILE779  LEU786  VAL792 
 PHE793  MET794  SER795  GLU796  ALA797  LYS798  CYS799  TRP800  GLU811  SER814 

> <Gold.Protein.RotatedAtoms>
  150.8083  134.7222  159.6663 H   0  0  0  0  0  0  0  0  0  0  0  0  # atno 6907 bound_to 6896
  152.4202  134.5965  159.9998 H   0  0  0  0  0  0  0  0  0  0  0  0  # atno 6908 bound_to 6896
  151.6182  133.3304  159.3118 H   0  0  0  0  0  0  0  0  0  0  0  0  # atno 6909 bound_to 6896
  145.5111  139.2277  143.2724 H   0  0  0  0  0  0  0  0  0  0  0  0  # atno 7974 bound_to 7965
  155.4771  140.0557  157.2972 H   0  0  0  0  0  0  0  0  0  0  0  0  # atno 8008 bound_to 7997
  154.4675  140.2025  156.0034 H   0  0  0  0  0  0  0  0  0  0  0  0  # atno 8009 bound_to 7997
  156.0999  140.3220  155.7932 H   0  0  0  0  0  0  0  0  0  0  0  0  # atno 8010 bound_to 7997
  139.4970  144.3802  151.9630 H   0  0  0  0  0  0  0  0  0  0  0  0  # atno 10167 bound_to 10162
  157.5858  131.1070  150.8098 H   0  0  0  0  0  0  0  0  0  0  0  0  # atno 10718 bound_to 10713
  153.1232  135.4716  154.9229 H   0  0  0  0  0  0  0  0  0  0  0  0  # atno 10763 bound_to 10752
  154.7595  135.3127  154.8407 H   0  0  0  0  0  0  0  0  0  0  0  0  # atno 10764 bound_to 10752
  153.8967  135.6879  153.4811 H   0  0  0  0  0  0  0  0  0  0  0  0  # atno 10765 bound_to 10752
  140.8116  133.8136  155.9569 H   0  0  0  0  0  0  0  0  0  0  0  0  # atno 11005 bound_to 11000
  146.2166  140.5918  142.9036 LP  0  0  0  0  0  0  0  0  0  0  0  0  # atno 17320 bound_to 7965
  144.7727  140.5672  143.6659 LP  0  0  0  0  0  0  0  0  0  0  0  0  # atno 17321 bound_to 7965
  140.3239  144.3396  150.6003 LP  0  0  0  0  0  0  0  0  0  0  0  0  # atno 17342 bound_to 10162
  140.5700  143.2182  151.7615 LP  0  0  0  0  0  0  0  0  0  0  0  0  # atno 17343 bound_to 10162
  156.8533  130.5088  149.5310 LP  0  0  0  0  0  0  0  0  0  0  0  0  # atno 17370 bound_to 10713
  156.0907  130.5893  150.9727 LP  0  0  0  0  0  0  0  0  0  0  0  0  # atno 17371 bound_to 10713
  140.9192  134.2163  157.4937 LP  0  0  0  0  0  0  0  0  0  0  0  0  # atno 17394 bound_to 11000
  139.8714  134.9784  156.4998 LP  0  0  0  0  0  0  0  0  0  0  0  0  # atno 17395 bound_to 11000

$$$$
