AV-unprocessed.smi:1420|AV-procd|sdf|5789|dock2
  -GOLD-   22720 5433D 1   1.00000     0.00000
 Structure written by MMmdl.
 39 40  0  0  0  0  0  0  0  0  2 V2000
  148.6053  136.1613  156.8492 C   0  0  0  0  0  0  0  0  0  0  0  0
  148.4805  136.0966  155.3083 C   0  0  1  0  0  0  0  0  0  0  0  0
  146.9824  136.1248  154.8887 C   0  0  0  0  0  0  0  0  0  0  0  0
  146.7895  135.8745  153.4644 N   0  0  0  0  0  0  0  0  0  0  0  0
  145.6181  135.5673  152.8860 C   0  0  0  0  0  0  0  0  0  0  0  0
  144.5755  135.3917  153.5162 O   0  0  0  0  0  0  0  0  0  0  0  0
  145.6195  135.4686  151.3608 C   0  0  0  0  0  0  0  0  0  0  0  0
  145.3986  134.0978  150.9350 N   0  0  0  0  0  0  0  0  0  0  0  0
  144.3169  133.5763  150.2562 C   0  0  0  0  0  0  0  0  0  0  0  0
  144.5634  132.2478  150.0585 C   0  0  0  0  0  0  0  0  0  0  0  0
  145.8372  132.0467  150.6599 C   0  0  0  0  0  0  0  0  0  0  0  0
  146.3360  133.1559  151.1814 N   0  0  0  0  0  0  0  0  0  0  0  0
  149.3037  137.1772  154.6715 N   0  3  0  0  0  0  0  0  0  0  0  0
  148.7963  138.5425  154.9815 C   0  0  0  0  0  0  0  0  0  0  0  0
  149.6128  139.6198  154.2497 C   0  0  0  0  0  0  0  0  0  0  0  0
  150.9786  139.5088  154.6191 O   0  0  0  0  0  0  0  0  0  0  0  0
  151.5179  138.2531  154.2357 C   0  0  0  0  0  0  0  0  0  0  0  0
  150.7657  137.1168  154.9503 C   0  0  0  0  0  0  0  0  0  0  0  0
  148.0416  135.3662  157.3373 H   0  0  0  0  0  0  0  0  0  0  0  0
  148.2309  137.1106  157.2335 H   0  0  0  0  0  0  0  0  0  0  0  0
  149.6307  136.0455  157.1948 H   0  0  0  0  0  0  0  0  0  0  0  0
  148.8896  135.1415  154.9745 H   0  0  0  0  0  0  0  0  0  0  0  0
  146.4238  135.3678  155.4403 H   0  0  0  0  0  0  0  0  0  0  0  0
  146.5197  137.0864  155.1139 H   0  0  0  0  0  0  0  0  0  0  0  0
  147.5928  135.9991  152.8646 H   0  0  0  0  0  0  0  0  0  0  0  0
  144.8459  136.1129  150.9395 H   0  0  0  0  0  0  0  0  0  0  0  0
  146.5761  135.8107  150.9633 H   0  0  0  0  0  0  0  0  0  0  0  0
  143.4737  134.1883  149.9710 H   0  0  0  0  0  0  0  0  0  0  0  0
  143.9300  131.5291  149.5598 H   0  0  0  0  0  0  0  0  0  0  0  0
  146.4113  131.1344  150.7306 H   0  0  0  0  0  0  0  0  0  0  0  0
  147.7531  138.6517  154.6916 H   0  0  0  0  0  0  0  0  0  0  0  0
  148.8449  138.7143  156.0579 H   0  0  0  0  0  0  0  0  0  0  0  0
  149.5023  139.5284  153.1678 H   0  0  0  0  0  0  0  0  0  0  0  0
  149.2542  140.6123  154.5232 H   0  0  0  0  0  0  0  0  0  0  0  0
  151.4623  138.1355  153.1522 H   0  0  0  0  0  0  0  0  0  0  0  0
  152.5746  138.2279  154.5028 H   0  0  0  0  0  0  0  0  0  0  0  0
  150.9365  137.1715  156.0266 H   0  0  0  0  0  0  0  0  0  0  0  0
  151.1906  136.1783  154.5960 H   0  0  0  0  0  0  0  0  0  0  0  0
  149.2104  137.0502  153.6737 H   0  0  0  0  0  0  0  0  0  0  0  0
  1  2  1  0  0  0  0
  1 19  1  0  0  0  0
  1 20  1  0  0  0  0
  1 21  1  0  0  0  0
  2  3  1  0  0  0  0
  2 13  1  0  0  0  0
  2 22  1  0  0  0  0
  3  4  1  0  0  0  0
  3 23  1  0  0  0  0
  3 24  1  0  0  0  0
  4  5  1  0  0  0  0
  4 25  1  0  0  0  0
  5  6  2  0  0  0  0
  5  7  1  0  0  0  0
  7  8  1  0  0  0  0
  7 26  1  0  0  0  0
  7 27  1  0  0  0  0
  8 12  1  0  0  0  0
  8  9  1  0  0  0  0
  9 10  2  0  0  0  0
  9 28  1  0  0  0  0
 10 11  1  0  0  0  0
 10 29  1  0  0  0  0
 11 12  2  0  0  0  0
 11 30  1  0  0  0  0
 13 18  1  0  0  0  0
 13 14  1  0  0  0  0
 13 39  1  0  0  0  0
 14 15  1  0  0  0  0
 14 31  1  0  0  0  0
 14 32  1  0  0  0  0
 15 16  1  0  0  0  0
 15 33  1  0  0  0  0
 15 34  1  0  0  0  0
 16 17  1  0  0  0  0
 17 18  1  0  0  0  0
 17 35  1  0  0  0  0
 17 36  1  0  0  0  0
 18 37  1  0  0  0  0
 18 38  1  0  0  0  0
M  CHG  1  13   1
M  END
> <s_m_source_file>
AV-unprocessed.smi

> <i_m_source_file_index>
1420

> <i_lp_mmshare_version>
43012

> <i_f3d_flags>
0

> <s_epik_input>
W0NIMl0xW0NIMl1PW0NIMl1bQ0gyXU4xW0NASF0oW0NIM10pW0NIMl1bTkhdQyg9TylbQ0gyXW4yW2NIXVtjSF1bY0hdbjI=

> <s_epik_cmdline>
J2VwaWtfcHl0aG9uJywgJy1waCcsICc3LjAnLCAnLXRuJywgJzgnLCAnLW1hJywgJzIwMCcsICctbWV0YWxfYmluZGluZycsICctaW1hZScsICc8aW5maWxlLm1hZT4nLCAnLW9tYWUnLCAnPG91dGZpbGUubWFlPic=

> <r_lp_tautomer_probability>
1

> <r_epik_Ionization_Penalty>
0.748405

> <r_epik_Ionization_Penalty_Charging>
0.748396

> <r_epik_Ionization_Penalty_Neutral>
8.56978e-06

> <r_epik_State_Penalty>
0.775162

> <r_epik_Charging_Adjusted_Penalty>
1.52356

> <i_epik_Tot_Q>
1

> <i_epik_Tot_abs_Q>
1

> <r_epik_Metal_State_Penalty>
0.775167

> <b_epik_Metal_Only>
0

> <s_lp_Force_Field>
OPLS_2005

> <r_lp_Energy>
18.8662

> <b_lp_Chiralities_Consistent>
1

> <s_lp_Variant>
AV-unprocessed.smi:1420-4

> <Gold.Version>
5.8.1

> <Gold.Id.Protein>
6NUR|6NUR_protein|mol2

> <Gold.PLP.Fitness>
45.5952

> <Gold.PLP.PLP>
-27.9793

> <Gold.PLP.part.hbond>
-3.0000

> <Gold.PLP.part.metal>
0.0000

> <Gold.PLP.part.buried>
-6.0397

> <Gold.PLP.part.nonpolar>
-19.8765

> <Gold.PLP.part.repulsive>
0.3406

> <Gold.PLP.ligand.clash>
0.0000

> <Gold.PLP.ligand.torsion>
0.2423

> <Gold.PLP.Chemscore.Hbond>
4.0000

> <Gold.PLP.Chemscore.CHOScore>
2.0000

> <Gold.PLP.Chemscore.Metal>
0.0000

> <Gold.Chemscore.Hbonds>
donor molecule, donor type, donor heavy atom, donor atom, acceptor molecule, acceptor atom, score
      L1  H     4    25       P1  7948  1.00
      L1  H    13    39       P1  7948  2.00
      P1  H  7989  7998       L1    16  0.85
      L1  C     9    28       P1 10186  1.00
      L1  C    11    30       P1 10747  0.74

> <Gold.PLP.Chemscore.Internal.Correction>
0.1004

> <Gold.Rescore>
     Score         DG    S(hbond)    S(metal)    S(lipo)     H(rot)  DE(clash)    DE(int)     intcor
     15.10     -15.38       2.19        0.00      64.61       1.94       0.01       0.27       ----

> <Gold.Chemscore.Fitness>
15.1030

> <Gold.Chemscore.DG>
-15.3837

> <Gold.Chemscore.ZeroCoef>
-5.4800

> <Gold.Chemscore.Hbond>
2.1915

> <Gold.Chemscore.Metal>
0.0000

> <Gold.Chemscore.Lipo>
64.6121

> <Gold.Chemscore.Internal_Hbond>
0.0000

> <Gold.Chemscore.DEClash>
0.0126

> <Gold.Chemscore.DEInternal>
0.2681

> <Gold.Chemscore.Rot>
1.9435

> <Gold.Chemscore.Internal.Correction>
   9.000000E+99

> <Gold.Chemscore.Hbonds>
donor molecule, donor type, donor heavy atom, donor atom, acceptor molecule, acceptor atom, score
      L1  H     4    25       P1  7948  1.00
      L1  H    13    39       P1  7948  0.96
      P1  H  7989  7998       L1    16  0.11

> <Gold.Chemscore.Hbond.Weighted>
-7.3195

> <Gold.Chemscore.Metal.Weighted>
-0.0000

> <Gold.Chemscore.Lipo.Weighted>
-7.5596

> <Gold.Chemscore.Internal_Hbond.Weighted>
0.0000

> <Gold.Chemscore.DEClash.Weighted>
0.0126

> <Gold.Chemscore.DEInternal.Weighted>
0.2681

> <Gold.Chemscore.Rot.Weighted>
4.9754

> <Gold.Chemscore.Internal.Correction.Weighted>
   9.000000E+99

> <Gold.Protein.RotatedTorsions>
[ 6907 6896 6895 6894 ] final  -65.75 input  -60.11 | X-H torsion
[ 7974 7965 7964 7962 ] final -158.55 input  175.53 | X-H torsion
[ 8008 7997 7996 7995 ] final  -39.16 input   59.86 | X-H torsion
[ 10167 10162 10161 10158 ] final   51.20 input  -65.29 | X-H torsion
[ 10718 10713 10712 10709 ] final   45.73 input   66.30 | X-H torsion
[ 10763 10752 10751 10750 ] final   45.95 input  -60.55 | X-H torsion
[ 11005 11000 10999 10996 ] final  152.95 input  -57.11 | X-H torsion

> <Gold.Protein.ActiveResidues>
 VAL166  LYS551  ARG553  GLY616  TRP617  ASP618  TYR619  PRO620  LYS621  CYS622 
 ASP623  PHE694  ASN695  SER759  ASP760  ASP761  ALA762  ILE779  LEU786  VAL792 
 PHE793  MET794  SER795  GLU796  ALA797  LYS798  CYS799  TRP800  GLU811  SER814 

> <Gold.Protein.RotatedAtoms>
  150.7505  134.6117  159.6089 H   0  0  0  0  0  0  0  0  0  0  0  0  # atno 6907 bound_to 6896
  152.3449  134.7082  160.0262 H   0  0  0  0  0  0  0  0  0  0  0  0  # atno 6908 bound_to 6896
  151.7522  133.3292  159.3431 H   0  0  0  0  0  0  0  0  0  0  0  0  # atno 6909 bound_to 6896
  144.7501  140.3811  143.6055 H   0  0  0  0  0  0  0  0  0  0  0  0  # atno 7974 bound_to 7965
  154.4026  140.1559  156.2818 H   0  0  0  0  0  0  0  0  0  0  0  0  # atno 8008 bound_to 7997
  155.8863  140.3441  155.5902 H   0  0  0  0  0  0  0  0  0  0  0  0  # atno 8009 bound_to 7997
  155.7610  140.0817  157.2146 H   0  0  0  0  0  0  0  0  0  0  0  0  # atno 8010 bound_to 7997
  140.2644  144.3336  150.6308 H   0  0  0  0  0  0  0  0  0  0  0  0  # atno 10167 bound_to 10162
  157.4406  130.8079  149.7690 H   0  0  0  0  0  0  0  0  0  0  0  0  # atno 10718 bound_to 10713
  152.9817  135.6023  154.3521 H   0  0  0  0  0  0  0  0  0  0  0  0  # atno 10763 bound_to 10752
  154.3209  135.2769  155.2522 H   0  0  0  0  0  0  0  0  0  0  0  0  # atno 10764 bound_to 10752
  154.4688  135.5947  153.6363 H   0  0  0  0  0  0  0  0  0  0  0  0  # atno 10765 bound_to 10752
  140.1353  134.8775  157.2259 H   0  0  0  0  0  0  0  0  0  0  0  0  # atno 11005 bound_to 11000
  145.6976  139.1653  143.2611 LP  0  0  0  0  0  0  0  0  0  0  0  0  # atno 17320 bound_to 7965
  146.1439  140.7020  142.9354 LP  0  0  0  0  0  0  0  0  0  0  0  0  # atno 17321 bound_to 7965
  140.5940  143.2167  151.7199 LP  0  0  0  0  0  0  0  0  0  0  0  0  # atno 17342 bound_to 10162
  139.5007  144.3896  152.0294 LP  0  0  0  0  0  0  0  0  0  0  0  0  # atno 17343 bound_to 10162
  155.9947  130.3916  150.2848 LP  0  0  0  0  0  0  0  0  0  0  0  0  # atno 17370 bound_to 10713
  157.1012  131.0196  151.3085 LP  0  0  0  0  0  0  0  0  0  0  0  0  # atno 17371 bound_to 10713
  140.2790  134.3372  155.7349 LP  0  0  0  0  0  0  0  0  0  0  0  0  # atno 17394 bound_to 11000
  141.2177  133.7467  156.9335 LP  0  0  0  0  0  0  0  0  0  0  0  0  # atno 17395 bound_to 11000

$$$$
