AV-unprocessed.smi:1381|AV-procd|sdf|5610|dock10
  -GOLD-   22720 5223D 1   1.00000     0.00000
 Structure written by MMmdl.
 41 42  0  0  0  0  0  0  0  0  2 V2000
  158.5542  137.2625  153.0903 C   0  0  0  0  0  0  0  0  0  0  0  0
  157.2119  137.6089  153.6368 C   0  0  0  0  0  0  0  0  0  0  0  0
  156.3568  138.6501  153.4121 C   0  0  0  0  0  0  0  0  0  0  0  0
  155.2545  138.3539  154.2596 C   0  0  0  0  0  0  0  0  0  0  0  0
  154.1492  139.1013  154.4035 N   0  5  0  0  0  0  0  0  0  0  0  0
  153.0928  138.6271  155.1038 C   0  0  0  0  0  0  0  0  0  0  0  0
  152.6417  137.4801  155.0591 O   0  0  0  0  0  0  0  0  0  0  0  0
  152.5200  139.5409  155.9005 N   0  0  0  0  0  0  0  0  0  0  0  0
  151.3582  139.3224  156.7547 C   0  0  0  0  0  0  0  0  0  0  0  0
  150.7095  140.6574  157.1671 C   0  0  0  0  0  0  0  0  0  0  0  0
  151.6160  141.6162  157.7969 N   0  0  0  0  0  0  0  0  0  0  0  0
  152.3532  140.9944  158.8890 C   0  0  0  0  0  0  0  0  0  0  0  0
  153.3497  141.9702  159.5395 C   0  0  2  0  0  0  0  0  0  0  0  0
  154.0709  141.3438  160.7374 C   0  0  0  0  0  0  0  0  0  0  0  0
  152.6496  143.1260  159.9961 O   0  0  0  0  0  0  0  0  0  0  0  0
  151.8651  143.7925  159.0053 C   0  0  1  0  0  0  0  0  0  0  0  0
  152.7425  144.5885  158.0243 C   0  0  0  0  0  0  0  0  0  0  0  0
  150.9189  142.7951  158.3063 C   0  0  0  0  0  0  0  0  0  0  0  0
  155.4328  137.2404  154.9507 N   0  0  0  0  0  0  0  0  0  0  0  0
  156.6835  136.7530  154.5519 O   0  0  0  0  0  0  0  0  0  0  0  0
  159.3254  137.3992  153.8481 H   0  0  0  0  0  0  0  0  0  0  0  0
  158.8016  137.8947  152.2373 H   0  0  0  0  0  0  0  0  0  0  0  0
  158.5821  136.2240  152.7601 H   0  0  0  0  0  0  0  0  0  0  0  0
  156.4947  139.4886  152.7462 H   0  0  0  0  0  0  0  0  0  0  0  0
  152.9232  140.4664  155.9073 H   0  0  0  0  0  0  0  0  0  0  0  0
  150.6336  138.6836  156.2471 H   0  0  0  0  0  0  0  0  0  0  0  0
  151.7025  138.7712  157.6287 H   0  0  0  0  0  0  0  0  0  0  0  0
  150.2328  141.1152  156.2989 H   0  0  0  0  0  0  0  0  0  0  0  0
  149.9023  140.4335  157.8657 H   0  0  0  0  0  0  0  0  0  0  0  0
  151.6554  140.6264  159.6430 H   0  0  0  0  0  0  0  0  0  0  0  0
  152.8963  140.1244  158.5175 H   0  0  0  0  0  0  0  0  0  0  0  0
  154.0999  142.2668  158.8059 H   0  0  0  0  0  0  0  0  0  0  0  0
  154.6330  140.4592  160.4376 H   0  0  0  0  0  0  0  0  0  0  0  0
  153.3643  141.0453  161.5122 H   0  0  0  0  0  0  0  0  0  0  0  0
  154.7737  142.0492  161.1813 H   0  0  0  0  0  0  0  0  0  0  0  0
  151.2504  144.5174  159.5394 H   0  0  0  0  0  0  0  0  0  0  0  0
  152.1258  145.1786  157.3460 H   0  0  0  0  0  0  0  0  0  0  0  0
  153.3672  143.9381  157.4126 H   0  0  0  0  0  0  0  0  0  0  0  0
  153.3979  145.2765  158.5584 H   0  0  0  0  0  0  0  0  0  0  0  0
  150.3982  143.3103  157.4999 H   0  0  0  0  0  0  0  0  0  0  0  0
  150.1521  142.4816  159.0165 H   0  0  0  0  0  0  0  0  0  0  0  0
  1  2  1  0  0  0  0
  1 21  1  0  0  0  0
  1 22  1  0  0  0  0
  1 23  1  0  0  0  0
  2 20  1  0  0  0  0
  2  3  2  0  0  0  0
  3  4  1  0  0  0  0
  3 24  1  0  0  0  0
  4  5  1  0  0  0  0
  4 19  2  0  0  0  0
  5  6  1  0  0  0  0
  6  7  2  0  0  0  0
  6  8  1  0  0  0  0
  8  9  1  0  0  0  0
  8 25  1  0  0  0  0
  9 10  1  0  0  0  0
  9 26  1  0  0  0  0
  9 27  1  0  0  0  0
 10 11  1  0  0  0  0
 10 28  1  0  0  0  0
 10 29  1  0  0  0  0
 11 18  1  0  0  0  0
 11 12  1  0  0  0  0
 12 13  1  0  0  0  0
 12 30  1  0  0  0  0
 12 31  1  0  0  0  0
 13 14  1  0  0  0  0
 13 15  1  0  0  0  0
 13 32  1  0  0  0  0
 14 33  1  0  0  0  0
 14 34  1  0  0  0  0
 14 35  1  0  0  0  0
 15 16  1  0  0  0  0
 16 17  1  0  0  0  0
 16 18  1  0  0  0  0
 16 36  1  0  0  0  0
 17 37  1  0  0  0  0
 17 38  1  0  0  0  0
 17 39  1  0  0  0  0
 18 40  1  0  0  0  0
 18 41  1  0  0  0  0
 19 20  1  0  0  0  0
M  CHG  1   5  -1
M  END
> <s_m_source_file>
AV-unprocessed.smi

> <i_m_source_file_index>
1381

> <i_lp_mmshare_version>
43012

> <i_f3d_flags>
0

> <s_epik_input>
W0NIM11jMVtjSF1jKG5vMSlbTkhdQyg9TylbTkhdW0NIMl1bQ0gyXU4yW0NIMl1bQ0BASF0oW0NIM10pT1tDQEBIXShbQ0gzXSlbQ0gyXTI=

> <s_epik_cmdline>
J2VwaWtfcHl0aG9uJywgJy1waCcsICc3LjAnLCAnLXRuJywgJzgnLCAnLW1hJywgJzIwMCcsICctbWV0YWxfYmluZGluZycsICctaW1hZScsICc8aW5maWxlLm1hZT4nLCAnLW9tYWUnLCAnPG91dGZpbGUubWFlPic=

> <r_epik_Ionization_Penalty>
6.88366

> <r_epik_Ionization_Penalty_Charging>
6.57198

> <r_epik_Ionization_Penalty_Neutral>
0.311678

> <r_epik_State_Penalty>
6.77619

> <r_epik_Charging_Adjusted_Penalty>
13.3482

> <i_epik_Tot_Q>
-1

> <i_epik_Tot_abs_Q>
1

> <r_epik_Metal_State_Penalty>
2.70524

> <b_epik_Metal_Only>
1

> <s_lp_Force_Field>
OPLS_2005

> <r_lp_Energy>
15.7401

> <b_lp_Chiralities_Consistent>
1

> <s_lp_Variant>
AV-unprocessed.smi:1381-9

> <Gold.Version>
5.8.1

> <Gold.Id.Protein>
6NUR|6NUR_protein|mol2

> <Gold.PLP.Fitness>
46.1307

> <Gold.PLP.PLP>
-39.0590

> <Gold.PLP.part.hbond>
-3.6835

> <Gold.PLP.part.metal>
0.0000

> <Gold.PLP.part.buried>
-1.6134

> <Gold.PLP.part.nonpolar>
-34.9528

> <Gold.PLP.part.repulsive>
1.3674

> <Gold.PLP.ligand.clash>
0.0000

> <Gold.PLP.ligand.torsion>
0.5170

> <Gold.PLP.Chemscore.Hbond>
2.6864

> <Gold.PLP.Chemscore.CHOScore>
0.0000

> <Gold.PLP.Chemscore.Metal>
0.0000

> <Gold.Chemscore.Hbonds>
donor molecule, donor type, donor heavy atom, donor atom, acceptor molecule, acceptor atom, score
      P1  H  7997  8008       L1     5  1.71
      P1  H 10752 10763       L1    19  0.13
      P1  H 10752 10765       L1     7  0.51

> <Gold.PLP.Chemscore.Internal.Correction>
0.0465

> <Gold.Rescore>
     Score         DG    S(hbond)    S(metal)    S(lipo)     H(rot)  DE(clash)    DE(int)     intcor
     14.31     -16.59       0.70        0.00     108.80       1.54       0.37       1.92       ----

> <Gold.Chemscore.Fitness>
14.3092

> <Gold.Chemscore.DG>
-16.5940

> <Gold.Chemscore.ZeroCoef>
-5.4800

> <Gold.Chemscore.Hbond>
0.6973

> <Gold.Chemscore.Metal>
0.0000

> <Gold.Chemscore.Lipo>
108.8004

> <Gold.Chemscore.Internal_Hbond>
0.0000

> <Gold.Chemscore.DEClash>
0.3663

> <Gold.Chemscore.DEInternal>
1.9185

> <Gold.Chemscore.Rot>
1.5409

> <Gold.Chemscore.Internal.Correction>
   9.000000E+99

> <Gold.Chemscore.Hbonds>
donor molecule, donor type, donor heavy atom, donor atom, acceptor molecule, acceptor atom, score
      P1  H  7997  8008       L1     5  0.04
      P1  H 10752 10763       L1    19  0.01
      P1  H 10752 10765       L1     7  0.49

> <Gold.Chemscore.Hbond.Weighted>
-2.3290

> <Gold.Chemscore.Metal.Weighted>
-0.0000

> <Gold.Chemscore.Lipo.Weighted>
-12.7296

> <Gold.Chemscore.Internal_Hbond.Weighted>
0.0000

> <Gold.Chemscore.DEClash.Weighted>
0.3663

> <Gold.Chemscore.DEInternal.Weighted>
1.9185

> <Gold.Chemscore.Rot.Weighted>
3.9446

> <Gold.Chemscore.Internal.Correction.Weighted>
   9.000000E+99

> <Gold.Protein.RotatedTorsions>
[ 6907 6896 6895 6894 ] final  169.57 input  -60.11 | X-H torsion
[ 7974 7965 7964 7962 ] final -109.49 input  175.53 | X-H torsion
[ 8008 7997 7996 7995 ] final    9.63 input   59.86 | X-H torsion
[ 10167 10162 10161 10158 ] final -156.88 input  -65.29 | X-H torsion
[ 10718 10713 10712 10709 ] final   53.51 input   66.30 | X-H torsion
[ 10763 10752 10751 10750 ] final -170.73 input  -60.55 | X-H torsion
[ 11005 11000 10999 10996 ] final  121.28 input  -57.11 | X-H torsion

> <Gold.Protein.ActiveResidues>
 VAL166  LYS551  ARG553  GLY616  TRP617  ASP618  TYR619  PRO620  LYS621  CYS622 
 ASP623  PHE694  ASN695  SER759  ASP760  ASP761  ALA762  ILE779  LEU786  VAL792 
 PHE793  MET794  SER795  GLU796  ALA797  LYS798  CYS799  TRP800  GLU811  SER814 

> <Gold.Protein.RotatedAtoms>
  151.8298  133.3407  159.3609 H   0  0  0  0  0  0  0  0  0  0  0  0  # atno 6907 bound_to 6896
  150.7268  134.5494  159.5796 H   0  0  0  0  0  0  0  0  0  0  0  0  # atno 6908 bound_to 6896
  152.2944  134.7684  160.0422 H   0  0  0  0  0  0  0  0  0  0  0  0  # atno 6909 bound_to 6896
  145.1798  140.8966  143.3486 H   0  0  0  0  0  0  0  0  0  0  0  0  # atno 7974 bound_to 7965
  154.7826  140.2821  155.6052 H   0  0  0  0  0  0  0  0  0  0  0  0  # atno 8008 bound_to 7997
  156.2952  140.2620  156.2583 H   0  0  0  0  0  0  0  0  0  0  0  0  # atno 8009 bound_to 7997
  154.9766  140.0375  157.2248 H   0  0  0  0  0  0  0  0  0  0  0  0  # atno 8010 bound_to 7997
  139.6815  143.9573  152.2339 H   0  0  0  0  0  0  0  0  0  0  0  0  # atno 10167 bound_to 10162
  157.5173  130.8541  149.8513 H   0  0  0  0  0  0  0  0  0  0  0  0  # atno 10718 bound_to 10713
  154.6383  135.2895  155.0135 H   0  0  0  0  0  0  0  0  0  0  0  0  # atno 10763 bound_to 10752
  154.1271  135.6539  153.4918 H   0  0  0  0  0  0  0  0  0  0  0  0  # atno 10764 bound_to 10752
  153.0313  135.5301  154.7238 H   0  0  0  0  0  0  0  0  0  0  0  0  # atno 10765 bound_to 10752
  139.9219  134.9638  156.7934 H   0  0  0  0  0  0  0  0  0  0  0  0  # atno 11005 bound_to 11000
  145.0147  139.3477  143.6102 LP  0  0  0  0  0  0  0  0  0  0  0  0  # atno 17320 bound_to 7965
  146.3455  139.9424  142.8739 LP  0  0  0  0  0  0  0  0  0  0  0  0  # atno 17321 bound_to 7965
  139.9364  144.6709  150.8310 LP  0  0  0  0  0  0  0  0  0  0  0  0  # atno 17342 bound_to 10162
  140.7654  143.3273  151.2486 LP  0  0  0  0  0  0  0  0  0  0  0  0  # atno 17343 bound_to 10162
  156.0329  130.3759  150.1638 LP  0  0  0  0  0  0  0  0  0  0  0  0  # atno 17370 bound_to 10713
  156.9827  130.9869  151.3433 LP  0  0  0  0  0  0  0  0  0  0  0  0  # atno 17371 bound_to 10713
  140.6449  133.9784  155.7726 LP  0  0  0  0  0  0  0  0  0  0  0  0  # atno 17394 bound_to 11000
  141.0747  134.0153  157.3475 LP  0  0  0  0  0  0  0  0  0  0  0  0  # atno 17395 bound_to 11000

$$$$
