AV-unprocessed.smi:148|AV-procd|sdf|1217|dock4
  -GOLD-   2262018403D 1   1.00000     0.00000
 Structure written by MMmdl.
 63 67  0  0  0  0  0  0  0  0  1 V2000
  146.3231  137.1492  152.3661 O   0  0  0  0  0  0  0  0  0  0  0  0
  145.7512  136.0474  151.6928 C   0  0  0  0  0  0  0  0  0  0  0  0
  145.7062  134.7828  152.5842 C   0  0  1  0  0  0  0  0  0  0  0  0
  144.9655  135.0789  153.9161 C   0  0  0  0  0  0  0  0  0  0  0  0
  145.3876  134.2467  155.0353 N   0  0  0  0  0  0  0  0  0  0  0  0
  146.6114  133.6308  155.1856 C   0  0  0  0  0  0  0  0  0  0  0  0
  146.7595  132.9367  156.2805 N   0  0  0  0  0  0  0  0  0  0  0  0
  145.5374  133.0666  156.9252 C   0  0  0  0  0  0  0  0  0  0  0  0
  145.0111  132.5675  158.1448 C   0  0  0  0  0  0  0  0  0  0  0  0
  145.7495  131.7984  158.9790 N   0  0  0  0  0  0  0  0  0  0  0  0
  145.9903  130.4987  158.3521 C   0  0  0  0  0  0  0  0  0  0  0  0
  146.6245  129.5086  159.3353 C   0  0  0  0  0  0  0  0  0  0  0  0
  147.9117  130.0987  159.9164 C   0  0  0  0  0  0  0  0  0  0  0  0
  147.6119  131.4459  160.5860 C   0  0  0  0  0  0  0  0  0  0  0  0
  146.9148  132.4397  159.6184 C   0  0  2  0  0  0  0  0  0  0  0  0
  146.5491  133.7979  160.2978 C   0  0  1  0  0  0  0  0  0  0  0  0
  145.5991  133.7140  161.5083 C   0  0  0  0  0  0  0  0  0  0  0  0
  145.9264  134.9228  162.4007 C   0  0  0  0  0  0  0  0  0  0  0  0
  147.0473  135.6910  161.6923 C   0  0  0  0  0  0  0  0  0  0  0  0
  147.7239  134.6483  160.8031 C   0  0  2  0  0  0  0  0  0  0  0  0
  148.4379  135.2568  159.7471 O   0  0  0  0  0  0  0  0  0  0  0  0
  143.7367  132.9064  158.4753 N   0  0  0  0  0  0  0  0  0  0  0  0
  143.0169  133.6723  157.6501 C   0  0  0  0  0  0  0  0  0  0  0  0
  143.3746  134.2021  156.4782 N   0  0  0  0  0  0  0  0  0  0  0  0
  144.6585  133.8763  156.1535 C   0  0  0  0  0  0  0  0  0  0  0  0
  145.1104  133.5499  151.8493 C   0  0  2  0  0  0  0  0  0  0  0  0
  145.7379  133.2624  150.4944 C   0  0  0  0  0  0  0  0  0  0  0  0
  144.7156  132.3327  149.8492 C   0  0  0  0  0  0  0  0  0  0  0  0
  143.4546  132.7125  150.3886 O   0  0  0  0  0  0  0  0  0  0  0  0
  143.6421  133.6669  151.4277 C   0  0  0  0  0  0  0  0  0  0  0  0
  147.2579  137.1350  152.2281 H   0  0  0  0  0  0  0  0  0  0  0  0
  144.7419  136.3467  151.4099 H   0  0  0  0  0  0  0  0  0  0  0  0
  146.3000  135.8585  150.7695 H   0  0  0  0  0  0  0  0  0  0  0  0
  146.7350  134.5421  152.8573 H   0  0  0  0  0  0  0  0  0  0  0  0
  145.0766  136.1256  154.1991 H   0  0  0  0  0  0  0  0  0  0  0  0
  143.8944  134.9282  153.7767 H   0  0  0  0  0  0  0  0  0  0  0  0
  147.4020  133.7182  154.4547 H   0  0  0  0  0  0  0  0  0  0  0  0
  145.0525  130.0842  157.9779 H   0  0  0  0  0  0  0  0  0  0  0  0
  146.6453  130.6304  157.4893 H   0  0  0  0  0  0  0  0  0  0  0  0
  145.9221  129.2845  160.1393 H   0  0  0  0  0  0  0  0  0  0  0  0
  146.8361  128.5654  158.8315 H   0  0  0  0  0  0  0  0  0  0  0  0
  148.3503  129.4090  160.6381 H   0  0  0  0  0  0  0  0  0  0  0  0
  148.6488  130.2343  159.1239 H   0  0  0  0  0  0  0  0  0  0  0  0
  146.9926  131.2656  161.4638 H   0  0  0  0  0  0  0  0  0  0  0  0
  148.5518  131.8581  160.9499 H   0  0  0  0  0  0  0  0  0  0  0  0
  147.6302  132.6564  158.8236 H   0  0  0  0  0  0  0  0  0  0  0  0
  146.0412  134.4228  159.5615 H   0  0  0  0  0  0  0  0  0  0  0  0
  144.5570  133.7266  161.1875 H   0  0  0  0  0  0  0  0  0  0  0  0
  145.7427  132.7965  162.0767 H   0  0  0  0  0  0  0  0  0  0  0  0
  145.0538  135.5550  162.5677 H   0  0  0  0  0  0  0  0  0  0  0  0
  146.2697  134.5767  163.3764 H   0  0  0  0  0  0  0  0  0  0  0  0
  146.6096  136.4791  161.0775 H   0  0  0  0  0  0  0  0  0  0  0  0
  147.7402  136.1626  162.3899 H   0  0  0  0  0  0  0  0  0  0  0  0
  148.4085  134.0639  161.4161 H   0  0  0  0  0  0  0  0  0  0  0  0
  147.9513  135.1355  158.9462 H   0  0  0  0  0  0  0  0  0  0  0  0
  142.0110  133.8935  157.9752 H   0  0  0  0  0  0  0  0  0  0  0  0
  145.2074  132.6644  152.4790 H   0  0  0  0  0  0  0  0  0  0  0  0
  145.8215  134.1819  149.9131 H   0  0  0  0  0  0  0  0  0  0  0  0
  146.7273  132.8115  150.5502 H   0  0  0  0  0  0  0  0  0  0  0  0
  144.7215  132.3999  148.7612 H   0  0  0  0  0  0  0  0  0  0  0  0
  144.9140  131.2967  150.1267 H   0  0  0  0  0  0  0  0  0  0  0  0
  142.9520  133.4841  152.2516 H   0  0  0  0  0  0  0  0  0  0  0  0
  143.4337  134.6577  151.0213 H   0  0  0  0  0  0  0  0  0  0  0  0
  1  2  1  0  0  0  0
  1 31  1  0  0  0  0
  2  3  1  0  0  0  0
  2 32  1  0  0  0  0
  2 33  1  0  0  0  0
  3  4  1  0  0  0  0
  3 26  1  0  0  0  0
  3 34  1  0  0  0  0
  4  5  1  0  0  0  0
  4 35  1  0  0  0  0
  4 36  1  0  0  0  0
  5 25  1  0  0  0  0
  5  6  1  0  0  0  0
  6  7  2  0  0  0  0
  6 37  1  0  0  0  0
  7  8  1  0  0  0  0
  8 25  2  0  0  0  0
  8  9  1  0  0  0  0
  9 10  1  0  0  0  0
  9 22  2  0  0  0  0
 10 15  1  0  0  0  0
 10 11  1  0  0  0  0
 11 12  1  0  0  0  0
 11 38  1  0  0  0  0
 11 39  1  0  0  0  0
 12 13  1  0  0  0  0
 12 40  1  0  0  0  0
 12 41  1  0  0  0  0
 13 14  1  0  0  0  0
 13 42  1  0  0  0  0
 13 43  1  0  0  0  0
 14 15  1  0  0  0  0
 14 44  1  0  0  0  0
 14 45  1  0  0  0  0
 15 16  1  0  0  0  0
 15 46  1  0  0  0  0
 16 20  1  0  0  0  0
 16 17  1  0  0  0  0
 16 47  1  0  0  0  0
 17 18  1  0  0  0  0
 17 48  1  0  0  0  0
 17 49  1  0  0  0  0
 18 19  1  0  0  0  0
 18 50  1  0  0  0  0
 18 51  1  0  0  0  0
 19 20  1  0  0  0  0
 19 52  1  0  0  0  0
 19 53  1  0  0  0  0
 20 21  1  0  0  0  0
 20 54  1  0  0  0  0
 21 55  1  0  0  0  0
 22 23  1  0  0  0  0
 23 24  2  0  0  0  0
 23 56  1  0  0  0  0
 24 25  1  0  0  0  0
 26 30  1  0  0  0  0
 26 27  1  0  0  0  0
 26 57  1  0  0  0  0
 27 28  1  0  0  0  0
 27 58  1  0  0  0  0
 27 59  1  0  0  0  0
 28 29  1  0  0  0  0
 28 60  1  0  0  0  0
 28 61  1  0  0  0  0
 29 30  1  0  0  0  0
 30 62  1  0  0  0  0
 30 63  1  0  0  0  0
M  END
> <s_m_source_file>
AV-unprocessed.smi

> <i_m_source_file_index>
148

> <i_lp_mmshare_version>
43012

> <i_f3d_flags>
0

> <s_epik_input>
W0NIMl0xT1tDSDJdW0NIMl1bQ0BIXTFbQ0BIXShbQ0gyXVtPSF0pW0NIMl1uKFtjSF1uMiljKGMyMyluW2NIXW5jM040W0NIMl1bQ0gyXVtDSDJdW0NIMl1bQ0BIXTRbQ0BASF01W0NIMl1bQ0gyXVtDSDJdW0NASF01W09IXQ==

> <s_epik_cmdline>
J2VwaWtfcHl0aG9uJywgJy1waCcsICc3LjAnLCAnLXRuJywgJzgnLCAnLW1hJywgJzIwMCcsICctbWV0YWxfYmluZGluZycsICctaW1hZScsICc8aW5maWxlLm1hZT4nLCAnLW9tYWUnLCAnPG91dGZpbGUubWFlPic=

> <r_lp_tautomer_probability>
1

> <r_epik_Ionization_Penalty>
0.00556303

> <r_epik_Ionization_Penalty_Charging>
0

> <r_epik_Ionization_Penalty_Neutral>
0.00556303

> <r_epik_State_Penalty>
0.00401767

> <r_epik_Charging_Adjusted_Penalty>
0.00401767

> <i_epik_Tot_Q>
0

> <i_epik_Tot_abs_Q>
0

> <r_epik_Metal_State_Penalty>
-0

> <b_epik_Metal_Only>
0

> <s_lp_Force_Field>
OPLS_2005

> <r_lp_Energy>
67.8341

> <b_lp_Chiralities_Consistent>
1

> <s_lp_Variant>
AV-unprocessed.smi:148-16

> <Gold.Version>
5.8.1

> <Gold.Id.Protein>
6NUR|6NUR_protein|mol2

> <Gold.PLP.Fitness>
39.3165

> <Gold.PLP.PLP>
-31.6570

> <Gold.PLP.part.hbond>
-2.0000

> <Gold.PLP.part.metal>
0.0000

> <Gold.PLP.part.buried>
-6.0638

> <Gold.PLP.part.nonpolar>
-23.7048

> <Gold.PLP.part.repulsive>
0.3561

> <Gold.PLP.ligand.clash>
0.0000

> <Gold.PLP.ligand.torsion>
0.8013

> <Gold.PLP.Chemscore.Hbond>
2.0000

> <Gold.PLP.Chemscore.CHOScore>
0.9092

> <Gold.PLP.Chemscore.Metal>
0.0000

> <Gold.Chemscore.Hbonds>
donor molecule, donor type, donor heavy atom, donor atom, acceptor molecule, acceptor atom, score
      L1  H     1    31       P1  7948  1.00
      P1  H  6896  6907       L1    21  0.19
      L1  C    23    56       P1 11000  0.91

> <Gold.PLP.Chemscore.Internal.Correction>
0.5345

> <Gold.Rescore>
     Score         DG    S(hbond)    S(metal)    S(lipo)     H(rot)  DE(clash)    DE(int)     intcor
     12.69     -13.62       1.86        0.00      89.21       3.32       0.04       0.89       ----

> <Gold.Chemscore.Fitness>
12.6852

> <Gold.Chemscore.DG>
-13.6187

> <Gold.Chemscore.ZeroCoef>
-5.4800

> <Gold.Chemscore.Hbond>
1.8568

> <Gold.Chemscore.Metal>
0.0000

> <Gold.Chemscore.Lipo>
89.2055

> <Gold.Chemscore.Internal_Hbond>
0.0000

> <Gold.Chemscore.DEClash>
0.0402

> <Gold.Chemscore.DEInternal>
0.8934

> <Gold.Chemscore.Rot>
3.3203

> <Gold.Chemscore.Internal.Correction>
   9.000000E+99

> <Gold.Chemscore.Hbonds>
donor molecule, donor type, donor heavy atom, donor atom, acceptor molecule, acceptor atom, score
      L1  H     1    31       P1  7948  0.96
      P1  H  6896  6907       L1    21  0.16

> <Gold.Chemscore.Hbond.Weighted>
-6.2017

> <Gold.Chemscore.Metal.Weighted>
-0.0000

> <Gold.Chemscore.Lipo.Weighted>
-10.4370

> <Gold.Chemscore.Internal_Hbond.Weighted>
0.0000

> <Gold.Chemscore.DEClash.Weighted>
0.0402

> <Gold.Chemscore.DEInternal.Weighted>
0.8934

> <Gold.Chemscore.Rot.Weighted>
8.5000

> <Gold.Chemscore.Internal.Correction.Weighted>
   9.000000E+99

> <Gold.Protein.RotatedTorsions>
[ 6907 6896 6895 6894 ] final  -60.12 input  -60.11 | X-H torsion
[ 7974 7965 7964 7962 ] final  104.21 input  175.53 | X-H torsion
[ 8008 7997 7996 7995 ] final  -46.62 input   59.86 | X-H torsion
[ 10167 10162 10161 10158 ] final -170.48 input  -65.29 | X-H torsion
[ 10718 10713 10712 10709 ] final  150.33 input   66.30 | X-H torsion
[ 10763 10752 10751 10750 ] final  121.84 input  -60.55 | X-H torsion
[ 11005 11000 10999 10996 ] final  115.79 input  -57.11 | X-H torsion

> <Gold.Protein.ActiveResidues>
 VAL166  LYS551  ARG553  GLY616  TRP617  ASP618  TYR619  PRO620  LYS621  CYS622 
 ASP623  PHE694  ASN695  SER759  ASP760  ASP761  ALA762  ILE779  LEU786  VAL792 
 PHE793  MET794  SER795  GLU796  ALA797  LYS798  CYS799  TRP800  GLU811  SER814 

> <Gold.Protein.RotatedAtoms>
  150.7879  134.6879  159.6479 H   0  0  0  0  0  0  0  0  0  0  0  0  # atno 6907 bound_to 6896
  152.3979  134.6331  160.0090 H   0  0  0  0  0  0  0  0  0  0  0  0  # atno 6908 bound_to 6896
  151.6612  133.3280  159.3210 H   0  0  0  0  0  0  0  0  0  0  0  0  # atno 6909 bound_to 6896
  145.3358  139.2475  143.3636 H   0  0  0  0  0  0  0  0  0  0  0  0  # atno 7974 bound_to 7965
  154.4009  140.1367  156.4041 H   0  0  0  0  0  0  0  0  0  0  0  0  # atno 8008 bound_to 7997
  155.7796  140.3482  155.5270 H   0  0  0  0  0  0  0  0  0  0  0  0  # atno 8009 bound_to 7997
  155.8687  140.0968  157.1555 H   0  0  0  0  0  0  0  0  0  0  0  0  # atno 8010 bound_to 7997
  139.5859  144.1319  152.1575 H   0  0  0  0  0  0  0  0  0  0  0  0  # atno 10167 bound_to 10162
  157.2848  131.0842  151.1505 H   0  0  0  0  0  0  0  0  0  0  0  0  # atno 10718 bound_to 10713
  153.6203  135.3414  155.3008 H   0  0  0  0  0  0  0  0  0  0  0  0  # atno 10763 bound_to 10752
  154.8601  135.4271  154.2214 H   0  0  0  0  0  0  0  0  0  0  0  0  # atno 10764 bound_to 10752
  153.3086  135.7030  153.7209 H   0  0  0  0  0  0  0  0  0  0  0  0  # atno 10765 bound_to 10752
  139.9021  134.9589  156.7100 H   0  0  0  0  0  0  0  0  0  0  0  0  # atno 11005 bound_to 11000
  146.3027  140.3945  142.8698 LP  0  0  0  0  0  0  0  0  0  0  0  0  # atno 17320 bound_to 7965
  144.8829  140.7423  143.5975 LP  0  0  0  0  0  0  0  0  0  0  0  0  # atno 17321 bound_to 7965
  140.0882  144.5643  150.7073 LP  0  0  0  0  0  0  0  0  0  0  0  0  # atno 17342 bound_to 10162
  140.7131  143.2521  151.4519 LP  0  0  0  0  0  0  0  0  0  0  0  0  # atno 17343 bound_to 10162
  157.2925  130.6803  149.6122 LP  0  0  0  0  0  0  0  0  0  0  0  0  # atno 17370 bound_to 10713
  155.9665  130.4416  150.5348 LP  0  0  0  0  0  0  0  0  0  0  0  0  # atno 17371 bound_to 10713
  140.7083  133.9245  155.8068 LP  0  0  0  0  0  0  0  0  0  0  0  0  # atno 17394 bound_to 11000
  141.0319  134.0744  157.4004 LP  0  0  0  0  0  0  0  0  0  0  0  0  # atno 17395 bound_to 11000

$$$$
