AV-unprocessed.smi:849|AV-procd|sdf|3943|dock4
  -GOLD-   22720 1413D 1   1.00000     0.00000
 Structure written by MMmdl.
 36 38  0  0  0  0  0  0  0  0  1 V2000
  153.0915  139.0036  157.2014 O   0  0  0  0  0  0  0  0  0  0  0  0
  152.4804  139.2571  158.4486 C   0  0  0  0  0  0  0  0  0  0  0  0
  152.2621  140.7215  158.7051 C   0  0  0  0  0  0  0  0  0  0  0  0
  152.8191  141.3217  159.7585 N   0  0  0  0  0  0  0  0  0  0  0  0
  152.4048  142.6305  159.6232 C   0  0  0  0  0  0  0  0  0  0  0  0
  152.6658  143.7628  160.4279 C   0  0  0  0  0  0  0  0  0  0  0  0
  152.1339  145.0222  160.0822 C   0  0  0  0  0  0  0  0  0  0  0  0
  151.3371  145.1670  158.9284 C   0  0  0  0  0  0  0  0  0  0  0  0
  151.0655  144.0509  158.1138 C   0  0  0  0  0  0  0  0  0  0  0  0
  151.5948  142.7940  158.4650 C   0  0  0  0  0  0  0  0  0  0  0  0
  151.5175  141.5242  157.8967 N   0  0  0  0  0  0  0  0  0  0  0  0
  150.7906  141.1826  156.6759 C   0  0  0  0  0  0  0  0  0  0  0  0
  149.2542  141.3204  156.7986 C   0  0  2  0  0  0  0  0  0  0  0  0
  148.7970  140.6150  157.9368 O   0  0  0  0  0  0  0  0  0  0  0  0
  148.5124  140.9343  155.5184 C   0  0  0  0  0  0  0  0  0  0  0  0
  147.6551  141.8676  154.8889 C   0  0  0  0  0  0  0  0  0  0  0  0
  146.9596  141.5262  153.7140 C   0  0  0  0  0  0  0  0  0  0  0  0
  147.1107  140.2449  153.1549 C   0  0  0  0  0  0  0  0  0  0  0  0
  147.9545  139.3056  153.7753 C   0  0  0  0  0  0  0  0  0  0  0  0
  148.6535  139.6419  154.9520 C   0  0  0  0  0  0  0  0  0  0  0  0
  149.6592  138.4396  155.6820 Cl  0  0  0  0  0  0  0  0  0  0  0  0
  152.4151  138.8328  156.5647 H   0  0  0  0  0  0  0  0  0  0  0  0
  151.5147  138.7525  158.4733 H   0  0  0  0  0  0  0  0  0  0  0  0
  153.0944  138.7977  159.2183 H   0  0  0  0  0  0  0  0  0  0  0  0
  153.2777  143.6617  161.3119 H   0  0  0  0  0  0  0  0  0  0  0  0
  152.3400  145.8813  160.7037 H   0  0  0  0  0  0  0  0  0  0  0  0
  150.9338  146.1350  158.6690 H   0  0  0  0  0  0  0  0  0  0  0  0
  150.4534  144.1593  157.2307 H   0  0  0  0  0  0  0  0  0  0  0  0
  151.1462  141.8420  155.8831 H   0  0  0  0  0  0  0  0  0  0  0  0
  151.0674  140.1815  156.3502 H   0  0  0  0  0  0  0  0  0  0  0  0
  149.0280  142.3639  157.0166 H   0  0  0  0  0  0  0  0  0  0  0  0
  149.1906  139.7558  157.9347 H   0  0  0  0  0  0  0  0  0  0  0  0
  147.5143  142.8529  155.3089 H   0  0  0  0  0  0  0  0  0  0  0  0
  146.3059  142.2468  153.2451 H   0  0  0  0  0  0  0  0  0  0  0  0
  146.5759  139.9809  152.2545 H   0  0  0  0  0  0  0  0  0  0  0  0
  148.0627  138.3200  153.3469 H   0  0  0  0  0  0  0  0  0  0  0  0
  1  2  1  0  0  0  0
  1 22  1  0  0  0  0
  2  3  1  0  0  0  0
  2 23  1  0  0  0  0
  2 24  1  0  0  0  0
  3 11  1  0  0  0  0
  3  4  2  0  0  0  0
  4  5  1  0  0  0  0
  5 10  2  0  0  0  0
  5  6  1  0  0  0  0
  6  7  2  0  0  0  0
  6 25  1  0  0  0  0
  7  8  1  0  0  0  0
  7 26  1  0  0  0  0
  8  9  2  0  0  0  0
  8 27  1  0  0  0  0
  9 10  1  0  0  0  0
  9 28  1  0  0  0  0
 10 11  1  0  0  0  0
 11 12  1  0  0  0  0
 12 13  1  0  0  0  0
 12 29  1  0  0  0  0
 12 30  1  0  0  0  0
 13 14  1  0  0  0  0
 13 15  1  0  0  0  0
 13 31  1  0  0  0  0
 14 32  1  0  0  0  0
 15 20  1  0  0  0  0
 15 16  2  0  0  0  0
 16 17  1  0  0  0  0
 16 33  1  0  0  0  0
 17 18  2  0  0  0  0
 17 34  1  0  0  0  0
 18 19  1  0  0  0  0
 18 35  1  0  0  0  0
 19 20  2  0  0  0  0
 19 36  1  0  0  0  0
 20 21  1  0  0  0  0
M  END
> <s_m_source_file>
AV-unprocessed.smi

> <i_m_source_file_index>
849

> <i_lp_mmshare_version>
43012

> <i_f3d_flags>
0

> <s_epik_input>
W2NIXTFbY0hdW2NIXVtjSF1jKGMxMiluKGMobjIpW0NIMl1bT0hdKVtDSDJdW0NASF0oW09IXSljM1tjSF1bY0hdW2NIXVtjSF1jM0Ns

> <s_epik_cmdline>
J2VwaWtfcHl0aG9uJywgJy1waCcsICc3LjAnLCAnLXRuJywgJzgnLCAnLW1hJywgJzIwMCcsICctbWV0YWxfYmluZGluZycsICctaW1hZScsICc8aW5maWxlLm1hZT4nLCAnLW9tYWUnLCAnPG91dGZpbGUubWFlPic=

> <r_epik_Ionization_Penalty>
0.0634742

> <r_epik_Ionization_Penalty_Charging>
0

> <r_epik_Ionization_Penalty_Neutral>
0.0634742

> <r_epik_State_Penalty>
0.0551572

> <r_epik_Charging_Adjusted_Penalty>
0.0551572

> <i_epik_Tot_Q>
0

> <i_epik_Tot_abs_Q>
0

> <r_epik_Metal_State_Penalty>
5.78034e-05

> <b_epik_Metal_Only>
0

> <s_lp_Force_Field>
OPLS_2005

> <r_lp_Energy>
13.6996

> <b_lp_Chiralities_Consistent>
1

> <s_lp_Variant>
AV-unprocessed.smi:849-1

> <Gold.Version>
5.8.1

> <Gold.Id.Protein>
6NUR|6NUR_protein|mol2

> <Gold.PLP.Fitness>
44.8034

> <Gold.PLP.PLP>
-41.9608

> <Gold.PLP.part.hbond>
-1.0000

> <Gold.PLP.part.metal>
0.0000

> <Gold.PLP.part.buried>
-5.3219

> <Gold.PLP.part.nonpolar>
-35.8523

> <Gold.PLP.part.repulsive>
0.0000

> <Gold.PLP.ligand.clash>
0.0000

> <Gold.PLP.ligand.torsion>
0.1221

> <Gold.PLP.Chemscore.Hbond>
1.0000

> <Gold.PLP.Chemscore.CHOScore>
0.0000

> <Gold.PLP.Chemscore.Metal>
0.0000

> <Gold.Chemscore.Hbonds>
donor molecule, donor type, donor heavy atom, donor atom, acceptor molecule, acceptor atom, score
      P1  H  7997  8008       L1     1  1.00

> <Gold.PLP.Chemscore.Internal.Correction>
0.0867

> <Gold.Rescore>
     Score         DG    S(hbond)    S(metal)    S(lipo)     H(rot)  DE(clash)    DE(int)     intcor
     16.17     -16.34       0.97        0.00     122.42       2.62       0.09       0.08       ----

> <Gold.Chemscore.Fitness>
16.1713

> <Gold.Chemscore.DG>
-16.3426

> <Gold.Chemscore.ZeroCoef>
-5.4800

> <Gold.Chemscore.Hbond>
0.9746

> <Gold.Chemscore.Metal>
0.0000

> <Gold.Chemscore.Lipo>
122.4174

> <Gold.Chemscore.Internal_Hbond>
0.0000

> <Gold.Chemscore.DEClash>
0.0901

> <Gold.Chemscore.DEInternal>
0.0811

> <Gold.Chemscore.Rot>
2.6232

> <Gold.Chemscore.Internal.Correction>
   9.000000E+99

> <Gold.Chemscore.Hbonds>
donor molecule, donor type, donor heavy atom, donor atom, acceptor molecule, acceptor atom, score
      P1  H  7997  8008       L1     1  0.90

> <Gold.Chemscore.Hbond.Weighted>
-3.2552

> <Gold.Chemscore.Metal.Weighted>
-0.0000

> <Gold.Chemscore.Lipo.Weighted>
-14.3228

> <Gold.Chemscore.Internal_Hbond.Weighted>
0.0000

> <Gold.Chemscore.DEClash.Weighted>
0.0901

> <Gold.Chemscore.DEInternal.Weighted>
0.0811

> <Gold.Chemscore.Rot.Weighted>
6.7154

> <Gold.Chemscore.Internal.Correction.Weighted>
   9.000000E+99

> <Gold.Protein.RotatedTorsions>
[ 6907 6896 6895 6894 ] final -168.39 input  -60.11 | X-H torsion
[ 7974 7965 7964 7962 ] final    9.59 input  175.53 | X-H torsion
[ 8008 7997 7996 7995 ] final  -63.89 input   59.86 | X-H torsion
[ 10167 10162 10161 10158 ] final  134.40 input  -65.29 | X-H torsion
[ 10718 10713 10712 10709 ] final   -6.83 input   66.30 | X-H torsion
[ 10763 10752 10751 10750 ] final  143.35 input  -60.55 | X-H torsion
[ 11005 11000 10999 10996 ] final  -85.23 input  -57.11 | X-H torsion

> <Gold.Protein.ActiveResidues>
 VAL166  LYS551  ARG553  GLY616  TRP617  ASP618  TYR619  PRO620  LYS621  CYS622 
 ASP623  PHE694  ASN695  SER759  ASP760  ASP761  ALA762  ILE779  LEU786  VAL792 
 PHE793  MET794  SER795  GLU796  ALA797  LYS798  CYS799  TRP800  GLU811  SER814 

> <Gold.Protein.RotatedAtoms>
  151.4749  133.3560  159.2828 H   0  0  0  0  0  0  0  0  0  0  0  0  # atno 6907 bound_to 6896
  150.8936  134.8344  159.7322 H   0  0  0  0  0  0  0  0  0  0  0  0  # atno 6908 bound_to 6896
  152.4838  134.4661  159.9672 H   0  0  0  0  0  0  0  0  0  0  0  0  # atno 6909 bound_to 6896
  146.2401  139.9761  142.8441 H   0  0  0  0  0  0  0  0  0  0  0  0  # atno 7974 bound_to 7965
  154.4580  140.0965  156.6812 H   0  0  0  0  0  0  0  0  0  0  0  0  # atno 8008 bound_to 7997
  155.5080  140.3475  155.4364 H   0  0  0  0  0  0  0  0  0  0  0  0  # atno 8009 bound_to 7997
  156.0815  140.1374  156.9695 H   0  0  0  0  0  0  0  0  0  0  0  0  # atno 8010 bound_to 7997
  139.5258  144.6569  151.5134 H   0  0  0  0  0  0  0  0  0  0  0  0  # atno 10167 bound_to 10162
  156.7261  130.5166  149.5856 H   0  0  0  0  0  0  0  0  0  0  0  0  # atno 10718 bound_to 10713
  153.9709  135.2950  155.3427 H   0  0  0  0  0  0  0  0  0  0  0  0  # atno 10763 bound_to 10752
  154.7323  135.5062  153.8986 H   0  0  0  0  0  0  0  0  0  0  0  0  # atno 10764 bound_to 10752
  153.0900  135.6705  153.9984 H   0  0  0  0  0  0  0  0  0  0  0  0  # atno 10765 bound_to 10752
  141.1643  133.7388  156.8985 H   0  0  0  0  0  0  0  0  0  0  0  0  # atno 11005 bound_to 11000
  145.1636  140.9685  143.4363 LP  0  0  0  0  0  0  0  0  0  0  0  0  # atno 17320 bound_to 7965
  145.0094  139.3524  143.6128 LP  0  0  0  0  0  0  0  0  0  0  0  0  # atno 17321 bound_to 7965
  140.6399  143.8910  150.6682 LP  0  0  0  0  0  0  0  0  0  0  0  0  # atno 17342 bound_to 10162
  140.2241  143.3786  152.1619 LP  0  0  0  0  0  0  0  0  0  0  0  0  # atno 17343 bound_to 10162
  156.1561  130.6342  151.0658 LP  0  0  0  0  0  0  0  0  0  0  0  0  # atno 17370 bound_to 10713
  157.6878  131.0819  150.7194 LP  0  0  0  0  0  0  0  0  0  0  0  0  # atno 17371 bound_to 10713
  140.1599  134.9173  157.2701 LP  0  0  0  0  0  0  0  0  0  0  0  0  # atno 17394 bound_to 11000
  140.2623  134.3556  155.7402 LP  0  0  0  0  0  0  0  0  0  0  0  0  # atno 17395 bound_to 11000

$$$$
