AV-unprocessed.smi:2006|AV-procd|sdf|8132|dock5
  -GOLD-   2272010363D 1   1.00000     0.00000
 Structure written by MMmdl.
 32 33  0  0  0  0  0  0  0  0  1 V2000
  151.5797  145.2379  159.6049 C   0  0  0  0  0  0  0  0  0  0  0  0
  151.7660  143.7235  159.7445 C   0  0  1  0  0  0  0  0  0  0  0  0
  151.5752  142.9912  158.4022 C   0  0  0  0  0  0  0  0  0  0  0  0
  151.8510  141.5691  158.5624 N   0  0  0  0  0  0  0  0  0  0  0  0
  151.5873  140.8176  157.4087 C   0  0  0  0  0  0  0  0  0  0  0  0
  150.3528  140.9903  156.7485 C   0  0  0  0  0  0  0  0  0  0  0  0
  150.0951  140.2375  155.5869 C   0  0  0  0  0  0  0  0  0  0  0  0
  151.0790  139.3398  155.1250 C   0  0  0  0  0  0  0  0  0  0  0  0
  150.8510  138.5077  153.8793 C   0  0  0  0  0  0  0  0  0  0  0  0
  149.5921  138.8127  153.2289 N   0  0  0  0  0  0  0  0  0  0  0  0
  152.2806  139.2356  155.8560 C   0  0  0  0  0  0  0  0  0  0  0  0
  152.5350  139.9538  156.9708 N   0  0  0  0  0  0  0  0  0  0  0  0
  153.1689  141.3172  159.1309 C   0  0  0  0  0  0  0  0  0  0  0  0
  153.3269  142.0885  160.4519 C   0  0  0  0  0  0  0  0  0  0  0  0
  153.0849  143.4748  160.2270 O   0  0  0  0  0  0  0  0  0  0  0  0
  150.5771  145.4782  159.2500 H   0  0  0  0  0  0  0  0  0  0  0  0
  152.2950  145.6601  158.8984 H   0  0  0  0  0  0  0  0  0  0  0  0
  151.7223  145.7379  160.5632 H   0  0  0  0  0  0  0  0  0  0  0  0
  151.0438  143.3502  160.4729 H   0  0  0  0  0  0  0  0  0  0  0  0
  150.5547  143.1278  158.0416 H   0  0  0  0  0  0  0  0  0  0  0  0
  152.2427  143.4136  157.6497 H   0  0  0  0  0  0  0  0  0  0  0  0
  149.6169  141.6871  157.1225 H   0  0  0  0  0  0  0  0  0  0  0  0
  149.1588  140.3493  155.0600 H   0  0  0  0  0  0  0  0  0  0  0  0
  151.6644  138.6652  153.1703 H   0  0  0  0  0  0  0  0  0  0  0  0
  150.8641  137.4514  154.1493 H   0  0  0  0  0  0  0  0  0  0  0  0
  149.7646  139.4004  152.4257 H   0  0  0  0  0  0  0  0  0  0  0  0
  149.1873  137.9606  152.8676 H   0  0  0  0  0  0  0  0  0  0  0  0
  153.0612  138.5596  155.5390 H   0  0  0  0  0  0  0  0  0  0  0  0
  153.2999  140.2481  159.3028 H   0  0  0  0  0  0  0  0  0  0  0  0
  153.9415  141.6292  158.4265 H   0  0  0  0  0  0  0  0  0  0  0  0
  152.6417  141.7070  161.2105 H   0  0  0  0  0  0  0  0  0  0  0  0
  154.3367  141.9628  160.8428 H   0  0  0  0  0  0  0  0  0  0  0  0
  1  2  1  0  0  0  0
  1 16  1  0  0  0  0
  1 17  1  0  0  0  0
  1 18  1  0  0  0  0
  2 15  1  0  0  0  0
  2  3  1  0  0  0  0
  2 19  1  0  0  0  0
  3  4  1  0  0  0  0
  3 20  1  0  0  0  0
  3 21  1  0  0  0  0
  4  5  1  0  0  0  0
  4 13  1  0  0  0  0
  5 12  1  0  0  0  0
  5  6  2  0  0  0  0
  6  7  1  0  0  0  0
  6 22  1  0  0  0  0
  7  8  2  0  0  0  0
  7 23  1  0  0  0  0
  8  9  1  0  0  0  0
  8 11  1  0  0  0  0
  9 10  1  0  0  0  0
  9 24  1  0  0  0  0
  9 25  1  0  0  0  0
 10 26  1  0  0  0  0
 10 27  1  0  0  0  0
 11 12  2  0  0  0  0
 11 28  1  0  0  0  0
 13 14  1  0  0  0  0
 13 29  1  0  0  0  0
 13 30  1  0  0  0  0
 14 15  1  0  0  0  0
 14 31  1  0  0  0  0
 14 32  1  0  0  0  0
M  END
> <s_m_source_file>
AV-unprocessed.smi

> <i_m_source_file_index>
2006

> <i_lp_mmshare_version>
43012

> <i_f3d_flags>
0

> <s_epik_input>
W0NIM11bQ0BASF0xW0NIMl1OKFtDSDJdW0NIMl1PMSljMltjSF1bY0hdYyhbY0hdbjIpW0NIMl1bTkgyXQ==

> <s_epik_cmdline>
J2VwaWtfcHl0aG9uJywgJy1waCcsICc3LjAnLCAnLXRuJywgJzgnLCAnLW1hJywgJzIwMCcsICctbWV0YWxfYmluZGluZycsICctaW1hZScsICc8aW5maWxlLm1hZT4nLCAnLW9tYWUnLCAnPG91dGZpbGUubWFlPic=

> <r_lp_tautomer_probability>
1

> <r_epik_Ionization_Penalty>
1.39389

> <r_epik_Ionization_Penalty_Charging>
0

> <r_epik_Ionization_Penalty_Neutral>
1.39389

> <r_epik_State_Penalty>
1.46818

> <r_epik_Charging_Adjusted_Penalty>
1.46818

> <i_epik_Tot_Q>
0

> <i_epik_Tot_abs_Q>
0

> <r_epik_Metal_State_Penalty>
1.46201

> <b_epik_Metal_Only>
0

> <s_lp_Force_Field>
OPLS_2005

> <r_lp_Energy>
16.9225

> <b_lp_Chiralities_Consistent>
1

> <s_lp_Variant>
AV-unprocessed.smi:2006-4

> <Gold.Version>
5.8.1

> <Gold.Id.Protein>
6NUR|6NUR_protein|mol2

> <Gold.PLP.Fitness>
42.7065

> <Gold.PLP.PLP>
-33.8816

> <Gold.PLP.part.hbond>
-3.0000

> <Gold.PLP.part.metal>
0.0000

> <Gold.PLP.part.buried>
-5.0040

> <Gold.PLP.part.nonpolar>
-26.1300

> <Gold.PLP.part.repulsive>
0.0000

> <Gold.PLP.ligand.clash>
0.0000

> <Gold.PLP.ligand.torsion>
0.1256

> <Gold.PLP.Chemscore.Hbond>
2.9920

> <Gold.PLP.Chemscore.CHOScore>
0.0000

> <Gold.PLP.Chemscore.Metal>
0.0000

> <Gold.Chemscore.Hbonds>
donor molecule, donor type, donor heavy atom, donor atom, acceptor molecule, acceptor atom, score
      L1  H    10    26       P1  7957  0.71
      L1  H    10    27       P1  7948  1.00
      P1  H  7997  8008       L1    12  0.91

> <Gold.PLP.Chemscore.Internal.Correction>
0.1002

> <Gold.Rescore>
     Score         DG    S(hbond)    S(metal)    S(lipo)     H(rot)  DE(clash)    DE(int)     intcor
     20.71     -21.00       2.58        0.00      86.96       1.28       0.14       0.15       ----

> <Gold.Chemscore.Fitness>
20.7115

> <Gold.Chemscore.DG>
-21.0011

> <Gold.Chemscore.ZeroCoef>
-5.4800

> <Gold.Chemscore.Hbond>
2.5789

> <Gold.Chemscore.Metal>
0.0000

> <Gold.Chemscore.Lipo>
86.9634

> <Gold.Chemscore.Internal_Hbond>
0.0000

> <Gold.Chemscore.DEClash>
0.1429

> <Gold.Chemscore.DEInternal>
0.1467

> <Gold.Chemscore.Rot>
1.2762

> <Gold.Chemscore.Internal.Correction>
   9.000000E+99

> <Gold.Chemscore.Hbonds>
donor molecule, donor type, donor heavy atom, donor atom, acceptor molecule, acceptor atom, score
      L1  H    10    26       P1  7957  0.68
      L1  H    10    27       P1  7948  0.95
      P1  H  7997  8008       L1    12  0.20

> <Gold.Chemscore.Hbond.Weighted>
-8.6135

> <Gold.Chemscore.Metal.Weighted>
-0.0000

> <Gold.Chemscore.Lipo.Weighted>
-10.1747

> <Gold.Chemscore.Internal_Hbond.Weighted>
0.0000

> <Gold.Chemscore.DEClash.Weighted>
0.1429

> <Gold.Chemscore.DEInternal.Weighted>
0.1467

> <Gold.Chemscore.Rot.Weighted>
3.2671

> <Gold.Chemscore.Internal.Correction.Weighted>
   9.000000E+99

> <Gold.Protein.RotatedTorsions>
[ 6907 6896 6895 6894 ] final -128.47 input  -60.11 | X-H torsion
[ 7974 7965 7964 7962 ] final  146.35 input  175.53 | X-H torsion
[ 8008 7997 7996 7995 ] final  -74.25 input   59.86 | X-H torsion
[ 10167 10162 10161 10158 ] final  -30.80 input  -65.29 | X-H torsion
[ 10718 10713 10712 10709 ] final   27.12 input   66.30 | X-H torsion
[ 10763 10752 10751 10750 ] final   -0.15 input  -60.55 | X-H torsion
[ 11005 11000 10999 10996 ] final  -74.63 input  -57.11 | X-H torsion

> <Gold.Protein.ActiveResidues>
 VAL166  LYS551  ARG553  GLY616  TRP617  ASP618  TYR619  PRO620  LYS621  CYS622 
 ASP623  PHE694  ASN695  SER759  ASP760  ASP761  ALA762  ILE779  LEU786  VAL792 
 PHE793  MET794  SER795  GLU796  ALA797  LYS798  CYS799  TRP800  GLU811  SER814 

> <Gold.Protein.RotatedAtoms>
  150.9183  133.6912  159.2837 H   0  0  0  0  0  0  0  0  0  0  0  0  # atno 6907 bound_to 6896
  151.4375  135.1015  159.9670 H   0  0  0  0  0  0  0  0  0  0  0  0  # atno 6908 bound_to 6896
  152.4966  133.8599  159.7300 H   0  0  0  0  0  0  0  0  0  0  0  0  # atno 6909 bound_to 6896
  144.8678  139.5894  143.5901 H   0  0  0  0  0  0  0  0  0  0  0  0  # atno 7974 bound_to 7965
  154.5315  140.0765  156.8352 H   0  0  0  0  0  0  0  0  0  0  0  0  # atno 8008 bound_to 7997
  155.3366  140.3405  155.4221 H   0  0  0  0  0  0  0  0  0  0  0  0  # atno 8009 bound_to 7997
  156.1785  140.1644  156.8304 H   0  0  0  0  0  0  0  0  0  0  0  0  # atno 8010 bound_to 7997
  140.7245  143.3820  151.1583 H   0  0  0  0  0  0  0  0  0  0  0  0  # atno 10167 bound_to 10162
  157.2160  130.6956  149.6249 H   0  0  0  0  0  0  0  0  0  0  0  0  # atno 10718 bound_to 10713
  153.3282  135.6973  153.6971 H   0  0  0  0  0  0  0  0  0  0  0  0  # atno 10763 bound_to 10752
  153.5784  135.3502  155.2866 H   0  0  0  0  0  0  0  0  0  0  0  0  # atno 10764 bound_to 10752
  154.8612  135.4289  154.2463 H   0  0  0  0  0  0  0  0  0  0  0  0  # atno 10765 bound_to 10752
  141.1637  133.6918  156.7393 H   0  0  0  0  0  0  0  0  0  0  0  0  # atno 11005 bound_to 11000
  146.2909  139.7135  142.9162 LP  0  0  0  0  0  0  0  0  0  0  0  0  # atno 17320 bound_to 7965
  145.4187  141.0404  143.2976 LP  0  0  0  0  0  0  0  0  0  0  0  0  # atno 17321 bound_to 7965
  139.7411  143.8923  152.3050 LP  0  0  0  0  0  0  0  0  0  0  0  0  # atno 17342 bound_to 10162
  139.8745  144.7051  150.8949 LP  0  0  0  0  0  0  0  0  0  0  0  0  # atno 17343 bound_to 10162
  155.9686  130.4535  150.5816 LP  0  0  0  0  0  0  0  0  0  0  0  0  # atno 17370 bound_to 10713
  157.3624  131.0752  151.1625 LP  0  0  0  0  0  0  0  0  0  0  0  0  # atno 17371 bound_to 10713
  140.2686  134.8410  157.3826 LP  0  0  0  0  0  0  0  0  0  0  0  0  # atno 17394 bound_to 11000
  140.1542  134.4810  155.7939 LP  0  0  0  0  0  0  0  0  0  0  0  0  # atno 17395 bound_to 11000

$$$$
