AV-unprocessed.smi:1489|AV-procd|sdf|6027|dock1
  -GOLD-   22720 6133D 1   1.00000     0.00000
 Structure written by MMmdl.
 47 49  0  0  0  0  0  0  0  0  2 V2000
  146.3349  138.2588  154.7903 O   0  0  0  0  0  0  0  0  0  0  0  0
  147.1529  137.8696  153.9569 C   0  0  0  0  0  0  0  0  0  0  0  0
  148.4657  138.1590  153.9657 N   0  0  0  0  0  0  0  0  0  0  0  0
  149.1783  138.9940  154.8683 C   0  0  0  0  0  0  0  0  0  0  0  0
  150.5166  139.4146  154.6667 C   0  0  0  0  0  0  0  0  0  0  0  0
  151.1407  140.2308  155.6321 C   0  0  0  0  0  0  0  0  0  0  0  0
  150.4251  140.6111  156.7912 C   0  0  0  0  0  0  0  0  0  0  0  0
  150.9545  141.4249  157.8032 N   0  0  0  0  0  0  0  0  0  0  0  0
  151.3215  142.7631  157.3694 C   0  0  0  0  0  0  0  0  0  0  0  0
  152.2567  143.3110  158.4516 C   0  0  0  0  0  0  0  0  0  0  0  0
  152.7562  142.0744  159.2077 C   0  0  0  0  0  0  0  0  0  0  0  0
  152.1244  140.8871  158.4777 C   0  0  0  0  0  0  0  0  0  0  0  0
  149.1560  140.1762  156.9509 N   0  3  0  0  0  0  0  0  0  0  0  0
  148.5221  139.3922  156.0520 C   0  0  0  0  0  0  0  0  0  0  0  0
  146.8363  137.0761  152.9233 N   0  0  0  0  0  0  0  0  0  0  0  0
  145.4996  136.5669  152.6280 C   0  0  2  0  0  0  0  0  0  0  0  0
  145.0106  135.6973  153.8023 C   0  0  0  0  0  0  0  0  0  0  0  0
  143.6294  135.0856  153.5160 C   0  0  0  0  0  0  0  0  0  0  0  0
  143.6426  134.2782  152.2069 C   0  0  1  0  0  0  0  0  0  0  0  0
  142.3457  133.7871  151.9416 O   0  0  0  0  0  0  0  0  0  0  0  0
  144.1168  135.1459  151.0286 C   0  0  0  0  0  0  0  0  0  0  0  0
  145.4977  135.7595  151.3120 C   0  0  0  0  0  0  0  0  0  0  0  0
  149.0289  137.6882  153.2725 H   0  0  0  0  0  0  0  0  0  0  0  0
  151.0821  139.1172  153.7973 H   0  0  0  0  0  0  0  0  0  0  0  0
  152.1590  140.5564  155.4785 H   0  0  0  0  0  0  0  0  0  0  0  0
  151.8391  142.7286  156.4098 H   0  0  0  0  0  0  0  0  0  0  0  0
  150.4374  143.3904  157.2510 H   0  0  0  0  0  0  0  0  0  0  0  0
  153.0739  143.8869  158.0163 H   0  0  0  0  0  0  0  0  0  0  0  0
  151.7131  143.9688  159.1308 H   0  0  0  0  0  0  0  0  0  0  0  0
  153.8445  142.0065  159.2243 H   0  0  0  0  0  0  0  0  0  0  0  0
  152.4102  142.1092  160.2416 H   0  0  0  0  0  0  0  0  0  0  0  0
  151.8470  140.0930  159.1715 H   0  0  0  0  0  0  0  0  0  0  0  0
  152.8303  140.4728  157.7569 H   0  0  0  0  0  0  0  0  0  0  0  0
  147.5088  139.1153  156.3050 H   0  0  0  0  0  0  0  0  0  0  0  0
  147.5741  136.7993  152.2925 H   0  0  0  0  0  0  0  0  0  0  0  0
  144.8160  137.4120  152.5247 H   0  0  0  0  0  0  0  0  0  0  0  0
  145.7258  134.8953  153.9916 H   0  0  0  0  0  0  0  0  0  0  0  0
  144.9649  136.2923  154.7154 H   0  0  0  0  0  0  0  0  0  0  0  0
  143.3296  134.4471  154.3479 H   0  0  0  0  0  0  0  0  0  0  0  0
  142.8871  135.8828  153.4538 H   0  0  0  0  0  0  0  0  0  0  0  0
  144.3087  133.4214  152.3165 H   0  0  0  0  0  0  0  0  0  0  0  0
  142.1257  133.9876  151.0446 H   0  0  0  0  0  0  0  0  0  0  0  0
  144.1586  134.5498  150.1164 H   0  0  0  0  0  0  0  0  0  0  0  0
  143.3979  135.9456  150.8433 H   0  0  0  0  0  0  0  0  0  0  0  0
  145.7886  136.3963  150.4758 H   0  0  0  0  0  0  0  0  0  0  0  0
  146.2416  134.9632  151.3664 H   0  0  0  0  0  0  0  0  0  0  0  0
  148.6509  140.4537  157.7928 H   0  0  0  0  0  0  0  0  0  0  0  0
  1  2  2  0  0  0  0
  2  3  1  0  0  0  0
  2 15  1  0  0  0  0
  3  4  1  0  0  0  0
  3 23  1  0  0  0  0
  4 14  1  0  0  0  0
  4  5  2  0  0  0  0
  5  6  1  0  0  0  0
  5 24  1  0  0  0  0
  6  7  2  0  0  0  0
  6 25  1  0  0  0  0
  7  8  1  0  0  0  0
  7 13  1  0  0  0  0
  8 12  1  0  0  0  0
  8  9  1  0  0  0  0
  9 10  1  0  0  0  0
  9 26  1  0  0  0  0
  9 27  1  0  0  0  0
 10 11  1  0  0  0  0
 10 28  1  0  0  0  0
 10 29  1  0  0  0  0
 11 12  1  0  0  0  0
 11 30  1  0  0  0  0
 11 31  1  0  0  0  0
 12 32  1  0  0  0  0
 12 33  1  0  0  0  0
 13 14  2  0  0  0  0
 13 47  1  0  0  0  0
 14 34  1  0  0  0  0
 15 16  1  0  0  0  0
 15 35  1  0  0  0  0
 16 22  1  0  0  0  0
 16 17  1  0  0  0  0
 16 36  1  0  0  0  0
 17 18  1  0  0  0  0
 17 37  1  0  0  0  0
 17 38  1  0  0  0  0
 18 19  1  0  0  0  0
 18 39  1  0  0  0  0
 18 40  1  0  0  0  0
 19 20  1  0  0  0  0
 19 21  1  0  0  0  0
 19 41  1  0  0  0  0
 20 42  1  0  0  0  0
 21 22  1  0  0  0  0
 21 43  1  0  0  0  0
 21 44  1  0  0  0  0
 22 45  1  0  0  0  0
 22 46  1  0  0  0  0
M  CHG  1  13   1
M  END
> <s_m_source_file>
AV-unprocessed.smi

> <i_m_source_file_index>
1489

> <i_lp_mmshare_version>
43012

> <i_f3d_flags>
0

> <s_epik_input>
W0NIMl0xW0NIMl1bQ0BIXShbT0hdKVtDSDJdW0NIMl1bQ0BIXTFbTkhdQyg9TylbTkhdYzJbY0hdW2NIXWMobltjSF0yKU4zW0NIMl1bQ0gyXVtDSDJdW0NIMl0z

> <s_epik_cmdline>
J2VwaWtfcHl0aG9uJywgJy1waCcsICc3LjAnLCAnLXRuJywgJzgnLCAnLW1hJywgJzIwMCcsICctbWV0YWxfYmluZGluZycsICctaW1hZScsICc8aW5maWxlLm1hZT4nLCAnLW9tYWUnLCAnPG91dGZpbGUubWFlPic=

> <r_lp_tautomer_probability>
0.999994

> <r_epik_Ionization_Penalty>
1.08454

> <r_epik_Ionization_Penalty_Charging>
1.08452

> <r_epik_Ionization_Penalty_Neutral>
2.18252e-05

> <r_epik_State_Penalty>
1.14025

> <r_epik_Charging_Adjusted_Penalty>
2.22477

> <i_epik_Tot_Q>
1

> <i_epik_Tot_abs_Q>
1

> <r_epik_Metal_State_Penalty>
1.22975

> <b_epik_Metal_Only>
0

> <s_lp_Force_Field>
OPLS_2005

> <r_lp_Energy>
44.1541

> <b_lp_Chiralities_Consistent>
1

> <s_lp_Variant>
AV-unprocessed.smi:1489-3

> <Gold.Version>
5.8.1

> <Gold.Id.Protein>
6NUR|6NUR_protein|mol2

> <Gold.PLP.Fitness>
42.3164

> <Gold.PLP.PLP>
-33.7503

> <Gold.PLP.part.hbond>
-3.0000

> <Gold.PLP.part.metal>
0.0000

> <Gold.PLP.part.buried>
-3.8730

> <Gold.PLP.part.nonpolar>
-27.3359

> <Gold.PLP.part.repulsive>
0.1624

> <Gold.PLP.ligand.clash>
0.0000

> <Gold.PLP.ligand.torsion>
0.0446

> <Gold.PLP.Chemscore.Hbond>
2.8800

> <Gold.PLP.Chemscore.CHOScore>
0.0000

> <Gold.PLP.Chemscore.Metal>
0.0000

> <Gold.Chemscore.Hbonds>
donor molecule, donor type, donor heavy atom, donor atom, acceptor molecule, acceptor atom, score
      L1  H     3    23       P1  7948  0.88
      L1  H    15    35       P1  7948  1.00
      L1  H    20    42       P1 10186  0.95

> <Gold.PLP.Chemscore.Internal.Correction>
0.0153

> <Gold.Rescore>
     Score         DG    S(hbond)    S(metal)    S(lipo)     H(rot)  DE(clash)    DE(int)     intcor
     17.83     -19.38       2.59        0.00      81.95       1.69       0.01       1.54       ----

> <Gold.Chemscore.Fitness>
17.8312

> <Gold.Chemscore.DG>
-19.3832

> <Gold.Chemscore.ZeroCoef>
-5.4800

> <Gold.Chemscore.Hbond>
2.5895

> <Gold.Chemscore.Metal>
0.0000

> <Gold.Chemscore.Lipo>
81.9499

> <Gold.Chemscore.Internal_Hbond>
0.0000

> <Gold.Chemscore.DEClash>
0.0095

> <Gold.Chemscore.DEInternal>
1.5425

> <Gold.Chemscore.Rot>
1.6929

> <Gold.Chemscore.Internal.Correction>
   9.000000E+99

> <Gold.Chemscore.Hbonds>
donor molecule, donor type, donor heavy atom, donor atom, acceptor molecule, acceptor atom, score
      L1  H     3    23       P1  7948  0.82
      L1  H    15    35       P1  7948  0.94
      L1  H    20    42       P1 10186  0.21

> <Gold.Chemscore.Hbond.Weighted>
-8.6488

> <Gold.Chemscore.Metal.Weighted>
-0.0000

> <Gold.Chemscore.Lipo.Weighted>
-9.5881

> <Gold.Chemscore.Internal_Hbond.Weighted>
0.0000

> <Gold.Chemscore.DEClash.Weighted>
0.0095

> <Gold.Chemscore.DEInternal.Weighted>
1.5425

> <Gold.Chemscore.Rot.Weighted>
4.3338

> <Gold.Chemscore.Internal.Correction.Weighted>
   9.000000E+99

> <Gold.Protein.RotatedTorsions>
[ 6907 6896 6895 6894 ] final   36.07 input  -60.11 | X-H torsion
[ 7974 7965 7964 7962 ] final  -63.11 input  175.53 | X-H torsion
[ 8008 7997 7996 7995 ] final  -57.86 input   59.86 | X-H torsion
[ 10167 10162 10161 10158 ] final  -98.07 input  -65.29 | X-H torsion
[ 10718 10713 10712 10709 ] final  -14.00 input   66.30 | X-H torsion
[ 10763 10752 10751 10750 ] final   -8.51 input  -60.55 | X-H torsion
[ 11005 11000 10999 10996 ] final -123.54 input  -57.11 | X-H torsion

> <Gold.Protein.ActiveResidues>
 VAL166  LYS551  ARG553  GLY616  TRP617  ASP618  TYR619  PRO620  LYS621  CYS622 
 ASP623  PHE694  ASN695  SER759  ASP760  ASP761  ALA762  ILE779  LEU786  VAL792 
 PHE793  MET794  SER795  GLU796  ALA797  LYS798  CYS799  TRP800  GLU811  SER814 

> <Gold.Protein.RotatedAtoms>
  152.1247  134.9179  160.0561 H   0  0  0  0  0  0  0  0  0  0  0  0  # atno 6907 bound_to 6896
  152.0307  133.3931  159.4304 H   0  0  0  0  0  0  0  0  0  0  0  0  # atno 6908 bound_to 6896
  150.6851  134.3445  159.4926 H   0  0  0  0  0  0  0  0  0  0  0  0  # atno 6909 bound_to 6896
  145.7831  140.8751  143.0320 H   0  0  0  0  0  0  0  0  0  0  0  0  # atno 7974 bound_to 7965
  154.4285  140.1097  156.5865 H   0  0  0  0  0  0  0  0  0  0  0  0  # atno 8008 bound_to 7997
  155.6057  140.3494  155.4588 H   0  0  0  0  0  0  0  0  0  0  0  0  # atno 8009 bound_to 7997
  156.0138  140.1225  157.0416 H   0  0  0  0  0  0  0  0  0  0  0  0  # atno 8010 bound_to 7997
  140.2768  143.3308  152.0481 H   0  0  0  0  0  0  0  0  0  0  0  0  # atno 10167 bound_to 10162
  156.6222  130.4878  149.6160 H   0  0  0  0  0  0  0  0  0  0  0  0  # atno 10718 bound_to 10713
  153.4415  135.7014  153.6166 H   0  0  0  0  0  0  0  0  0  0  0  0  # atno 10763 bound_to 10752
  153.4539  135.3752  155.2300 H   0  0  0  0  0  0  0  0  0  0  0  0  # atno 10764 bound_to 10752
  154.8727  135.4003  154.3814 H   0  0  0  0  0  0  0  0  0  0  0  0  # atno 10765 bound_to 10752
  140.9911  134.0538  157.3654 H   0  0  0  0  0  0  0  0  0  0  0  0  # atno 11005 bound_to 11000
  144.6793  140.0016  143.7484 LP  0  0  0  0  0  0  0  0  0  0  0  0  # atno 17320 bound_to 7965
  146.0054  139.3125  143.0902 LP  0  0  0  0  0  0  0  0  0  0  0  0  # atno 17321 bound_to 7965
  139.4973  144.6619  151.6445 LP  0  0  0  0  0  0  0  0  0  0  0  0  # atno 17342 bound_to 10162
  140.5845  143.9888  150.6287 LP  0  0  0  0  0  0  0  0  0  0  0  0  # atno 17343 bound_to 10162
  156.2303  130.6790  151.1456 LP  0  0  0  0  0  0  0  0  0  0  0  0  # atno 17370 bound_to 10713
  157.7224  131.0672  150.6078 LP  0  0  0  0  0  0  0  0  0  0  0  0  # atno 17371 bound_to 10713
  139.8992  135.0158  156.7187 LP  0  0  0  0  0  0  0  0  0  0  0  0  # atno 17394 bound_to 11000
  140.7039  133.9282  155.8041 LP  0  0  0  0  0  0  0  0  0  0  0  0  # atno 17395 bound_to 11000

$$$$
