AV-unprocessed.smi:674|AV-procd|sdf|3302|dock5
  -GOLD-   22720 0263D 1   1.00000     0.00000
 Structure written by MMmdl.
 47 48  0  0  0  0  0  0  0  0  1 V2000
  152.4427  143.8971  157.9110 C   0  0  0  0  0  0  0  0  0  0  0  0
  151.7431  143.6984  159.2606 C   0  0  0  0  0  0  0  0  0  0  0  0
  152.6867  143.1951  160.3162 C   0  0  0  0  0  0  0  0  0  0  0  0
  153.2993  141.9114  160.4007 C   0  0  0  0  0  0  0  0  0  0  0  0
  154.0417  142.0049  161.5463 C   0  0  0  0  0  0  0  0  0  0  0  0
  154.8357  141.0654  162.1254 N   0  0  0  0  0  0  0  0  0  0  0  0
  154.7631  139.7267  162.0267 C   0  0  0  0  0  0  0  0  0  0  0  0
  153.9608  139.1032  161.3314 O   0  0  0  0  0  0  0  0  0  0  0  0
  155.6873  139.1341  162.7948 N   0  0  0  0  0  0  0  0  0  0  0  0
  155.8490  137.6892  162.9217 C   0  0  1  0  0  0  0  0  0  0  0  0
  156.4043  137.2756  164.2833 C   0  0  0  0  0  0  0  0  0  0  0  0
  155.4604  136.0597  164.2167 C   0  0  2  0  0  0  0  0  0  0  0  0
  154.8606  135.5006  165.5133 C   0  0  0  0  0  0  0  0  0  0  0  0
  156.0614  135.0101  163.4456 O   0  0  0  0  0  0  0  0  0  0  0  0
  155.3210  133.8051  163.2951 C   0  0  0  0  0  0  0  0  0  0  0  0
  154.5531  136.9112  163.2697 C   0  0  0  0  0  0  0  0  0  0  0  0
  153.4277  137.7108  163.9537 C   0  0  0  0  0  0  0  0  0  0  0  0
  153.8857  136.1652  162.1087 C   0  0  0  0  0  0  0  0  0  0  0  0
  153.8625  143.2586  162.0906 N   0  0  0  0  0  0  0  0  0  0  0  0
  154.4220  143.8451  163.2931 C   0  0  0  0  0  0  0  0  0  0  0  0
  153.0278  143.9917  161.3234 N   0  0  0  0  0  0  0  0  0  0  0  0
  151.7431  144.2666  157.1614 H   0  0  0  0  0  0  0  0  0  0  0  0
  152.8612  142.9603  157.5420 H   0  0  0  0  0  0  0  0  0  0  0  0
  153.2558  144.6190  157.9930 H   0  0  0  0  0  0  0  0  0  0  0  0
  151.3025  144.6433  159.5800 H   0  0  0  0  0  0  0  0  0  0  0  0
  150.9112  143.0033  159.1408 H   0  0  0  0  0  0  0  0  0  0  0  0
  153.1945  141.0766  159.7245 H   0  0  0  0  0  0  0  0  0  0  0  0
  155.5678  141.4280  162.7179 H   0  0  0  0  0  0  0  0  0  0  0  0
  156.3112  139.7154  163.3350 H   0  0  0  0  0  0  0  0  0  0  0  0
  156.4110  137.2346  162.1024 H   0  0  0  0  0  0  0  0  0  0  0  0
  157.4716  137.0561  164.2824 H   0  0  0  0  0  0  0  0  0  0  0  0
  156.1482  137.9666  165.0884 H   0  0  0  0  0  0  0  0  0  0  0  0
  154.3076  136.2598  166.0650 H   0  0  0  0  0  0  0  0  0  0  0  0
  155.6287  135.1340  166.1935 H   0  0  0  0  0  0  0  0  0  0  0  0
  154.1730  134.6796  165.3092 H   0  0  0  0  0  0  0  0  0  0  0  0
  155.9592  133.0509  162.8355 H   0  0  0  0  0  0  0  0  0  0  0  0
  154.4620  133.9420  162.6383 H   0  0  0  0  0  0  0  0  0  0  0  0
  154.9736  133.4078  164.2484 H   0  0  0  0  0  0  0  0  0  0  0  0
  152.6446  137.0536  164.3329 H   0  0  0  0  0  0  0  0  0  0  0  0
  152.9529  138.4093  163.2639 H   0  0  0  0  0  0  0  0  0  0  0  0
  153.7925  138.2967  164.7973 H   0  0  0  0  0  0  0  0  0  0  0  0
  153.1947  135.4030  162.4699 H   0  0  0  0  0  0  0  0  0  0  0  0
  154.6156  135.6656  161.4714 H   0  0  0  0  0  0  0  0  0  0  0  0
  153.3233  136.8427  161.4656 H   0  0  0  0  0  0  0  0  0  0  0  0
  154.8772  143.0779  163.9192 H   0  0  0  0  0  0  0  0  0  0  0  0
  153.6350  144.3391  163.8639 H   0  0  0  0  0  0  0  0  0  0  0  0
  155.1811  144.5796  163.0226 H   0  0  0  0  0  0  0  0  0  0  0  0
  1  2  1  0  0  0  0
  1 22  1  0  0  0  0
  1 23  1  0  0  0  0
  1 24  1  0  0  0  0
  2  3  1  0  0  0  0
  2 25  1  0  0  0  0
  2 26  1  0  0  0  0
  3 21  2  0  0  0  0
  3  4  1  0  0  0  0
  4  5  2  0  0  0  0
  4 27  1  0  0  0  0
  5  6  1  0  0  0  0
  5 19  1  0  0  0  0
  6  7  1  0  0  0  0
  6 28  1  0  0  0  0
  7  8  2  0  0  0  0
  7  9  1  0  0  0  0
  9 10  1  0  0  0  0
  9 29  1  0  0  0  0
 10 16  1  0  0  0  0
 10 11  1  0  0  0  0
 10 30  1  0  0  0  0
 11 12  1  0  0  0  0
 11 31  1  0  0  0  0
 11 32  1  0  0  0  0
 12 13  1  0  0  0  0
 12 14  1  0  0  0  0
 12 16  1  0  0  0  0
 13 33  1  0  0  0  0
 13 34  1  0  0  0  0
 13 35  1  0  0  0  0
 14 15  1  0  0  0  0
 15 36  1  0  0  0  0
 15 37  1  0  0  0  0
 15 38  1  0  0  0  0
 16 17  1  0  0  0  0
 16 18  1  0  0  0  0
 17 39  1  0  0  0  0
 17 40  1  0  0  0  0
 17 41  1  0  0  0  0
 18 42  1  0  0  0  0
 18 43  1  0  0  0  0
 18 44  1  0  0  0  0
 19 20  1  0  0  0  0
 19 21  1  0  0  0  0
 20 45  1  0  0  0  0
 20 46  1  0  0  0  0
 20 47  1  0  0  0  0
M  END
> <s_m_source_file>
AV-unprocessed.smi

> <i_m_source_file_index>
674

> <i_lp_mmshare_version>
43012

> <i_f3d_flags>
0

> <s_epik_input>
W0NIM11bQ0gyXWMxW2NIXWMobihuMSlbQ0gzXSlbTkhdQyg9TylbTkhdW0NAQEhdKEMyKFtDSDNdKVtDSDNdKVtDSDJdW0NAQF0yKFtDSDNdKU9bQ0gzXQ==

> <s_epik_cmdline>
J2VwaWtfcHl0aG9uJywgJy1waCcsICc3LjAnLCAnLXRuJywgJzgnLCAnLW1hJywgJzIwMCcsICctbWV0YWxfYmluZGluZycsICctaW1hZScsICc8aW5maWxlLm1hZT4nLCAnLW9tYWUnLCAnPG91dGZpbGUubWFlPic=

> <r_lp_tautomer_probability>
1

> <r_epik_Ionization_Penalty>
0.000101626

> <r_epik_Ionization_Penalty_Charging>
0

> <r_epik_Ionization_Penalty_Neutral>
0.000101626

> <r_epik_State_Penalty>
-0

> <r_epik_Charging_Adjusted_Penalty>
0

> <i_epik_Tot_Q>
0

> <i_epik_Tot_abs_Q>
0

> <r_epik_Metal_State_Penalty>
-0

> <b_epik_Metal_Only>
0

> <s_lp_Force_Field>
OPLS_2005

> <r_lp_Energy>
22.7899

> <b_lp_Chiralities_Consistent>
1

> <s_lp_Variant>
AV-unprocessed.smi:674-4

> <Gold.Version>
5.8.1

> <Gold.Id.Protein>
6NUR|6NUR_protein|mol2

> <Gold.PLP.Fitness>
40.8717

> <Gold.PLP.PLP>
-41.7897

> <Gold.PLP.part.hbond>
-0.9141

> <Gold.PLP.part.metal>
0.0000

> <Gold.PLP.part.buried>
-5.4502

> <Gold.PLP.part.nonpolar>
-35.0152

> <Gold.PLP.part.repulsive>
0.1394

> <Gold.PLP.ligand.clash>
0.0000

> <Gold.PLP.ligand.torsion>
0.6493

> <Gold.PLP.Chemscore.Hbond>
0.0000

> <Gold.PLP.Chemscore.CHOScore>
0.0000

> <Gold.PLP.Chemscore.Metal>
0.0000

> <Gold.PLP.Chemscore.Internal.Correction>
0.3806

> <Gold.Rescore>
     Score         DG    S(hbond)    S(metal)    S(lipo)     H(rot)  DE(clash)    DE(int)     intcor
     10.92     -13.35       0.00        0.00      97.16       1.37       0.00       2.43       ----

> <Gold.Chemscore.Fitness>
10.9172

> <Gold.Chemscore.DG>
-13.3517

> <Gold.Chemscore.ZeroCoef>
-5.4800

> <Gold.Chemscore.Hbond>
0.0000

> <Gold.Chemscore.Metal>
0.0000

> <Gold.Chemscore.Lipo>
97.1629

> <Gold.Chemscore.Internal_Hbond>
0.0000

> <Gold.Chemscore.DEClash>
0.0018

> <Gold.Chemscore.DEInternal>
2.4327

> <Gold.Chemscore.Rot>
1.3658

> <Gold.Chemscore.Internal.Correction>
   9.000000E+99

> <Gold.Chemscore.Hbond.Weighted>
-0.0000

> <Gold.Chemscore.Metal.Weighted>
-0.0000

> <Gold.Chemscore.Lipo.Weighted>
-11.3681

> <Gold.Chemscore.Internal_Hbond.Weighted>
0.0000

> <Gold.Chemscore.DEClash.Weighted>
0.0018

> <Gold.Chemscore.DEInternal.Weighted>
2.4327

> <Gold.Chemscore.Rot.Weighted>
3.4963

> <Gold.Chemscore.Internal.Correction.Weighted>
   9.000000E+99

> <Gold.Protein.RotatedTorsions>
[ 6907 6896 6895 6894 ] final   49.39 input  -60.11 | X-H torsion
[ 7974 7965 7964 7962 ] final -152.86 input  175.53 | X-H torsion
[ 8008 7997 7996 7995 ] final   83.53 input   59.86 | X-H torsion
[ 10167 10162 10161 10158 ] final   41.44 input  -65.29 | X-H torsion
[ 10718 10713 10712 10709 ] final   84.55 input   66.30 | X-H torsion
[ 10763 10752 10751 10750 ] final -159.37 input  -60.55 | X-H torsion
[ 11005 11000 10999 10996 ] final  141.73 input  -57.11 | X-H torsion

> <Gold.Protein.ActiveResidues>
 VAL166  LYS551  ARG553  GLY616  TRP617  ASP618  TYR619  PRO620  LYS621  CYS622 
 ASP623  PHE694  ASN695  SER759  ASP760  ASP761  ALA762  ILE779  LEU786  VAL792 
 PHE793  MET794  SER795  GLU796  ALA797  LYS798  CYS799  TRP800  GLU811  SER814 

> <Gold.Protein.RotatedAtoms>
  152.2902  134.7730  160.0379 H   0  0  0  0  0  0  0  0  0  0  0  0  # atno 6907 bound_to 6896
  151.8278  133.3399  159.3612 H   0  0  0  0  0  0  0  0  0  0  0  0  # atno 6908 bound_to 6896
  150.7227  134.5441  159.5806 H   0  0  0  0  0  0  0  0  0  0  0  0  # atno 6909 bound_to 6896
  144.7771  140.4605  143.5865 H   0  0  0  0  0  0  0  0  0  0  0  0  # atno 7974 bound_to 7965
  155.9251  140.3418  155.6204 H   0  0  0  0  0  0  0  0  0  0  0  0  # atno 8008 bound_to 7997
  155.7226  140.0785  157.2343 H   0  0  0  0  0  0  0  0  0  0  0  0  # atno 8009 bound_to 7997
  154.4076  140.1602  156.2406 H   0  0  0  0  0  0  0  0  0  0  0  0  # atno 8010 bound_to 7997
  140.3643  144.2188  150.6136 H   0  0  0  0  0  0  0  0  0  0  0  0  # atno 10167 bound_to 10162
  157.6900  131.0138  150.2690 H   0  0  0  0  0  0  0  0  0  0  0  0  # atno 10718 bound_to 10713
  154.7480  135.3085  154.8609 H   0  0  0  0  0  0  0  0  0  0  0  0  # atno 10763 bound_to 10752
  153.9405  135.6775  153.4748 H   0  0  0  0  0  0  0  0  0  0  0  0  # atno 10764 bound_to 10752
  153.1076  135.4881  154.8906 H   0  0  0  0  0  0  0  0  0  0  0  0  # atno 10765 bound_to 10752
  140.0424  134.9298  157.0867 H   0  0  0  0  0  0  0  0  0  0  0  0  # atno 11005 bound_to 11000
  145.6154  139.1518  143.3052 LP  0  0  0  0  0  0  0  0  0  0  0  0  # atno 17320 bound_to 7965
  146.1958  140.6267  142.9125 LP  0  0  0  0  0  0  0  0  0  0  0  0  # atno 17321 bound_to 7965
  140.5096  143.2294  151.8555 LP  0  0  0  0  0  0  0  0  0  0  0  0  # atno 17342 bound_to 10162
  139.4810  144.4965  151.9117 LP  0  0  0  0  0  0  0  0  0  0  0  0  # atno 17343 bound_to 10162
  156.3256  130.3792  149.7536 LP  0  0  0  0  0  0  0  0  0  0  0  0  # atno 17370 bound_to 10713
  156.5092  130.8164  151.3162 LP  0  0  0  0  0  0  0  0  0  0  0  0  # atno 17371 bound_to 10713
  140.4048  134.2044  155.7163 LP  0  0  0  0  0  0  0  0  0  0  0  0  # atno 17394 bound_to 11000
  141.1889  133.8249  157.0975 LP  0  0  0  0  0  0  0  0  0  0  0  0  # atno 17395 bound_to 11000

$$$$
