AV-unprocessed.smi:1837|AV-procd|sdf|7481|dock2
  -GOLD-   22720 9173D 1   1.00000     0.00000
 Structure written by MMmdl.
 45 48  0  0  0  0  0  0  0  0  3 V2000
  149.8432  142.5525  157.3996 O   0  0  0  0  0  0  0  0  0  0  0  0
  151.0608  142.4188  157.2727 C   0  0  0  0  0  0  0  0  0  0  0  0
  152.0182  143.5368  157.7091 C   0  0  0  0  0  0  0  0  0  0  0  0
  152.2277  143.5865  159.1659 N   0  0  0  0  0  0  0  0  0  0  0  0
  152.7820  142.4423  159.7734 C   0  0  0  0  0  0  0  0  0  0  0  0
  153.0113  142.3761  161.0996 C   0  0  0  0  0  0  0  0  0  0  0  0
  153.5751  141.1910  161.7079 N   0  3  0  0  0  0  0  0  0  0  0  0
  153.6997  140.1806  161.0232 O   0  0  0  0  0  0  0  0  0  0  0  0
  153.9106  141.2291  162.8879 O   0  5  0  0  0  0  0  0  0  0  0  0
  152.6689  143.5346  161.9017 C   0  0  0  0  0  0  0  0  0  0  0  0
  152.1341  144.6302  161.3274 C   0  0  0  0  0  0  0  0  0  0  0  0
  151.8809  144.6982  159.8846 C   0  0  0  0  0  0  0  0  0  0  0  0
  151.3874  145.6939  159.3548 O   0  0  0  0  0  0  0  0  0  0  0  0
  151.6451  141.3147  156.7759 N   0  0  0  0  0  0  0  0  0  0  0  0
  151.0059  140.0914  156.2798 C   0  0  0  0  0  0  0  0  0  0  0  0
  152.0575  139.0248  155.8683 C   0  0  0  0  0  0  0  0  0  0  0  0
  151.3453  137.7815  155.2920 C   0  0  1  0  0  0  0  0  0  0  0  0
  150.3988  137.1863  156.3572 C   0  0  0  0  0  0  0  0  0  0  0  0
  149.3387  138.2390  156.7483 C   0  0  2  0  0  0  0  0  0  0  0  0
  148.5237  138.6397  155.5010 C   0  0  0  0  0  0  0  0  0  0  0  0
  149.4758  139.2339  154.4424 C   0  0  2  0  0  0  0  0  0  0  0  0
  150.5315  138.1818  154.0439 C   0  0  0  0  0  0  0  0  0  0  0  0
  150.1812  140.4767  155.0252 C   0  0  0  0  0  0  0  0  0  0  0  0
  150.0391  139.4845  157.3338 C   0  0  0  0  0  0  0  0  0  0  0  0
  152.9666  143.3931  157.1897 H   0  0  0  0  0  0  0  0  0  0  0  0
  151.6418  144.4976  157.3521 H   0  0  0  0  0  0  0  0  0  0  0  0
  152.9943  141.6313  159.0919 H   0  0  0  0  0  0  0  0  0  0  0  0
  152.8370  143.5315  162.9687 H   0  0  0  0  0  0  0  0  0  0  0  0
  151.8853  145.4813  161.9445 H   0  0  0  0  0  0  0  0  0  0  0  0
  152.6537  141.3234  156.7291 H   0  0  0  0  0  0  0  0  0  0  0  0
  152.7463  139.4362  155.1293 H   0  0  0  0  0  0  0  0  0  0  0  0
  152.6675  138.7243  156.7202 H   0  0  0  0  0  0  0  0  0  0  0  0
  152.0904  137.0356  155.0135 H   0  0  0  0  0  0  0  0  0  0  0  0
  149.9144  136.2882  155.9714 H   0  0  0  0  0  0  0  0  0  0  0  0
  150.9660  136.8767  157.2358 H   0  0  0  0  0  0  0  0  0  0  0  0
  148.6682  137.8164  157.4972 H   0  0  0  0  0  0  0  0  0  0  0  0
  148.0007  137.7726  155.0954 H   0  0  0  0  0  0  0  0  0  0  0  0
  147.7550  139.3659  155.7685 H   0  0  0  0  0  0  0  0  0  0  0  0
  148.9021  139.5225  153.5612 H   0  0  0  0  0  0  0  0  0  0  0  0
  151.1924  138.5811  153.2738 H   0  0  0  0  0  0  0  0  0  0  0  0
  150.0471  137.3055  153.6114 H   0  0  0  0  0  0  0  0  0  0  0  0
  149.4394  141.2363  155.2774 H   0  0  0  0  0  0  0  0  0  0  0  0
  150.8281  140.9222  154.2678 H   0  0  0  0  0  0  0  0  0  0  0  0
  150.5737  139.1999  158.2401 H   0  0  0  0  0  0  0  0  0  0  0  0
  149.2953  140.2228  157.6366 H   0  0  0  0  0  0  0  0  0  0  0  0
  1  2  2  0  0  0  0
  2  3  1  0  0  0  0
  2 14  1  0  0  0  0
  3  4  1  0  0  0  0
  3 25  1  0  0  0  0
  3 26  1  0  0  0  0
  4 12  1  0  0  0  0
  4  5  1  0  0  0  0
  5  6  2  0  0  0  0
  5 27  1  0  0  0  0
  6  7  1  0  0  0  0
  6 10  1  0  0  0  0
  7  8  2  0  0  0  0
  7  9  1  0  0  0  0
 10 11  2  0  0  0  0
 10 28  1  0  0  0  0
 11 12  1  0  0  0  0
 11 29  1  0  0  0  0
 12 13  2  0  0  0  0
 14 15  1  0  0  0  0
 14 30  1  0  0  0  0
 15 23  1  0  0  0  0
 15 24  1  0  0  0  0
 15 16  1  0  0  0  0
 16 17  1  0  0  0  0
 16 31  1  0  0  0  0
 16 32  1  0  0  0  0
 17 22  1  0  0  0  0
 17 18  1  0  0  0  0
 17 33  1  0  0  0  0
 18 19  1  0  0  0  0
 18 34  1  0  0  0  0
 18 35  1  0  0  0  0
 19 20  1  0  0  0  0
 19 24  1  0  0  0  0
 19 36  1  0  0  0  0
 20 21  1  0  0  0  0
 20 37  1  0  0  0  0
 20 38  1  0  0  0  0
 21 22  1  0  0  0  0
 21 23  1  0  0  0  0
 21 39  1  0  0  0  0
 22 40  1  0  0  0  0
 22 41  1  0  0  0  0
 23 42  1  0  0  0  0
 23 43  1  0  0  0  0
 24 44  1  0  0  0  0
 24 45  1  0  0  0  0
M  CHG  1   7   1
M  CHG  1   9  -1
M  END
> <s_m_source_file>
AV-unprocessed.smi

> <i_m_source_file_index>
1837

> <i_lp_mmshare_version>
43012

> <i_f3d_flags>
0

> <s_epik_input>
Tz1jMVtjSF1bY0hdYyhbTitdKD1PKVtPLV0pW2NIXW4xW0NIMl1DKD1PKVtOSF1DMjNbQ0gyXVtDQEhdNFtDSDJdW0NAQEhdKFtDSDJdMylbQ0gyXVtDQEhdKFtDSDJdNClbQ0gyXTI=

> <s_epik_cmdline>
J2VwaWtfcHl0aG9uJywgJy1waCcsICc3LjAnLCAnLXRuJywgJzgnLCAnLW1hJywgJzIwMCcsICctbWV0YWxfYmluZGluZycsICctaW1hZScsICc8aW5maWxlLm1hZT4nLCAnLW9tYWUnLCAnPG91dGZpbGUubWFlPic=

> <r_lp_tautomer_probability>
1

> <r_epik_Ionization_Penalty>
2.34466e-08

> <r_epik_Ionization_Penalty_Charging>
8.88262e-11

> <r_epik_Ionization_Penalty_Neutral>
2.33578e-08

> <r_epik_State_Penalty>
-0

> <r_epik_Charging_Adjusted_Penalty>
8.88262e-11

> <i_epik_Tot_Q>
0

> <i_epik_Tot_abs_Q>
2

> <r_epik_Metal_State_Penalty>
-0

> <b_epik_Metal_Only>
0

> <s_lp_Force_Field>
OPLS_2005

> <r_lp_Energy>
41.9783

> <b_lp_Chiralities_Consistent>
1

> <s_lp_Variant>
AV-unprocessed.smi:1837-1

> <Gold.Version>
5.8.1

> <Gold.Id.Protein>
6NUR|6NUR_protein|mol2

> <Gold.PLP.Fitness>
49.1015

> <Gold.PLP.PLP>
-49.7066

> <Gold.PLP.part.hbond>
-2.0966

> <Gold.PLP.part.metal>
0.0000

> <Gold.PLP.part.buried>
-3.2273

> <Gold.PLP.part.nonpolar>
-45.0925

> <Gold.PLP.part.repulsive>
0.4764

> <Gold.PLP.ligand.clash>
0.0000

> <Gold.PLP.ligand.torsion>
0.3186

> <Gold.PLP.Chemscore.Hbond>
0.0000

> <Gold.PLP.Chemscore.CHOScore>
0.0000

> <Gold.PLP.Chemscore.Metal>
0.0000

> <Gold.PLP.Chemscore.Internal.Correction>
0.0321

> <Gold.Rescore>
     Score         DG    S(hbond)    S(metal)    S(lipo)     H(rot)  DE(clash)    DE(int)     intcor
     13.36     -15.04       0.00        0.00     115.26       1.53       1.20       0.48       ----

> <Gold.Chemscore.Fitness>
13.3573

> <Gold.Chemscore.DG>
-15.0405

> <Gold.Chemscore.ZeroCoef>
-5.4800

> <Gold.Chemscore.Hbond>
0.0000

> <Gold.Chemscore.Metal>
0.0000

> <Gold.Chemscore.Lipo>
115.2593

> <Gold.Chemscore.Internal_Hbond>
0.0000

> <Gold.Chemscore.DEClash>
1.1995

> <Gold.Chemscore.DEInternal>
0.4837

> <Gold.Chemscore.Rot>
1.5332

> <Gold.Chemscore.Internal.Correction>
   9.000000E+99

> <Gold.Chemscore.Hbond.Weighted>
-0.0000

> <Gold.Chemscore.Metal.Weighted>
-0.0000

> <Gold.Chemscore.Lipo.Weighted>
-13.4853

> <Gold.Chemscore.Internal_Hbond.Weighted>
0.0000

> <Gold.Chemscore.DEClash.Weighted>
1.1995

> <Gold.Chemscore.DEInternal.Weighted>
0.4837

> <Gold.Chemscore.Rot.Weighted>
3.9249

> <Gold.Chemscore.Internal.Correction.Weighted>
   9.000000E+99

> <Gold.Protein.RotatedTorsions>
[ 6907 6896 6895 6894 ] final  172.38 input  -60.11 | X-H torsion
[ 7974 7965 7964 7962 ] final   16.13 input  175.53 | X-H torsion
[ 8008 7997 7996 7995 ] final  -22.08 input   59.86 | X-H torsion
[ 10167 10162 10161 10158 ] final  108.83 input  -65.29 | X-H torsion
[ 10718 10713 10712 10709 ] final -165.57 input   66.30 | X-H torsion
[ 10763 10752 10751 10750 ] final  163.43 input  -60.55 | X-H torsion
[ 11005 11000 10999 10996 ] final   58.66 input  -57.11 | X-H torsion

> <Gold.Protein.ActiveResidues>
 VAL166  LYS551  ARG553  GLY616  TRP617  ASP618  TYR619  PRO620  LYS621  CYS622 
 ASP623  PHE694  ASN695  SER759  ASP760  ASP761  ALA762  ILE779  LEU786  VAL792 
 PHE793  MET794  SER795  GLU796  ALA797  LYS798  CYS799  TRP800  GLU811  SER814 

> <Gold.Protein.RotatedAtoms>
  151.7852  133.3353  159.3482 H   0  0  0  0  0  0  0  0  0  0  0  0  # atno 6907 bound_to 6896
  150.7412  134.5894  159.5989 H   0  0  0  0  0  0  0  0  0  0  0  0  # atno 6908 bound_to 6896
  152.3248  134.7336  160.0356 H   0  0  0  0  0  0  0  0  0  0  0  0  # atno 6909 bound_to 6896
  146.2258  139.8793  142.8573 H   0  0  0  0  0  0  0  0  0  0  0  0  # atno 7974 bound_to 7965
  154.4666  140.2017  156.0103 H   0  0  0  0  0  0  0  0  0  0  0  0  # atno 8008 bound_to 7997
  156.0937  140.3254  155.7820 H   0  0  0  0  0  0  0  0  0  0  0  0  # atno 8009 bound_to 7997
  155.4914  140.0546  157.2944 H   0  0  0  0  0  0  0  0  0  0  0  0  # atno 8010 bound_to 7997
  139.6815  144.7118  151.1507 H   0  0  0  0  0  0  0  0  0  0  0  0  # atno 10167 bound_to 10162
  156.6553  130.9024  151.3020 H   0  0  0  0  0  0  0  0  0  0  0  0  # atno 10718 bound_to 10713
  154.2937  135.2760  155.2643 H   0  0  0  0  0  0  0  0  0  0  0  0  # atno 10763 bound_to 10752
  154.5111  135.5782  153.6609 H   0  0  0  0  0  0  0  0  0  0  0  0  # atno 10764 bound_to 10752
  152.9910  135.6181  154.3103 H   0  0  0  0  0  0  0  0  0  0  0  0  # atno 10765 bound_to 10752
  140.0361  134.5941  155.9442 H   0  0  0  0  0  0  0  0  0  0  0  0  # atno 11005 bound_to 11000
  145.2529  141.0050  143.3871 LP  0  0  0  0  0  0  0  0  0  0  0  0  # atno 17320 bound_to 7965
  144.9360  139.4243  143.6472 LP  0  0  0  0  0  0  0  0  0  0  0  0  # atno 17321 bound_to 7965
  140.7654  143.5692  150.9014 LP  0  0  0  0  0  0  0  0  0  0  0  0  # atno 17342 bound_to 10162
  139.9364  143.6433  152.3064 LP  0  0  0  0  0  0  0  0  0  0  0  0  # atno 17343 bound_to 10162
  157.7127  130.9460  150.1147 LP  0  0  0  0  0  0  0  0  0  0  0  0  # atno 17370 bound_to 10713
  156.2052  130.3663  149.8738 LP  0  0  0  0  0  0  0  0  0  0  0  0  # atno 17371 bound_to 10713
  141.1858  133.6556  156.5213 LP  0  0  0  0  0  0  0  0  0  0  0  0  # atno 17394 bound_to 11000
  140.4145  134.7242  157.4855 LP  0  0  0  0  0  0  0  0  0  0  0  0  # atno 17395 bound_to 11000

$$$$
