AV-unprocessed.smi:1103|AV-procd|sdf|4774|dock2
  -GOLD-   22720 3313D 1   1.00000     0.00000
 Structure written by MMmdl.
 44 45  0  0  0  0  0  0  0  0  2 V2000
  146.4876  139.0591  152.9606 C   0  0  0  0  0  0  0  0  0  0  0  0
  146.7065  138.1177  154.1540 C   0  0  0  0  0  0  0  0  0  0  0  0
  148.1222  137.6932  154.3000 N   0  3  2  0  0  0  0  0  0  0  0  0
  148.2602  136.5175  155.1969 C   0  0  0  0  0  0  0  0  0  0  0  0
  149.7089  136.0086  155.2205 C   0  0  0  0  0  0  0  0  0  0  0  0
  150.6724  137.1244  155.6420 C   0  0  0  0  0  0  0  0  0  0  0  0
  150.5099  138.3518  154.7285 C   0  0  2  0  0  0  0  0  0  0  0  0
  151.4774  139.4776  155.1543 C   0  0  0  0  0  0  0  0  0  0  0  0
  151.3452  139.8069  156.5701 N   0  0  0  0  0  0  0  0  0  0  0  0
  152.2928  139.6254  157.5031 C   0  0  0  0  0  0  0  0  0  0  0  0
  153.4270  139.2184  157.2527 O   0  0  0  0  0  0  0  0  0  0  0  0
  151.8809  139.8976  158.9488 C   0  0  0  0  0  0  0  0  0  0  0  0
  152.2360  141.2538  159.3250 N   0  0  0  0  0  0  0  0  0  0  0  0
  151.8782  142.4340  158.7085 C   0  0  0  0  0  0  0  0  0  0  0  0
  152.4682  143.4540  159.3996 C   0  0  0  0  0  0  0  0  0  0  0  0
  152.4021  144.9289  159.1292 C   0  0  0  0  0  0  0  0  0  0  0  0
  153.1731  142.7852  160.4402 C   0  0  0  0  0  0  0  0  0  0  0  0
  153.0382  141.4703  160.3898 N   0  0  0  0  0  0  0  0  0  0  0  0
  149.0292  138.8004  154.7060 C   0  0  0  0  0  0  0  0  0  0  0  0
  145.4251  139.2592  152.8208 H   0  0  0  0  0  0  0  0  0  0  0  0
  146.8651  138.6225  152.0356 H   0  0  0  0  0  0  0  0  0  0  0  0
  146.9765  140.0212  153.1048 H   0  0  0  0  0  0  0  0  0  0  0  0
  146.3577  138.5813  155.0776 H   0  0  0  0  0  0  0  0  0  0  0  0
  146.0840  137.2355  153.9976 H   0  0  0  0  0  0  0  0  0  0  0  0
  147.9374  136.7867  156.2041 H   0  0  0  0  0  0  0  0  0  0  0  0
  147.6057  135.7136  154.8578 H   0  0  0  0  0  0  0  0  0  0  0  0
  149.7959  135.1641  155.9050 H   0  0  0  0  0  0  0  0  0  0  0  0
  149.9845  135.6367  154.2327 H   0  0  0  0  0  0  0  0  0  0  0  0
  150.4777  137.4033  156.6787 H   0  0  0  0  0  0  0  0  0  0  0  0
  151.6991  136.7581  155.6055 H   0  0  0  0  0  0  0  0  0  0  0  0
  150.7813  138.0502  153.7152 H   0  0  0  0  0  0  0  0  0  0  0  0
  152.5059  139.2089  154.9072 H   0  0  0  0  0  0  0  0  0  0  0  0
  151.2582  140.3831  154.5877 H   0  0  0  0  0  0  0  0  0  0  0  0
  150.4448  140.1481  156.8757 H   0  0  0  0  0  0  0  0  0  0  0  0
  150.8033  139.7705  159.0602 H   0  0  0  0  0  0  0  0  0  0  0  0
  152.3619  139.1911  159.6274 H   0  0  0  0  0  0  0  0  0  0  0  0
  151.2452  142.4486  157.8334 H   0  0  0  0  0  0  0  0  0  0  0  0
  153.0468  145.4939  159.8026 H   0  0  0  0  0  0  0  0  0  0  0  0
  151.3901  145.3151  159.2522 H   0  0  0  0  0  0  0  0  0  0  0  0
  152.7161  145.1642  158.1120 H   0  0  0  0  0  0  0  0  0  0  0  0
  153.7814  143.2142  161.2227 H   0  0  0  0  0  0  0  0  0  0  0  0
  148.9149  139.6252  154.0050 H   0  0  0  0  0  0  0  0  0  0  0  0
  148.7336  139.1758  155.6872 H   0  0  0  0  0  0  0  0  0  0  0  0
  148.4243  137.3869  153.3862 H   0  0  0  0  0  0  0  0  0  0  0  0
  1  2  1  0  0  0  0
  1 20  1  0  0  0  0
  1 21  1  0  0  0  0
  1 22  1  0  0  0  0
  2  3  1  0  0  0  0
  2 23  1  0  0  0  0
  2 24  1  0  0  0  0
  3 19  1  0  0  0  0
  3  4  1  0  0  0  0
  3 44  1  0  0  0  0
  4  5  1  0  0  0  0
  4 25  1  0  0  0  0
  4 26  1  0  0  0  0
  5  6  1  0  0  0  0
  5 27  1  0  0  0  0
  5 28  1  0  0  0  0
  6  7  1  0  0  0  0
  6 29  1  0  0  0  0
  6 30  1  0  0  0  0
  7  8  1  0  0  0  0
  7 19  1  0  0  0  0
  7 31  1  0  0  0  0
  8  9  1  0  0  0  0
  8 32  1  0  0  0  0
  8 33  1  0  0  0  0
  9 10  1  0  0  0  0
  9 34  1  0  0  0  0
 10 11  2  0  0  0  0
 10 12  1  0  0  0  0
 12 13  1  0  0  0  0
 12 35  1  0  0  0  0
 12 36  1  0  0  0  0
 13 18  1  0  0  0  0
 13 14  1  0  0  0  0
 14 15  2  0  0  0  0
 14 37  1  0  0  0  0
 15 16  1  0  0  0  0
 15 17  1  0  0  0  0
 16 38  1  0  0  0  0
 16 39  1  0  0  0  0
 16 40  1  0  0  0  0
 17 18  2  0  0  0  0
 17 41  1  0  0  0  0
 19 42  1  0  0  0  0
 19 43  1  0  0  0  0
M  CHG  1   3   1
M  END
> <s_m_source_file>
AV-unprocessed.smi

> <i_m_source_file_index>
1103

> <i_lp_mmshare_version>
43012

> <i_f3d_flags>
0

> <s_epik_input>
W0NIM11bQ0gyXU4xW0NIMl1bQ0gyXVtDSDJdW0NASF0oW0NIMl0xKVtDSDJdW05IXUMoPU8pW0NIMl1uMltjSF1jKFtDSDNdKVtjSF1uMg==

> <s_epik_cmdline>
J2VwaWtfcHl0aG9uJywgJy1waCcsICc3LjAnLCAnLXRuJywgJzgnLCAnLW1hJywgJzIwMCcsICctbWV0YWxfYmluZGluZycsICctaW1hZScsICc8aW5maWxlLm1hZT4nLCAnLW9tYWUnLCAnPG91dGZpbGUubWFlPic=

> <r_lp_tautomer_probability>
1

> <r_epik_Ionization_Penalty>
0.000672456

> <r_epik_Ionization_Penalty_Charging>
0.000647327

> <r_epik_Ionization_Penalty_Neutral>
2.51297e-05

> <r_epik_State_Penalty>
0.000409793

> <r_epik_Charging_Adjusted_Penalty>
0.00105712

> <i_epik_Tot_Q>
1

> <i_epik_Tot_abs_Q>
1

> <r_epik_Metal_State_Penalty>
-0

> <b_epik_Metal_Only>
0

> <s_lp_Force_Field>
OPLS_2005

> <r_lp_Energy>
16.1771

> <b_lp_Chiralities_Consistent>
1

> <s_lp_Variant>
AV-unprocessed.smi:1103-4

> <Gold.Version>
5.8.1

> <Gold.Id.Protein>
6NUR|6NUR_protein|mol2

> <Gold.PLP.Fitness>
45.4481

> <Gold.PLP.PLP>
-37.4253

> <Gold.PLP.part.hbond>
-2.0000

> <Gold.PLP.part.metal>
0.0000

> <Gold.PLP.part.buried>
-4.1016

> <Gold.PLP.part.nonpolar>
-31.6856

> <Gold.PLP.part.repulsive>
0.0981

> <Gold.PLP.ligand.clash>
0.0000

> <Gold.PLP.ligand.torsion>
0.5048

> <Gold.PLP.Chemscore.Hbond>
3.0000

> <Gold.PLP.Chemscore.CHOScore>
0.0000

> <Gold.PLP.Chemscore.Metal>
0.0000

> <Gold.Chemscore.Hbonds>
donor molecule, donor type, donor heavy atom, donor atom, acceptor molecule, acceptor atom, score
      L1  H     3    44       P1  7948  2.00
      P1  H  7997  8008       L1    11  0.83

> <Gold.PLP.Chemscore.Internal.Correction>
0.0324

> <Gold.Rescore>
     Score         DG    S(hbond)    S(metal)    S(lipo)     H(rot)  DE(clash)    DE(int)     intcor
     18.22     -18.74       1.97        0.00      93.97       1.68       0.07       0.45       ----

> <Gold.Chemscore.Fitness>
18.2178

> <Gold.Chemscore.DG>
-18.7379

> <Gold.Chemscore.ZeroCoef>
-5.4800

> <Gold.Chemscore.Hbond>
1.9671

> <Gold.Chemscore.Metal>
0.0000

> <Gold.Chemscore.Lipo>
93.9690

> <Gold.Chemscore.Internal_Hbond>
0.0000

> <Gold.Chemscore.DEClash>
0.0659

> <Gold.Chemscore.DEInternal>
0.4542

> <Gold.Chemscore.Rot>
1.6823

> <Gold.Chemscore.Internal.Correction>
   9.000000E+99

> <Gold.Chemscore.Hbonds>
donor molecule, donor type, donor heavy atom, donor atom, acceptor molecule, acceptor atom, score
      L1  H     3    44       P1  7948  0.98
      P1  H  7997  8008       L1    11  0.77

> <Gold.Chemscore.Hbond.Weighted>
-6.5701

> <Gold.Chemscore.Metal.Weighted>
-0.0000

> <Gold.Chemscore.Lipo.Weighted>
-10.9944

> <Gold.Chemscore.Internal_Hbond.Weighted>
0.0000

> <Gold.Chemscore.DEClash.Weighted>
0.0659

> <Gold.Chemscore.DEInternal.Weighted>
0.4542

> <Gold.Chemscore.Rot.Weighted>
4.3066

> <Gold.Chemscore.Internal.Correction.Weighted>
   9.000000E+99

> <Gold.Protein.RotatedTorsions>
[ 6907 6896 6895 6894 ] final  163.90 input  -60.11 | X-H torsion
[ 7974 7965 7964 7962 ] final  -40.89 input  175.53 | X-H torsion
[ 8008 7997 7996 7995 ] final  -91.45 input   59.86 | X-H torsion
[ 10167 10162 10161 10158 ] final -146.32 input  -65.29 | X-H torsion
[ 10718 10713 10712 10709 ] final -164.77 input   66.30 | X-H torsion
[ 10763 10752 10751 10750 ] final  -42.70 input  -60.55 | X-H torsion
[ 11005 11000 10999 10996 ] final  -30.46 input  -57.11 | X-H torsion

> <Gold.Protein.ActiveResidues>
 VAL166  LYS551  ARG553  GLY616  TRP617  ASP618  TYR619  PRO620  LYS621  CYS622 
 ASP623  PHE694  ASN695  SER759  ASP760  ASP761  ALA762  ILE779  LEU786  VAL792 
 PHE793  MET794  SER795  GLU796  ALA797  LYS798  CYS799  TRP800  GLU811  SER814 

> <Gold.Protein.RotatedAtoms>
  151.9180  133.3578  159.3886 H   0  0  0  0  0  0  0  0  0  0  0  0  # atno 6907 bound_to 6896
  150.7043  134.4664  159.5414 H   0  0  0  0  0  0  0  0  0  0  0  0  # atno 6908 bound_to 6896
  152.2282  134.8348  160.0528 H   0  0  0  0  0  0  0  0  0  0  0  0  # atno 6909 bound_to 6896
  146.0262  140.6789  142.9154 H   0  0  0  0  0  0  0  0  0  0  0  0  # atno 7974 bound_to 7965
  154.7109  140.0519  157.0549 H   0  0  0  0  0  0  0  0  0  0  0  0  # atno 8008 bound_to 7997
  155.0556  140.3184  155.4658 H   0  0  0  0  0  0  0  0  0  0  0  0  # atno 8009 bound_to 7997
  156.2789  140.2108  156.5682 H   0  0  0  0  0  0  0  0  0  0  0  0  # atno 8010 bound_to 7997
  139.7724  143.8219  152.2626 H   0  0  0  0  0  0  0  0  0  0  0  0  # atno 10167 bound_to 10162
  156.6438  130.8979  151.3001 H   0  0  0  0  0  0  0  0  0  0  0  0  # atno 10718 bound_to 10713
  153.9833  135.6714  153.4751 H   0  0  0  0  0  0  0  0  0  0  0  0  # atno 10763 bound_to 10752
  153.0738  135.4960  154.8358 H   0  0  0  0  0  0  0  0  0  0  0  0  # atno 10764 bound_to 10752
  154.7152  135.3105  154.9097 H   0  0  0  0  0  0  0  0  0  0  0  0  # atno 10765 bound_to 10752
  140.9384  133.7294  156.1040 H   0  0  0  0  0  0  0  0  0  0  0  0  # atno 11005 bound_to 11000
  144.7010  140.3654  143.7156 LP  0  0  0  0  0  0  0  0  0  0  0  0  # atno 17320 bound_to 7965
  145.7114  139.1686  143.2536 LP  0  0  0  0  0  0  0  0  0  0  0  0  # atno 17321 bound_to 7965
  139.8257  144.7276  150.9515 LP  0  0  0  0  0  0  0  0  0  0  0  0  # atno 17342 bound_to 10162
  140.7814  143.4117  151.0982 LP  0  0  0  0  0  0  0  0  0  0  0  0  # atno 17343 bound_to 10162
  157.7163  130.9501  150.1266 LP  0  0  0  0  0  0  0  0  0  0  0  0  # atno 17370 bound_to 10713
  156.2138  130.3668  149.8638 LP  0  0  0  0  0  0  0  0  0  0  0  0  # atno 17371 bound_to 10713
  140.7767  134.3771  157.5496 LP  0  0  0  0  0  0  0  0  0  0  0  0  # atno 17394 bound_to 11000
  139.8814  134.9056  156.2904 LP  0  0  0  0  0  0  0  0  0  0  0  0  # atno 17395 bound_to 11000

$$$$
