AV-unprocessed.smi:1990|AV-procd|sdf|8063|dock1
  -GOLD-   2272010263D 1   1.00000     0.00000
 Structure written by MMmdl.
 46 47  0  0  0  0  0  0  0  0  1 V2000
  155.5820  141.0324  159.9367 C   0  0  0  0  0  0  0  0  0  0  0  0
  154.2439  141.0003  160.6970 C   0  0  2  0  0  0  0  0  0  0  0  0
  153.3257  139.8363  160.2746 C   0  0  0  0  0  0  0  0  0  0  0  0
  152.7060  140.0996  158.9786 N   0  0  0  0  0  0  0  0  0  0  0  0
  152.0873  138.9930  158.3571 C   0  0  0  0  0  0  0  0  0  0  0  0
  152.6422  138.4343  157.1819 C   0  0  0  0  0  0  0  0  0  0  0  0
  152.0102  137.3314  156.5762 C   0  0  0  0  0  0  0  0  0  0  0  0
  150.8268  136.8160  157.1551 C   0  0  0  0  0  0  0  0  0  0  0  0
  150.1006  135.7004  156.6563 N   0  0  0  0  0  0  0  0  0  0  0  0
  150.2250  135.0648  155.4758 C   0  0  0  0  0  0  0  0  0  0  0  0
  150.9956  135.4042  154.5785 O   0  0  0  0  0  0  0  0  0  0  0  0
  149.2982  133.8582  155.2703 C   0  0  1  0  0  0  0  0  0  0  0  0
  149.4483  133.2502  153.8657 C   0  0  0  0  0  0  0  0  0  0  0  0
  149.6429  132.5676  156.5565 S   0  0  0  0  0  0  0  0  0  0  0  0
  151.3783  132.0669  156.1926 C   0  0  0  0  0  0  0  0  0  0  0  0
  149.6211  133.2218  157.8736 O   0  0  0  0  0  0  0  0  0  0  0  0
  148.7735  131.4060  156.3145 O   0  0  0  0  0  0  0  0  0  0  0  0
  150.3550  137.4345  158.3299 C   0  0  0  0  0  0  0  0  0  0  0  0
  150.9576  138.4911  158.9133 N   0  0  0  0  0  0  0  0  0  0  0  0
  152.0264  141.3908  158.9184 C   0  0  0  0  0  0  0  0  0  0  0  0
  152.9862  142.5232  159.3245 C   0  0  1  0  0  0  0  0  0  0  0  0
  152.2718  143.8765  159.4026 C   0  0  0  0  0  0  0  0  0  0  0  0
  153.5421  142.2424  160.6084 O   0  0  0  0  0  0  0  0  0  0  0  0
  156.1575  140.1271  160.1309 H   0  0  0  0  0  0  0  0  0  0  0  0
  156.1885  141.8815  160.2522 H   0  0  0  0  0  0  0  0  0  0  0  0
  155.4443  141.1009  158.8579 H   0  0  0  0  0  0  0  0  0  0  0  0
  154.4856  140.8641  161.7514 H   0  0  0  0  0  0  0  0  0  0  0  0
  153.8962  138.9086  160.2775 H   0  0  0  0  0  0  0  0  0  0  0  0
  152.5303  139.7138  161.0110 H   0  0  0  0  0  0  0  0  0  0  0  0
  153.5348  138.8426  156.7321 H   0  0  0  0  0  0  0  0  0  0  0  0
  152.4540  136.9049  155.6908 H   0  0  0  0  0  0  0  0  0  0  0  0
  149.3686  135.3610  157.2632 H   0  0  0  0  0  0  0  0  0  0  0  0
  148.2622  134.1731  155.4013 H   0  0  0  0  0  0  0  0  0  0  0  0
  149.2835  133.9983  153.0895 H   0  0  0  0  0  0  0  0  0  0  0  0
  148.7234  132.4511  153.7097 H   0  0  0  0  0  0  0  0  0  0  0  0
  150.4415  132.8246  153.7165 H   0  0  0  0  0  0  0  0  0  0  0  0
  151.7235  131.3815  156.9662 H   0  0  0  0  0  0  0  0  0  0  0  0
  152.0192  132.9479  156.1802 H   0  0  0  0  0  0  0  0  0  0  0  0
  151.4262  131.5640  155.2272 H   0  0  0  0  0  0  0  0  0  0  0  0
  149.4622  137.0725  158.8193 H   0  0  0  0  0  0  0  0  0  0  0  0
  151.6582  141.5777  157.9088 H   0  0  0  0  0  0  0  0  0  0  0  0
  151.1614  141.3714  159.5830 H   0  0  0  0  0  0  0  0  0  0  0  0
  153.7855  142.6069  158.5877 H   0  0  0  0  0  0  0  0  0  0  0  0
  151.8327  144.1442  158.4414 H   0  0  0  0  0  0  0  0  0  0  0  0
  152.9669  144.6683  159.6826 H   0  0  0  0  0  0  0  0  0  0  0  0
  151.4716  143.8582  160.1432 H   0  0  0  0  0  0  0  0  0  0  0  0
  1  2  1  0  0  0  0
  1 24  1  0  0  0  0
  1 25  1  0  0  0  0
  1 26  1  0  0  0  0
  2 23  1  0  0  0  0
  2  3  1  0  0  0  0
  2 27  1  0  0  0  0
  3  4  1  0  0  0  0
  3 28  1  0  0  0  0
  3 29  1  0  0  0  0
  4  5  1  0  0  0  0
  4 20  1  0  0  0  0
  5 19  1  0  0  0  0
  5  6  2  0  0  0  0
  6  7  1  0  0  0  0
  6 30  1  0  0  0  0
  7  8  2  0  0  0  0
  7 31  1  0  0  0  0
  8  9  1  0  0  0  0
  8 18  1  0  0  0  0
  9 10  1  0  0  0  0
  9 32  1  0  0  0  0
 10 11  2  0  0  0  0
 10 12  1  0  0  0  0
 12 13  1  0  0  0  0
 12 14  1  0  0  0  0
 12 33  1  0  0  0  0
 13 34  1  0  0  0  0
 13 35  1  0  0  0  0
 13 36  1  0  0  0  0
 14 15  1  0  0  0  0
 14 16  2  0  0  0  0
 14 17  2  0  0  0  0
 15 37  1  0  0  0  0
 15 38  1  0  0  0  0
 15 39  1  0  0  0  0
 18 19  2  0  0  0  0
 18 40  1  0  0  0  0
 20 21  1  0  0  0  0
 20 41  1  0  0  0  0
 20 42  1  0  0  0  0
 21 22  1  0  0  0  0
 21 23  1  0  0  0  0
 21 43  1  0  0  0  0
 22 44  1  0  0  0  0
 22 45  1  0  0  0  0
 22 46  1  0  0  0  0
M  END
> <s_m_source_file>
AV-unprocessed.smi

> <i_m_source_file_index>
1990

> <i_lp_mmshare_version>
43012

> <i_f3d_flags>
0

> <s_epik_input>
W0NIM11bQ0BASF0xW0NIMl1OKFtDSDJdW0NASF0oTzEpW0NIM10pYzJbY0hdW2NIXWMoW2NIXW4yKVtOSF1DKD1PKVtDQEhdKFtDSDNdKVMoPU8pKD1PKVtDSDNd

> <s_epik_cmdline>
J2VwaWtfcHl0aG9uJywgJy1waCcsICc3LjAnLCAnLXRuJywgJzgnLCAnLW1hJywgJzIwMCcsICctbWV0YWxfYmluZGluZycsICctaW1hZScsICc8aW5maWxlLm1hZT4nLCAnLW9tYWUnLCAnPG91dGZpbGUubWFlPic=

> <r_lp_tautomer_probability>
1

> <r_epik_Ionization_Penalty>
0.000334888

> <r_epik_Ionization_Penalty_Charging>
0

> <r_epik_Ionization_Penalty_Neutral>
0.000334888

> <r_epik_State_Penalty>
0.000200905

> <r_epik_Charging_Adjusted_Penalty>
0.000200905

> <i_epik_Tot_Q>
0

> <i_epik_Tot_abs_Q>
0

> <r_epik_Metal_State_Penalty>
-0

> <b_epik_Metal_Only>
0

> <s_lp_Force_Field>
OPLS_2005

> <r_lp_Energy>
21.5475

> <b_lp_Chiralities_Consistent>
1

> <s_lp_Variant>
AV-unprocessed.smi:1990-3

> <Gold.Version>
5.8.1

> <Gold.Id.Protein>
6NUR|6NUR_protein|mol2

> <Gold.PLP.Fitness>
38.1103

> <Gold.PLP.PLP>
-32.1991

> <Gold.PLP.part.hbond>
-2.0000

> <Gold.PLP.part.metal>
0.0000

> <Gold.PLP.part.buried>
-4.1497

> <Gold.PLP.part.nonpolar>
-25.9820

> <Gold.PLP.part.repulsive>
0.6086

> <Gold.PLP.ligand.clash>
0.0000

> <Gold.PLP.ligand.torsion>
0.2883

> <Gold.PLP.Chemscore.Hbond>
2.0000

> <Gold.PLP.Chemscore.CHOScore>
0.0000

> <Gold.PLP.Chemscore.Metal>
0.0000

> <Gold.Chemscore.Hbonds>
donor molecule, donor type, donor heavy atom, donor atom, acceptor molecule, acceptor atom, score
      P1  H  6896  6908       L1    16  1.00
      P1  H 10752 10765       L1    11  0.99

> <Gold.PLP.Chemscore.Internal.Correction>
0.4879

> <Gold.Rescore>
     Score         DG    S(hbond)    S(metal)    S(lipo)     H(rot)  DE(clash)    DE(int)     intcor
     15.89     -18.75       1.93        0.00      91.47       1.52       0.04       2.82       ----

> <Gold.Chemscore.Fitness>
15.8941

> <Gold.Chemscore.DG>
-18.7500

> <Gold.Chemscore.ZeroCoef>
-5.4800

> <Gold.Chemscore.Hbond>
1.9321

> <Gold.Chemscore.Metal>
0.0000

> <Gold.Chemscore.Lipo>
91.4693

> <Gold.Chemscore.Internal_Hbond>
0.0000

> <Gold.Chemscore.DEClash>
0.0399

> <Gold.Chemscore.DEInternal>
2.8160

> <Gold.Chemscore.Rot>
1.5177

> <Gold.Chemscore.Internal.Correction>
   9.000000E+99

> <Gold.Chemscore.Hbonds>
donor molecule, donor type, donor heavy atom, donor atom, acceptor molecule, acceptor atom, score
      P1  H  6896  6908       L1    16  0.96
      P1  H 10752 10765       L1    11  0.93

> <Gold.Chemscore.Hbond.Weighted>
-6.4533

> <Gold.Chemscore.Metal.Weighted>
-0.0000

> <Gold.Chemscore.Lipo.Weighted>
-10.7019

> <Gold.Chemscore.Internal_Hbond.Weighted>
0.0000

> <Gold.Chemscore.DEClash.Weighted>
0.0399

> <Gold.Chemscore.DEInternal.Weighted>
2.8160

> <Gold.Chemscore.Rot.Weighted>
3.8853

> <Gold.Chemscore.Internal.Correction.Weighted>
   9.000000E+99

> <Gold.Protein.RotatedTorsions>
[ 6907 6896 6895 6894 ] final   98.49 input  -60.11 | X-H torsion
[ 7974 7965 7964 7962 ] final  109.36 input  175.53 | X-H torsion
[ 8008 7997 7996 7995 ] final    4.55 input   59.86 | X-H torsion
[ 10167 10162 10161 10158 ] final -118.19 input  -65.29 | X-H torsion
[ 10718 10713 10712 10709 ] final -165.75 input   66.30 | X-H torsion
[ 10763 10752 10751 10750 ] final  171.42 input  -60.55 | X-H torsion
[ 11005 11000 10999 10996 ] final  155.39 input  -57.11 | X-H torsion

> <Gold.Protein.ActiveResidues>
 VAL166  LYS551  ARG553  GLY616  TRP617  ASP618  TYR619  PRO620  LYS621  CYS622 
 ASP623  PHE694  ASN695  SER759  ASP760  ASP761  ALA762  ILE779  LEU786  VAL792 
 PHE793  MET794  SER795  GLU796  ALA797  LYS798  CYS799  TRP800  GLU811  SER814 

> <Gold.Protein.RotatedAtoms>
  152.5408  134.0572  159.8135 H   0  0  0  0  0  0  0  0  0  0  0  0  # atno 6907 bound_to 6896
  151.0705  133.5462  159.2634 H   0  0  0  0  0  0  0  0  0  0  0  0  # atno 6908 bound_to 6896
  151.2327  135.0568  159.9048 H   0  0  0  0  0  0  0  0  0  0  0  0  # atno 6909 bound_to 6896
  145.2688  139.2674  143.3977 H   0  0  0  0  0  0  0  0  0  0  0  0  # atno 7974 bound_to 7965
  154.7173  140.2704  155.6573 H   0  0  0  0  0  0  0  0  0  0  0  0  # atno 8008 bound_to 7997
  156.2813  140.2741  156.1758 H   0  0  0  0  0  0  0  0  0  0  0  0  # atno 8009 bound_to 7997
  155.0554  140.0371  157.2548 H   0  0  0  0  0  0  0  0  0  0  0  0  # atno 8010 bound_to 7997
  140.0601  143.4976  152.2036 H   0  0  0  0  0  0  0  0  0  0  0  0  # atno 10167 bound_to 10162
  156.6579  130.9034  151.3024 H   0  0  0  0  0  0  0  0  0  0  0  0  # atno 10718 bound_to 10713
  154.4116  135.2756  155.2033 H   0  0  0  0  0  0  0  0  0  0  0  0  # atno 10763 bound_to 10752
  154.4017  135.6043  153.5904 H   0  0  0  0  0  0  0  0  0  0  0  0  # atno 10764 bound_to 10752
  152.9831  135.5928  154.4398 H   0  0  0  0  0  0  0  0  0  0  0  0  # atno 10765 bound_to 10752
  140.1577  134.8631  157.2535 H   0  0  0  0  0  0  0  0  0  0  0  0  # atno 11005 bound_to 11000
  146.3253  140.3125  142.8628 LP  0  0  0  0  0  0  0  0  0  0  0  0  # atno 17320 bound_to 7965
  144.9353  140.8020  143.5664 LP  0  0  0  0  0  0  0  0  0  0  0  0  # atno 17321 bound_to 7965
  139.5899  144.7546  151.3427 LP  0  0  0  0  0  0  0  0  0  0  0  0  # atno 17342 bound_to 10162
  140.7176  143.7225  150.7685 LP  0  0  0  0  0  0  0  0  0  0  0  0  # atno 17343 bound_to 10162
  157.7119  130.9451  150.1120 LP  0  0  0  0  0  0  0  0  0  0  0  0  # atno 17370 bound_to 10713
  156.2034  130.3661  149.8760 LP  0  0  0  0  0  0  0  0  0  0  0  0  # atno 17371 bound_to 10713
  140.2527  134.3664  155.7436 LP  0  0  0  0  0  0  0  0  0  0  0  0  # atno 17394 bound_to 11000
  141.2206  133.7326  156.8960 LP  0  0  0  0  0  0  0  0  0  0  0  0  # atno 17395 bound_to 11000

$$$$
