AV-unprocessed.smi:1389|AV-procd|sdf|5650|dock7
  -GOLD-   22720 5273D 1   1.00000     0.00000
 Structure written by MMmdl.
 52 54  0  0  0  0  0  0  0  0  2 V2000
  152.2007  145.7948  160.0533 C   0  0  0  0  0  0  0  0  0  0  0  0
  151.1352  144.8800  159.4063 C   0  0  2  0  0  0  0  0  0  0  0  0
  149.9853  144.6821  160.4292 C   0  0  0  0  0  0  0  0  0  0  0  0
  148.6820  144.9783  159.8383 N   0  0  0  0  0  0  0  0  0  0  0  0
  147.4929  144.7593  160.4160 C   0  0  0  0  0  0  0  0  0  0  0  0
  147.3458  144.1775  161.4907 O   0  0  0  0  0  0  0  0  0  0  0  0
  146.4975  145.2845  159.6844 N   0  0  0  0  0  0  0  0  0  0  0  0
  145.1198  145.3615  160.0301 C   0  0  0  0  0  0  0  0  0  0  0  0
  144.6247  144.8193  161.2428 C   0  0  0  0  0  0  0  0  0  0  0  0
  143.2522  144.9160  161.5425 C   0  0  0  0  0  0  0  0  0  0  0  0
  142.3954  145.5445  160.6211 C   0  0  0  0  0  0  0  0  0  0  0  0
  142.8963  146.0359  159.4684 N   0  3  0  0  0  0  0  0  0  0  0  0
  144.2074  145.9733  159.1281 C   0  0  0  0  0  0  0  0  0  0  0  0
  144.6180  146.5033  157.8868 N   0  0  0  0  0  0  0  0  0  0  0  0
  144.0008  145.8657  156.7274 C   0  0  0  0  0  0  0  0  0  0  0  0
  143.8179  146.9637  155.6783 C   0  0  0  0  0  0  0  0  0  0  0  0
  143.6854  148.2262  156.5208 C   0  0  0  0  0  0  0  0  0  0  0  0
  144.6367  147.9512  157.6839 C   0  0  0  0  0  0  0  0  0  0  0  0
  151.6832  143.6142  158.8719 N   0  0  0  0  0  0  0  0  0  0  0  0
  150.6657  142.7734  158.2347 C   0  0  0  0  0  0  0  0  0  0  0  0
  151.2474  141.4571  157.6892 C   0  0  0  0  0  0  0  0  0  0  0  0
  151.8934  140.7448  158.7363 O   0  0  0  0  0  0  0  0  0  0  0  0
  152.9298  141.5037  159.3456 C   0  0  0  0  0  0  0  0  0  0  0  0
  152.3472  142.8124  159.9044 C   0  0  0  0  0  0  0  0  0  0  0  0
  151.7409  146.6576  160.5363 H   0  0  0  0  0  0  0  0  0  0  0  0
  152.8946  146.1962  159.3153 H   0  0  0  0  0  0  0  0  0  0  0  0
  152.7820  145.2645  160.8084 H   0  0  0  0  0  0  0  0  0  0  0  0
  150.7143  145.4409  158.5706 H   0  0  0  0  0  0  0  0  0  0  0  0
  149.9649  143.6419  160.7559 H   0  0  0  0  0  0  0  0  0  0  0  0
  150.1545  145.2504  161.3437 H   0  0  0  0  0  0  0  0  0  0  0  0
  148.6940  145.4571  158.9499 H   0  0  0  0  0  0  0  0  0  0  0  0
  146.7763  145.8141  158.8717 H   0  0  0  0  0  0  0  0  0  0  0  0
  145.2784  144.3221  161.9435 H   0  0  0  0  0  0  0  0  0  0  0  0
  142.8632  144.5101  162.4650 H   0  0  0  0  0  0  0  0  0  0  0  0
  141.3312  145.6616  160.7659 H   0  0  0  0  0  0  0  0  0  0  0  0
  144.6207  145.0544  156.3449 H   0  0  0  0  0  0  0  0  0  0  0  0
  143.0313  145.4466  157.0029 H   0  0  0  0  0  0  0  0  0  0  0  0
  144.7088  147.0316  155.0523 H   0  0  0  0  0  0  0  0  0  0  0  0
  142.9602  146.7914  155.0278 H   0  0  0  0  0  0  0  0  0  0  0  0
  143.9361  149.1348  155.9727 H   0  0  0  0  0  0  0  0  0  0  0  0
  142.6631  148.3216  156.8897 H   0  0  0  0  0  0  0  0  0  0  0  0
  144.3768  148.5387  158.5640 H   0  0  0  0  0  0  0  0  0  0  0  0
  145.6527  148.2325  157.4053 H   0  0  0  0  0  0  0  0  0  0  0  0
  149.8685  142.5522  158.9460 H   0  0  0  0  0  0  0  0  0  0  0  0
  150.2062  143.2974  157.3979 H   0  0  0  0  0  0  0  0  0  0  0  0
  150.4537  140.8362  157.2736 H   0  0  0  0  0  0  0  0  0  0  0  0
  151.9556  141.6533  156.8827 H   0  0  0  0  0  0  0  0  0  0  0  0
  153.3780  140.9157  160.1465 H   0  0  0  0  0  0  0  0  0  0  0  0
  153.7178  141.7111  158.6197 H   0  0  0  0  0  0  0  0  0  0  0  0
  153.1633  143.3655  160.3626 H   0  0  0  0  0  0  0  0  0  0  0  0
  151.6415  142.5806  160.7034 H   0  0  0  0  0  0  0  0  0  0  0  0
  142.2497  146.4777  158.8147 H   0  0  0  0  0  0  0  0  0  0  0  0
  1  2  1  0  0  0  0
  1 25  1  0  0  0  0
  1 26  1  0  0  0  0
  1 27  1  0  0  0  0
  2  3  1  0  0  0  0
  2 19  1  0  0  0  0
  2 28  1  0  0  0  0
  3  4  1  0  0  0  0
  3 29  1  0  0  0  0
  3 30  1  0  0  0  0
  4  5  1  0  0  0  0
  4 31  1  0  0  0  0
  5  6  2  0  0  0  0
  5  7  1  0  0  0  0
  7  8  1  0  0  0  0
  7 32  1  0  0  0  0
  8 13  1  0  0  0  0
  8  9  2  0  0  0  0
  9 10  1  0  0  0  0
  9 33  1  0  0  0  0
 10 11  2  0  0  0  0
 10 34  1  0  0  0  0
 11 12  1  0  0  0  0
 11 35  1  0  0  0  0
 12 13  2  0  0  0  0
 12 52  1  0  0  0  0
 13 14  1  0  0  0  0
 14 18  1  0  0  0  0
 14 15  1  0  0  0  0
 15 16  1  0  0  0  0
 15 36  1  0  0  0  0
 15 37  1  0  0  0  0
 16 17  1  0  0  0  0
 16 38  1  0  0  0  0
 16 39  1  0  0  0  0
 17 18  1  0  0  0  0
 17 40  1  0  0  0  0
 17 41  1  0  0  0  0
 18 42  1  0  0  0  0
 18 43  1  0  0  0  0
 19 24  1  0  0  0  0
 19 20  1  0  0  0  0
 20 21  1  0  0  0  0
 20 44  1  0  0  0  0
 20 45  1  0  0  0  0
 21 22  1  0  0  0  0
 21 46  1  0  0  0  0
 21 47  1  0  0  0  0
 22 23  1  0  0  0  0
 23 24  1  0  0  0  0
 23 48  1  0  0  0  0
 23 49  1  0  0  0  0
 24 50  1  0  0  0  0
 24 51  1  0  0  0  0
M  CHG  1  12   1
M  END
> <s_m_source_file>
AV-unprocessed.smi

> <i_m_source_file_index>
1389

> <i_lp_mmshare_version>
43012

> <i_f3d_flags>
0

> <s_epik_input>
W0NIMl0xW0NIMl1PW0NIMl1bQ0gyXU4xW0NASF0oW0NIM10pW0NIMl1bTkhdQyg9TylbTkhdYzJbY0hdW2NIXVtjSF1uYzJOM1tDSDJdW0NIMl1bQ0gyXVtDSDJdMw==

> <s_epik_cmdline>
J2VwaWtfcHl0aG9uJywgJy1waCcsICc3LjAnLCAnLXRuJywgJzgnLCAnLW1hJywgJzIwMCcsICctbWV0YWxfYmluZGluZycsICctaW1hZScsICc8aW5maWxlLm1hZT4nLCAnLW9tYWUnLCAnPG91dGZpbGUubWFlPic=

> <r_epik_Ionization_Penalty>
1.37675

> <r_epik_Ionization_Penalty_Charging>
1.11074

> <r_epik_Ionization_Penalty_Neutral>
0.26601

> <r_epik_State_Penalty>
1.46015

> <r_epik_Charging_Adjusted_Penalty>
2.57089

> <i_epik_Tot_Q>
1

> <i_epik_Tot_abs_Q>
1

> <r_epik_Metal_State_Penalty>
1.54223

> <b_epik_Metal_Only>
0

> <s_lp_Force_Field>
OPLS_2005

> <r_lp_Energy>
66.6842

> <b_lp_Chiralities_Consistent>
1

> <s_lp_Variant>
AV-unprocessed.smi:1389-5

> <Gold.Version>
5.8.1

> <Gold.Id.Protein>
6NUR|6NUR_protein|mol2

> <Gold.PLP.Fitness>
49.1063

> <Gold.PLP.PLP>
-41.5323

> <Gold.PLP.part.hbond>
-3.0000

> <Gold.PLP.part.metal>
0.0000

> <Gold.PLP.part.buried>
-8.3565

> <Gold.PLP.part.nonpolar>
-31.3431

> <Gold.PLP.part.repulsive>
0.4408

> <Gold.PLP.ligand.clash>
0.0000

> <Gold.PLP.ligand.torsion>
0.8277

> <Gold.PLP.Chemscore.Hbond>
3.0000

> <Gold.PLP.Chemscore.CHOScore>
0.0000

> <Gold.PLP.Chemscore.Metal>
0.0000

> <Gold.Chemscore.Hbonds>
donor molecule, donor type, donor heavy atom, donor atom, acceptor molecule, acceptor atom, score
      L1  H     4    31       P1  8029  1.00
      L1  H     7    32       P1  8029  0.99
      P1  H  6933  6944       L1     6  0.71

> <Gold.PLP.Chemscore.Internal.Correction>
0.2293

> <Gold.Rescore>
     Score         DG    S(hbond)    S(metal)    S(lipo)     H(rot)  DE(clash)    DE(int)     intcor
     21.75     -23.89       2.89        0.00     110.01       1.60       0.07       2.07       ----

> <Gold.Chemscore.Fitness>
21.7474

> <Gold.Chemscore.DG>
-23.8872

> <Gold.Chemscore.ZeroCoef>
-5.4800

> <Gold.Chemscore.Hbond>
2.8865

> <Gold.Chemscore.Metal>
0.0000

> <Gold.Chemscore.Lipo>
110.0106

> <Gold.Chemscore.Internal_Hbond>
0.0000

> <Gold.Chemscore.DEClash>
0.0733

> <Gold.Chemscore.DEInternal>
2.0666

> <Gold.Chemscore.Rot>
1.6035

> <Gold.Chemscore.Internal.Correction>
   9.000000E+99

> <Gold.Chemscore.Hbonds>
donor molecule, donor type, donor heavy atom, donor atom, acceptor molecule, acceptor atom, score
      L1  H     4    31       P1  8029  0.97
      L1  H     7    32       P1  8029  0.94
      P1  H  6933  6944       L1     6  0.49

> <Gold.Chemscore.Hbond.Weighted>
-9.6409

> <Gold.Chemscore.Metal.Weighted>
-0.0000

> <Gold.Chemscore.Lipo.Weighted>
-12.8712

> <Gold.Chemscore.Internal_Hbond.Weighted>
0.0000

> <Gold.Chemscore.DEClash.Weighted>
0.0733

> <Gold.Chemscore.DEInternal.Weighted>
2.0666

> <Gold.Chemscore.Rot.Weighted>
4.1049

> <Gold.Chemscore.Internal.Correction.Weighted>
   9.000000E+99

> <Gold.Protein.RotatedTorsions>
[ 6907 6896 6895 6894 ] final  128.17 input  -60.11 | X-H torsion
[ 7974 7965 7964 7962 ] final -104.03 input  175.53 | X-H torsion
[ 8008 7997 7996 7995 ] final  -26.84 input   59.86 | X-H torsion
[ 10167 10162 10161 10158 ] final   49.99 input  -65.29 | X-H torsion
[ 10718 10713 10712 10709 ] final -159.58 input   66.30 | X-H torsion
[ 10763 10752 10751 10750 ] final  -44.78 input  -60.55 | X-H torsion
[ 11005 11000 10999 10996 ] final   52.44 input  -57.11 | X-H torsion

> <Gold.Protein.ActiveResidues>
 VAL166  LYS551  ARG553  GLY616  TRP617  ASP618  TYR619  PRO620  LYS621  CYS622 
 ASP623  PHE694  ASN695  SER759  ASP760  ASP761  ALA762  ILE779  LEU786  VAL792 
 PHE793  MET794  SER795  GLU796  ALA797  LYS798  CYS799  TRP800  GLU811  SER814 

> <Gold.Protein.RotatedAtoms>
  152.3744  133.6461  159.6111 H   0  0  0  0  0  0  0  0  0  0  0  0  # atno 6907 bound_to 6896
  150.7693  133.9217  159.3409 H   0  0  0  0  0  0  0  0  0  0  0  0  # atno 6908 bound_to 6896
  151.7034  135.0927  160.0306 H   0  0  0  0  0  0  0  0  0  0  0  0  # atno 6909 bound_to 6896
  145.2483  140.9229  143.3110 H   0  0  0  0  0  0  0  0  0  0  0  0  # atno 7974 bound_to 7965
  154.4405  140.1888  156.0838 H   0  0  0  0  0  0  0  0  0  0  0  0  # atno 8008 bound_to 7997
  156.0418  140.3319  155.7226 H   0  0  0  0  0  0  0  0  0  0  0  0  # atno 8009 bound_to 7997
  155.5688  140.0610  157.2802 H   0  0  0  0  0  0  0  0  0  0  0  0  # atno 8010 bound_to 7997
  140.2771  144.3199  150.6274 H   0  0  0  0  0  0  0  0  0  0  0  0  # atno 10167 bound_to 10162
  156.5700  130.8684  151.2835 H   0  0  0  0  0  0  0  0  0  0  0  0  # atno 10718 bound_to 10713
  154.0177  135.6673  153.4770 H   0  0  0  0  0  0  0  0  0  0  0  0  # atno 10763 bound_to 10752
  153.0593  135.5037  154.8052 H   0  0  0  0  0  0  0  0  0  0  0  0  # atno 10764 bound_to 10752
  154.6956  135.3069  154.9380 H   0  0  0  0  0  0  0  0  0  0  0  0  # atno 10765 bound_to 10752
  140.0849  134.5288  155.8909 H   0  0  0  0  0  0  0  0  0  0  0  0  # atno 11005 bound_to 11000
  144.9526  139.4066  143.6395 LP  0  0  0  0  0  0  0  0  0  0  0  0  # atno 17320 bound_to 7965
  146.3310  139.8541  142.8868 LP  0  0  0  0  0  0  0  0  0  0  0  0  # atno 17321 bound_to 7965
  140.5842  143.2171  151.7372 LP  0  0  0  0  0  0  0  0  0  0  0  0  # atno 17342 bound_to 10162
  139.4973  144.4035  152.0156 LP  0  0  0  0  0  0  0  0  0  0  0  0  # atno 17343 bound_to 10162
  157.7350  130.9755  150.2059 LP  0  0  0  0  0  0  0  0  0  0  0  0  # atno 17370 bound_to 10713
  156.2723  130.3723  149.8019 LP  0  0  0  0  0  0  0  0  0  0  0  0  # atno 17371 bound_to 10713
  141.2059  133.6651  156.6210 LP  0  0  0  0  0  0  0  0  0  0  0  0  # atno 17394 bound_to 11000
  140.3434  134.7830  157.4414 LP  0  0  0  0  0  0  0  0  0  0  0  0  # atno 17395 bound_to 11000

$$$$
