AV-unprocessed.smi:1579|AV-procd|sdf|6356|dock6
  -GOLD-   22720 6573D 1   1.00000     0.00000
 Structure written by MMmdl.
 47 48  0  0  0  0  0  0  0  0  2 V2000
  151.2248  145.2494  160.0830 C   0  0  0  0  0  0  0  0  0  0  0  0
  151.6736  143.9370  159.4994 C   0  0  0  0  0  0  0  0  0  0  0  0
  151.2776  143.6690  158.2984 N   0  0  0  0  0  0  0  0  0  0  0  0
  151.6303  142.4912  157.6689 N   0  0  0  0  0  0  0  0  0  0  0  0
  151.0828  142.3585  156.3120 C   0  0  0  0  0  0  0  0  0  0  0  0
  150.1022  141.1722  156.1813 C   0  0  2  0  0  0  0  0  0  0  0  0
  150.8778  140.0029  156.0038 O   0  0  0  0  0  0  0  0  0  0  0  0
  149.1243  141.3144  154.9931 C   0  0  0  0  0  0  0  0  0  0  0  0
  147.9220  142.1261  155.3150 N   0  3  2  0  0  0  0  0  0  0  0  0
  147.3472  141.7658  156.6369 C   0  0  0  0  0  0  0  0  0  0  0  0
  146.1864  142.7020  157.0176 C   0  0  0  0  0  0  0  0  0  0  0  0
  145.0855  142.7308  155.9426 C   0  0  2  0  0  0  0  0  0  0  0  0
  144.2345  141.4487  155.9270 C   0  0  0  0  0  0  0  0  0  0  0  0
  145.7181  143.0430  154.5744 C   0  0  0  0  0  0  0  0  0  0  0  0
  146.8891  142.0998  154.2446 C   0  0  0  0  0  0  0  0  0  0  0  0
  152.4131  141.5208  158.2226 C   0  0  0  0  0  0  0  0  0  0  0  0
  152.7220  140.4925  157.6188 O   0  0  0  0  0  0  0  0  0  0  0  0
  152.8577  141.8299  159.5833 C   0  0  0  0  0  0  0  0  0  0  0  0
  153.6806  140.8395  160.1989 C   0  0  0  0  0  0  0  0  0  0  0  0
  154.3635  140.0495  160.6979 N   0  0  0  0  0  0  0  0  0  0  0  0
  152.5147  142.9815  160.2125 C   0  0  0  0  0  0  0  0  0  0  0  0
  152.9523  143.3499  161.6235 C   0  0  0  0  0  0  0  0  0  0  0  0
  150.6529  145.0913  160.9974 H   0  0  0  0  0  0  0  0  0  0  0  0
  150.5911  145.8071  159.3918 H   0  0  0  0  0  0  0  0  0  0  0  0
  152.0814  145.8790  160.3243 H   0  0  0  0  0  0  0  0  0  0  0  0
  150.6054  143.2810  155.9764 H   0  0  0  0  0  0  0  0  0  0  0  0
  151.9187  142.2121  155.6247 H   0  0  0  0  0  0  0  0  0  0  0  0
  149.5607  141.0685  157.1208 H   0  0  0  0  0  0  0  0  0  0  0  0
  150.4435  139.4362  155.3852 H   0  0  0  0  0  0  0  0  0  0  0  0
  149.6188  141.7656  154.1326 H   0  0  0  0  0  0  0  0  0  0  0  0
  148.8217  140.3144  154.6782 H   0  0  0  0  0  0  0  0  0  0  0  0
  147.0145  140.7269  156.6216 H   0  0  0  0  0  0  0  0  0  0  0  0
  148.1208  141.8349  157.4029 H   0  0  0  0  0  0  0  0  0  0  0  0
  145.7675  142.4069  157.9803 H   0  0  0  0  0  0  0  0  0  0  0  0
  146.5774  143.7111  157.1556 H   0  0  0  0  0  0  0  0  0  0  0  0
  144.4065  143.5491  156.1868 H   0  0  0  0  0  0  0  0  0  0  0  0
  144.8255  140.5633  155.6945 H   0  0  0  0  0  0  0  0  0  0  0  0
  143.4392  141.5173  155.1842 H   0  0  0  0  0  0  0  0  0  0  0  0
  143.7616  141.2829  156.8955 H   0  0  0  0  0  0  0  0  0  0  0  0
  144.9634  142.9923  153.7887 H   0  0  0  0  0  0  0  0  0  0  0  0
  146.0821  144.0715  154.5758 H   0  0  0  0  0  0  0  0  0  0  0  0
  147.3207  142.4056  153.2927 H   0  0  0  0  0  0  0  0  0  0  0  0
  146.5283  141.0796  154.1073 H   0  0  0  0  0  0  0  0  0  0  0  0
  153.5762  142.5801  162.0765 H   0  0  0  0  0  0  0  0  0  0  0  0
  152.0847  143.4886  162.2691 H   0  0  0  0  0  0  0  0  0  0  0  0
  153.5283  144.2758  161.6174 H   0  0  0  0  0  0  0  0  0  0  0  0
  148.2372  143.0817  155.4004 H   0  0  0  0  0  0  0  0  0  0  0  0
  1  2  1  0  0  0  0
  1 23  1  0  0  0  0
  1 24  1  0  0  0  0
  1 25  1  0  0  0  0
  2 21  1  0  0  0  0
  2  3  2  0  0  0  0
  3  4  1  0  0  0  0
  4  5  1  0  0  0  0
  4 16  1  0  0  0  0
  5  6  1  0  0  0  0
  5 26  1  0  0  0  0
  5 27  1  0  0  0  0
  6  7  1  0  0  0  0
  6  8  1  0  0  0  0
  6 28  1  0  0  0  0
  7 29  1  0  0  0  0
  8  9  1  0  0  0  0
  8 30  1  0  0  0  0
  8 31  1  0  0  0  0
  9 15  1  0  0  0  0
  9 10  1  0  0  0  0
  9 47  1  0  0  0  0
 10 11  1  0  0  0  0
 10 32  1  0  0  0  0
 10 33  1  0  0  0  0
 11 12  1  0  0  0  0
 11 34  1  0  0  0  0
 11 35  1  0  0  0  0
 12 13  1  0  0  0  0
 12 14  1  0  0  0  0
 12 36  1  0  0  0  0
 13 37  1  0  0  0  0
 13 38  1  0  0  0  0
 13 39  1  0  0  0  0
 14 15  1  0  0  0  0
 14 40  1  0  0  0  0
 14 41  1  0  0  0  0
 15 42  1  0  0  0  0
 15 43  1  0  0  0  0
 16 17  2  0  0  0  0
 16 18  1  0  0  0  0
 18 19  1  0  0  0  0
 18 21  2  0  0  0  0
 19 20  3  0  0  0  0
 21 22  1  0  0  0  0
 22 44  1  0  0  0  0
 22 45  1  0  0  0  0
 22 46  1  0  0  0  0
M  CHG  1   9   1
M  END
> <s_m_source_file>
AV-unprocessed.smi

> <i_m_source_file_index>
1579

> <i_lp_mmshare_version>
43012

> <i_f3d_flags>
0

> <s_epik_input>
TiNDYyhjMVtDSDNdKWMoPU8pbihuYzFbQ0gzXSlbQ0gyXVtDQEhdKFtPSF0pW0NIMl1OMltDSDJdW0NIMl1bQ0hdKFtDSDNdKVtDSDJdW0NIMl0y

> <s_epik_cmdline>
J2VwaWtfcHl0aG9uJywgJy1waCcsICc3LjAnLCAnLXRuJywgJzgnLCAnLW1hJywgJzIwMCcsICctbWV0YWxfYmluZGluZycsICctaW1hZScsICc8aW5maWxlLm1hZT4nLCAnLW9tYWUnLCAnPG91dGZpbGUubWFlPic=

> <r_epik_Ionization_Penalty>
0.00136816

> <r_epik_Ionization_Penalty_Charging>
0.00136813

> <r_epik_Ionization_Penalty_Neutral>
3.19884e-08

> <r_epik_State_Penalty>
0.000910892

> <r_epik_Charging_Adjusted_Penalty>
0.00227902

> <i_epik_Tot_Q>
1

> <i_epik_Tot_abs_Q>
1

> <r_epik_Metal_State_Penalty>
-0

> <b_epik_Metal_Only>
0

> <s_lp_Force_Field>
OPLS_2005

> <r_lp_Energy>
38.3008

> <b_lp_Chiralities_Consistent>
1

> <s_lp_Variant>
AV-unprocessed.smi:1579-3

> <Gold.Version>
5.8.1

> <Gold.Id.Protein>
6NUR|6NUR_protein|mol2

> <Gold.PLP.Fitness>
53.3861

> <Gold.PLP.PLP>
-45.8577

> <Gold.PLP.part.hbond>
-2.0000

> <Gold.PLP.part.metal>
0.0000

> <Gold.PLP.part.buried>
-8.2834

> <Gold.PLP.part.nonpolar>
-34.2667

> <Gold.PLP.part.repulsive>
0.2269

> <Gold.PLP.ligand.clash>
0.0065

> <Gold.PLP.ligand.torsion>
0.5761

> <Gold.PLP.Chemscore.Hbond>
2.8897

> <Gold.PLP.Chemscore.CHOScore>
0.0000

> <Gold.PLP.Chemscore.Metal>
0.0000

> <Gold.Chemscore.Hbonds>
donor molecule, donor type, donor heavy atom, donor atom, acceptor molecule, acceptor atom, score
      L1  H     9    47       P1  8028  2.00
      P1  H  7997  8010       L1    17  0.83

> <Gold.PLP.Chemscore.Internal.Correction>
0.0178

> <Gold.Rescore>
     Score         DG    S(hbond)    S(metal)    S(lipo)     H(rot)  DE(clash)    DE(int)     intcor
     15.58     -17.99       1.89        0.00     100.57       2.17       0.16       2.25       ----

> <Gold.Chemscore.Fitness>
15.5831

> <Gold.Chemscore.DG>
-17.9889

> <Gold.Chemscore.ZeroCoef>
-5.4800

> <Gold.Chemscore.Hbond>
1.8867

> <Gold.Chemscore.Metal>
0.0000

> <Gold.Chemscore.Lipo>
100.5682

> <Gold.Chemscore.Internal_Hbond>
0.0000

> <Gold.Chemscore.DEClash>
0.1558

> <Gold.Chemscore.DEInternal>
2.2499

> <Gold.Chemscore.Rot>
2.1715

> <Gold.Chemscore.Internal.Correction>
   9.000000E+99

> <Gold.Chemscore.Hbonds>
donor molecule, donor type, donor heavy atom, donor atom, acceptor molecule, acceptor atom, score
      L1  H     9    47       P1  8028  0.96
      P1  H  7997  8010       L1    17  0.82

> <Gold.Chemscore.Hbond.Weighted>
-6.3015

> <Gold.Chemscore.Metal.Weighted>
-0.0000

> <Gold.Chemscore.Lipo.Weighted>
-11.7665

> <Gold.Chemscore.Internal_Hbond.Weighted>
0.0000

> <Gold.Chemscore.DEClash.Weighted>
0.1558

> <Gold.Chemscore.DEInternal.Weighted>
2.2499

> <Gold.Chemscore.Rot.Weighted>
5.5591

> <Gold.Chemscore.Internal.Correction.Weighted>
   9.000000E+99

> <Gold.Protein.RotatedTorsions>
[ 6907 6896 6895 6894 ] final   15.49 input  -60.11 | X-H torsion
[ 7974 7965 7964 7962 ] final  -91.74 input  175.53 | X-H torsion
[ 8008 7997 7996 7995 ] final   49.33 input   59.86 | X-H torsion
[ 10167 10162 10161 10158 ] final   40.30 input  -65.29 | X-H torsion
[ 10718 10713 10712 10709 ] final   70.47 input   66.30 | X-H torsion
[ 10763 10752 10751 10750 ] final  -28.22 input  -60.55 | X-H torsion
[ 11005 11000 10999 10996 ] final  -60.19 input  -57.11 | X-H torsion

> <Gold.Protein.ActiveResidues>
 VAL166  LYS551  ARG553  GLY616  TRP617  ASP618  TYR619  PRO620  LYS621  CYS622 
 ASP623  PHE694  ASN695  SER759  ASP760  ASP761  ALA762  ILE779  LEU786  VAL792 
 PHE793  MET794  SER795  GLU796  ALA797  LYS798  CYS799  TRP800  GLU811  SER814 

> <Gold.Protein.RotatedAtoms>
  151.8190  135.0657  160.0422 H   0  0  0  0  0  0  0  0  0  0  0  0  # atno 6907 bound_to 6896
  152.2965  133.5608  159.5599 H   0  0  0  0  0  0  0  0  0  0  0  0  # atno 6908 bound_to 6896
  150.7253  134.0269  159.3762 H   0  0  0  0  0  0  0  0  0  0  0  0  # atno 6909 bound_to 6896
  145.4091  140.9543  143.2244 H   0  0  0  0  0  0  0  0  0  0  0  0  # atno 7974 bound_to 7965
  155.4005  140.3437  155.4256 H   0  0  0  0  0  0  0  0  0  0  0  0  # atno 8008 bound_to 7997
  156.1506  140.1570  156.8807 H   0  0  0  0  0  0  0  0  0  0  0  0  # atno 8009 bound_to 7997
  154.5049  140.0805  156.7856 H   0  0  0  0  0  0  0  0  0  0  0  0  # atno 8010 bound_to 7997
  140.3755  144.2048  150.6132 H   0  0  0  0  0  0  0  0  0  0  0  0  # atno 10167 bound_to 10162
  157.6401  130.9479  150.0655 H   0  0  0  0  0  0  0  0  0  0  0  0  # atno 10718 bound_to 10713
  153.7448  135.6930  153.4959 H   0  0  0  0  0  0  0  0  0  0  0  0  # atno 10763 bound_to 10752
  153.2044  135.4425  155.0304 H   0  0  0  0  0  0  0  0  0  0  0  0  # atno 10764 bound_to 10752
  154.8208  135.3421  154.6972 H   0  0  0  0  0  0  0  0  0  0  0  0  # atno 10765 bound_to 10752
  141.1278  133.6620  156.5186 H   0  0  0  0  0  0  0  0  0  0  0  0  # atno 11005 bound_to 11000
  144.8321  139.5611  143.6939 LP  0  0  0  0  0  0  0  0  0  0  0  0  # atno 17320 bound_to 7965
  146.2714  139.6644  142.9293 LP  0  0  0  0  0  0  0  0  0  0  0  0  # atno 17321 bound_to 7965
  140.4990  143.2323  151.8707 LP  0  0  0  0  0  0  0  0  0  0  0  0  # atno 17342 bound_to 10162
  139.4800  144.5081  151.8970 LP  0  0  0  0  0  0  0  0  0  0  0  0  # atno 17343 bound_to 10162
  156.1675  130.3645  149.9212 LP  0  0  0  0  0  0  0  0  0  0  0  0  # atno 17370 bound_to 10713
  156.7196  130.9001  151.3617 LP  0  0  0  0  0  0  0  0  0  0  0  0  # atno 17371 bound_to 10713
  140.4311  134.7101  157.4942 LP  0  0  0  0  0  0  0  0  0  0  0  0  # atno 17394 bound_to 11000
  140.0293  134.6430  155.9128 LP  0  0  0  0  0  0  0  0  0  0  0  0  # atno 17395 bound_to 11000

$$$$
