AV-unprocessed.smi:1278|AV-procd|sdf|5354|dock8
  -GOLD-   22720 4493D 1   1.00000     0.00000
 Structure written by MMmdl.
 38 39  0  0  0  0  0  0  0  0  3 V2000
  146.1552  132.5170  151.2638 C   0  0  0  0  0  0  0  0  0  0  0  0
  146.4903  133.9074  151.8221 C   0  0  1  0  0  0  0  0  0  0  0  0
  145.2510  134.8175  151.8426 C   0  0  0  0  0  0  0  0  0  0  0  0
  145.6093  136.1887  152.4283 C   0  0  0  0  0  0  0  0  0  0  0  0
  146.2472  136.0430  153.8187 C   0  0  0  0  0  0  0  0  0  0  0  0
  147.4422  135.1613  153.7710 N   0  3  1  0  0  0  0  0  0  0  0  0
  148.1499  135.1070  155.0739 C   0  0  0  0  0  0  0  0  0  0  0  0
  147.1794  134.9520  156.2602 C   0  0  0  0  0  0  0  0  0  0  0  0
  147.7418  135.5158  157.4815 N   0  0  0  0  0  0  0  0  0  0  0  0
  148.6583  134.9293  158.2647 C   0  0  0  0  0  0  0  0  0  0  0  0
  149.0815  133.8064  157.9803 O   0  0  0  0  0  0  0  0  0  0  0  0
  149.0322  135.6842  159.3215 N   0  5  0  0  0  0  0  0  0  0  0  0
  148.3634  135.5920  160.4825 C   0  0  0  0  0  0  0  0  0  0  0  0
  148.2440  136.6117  161.3403 N   0  0  0  0  0  0  0  0  0  0  0  0
  147.5126  136.2906  162.4856 C   0  0  0  0  0  0  0  0  0  0  0  0
  147.0706  134.9945  162.5028 C   0  0  0  0  0  0  0  0  0  0  0  0
  147.5657  134.1320  161.0744 S   0  0  0  0  0  0  0  0  0  0  0  0
  147.1084  133.8154  153.2319 C   0  0  0  0  0  0  0  0  0  0  0  0
  145.4182  132.0064  151.8848 H   0  0  0  0  0  0  0  0  0  0  0  0
  147.0443  131.8872  151.2178 H   0  0  0  0  0  0  0  0  0  0  0  0
  145.7492  132.5865  150.2541 H   0  0  0  0  0  0  0  0  0  0  0  0
  147.2302  134.3575  151.1583 H   0  0  0  0  0  0  0  0  0  0  0  0
  144.8509  134.9374  150.8350 H   0  0  0  0  0  0  0  0  0  0  0  0
  144.4611  134.3590  152.4395 H   0  0  0  0  0  0  0  0  0  0  0  0
  146.3006  136.7041  151.7601 H   0  0  0  0  0  0  0  0  0  0  0  0
  144.7167  136.8120  152.4911 H   0  0  0  0  0  0  0  0  0  0  0  0
  146.5309  137.0309  154.1842 H   0  0  0  0  0  0  0  0  0  0  0  0
  145.5223  135.6380  154.5267 H   0  0  0  0  0  0  0  0  0  0  0  0
  148.8287  134.2532  155.0718 H   0  0  0  0  0  0  0  0  0  0  0  0
  148.7754  135.9929  155.1955 H   0  0  0  0  0  0  0  0  0  0  0  0
  146.2414  135.4712  156.0676 H   0  0  0  0  0  0  0  0  0  0  0  0
  146.9274  133.9016  156.4169 H   0  0  0  0  0  0  0  0  0  0  0  0
  147.4173  136.4317  157.7560 H   0  0  0  0  0  0  0  0  0  0  0  0
  147.3552  137.0476  163.2391 H   0  0  0  0  0  0  0  0  0  0  0  0
  146.4899  134.4960  163.2641 H   0  0  0  0  0  0  0  0  0  0  0  0
  146.4194  133.3134  153.9134 H   0  0  0  0  0  0  0  0  0  0  0  0
  148.0061  133.1998  153.1852 H   0  0  0  0  0  0  0  0  0  0  0  0
  148.0826  135.5926  153.1198 H   0  0  0  0  0  0  0  0  0  0  0  0
  1  2  1  0  0  0  0
  1 19  1  0  0  0  0
  1 20  1  0  0  0  0
  1 21  1  0  0  0  0
  2 18  1  0  0  0  0
  2  3  1  0  0  0  0
  2 22  1  0  0  0  0
  3  4  1  0  0  0  0
  3 23  1  0  0  0  0
  3 24  1  0  0  0  0
  4  5  1  0  0  0  0
  4 25  1  0  0  0  0
  4 26  1  0  0  0  0
  5  6  1  0  0  0  0
  5 27  1  0  0  0  0
  5 28  1  0  0  0  0
  6  7  1  0  0  0  0
  6 18  1  0  0  0  0
  6 38  1  0  0  0  0
  7  8  1  0  0  0  0
  7 29  1  0  0  0  0
  7 30  1  0  0  0  0
  8  9  1  0  0  0  0
  8 31  1  0  0  0  0
  8 32  1  0  0  0  0
  9 10  1  0  0  0  0
  9 33  1  0  0  0  0
 10 11  2  0  0  0  0
 10 12  1  0  0  0  0
 12 13  1  0  0  0  0
 13 17  1  0  0  0  0
 13 14  2  0  0  0  0
 14 15  1  0  0  0  0
 15 16  2  0  0  0  0
 15 34  1  0  0  0  0
 16 17  1  0  0  0  0
 16 35  1  0  0  0  0
 18 36  1  0  0  0  0
 18 37  1  0  0  0  0
M  CHG  1   6   1
M  CHG  1  12  -1
M  END
> <s_m_source_file>
AV-unprocessed.smi

> <i_m_source_file_index>
1278

> <i_lp_mmshare_version>
43012

> <i_f3d_flags>
0

> <s_epik_input>
W0NIM11bQ0BASF0xW0NIMl1bQ0gyXVtDSDJdTihbQ0gyXTEpW0NIMl1bQ0gyXVtOSF1DKD1PKVtOSF1jMm5bY0hdW2NIXXMy

> <s_epik_cmdline>
J2VwaWtfcHl0aG9uJywgJy1waCcsICc3LjAnLCAnLXRuJywgJzgnLCAnLW1hJywgJzIwMCcsICctbWV0YWxfYmluZGluZycsICctaW1hZScsICc8aW5maWxlLm1hZT4nLCAnLW9tYWUnLCAnPG91dGZpbGUubWFlPic=

> <r_lp_tautomer_probability>
0.999

> <r_epik_Ionization_Penalty>
6.22019

> <r_epik_Ionization_Penalty_Charging>
5.38911

> <r_epik_Ionization_Penalty_Neutral>
0.831074

> <r_epik_State_Penalty>
5.38904

> <r_epik_Charging_Adjusted_Penalty>
10.7782

> <i_epik_Tot_Q>
0

> <i_epik_Tot_abs_Q>
2

> <r_epik_Metal_State_Penalty>
1.41502

> <b_epik_Metal_Only>
1

> <s_lp_Force_Field>
OPLS_2005

> <r_lp_Energy>
5.28715

> <b_lp_Chiralities_Consistent>
1

> <s_lp_Variant>
AV-unprocessed.smi:1278-8

> <Gold.Version>
5.8.1

> <Gold.Id.Protein>
6NUR|6NUR_protein|mol2

> <Gold.PLP.Fitness>
39.5824

> <Gold.PLP.PLP>
-27.3583

> <Gold.PLP.part.hbond>
-3.7966

> <Gold.PLP.part.metal>
0.0000

> <Gold.PLP.part.buried>
-4.4240

> <Gold.PLP.part.nonpolar>
-20.0550

> <Gold.PLP.part.repulsive>
0.0134

> <Gold.PLP.ligand.clash>
0.0000

> <Gold.PLP.ligand.torsion>
1.4092

> <Gold.PLP.Chemscore.Hbond>
5.0000

> <Gold.PLP.Chemscore.CHOScore>
0.0000

> <Gold.PLP.Chemscore.Metal>
0.0000

> <Gold.Chemscore.Hbonds>
donor molecule, donor type, donor heavy atom, donor atom, acceptor molecule, acceptor atom, score
      L1  H     6    38       P1  7948  2.00
      P1  H  6896  6909       L1    12  2.00
      P1  H  6931  6943       L1    14  1.00

> <Gold.PLP.Chemscore.Internal.Correction>
0.0425

> <Gold.Rescore>
     Score         DG    S(hbond)    S(metal)    S(lipo)     H(rot)  DE(clash)    DE(int)     intcor
     14.70     -17.50       2.84        0.00      55.99       1.57       1.39       1.41       ----

> <Gold.Chemscore.Fitness>
14.7002

> <Gold.Chemscore.DG>
-17.5009

> <Gold.Chemscore.ZeroCoef>
-5.4800

> <Gold.Chemscore.Hbond>
2.8392

> <Gold.Chemscore.Metal>
0.0000

> <Gold.Chemscore.Lipo>
55.9914

> <Gold.Chemscore.Internal_Hbond>
0.0000

> <Gold.Chemscore.DEClash>
1.3894

> <Gold.Chemscore.DEInternal>
1.4113

> <Gold.Chemscore.Rot>
1.5676

> <Gold.Chemscore.Internal.Correction>
   9.000000E+99

> <Gold.Chemscore.Hbonds>
donor molecule, donor type, donor heavy atom, donor atom, acceptor molecule, acceptor atom, score
      L1  H     6    38       P1  7948  1.00
      P1  H  6896  6909       L1    12  0.11
      P1  H  6931  6943       L1    14  0.26

> <Gold.Chemscore.Hbond.Weighted>
-9.4829

> <Gold.Chemscore.Metal.Weighted>
-0.0000

> <Gold.Chemscore.Lipo.Weighted>
-6.5510

> <Gold.Chemscore.Internal_Hbond.Weighted>
0.0000

> <Gold.Chemscore.DEClash.Weighted>
1.3894

> <Gold.Chemscore.DEInternal.Weighted>
1.4113

> <Gold.Chemscore.Rot.Weighted>
4.0130

> <Gold.Chemscore.Internal.Correction.Weighted>
   9.000000E+99

> <Gold.Protein.RotatedTorsions>
[ 6907 6896 6895 6894 ] final   72.71 input  -60.11 | X-H torsion
[ 7974 7965 7964 7962 ] final  -93.44 input  175.53 | X-H torsion
[ 8008 7997 7996 7995 ] final -112.89 input   59.86 | X-H torsion
[ 10167 10162 10161 10158 ] final   49.72 input  -65.29 | X-H torsion
[ 10718 10713 10712 10709 ] final   93.86 input   66.30 | X-H torsion
[ 10763 10752 10751 10750 ] final   66.77 input  -60.55 | X-H torsion
[ 11005 11000 10999 10996 ] final  -70.50 input  -57.11 | X-H torsion

> <Gold.Protein.ActiveResidues>
 VAL166  LYS551  ARG553  GLY616  TRP617  ASP618  TYR619  PRO620  LYS621  CYS622 
 ASP623  PHE694  ASN695  SER759  ASP760  ASP761  ALA762  ILE779  LEU786  VAL792 
 PHE793  MET794  SER795  GLU796  ALA797  LYS798  CYS799  TRP800  GLU811  SER814 

> <Gold.Protein.RotatedAtoms>
  152.4883  134.4531  159.9580 H   0  0  0  0  0  0  0  0  0  0  0  0  # atno 6907 bound_to 6896
  151.4523  133.3608  159.2805 H   0  0  0  0  0  0  0  0  0  0  0  0  # atno 6908 bound_to 6896
  150.9013  134.8450  159.7422 H   0  0  0  0  0  0  0  0  0  0  0  0  # atno 6909 bound_to 6896
  145.3865  140.9523  143.2364 H   0  0  0  0  0  0  0  0  0  0  0  0  # atno 7974 bound_to 7965
  155.0122  140.0393  157.2404 H   0  0  0  0  0  0  0  0  0  0  0  0  # atno 8008 bound_to 7997
  154.7450  140.2756  155.6317 H   0  0  0  0  0  0  0  0  0  0  0  0  # atno 8009 bound_to 7997
  156.2873  140.2658  156.2188 H   0  0  0  0  0  0  0  0  0  0  0  0  # atno 8010 bound_to 7997
  140.2799  144.3168  150.6267 H   0  0  0  0  0  0  0  0  0  0  0  0  # atno 10167 bound_to 10162
  157.6952  131.0492  150.4098 H   0  0  0  0  0  0  0  0  0  0  0  0  # atno 10718 bound_to 10713
  153.0155  135.5308  154.6876 H   0  0  0  0  0  0  0  0  0  0  0  0  # atno 10763 bound_to 10752
  154.6019  135.2869  155.0528 H   0  0  0  0  0  0  0  0  0  0  0  0  # atno 10764 bound_to 10752
  154.1582  135.6552  153.5032 H   0  0  0  0  0  0  0  0  0  0  0  0  # atno 10765 bound_to 10752
  141.1575  133.6791  156.6761 H   0  0  0  0  0  0  0  0  0  0  0  0  # atno 11005 bound_to 11000
  144.8471  139.5380  143.6874 LP  0  0  0  0  0  0  0  0  0  0  0  0  # atno 17320 bound_to 7965
  146.2818  139.6897  142.9224 LP  0  0  0  0  0  0  0  0  0  0  0  0  # atno 17321 bound_to 7965
  140.5820  143.2172  151.7410 LP  0  0  0  0  0  0  0  0  0  0  0  0  # atno 17342 bound_to 10162
  139.4965  144.4066  152.0125 LP  0  0  0  0  0  0  0  0  0  0  0  0  # atno 17343 bound_to 10162
  156.4483  130.4006  149.6652 LP  0  0  0  0  0  0  0  0  0  0  0  0  # atno 17370 bound_to 10713
  156.3811  130.7579  151.2572 LP  0  0  0  0  0  0  0  0  0  0  0  0  # atno 17371 bound_to 10713
  140.3137  134.8065  157.4197 LP  0  0  0  0  0  0  0  0  0  0  0  0  # atno 17394 bound_to 11000
  140.1156  134.5287  155.8228 LP  0  0  0  0  0  0  0  0  0  0  0  0  # atno 17395 bound_to 11000

$$$$
