AV-unprocessed.smi:1192|AV-procd|sdf|4988|dock4
  -GOLD-   22720 3583D 1   1.00000     0.00000
 Structure written by MMmdl.
 39 40  0  0  0  0  0  0  0  0  1 V2000
  149.7961  139.8894  154.5409 C   0  0  0  0  0  0  0  0  0  0  0  0
  150.9951  140.5243  154.9468 O   0  0  0  0  0  0  0  0  0  0  0  0
  150.7641  141.5849  155.8592 C   0  0  0  0  0  0  0  0  0  0  0  0
  149.9452  141.0555  157.0392 C   0  0  0  0  0  0  0  0  0  0  0  0
  150.8306  140.3807  157.9248 O   0  0  0  0  0  0  0  0  0  0  0  0
  151.7354  141.1194  158.6588 C   0  0  0  0  0  0  0  0  0  0  0  0
  151.7098  142.4712  158.5435 N   0  0  0  0  0  0  0  0  0  0  0  0
  152.5882  143.1949  159.2680 C   0  0  0  0  0  0  0  0  0  0  0  0
  153.5300  142.6170  160.1395 C   0  0  0  0  0  0  0  0  0  0  0  0
  153.5563  141.2152  160.2597 C   0  0  0  0  0  0  0  0  0  0  0  0
  152.6467  140.4438  159.5058 C   0  0  0  0  0  0  0  0  0  0  0  0
  152.6505  138.9270  159.6267 C   0  0  0  0  0  0  0  0  0  0  0  0
  153.3147  138.4489  160.8370 N   0  0  0  0  0  0  0  0  0  0  0  0
  153.5151  137.1631  161.1675 C   0  0  0  0  0  0  0  0  0  0  0  0
  153.1658  136.2181  160.4594 O   0  0  0  0  0  0  0  0  0  0  0  0
  154.2437  136.9248  162.4963 C   0  0  0  0  0  0  0  0  0  0  0  0
  153.3810  136.3761  163.6502 C   0  0  0  0  0  0  0  0  0  0  0  0
  154.0605  137.3856  164.5792 C   0  0  0  0  0  0  0  0  0  0  0  0
  154.4380  138.1977  163.3372 C   0  0  0  0  0  0  0  0  0  0  0  0
  150.0254  139.0953  153.8309 H   0  0  0  0  0  0  0  0  0  0  0  0
  149.1221  140.5933  154.0511 H   0  0  0  0  0  0  0  0  0  0  0  0
  149.2802  139.4433  155.3924 H   0  0  0  0  0  0  0  0  0  0  0  0
  151.7216  141.9628  156.2209 H   0  0  0  0  0  0  0  0  0  0  0  0
  150.2448  142.4129  155.3739 H   0  0  0  0  0  0  0  0  0  0  0  0
  149.4295  141.8797  157.5351 H   0  0  0  0  0  0  0  0  0  0  0  0
  149.1921  140.3542  156.6771 H   0  0  0  0  0  0  0  0  0  0  0  0
  152.5374  144.2671  159.1504 H   0  0  0  0  0  0  0  0  0  0  0  0
  154.2144  143.2342  160.7026 H   0  0  0  0  0  0  0  0  0  0  0  0
  154.2669  140.7426  160.9217 H   0  0  0  0  0  0  0  0  0  0  0  0
  151.6252  138.5563  159.6424 H   0  0  0  0  0  0  0  0  0  0  0  0
  153.1063  138.5151  158.7250 H   0  0  0  0  0  0  0  0  0  0  0  0
  153.6488  139.1543  161.4775 H   0  0  0  0  0  0  0  0  0  0  0  0
  155.1706  136.3610  162.3736 H   0  0  0  0  0  0  0  0  0  0  0  0
  152.3106  136.5644  163.5498 H   0  0  0  0  0  0  0  0  0  0  0  0
  153.5783  135.3368  163.9108 H   0  0  0  0  0  0  0  0  0  0  0  0
  153.3878  137.8954  165.2697 H   0  0  0  0  0  0  0  0  0  0  0  0
  154.9292  136.9689  165.0912 H   0  0  0  0  0  0  0  0  0  0  0  0
  155.4595  138.5791  163.3484 H   0  0  0  0  0  0  0  0  0  0  0  0
  153.7185  138.9880  163.1135 H   0  0  0  0  0  0  0  0  0  0  0  0
  1  2  1  0  0  0  0
  1 20  1  0  0  0  0
  1 21  1  0  0  0  0
  1 22  1  0  0  0  0
  2  3  1  0  0  0  0
  3  4  1  0  0  0  0
  3 23  1  0  0  0  0
  3 24  1  0  0  0  0
  4  5  1  0  0  0  0
  4 25  1  0  0  0  0
  4 26  1  0  0  0  0
  5  6  1  0  0  0  0
  6 11  1  0  0  0  0
  6  7  2  0  0  0  0
  7  8  1  0  0  0  0
  8  9  2  0  0  0  0
  8 27  1  0  0  0  0
  9 10  1  0  0  0  0
  9 28  1  0  0  0  0
 10 11  2  0  0  0  0
 10 29  1  0  0  0  0
 11 12  1  0  0  0  0
 12 13  1  0  0  0  0
 12 30  1  0  0  0  0
 12 31  1  0  0  0  0
 13 14  1  0  0  0  0
 13 32  1  0  0  0  0
 14 15  2  0  0  0  0
 14 16  1  0  0  0  0
 16 19  1  0  0  0  0
 16 17  1  0  0  0  0
 16 33  1  0  0  0  0
 17 18  1  0  0  0  0
 17 34  1  0  0  0  0
 17 35  1  0  0  0  0
 18 19  1  0  0  0  0
 18 36  1  0  0  0  0
 18 37  1  0  0  0  0
 19 38  1  0  0  0  0
 19 39  1  0  0  0  0
M  END
> <s_m_source_file>
AV-unprocessed.smi

> <i_m_source_file_index>
1192

> <i_lp_mmshare_version>
43012

> <i_f3d_flags>
0

> <s_epik_input>
W0NIM11PW0NIMl1bQ0gyXU9jMW5bY0hdW2NIXVtjSF1jMVtDSDJdW05IXUMoPU8pW0NIXTJbQ0gyXVtDSDJdW0NIMl0y

> <s_epik_cmdline>
J2VwaWtfcHl0aG9uJywgJy1waCcsICc3LjAnLCAnLXRuJywgJzgnLCAnLW1hJywgJzIwMCcsICctbWV0YWxfYmluZGluZycsICctaW1hZScsICc8aW5maWxlLm1hZT4nLCAnLW9tYWUnLCAnPG91dGZpbGUubWFlPic=

> <r_lp_tautomer_probability>
1

> <r_epik_Ionization_Penalty>
6.50215e-05

> <r_epik_Ionization_Penalty_Charging>
0

> <r_epik_Ionization_Penalty_Neutral>
6.50215e-05

> <r_epik_State_Penalty>
-0

> <r_epik_Charging_Adjusted_Penalty>
0

> <i_epik_Tot_Q>
0

> <i_epik_Tot_abs_Q>
0

> <r_epik_Metal_State_Penalty>
-0

> <b_epik_Metal_Only>
0

> <s_lp_Force_Field>
OPLS_2005

> <r_lp_Energy>
11.4086

> <b_lp_Chiralities_Consistent>
1

> <s_lp_Variant>
AV-unprocessed.smi:1192-1

> <Gold.Version>
5.8.1

> <Gold.Id.Protein>
6NUR|6NUR_protein|mol2

> <Gold.PLP.Fitness>
45.2112

> <Gold.PLP.PLP>
-39.9609

> <Gold.PLP.part.hbond>
-2.0000

> <Gold.PLP.part.metal>
0.0000

> <Gold.PLP.part.buried>
-5.0259

> <Gold.PLP.part.nonpolar>
-32.0604

> <Gold.PLP.part.repulsive>
0.1095

> <Gold.PLP.ligand.clash>
0.0000

> <Gold.PLP.ligand.torsion>
0.6079

> <Gold.PLP.Chemscore.Hbond>
2.0000

> <Gold.PLP.Chemscore.CHOScore>
0.0000

> <Gold.PLP.Chemscore.Metal>
0.0000

> <Gold.Chemscore.Hbonds>
donor molecule, donor type, donor heavy atom, donor atom, acceptor molecule, acceptor atom, score
      P1  H  6896  6909       L1    15  1.00
      P1  H  7989  7998       L1     2  1.00

> <Gold.PLP.Chemscore.Internal.Correction>
0.4661

> <Gold.Rescore>
     Score         DG    S(hbond)    S(metal)    S(lipo)     H(rot)  DE(clash)    DE(int)     intcor
     15.76     -17.32       1.85        0.00      94.94       2.12       0.07       1.49       ----

> <Gold.Chemscore.Fitness>
15.7627

> <Gold.Chemscore.DG>
-17.3186

> <Gold.Chemscore.ZeroCoef>
-5.4800

> <Gold.Chemscore.Hbond>
1.8454

> <Gold.Chemscore.Metal>
0.0000

> <Gold.Chemscore.Lipo>
94.9367

> <Gold.Chemscore.Internal_Hbond>
0.0000

> <Gold.Chemscore.DEClash>
0.0659

> <Gold.Chemscore.DEInternal>
1.4900

> <Gold.Chemscore.Rot>
2.1221

> <Gold.Chemscore.Internal.Correction>
   9.000000E+99

> <Gold.Chemscore.Hbonds>
donor molecule, donor type, donor heavy atom, donor atom, acceptor molecule, acceptor atom, score
      P1  H  6896  6909       L1    15  1.00
      P1  H  7989  7998       L1     2  0.23

> <Gold.Chemscore.Hbond.Weighted>
-6.1636

> <Gold.Chemscore.Metal.Weighted>
-0.0000

> <Gold.Chemscore.Lipo.Weighted>
-11.1076

> <Gold.Chemscore.Internal_Hbond.Weighted>
0.0000

> <Gold.Chemscore.DEClash.Weighted>
0.0659

> <Gold.Chemscore.DEInternal.Weighted>
1.4900

> <Gold.Chemscore.Rot.Weighted>
5.4326

> <Gold.Chemscore.Internal.Correction.Weighted>
   9.000000E+99

> <Gold.Protein.RotatedTorsions>
[ 6907 6896 6895 6894 ] final  147.93 input  -60.11 | X-H torsion
[ 7974 7965 7964 7962 ] final   -0.69 input  175.53 | X-H torsion
[ 8008 7997 7996 7995 ] final   59.26 input   59.86 | X-H torsion
[ 10167 10162 10161 10158 ] final  167.70 input  -65.29 | X-H torsion
[ 10718 10713 10712 10709 ] final  132.99 input   66.30 | X-H torsion
[ 10763 10752 10751 10750 ] final -175.80 input  -60.55 | X-H torsion
[ 11005 11000 10999 10996 ] final  -70.11 input  -57.11 | X-H torsion

> <Gold.Protein.ActiveResidues>
 VAL166  LYS551  ARG553  GLY616  TRP617  ASP618  TYR619  PRO620  LYS621  CYS622 
 ASP623  PHE694  ASN695  SER759  ASP760  ASP761  ALA762  ILE779  LEU786  VAL792 
 PHE793  MET794  SER795  GLU796  ALA797  LYS798  CYS799  TRP800  GLU811  SER814 

> <Gold.Protein.RotatedAtoms>
  152.1482  133.4505  159.4800 H   0  0  0  0  0  0  0  0  0  0  0  0  # atno 6907 bound_to 6896
  150.6893  134.2221  159.4410 H   0  0  0  0  0  0  0  0  0  0  0  0  # atno 6908 bound_to 6896
  152.0117  134.9872  160.0619 H   0  0  0  0  0  0  0  0  0  0  0  0  # atno 6909 bound_to 6896
  146.2425  140.1307  142.8338 H   0  0  0  0  0  0  0  0  0  0  0  0  # atno 7974 bound_to 7965
  155.5634  140.3488  155.4497 H   0  0  0  0  0  0  0  0  0  0  0  0  # atno 8008 bound_to 7997
  156.0498  140.1315  157.0089 H   0  0  0  0  0  0  0  0  0  0  0  0  # atno 8009 bound_to 7997
  154.4429  140.1007  156.6344 H   0  0  0  0  0  0  0  0  0  0  0  0  # atno 8010 bound_to 7997
  139.4951  144.3894  151.9534 H   0  0  0  0  0  0  0  0  0  0  0  0  # atno 10167 bound_to 10162
  157.4817  131.1086  150.9673 H   0  0  0  0  0  0  0  0  0  0  0  0  # atno 10718 bound_to 10713
  154.5800  135.2835  155.0742 H   0  0  0  0  0  0  0  0  0  0  0  0  # atno 10763 bound_to 10752
  154.2082  135.6412  153.5111 H   0  0  0  0  0  0  0  0  0  0  0  0  # atno 10764 bound_to 10752
  153.0085  135.5485  154.6451 H   0  0  0  0  0  0  0  0  0  0  0  0  # atno 10765 bound_to 10752
  141.1567  133.6781  156.6702 H   0  0  0  0  0  0  0  0  0  0  0  0  # atno 11005 bound_to 11000
  145.0328  140.8884  143.5099 LP  0  0  0  0  0  0  0  0  0  0  0  0  # atno 17320 bound_to 7965
  145.1374  139.2593  143.5508 LP  0  0  0  0  0  0  0  0  0  0  0  0  # atno 17321 bound_to 7965
  140.3331  144.3293  150.5983 LP  0  0  0  0  0  0  0  0  0  0  0  0  # atno 17342 bound_to 10162
  140.5628  143.2190  151.7735 LP  0  0  0  0  0  0  0  0  0  0  0  0  # atno 17343 bound_to 10162
  157.0404  130.5747  149.5355 LP  0  0  0  0  0  0  0  0  0  0  0  0  # atno 17370 bound_to 10713
  156.0125  130.5217  150.8033 LP  0  0  0  0  0  0  0  0  0  0  0  0  # atno 17371 bound_to 10713
  140.3181  134.8031  157.4230 LP  0  0  0  0  0  0  0  0  0  0  0  0  # atno 17394 bound_to 11000
  140.1121  134.5332  155.8257 LP  0  0  0  0  0  0  0  0  0  0  0  0  # atno 17395 bound_to 11000

$$$$
