AV-unprocessed.smi:2401|AV-procd|sdf|9504|dock4
  -GOLD-   2272013133D 1   1.00000     0.00000
 Structure written by MMmdl.
 34 35  0  0  0  0  0  0  0  0  1 V2000
  147.7880  136.2185  159.8588 C   0  0  0  0  0  0  0  0  0  0  0  0
  148.8967  137.0659  159.2599 C   0  0  0  0  0  0  0  0  0  0  0  0
  150.1906  136.7602  159.6915 N   0  0  0  0  0  0  0  0  0  0  0  0
  151.1975  137.4330  159.2384 C   0  0  0  0  0  0  0  0  0  0  0  0
  151.0313  138.4754  158.3119 N   0  0  0  0  0  0  0  0  0  0  0  0
  152.2571  139.1710  157.8849 C   0  0  0  0  0  0  0  0  0  0  0  0
  153.0364  139.7675  159.0781 C   0  0  1  0  0  0  0  0  0  0  0  0
  154.4216  139.6413  158.8227 O   0  0  0  0  0  0  0  0  0  0  0  0
  152.6472  141.2192  159.3130 C   0  0  0  0  0  0  0  0  0  0  0  0
  153.1245  141.9211  160.4422 C   0  0  0  0  0  0  0  0  0  0  0  0
  152.7626  143.2667  160.6470 C   0  0  0  0  0  0  0  0  0  0  0  0
  151.9242  143.9197  159.7229 C   0  0  0  0  0  0  0  0  0  0  0  0
  151.4799  145.5677  159.9743 Cl  0  0  0  0  0  0  0  0  0  0  0  0
  151.4501  143.2265  158.5924 C   0  0  0  0  0  0  0  0  0  0  0  0
  151.8119  141.8808  158.3873 C   0  0  0  0  0  0  0  0  0  0  0  0
  149.8036  138.8407  157.8414 C   0  0  0  0  0  0  0  0  0  0  0  0
  149.6683  139.7649  157.0369 O   0  0  0  0  0  0  0  0  0  0  0  0
  148.6678  138.0643  158.3638 C   0  0  0  0  0  0  0  0  0  0  0  0
  147.2813  138.4423  157.8574 C   0  0  0  0  0  0  0  0  0  0  0  0
  147.2392  135.6958  159.0750 H   0  0  0  0  0  0  0  0  0  0  0  0
  147.0901  136.8432  160.4172 H   0  0  0  0  0  0  0  0  0  0  0  0
  148.1864  135.4692  160.5440 H   0  0  0  0  0  0  0  0  0  0  0  0
  152.2260  137.2381  159.5472 H   0  0  0  0  0  0  0  0  0  0  0  0
  152.9084  138.5372  157.2789 H   0  0  0  0  0  0  0  0  0  0  0  0
  151.9647  139.9772  157.2090 H   0  0  0  0  0  0  0  0  0  0  0  0
  152.8191  139.2075  159.9887 H   0  0  0  0  0  0  0  0  0  0  0  0
  154.8555  139.4179  159.6322 H   0  0  0  0  0  0  0  0  0  0  0  0
  153.7715  141.4302  161.1545 H   0  0  0  0  0  0  0  0  0  0  0  0
  153.1298  143.7966  161.5135 H   0  0  0  0  0  0  0  0  0  0  0  0
  150.8093  143.7255  157.8804 H   0  0  0  0  0  0  0  0  0  0  0  0
  151.4457  141.3590  157.5151 H   0  0  0  0  0  0  0  0  0  0  0  0
  147.0608  139.4807  158.1070 H   0  0  0  0  0  0  0  0  0  0  0  0
  146.4874  137.8282  158.2789 H   0  0  0  0  0  0  0  0  0  0  0  0
  147.2361  138.3373  156.7730 H   0  0  0  0  0  0  0  0  0  0  0  0
  1  2  1  0  0  0  0
  1 20  1  0  0  0  0
  1 21  1  0  0  0  0
  1 22  1  0  0  0  0
  2 18  2  0  0  0  0
  2  3  1  0  0  0  0
  3  4  2  0  0  0  0
  4  5  1  0  0  0  0
  4 23  1  0  0  0  0
  5  6  1  0  0  0  0
  5 16  1  0  0  0  0
  6  7  1  0  0  0  0
  6 24  1  0  0  0  0
  6 25  1  0  0  0  0
  7  8  1  0  0  0  0
  7  9  1  0  0  0  0
  7 26  1  0  0  0  0
  8 27  1  0  0  0  0
  9 15  1  0  0  0  0
  9 10  2  0  0  0  0
 10 11  1  0  0  0  0
 10 28  1  0  0  0  0
 11 12  2  0  0  0  0
 11 29  1  0  0  0  0
 12 13  1  0  0  0  0
 12 14  1  0  0  0  0
 14 15  2  0  0  0  0
 14 30  1  0  0  0  0
 15 31  1  0  0  0  0
 16 17  2  0  0  0  0
 16 18  1  0  0  0  0
 18 19  1  0  0  0  0
 19 32  1  0  0  0  0
 19 33  1  0  0  0  0
 19 34  1  0  0  0  0
M  END
> <s_m_source_file>
AV-unprocessed.smi

> <i_m_source_file_index>
2401

> <i_lp_mmshare_version>
43012

> <i_f3d_flags>
0

> <s_epik_input>
W0NIM11jMW5bY0hdbihjKD1PKWMxW0NIM10pW0NIMl1bQ0BIXShbT0hdKWMyW2NIXVtjSF1jKENsKVtjSF1bY0hdMg==

> <s_epik_cmdline>
J2VwaWtfcHl0aG9uJywgJy1waCcsICc3LjAnLCAnLXRuJywgJzgnLCAnLW1hJywgJzIwMCcsICctbWV0YWxfYmluZGluZycsICctaW1hZScsICc8aW5maWxlLm1hZT4nLCAnLW9tYWUnLCAnPG91dGZpbGUubWFlPic=

> <r_lp_tautomer_probability>
1

> <r_epik_Ionization_Penalty>
5.07713e-05

> <r_epik_Ionization_Penalty_Charging>
7.56727e-08

> <r_epik_Ionization_Penalty_Neutral>
5.06957e-05

> <r_epik_State_Penalty>
-0

> <r_epik_Charging_Adjusted_Penalty>
7.56727e-08

> <i_epik_Tot_Q>
0

> <i_epik_Tot_abs_Q>
0

> <r_epik_Metal_State_Penalty>
-0

> <b_epik_Metal_Only>
0

> <s_lp_Force_Field>
OPLS_2005

> <r_lp_Energy>
18.5783

> <b_lp_Chiralities_Consistent>
1

> <s_lp_Variant>
AV-unprocessed.smi:2401-2

> <Gold.Version>
5.8.1

> <Gold.Id.Protein>
6NUR|6NUR_protein|mol2

> <Gold.PLP.Fitness>
41.6081

> <Gold.PLP.PLP>
-36.7501

> <Gold.PLP.part.hbond>
-2.0000

> <Gold.PLP.part.metal>
0.0000

> <Gold.PLP.part.buried>
-5.0209

> <Gold.PLP.part.nonpolar>
-29.9016

> <Gold.PLP.part.repulsive>
0.0000

> <Gold.PLP.ligand.clash>
0.0000

> <Gold.PLP.ligand.torsion>
0.5748

> <Gold.PLP.Chemscore.Hbond>
2.0000

> <Gold.PLP.Chemscore.CHOScore>
0.0000

> <Gold.PLP.Chemscore.Metal>
0.0000

> <Gold.Chemscore.Hbonds>
donor molecule, donor type, donor heavy atom, donor atom, acceptor molecule, acceptor atom, score
      P1  H  6896  6908       L1     3  1.00
      P1  H  7997  8009       L1     8  1.00

> <Gold.PLP.Chemscore.Internal.Correction>
0.0077

> <Gold.Rescore>
     Score         DG    S(hbond)    S(metal)    S(lipo)     H(rot)  DE(clash)    DE(int)     intcor
     17.65     -18.41       1.91        0.00      98.12       1.93       0.00       0.76       ----

> <Gold.Chemscore.Fitness>
17.6507

> <Gold.Chemscore.DG>
-18.4081

> <Gold.Chemscore.ZeroCoef>
-5.4800

> <Gold.Chemscore.Hbond>
1.9100

> <Gold.Chemscore.Metal>
0.0000

> <Gold.Chemscore.Lipo>
98.1226

> <Gold.Chemscore.Internal_Hbond>
0.0000

> <Gold.Chemscore.DEClash>
0.0015

> <Gold.Chemscore.DEInternal>
0.7559

> <Gold.Chemscore.Rot>
1.9265

> <Gold.Chemscore.Internal.Correction>
   9.000000E+99

> <Gold.Chemscore.Hbonds>
donor molecule, donor type, donor heavy atom, donor atom, acceptor molecule, acceptor atom, score
      P1  H  6896  6908       L1     3  0.38
      P1  H  7997  8009       L1     8  0.90

> <Gold.Chemscore.Hbond.Weighted>
-6.3795

> <Gold.Chemscore.Metal.Weighted>
-0.0000

> <Gold.Chemscore.Lipo.Weighted>
-11.4803

> <Gold.Chemscore.Internal_Hbond.Weighted>
0.0000

> <Gold.Chemscore.DEClash.Weighted>
0.0015

> <Gold.Chemscore.DEInternal.Weighted>
0.7559

> <Gold.Chemscore.Rot.Weighted>
4.9317

> <Gold.Chemscore.Internal.Correction.Weighted>
   9.000000E+99

> <Gold.Protein.RotatedTorsions>
[ 6907 6896 6895 6894 ] final -166.79 input  -60.11 | X-H torsion
[ 7974 7965 7964 7962 ] final   31.26 input  175.53 | X-H torsion
[ 8008 7997 7996 7995 ] final  134.16 input   59.86 | X-H torsion
[ 10167 10162 10161 10158 ] final   93.71 input  -65.29 | X-H torsion
[ 10718 10713 10712 10709 ] final  120.94 input   66.30 | X-H torsion
[ 10763 10752 10751 10750 ] final  -99.18 input  -60.55 | X-H torsion
[ 11005 11000 10999 10996 ] final  143.10 input  -57.11 | X-H torsion

> <Gold.Protein.ActiveResidues>
 VAL166  LYS551  ARG553  GLY616  TRP617  ASP618  TYR619  PRO620  LYS621  CYS622 
 ASP623  PHE694  ASN695  SER759  ASP760  ASP761  ALA762  ILE779  LEU786  VAL792 
 PHE793  MET794  SER795  GLU796  ALA797  LYS798  CYS799  TRP800  GLU811  SER814 

> <Gold.Protein.RotatedAtoms>
  151.4491  133.3622  159.2792 H   0  0  0  0  0  0  0  0  0  0  0  0  # atno 6907 bound_to 6896
  150.9103  134.8521  159.7431 H   0  0  0  0  0  0  0  0  0  0  0  0  # atno 6908 bound_to 6896
  152.4929  134.4420  159.9598 H   0  0  0  0  0  0  0  0  0  0  0  0  # atno 6909 bound_to 6896
  146.1561  139.6680  142.9066 H   0  0  0  0  0  0  0  0  0  0  0  0  # atno 7974 bound_to 7965
  156.2997  140.2503  156.3372 H   0  0  0  0  0  0  0  0  0  0  0  0  # atno 8008 bound_to 7997
  154.9089  140.0404  157.1954 H   0  0  0  0  0  0  0  0  0  0  0  0  # atno 8009 bound_to 7997
  154.8425  140.2893  155.5654 H   0  0  0  0  0  0  0  0  0  0  0  0  # atno 8010 bound_to 7997
  139.8153  144.6755  150.9587 H   0  0  0  0  0  0  0  0  0  0  0  0  # atno 10167 bound_to 10162
  157.5854  131.1070  150.8104 H   0  0  0  0  0  0  0  0  0  0  0  0  # atno 10718 bound_to 10713
  154.7476  135.4982  153.9232 H   0  0  0  0  0  0  0  0  0  0  0  0  # atno 10763 bound_to 10752
  153.1109  135.6709  153.9510 H   0  0  0  0  0  0  0  0  0  0  0  0  # atno 10764 bound_to 10752
  153.9270  135.3082  155.3425 H   0  0  0  0  0  0  0  0  0  0  0  0  # atno 10765 bound_to 10752
  140.0527  134.9247  157.1046 H   0  0  0  0  0  0  0  0  0  0  0  0  # atno 11005 bound_to 11000
  145.4705  141.0436  143.2701 LP  0  0  0  0  0  0  0  0  0  0  0  0  # atno 17320 bound_to 7965
  144.7965  139.6224  143.7090 LP  0  0  0  0  0  0  0  0  0  0  0  0  # atno 17321 bound_to 7965
  140.7816  143.4144  151.0940 LP  0  0  0  0  0  0  0  0  0  0  0  0  # atno 17342 bound_to 10162
  139.7808  143.8358  152.3137 LP  0  0  0  0  0  0  0  0  0  0  0  0  # atno 17343 bound_to 10162
  156.8539  130.5090  149.5309 LP  0  0  0  0  0  0  0  0  0  0  0  0  # atno 17370 bound_to 10713
  156.0903  130.5891  150.9721 LP  0  0  0  0  0  0  0  0  0  0  0  0  # atno 17371 bound_to 10713
  140.3892  134.2203  155.7167 LP  0  0  0  0  0  0  0  0  0  0  0  0  # atno 17394 bound_to 11000
  141.1938  133.8143  157.0784 LP  0  0  0  0  0  0  0  0  0  0  0  0  # atno 17395 bound_to 11000

$$$$
