AV-unprocessed.smi:857|AV-procd|sdf|3961|dock6
  -GOLD-   22720 1433D 1   1.00000     0.00000
 Structure written by MMmdl.
 29 30  0  0  0  0  0  0  0  0  2 V2000
  151.6599  145.1288  159.2738 C   0  0  0  0  0  0  0  0  0  0  0  0
  151.9426  143.6941  158.8792 C   0  0  0  0  0  0  0  0  0  0  0  0
  152.9362  142.9519  159.5413 C   0  0  0  0  0  0  0  0  0  0  0  0
  153.2009  141.6079  159.1721 C   0  0  0  0  0  0  0  0  0  0  0  0
  154.2838  140.8827  159.9366 C   0  0  0  0  0  0  0  0  0  0  0  0
  154.9614  139.9930  159.3910 O   0  0  0  0  0  0  0  0  0  0  0  0
  154.4861  141.1960  161.1315 O   0  5  0  0  0  0  0  0  0  0  0  0
  152.4277  141.0304  158.1060 C   0  0  0  0  0  0  0  0  0  0  0  0
  152.2461  139.8005  157.3371 C   0  0  0  0  0  0  0  0  0  0  0  0
  152.9028  138.4475  157.3668 C   0  0  0  0  0  0  0  0  0  0  0  0
  151.2990  139.9399  156.4376 N   0  0  0  0  0  0  0  0  0  0  0  0
  150.8274  141.1984  156.5448 N   0  0  0  0  0  0  0  0  0  0  0  0
  149.7554  141.6209  155.6609 C   0  0  0  0  0  0  0  0  0  0  0  0
  149.3272  140.4885  154.7178 C   0  0  0  0  0  0  0  0  0  0  0  0
  149.2648  140.9676  153.3917 O   0  0  0  0  0  0  0  0  0  0  0  0
  151.4604  141.9184  157.5368 C   0  0  0  0  0  0  0  0  0  0  0  0
  151.1891  143.2098  157.8772 N   0  0  0  0  0  0  0  0  0  0  0  0
  152.3070  145.4515  160.0900 H   0  0  0  0  0  0  0  0  0  0  0  0
  150.6247  145.2353  159.5993 H   0  0  0  0  0  0  0  0  0  0  0  0
  151.8251  145.7947  158.4263 H   0  0  0  0  0  0  0  0  0  0  0  0
  153.4922  143.4275  160.3365 H   0  0  0  0  0  0  0  0  0  0  0  0
  153.6817  138.3169  158.1009 H   0  0  0  0  0  0  0  0  0  0  0  0
  153.3534  138.2207  156.4001 H   0  0  0  0  0  0  0  0  0  0  0  0
  152.1652  137.6689  157.5623 H   0  0  0  0  0  0  0  0  0  0  0  0
  148.9122  141.9495  156.2699 H   0  0  0  0  0  0  0  0  0  0  0  0
  150.0864  142.4900  155.0900 H   0  0  0  0  0  0  0  0  0  0  0  0
  150.0350  139.6602  154.7641 H   0  0  0  0  0  0  0  0  0  0  0  0
  148.3486  140.1003  155.0018 H   0  0  0  0  0  0  0  0  0  0  0  0
  149.3426  140.2330  152.8020 H   0  0  0  0  0  0  0  0  0  0  0  0
  1  2  1  0  0  0  0
  1 18  1  0  0  0  0
  1 19  1  0  0  0  0
  1 20  1  0  0  0  0
  2 17  1  0  0  0  0
  2  3  2  0  0  0  0
  3  4  1  0  0  0  0
  3 21  1  0  0  0  0
  4  5  1  0  0  0  0
  4  8  2  0  0  0  0
  5  6  2  0  0  0  0
  5  7  1  0  0  0  0
  8 16  1  0  0  0  0
  8  9  1  0  0  0  0
  9 10  1  0  0  0  0
  9 11  2  0  0  0  0
 10 22  1  0  0  0  0
 10 23  1  0  0  0  0
 10 24  1  0  0  0  0
 11 12  1  0  0  0  0
 12 13  1  0  0  0  0
 12 16  1  0  0  0  0
 13 14  1  0  0  0  0
 13 25  1  0  0  0  0
 13 26  1  0  0  0  0
 14 15  1  0  0  0  0
 14 27  1  0  0  0  0
 14 28  1  0  0  0  0
 15 29  1  0  0  0  0
 16 17  2  0  0  0  0
M  CHG  1   7  -1
M  END
> <s_m_source_file>
AV-unprocessed.smi

> <i_m_source_file_index>
857

> <i_lp_mmshare_version>
43012

> <i_f3d_flags>
0

> <s_epik_input>
Tz1DKFtPSF0pYzFbY0hdYyhbQ0gzXSluYyhjMTIpbihuYzJbQ0gzXSlbQ0gyXVtDSDJdW09IXQ==

> <s_epik_cmdline>
J2VwaWtfcHl0aG9uJywgJy1waCcsICc3LjAnLCAnLXRuJywgJzgnLCAnLW1hJywgJzIwMCcsICctbWV0YWxfYmluZGluZycsICctaW1hZScsICc8aW5maWxlLm1hZT4nLCAnLW9tYWUnLCAnPG91dGZpbGUubWFlPic=

> <r_lp_tautomer_probability>
1

> <r_epik_Ionization_Penalty>
0.000221063

> <r_epik_Ionization_Penalty_Charging>
0.000215421

> <r_epik_Ionization_Penalty_Neutral>
5.64189e-06

> <r_epik_State_Penalty>
-0

> <r_epik_Charging_Adjusted_Penalty>
0.000215421

> <i_epik_Tot_Q>
-1

> <i_epik_Tot_abs_Q>
1

> <r_epik_Metal_State_Penalty>
-0

> <b_epik_Metal_Only>
0

> <s_lp_Force_Field>
OPLS_2005

> <r_lp_Energy>
11.0008

> <b_lp_Chiralities_Consistent>
1

> <s_lp_Variant>
AV-unprocessed.smi:857-1

> <Gold.Version>
5.8.1

> <Gold.Id.Protein>
6NUR|6NUR_protein|mol2

> <Gold.PLP.Fitness>
45.9023

> <Gold.PLP.PLP>
-35.8991

> <Gold.PLP.part.hbond>
-4.1976

> <Gold.PLP.part.metal>
0.0000

> <Gold.PLP.part.buried>
-4.7771

> <Gold.PLP.part.nonpolar>
-26.9170

> <Gold.PLP.part.repulsive>
0.1181

> <Gold.PLP.ligand.clash>
0.0000

> <Gold.PLP.ligand.torsion>
0.7246

> <Gold.PLP.Chemscore.Hbond>
3.8170

> <Gold.PLP.Chemscore.CHOScore>
0.0000

> <Gold.PLP.Chemscore.Metal>
0.0000

> <Gold.Chemscore.Hbonds>
donor molecule, donor type, donor heavy atom, donor atom, acceptor molecule, acceptor atom, score
      L1  H    15    29       P1  7957  0.70
      P1  H  7997  8008       L1     6  1.92
      P1  H  8011  8017       L1    15  1.00

> <Gold.PLP.Chemscore.Internal.Correction>
0.0014

> <Gold.Rescore>
     Score         DG    S(hbond)    S(metal)    S(lipo)     H(rot)  DE(clash)    DE(int)     intcor
     16.61     -17.46       2.32        0.00      76.40       1.84       0.04       0.81       ----

> <Gold.Chemscore.Fitness>
16.6070

> <Gold.Chemscore.DG>
-17.4611

> <Gold.Chemscore.ZeroCoef>
-5.4800

> <Gold.Chemscore.Hbond>
2.3248

> <Gold.Chemscore.Metal>
0.0000

> <Gold.Chemscore.Lipo>
76.4003

> <Gold.Chemscore.Internal_Hbond>
0.0000

> <Gold.Chemscore.DEClash>
0.0402

> <Gold.Chemscore.DEInternal>
0.8138

> <Gold.Chemscore.Rot>
1.8448

> <Gold.Chemscore.Internal.Correction>
   9.000000E+99

> <Gold.Chemscore.Hbonds>
donor molecule, donor type, donor heavy atom, donor atom, acceptor molecule, acceptor atom, score
      L1  H    15    29       P1  7957  0.70
      P1  H  7997  8008       L1     6  0.86
      P1  H  8011  8017       L1    15  0.39

> <Gold.Chemscore.Hbond.Weighted>
-7.7649

> <Gold.Chemscore.Metal.Weighted>
-0.0000

> <Gold.Chemscore.Lipo.Weighted>
-8.9388

> <Gold.Chemscore.Internal_Hbond.Weighted>
0.0000

> <Gold.Chemscore.DEClash.Weighted>
0.0402

> <Gold.Chemscore.DEInternal.Weighted>
0.8138

> <Gold.Chemscore.Rot.Weighted>
4.7226

> <Gold.Chemscore.Internal.Correction.Weighted>
   9.000000E+99

> <Gold.Protein.RotatedTorsions>
[ 6907 6896 6895 6894 ] final -136.30 input  -60.11 | X-H torsion
[ 7974 7965 7964 7962 ] final  -41.55 input  175.53 | X-H torsion
[ 8008 7997 7996 7995 ] final -129.48 input   59.86 | X-H torsion
[ 10167 10162 10161 10158 ] final  -15.86 input  -65.29 | X-H torsion
[ 10718 10713 10712 10709 ] final -105.15 input   66.30 | X-H torsion
[ 10763 10752 10751 10750 ] final   21.18 input  -60.55 | X-H torsion
[ 11005 11000 10999 10996 ] final  113.60 input  -57.11 | X-H torsion

> <Gold.Protein.ActiveResidues>
 VAL166  LYS551  ARG553  GLY616  TRP617  ASP618  TYR619  PRO620  LYS621  CYS622 
 ASP623  PHE694  ASN695  SER759  ASP760  ASP761  ALA762  ILE779  LEU786  VAL792 
 PHE793  MET794  SER795  GLU796  ALA797  LYS798  CYS799  TRP800  GLU811  SER814 

> <Gold.Protein.RotatedAtoms>
  151.0084  133.5989  159.2685 H   0  0  0  0  0  0  0  0  0  0  0  0  # atno 6907 bound_to 6896
  151.3149  135.0803  159.9295 H   0  0  0  0  0  0  0  0  0  0  0  0  # atno 6908 bound_to 6896
  152.5293  133.9742  159.7830 H   0  0  0  0  0  0  0  0  0  0  0  0  # atno 6909 bound_to 6896
  146.0200  140.6861  142.9183 H   0  0  0  0  0  0  0  0  0  0  0  0  # atno 7974 bound_to 7965
  155.2800  140.0443  157.3014 H   0  0  0  0  0  0  0  0  0  0  0  0  # atno 8008 bound_to 7997
  154.5602  140.2344  155.8315 H   0  0  0  0  0  0  0  0  0  0  0  0  # atno 8009 bound_to 7997
  156.2041  140.3017  155.9597 H   0  0  0  0  0  0  0  0  0  0  0  0  # atno 8010 bound_to 7997
  140.7225  143.5175  150.9674 H   0  0  0  0  0  0  0  0  0  0  0  0  # atno 10167 bound_to 10162
  156.0334  130.5549  150.7498 H   0  0  0  0  0  0  0  0  0  0  0  0  # atno 10718 bound_to 10713
  153.1016  135.6674  153.9663 H   0  0  0  0  0  0  0  0  0  0  0  0  # atno 10763 bound_to 10752
  153.9232  135.3012  155.3448 H   0  0  0  0  0  0  0  0  0  0  0  0  # atno 10764 bound_to 10752
  154.7437  135.5068  153.9241 H   0  0  0  0  0  0  0  0  0  0  0  0  # atno 10765 bound_to 10752
  139.8957  134.9553  156.6764 H   0  0  0  0  0  0  0  0  0  0  0  0  # atno 11005 bound_to 11000
  144.6986  140.3550  143.7175 LP  0  0  0  0  0  0  0  0  0  0  0  0  # atno 17320 bound_to 7965
  145.7208  139.1709  143.2486 LP  0  0  0  0  0  0  0  0  0  0  0  0  # atno 17321 bound_to 7965
  139.8891  143.6976  152.3147 LP  0  0  0  0  0  0  0  0  0  0  0  0  # atno 17342 bound_to 10162
  139.7285  144.7587  151.0840 LP  0  0  0  0  0  0  0  0  0  0  0  0  # atno 17343 bound_to 10162
  157.5045  131.0921  151.0274 LP  0  0  0  0  0  0  0  0  0  0  0  0  # atno 17370 bound_to 10713
  157.0646  130.5839  149.5391 LP  0  0  0  0  0  0  0  0  0  0  0  0  # atno 17371 bound_to 10713
  140.7333  133.9040  155.8226 LP  0  0  0  0  0  0  0  0  0  0  0  0  # atno 17394 bound_to 11000
  141.0136  134.0987  157.4196 LP  0  0  0  0  0  0  0  0  0  0  0  0  # atno 17395 bound_to 11000

$$$$
