AV-unprocessed.smi:2254|AV-procd|sdf|9123|dock1
  -GOLD-   2272012323D 1   1.00000     0.00000
 Structure written by MMmdl.
 41 42  0  0  0  0  0  0  0  0  1 V2000
  147.3940  140.9639  157.0308 C   0  0  0  0  0  0  0  0  0  0  0  0
  148.6072  140.0853  156.7815 C   0  0  0  0  0  0  0  0  0  0  0  0
  148.7718  139.0170  157.6680 N   0  0  0  0  0  0  0  0  0  0  0  0
  149.7845  138.2234  157.5403 C   0  0  0  0  0  0  0  0  0  0  0  0
  150.7385  138.4032  156.5261 N   0  0  0  0  0  0  0  0  0  0  0  0
  151.8460  137.4351  156.4937 C   0  0  0  0  0  0  0  0  0  0  0  0
  153.1729  138.0563  156.9890 C   0  0  2  0  0  0  0  0  0  0  0  0
  154.2202  137.1318  156.7742 O   0  0  0  0  0  0  0  0  0  0  0  0
  153.1417  138.3731  158.4917 C   0  0  0  0  0  0  0  0  0  0  0  0
  153.5762  139.7100  158.6739 O   0  0  0  0  0  0  0  0  0  0  0  0
  153.5384  140.1326  160.0265 C   0  0  0  0  0  0  0  0  0  0  0  0
  152.9672  141.5311  160.1735 C   0  0  0  0  0  0  0  0  0  0  0  0
  152.6511  142.3042  159.0347 C   0  0  0  0  0  0  0  0  0  0  0  0
  152.1361  143.6066  159.1829 C   0  0  0  0  0  0  0  0  0  0  0  0
  151.9406  144.1456  160.4693 C   0  0  0  0  0  0  0  0  0  0  0  0
  151.3109  145.7419  160.6505 Cl  0  0  0  0  0  0  0  0  0  0  0  0
  152.2627  143.3816  161.6078 C   0  0  0  0  0  0  0  0  0  0  0  0
  152.7775  142.0787  161.4599 C   0  0  0  0  0  0  0  0  0  0  0  0
  150.6421  139.4058  155.6053 C   0  0  0  0  0  0  0  0  0  0  0  0
  151.4705  139.5368  154.7019 O   0  0  0  0  0  0  0  0  0  0  0  0
  149.4891  140.3060  155.7683 C   0  0  0  0  0  0  0  0  0  0  0  0
  149.3624  141.4540  154.7746 C   0  0  0  0  0  0  0  0  0  0  0  0
  146.7248  140.9441  156.1703 H   0  0  0  0  0  0  0  0  0  0  0  0
  147.6994  141.9947  157.2124 H   0  0  0  0  0  0  0  0  0  0  0  0
  146.8302  140.6252  157.9010 H   0  0  0  0  0  0  0  0  0  0  0  0
  149.9571  137.3732  158.2025 H   0  0  0  0  0  0  0  0  0  0  0  0
  151.5736  136.5899  157.1288 H   0  0  0  0  0  0  0  0  0  0  0  0
  151.9721  136.9837  155.5071 H   0  0  0  0  0  0  0  0  0  0  0  0
  153.4087  138.9726  156.4459 H   0  0  0  0  0  0  0  0  0  0  0  0
  154.2360  136.9028  155.8575 H   0  0  0  0  0  0  0  0  0  0  0  0
  152.1373  138.2350  158.8961 H   0  0  0  0  0  0  0  0  0  0  0  0
  153.8112  137.7015  159.0320 H   0  0  0  0  0  0  0  0  0  0  0  0
  152.9336  139.4359  160.6095 H   0  0  0  0  0  0  0  0  0  0  0  0
  154.5448  140.1250  160.4478 H   0  0  0  0  0  0  0  0  0  0  0  0
  152.8006  141.9043  158.0425 H   0  0  0  0  0  0  0  0  0  0  0  0
  151.8934  144.1914  158.3077 H   0  0  0  0  0  0  0  0  0  0  0  0
  152.1169  143.7940  162.5954 H   0  0  0  0  0  0  0  0  0  0  0  0
  153.0253  141.5003  162.3379 H   0  0  0  0  0  0  0  0  0  0  0  0
  150.2232  142.1183  154.8577 H   0  0  0  0  0  0  0  0  0  0  0  0
  148.4668  142.0550  154.9232 H   0  0  0  0  0  0  0  0  0  0  0  0
  149.3309  141.0680  153.7553 H   0  0  0  0  0  0  0  0  0  0  0  0
  1  2  1  0  0  0  0
  1 23  1  0  0  0  0
  1 24  1  0  0  0  0
  1 25  1  0  0  0  0
  2 21  2  0  0  0  0
  2  3  1  0  0  0  0
  3  4  2  0  0  0  0
  4  5  1  0  0  0  0
  4 26  1  0  0  0  0
  5  6  1  0  0  0  0
  5 19  1  0  0  0  0
  6  7  1  0  0  0  0
  6 27  1  0  0  0  0
  6 28  1  0  0  0  0
  7  8  1  0  0  0  0
  7  9  1  0  0  0  0
  7 29  1  0  0  0  0
  8 30  1  0  0  0  0
  9 10  1  0  0  0  0
  9 31  1  0  0  0  0
  9 32  1  0  0  0  0
 10 11  1  0  0  0  0
 11 12  1  0  0  0  0
 11 33  1  0  0  0  0
 11 34  1  0  0  0  0
 12 18  1  0  0  0  0
 12 13  2  0  0  0  0
 13 14  1  0  0  0  0
 13 35  1  0  0  0  0
 14 15  2  0  0  0  0
 14 36  1  0  0  0  0
 15 16  1  0  0  0  0
 15 17  1  0  0  0  0
 17 18  2  0  0  0  0
 17 37  1  0  0  0  0
 18 38  1  0  0  0  0
 19 20  2  0  0  0  0
 19 21  1  0  0  0  0
 21 22  1  0  0  0  0
 22 39  1  0  0  0  0
 22 40  1  0  0  0  0
 22 41  1  0  0  0  0
M  END
> <s_m_source_file>
AV-unprocessed.smi

> <i_m_source_file_index>
2254

> <i_lp_mmshare_version>
43012

> <i_f3d_flags>
0

> <s_epik_input>
W0NIM11jMW5bY0hdbihjKD1PKWMxW0NIM10pW0NIMl1bQ0BIXShbT0hdKVtDSDJdT1tDSDJdYzJbY0hdW2NIXWMoQ2wpW2NIXVtjSF0y

> <s_epik_cmdline>
J2VwaWtfcHl0aG9uJywgJy1waCcsICc3LjAnLCAnLXRuJywgJzgnLCAnLW1hJywgJzIwMCcsICctbWV0YWxfYmluZGluZycsICctaW1hZScsICc8aW5maWxlLm1hZT4nLCAnLW9tYWUnLCAnPG91dGZpbGUubWFlPic=

> <r_lp_tautomer_probability>
1

> <r_epik_Ionization_Penalty>
5.36e-05

> <r_epik_Ionization_Penalty_Charging>
1.17753e-07

> <r_epik_Ionization_Penalty_Neutral>
5.34822e-05

> <r_epik_State_Penalty>
-0

> <r_epik_Charging_Adjusted_Penalty>
1.17753e-07

> <i_epik_Tot_Q>
0

> <i_epik_Tot_abs_Q>
0

> <r_epik_Metal_State_Penalty>
-0

> <b_epik_Metal_Only>
0

> <s_lp_Force_Field>
OPLS_2005

> <r_lp_Energy>
20.9698

> <b_lp_Chiralities_Consistent>
1

> <s_lp_Variant>
AV-unprocessed.smi:2254-1

> <Gold.Version>
5.8.1

> <Gold.Id.Protein>
6NUR|6NUR_protein|mol2

> <Gold.PLP.Fitness>
45.3049

> <Gold.PLP.PLP>
-41.5213

> <Gold.PLP.part.hbond>
-2.9033

> <Gold.PLP.part.metal>
0.0000

> <Gold.PLP.part.buried>
-3.7963

> <Gold.PLP.part.nonpolar>
-35.1232

> <Gold.PLP.part.repulsive>
0.0704

> <Gold.PLP.ligand.clash>
0.0000

> <Gold.PLP.ligand.torsion>
1.2324

> <Gold.PLP.Chemscore.Hbond>
2.0000

> <Gold.PLP.Chemscore.CHOScore>
0.0000

> <Gold.PLP.Chemscore.Metal>
0.0000

> <Gold.Chemscore.Hbonds>
donor molecule, donor type, donor heavy atom, donor atom, acceptor molecule, acceptor atom, score
      P1  H  7989  7998       L1    20  1.00
      P1  H  7997  8010       L1    10  1.00

> <Gold.PLP.Chemscore.Internal.Correction>
0.2484

> <Gold.Rescore>
     Score         DG    S(hbond)    S(metal)    S(lipo)     H(rot)  DE(clash)    DE(int)     intcor
     18.32     -19.66       1.90        0.00     122.13       2.52       0.18       1.15       ----

> <Gold.Chemscore.Fitness>
18.3224

> <Gold.Chemscore.DG>
-19.6582

> <Gold.Chemscore.ZeroCoef>
-5.4800

> <Gold.Chemscore.Hbond>
1.8955

> <Gold.Chemscore.Metal>
0.0000

> <Gold.Chemscore.Lipo>
122.1260

> <Gold.Chemscore.Internal_Hbond>
0.0000

> <Gold.Chemscore.DEClash>
0.1811

> <Gold.Chemscore.DEInternal>
1.1547

> <Gold.Chemscore.Rot>
2.5162

> <Gold.Chemscore.Internal.Correction>
   9.000000E+99

> <Gold.Chemscore.Hbonds>
donor molecule, donor type, donor heavy atom, donor atom, acceptor molecule, acceptor atom, score
      P1  H  7989  7998       L1    20  1.00
      P1  H  7997  8010       L1    10  0.44

> <Gold.Chemscore.Hbond.Weighted>
-6.3309

> <Gold.Chemscore.Metal.Weighted>
-0.0000

> <Gold.Chemscore.Lipo.Weighted>
-14.2887

> <Gold.Chemscore.Internal_Hbond.Weighted>
0.0000

> <Gold.Chemscore.DEClash.Weighted>
0.1811

> <Gold.Chemscore.DEInternal.Weighted>
1.1547

> <Gold.Chemscore.Rot.Weighted>
6.4414

> <Gold.Chemscore.Internal.Correction.Weighted>
   9.000000E+99

> <Gold.Protein.RotatedTorsions>
[ 6907 6896 6895 6894 ] final   23.18 input  -60.11 | X-H torsion
[ 7974 7965 7964 7962 ] final  135.03 input  175.53 | X-H torsion
[ 8008 7997 7996 7995 ] final   19.93 input   59.86 | X-H torsion
[ 10167 10162 10161 10158 ] final  -29.10 input  -65.29 | X-H torsion
[ 10718 10713 10712 10709 ] final   83.33 input   66.30 | X-H torsion
[ 10763 10752 10751 10750 ] final   26.23 input  -60.55 | X-H torsion
[ 11005 11000 10999 10996 ] final  -73.20 input  -57.11 | X-H torsion

> <Gold.Protein.ActiveResidues>
 VAL166  LYS551  ARG553  GLY616  TRP617  ASP618  TYR619  PRO620  LYS621  CYS622 
 ASP623  PHE694  ASN695  SER759  ASP760  ASP761  ALA762  ILE779  LEU786  VAL792 
 PHE793  MET794  SER795  GLU796  ALA797  LYS798  CYS799  TRP800  GLU811  SER814 

> <Gold.Protein.RotatedAtoms>
  151.9385  135.0224  160.0533 H   0  0  0  0  0  0  0  0  0  0  0  0  # atno 6907 bound_to 6896
  152.2057  133.4869  159.5091 H   0  0  0  0  0  0  0  0  0  0  0  0  # atno 6908 bound_to 6896
  150.6964  134.1449  159.4161 H   0  0  0  0  0  0  0  0  0  0  0  0  # atno 6909 bound_to 6896
  144.9704  139.4612  143.5436 H   0  0  0  0  0  0  0  0  0  0  0  0  # atno 7974 bound_to 7965
  154.9281  140.3036  155.5182 H   0  0  0  0  0  0  0  0  0  0  0  0  # atno 8008 bound_to 7997
  156.3005  140.2359  156.4274 H   0  0  0  0  0  0  0  0  0  0  0  0  # atno 8009 bound_to 7997
  154.8264  140.0420  157.1435 H   0  0  0  0  0  0  0  0  0  0  0  0  # atno 8010 bound_to 7997
  140.7264  143.3956  151.1353 H   0  0  0  0  0  0  0  0  0  0  0  0  # atno 10167 bound_to 10162
  157.6876  131.0086  150.2508 H   0  0  0  0  0  0  0  0  0  0  0  0  # atno 10718 bound_to 10713
  153.0637  135.6565  154.0404 H   0  0  0  0  0  0  0  0  0  0  0  0  # atno 10763 bound_to 10752
  154.0066  135.2932  155.3398 H   0  0  0  0  0  0  0  0  0  0  0  0  # atno 10764 bound_to 10752
  154.6986  135.5254  153.8562 H   0  0  0  0  0  0  0  0  0  0  0  0  # atno 10765 bound_to 10752
  141.1619  133.6870  156.7175 H   0  0  0  0  0  0  0  0  0  0  0  0  # atno 11005 bound_to 11000
  146.3380  139.8912  142.8809 LP  0  0  0  0  0  0  0  0  0  0  0  0  # atno 17320 bound_to 7965
  145.2568  141.0063  143.3849 LP  0  0  0  0  0  0  0  0  0  0  0  0  # atno 17321 bound_to 7965
  139.7568  143.8696  152.3090 LP  0  0  0  0  0  0  0  0  0  0  0  0  # atno 17342 bound_to 10162
  139.8568  144.7137  150.9148 LP  0  0  0  0  0  0  0  0  0  0  0  0  # atno 17343 bound_to 10162
  156.3105  130.3771  149.7666 LP  0  0  0  0  0  0  0  0  0  0  0  0  # atno 17370 bound_to 10713
  156.5268  130.8240  151.3223 LP  0  0  0  0  0  0  0  0  0  0  0  0  # atno 17371 bound_to 10713
  140.2841  134.8293  157.3959 LP  0  0  0  0  0  0  0  0  0  0  0  0  # atno 17394 bound_to 11000
  140.1407  134.4976  155.8034 LP  0  0  0  0  0  0  0  0  0  0  0  0  # atno 17395 bound_to 11000

$$$$
