AV-unprocessed.smi:1734|AV-procd|sdf|6982|dock3
  -GOLD-   22720 8193D 1   1.00000     0.00000
 Structure written by MMmdl.
 50 52  0  0  0  0  0  0  0  0  1 V2000
  144.2535  135.7083  151.5082 C   0  0  0  0  0  0  0  0  0  0  0  0
  144.7968  134.3733  151.0249 C   0  0  0  0  0  0  0  0  0  0  0  0
  144.0012  133.5690  150.1814 C   0  0  0  0  0  0  0  0  0  0  0  0
  144.5052  132.3355  149.7352 C   0  0  0  0  0  0  0  0  0  0  0  0
  145.7924  131.9564  150.1531 C   0  0  0  0  0  0  0  0  0  0  0  0
  146.5589  132.7182  150.9596 N   0  0  0  0  0  0  0  0  0  0  0  0
  146.0868  133.9114  151.4005 C   0  0  0  0  0  0  0  0  0  0  0  0
  146.8347  134.7604  152.2640 N   0  0  0  0  0  0  0  0  0  0  0  0
  146.5188  135.1832  153.5007 C   0  0  0  0  0  0  0  0  0  0  0  0
  145.5307  134.8320  154.1460 O   0  0  0  0  0  0  0  0  0  0  0  0
  147.4255  136.0587  153.9576 N   0  0  0  0  0  0  0  0  0  0  0  0
  147.3541  136.7422  155.2439 C   0  0  0  0  0  0  0  0  0  0  0  0
  148.6291  137.5705  155.5862 C   0  0  2  0  0  0  0  0  0  0  0  0
  149.0720  137.3966  157.0690 C   0  0  1  0  0  0  0  0  0  0  0  0
  148.0059  137.6754  158.1210 C   0  0  0  0  0  0  0  0  0  0  0  0
  148.4639  136.8703  159.3384 C   0  0  0  0  0  0  0  0  0  0  0  0
  149.4365  135.9474  158.8634 O   0  0  0  0  0  0  0  0  0  0  0  0
  149.4325  135.9565  157.4448 C   0  0  0  0  0  0  0  0  0  0  0  0
  148.5188  138.9920  155.2134 N   0  0  0  0  0  0  0  0  0  0  0  0
  148.0375  139.2379  153.8550 C   0  0  0  0  0  0  0  0  0  0  0  0
  147.8344  140.7401  153.5926 C   0  0  0  0  0  0  0  0  0  0  0  0
  149.0455  141.4428  153.8549 O   0  0  0  0  0  0  0  0  0  0  0  0
  149.5101  141.2640  155.1897 C   0  0  0  0  0  0  0  0  0  0  0  0
  149.7322  139.7665  155.4617 C   0  0  0  0  0  0  0  0  0  0  0  0
  143.2607  135.9039  151.1020 H   0  0  0  0  0  0  0  0  0  0  0  0
  144.9082  136.5224  151.1959 H   0  0  0  0  0  0  0  0  0  0  0  0
  144.1795  135.7194  152.5960 H   0  0  0  0  0  0  0  0  0  0  0  0
  143.0153  133.8902  149.8786 H   0  0  0  0  0  0  0  0  0  0  0  0
  143.9208  131.6971  149.0893 H   0  0  0  0  0  0  0  0  0  0  0  0
  146.2182  131.0170  149.8329 H   0  0  0  0  0  0  0  0  0  0  0  0
  147.6971  135.1147  151.8781 H   0  0  0  0  0  0  0  0  0  0  0  0
  148.2094  136.2880  153.3643 H   0  0  0  0  0  0  0  0  0  0  0  0
  146.4595  137.3642  155.2351 H   0  0  0  0  0  0  0  0  0  0  0  0
  147.1840  135.9854  156.0099 H   0  0  0  0  0  0  0  0  0  0  0  0
  149.4451  137.1655  154.9865 H   0  0  0  0  0  0  0  0  0  0  0  0
  149.9325  138.0333  157.2785 H   0  0  0  0  0  0  0  0  0  0  0  0
  147.9025  138.7354  158.3535 H   0  0  0  0  0  0  0  0  0  0  0  0
  147.0358  137.3066  157.7846 H   0  0  0  0  0  0  0  0  0  0  0  0
  148.9229  137.5133  160.0898 H   0  0  0  0  0  0  0  0  0  0  0  0
  147.6296  136.3457  159.8050 H   0  0  0  0  0  0  0  0  0  0  0  0
  148.6746  135.2586  157.0849 H   0  0  0  0  0  0  0  0  0  0  0  0
  150.3996  135.6433  157.0506 H   0  0  0  0  0  0  0  0  0  0  0  0
  148.7502  138.8464  153.1286 H   0  0  0  0  0  0  0  0  0  0  0  0
  147.0950  138.7188  153.6838 H   0  0  0  0  0  0  0  0  0  0  0  0
  147.5417  140.9078  152.5562 H   0  0  0  0  0  0  0  0  0  0  0  0
  147.0339  141.1356  154.2199 H   0  0  0  0  0  0  0  0  0  0  0  0
  150.4413  141.8155  155.3203 H   0  0  0  0  0  0  0  0  0  0  0  0
  148.7882  141.6825  155.8928 H   0  0  0  0  0  0  0  0  0  0  0  0
  150.0562  139.6304  156.4940 H   0  0  0  0  0  0  0  0  0  0  0  0
  150.5465  139.4171  154.8281 H   0  0  0  0  0  0  0  0  0  0  0  0
  1  2  1  0  0  0  0
  1 25  1  0  0  0  0
  1 26  1  0  0  0  0
  1 27  1  0  0  0  0
  2  7  1  0  0  0  0
  2  3  2  0  0  0  0
  3  4  1  0  0  0  0
  3 28  1  0  0  0  0
  4  5  2  0  0  0  0
  4 29  1  0  0  0  0
  5  6  1  0  0  0  0
  5 30  1  0  0  0  0
  6  7  2  0  0  0  0
  7  8  1  0  0  0  0
  8  9  1  0  0  0  0
  8 31  1  0  0  0  0
  9 10  2  0  0  0  0
  9 11  1  0  0  0  0
 11 12  1  0  0  0  0
 11 32  1  0  0  0  0
 12 13  1  0  0  0  0
 12 33  1  0  0  0  0
 12 34  1  0  0  0  0
 13 14  1  0  0  0  0
 13 19  1  0  0  0  0
 13 35  1  0  0  0  0
 14 18  1  0  0  0  0
 14 15  1  0  0  0  0
 14 36  1  0  0  0  0
 15 16  1  0  0  0  0
 15 37  1  0  0  0  0
 15 38  1  0  0  0  0
 16 17  1  0  0  0  0
 16 39  1  0  0  0  0
 16 40  1  0  0  0  0
 17 18  1  0  0  0  0
 18 41  1  0  0  0  0
 18 42  1  0  0  0  0
 19 24  1  0  0  0  0
 19 20  1  0  0  0  0
 20 21  1  0  0  0  0
 20 43  1  0  0  0  0
 20 44  1  0  0  0  0
 21 22  1  0  0  0  0
 21 45  1  0  0  0  0
 21 46  1  0  0  0  0
 22 23  1  0  0  0  0
 23 24  1  0  0  0  0
 23 47  1  0  0  0  0
 23 48  1  0  0  0  0
 24 49  1  0  0  0  0
 24 50  1  0  0  0  0
M  END
> <s_m_source_file>
AV-unprocessed.smi

> <i_m_source_file_index>
1734

> <i_lp_mmshare_version>
43012

> <i_f3d_flags>
0

> <s_epik_input>
W0NIM11jMVtjSF1bY0hdW2NIXW5jMVtOSF1DKD1PKVtOSF1bQ0gyXVtDQEhdKFtDQEBIXTJbQ0gyXVtDSDJdT1tDSDJdMilOM1tDSDJdW0NIMl1PW0NIMl1bQ0gyXTM=

> <s_epik_cmdline>
J2VwaWtfcHl0aG9uJywgJy1waCcsICc3LjAnLCAnLXRuJywgJzgnLCAnLW1hJywgJzIwMCcsICctbWV0YWxfYmluZGluZycsICctaW1hZScsICc8aW5maWxlLm1hZT4nLCAnLW9tYWUnLCAnPG91dGZpbGUubWFlPic=

> <r_epik_Ionization_Penalty>
0.125073

> <r_epik_Ionization_Penalty_Charging>
0

> <r_epik_Ionization_Penalty_Neutral>
0.125073

> <r_epik_State_Penalty>
0.114484

> <r_epik_Charging_Adjusted_Penalty>
0.114484

> <i_epik_Tot_Q>
0

> <i_epik_Tot_abs_Q>
0

> <r_epik_Metal_State_Penalty>
0.114483

> <b_epik_Metal_Only>
0

> <s_lp_Force_Field>
OPLS_2005

> <r_lp_Energy>
51.317

> <b_lp_Chiralities_Consistent>
1

> <s_lp_Variant>
AV-unprocessed.smi:1734-3

> <Gold.Version>
5.8.1

> <Gold.Id.Protein>
6NUR|6NUR_protein|mol2

> <Gold.PLP.Fitness>
43.0838

> <Gold.PLP.PLP>
-32.0447

> <Gold.PLP.part.hbond>
-4.1329

> <Gold.PLP.part.metal>
0.0000

> <Gold.PLP.part.buried>
-4.0045

> <Gold.PLP.part.nonpolar>
-25.3621

> <Gold.PLP.part.repulsive>
1.9034

> <Gold.PLP.ligand.clash>
0.0000

> <Gold.PLP.ligand.torsion>
1.2671

> <Gold.PLP.Chemscore.Hbond>
3.7280

> <Gold.PLP.Chemscore.CHOScore>
0.6688

> <Gold.PLP.Chemscore.Metal>
0.0000

> <Gold.Chemscore.Hbonds>
donor molecule, donor type, donor heavy atom, donor atom, acceptor molecule, acceptor atom, score
      L1  H     8    31       P1  7948  1.00
      L1  H    11    32       P1  7948  0.99
      P1  H  6896  6908       L1    17  1.00
      P1  H  8011  8017       L1    22  0.75
      L1  C     5    30       P1 10747  0.26

> <Gold.PLP.Chemscore.Internal.Correction>
0.3829

> <Gold.Rescore>
     Score         DG    S(hbond)    S(metal)    S(lipo)     H(rot)  DE(clash)    DE(int)     intcor
     20.42     -21.79       3.48        0.00      76.22       1.65       0.11       1.25       ----

> <Gold.Chemscore.Fitness>
20.4206

> <Gold.Chemscore.DG>
-21.7902

> <Gold.Chemscore.ZeroCoef>
-5.4800

> <Gold.Chemscore.Hbond>
3.4764

> <Gold.Chemscore.Metal>
0.0000

> <Gold.Chemscore.Lipo>
76.2214

> <Gold.Chemscore.Internal_Hbond>
0.0000

> <Gold.Chemscore.DEClash>
0.1150

> <Gold.Chemscore.DEInternal>
1.2546

> <Gold.Chemscore.Rot>
1.6480

> <Gold.Chemscore.Internal.Correction>
   9.000000E+99

> <Gold.Chemscore.Hbonds>
donor molecule, donor type, donor heavy atom, donor atom, acceptor molecule, acceptor atom, score
      L1  H     8    31       P1  7948  0.79
      L1  H    11    32       P1  7948  0.94
      P1  H  6896  6908       L1    17  0.91
      P1  H  8011  8017       L1    22  0.68

> <Gold.Chemscore.Hbond.Weighted>
-11.6111

> <Gold.Chemscore.Metal.Weighted>
-0.0000

> <Gold.Chemscore.Lipo.Weighted>
-8.9179

> <Gold.Chemscore.Internal_Hbond.Weighted>
0.0000

> <Gold.Chemscore.DEClash.Weighted>
0.1150

> <Gold.Chemscore.DEInternal.Weighted>
1.2546

> <Gold.Chemscore.Rot.Weighted>
4.2188

> <Gold.Chemscore.Internal.Correction.Weighted>
   9.000000E+99

> <Gold.Protein.RotatedTorsions>
[ 6907 6896 6895 6894 ] final -169.03 input  -60.11 | X-H torsion
[ 7974 7965 7964 7962 ] final   80.21 input  175.53 | X-H torsion
[ 8008 7997 7996 7995 ] final -113.11 input   59.86 | X-H torsion
[ 10167 10162 10161 10158 ] final -142.53 input  -65.29 | X-H torsion
[ 10718 10713 10712 10709 ] final  152.06 input   66.30 | X-H torsion
[ 10763 10752 10751 10750 ] final  154.63 input  -60.55 | X-H torsion
[ 11005 11000 10999 10996 ] final -171.11 input  -57.11 | X-H torsion

> <Gold.Protein.ActiveResidues>
 VAL166  LYS551  ARG553  GLY616  TRP617  ASP618  TYR619  PRO620  LYS621  CYS622 
 ASP623  PHE694  ASN695  SER759  ASP760  ASP761  ALA762  ILE779  LEU786  VAL792 
 PHE793  MET794  SER795  GLU796  ALA797  LYS798  CYS799  TRP800  GLU811  SER814 

> <Gold.Protein.RotatedAtoms>
  151.4851  133.3537  159.2844 H   0  0  0  0  0  0  0  0  0  0  0  0  # atno 6907 bound_to 6896
  150.8872  134.8273  159.7278 H   0  0  0  0  0  0  0  0  0  0  0  0  # atno 6908 bound_to 6896
  152.4800  134.4756  159.9701 H   0  0  0  0  0  0  0  0  0  0  0  0  # atno 6909 bound_to 6896
  145.6542  139.2455  143.1959 H   0  0  0  0  0  0  0  0  0  0  0  0  # atno 7974 bound_to 7965
  155.0157  140.0393  157.2417 H   0  0  0  0  0  0  0  0  0  0  0  0  # atno 8008 bound_to 7997
  154.7421  140.2751  155.6341 H   0  0  0  0  0  0  0  0  0  0  0  0  # atno 8009 bound_to 7997
  156.2866  140.2663  156.2152 H   0  0  0  0  0  0  0  0  0  0  0  0  # atno 8010 bound_to 7997
  139.8080  143.7742  152.2662 H   0  0  0  0  0  0  0  0  0  0  0  0  # atno 10167 bound_to 10162
  157.2627  131.0801  151.1655 H   0  0  0  0  0  0  0  0  0  0  0  0  # atno 10718 bound_to 10713
  154.1554  135.2813  155.3124 H   0  0  0  0  0  0  0  0  0  0  0  0  # atno 10763 bound_to 10752
  154.6187  135.5475  153.7554 H   0  0  0  0  0  0  0  0  0  0  0  0  # atno 10764 bound_to 10752
  153.0208  135.6433  154.1697 H   0  0  0  0  0  0  0  0  0  0  0  0  # atno 10765 bound_to 10752
  140.5119  134.5793  157.5021 H   0  0  0  0  0  0  0  0  0  0  0  0  # atno 11005 bound_to 11000
  146.1179  140.7347  142.9472 LP  0  0  0  0  0  0  0  0  0  0  0  0  # atno 17320 bound_to 7965
  144.7112  140.4044  143.7079 LP  0  0  0  0  0  0  0  0  0  0  0  0  # atno 17321 bound_to 7965
  139.7882  144.7420  150.9992 LP  0  0  0  0  0  0  0  0  0  0  0  0  # atno 17342 bound_to 10162
  140.7818  143.4469  151.0469 LP  0  0  0  0  0  0  0  0  0  0  0  0  # atno 17343 bound_to 10162
  157.3158  130.6912  149.6241 LP  0  0  0  0  0  0  0  0  0  0  0  0  # atno 17370 bound_to 10713
  155.9664  130.4350  150.5072 LP  0  0  0  0  0  0  0  0  0  0  0  0  # atno 17371 bound_to 10713
  139.9654  134.7382  156.0149 LP  0  0  0  0  0  0  0  0  0  0  0  0  # atno 17394 bound_to 11000
  141.1381  133.6570  156.3650 LP  0  0  0  0  0  0  0  0  0  0  0  0  # atno 17395 bound_to 11000

$$$$
