AV-unprocessed.smi:833|AV-procd|sdf|3880|dock10
  -GOLD-   22720 1333D 1   1.00000     0.00000
 Structure written by MMmdl.
 39 40  0  0  0  0  0  0  0  0  1 V2000
  145.8584  133.7545  150.5070 C   0  0  0  0  0  0  0  0  0  0  0  0
  144.9195  134.8984  150.9114 C   0  0  2  0  0  0  0  0  0  0  0  0
  145.2688  136.0266  150.1357 O   0  0  0  0  0  0  0  0  0  0  0  0
  145.0594  135.2564  152.4040 C   0  0  0  0  0  0  0  0  0  0  0  0
  146.2182  136.1078  152.6542 N   0  0  0  0  0  0  0  0  0  0  0  0
  146.1649  137.3716  153.0976 C   0  0  0  0  0  0  0  0  0  0  0  0
  145.1125  137.9621  153.3403 O   0  0  0  0  0  0  0  0  0  0  0  0
  147.3968  137.8950  153.2153 N   0  0  0  0  0  0  0  0  0  0  0  0
  147.7715  139.2083  153.6209 C   0  0  0  0  0  0  0  0  0  0  0  0
  146.8668  140.2975  153.5668 C   0  0  0  0  0  0  0  0  0  0  0  0
  147.2998  141.5750  153.9620 C   0  0  0  0  0  0  0  0  0  0  0  0
  148.6253  141.7207  154.4027 C   0  0  0  0  0  0  0  0  0  0  0  0
  149.4925  140.6919  154.4795 N   0  0  0  0  0  0  0  0  0  0  0  0
  149.0852  139.4508  154.1159 C   0  0  0  0  0  0  0  0  0  0  0  0
  150.0294  138.4064  154.2414 N   0  0  0  0  0  0  0  0  0  0  0  0
  151.4453  138.7069  154.4264 C   0  0  0  0  0  0  0  0  0  0  0  0
  152.0648  137.4013  154.9158 C   0  0  0  0  0  0  0  0  0  0  0  0
  150.9530  136.8215  155.7847 C   0  0  0  0  0  0  0  0  0  0  0  0
  149.6701  137.2593  155.0700 C   0  0  0  0  0  0  0  0  0  0  0  0
  145.6234  132.8439  151.0588 H   0  0  0  0  0  0  0  0  0  0  0  0
  146.9010  134.0044  150.7067 H   0  0  0  0  0  0  0  0  0  0  0  0
  145.7664  133.5266  149.4446 H   0  0  0  0  0  0  0  0  0  0  0  0
  143.8941  134.6102  150.6765 H   0  0  0  0  0  0  0  0  0  0  0  0
  145.5079  135.7316  149.2705 H   0  0  0  0  0  0  0  0  0  0  0  0
  144.1642  135.7774  152.7484 H   0  0  0  0  0  0  0  0  0  0  0  0
  145.1352  134.3556  153.0141 H   0  0  0  0  0  0  0  0  0  0  0  0
  147.1257  135.7037  152.4750 H   0  0  0  0  0  0  0  0  0  0  0  0
  148.1554  137.3155  152.8874 H   0  0  0  0  0  0  0  0  0  0  0  0
  145.8467  140.1758  153.2373 H   0  0  0  0  0  0  0  0  0  0  0  0
  146.6315  142.4225  153.9261 H   0  0  0  0  0  0  0  0  0  0  0  0
  148.9976  142.6868  154.7097 H   0  0  0  0  0  0  0  0  0  0  0  0
  151.9032  139.0507  153.4985 H   0  0  0  0  0  0  0  0  0  0  0  0
  151.5842  139.4786  155.1845 H   0  0  0  0  0  0  0  0  0  0  0  0
  152.2609  136.7399  154.0705 H   0  0  0  0  0  0  0  0  0  0  0  0
  152.9992  137.5497  155.4576 H   0  0  0  0  0  0  0  0  0  0  0  0
  151.0243  135.7403  155.9036 H   0  0  0  0  0  0  0  0  0  0  0  0
  150.9922  137.2727  156.7770 H   0  0  0  0  0  0  0  0  0  0  0  0
  148.8787  137.4974  155.7823 H   0  0  0  0  0  0  0  0  0  0  0  0
  149.3142  136.4572  154.4231 H   0  0  0  0  0  0  0  0  0  0  0  0
  1  2  1  0  0  0  0
  1 20  1  0  0  0  0
  1 21  1  0  0  0  0
  1 22  1  0  0  0  0
  2  3  1  0  0  0  0
  2  4  1  0  0  0  0
  2 23  1  0  0  0  0
  3 24  1  0  0  0  0
  4  5  1  0  0  0  0
  4 25  1  0  0  0  0
  4 26  1  0  0  0  0
  5  6  1  0  0  0  0
  5 27  1  0  0  0  0
  6  7  2  0  0  0  0
  6  8  1  0  0  0  0
  8  9  1  0  0  0  0
  8 28  1  0  0  0  0
  9 14  1  0  0  0  0
  9 10  2  0  0  0  0
 10 11  1  0  0  0  0
 10 29  1  0  0  0  0
 11 12  2  0  0  0  0
 11 30  1  0  0  0  0
 12 13  1  0  0  0  0
 12 31  1  0  0  0  0
 13 14  2  0  0  0  0
 14 15  1  0  0  0  0
 15 19  1  0  0  0  0
 15 16  1  0  0  0  0
 16 17  1  0  0  0  0
 16 32  1  0  0  0  0
 16 33  1  0  0  0  0
 17 18  1  0  0  0  0
 17 34  1  0  0  0  0
 17 35  1  0  0  0  0
 18 19  1  0  0  0  0
 18 36  1  0  0  0  0
 18 37  1  0  0  0  0
 19 38  1  0  0  0  0
 19 39  1  0  0  0  0
M  END
> <s_m_source_file>
AV-unprocessed.smi

> <i_m_source_file_index>
833

> <i_lp_mmshare_version>
43012

> <i_f3d_flags>
0

> <s_epik_input>
W0NIM11bQ0BIXShbT0hdKVtDSDJdW05IXUMoPU8pW05IXWMxW2NIXVtjSF1bY0hdbmMxTjJbQ0gyXVtDSDJdW0NIMl1bQ0gyXTI=

> <s_epik_cmdline>
J2VwaWtfcHl0aG9uJywgJy1waCcsICc3LjAnLCAnLXRuJywgJzgnLCAnLW1hJywgJzIwMCcsICctbWV0YWxfYmluZGluZycsICctaW1hZScsICc8aW5maWxlLm1hZT4nLCAnLW9tYWUnLCAnPG91dGZpbGUubWFlPic=

> <r_lp_tautomer_probability>
1

> <r_epik_Ionization_Penalty>
0.0986749

> <r_epik_Ionization_Penalty_Charging>
0

> <r_epik_Ionization_Penalty_Neutral>
0.0986749

> <r_epik_State_Penalty>
0.0881977

> <r_epik_Charging_Adjusted_Penalty>
0.0881977

> <i_epik_Tot_Q>
0

> <i_epik_Tot_abs_Q>
0

> <r_epik_Metal_State_Penalty>
0.0755487

> <b_epik_Metal_Only>
0

> <s_lp_Force_Field>
OPLS_2005

> <r_lp_Energy>
31.5613

> <b_lp_Chiralities_Consistent>
1

> <s_lp_Variant>
AV-unprocessed.smi:833-1

> <Gold.Version>
5.8.1

> <Gold.Id.Protein>
6NUR|6NUR_protein|mol2

> <Gold.PLP.Fitness>
39.6707

> <Gold.PLP.PLP>
-28.5289

> <Gold.PLP.part.hbond>
-4.6268

> <Gold.PLP.part.metal>
0.0000

> <Gold.PLP.part.buried>
0.2343

> <Gold.PLP.part.nonpolar>
-24.3182

> <Gold.PLP.part.repulsive>
1.2633

> <Gold.PLP.ligand.clash>
0.0000

> <Gold.PLP.ligand.torsion>
0.5090

> <Gold.PLP.Chemscore.Hbond>
2.9502

> <Gold.PLP.Chemscore.CHOScore>
1.0000

> <Gold.PLP.Chemscore.Metal>
0.0000

> <Gold.Chemscore.Hbonds>
donor molecule, donor type, donor heavy atom, donor atom, acceptor molecule, acceptor atom, score
      L1  H     3    24       P1  7921  1.00
      L1  H     5    27       P1  7948  0.82
      L1  H     8    28       P1  7948  1.00
      P1  H  7989  7998       L1    13  0.15
      L1  C    12    31       P1  8028  1.00

> <Gold.PLP.Chemscore.Internal.Correction>
0.3093

> <Gold.Rescore>
     Score         DG    S(hbond)    S(metal)    S(lipo)     H(rot)  DE(clash)    DE(int)     intcor
     15.48     -17.46       2.83        0.00      66.03       2.03       0.31       1.67       ----

> <Gold.Chemscore.Fitness>
15.4770

> <Gold.Chemscore.DG>
-17.4616

> <Gold.Chemscore.ZeroCoef>
-5.4800

> <Gold.Chemscore.Hbond>
2.8308

> <Gold.Chemscore.Metal>
0.0000

> <Gold.Chemscore.Lipo>
66.0275

> <Gold.Chemscore.Internal_Hbond>
0.0000

> <Gold.Chemscore.DEClash>
0.3149

> <Gold.Chemscore.DEInternal>
1.6697

> <Gold.Chemscore.Rot>
2.0306

> <Gold.Chemscore.Internal.Correction>
   9.000000E+99

> <Gold.Chemscore.Hbonds>
donor molecule, donor type, donor heavy atom, donor atom, acceptor molecule, acceptor atom, score
      L1  H     3    24       P1  7921  0.98
      L1  H     5    27       P1  7948  0.79
      L1  H     8    28       P1  7948  0.99
      P1  H  7989  7998       L1    13  0.07

> <Gold.Chemscore.Hbond.Weighted>
-9.4548

> <Gold.Chemscore.Metal.Weighted>
-0.0000

> <Gold.Chemscore.Lipo.Weighted>
-7.7252

> <Gold.Chemscore.Internal_Hbond.Weighted>
0.0000

> <Gold.Chemscore.DEClash.Weighted>
0.3149

> <Gold.Chemscore.DEInternal.Weighted>
1.6697

> <Gold.Chemscore.Rot.Weighted>
5.1984

> <Gold.Chemscore.Internal.Correction.Weighted>
   9.000000E+99

> <Gold.Protein.RotatedTorsions>
[ 6907 6896 6895 6894 ] final   62.15 input  -60.11 | X-H torsion
[ 7974 7965 7964 7962 ] final -117.40 input  175.53 | X-H torsion
[ 8008 7997 7996 7995 ] final   -2.87 input   59.86 | X-H torsion
[ 10167 10162 10161 10158 ] final -131.76 input  -65.29 | X-H torsion
[ 10718 10713 10712 10709 ] final  -37.48 input   66.30 | X-H torsion
[ 10763 10752 10751 10750 ] final  145.42 input  -60.55 | X-H torsion
[ 11005 11000 10999 10996 ] final  136.55 input  -57.11 | X-H torsion

> <Gold.Protein.ActiveResidues>
 VAL166  LYS551  ARG553  GLY616  TRP617  ASP618  TYR619  PRO620  LYS621  CYS622 
 ASP623  PHE694  ASN695  SER759  ASP760  ASP761  ALA762  ILE779  LEU786  VAL792 
 PHE793  MET794  SER795  GLU796  ALA797  LYS798  CYS799  TRP800  GLU811  SER814 

> <Gold.Protein.RotatedAtoms>
  152.4148  134.6061  160.0012 H   0  0  0  0  0  0  0  0  0  0  0  0  # atno 6907 bound_to 6896
  151.6228  133.3332  159.3099 H   0  0  0  0  0  0  0  0  0  0  0  0  # atno 6908 bound_to 6896
  150.8037  134.7187  159.6690 H   0  0  0  0  0  0  0  0  0  0  0  0  # atno 6909 bound_to 6896
  145.0856  140.8455  143.4013 H   0  0  0  0  0  0  0  0  0  0  0  0  # atno 7974 bound_to 7965
  154.6311  140.2523  155.7433 H   0  0  0  0  0  0  0  0  0  0  0  0  # atno 8008 bound_to 7997
  156.2480  140.2907  156.0583 H   0  0  0  0  0  0  0  0  0  0  0  0  # atno 8009 bound_to 7997
  155.1744  140.0387  157.2860 H   0  0  0  0  0  0  0  0  0  0  0  0  # atno 8010 bound_to 7997
  139.9155  143.6443  152.2566 H   0  0  0  0  0  0  0  0  0  0  0  0  # atno 10167 bound_to 10162
  156.3147  130.4257  149.8017 H   0  0  0  0  0  0  0  0  0  0  0  0  # atno 10718 bound_to 10713
  154.0051  135.2919  155.3398 H   0  0  0  0  0  0  0  0  0  0  0  0  # atno 10763 bound_to 10752
  154.7137  135.5139  153.8708 H   0  0  0  0  0  0  0  0  0  0  0  0  # atno 10764 bound_to 10752
  153.0748  135.6660  154.0288 H   0  0  0  0  0  0  0  0  0  0  0  0  # atno 10765 bound_to 10752
  140.0054  134.9461  157.0162 H   0  0  0  0  0  0  0  0  0  0  0  0  # atno 11005 bound_to 11000
  145.1126  139.2747  143.5629 LP  0  0  0  0  0  0  0  0  0  0  0  0  # atno 17320 bound_to 7965
  146.3531  140.0727  142.8622 LP  0  0  0  0  0  0  0  0  0  0  0  0  # atno 17321 bound_to 7965
  139.6906  144.7647  151.1446 LP  0  0  0  0  0  0  0  0  0  0  0  0  # atno 17342 bound_to 10162
  140.7675  143.5595  150.9115 LP  0  0  0  0  0  0  0  0  0  0  0  0  # atno 17343 bound_to 10162
  156.5347  130.8273  151.3249 LP  0  0  0  0  0  0  0  0  0  0  0  0  # atno 17370 bound_to 10713
  157.7399  130.9840  150.2342 LP  0  0  0  0  0  0  0  0  0  0  0  0  # atno 17371 bound_to 10713
  140.4652  134.1443  155.7196 LP  0  0  0  0  0  0  0  0  0  0  0  0  # atno 17394 bound_to 11000
  141.1673  133.8679  157.1678 LP  0  0  0  0  0  0  0  0  0  0  0  0  # atno 17395 bound_to 11000

$$$$
