AV-unprocessed.smi:890|AV-procd|sdf|4058|dock2
  -GOLD-   22720 1543D 1   1.00000     0.00000
 Structure written by MMmdl.
 52 55  0  0  0  0  0  0  0  0  2 V2000
  150.5999  134.0890  155.3835 O   0  0  0  0  0  0  0  0  0  0  0  0
  149.9905  134.7370  154.5327 C   0  0  0  0  0  0  0  0  0  0  0  0
  149.1329  134.2273  153.6326 N   0  0  0  0  0  0  0  0  0  0  0  0
  148.7533  132.8673  153.4412 C   0  0  0  0  0  0  0  0  0  0  0  0
  149.3961  131.7950  154.1076 C   0  0  0  0  0  0  0  0  0  0  0  0
  148.9448  130.4812  153.8913 C   0  0  0  0  0  0  0  0  0  0  0  0
  147.8577  130.2840  153.0227 C   0  0  0  0  0  0  0  0  0  0  0  0
  147.2243  131.2942  152.3935 N   0  0  0  0  0  0  0  0  0  0  0  0
  147.6489  132.5652  152.5983 C   0  0  0  0  0  0  0  0  0  0  0  0
  146.9816  133.5974  151.9055 N   0  0  0  0  0  0  0  0  0  0  0  0
  146.1700  133.1222  150.7877 C   0  0  0  0  0  0  0  0  0  0  0  0
  144.9246  134.0096  150.7488 C   0  0  0  0  0  0  0  0  0  0  0  0
  144.7669  134.4435  152.2006 C   0  0  0  0  0  0  0  0  0  0  0  0
  146.2168  134.5907  152.6588 C   0  0  0  0  0  0  0  0  0  0  0  0
  150.1231  136.0628  154.3816 N   0  0  0  0  0  0  0  0  0  0  0  0
  150.9718  136.9174  155.2072 C   0  0  2  0  0  0  0  0  0  0  0  0
  150.4087  136.9989  156.6354 C   0  0  0  0  0  0  0  0  0  0  0  0
  151.2520  137.9463  157.5104 C   0  0  0  0  0  0  0  0  0  0  0  0
  151.3792  139.3002  156.9112 N   0  3  2  0  0  0  0  0  0  0  0  0
  150.1486  140.1156  157.0378 C   0  0  0  0  0  0  0  0  0  0  0  0
  150.0982  141.2878  156.0851 C   0  0  0  0  0  0  0  0  0  0  0  0
  150.3997  141.5147  157.5495 C   0  0  0  0  0  0  0  0  0  0  0  0
  151.9138  139.2536  155.5257 C   0  0  0  0  0  0  0  0  0  0  0  0
  151.0814  138.3342  154.6128 C   0  0  0  0  0  0  0  0  0  0  0  0
  148.7747  134.8725  152.9435 H   0  0  0  0  0  0  0  0  0  0  0  0
  150.2145  131.9553  154.7922 H   0  0  0  0  0  0  0  0  0  0  0  0
  149.4179  129.6453  154.3846 H   0  0  0  0  0  0  0  0  0  0  0  0
  147.4825  129.2894  152.8321 H   0  0  0  0  0  0  0  0  0  0  0  0
  146.7228  133.1737  149.8495 H   0  0  0  0  0  0  0  0  0  0  0  0
  145.8811  132.0821  150.9478 H   0  0  0  0  0  0  0  0  0  0  0  0
  145.1108  134.8831  150.1223 H   0  0  0  0  0  0  0  0  0  0  0  0
  144.0479  133.4932  150.3577 H   0  0  0  0  0  0  0  0  0  0  0  0
  144.1896  135.3613  152.3147 H   0  0  0  0  0  0  0  0  0  0  0  0
  144.2738  133.6564  152.7729 H   0  0  0  0  0  0  0  0  0  0  0  0
  146.3094  134.5093  153.7419 H   0  0  0  0  0  0  0  0  0  0  0  0
  146.5940  135.5761  152.3836 H   0  0  0  0  0  0  0  0  0  0  0  0
  149.5885  136.5139  153.6534 H   0  0  0  0  0  0  0  0  0  0  0  0
  151.9691  136.4756  155.2596 H   0  0  0  0  0  0  0  0  0  0  0  0
  149.3729  137.3408  156.6105 H   0  0  0  0  0  0  0  0  0  0  0  0
  150.3909  136.0057  157.0859 H   0  0  0  0  0  0  0  0  0  0  0  0
  150.8258  138.0206  158.5116 H   0  0  0  0  0  0  0  0  0  0  0  0
  152.2529  137.5307  157.6339 H   0  0  0  0  0  0  0  0  0  0  0  0
  149.2351  139.5892  157.3071 H   0  0  0  0  0  0  0  0  0  0  0  0
  150.9167  141.4152  155.3786 H   0  0  0  0  0  0  0  0  0  0  0  0
  149.1203  141.5989  155.7235 H   0  0  0  0  0  0  0  0  0  0  0  0
  149.6205  141.9764  158.1525 H   0  0  0  0  0  0  0  0  0  0  0  0
  151.4184  141.7928  157.8144 H   0  0  0  0  0  0  0  0  0  0  0  0
  151.9617  140.2606  155.1096 H   0  0  0  0  0  0  0  0  0  0  0  0
  152.9415  138.8902  155.5664 H   0  0  0  0  0  0  0  0  0  0  0  0
  151.5423  138.2948  153.6253 H   0  0  0  0  0  0  0  0  0  0  0  0
  150.0864  138.7568  154.4669 H   0  0  0  0  0  0  0  0  0  0  0  0
  152.0742  139.7845  157.4615 H   0  0  0  0  0  0  0  0  0  0  0  0
  1  2  2  0  0  0  0
  2  3  1  0  0  0  0
  2 15  1  0  0  0  0
  3  4  1  0  0  0  0
  3 25  1  0  0  0  0
  4  9  1  0  0  0  0
  4  5  2  0  0  0  0
  5  6  1  0  0  0  0
  5 26  1  0  0  0  0
  6  7  2  0  0  0  0
  6 27  1  0  0  0  0
  7  8  1  0  0  0  0
  7 28  1  0  0  0  0
  8  9  2  0  0  0  0
  9 10  1  0  0  0  0
 10 14  1  0  0  0  0
 10 11  1  0  0  0  0
 11 12  1  0  0  0  0
 11 29  1  0  0  0  0
 11 30  1  0  0  0  0
 12 13  1  0  0  0  0
 12 31  1  0  0  0  0
 12 32  1  0  0  0  0
 13 14  1  0  0  0  0
 13 33  1  0  0  0  0
 13 34  1  0  0  0  0
 14 35  1  0  0  0  0
 14 36  1  0  0  0  0
 15 16  1  0  0  0  0
 15 37  1  0  0  0  0
 16 24  1  0  0  0  0
 16 17  1  0  0  0  0
 16 38  1  0  0  0  0
 17 18  1  0  0  0  0
 17 39  1  0  0  0  0
 17 40  1  0  0  0  0
 18 19  1  0  0  0  0
 18 41  1  0  0  0  0
 18 42  1  0  0  0  0
 19 20  1  0  0  0  0
 19 23  1  0  0  0  0
 19 52  1  0  0  0  0
 20 22  1  0  0  0  0
 20 21  1  0  0  0  0
 20 43  1  0  0  0  0
 21 22  1  0  0  0  0
 21 44  1  0  0  0  0
 21 45  1  0  0  0  0
 22 46  1  0  0  0  0
 22 47  1  0  0  0  0
 23 24  1  0  0  0  0
 23 48  1  0  0  0  0
 23 49  1  0  0  0  0
 24 50  1  0  0  0  0
 24 51  1  0  0  0  0
M  CHG  1  19   1
M  END
> <s_m_source_file>
AV-unprocessed.smi

> <i_m_source_file_index>
890

> <i_lp_mmshare_version>
43012

> <i_f3d_flags>
0

> <s_epik_input>
W0NIMl0xW0NIMl1bQ0hdMU4oW0NIMl1bQ0gyXTIpW0NIMl1bQ0gyXVtDSF0yW05IXUMoPU8pW05IXWMzW2NIXVtjSF1bY0hdbmMzTjRbQ0gyXVtDSDJdW0NIMl1bQ0gyXTQ=

> <s_epik_cmdline>
J2VwaWtfcHl0aG9uJywgJy1waCcsICc3LjAnLCAnLXRuJywgJzgnLCAnLW1hJywgJzIwMCcsICctbWV0YWxfYmluZGluZycsICctaW1hZScsICc8aW5maWxlLm1hZT4nLCAnLW9tYWUnLCAnPG91dGZpbGUubWFlPic=

> <r_lp_tautomer_probability>
1

> <r_epik_Ionization_Penalty>
0.193768

> <r_epik_Ionization_Penalty_Charging>
0.115549

> <r_epik_Ionization_Penalty_Neutral>
0.078219

> <r_epik_State_Penalty>
0.174811

> <r_epik_Charging_Adjusted_Penalty>
0.29036

> <i_epik_Tot_Q>
1

> <i_epik_Tot_abs_Q>
1

> <r_epik_Metal_State_Penalty>
0.169761

> <b_epik_Metal_Only>
0

> <s_lp_Force_Field>
OPLS_2005

> <r_lp_Energy>
56.2334

> <b_lp_Chiralities_Consistent>
1

> <s_lp_Variant>
AV-unprocessed.smi:890-2

> <Gold.Version>
5.8.1

> <Gold.Id.Protein>
6NUR|6NUR_protein|mol2

> <Gold.PLP.Fitness>
43.1757

> <Gold.PLP.PLP>
-38.3076

> <Gold.PLP.part.hbond>
-2.7383

> <Gold.PLP.part.metal>
0.0000

> <Gold.PLP.part.buried>
-4.3411

> <Gold.PLP.part.nonpolar>
-31.0175

> <Gold.PLP.part.repulsive>
0.4901

> <Gold.PLP.ligand.clash>
0.0000

> <Gold.PLP.ligand.torsion>
1.2219

> <Gold.PLP.Chemscore.Hbond>
1.9600

> <Gold.PLP.Chemscore.CHOScore>
0.0000

> <Gold.PLP.Chemscore.Metal>
0.0000

> <Gold.Chemscore.Hbonds>
donor molecule, donor type, donor heavy atom, donor atom, acceptor molecule, acceptor atom, score
      L1  H     3    25       P1  7948  0.95
      L1  H    15    37       P1  7948  0.82

> <Gold.PLP.Chemscore.Internal.Correction>
1.4319

> <Gold.Rescore>
     Score         DG    S(hbond)    S(metal)    S(lipo)     H(rot)  DE(clash)    DE(int)     intcor
     13.37     -15.99       1.20        0.00      84.72       1.33       0.08       2.54       ----

> <Gold.Chemscore.Fitness>
13.3730

> <Gold.Chemscore.DG>
-15.9882

> <Gold.Chemscore.ZeroCoef>
-5.4800

> <Gold.Chemscore.Hbond>
1.1974

> <Gold.Chemscore.Metal>
0.0000

> <Gold.Chemscore.Lipo>
84.7192

> <Gold.Chemscore.Internal_Hbond>
0.0000

> <Gold.Chemscore.DEClash>
0.0757

> <Gold.Chemscore.DEInternal>
2.5395

> <Gold.Chemscore.Rot>
1.3294

> <Gold.Chemscore.Internal.Correction>
   9.000000E+99

> <Gold.Chemscore.Hbonds>
donor molecule, donor type, donor heavy atom, donor atom, acceptor molecule, acceptor atom, score
      L1  H     3    25       P1  7948  0.21
      L1  H    15    37       P1  7948  0.52

> <Gold.Chemscore.Hbond.Weighted>
-3.9993

> <Gold.Chemscore.Metal.Weighted>
-0.0000

> <Gold.Chemscore.Lipo.Weighted>
-9.9121

> <Gold.Chemscore.Internal_Hbond.Weighted>
0.0000

> <Gold.Chemscore.DEClash.Weighted>
0.0757

> <Gold.Chemscore.DEInternal.Weighted>
2.5395

> <Gold.Chemscore.Rot.Weighted>
3.4032

> <Gold.Chemscore.Internal.Correction.Weighted>
   9.000000E+99

> <Gold.Protein.RotatedTorsions>
[ 6907 6896 6895 6894 ] final   61.87 input  -60.11 | X-H torsion
[ 7974 7965 7964 7962 ] final  133.66 input  175.53 | X-H torsion
[ 8008 7997 7996 7995 ] final  175.62 input   59.86 | X-H torsion
[ 10167 10162 10161 10158 ] final  134.71 input  -65.29 | X-H torsion
[ 10718 10713 10712 10709 ] final -153.63 input   66.30 | X-H torsion
[ 10763 10752 10751 10750 ] final   32.34 input  -60.55 | X-H torsion
[ 11005 11000 10999 10996 ] final  107.71 input  -57.11 | X-H torsion

> <Gold.Protein.ActiveResidues>
 VAL166  LYS551  ARG553  GLY616  TRP617  ASP618  TYR619  PRO620  LYS621  CYS622 
 ASP623  PHE694  ASN695  SER759  ASP760  ASP761  ALA762  ILE779  LEU786  VAL792 
 PHE793  MET794  SER795  GLU796  ALA797  LYS798  CYS799  TRP800  GLU811  SER814 

> <Gold.Protein.RotatedAtoms>
  152.4125  134.6100  160.0022 H   0  0  0  0  0  0  0  0  0  0  0  0  # atno 6907 bound_to 6896
  151.6273  133.3329  159.3109 H   0  0  0  0  0  0  0  0  0  0  0  0  # atno 6908 bound_to 6896
  150.8015  134.7152  159.6671 H   0  0  0  0  0  0  0  0  0  0  0  0  # atno 6909 bound_to 6896
  144.9842  139.4473  143.5371 H   0  0  0  0  0  0  0  0  0  0  0  0  # atno 7974 bound_to 7965
  156.0851  140.1404  156.9663 H   0  0  0  0  0  0  0  0  0  0  0  0  # atno 8008 bound_to 7997
  154.4608  140.0944  156.6936 H   0  0  0  0  0  0  0  0  0  0  0  0  # atno 8009 bound_to 7997
  155.5011  140.3451  155.4373 H   0  0  0  0  0  0  0  0  0  0  0  0  # atno 8010 bound_to 7997
  139.5245  144.6553  151.5179 H   0  0  0  0  0  0  0  0  0  0  0  0  # atno 10167 bound_to 10162
  156.4884  130.8336  151.2560 H   0  0  0  0  0  0  0  0  0  0  0  0  # atno 10718 bound_to 10713
  153.0267  135.6415  154.1340 H   0  0  0  0  0  0  0  0  0  0  0  0  # atno 10763 bound_to 10752
  154.1068  135.2855  155.3241 H   0  0  0  0  0  0  0  0  0  0  0  0  # atno 10764 bound_to 10752
  154.6359  135.5476  153.7797 H   0  0  0  0  0  0  0  0  0  0  0  0  # atno 10765 bound_to 10752
  139.8832  134.9409  156.5860 H   0  0  0  0  0  0  0  0  0  0  0  0  # atno 11005 bound_to 11000
  146.3416  139.9134  142.8777 LP  0  0  0  0  0  0  0  0  0  0  0  0  # atno 17320 bound_to 7965
  145.2377  140.9997  143.3954 LP  0  0  0  0  0  0  0  0  0  0  0  0  # atno 17321 bound_to 7965
  140.6376  143.8952  150.6662 LP  0  0  0  0  0  0  0  0  0  0  0  0  # atno 17342 bound_to 10162
  140.2276  143.3760  152.1592 LP  0  0  0  0  0  0  0  0  0  0  0  0  # atno 17343 bound_to 10162
  157.7476  131.0021  150.2990 LP  0  0  0  0  0  0  0  0  0  0  0  0  # atno 17370 bound_to 10713
  156.3451  130.3821  149.7376 LP  0  0  0  0  0  0  0  0  0  0  0  0  # atno 17371 bound_to 10713
  140.7991  133.8520  155.8711 LP  0  0  0  0  0  0  0  0  0  0  0  0  # atno 17394 bound_to 11000
  140.9609  134.1657  157.4655 LP  0  0  0  0  0  0  0  0  0  0  0  0  # atno 17395 bound_to 11000

$$$$
