AV-unprocessed.smi:220|AV-procd|sdf|1684|dock9
  -GOLD-   2262020123D 1   1.00000     0.00000
 Structure written by MMmdl.
 51 55  0  0  0  0  0  0  0  0  1 V2000
  154.9950  139.2542  160.2186 N   0  0  0  0  0  0  0  0  0  0  0  0
  153.8498  139.5515  159.6001 C   0  0  0  0  0  0  0  0  0  0  0  0
  152.9904  138.7011  159.3738 O   0  0  0  0  0  0  0  0  0  0  0  0
  153.6498  141.0218  159.1855 C   0  0  2  0  0  0  0  0  0  0  0  0
  153.7339  142.0064  160.3765 C   0  0  2  0  0  0  0  0  0  0  0  0
  153.1782  141.5559  161.7388 C   0  0  0  0  0  0  0  0  0  0  0  0
  152.7832  142.8607  162.4312 C   0  0  0  0  0  0  0  0  0  0  0  0
  152.3193  143.7975  161.3074 C   0  0  0  0  0  0  0  0  0  0  0  0
  152.8142  143.1639  159.9956 C   0  0  2  0  0  0  0  0  0  0  0  0
  151.7197  142.4849  159.1625 C   0  0  0  0  0  0  0  0  0  0  0  0
  152.3447  141.3017  158.5838 N   0  0  0  0  0  0  0  0  0  0  0  0
  151.9026  140.7947  157.4003 C   0  0  0  0  0  0  0  0  0  0  0  0
  152.7230  139.9301  156.7469 N   0  0  0  0  0  0  0  0  0  0  0  0
  152.3648  139.4038  155.5736 C   0  0  0  0  0  0  0  0  0  0  0  0
  151.2420  139.5980  154.8828 N   0  0  0  0  0  0  0  0  0  0  0  0
  150.4039  140.4554  155.5311 C   0  0  0  0  0  0  0  0  0  0  0  0
  150.6510  141.0961  156.7810 C   0  0  0  0  0  0  0  0  0  0  0  0
  149.5580  141.8899  157.1131 N   0  0  0  0  0  0  0  0  0  0  0  0
  148.7274  141.7392  156.1195 C   0  0  0  0  0  0  0  0  0  0  0  0
  149.1478  140.8806  155.1306 N   0  0  0  0  0  0  0  0  0  0  0  0
  148.4260  140.5243  153.9168 C   0  0  0  0  0  0  0  0  0  0  0  0
  147.5088  139.2904  154.0613 C   0  0  0  0  0  0  0  0  0  0  0  0
  146.8119  138.9734  152.7271 C   0  0  0  0  0  0  0  0  0  0  0  0
  147.7383  138.5110  151.7654 O   0  0  0  0  0  0  0  0  0  0  0  0
  148.1351  138.0796  154.7692 C   0  0  0  0  0  0  0  0  0  0  0  0
  147.3447  138.2767  155.9598 O   0  0  0  0  0  0  0  0  0  0  0  0
  146.5904  139.3087  155.2908 C   0  0  0  0  0  0  0  0  0  0  0  0
  155.1732  138.3045  160.5116 H   0  0  0  0  0  0  0  0  0  0  0  0
  155.6773  139.9777  160.3925 H   0  0  0  0  0  0  0  0  0  0  0  0
  154.4174  141.3023  158.4634 H   0  0  0  0  0  0  0  0  0  0  0  0
  154.7557  142.3648  160.5109 H   0  0  0  0  0  0  0  0  0  0  0  0
  152.2883  140.9379  161.6078 H   0  0  0  0  0  0  0  0  0  0  0  0
  153.9008  140.9797  162.3178 H   0  0  0  0  0  0  0  0  0  0  0  0
  152.0165  142.7101  163.1916 H   0  0  0  0  0  0  0  0  0  0  0  0
  153.6569  143.2883  162.9251 H   0  0  0  0  0  0  0  0  0  0  0  0
  151.2344  143.9080  161.3097 H   0  0  0  0  0  0  0  0  0  0  0  0
  152.7423  144.7930  161.4463 H   0  0  0  0  0  0  0  0  0  0  0  0
  153.3521  143.8843  159.3777 H   0  0  0  0  0  0  0  0  0  0  0  0
  150.8839  142.1588  159.7831 H   0  0  0  0  0  0  0  0  0  0  0  0
  151.3327  143.1685  158.4053 H   0  0  0  0  0  0  0  0  0  0  0  0
  153.0808  138.7318  155.1241 H   0  0  0  0  0  0  0  0  0  0  0  0
  147.7800  142.2558  156.0860 H   0  0  0  0  0  0  0  0  0  0  0  0
  147.8432  141.3949  153.6135 H   0  0  0  0  0  0  0  0  0  0  0  0
  149.1519  140.3710  153.1174 H   0  0  0  0  0  0  0  0  0  0  0  0
  146.0189  138.2357  152.8478 H   0  0  0  0  0  0  0  0  0  0  0  0
  146.3332  139.8655  152.3220 H   0  0  0  0  0  0  0  0  0  0  0  0
  148.2137  137.7808  152.1314 H   0  0  0  0  0  0  0  0  0  0  0  0
  147.9163  137.1238  154.2911 H   0  0  0  0  0  0  0  0  0  0  0  0
  149.2016  138.1730  154.9702 H   0  0  0  0  0  0  0  0  0  0  0  0
  146.6018  140.2522  155.8378 H   0  0  0  0  0  0  0  0  0  0  0  0
  145.5664  138.9938  155.0846 H   0  0  0  0  0  0  0  0  0  0  0  0
  1  2  1  0  0  0  0
  1 28  1  0  0  0  0
  1 29  1  0  0  0  0
  2  3  2  0  0  0  0
  2  4  1  0  0  0  0
  4 11  1  0  0  0  0
  4  5  1  0  0  0  0
  4 30  1  0  0  0  0
  5  9  1  0  0  0  0
  5  6  1  0  0  0  0
  5 31  1  0  0  0  0
  6  7  1  0  0  0  0
  6 32  1  0  0  0  0
  6 33  1  0  0  0  0
  7  8  1  0  0  0  0
  7 34  1  0  0  0  0
  7 35  1  0  0  0  0
  8  9  1  0  0  0  0
  8 36  1  0  0  0  0
  8 37  1  0  0  0  0
  9 10  1  0  0  0  0
  9 38  1  0  0  0  0
 10 11  1  0  0  0  0
 10 39  1  0  0  0  0
 10 40  1  0  0  0  0
 11 12  1  0  0  0  0
 12 17  1  0  0  0  0
 12 13  2  0  0  0  0
 13 14  1  0  0  0  0
 14 15  2  0  0  0  0
 14 41  1  0  0  0  0
 15 16  1  0  0  0  0
 16 20  1  0  0  0  0
 16 17  2  0  0  0  0
 17 18  1  0  0  0  0
 18 19  2  0  0  0  0
 19 20  1  0  0  0  0
 19 42  1  0  0  0  0
 20 21  1  0  0  0  0
 21 22  1  0  0  0  0
 21 43  1  0  0  0  0
 21 44  1  0  0  0  0
 22 27  1  0  0  0  0
 22 23  1  0  0  0  0
 22 25  1  0  0  0  0
 23 24  1  0  0  0  0
 23 45  1  0  0  0  0
 23 46  1  0  0  0  0
 24 47  1  0  0  0  0
 25 26  1  0  0  0  0
 25 48  1  0  0  0  0
 25 49  1  0  0  0  0
 26 27  1  0  0  0  0
 27 50  1  0  0  0  0
 27 51  1  0  0  0  0
M  END
> <s_m_source_file>
AV-unprocessed.smi

> <i_m_source_file_index>
220

> <i_lp_mmshare_version>
43012

> <i_f3d_flags>
0

> <s_epik_input>
W0NIMl0xW0NIMl1bQ0gyXVtDQEhdKFtDQEhdMTIpW0NIMl1OKFtDQEBIXTJDKD1PKVtOSDJdKWMobltjSF1uMyljKGMzNCluW2NIXW40W0NIMl1DNShbQ0gyXVtPSF0pW0NIMl1PW0NIMl01

> <s_epik_cmdline>
J2VwaWtfcHl0aG9uJywgJy1waCcsICc3LjAnLCAnLXRuJywgJzgnLCAnLW1hJywgJzIwMCcsICctbWV0YWxfYmluZGluZycsICctaW1hZScsICc8aW5maWxlLm1hZT4nLCAnLW9tYWUnLCAnPG91dGZpbGUubWFlPic=

> <r_lp_tautomer_probability>
1

> <r_epik_Ionization_Penalty>
0.00118987

> <r_epik_Ionization_Penalty_Charging>
0

> <r_epik_Ionization_Penalty_Neutral>
0.00118987

> <r_epik_State_Penalty>
0.000654261

> <r_epik_Charging_Adjusted_Penalty>
0.000654261

> <i_epik_Tot_Q>
0

> <i_epik_Tot_abs_Q>
0

> <r_epik_Metal_State_Penalty>
-0

> <b_epik_Metal_Only>
0

> <s_lp_Force_Field>
OPLS_2005

> <r_lp_Energy>
60.6153

> <b_lp_Chiralities_Consistent>
1

> <s_lp_Variant>
AV-unprocessed.smi:220-3

> <Gold.Version>
5.8.1

> <Gold.Id.Protein>
6NUR|6NUR_protein|mol2

> <Gold.PLP.Fitness>
57.6795

> <Gold.PLP.PLP>
-48.6222

> <Gold.PLP.part.hbond>
-4.8015

> <Gold.PLP.part.metal>
0.0000

> <Gold.PLP.part.buried>
-1.4786

> <Gold.PLP.part.nonpolar>
-41.1650

> <Gold.PLP.part.repulsive>
0.2279

> <Gold.PLP.ligand.clash>
0.0000

> <Gold.PLP.ligand.torsion>
0.6592

> <Gold.PLP.Chemscore.Hbond>
3.0988

> <Gold.PLP.Chemscore.CHOScore>
0.2205

> <Gold.PLP.Chemscore.Metal>
0.0000

> <Gold.Chemscore.Hbonds>
donor molecule, donor type, donor heavy atom, donor atom, acceptor molecule, acceptor atom, score
      L1  H    24    47       P1  7948  0.93
      P1  H  7954  7966       L1    24  0.48
      P1  H  7989  7998       L1    15  0.65
      P1  H  7997  8009       L1    13  1.00
      L1  C    19    42       P1  8028  0.17

> <Gold.PLP.Chemscore.Internal.Correction>
0.4179

> <Gold.Rescore>
     Score         DG    S(hbond)    S(metal)    S(lipo)     H(rot)  DE(clash)    DE(int)     intcor
     14.88     -16.30       1.82        0.00     103.79       2.89       0.18       1.24       ----

> <Gold.Chemscore.Fitness>
14.8825

> <Gold.Chemscore.DG>
-16.2978

> <Gold.Chemscore.ZeroCoef>
-5.4800

> <Gold.Chemscore.Hbond>
1.8159

> <Gold.Chemscore.Metal>
0.0000

> <Gold.Chemscore.Lipo>
103.7884

> <Gold.Chemscore.Internal_Hbond>
0.0000

> <Gold.Chemscore.DEClash>
0.1796

> <Gold.Chemscore.DEInternal>
1.2356

> <Gold.Chemscore.Rot>
2.8869

> <Gold.Chemscore.Internal.Correction>
   9.000000E+99

> <Gold.Chemscore.Hbonds>
donor molecule, donor type, donor heavy atom, donor atom, acceptor molecule, acceptor atom, score
      L1  H    24    47       P1  7948  0.90
      P1  H  7954  7966       L1    24  0.02
      P1  H  7989  7998       L1    15  0.03
      P1  H  7997  8009       L1    13  0.44

> <Gold.Chemscore.Hbond.Weighted>
-6.0651

> <Gold.Chemscore.Metal.Weighted>
-0.0000

> <Gold.Chemscore.Lipo.Weighted>
-12.1432

> <Gold.Chemscore.Internal_Hbond.Weighted>
0.0000

> <Gold.Chemscore.DEClash.Weighted>
0.1796

> <Gold.Chemscore.DEInternal.Weighted>
1.2356

> <Gold.Chemscore.Rot.Weighted>
7.3905

> <Gold.Chemscore.Internal.Correction.Weighted>
   9.000000E+99

> <Gold.Protein.RotatedTorsions>
[ 6907 6896 6895 6894 ] final  103.39 input  -60.11 | X-H torsion
[ 7974 7965 7964 7962 ] final   29.57 input  175.53 | X-H torsion
[ 8008 7997 7996 7995 ] final  179.52 input   59.86 | X-H torsion
[ 10167 10162 10161 10158 ] final  118.23 input  -65.29 | X-H torsion
[ 10718 10713 10712 10709 ] final -167.66 input   66.30 | X-H torsion
[ 10763 10752 10751 10750 ] final  -52.46 input  -60.55 | X-H torsion
[ 11005 11000 10999 10996 ] final -123.15 input  -57.11 | X-H torsion

> <Gold.Protein.ActiveResidues>
 VAL166  LYS551  ARG553  GLY616  TRP617  ASP618  TYR619  PRO620  LYS621  CYS622 
 ASP623  PHE694  ASN695  SER759  ASP760  ASP761  ALA762  ILE779  LEU786  VAL792 
 PHE793  MET794  SER795  GLU796  ALA797  LYS798  CYS799  TRP800  GLU811  SER814 

> <Gold.Protein.RotatedAtoms>
  152.5297  133.9833  159.7816 H   0  0  0  0  0  0  0  0  0  0  0  0  # atno 6907 bound_to 6896
  151.0082  133.5982  159.2693 H   0  0  0  0  0  0  0  0  0  0  0  0  # atno 6908 bound_to 6896
  151.3066  135.0789  159.9311 H   0  0  0  0  0  0  0  0  0  0  0  0  # atno 6909 bound_to 6896
  146.1664  139.6904  142.8998 H   0  0  0  0  0  0  0  0  0  0  0  0  # atno 7974 bound_to 7965
  156.0424  140.1306  157.0141 H   0  0  0  0  0  0  0  0  0  0  0  0  # atno 8008 bound_to 7997
  154.4397  140.1027  156.6327 H   0  0  0  0  0  0  0  0  0  0  0  0  # atno 8009 bound_to 7997
  155.5647  140.3465  155.4502 H   0  0  0  0  0  0  0  0  0  0  0  0  # atno 8010 bound_to 7997
  139.6125  144.7085  151.2812 H   0  0  0  0  0  0  0  0  0  0  0  0  # atno 10167 bound_to 10162
  156.6857  130.9139  151.3063 H   0  0  0  0  0  0  0  0  0  0  0  0  # atno 10718 bound_to 10713
  154.1431  135.6502  153.4946 H   0  0  0  0  0  0  0  0  0  0  0  0  # atno 10763 bound_to 10752
  153.0160  135.5320  154.6885 H   0  0  0  0  0  0  0  0  0  0  0  0  # atno 10764 bound_to 10752
  154.6152  135.2958  155.0359 H   0  0  0  0  0  0  0  0  0  0  0  0  # atno 10765 bound_to 10752
  140.9941  134.0497  157.3619 H   0  0  0  0  0  0  0  0  0  0  0  0  # atno 11005 bound_to 11000
  145.4457  141.0425  143.2832 LP  0  0  0  0  0  0  0  0  0  0  0  0  # atno 17320 bound_to 7965
  144.8098  139.5983  143.7034 LP  0  0  0  0  0  0  0  0  0  0  0  0  # atno 17321 bound_to 7965
  140.7329  143.6810  150.8001 LP  0  0  0  0  0  0  0  0  0  0  0  0  # atno 17342 bound_to 10162
  140.0407  143.5348  152.2719 LP  0  0  0  0  0  0  0  0  0  0  0  0  # atno 17343 bound_to 10162
  157.7027  130.9351  150.0836 LP  0  0  0  0  0  0  0  0  0  0  0  0  # atno 17370 bound_to 10713
  156.1835  130.3651  149.9004 LP  0  0  0  0  0  0  0  0  0  0  0  0  # atno 17371 bound_to 10713
  139.9006  135.0163  156.7250 LP  0  0  0  0  0  0  0  0  0  0  0  0  # atno 17394 bound_to 11000
  140.6993  133.9320  155.8014 LP  0  0  0  0  0  0  0  0  0  0  0  0  # atno 17395 bound_to 11000

$$$$
