AV-unprocessed.smi:1492|AV-procd|sdf|6045|dock10
  -GOLD-   22720 6163D 1   1.00000     0.00000
 Structure written by MMmdl.
 51 52  0  0  0  0  0  0  0  0  2 V2000
  146.4052  139.5139  154.6068 C   0  0  0  0  0  0  0  0  0  0  0  0
  147.8834  139.1756  154.3404 C   0  0  0  0  0  0  0  0  0  0  0  0
  148.6230  138.3540  155.4435 C   0  0  2  0  0  0  0  0  0  0  0  0
  148.4905  136.8444  155.1068 C   0  0  0  0  0  0  0  0  0  0  0  0
  147.8935  138.5730  156.8075 C   0  0  0  0  0  0  0  0  0  0  0  0
  148.5181  137.8238  157.8947 N   0  0  0  0  0  0  0  0  0  0  0  0
  147.9135  137.3766  159.0047 C   0  0  0  0  0  0  0  0  0  0  0  0
  146.7654  137.6792  159.3286 O   0  0  0  0  0  0  0  0  0  0  0  0
  148.7269  136.4049  159.8600 C   0  0  0  0  0  0  0  0  0  0  0  0
  147.9391  135.2041  160.3876 C   0  0  0  0  0  0  0  0  0  0  0  0
  147.1499  135.2584  161.4984 C   0  0  0  0  0  0  0  0  0  0  0  0
  146.9880  136.5148  162.3362 C   0  0  0  0  0  0  0  0  0  0  0  0
  146.4256  134.1349  161.9315 N   0  0  0  0  0  0  0  0  0  0  0  0
  146.5084  133.0410  161.2754 C   0  0  0  0  0  0  0  0  0  0  0  0
  145.7122  131.8441  161.7501 C   0  0  0  0  0  0  0  0  0  0  0  0
  147.2785  132.8795  160.1455 N   0  5  0  0  0  0  0  0  0  0  0  0
  147.9982  133.9271  159.6533 C   0  0  0  0  0  0  0  0  0  0  0  0
  148.6685  133.8325  158.6258 O   0  0  0  0  0  0  0  0  0  0  0  0
  150.0654  138.7250  155.5515 N   0  0  0  0  0  0  0  0  0  0  0  0
  150.9034  138.3536  154.4059 C   0  0  0  0  0  0  0  0  0  0  0  0
  152.3929  138.6309  154.6710 C   0  0  0  0  0  0  0  0  0  0  0  0
  152.5741  140.0038  154.9965 O   0  0  0  0  0  0  0  0  0  0  0  0
  151.8233  140.3917  156.1408 C   0  0  0  0  0  0  0  0  0  0  0  0
  150.3284  140.1286  155.8919 C   0  0  0  0  0  0  0  0  0  0  0  0
  145.9907  140.0747  153.7692 H   0  0  0  0  0  0  0  0  0  0  0  0
  146.2800  140.1313  155.4957 H   0  0  0  0  0  0  0  0  0  0  0  0
  145.7953  138.6186  154.7237 H   0  0  0  0  0  0  0  0  0  0  0  0
  147.9241  138.6419  153.3914 H   0  0  0  0  0  0  0  0  0  0  0  0
  148.4027  140.1183  154.1703 H   0  0  0  0  0  0  0  0  0  0  0  0
  147.4803  136.4719  155.2777 H   0  0  0  0  0  0  0  0  0  0  0  0
  149.1580  136.2383  155.7202 H   0  0  0  0  0  0  0  0  0  0  0  0
  148.7260  136.6347  154.0633 H   0  0  0  0  0  0  0  0  0  0  0  0
  147.9031  139.6271  157.0848 H   0  0  0  0  0  0  0  0  0  0  0  0
  146.8370  138.3113  156.7379 H   0  0  0  0  0  0  0  0  0  0  0  0
  149.4660  137.5139  157.7318 H   0  0  0  0  0  0  0  0  0  0  0  0
  149.5967  136.0793  159.2886 H   0  0  0  0  0  0  0  0  0  0  0  0
  149.1403  136.9521  160.7074 H   0  0  0  0  0  0  0  0  0  0  0  0
  146.6346  137.3441  161.7238 H   0  0  0  0  0  0  0  0  0  0  0  0
  147.9389  136.7967  162.7882 H   0  0  0  0  0  0  0  0  0  0  0  0
  146.2663  136.3630  163.1395 H   0  0  0  0  0  0  0  0  0  0  0  0
  144.6468  132.0179  161.5976 H   0  0  0  0  0  0  0  0  0  0  0  0
  145.8855  131.6703  162.8125 H   0  0  0  0  0  0  0  0  0  0  0  0
  145.9927  130.9401  161.2074 H   0  0  0  0  0  0  0  0  0  0  0  0
  150.8015  137.2947  154.1739 H   0  0  0  0  0  0  0  0  0  0  0  0
  150.5970  138.9050  153.5172 H   0  0  0  0  0  0  0  0  0  0  0  0
  152.7629  138.0042  155.4832 H   0  0  0  0  0  0  0  0  0  0  0  0
  152.9859  138.3928  153.7880 H   0  0  0  0  0  0  0  0  0  0  0  0
  152.1719  139.8454  157.0177 H   0  0  0  0  0  0  0  0  0  0  0  0
  151.9937  141.4504  156.3361 H   0  0  0  0  0  0  0  0  0  0  0  0
  149.9908  140.7814  155.0872 H   0  0  0  0  0  0  0  0  0  0  0  0
  149.7841  140.4231  156.7872 H   0  0  0  0  0  0  0  0  0  0  0  0
  1  2  1  0  0  0  0
  1 25  1  0  0  0  0
  1 26  1  0  0  0  0
  1 27  1  0  0  0  0
  2  3  1  0  0  0  0
  2 28  1  0  0  0  0
  2 29  1  0  0  0  0
  3  4  1  0  0  0  0
  3  5  1  0  0  0  0
  3 19  1  0  0  0  0
  4 30  1  0  0  0  0
  4 31  1  0  0  0  0
  4 32  1  0  0  0  0
  5  6  1  0  0  0  0
  5 33  1  0  0  0  0
  5 34  1  0  0  0  0
  6  7  1  0  0  0  0
  6 35  1  0  0  0  0
  7  8  2  0  0  0  0
  7  9  1  0  0  0  0
  9 10  1  0  0  0  0
  9 36  1  0  0  0  0
  9 37  1  0  0  0  0
 10 17  1  0  0  0  0
 10 11  2  0  0  0  0
 11 12  1  0  0  0  0
 11 13  1  0  0  0  0
 12 38  1  0  0  0  0
 12 39  1  0  0  0  0
 12 40  1  0  0  0  0
 13 14  2  0  0  0  0
 14 15  1  0  0  0  0
 14 16  1  0  0  0  0
 15 41  1  0  0  0  0
 15 42  1  0  0  0  0
 15 43  1  0  0  0  0
 16 17  1  0  0  0  0
 17 18  2  0  0  0  0
 19 24  1  0  0  0  0
 19 20  1  0  0  0  0
 20 21  1  0  0  0  0
 20 44  1  0  0  0  0
 20 45  1  0  0  0  0
 21 22  1  0  0  0  0
 21 46  1  0  0  0  0
 21 47  1  0  0  0  0
 22 23  1  0  0  0  0
 23 24  1  0  0  0  0
 23 48  1  0  0  0  0
 23 49  1  0  0  0  0
 24 50  1  0  0  0  0
 24 51  1  0  0  0  0
M  CHG  1  16  -1
M  END
> <s_m_source_file>
AV-unprocessed.smi

> <i_m_source_file_index>
1492

> <i_lp_mmshare_version>
43012

> <i_f3d_flags>
0

> <s_epik_input>
W0NIMl0xW0NIMl1PW0NIMl1bQ0gyXU4xW0NAQF0oW0NIM10pKFtDSDJdW0NIM10pW0NIMl1bTkhdQyg9TylbQ0gyXWMyYyhbQ0gzXSluYyhbQ0gzXSlbbkhdYzI9Tw==

> <s_epik_cmdline>
J2VwaWtfcHl0aG9uJywgJy1waCcsICc3LjAnLCAnLXRuJywgJzgnLCAnLW1hJywgJzIwMCcsICctbWV0YWxfYmluZGluZycsICctaW1hZScsICc8aW5maWxlLm1hZT4nLCAnLW9tYWUnLCAnPG91dGZpbGUubWFlPic=

> <r_lp_tautomer_probability>
0.839158

> <r_epik_Ionization_Penalty>
6.88574

> <r_epik_Ionization_Penalty_Charging>
6.74373e-08

> <r_epik_Ionization_Penalty_Neutral>
6.88574

> <r_epik_State_Penalty>
4.79448

> <r_epik_Charging_Adjusted_Penalty>
4.79448

> <i_epik_Tot_Q>
-1

> <i_epik_Tot_abs_Q>
1

> <r_epik_Metal_State_Penalty>
1.16421

> <b_epik_Metal_Only>
1

> <s_lp_Force_Field>
OPLS_2005

> <r_lp_Energy>
46.4707

> <b_lp_Chiralities_Consistent>
1

> <s_lp_Variant>
AV-unprocessed.smi:1492-10

> <Gold.Version>
5.8.1

> <Gold.Id.Protein>
6NUR|6NUR_protein|mol2

> <Gold.PLP.Fitness>
38.9670

> <Gold.PLP.PLP>
-32.3796

> <Gold.PLP.part.hbond>
-4.0000

> <Gold.PLP.part.metal>
0.0000

> <Gold.PLP.part.buried>
-4.4067

> <Gold.PLP.part.nonpolar>
-25.1157

> <Gold.PLP.part.repulsive>
0.1529

> <Gold.PLP.ligand.clash>
0.0000

> <Gold.PLP.ligand.torsion>
1.4846

> <Gold.PLP.Chemscore.Hbond>
3.1474

> <Gold.PLP.Chemscore.CHOScore>
0.0000

> <Gold.PLP.Chemscore.Metal>
0.0000

> <Gold.Chemscore.Hbonds>
donor molecule, donor type, donor heavy atom, donor atom, acceptor molecule, acceptor atom, score
      P1  H  6896  6908       L1    18  0.70
      P1  H  6934  6947       L1     8  0.65
      P1  H  7989  7998       L1    22  0.53
      P1  H  7997  8010       L1    22  0.77

> <Gold.PLP.Chemscore.Internal.Correction>
0.1144

> <Gold.Rescore>
     Score         DG    S(hbond)    S(metal)    S(lipo)     H(rot)  DE(clash)    DE(int)     intcor
     11.96     -13.46       1.50        0.00      70.19       2.05       0.00       1.50       ----

> <Gold.Chemscore.Fitness>
11.9630

> <Gold.Chemscore.DG>
-13.4607

> <Gold.Chemscore.ZeroCoef>
-5.4800

> <Gold.Chemscore.Hbond>
1.4990

> <Gold.Chemscore.Metal>
0.0000

> <Gold.Chemscore.Lipo>
70.1897

> <Gold.Chemscore.Internal_Hbond>
0.0000

> <Gold.Chemscore.DEClash>
0.0009

> <Gold.Chemscore.DEInternal>
1.4968

> <Gold.Chemscore.Rot>
2.0461

> <Gold.Chemscore.Internal.Correction>
   9.000000E+99

> <Gold.Chemscore.Hbonds>
donor molecule, donor type, donor heavy atom, donor atom, acceptor molecule, acceptor atom, score
      P1  H  6896  6908       L1    18  0.31
      P1  H  6934  6947       L1     8  0.16
      P1  H  7989  7998       L1    22  0.08
      P1  H  7997  8010       L1    22  0.11

> <Gold.Chemscore.Hbond.Weighted>
-5.0065

> <Gold.Chemscore.Metal.Weighted>
-0.0000

> <Gold.Chemscore.Lipo.Weighted>
-8.2122

> <Gold.Chemscore.Internal_Hbond.Weighted>
0.0000

> <Gold.Chemscore.DEClash.Weighted>
0.0009

> <Gold.Chemscore.DEInternal.Weighted>
1.4968

> <Gold.Chemscore.Rot.Weighted>
5.2381

> <Gold.Chemscore.Internal.Correction.Weighted>
   9.000000E+99

> <Gold.Protein.RotatedTorsions>
[ 6907 6896 6895 6894 ] final  128.31 input  -60.11 | X-H torsion
[ 7974 7965 7964 7962 ] final -176.89 input  175.53 | X-H torsion
[ 8008 7997 7996 7995 ] final  112.25 input   59.86 | X-H torsion
[ 10167 10162 10161 10158 ] final -117.74 input  -65.29 | X-H torsion
[ 10718 10713 10712 10709 ] final -101.84 input   66.30 | X-H torsion
[ 10763 10752 10751 10750 ] final  109.27 input  -60.55 | X-H torsion
[ 11005 11000 10999 10996 ] final -132.50 input  -57.11 | X-H torsion

> <Gold.Protein.ActiveResidues>
 VAL166  LYS551  ARG553  GLY616  TRP617  ASP618  TYR619  PRO620  LYS621  CYS622 
 ASP623  PHE694  ASN695  SER759  ASP760  ASP761  ALA762  ILE779  LEU786  VAL792 
 PHE793  MET794  SER795  GLU796  ALA797  LYS798  CYS799  TRP800  GLU811  SER814 

> <Gold.Protein.RotatedAtoms>
  152.3731  133.6445  159.6102 H   0  0  0  0  0  0  0  0  0  0  0  0  # atno 6907 bound_to 6896
  150.7684  133.9237  159.3414 H   0  0  0  0  0  0  0  0  0  0  0  0  # atno 6908 bound_to 6896
  151.7056  135.0923  160.0310 H   0  0  0  0  0  0  0  0  0  0  0  0  # atno 6909 bound_to 6896
  144.7127  140.1101  143.6411 H   0  0  0  0  0  0  0  0  0  0  0  0  # atno 7974 bound_to 7965
  156.2179  140.3003  155.9883 H   0  0  0  0  0  0  0  0  0  0  0  0  # atno 8008 bound_to 7997
  155.2557  140.0428  157.3009 H   0  0  0  0  0  0  0  0  0  0  0  0  # atno 8009 bound_to 7997
  154.5796  140.2371  155.8081 H   0  0  0  0  0  0  0  0  0  0  0  0  # atno 8010 bound_to 7997
  140.0650  143.4931  152.2011 H   0  0  0  0  0  0  0  0  0  0  0  0  # atno 10167 bound_to 10162
  156.0208  130.5392  150.7022 H   0  0  0  0  0  0  0  0  0  0  0  0  # atno 10718 bound_to 10713
  153.4323  135.3785  155.2178 H   0  0  0  0  0  0  0  0  0  0  0  0  # atno 10763 bound_to 10752
  154.8750  135.3843  154.4252 H   0  0  0  0  0  0  0  0  0  0  0  0  # atno 10764 bound_to 10752
  153.4787  135.7088  153.6014 H   0  0  0  0  0  0  0  0  0  0  0  0  # atno 10765 bound_to 10752
  140.9164  134.1501  157.4349 H   0  0  0  0  0  0  0  0  0  0  0  0  # atno 11005 bound_to 11000
  145.9462  139.2702  143.1239 LP  0  0  0  0  0  0  0  0  0  0  0  0  # atno 17320 bound_to 7965
  145.9372  140.9006  143.0326 LP  0  0  0  0  0  0  0  0  0  0  0  0  # atno 17321 bound_to 7965
  139.5870  144.7535  151.3495 LP  0  0  0  0  0  0  0  0  0  0  0  0  # atno 17342 bound_to 10162
  140.7153  143.7282  150.7644 LP  0  0  0  0  0  0  0  0  0  0  0  0  # atno 17343 bound_to 10162
  157.4679  131.0890  151.0674 LP  0  0  0  0  0  0  0  0  0  0  0  0  # atno 17370 bound_to 10713
  157.1143  130.6035  149.5489 LP  0  0  0  0  0  0  0  0  0  0  0  0  # atno 17371 bound_to 10713
  139.8767  134.9955  156.5748 LP  0  0  0  0  0  0  0  0  0  0  0  0  # atno 17394 bound_to 11000
  140.8044  133.8479  155.8755 LP  0  0  0  0  0  0  0  0  0  0  0  0  # atno 17395 bound_to 11000

$$$$
