AV-unprocessed.smi:2001|AV-procd|sdf|8104|dock6
  -GOLD-   2272010333D 1   1.00000     0.00000
 Structure written by MMmdl.
 50 51  0  0  0  0  0  0  0  0  1 V2000
  151.2493  139.9212  155.7621 C   0  0  0  0  0  0  0  0  0  0  0  0
  150.1876  140.4500  156.5371 O   0  0  0  0  0  0  0  0  0  0  0  0
  150.5821  140.7484  157.8654 C   0  0  0  0  0  0  0  0  0  0  0  0
  151.3210  142.0948  157.8729 C   0  0  0  0  0  0  0  0  0  0  0  0
  152.0004  142.3299  159.1511 N   0  0  0  0  0  0  0  0  0  0  0  0
  152.8207  141.2895  159.5550 N   0  0  0  0  0  0  0  0  0  0  0  0
  153.4793  141.3746  160.6656 C   0  0  0  0  0  0  0  0  0  0  0  0
  154.3787  140.2830  161.1318 C   0  0  0  0  0  0  0  0  0  0  0  0
  154.2646  139.1271  160.7206 O   0  0  0  0  0  0  0  0  0  0  0  0
  155.3129  140.6477  162.0290 N   0  0  0  0  0  0  0  0  0  0  0  0
  156.2800  139.7482  162.6461 C   0  0  0  0  0  0  0  0  0  0  0  0
  155.8355  139.3183  164.0571 C   0  0  0  0  0  0  0  0  0  0  0  0
  156.2268  140.2342  165.1267 N   0  0  0  0  0  0  0  0  0  0  0  0
  155.7342  139.8145  166.4369 C   0  0  0  0  0  0  0  0  0  0  0  0
  156.1263  140.7939  167.5622 C   0  0  1  0  0  0  0  0  0  0  0  0
  157.6109  140.7060  167.9552 C   0  0  0  0  0  0  0  0  0  0  0  0
  155.7479  142.1273  167.2156 O   0  0  0  0  0  0  0  0  0  0  0  0
  156.2086  142.5790  165.9433 C   0  0  2  0  0  0  0  0  0  0  0  0
  155.6522  143.9867  165.7060 C   0  0  0  0  0  0  0  0  0  0  0  0
  155.7578  141.5871  164.8562 C   0  0  0  0  0  0  0  0  0  0  0  0
  153.3683  142.5536  161.5081 C   0  0  0  0  0  0  0  0  0  0  0  0
  152.5592  143.5572  161.1039 C   0  0  0  0  0  0  0  0  0  0  0  0
  151.8030  143.4864  159.8529 C   0  0  0  0  0  0  0  0  0  0  0  0
  151.0550  144.3842  159.4670 O   0  0  0  0  0  0  0  0  0  0  0  0
  150.8963  139.7091  154.7529 H   0  0  0  0  0  0  0  0  0  0  0  0
  151.6239  138.9903  156.1896 H   0  0  0  0  0  0  0  0  0  0  0  0
  152.0747  140.6305  155.6880 H   0  0  0  0  0  0  0  0  0  0  0  0
  149.7042  140.7918  158.5121 H   0  0  0  0  0  0  0  0  0  0  0  0
  151.2340  139.9604  158.2460 H   0  0  0  0  0  0  0  0  0  0  0  0
  152.0464  142.1141  157.0575 H   0  0  0  0  0  0  0  0  0  0  0  0
  150.6227  142.9060  157.6583 H   0  0  0  0  0  0  0  0  0  0  0  0
  155.3420  141.6161  162.3142 H   0  0  0  0  0  0  0  0  0  0  0  0
  156.3800  138.8828  161.9920 H   0  0  0  0  0  0  0  0  0  0  0  0
  157.2600  140.2269  162.6839 H   0  0  0  0  0  0  0  0  0  0  0  0
  154.7478  139.2354  164.0547 H   0  0  0  0  0  0  0  0  0  0  0  0
  156.2101  138.3162  164.2715 H   0  0  0  0  0  0  0  0  0  0  0  0
  154.6467  139.7336  166.4043 H   0  0  0  0  0  0  0  0  0  0  0  0
  156.1084  138.8229  166.6880 H   0  0  0  0  0  0  0  0  0  0  0  0
  155.5479  140.5334  168.4490 H   0  0  0  0  0  0  0  0  0  0  0  0
  157.8555  139.7096  168.3237 H   0  0  0  0  0  0  0  0  0  0  0  0
  157.8465  141.4175  168.7468 H   0  0  0  0  0  0  0  0  0  0  0  0
  158.2714  140.9121  167.1133 H   0  0  0  0  0  0  0  0  0  0  0  0
  157.2974  142.6388  165.9525 H   0  0  0  0  0  0  0  0  0  0  0  0
  155.9860  144.3833  164.7469 H   0  0  0  0  0  0  0  0  0  0  0  0
  155.9863  144.6739  166.4837 H   0  0  0  0  0  0  0  0  0  0  0  0
  154.5620  143.9856  165.7077 H   0  0  0  0  0  0  0  0  0  0  0  0
  156.1356  141.9215  163.8893 H   0  0  0  0  0  0  0  0  0  0  0  0
  154.6689  141.5923  164.7839 H   0  0  0  0  0  0  0  0  0  0  0  0
  153.9146  142.6330  162.4368 H   0  0  0  0  0  0  0  0  0  0  0  0
  152.4662  144.4391  161.7208 H   0  0  0  0  0  0  0  0  0  0  0  0
  1  2  1  0  0  0  0
  1 25  1  0  0  0  0
  1 26  1  0  0  0  0
  1 27  1  0  0  0  0
  2  3  1  0  0  0  0
  3  4  1  0  0  0  0
  3 28  1  0  0  0  0
  3 29  1  0  0  0  0
  4  5  1  0  0  0  0
  4 30  1  0  0  0  0
  4 31  1  0  0  0  0
  5 23  1  0  0  0  0
  5  6  1  0  0  0  0
  6  7  2  0  0  0  0
  7  8  1  0  0  0  0
  7 21  1  0  0  0  0
  8  9  2  0  0  0  0
  8 10  1  0  0  0  0
 10 11  1  0  0  0  0
 10 32  1  0  0  0  0
 11 12  1  0  0  0  0
 11 33  1  0  0  0  0
 11 34  1  0  0  0  0
 12 13  1  0  0  0  0
 12 35  1  0  0  0  0
 12 36  1  0  0  0  0
 13 20  1  0  0  0  0
 13 14  1  0  0  0  0
 14 15  1  0  0  0  0
 14 37  1  0  0  0  0
 14 38  1  0  0  0  0
 15 16  1  0  0  0  0
 15 17  1  0  0  0  0
 15 39  1  0  0  0  0
 16 40  1  0  0  0  0
 16 41  1  0  0  0  0
 16 42  1  0  0  0  0
 17 18  1  0  0  0  0
 18 19  1  0  0  0  0
 18 20  1  0  0  0  0
 18 43  1  0  0  0  0
 19 44  1  0  0  0  0
 19 45  1  0  0  0  0
 19 46  1  0  0  0  0
 20 47  1  0  0  0  0
 20 48  1  0  0  0  0
 21 22  2  0  0  0  0
 21 49  1  0  0  0  0
 22 23  1  0  0  0  0
 22 50  1  0  0  0  0
 23 24  2  0  0  0  0
M  END
> <s_m_source_file>
AV-unprocessed.smi

> <i_m_source_file_index>
2001

> <i_lp_mmshare_version>
43012

> <i_f3d_flags>
0

> <s_epik_input>
W0NIM11PW0NIMl1bQ0gyXW4xbmMoW2NIXVtjSF1jMT1PKUMoPU8pW05IXVtDSDJdW0NIMl1OMltDSDJdW0NAQEhdKFtDSDNdKU9bQ0BASF0oW0NIM10pW0NIMl0y

> <s_epik_cmdline>
J2VwaWtfcHl0aG9uJywgJy1waCcsICc3LjAnLCAnLXRuJywgJzgnLCAnLW1hJywgJzIwMCcsICctbWV0YWxfYmluZGluZycsICctaW1hZScsICc8aW5maWxlLm1hZT4nLCAnLW9tYWUnLCAnPG91dGZpbGUubWFlPic=

> <r_lp_tautomer_probability>
1

> <r_epik_Ionization_Penalty>
0.206669

> <r_epik_Ionization_Penalty_Charging>
5.55992e-09

> <r_epik_Ionization_Penalty_Neutral>
0.206669

> <r_epik_State_Penalty>
0.196651

> <r_epik_Charging_Adjusted_Penalty>
0.196651

> <i_epik_Tot_Q>
0

> <i_epik_Tot_abs_Q>
0

> <r_epik_Metal_State_Penalty>
0.198372

> <b_epik_Metal_Only>
0

> <s_lp_Force_Field>
OPLS_2005

> <r_lp_Energy>
41.2012

> <b_lp_Chiralities_Consistent>
1

> <s_lp_Variant>
AV-unprocessed.smi:2001-3

> <Gold.Version>
5.8.1

> <Gold.Id.Protein>
6NUR|6NUR_protein|mol2

> <Gold.PLP.Fitness>
44.0900

> <Gold.PLP.PLP>
-45.3434

> <Gold.PLP.part.hbond>
-1.0000

> <Gold.PLP.part.metal>
0.0000

> <Gold.PLP.part.buried>
-7.3334

> <Gold.PLP.part.nonpolar>
-35.4523

> <Gold.PLP.part.repulsive>
0.1848

> <Gold.PLP.ligand.clash>
0.0000

> <Gold.PLP.ligand.torsion>
0.6819

> <Gold.PLP.Chemscore.Hbond>
0.0000

> <Gold.PLP.Chemscore.CHOScore>
0.0000

> <Gold.PLP.Chemscore.Metal>
0.0000

> <Gold.PLP.Chemscore.Internal.Correction>
0.1103

> <Gold.Rescore>
     Score         DG    S(hbond)    S(metal)    S(lipo)     H(rot)  DE(clash)    DE(int)     intcor
     10.99     -11.87       0.00        0.00      98.39       2.00       0.28       0.60       ----

> <Gold.Chemscore.Fitness>
10.9853

> <Gold.Chemscore.DG>
-11.8663

> <Gold.Chemscore.ZeroCoef>
-5.4800

> <Gold.Chemscore.Hbond>
0.0000

> <Gold.Chemscore.Metal>
0.0000

> <Gold.Chemscore.Lipo>
98.3887

> <Gold.Chemscore.Internal_Hbond>
0.0000

> <Gold.Chemscore.DEClash>
0.2769

> <Gold.Chemscore.DEInternal>
0.6041

> <Gold.Chemscore.Rot>
2.0020

> <Gold.Chemscore.Internal.Correction>
   9.000000E+99

> <Gold.Chemscore.Hbond.Weighted>
-0.0000

> <Gold.Chemscore.Metal.Weighted>
-0.0000

> <Gold.Chemscore.Lipo.Weighted>
-11.5115

> <Gold.Chemscore.Internal_Hbond.Weighted>
0.0000

> <Gold.Chemscore.DEClash.Weighted>
0.2769

> <Gold.Chemscore.DEInternal.Weighted>
0.6041

> <Gold.Chemscore.Rot.Weighted>
5.1252

> <Gold.Chemscore.Internal.Correction.Weighted>
   9.000000E+99

> <Gold.Protein.RotatedTorsions>
[ 6907 6896 6895 6894 ] final   64.67 input  -60.11 | X-H torsion
[ 7974 7965 7964 7962 ] final   89.31 input  175.53 | X-H torsion
[ 8008 7997 7996 7995 ] final   20.50 input   59.86 | X-H torsion
[ 10167 10162 10161 10158 ] final -169.40 input  -65.29 | X-H torsion
[ 10718 10713 10712 10709 ] final  -54.11 input   66.30 | X-H torsion
[ 10763 10752 10751 10750 ] final  109.15 input  -60.55 | X-H torsion
[ 11005 11000 10999 10996 ] final  -58.20 input  -57.11 | X-H torsion

> <Gold.Protein.ActiveResidues>
 VAL166  LYS551  ARG553  GLY616  TRP617  ASP618  TYR619  PRO620  LYS621  CYS622 
 ASP623  PHE694  ASN695  SER759  ASP760  ASP761  ALA762  ILE779  LEU786  VAL792 
 PHE793  MET794  SER795  GLU796  ALA797  LYS798  CYS799  TRP800  GLU811  SER814 

> <Gold.Protein.RotatedAtoms>
  152.4349  134.5706  159.9919 H   0  0  0  0  0  0  0  0  0  0  0  0  # atno 6907 bound_to 6896
  151.5819  133.3371  159.3018 H   0  0  0  0  0  0  0  0  0  0  0  0  # atno 6908 bound_to 6896
  150.8246  134.7506  159.6866 H   0  0  0  0  0  0  0  0  0  0  0  0  # atno 6909 bound_to 6896
  145.5341  139.2285  143.2602 H   0  0  0  0  0  0  0  0  0  0  0  0  # atno 7974 bound_to 7965
  154.9365  140.3047  155.5142 H   0  0  0  0  0  0  0  0  0  0  0  0  # atno 8008 bound_to 7997
  156.2999  140.2344  156.4367 H   0  0  0  0  0  0  0  0  0  0  0  0  # atno 8009 bound_to 7997
  154.8186  140.0424  157.1383 H   0  0  0  0  0  0  0  0  0  0  0  0  # atno 8010 bound_to 7997
  139.5925  144.1182  152.1651 H   0  0  0  0  0  0  0  0  0  0  0  0  # atno 10167 bound_to 10162
  156.1478  130.4152  149.9995 H   0  0  0  0  0  0  0  0  0  0  0  0  # atno 10718 bound_to 10713
  153.4307  135.3789  155.2168 H   0  0  0  0  0  0  0  0  0  0  0  0  # atno 10763 bound_to 10752
  154.8750  135.3839  154.4271 H   0  0  0  0  0  0  0  0  0  0  0  0  # atno 10764 bound_to 10752
  153.4803  135.7088  153.6005 H   0  0  0  0  0  0  0  0  0  0  0  0  # atno 10765 bound_to 10752
  141.1197  133.6612  156.4884 H   0  0  0  0  0  0  0  0  0  0  0  0  # atno 11005 bound_to 11000
  146.2025  140.6158  142.9096 LP  0  0  0  0  0  0  0  0  0  0  0  0  # atno 17320 bound_to 7965
  144.7611  140.5423  143.6735 LP  0  0  0  0  0  0  0  0  0  0  0  0  # atno 17321 bound_to 7965
  140.0760  144.5740  150.7157 LP  0  0  0  0  0  0  0  0  0  0  0  0  # atno 17342 bound_to 10162
  140.7185  143.2566  151.4356 LP  0  0  0  0  0  0  0  0  0  0  0  0  # atno 17343 bound_to 10162
  156.7862  130.9239  151.3646 LP  0  0  0  0  0  0  0  0  0  0  0  0  # atno 17370 bound_to 10713
  157.6631  130.8984  149.9873 LP  0  0  0  0  0  0  0  0  0  0  0  0  # atno 17371 bound_to 10713
  140.4543  134.6900  157.5055 LP  0  0  0  0  0  0  0  0  0  0  0  0  # atno 17394 bound_to 11000
  140.0145  134.6640  155.9330 LP  0  0  0  0  0  0  0  0  0  0  0  0  # atno 17395 bound_to 11000

$$$$
