AV-unprocessed.smi:1472|AV-procd|sdf|5965|dock1
  -GOLD-   22720 6 53D 1   1.00000     0.00000
 Structure written by MMmdl.
 42 43  0  0  0  0  0  0  0  0  2 V2000
  151.6328  130.2314  158.4936 C   0  0  0  0  0  0  0  0  0  0  0  0
  153.1699  130.8416  157.6883 S   0  0  0  0  0  0  0  0  0  0  0  0
  153.5036  132.1515  158.2681 O   0  0  0  0  0  0  0  0  0  0  0  0
  154.1634  129.7572  157.7179 O   0  0  0  0  0  0  0  0  0  0  0  0
  152.7090  131.0939  156.0291 N   0  0  0  0  0  0  0  0  0  0  0  0
  152.6717  129.9525  155.0941 C   0  0  0  0  0  0  0  0  0  0  0  0
  151.2337  129.4557  154.8588 C   0  0  0  0  0  0  0  0  0  0  0  0
  150.3062  130.5974  154.4027 C   0  0  0  0  0  0  0  0  0  0  0  0
  148.8520  130.1328  154.1713 C   0  0  0  0  0  0  0  0  0  0  0  0
  148.2705  130.6863  152.9517 N   0  0  0  0  0  0  0  0  0  0  0  0
  147.0114  131.1314  152.8333 C   0  0  0  0  0  0  0  0  0  0  0  0
  146.1933  131.1024  153.7522 O   0  0  0  0  0  0  0  0  0  0  0  0
  146.7687  131.5880  151.5921 N   0  0  0  0  0  0  0  0  0  0  0  0
  145.5821  132.1836  151.0831 C   0  0  0  0  0  0  0  0  0  0  0  0
  144.7264  132.8282  152.0042 C   0  0  0  0  0  0  0  0  0  0  0  0
  143.5286  133.4158  151.5483 C   0  0  0  0  0  0  0  0  0  0  0  0
  143.2035  133.3514  150.2394 N   0  3  0  0  0  0  0  0  0  0  0  0
  143.9816  132.7351  149.3239 C   0  0  0  0  0  0  0  0  0  0  0  0
  145.1910  132.1288  149.7207 C   0  0  0  0  0  0  0  0  0  0  0  0
  150.3680  131.7274  155.4427 C   0  0  0  0  0  0  0  0  0  0  0  0
  151.8108  132.2098  155.6721 C   0  0  0  0  0  0  0  0  0  0  0  0
  151.8317  130.0543  159.5502 H   0  0  0  0  0  0  0  0  0  0  0  0
  151.3193  129.2962  158.0334 H   0  0  0  0  0  0  0  0  0  0  0  0
  150.8441  130.9756  158.4018 H   0  0  0  0  0  0  0  0  0  0  0  0
  153.1068  130.2710  154.1461 H   0  0  0  0  0  0  0  0  0  0  0  0
  153.2988  129.1407  155.4617 H   0  0  0  0  0  0  0  0  0  0  0  0
  151.2543  128.6632  154.1104 H   0  0  0  0  0  0  0  0  0  0  0  0
  150.8405  129.0027  155.7680 H   0  0  0  0  0  0  0  0  0  0  0  0
  150.6918  130.9926  153.4616 H   0  0  0  0  0  0  0  0  0  0  0  0
  148.8159  129.0455  154.0984 H   0  0  0  0  0  0  0  0  0  0  0  0
  148.2281  130.4021  155.0255 H   0  0  0  0  0  0  0  0  0  0  0  0
  148.8748  130.7383  152.1446 H   0  0  0  0  0  0  0  0  0  0  0  0
  147.5112  131.4589  150.9202 H   0  0  0  0  0  0  0  0  0  0  0  0
  144.9842  132.8785  153.0524 H   0  0  0  0  0  0  0  0  0  0  0  0
  142.8251  133.9294  152.1871 H   0  0  0  0  0  0  0  0  0  0  0  0
  143.6130  132.7386  148.3085 H   0  0  0  0  0  0  0  0  0  0  0  0
  145.7859  131.6237  148.9750 H   0  0  0  0  0  0  0  0  0  0  0  0
  149.7576  132.5684  155.1118 H   0  0  0  0  0  0  0  0  0  0  0  0
  149.9328  131.3906  156.3829 H   0  0  0  0  0  0  0  0  0  0  0  0
  151.8361  132.9801  156.4424 H   0  0  0  0  0  0  0  0  0  0  0  0
  152.1882  132.6756  154.7610 H   0  0  0  0  0  0  0  0  0  0  0  0
  142.3314  133.7815  149.9301 H   0  0  0  0  0  0  0  0  0  0  0  0
  1  2  1  0  0  0  0
  1 22  1  0  0  0  0
  1 23  1  0  0  0  0
  1 24  1  0  0  0  0
  2  3  2  0  0  0  0
  2  4  2  0  0  0  0
  2  5  1  0  0  0  0
  5 21  1  0  0  0  0
  5  6  1  0  0  0  0
  6  7  1  0  0  0  0
  6 25  1  0  0  0  0
  6 26  1  0  0  0  0
  7  8  1  0  0  0  0
  7 27  1  0  0  0  0
  7 28  1  0  0  0  0
  8  9  1  0  0  0  0
  8 20  1  0  0  0  0
  8 29  1  0  0  0  0
  9 10  1  0  0  0  0
  9 30  1  0  0  0  0
  9 31  1  0  0  0  0
 10 11  1  0  0  0  0
 10 32  1  0  0  0  0
 11 12  2  0  0  0  0
 11 13  1  0  0  0  0
 13 14  1  0  0  0  0
 13 33  1  0  0  0  0
 14 19  1  0  0  0  0
 14 15  2  0  0  0  0
 15 16  1  0  0  0  0
 15 34  1  0  0  0  0
 16 17  2  0  0  0  0
 16 35  1  0  0  0  0
 17 18  1  0  0  0  0
 17 42  1  0  0  0  0
 18 19  2  0  0  0  0
 18 36  1  0  0  0  0
 19 37  1  0  0  0  0
 20 21  1  0  0  0  0
 20 38  1  0  0  0  0
 20 39  1  0  0  0  0
 21 40  1  0  0  0  0
 21 41  1  0  0  0  0
M  CHG  1  17   1
M  END
> <s_m_source_file>
AV-unprocessed.smi

> <i_m_source_file_index>
1472

> <i_lp_mmshare_version>
43012

> <i_f3d_flags>
0

> <s_epik_input>
W0NIM11TKD1PKSg9TylOMVtDSDJdW0NIMl1bQ0hdKFtDSDJdW0NIMl0xKVtDSDJdW05IXUMoPU8pW05IXWMyW2NIXVtjSF1uW2NIXVtjSF0y

> <s_epik_cmdline>
J2VwaWtfcHl0aG9uJywgJy1waCcsICc3LjAnLCAnLXRuJywgJzgnLCAnLW1hJywgJzIwMCcsICctbWV0YWxfYmluZGluZycsICctaW1hZScsICc8aW5maWxlLm1hZT4nLCAnLW9tYWUnLCAnPG91dGZpbGUubWFlPic=

> <r_epik_Ionization_Penalty>
1.02593

> <r_epik_Ionization_Penalty_Charging>
1.02591

> <r_epik_Ionization_Penalty_Neutral>
2.05222e-05

> <r_epik_State_Penalty>
1.07662

> <r_epik_Charging_Adjusted_Penalty>
2.10252

> <i_epik_Tot_Q>
1

> <i_epik_Tot_abs_Q>
1

> <r_epik_Metal_State_Penalty>
1.17465

> <b_epik_Metal_Only>
0

> <s_lp_Force_Field>
OPLS_2005

> <r_lp_Energy>
12.5629

> <b_lp_Chiralities_Consistent>
1

> <s_lp_Variant>
AV-unprocessed.smi:1472-2

> <Gold.Version>
5.8.1

> <Gold.Id.Protein>
6NUR|6NUR_protein|mol2

> <Gold.PLP.Fitness>
49.2154

> <Gold.PLP.PLP>
-36.3213

> <Gold.PLP.part.hbond>
-4.0000

> <Gold.PLP.part.metal>
0.0000

> <Gold.PLP.part.buried>
-5.2745

> <Gold.PLP.part.nonpolar>
-26.4098

> <Gold.PLP.part.repulsive>
0.2689

> <Gold.PLP.ligand.clash>
0.0000

> <Gold.PLP.ligand.torsion>
1.9097

> <Gold.PLP.Chemscore.Hbond>
4.8800

> <Gold.PLP.Chemscore.CHOScore>
0.0000

> <Gold.PLP.Chemscore.Metal>
0.0000

> <Gold.Chemscore.Hbonds>
donor molecule, donor type, donor heavy atom, donor atom, acceptor molecule, acceptor atom, score
      L1  H    10    32       P1 10747  0.96
      L1  H    13    33       P1 10747  1.00
      L1  H    17    42       P1 10186  1.95
      P1  H  6896  6907       L1     3  0.59

> <Gold.PLP.Chemscore.Internal.Correction>
2.0735

> <Gold.Rescore>
     Score         DG    S(hbond)    S(metal)    S(lipo)     H(rot)  DE(clash)    DE(int)     intcor
     19.96     -23.18       3.50        0.00      79.89       1.30       0.04       3.18       ----

> <Gold.Chemscore.Fitness>
19.9613

> <Gold.Chemscore.DG>
-23.1750

> <Gold.Chemscore.ZeroCoef>
-5.4800

> <Gold.Chemscore.Hbond>
3.4983

> <Gold.Chemscore.Metal>
0.0000

> <Gold.Chemscore.Lipo>
79.8851

> <Gold.Chemscore.Internal_Hbond>
0.0000

> <Gold.Chemscore.DEClash>
0.0352

> <Gold.Chemscore.DEInternal>
3.1786

> <Gold.Chemscore.Rot>
1.3031

> <Gold.Chemscore.Internal.Correction>
   9.000000E+99

> <Gold.Chemscore.Hbonds>
donor molecule, donor type, donor heavy atom, donor atom, acceptor molecule, acceptor atom, score
      L1  H    10    32       P1 10747  0.46
      L1  H    13    33       P1 10747  0.99
      L1  H    17    42       P1 10186  0.91
      P1  H  6896  6907       L1     3  0.58

> <Gold.Chemscore.Hbond.Weighted>
-11.6844

> <Gold.Chemscore.Metal.Weighted>
-0.0000

> <Gold.Chemscore.Lipo.Weighted>
-9.3466

> <Gold.Chemscore.Internal_Hbond.Weighted>
0.0000

> <Gold.Chemscore.DEClash.Weighted>
0.0352

> <Gold.Chemscore.DEInternal.Weighted>
3.1786

> <Gold.Chemscore.Rot.Weighted>
3.3359

> <Gold.Chemscore.Internal.Correction.Weighted>
   9.000000E+99

> <Gold.Protein.RotatedTorsions>
[ 6907 6896 6895 6894 ] final  134.97 input  -60.11 | X-H torsion
[ 7974 7965 7964 7962 ] final  -78.12 input  175.53 | X-H torsion
[ 8008 7997 7996 7995 ] final -140.71 input   59.86 | X-H torsion
[ 10167 10162 10161 10158 ] final  -95.08 input  -65.29 | X-H torsion
[ 10718 10713 10712 10709 ] final   -4.40 input   66.30 | X-H torsion
[ 10763 10752 10751 10750 ] final   65.13 input  -60.55 | X-H torsion
[ 11005 11000 10999 10996 ] final  158.64 input  -57.11 | X-H torsion

> <Gold.Protein.ActiveResidues>
 VAL166  LYS551  ARG553  GLY616  TRP617  ASP618  TYR619  PRO620  LYS621  CYS622 
 ASP623  PHE694  ASN695  SER759  ASP760  ASP761  ALA762  ILE779  LEU786  VAL792 
 PHE793  MET794  SER795  GLU796  ALA797  LYS798  CYS799  TRP800  GLU811  SER814 

> <Gold.Protein.RotatedAtoms>
  152.3055  133.5698  159.5645 H   0  0  0  0  0  0  0  0  0  0  0  0  # atno 6907 bound_to 6896
  150.7297  134.0229  159.3716 H   0  0  0  0  0  0  0  0  0  0  0  0  # atno 6908 bound_to 6896
  151.8126  135.0676  160.0466 H   0  0  0  0  0  0  0  0  0  0  0  0  # atno 6909 bound_to 6896
  145.5907  140.9430  143.1294 H   0  0  0  0  0  0  0  0  0  0  0  0  # atno 7974 bound_to 7965
  155.4658  140.0549  157.2985 H   0  0  0  0  0  0  0  0  0  0  0  0  # atno 8008 bound_to 7997
  154.4718  140.2044  155.9929 H   0  0  0  0  0  0  0  0  0  0  0  0  # atno 8009 bound_to 7997
  156.1069  140.3210  155.8022 H   0  0  0  0  0  0  0  0  0  0  0  0  # atno 8010 bound_to 7997
  140.3078  143.3123  152.0180 H   0  0  0  0  0  0  0  0  0  0  0  0  # atno 10167 bound_to 10162
  156.7618  130.5272  149.5783 H   0  0  0  0  0  0  0  0  0  0  0  0  # atno 10718 bound_to 10713
  153.0084  135.5368  154.6619 H   0  0  0  0  0  0  0  0  0  0  0  0  # atno 10763 bound_to 10752
  154.5825  135.2851  155.0720 H   0  0  0  0  0  0  0  0  0  0  0  0  # atno 10764 bound_to 10752
  154.1844  135.6511  153.5095 H   0  0  0  0  0  0  0  0  0  0  0  0  # atno 10765 bound_to 10752
  140.1885  134.8424  157.2885 H   0  0  0  0  0  0  0  0  0  0  0  0  # atno 11005 bound_to 11000
  144.7353  139.7605  143.7332 LP  0  0  0  0  0  0  0  0  0  0  0  0  # atno 17320 bound_to 7965
  146.1649  139.4777  142.9965 LP  0  0  0  0  0  0  0  0  0  0  0  0  # atno 17321 bound_to 7965
  139.4900  144.6407  151.6882 LP  0  0  0  0  0  0  0  0  0  0  0  0  # atno 17342 bound_to 10162
  140.5595  144.0292  150.6163 LP  0  0  0  0  0  0  0  0  0  0  0  0  # atno 17343 bound_to 10162
  156.1334  130.6194  151.0366 LP  0  0  0  0  0  0  0  0  0  0  0  0  # atno 17370 bound_to 10713
  157.6731  131.0857  150.7563 LP  0  0  0  0  0  0  0  0  0  0  0  0  # atno 17371 bound_to 10713
  140.2187  134.4050  155.7576 LP  0  0  0  0  0  0  0  0  0  0  0  0  # atno 17394 bound_to 11000
  141.2225  133.7155  156.8455 LP  0  0  0  0  0  0  0  0  0  0  0  0  # atno 17395 bound_to 11000

$$$$
