AV-unprocessed.smi:438|AV-procd|sdf|2568|dock8
  -GOLD-   2262022543D 1   1.00000     0.00000
 Structure written by MMmdl.
 48 49  0  0  0  0  0  0  0  0  1 V2000
  145.3270  134.9771  151.5811 C   0  0  0  0  0  0  0  0  0  0  0  0
  145.8903  133.7182  152.2158 C   0  0  0  0  0  0  0  0  0  0  0  0
  147.1833  133.8443  152.6903 N   0  0  0  0  0  0  0  0  0  0  0  0
  147.7669  132.7700  153.3433 C   0  0  0  0  0  0  0  0  0  0  0  0
  149.4190  133.2367  153.9471 S   0  0  0  0  0  0  0  0  0  0  0  0
  149.0397  134.3738  155.3153 C   0  0  0  0  0  0  0  0  0  0  0  0
  149.9411  135.6079  155.3049 C   0  0  0  0  0  0  0  0  0  0  0  0
  150.9612  135.6188  154.6167 O   0  0  0  0  0  0  0  0  0  0  0  0
  149.5394  136.6490  156.0498 N   0  0  0  0  0  0  0  0  0  0  0  0
  150.1824  137.9614  156.1016 C   0  0  1  0  0  0  0  0  0  0  0  0
  150.2894  138.5713  154.6861 C   0  0  0  0  0  0  0  0  0  0  0  0
  148.9165  138.9776  154.1231 C   0  0  0  0  0  0  0  0  0  0  0  0
  148.1909  139.9362  155.0779 C   0  0  0  0  0  0  0  0  0  0  0  0
  148.0610  139.3332  156.4855 C   0  0  0  0  0  0  0  0  0  0  0  0
  149.4306  138.9172  157.0614 C   0  0  1  0  0  0  0  0  0  0  0  0
  149.2923  138.3468  158.4834 C   0  0  0  0  0  0  0  0  0  0  0  0
  147.1838  131.6170  153.4918 N   0  0  0  0  0  0  0  0  0  0  0  0
  145.8915  131.4117  152.9869 C   0  0  0  0  0  0  0  0  0  0  0  0
  145.3476  130.3133  153.0923 O   0  0  0  0  0  0  0  0  0  0  0  0
  145.2097  132.5537  152.3431 C   0  0  0  0  0  0  0  0  0  0  0  0
  143.7803  132.3598  151.8458 C   0  0  0  0  0  0  0  0  0  0  0  0
  143.6950  132.3846  150.3127 C   0  0  0  0  0  0  0  0  0  0  0  0
  142.3880  132.0503  149.9004 O   0  0  0  0  0  0  0  0  0  0  0  0
  144.4020  135.2712  152.0779 H   0  0  0  0  0  0  0  0  0  0  0  0
  145.1145  134.8081  150.5251 H   0  0  0  0  0  0  0  0  0  0  0  0
  146.0259  135.8116  151.6522 H   0  0  0  0  0  0  0  0  0  0  0  0
  149.1992  133.8386  156.2518 H   0  0  0  0  0  0  0  0  0  0  0  0
  147.9875  134.6600  155.3003 H   0  0  0  0  0  0  0  0  0  0  0  0
  148.6869  136.5436  156.5811 H   0  0  0  0  0  0  0  0  0  0  0  0
  151.1928  137.8274  156.4921 H   0  0  0  0  0  0  0  0  0  0  0  0
  150.9313  139.4523  154.7261 H   0  0  0  0  0  0  0  0  0  0  0  0
  150.7794  137.8748  154.0048 H   0  0  0  0  0  0  0  0  0  0  0  0
  149.0401  139.4492  153.1481 H   0  0  0  0  0  0  0  0  0  0  0  0
  148.3049  138.0904  153.9576 H   0  0  0  0  0  0  0  0  0  0  0  0
  148.7383  140.8778  155.1342 H   0  0  0  0  0  0  0  0  0  0  0  0
  147.2040  140.1762  154.6833 H   0  0  0  0  0  0  0  0  0  0  0  0
  147.5831  140.0565  157.1469 H   0  0  0  0  0  0  0  0  0  0  0  0
  147.3994  138.4686  156.4517 H   0  0  0  0  0  0  0  0  0  0  0  0
  150.0325  139.8235  157.1442 H   0  0  0  0  0  0  0  0  0  0  0  0
  148.6522  137.4644  158.5047 H   0  0  0  0  0  0  0  0  0  0  0  0
  148.8560  139.0838  159.1580 H   0  0  0  0  0  0  0  0  0  0  0  0
  150.2635  138.0641  158.8895 H   0  0  0  0  0  0  0  0  0  0  0  0
  147.6452  134.7358  152.5810 H   0  0  0  0  0  0  0  0  0  0  0  0
  143.1397  133.1338  152.2716 H   0  0  0  0  0  0  0  0  0  0  0  0
  143.3767  131.4176  152.2160 H   0  0  0  0  0  0  0  0  0  0  0  0
  143.9424  133.3734  149.9260 H   0  0  0  0  0  0  0  0  0  0  0  0
  144.3995  131.6765  149.8750 H   0  0  0  0  0  0  0  0  0  0  0  0
  141.8516  132.8275  149.9397 H   0  0  0  0  0  0  0  0  0  0  0  0
  1 24  1  0  0  0  0
  1 25  1  0  0  0  0
  1 26  1  0  0  0  0
  1  2  1  0  0  0  0
  2 20  2  0  0  0  0
  2  3  1  0  0  0  0
  3  4  1  0  0  0  0
  3 43  1  0  0  0  0
  4  5  1  0  0  0  0
  4 17  2  0  0  0  0
  5  6  1  0  0  0  0
  6  7  1  0  0  0  0
  6 27  1  0  0  0  0
  6 28  1  0  0  0  0
  7  8  2  0  0  0  0
  7  9  1  0  0  0  0
  9 10  1  0  0  0  0
  9 29  1  0  0  0  0
 10 15  1  0  0  0  0
 10 11  1  0  0  0  0
 10 30  1  0  0  0  0
 11 12  1  0  0  0  0
 11 31  1  0  0  0  0
 11 32  1  0  0  0  0
 12 13  1  0  0  0  0
 12 33  1  0  0  0  0
 12 34  1  0  0  0  0
 13 14  1  0  0  0  0
 13 35  1  0  0  0  0
 13 36  1  0  0  0  0
 14 15  1  0  0  0  0
 14 37  1  0  0  0  0
 14 38  1  0  0  0  0
 15 16  1  0  0  0  0
 15 39  1  0  0  0  0
 16 40  1  0  0  0  0
 16 41  1  0  0  0  0
 16 42  1  0  0  0  0
 17 18  1  0  0  0  0
 18 19  2  0  0  0  0
 18 20  1  0  0  0  0
 20 21  1  0  0  0  0
 21 22  1  0  0  0  0
 21 44  1  0  0  0  0
 21 45  1  0  0  0  0
 22 23  1  0  0  0  0
 22 46  1  0  0  0  0
 22 47  1  0  0  0  0
 23 48  1  0  0  0  0
M  END
> <s_m_source_file>
AV-unprocessed.smi

> <i_m_source_file_index>
438

> <i_lp_mmshare_version>
43012

> <i_f3d_flags>
0

> <s_epik_input>
W09IXVtDSDJdW0NIMl1jMWMoW09IXSluYyhuYzFbQ0gzXSlTW0NIMl1DKD1PKVtOSF1bQ0BASF0yW0NIMl1bQ0gyXVtDSDJdW0NIMl1bQ0BIXTJbQ0gzXQ==

> <s_epik_cmdline>
J2VwaWtfcHl0aG9uJywgJy1waCcsICc3LjAnLCAnLXRuJywgJzgnLCAnLW1hJywgJzIwMCcsICctbWV0YWxfYmluZGluZycsICctaW1hZScsICc8aW5maWxlLm1hZT4nLCAnLW9tYWUnLCAnPG91dGZpbGUubWFlPic=

> <r_lp_tautomer_probability>
0.273662

> <r_epik_Ionization_Penalty>
0.0875285

> <r_epik_Ionization_Penalty_Charging>
0.0875254

> <r_epik_Ionization_Penalty_Neutral>
3.01536e-06

> <r_epik_State_Penalty>
0.985796

> <r_epik_Charging_Adjusted_Penalty>
1.07332

> <i_epik_Tot_Q>
0

> <i_epik_Tot_abs_Q>
0

> <r_epik_Metal_State_Penalty>
1.58101

> <b_epik_Metal_Only>
0

> <s_lp_Force_Field>
OPLS_2005

> <r_lp_Energy>
13.0189

> <b_lp_Chiralities_Consistent>
1

> <s_lp_Variant>
AV-unprocessed.smi:438-6

> <Gold.Version>
5.8.1

> <Gold.Id.Protein>
6NUR|6NUR_protein|mol2

> <Gold.PLP.Fitness>
47.3868

> <Gold.PLP.PLP>
-36.9891

> <Gold.PLP.part.hbond>
-5.0000

> <Gold.PLP.part.metal>
0.0000

> <Gold.PLP.part.buried>
-7.4461

> <Gold.PLP.part.nonpolar>
-25.4472

> <Gold.PLP.part.repulsive>
0.4899

> <Gold.PLP.ligand.clash>
0.0000

> <Gold.PLP.ligand.torsion>
0.7178

> <Gold.PLP.Chemscore.Hbond>
3.9338

> <Gold.PLP.Chemscore.CHOScore>
0.0000

> <Gold.PLP.Chemscore.Metal>
0.0000

> <Gold.Chemscore.Hbonds>
donor molecule, donor type, donor heavy atom, donor atom, acceptor molecule, acceptor atom, score
      L1  H     3    43       P1  7948  0.88
      L1  H    23    48       P1 10186  1.00
      P1  H 10752 10763       L1     8  1.00
      P1  H 10785 10796       L1    23  0.08

> <Gold.PLP.Chemscore.Internal.Correction>
0.0320

> <Gold.Rescore>
     Score         DG    S(hbond)    S(metal)    S(lipo)     H(rot)  DE(clash)    DE(int)     intcor
     16.37     -17.06       3.41        0.00      64.34       2.86       0.00       0.69       ----

> <Gold.Chemscore.Fitness>
16.3666

> <Gold.Chemscore.DG>
-17.0601

> <Gold.Chemscore.ZeroCoef>
-5.4800

> <Gold.Chemscore.Hbond>
3.4089

> <Gold.Chemscore.Metal>
0.0000

> <Gold.Chemscore.Lipo>
64.3373

> <Gold.Chemscore.Internal_Hbond>
0.0000

> <Gold.Chemscore.DEClash>
0.0000

> <Gold.Chemscore.DEInternal>
0.6935

> <Gold.Chemscore.Rot>
2.8645

> <Gold.Chemscore.Internal.Correction>
   9.000000E+99

> <Gold.Chemscore.Hbonds>
donor molecule, donor type, donor heavy atom, donor atom, acceptor molecule, acceptor atom, score
      L1  H     3    43       P1  7948  0.77
      L1  H    23    48       P1 10186  1.00
      P1  H 10752 10763       L1     8  0.97
      P1  H 10785 10796       L1    23  0.01

> <Gold.Chemscore.Hbond.Weighted>
-11.3857

> <Gold.Chemscore.Metal.Weighted>
-0.0000

> <Gold.Chemscore.Lipo.Weighted>
-7.5275

> <Gold.Chemscore.Internal_Hbond.Weighted>
0.0000

> <Gold.Chemscore.DEClash.Weighted>
0.0000

> <Gold.Chemscore.DEInternal.Weighted>
0.6935

> <Gold.Chemscore.Rot.Weighted>
7.3331

> <Gold.Chemscore.Internal.Correction.Weighted>
   9.000000E+99

> <Gold.Protein.RotatedTorsions>
[ 6907 6896 6895 6894 ] final -150.32 input  -60.11 | X-H torsion
[ 7974 7965 7964 7962 ] final  171.96 input  175.53 | X-H torsion
[ 8008 7997 7996 7995 ] final  -83.85 input   59.86 | X-H torsion
[ 10167 10162 10161 10158 ] final  -40.64 input  -65.29 | X-H torsion
[ 10718 10713 10712 10709 ] final  -64.74 input   66.30 | X-H torsion
[ 10763 10752 10751 10750 ] final   59.61 input  -60.55 | X-H torsion
[ 11005 11000 10999 10996 ] final  120.73 input  -57.11 | X-H torsion

> <Gold.Protein.ActiveResidues>
 VAL166  LYS551  ARG553  GLY616  TRP617  ASP618  TYR619  PRO620  LYS621  CYS622 
 ASP623  PHE694  ASN695  SER759  ASP760  ASP761  ALA762  ILE779  LEU786  VAL792 
 PHE793  MET794  SER795  GLU796  ALA797  LYS798  CYS799  TRP800  GLU811  SER814 

> <Gold.Protein.RotatedAtoms>
  151.1968  133.4634  159.2595 H   0  0  0  0  0  0  0  0  0  0  0  0  # atno 6907 bound_to 6896
  151.1109  135.0026  159.8503 H   0  0  0  0  0  0  0  0  0  0  0  0  # atno 6908 bound_to 6896
  152.5450  134.1887  159.8718 H   0  0  0  0  0  0  0  0  0  0  0  0  # atno 6909 bound_to 6896
  144.7280  139.9428  143.6429 H   0  0  0  0  0  0  0  0  0  0  0  0  # atno 7974 bound_to 7965
  154.6235  140.0613  156.9644 H   0  0  0  0  0  0  0  0  0  0  0  0  # atno 8008 bound_to 7997
  155.1779  140.3296  155.4362 H   0  0  0  0  0  0  0  0  0  0  0  0  # atno 8009 bound_to 7997
  156.2444  140.1902  156.6877 H   0  0  0  0  0  0  0  0  0  0  0  0  # atno 8010 bound_to 7997
  140.7028  143.3141  151.2953 H   0  0  0  0  0  0  0  0  0  0  0  0  # atno 10167 bound_to 10162
  156.0711  130.4237  150.1463 H   0  0  0  0  0  0  0  0  0  0  0  0  # atno 10718 bound_to 10713
  152.9899  135.5565  154.5740 H   0  0  0  0  0  0  0  0  0  0  0  0  # atno 10763 bound_to 10752
  154.5135  135.2803  155.1325 H   0  0  0  0  0  0  0  0  0  0  0  0  # atno 10764 bound_to 10752
  154.2707  135.6363  153.5362 H   0  0  0  0  0  0  0  0  0  0  0  0  # atno 10765 bound_to 10752
  139.9197  134.9636  156.7850 H   0  0  0  0  0  0  0  0  0  0  0  0  # atno 11005 bound_to 11000
  146.0771  139.3759  143.0487 LP  0  0  0  0  0  0  0  0  0  0  0  0  # atno 17320 bound_to 7965
  145.7890  140.9823  143.1059 LP  0  0  0  0  0  0  0  0  0  0  0  0  # atno 17321 bound_to 7965
  139.6574  144.0251  152.2669 LP  0  0  0  0  0  0  0  0  0  0  0  0  # atno 17342 bound_to 10162
  139.9807  144.6430  150.7903 LP  0  0  0  0  0  0  0  0  0  0  0  0  # atno 17343 bound_to 10162
  156.9514  130.9776  151.3497 LP  0  0  0  0  0  0  0  0  0  0  0  0  # atno 17370 bound_to 10713
  157.5782  130.8358  149.8485 LP  0  0  0  0  0  0  0  0  0  0  0  0  # atno 17371 bound_to 10713
  140.6513  133.9729  155.7756 LP  0  0  0  0  0  0  0  0  0  0  0  0  # atno 17394 bound_to 11000
  141.0706  134.0211  157.3531 LP  0  0  0  0  0  0  0  0  0  0  0  0  # atno 17395 bound_to 11000

$$$$
