AV-unprocessed.smi:261|AV-procd|sdf|1990|dock4
  -GOLD-   2262021173D 1   1.00000     0.00000
 Structure written by MMmdl.
 51 54  0  0  0  0  0  0  0  0  1 V2000
  148.1951  132.2034  153.2146 C   0  0  0  0  0  0  0  0  0  0  0  0
  148.7607  131.7768  154.4435 O   0  0  0  0  0  0  0  0  0  0  0  0
  150.0938  132.2264  154.6541 C   0  0  2  0  0  0  0  0  0  0  0  0
  150.6879  131.6876  155.9626 C   0  0  0  0  0  0  0  0  0  0  0  0
  150.1706  132.6374  157.0552 C   0  0  2  0  0  0  0  0  0  0  0  0
  148.8533  132.1249  157.6760 C   0  0  0  0  0  0  0  0  0  0  0  0
  148.8682  130.9831  158.3722 N   0  0  0  0  0  0  0  0  0  0  0  0
  147.8159  132.7632  157.5127 O   0  0  0  0  0  0  0  0  0  0  0  0
  150.0466  133.9123  156.3467 N   0  0  0  0  0  0  0  0  0  0  0  0
  150.0402  135.1420  156.9333 C   0  0  0  0  0  0  0  0  0  0  0  0
  149.4415  135.2601  158.1485 N   0  0  0  0  0  0  0  0  0  0  0  0
  149.4016  136.4351  158.7816 C   0  0  0  0  0  0  0  0  0  0  0  0
  149.8933  137.6095  158.3886 N   0  0  0  0  0  0  0  0  0  0  0  0
  150.4978  137.5065  157.1716 C   0  0  0  0  0  0  0  0  0  0  0  0
  150.6177  136.3262  156.3801 C   0  0  0  0  0  0  0  0  0  0  0  0
  151.3027  136.6297  155.2075 N   0  0  0  0  0  0  0  0  0  0  0  0
  151.5675  137.9032  155.2989 C   0  0  0  0  0  0  0  0  0  0  0  0
  151.1126  138.5103  156.4452 N   0  0  0  0  0  0  0  0  0  0  0  0
  151.2536  139.9097  156.8037 C   0  0  0  0  0  0  0  0  0  0  0  0
  151.8505  140.1175  158.2120 C   0  0  1  0  0  0  0  0  0  0  0  0
  153.2344  139.8428  158.1251 O   0  0  0  0  0  0  0  0  0  0  0  0
  151.6513  141.5375  158.7878 C   0  0  2  0  0  0  0  0  0  0  0  0
  151.9977  142.6702  157.8186 C   0  0  0  0  0  0  0  0  0  0  0  0
  152.3204  143.8427  158.7315 C   0  0  0  0  0  0  0  0  0  0  0  0
  152.5461  143.1953  160.0992 C   0  0  0  0  0  0  0  0  0  0  0  0
  152.5618  141.7986  159.8458 O   0  0  0  0  0  0  0  0  0  0  0  0
  150.0534  133.7384  154.8970 C   0  0  0  0  0  0  0  0  0  0  0  0
  150.7136  131.9896  153.7876 H   0  0  0  0  0  0  0  0  0  0  0  0
  150.9253  132.7006  157.8391 H   0  0  0  0  0  0  0  0  0  0  0  0
  147.1724  131.8342  153.1399 H   0  0  0  0  0  0  0  0  0  0  0  0
  148.7486  131.8218  152.3569 H   0  0  0  0  0  0  0  0  0  0  0  0
  148.1623  133.2918  153.1536 H   0  0  0  0  0  0  0  0  0  0  0  0
  150.4597  130.6382  156.1494 H   0  0  0  0  0  0  0  0  0  0  0  0
  151.7750  131.7651  155.9150 H   0  0  0  0  0  0  0  0  0  0  0  0
  148.0123  130.6298  158.7746 H   0  0  0  0  0  0  0  0  0  0  0  0
  149.7328  130.4739  158.4828 H   0  0  0  0  0  0  0  0  0  0  0  0
  148.9044  136.4333  159.7404 H   0  0  0  0  0  0  0  0  0  0  0  0
  152.0960  138.4379  154.5232 H   0  0  0  0  0  0  0  0  0  0  0  0
  151.8827  140.3891  156.0525 H   0  0  0  0  0  0  0  0  0  0  0  0
  150.2725  140.3820  156.7361 H   0  0  0  0  0  0  0  0  0  0  0  0
  151.4175  139.3898  158.8996 H   0  0  0  0  0  0  0  0  0  0  0  0
  153.3967  138.9931  158.5052 H   0  0  0  0  0  0  0  0  0  0  0  0
  150.6302  141.6615  159.1542 H   0  0  0  0  0  0  0  0  0  0  0  0
  152.8824  142.4083  157.2366 H   0  0  0  0  0  0  0  0  0  0  0  0
  151.1898  142.8892  157.1202 H   0  0  0  0  0  0  0  0  0  0  0  0
  153.2052  144.3763  158.3835 H   0  0  0  0  0  0  0  0  0  0  0  0
  151.4940  144.5528  158.7758 H   0  0  0  0  0  0  0  0  0  0  0  0
  153.4756  143.5175  160.5685 H   0  0  0  0  0  0  0  0  0  0  0  0
  151.7232  143.4284  160.7762 H   0  0  0  0  0  0  0  0  0  0  0  0
  150.9520  134.2053  154.4909 H   0  0  0  0  0  0  0  0  0  0  0  0
  149.1870  134.2031  154.4238 H   0  0  0  0  0  0  0  0  0  0  0  0
  1  2  1  0  0  0  0
  1 30  1  0  0  0  0
  1 31  1  0  0  0  0
  1 32  1  0  0  0  0
  2  3  1  0  0  0  0
  3 28  1  0  0  0  0
  3 27  1  0  0  0  0
  3  4  1  0  0  0  0
  4  5  1  0  0  0  0
  4 33  1  0  0  0  0
  4 34  1  0  0  0  0
  5 29  1  0  0  0  0
  5  6  1  0  0  0  0
  5  9  1  0  0  0  0
  6  7  1  0  0  0  0
  6  8  2  0  0  0  0
  7 35  1  0  0  0  0
  7 36  1  0  0  0  0
  9 10  1  0  0  0  0
  9 27  1  0  0  0  0
 10 15  1  0  0  0  0
 10 11  2  0  0  0  0
 11 12  1  0  0  0  0
 12 13  2  0  0  0  0
 12 37  1  0  0  0  0
 13 14  1  0  0  0  0
 14 18  1  0  0  0  0
 14 15  2  0  0  0  0
 15 16  1  0  0  0  0
 16 17  2  0  0  0  0
 17 18  1  0  0  0  0
 17 38  1  0  0  0  0
 18 19  1  0  0  0  0
 19 20  1  0  0  0  0
 19 39  1  0  0  0  0
 19 40  1  0  0  0  0
 20 21  1  0  0  0  0
 20 22  1  0  0  0  0
 20 41  1  0  0  0  0
 21 42  1  0  0  0  0
 22 26  1  0  0  0  0
 22 23  1  0  0  0  0
 22 43  1  0  0  0  0
 23 24  1  0  0  0  0
 23 44  1  0  0  0  0
 23 45  1  0  0  0  0
 24 25  1  0  0  0  0
 24 46  1  0  0  0  0
 24 47  1  0  0  0  0
 25 26  1  0  0  0  0
 25 48  1  0  0  0  0
 25 49  1  0  0  0  0
 27 50  1  0  0  0  0
 27 51  1  0  0  0  0
M  END
> <s_m_source_file>
AV-unprocessed.smi

> <i_m_source_file_index>
261

> <i_lp_mmshare_version>
43012

> <i_f3d_flags>
0

> <s_epik_input>
W0NIM11PW0NASF0xW0NIMl1bQ0BASF0oQyg9TylbTkgyXSlOKFtDSDJdMSljKG5bY0hdbjIpYyhjMjMpbltjSF1uM1tDSDJdW0NASF0oW09IXSlbQ0BASF00W0NIMl1bQ0gyXVtDSDJdTzQ=

> <s_epik_cmdline>
J2VwaWtfcHl0aG9uJywgJy1waCcsICc3LjAnLCAnLXRuJywgJzgnLCAnLW1hJywgJzIwMCcsICctbWV0YWxfYmluZGluZycsICctaW1hZScsICc8aW5maWxlLm1hZT4nLCAnLW9tYWUnLCAnPG91dGZpbGUubWFlPic=

> <r_lp_tautomer_probability>
1

> <r_epik_Ionization_Penalty>
0.000713824

> <r_epik_Ionization_Penalty_Charging>
0

> <r_epik_Ionization_Penalty_Neutral>
0.000713824

> <r_epik_State_Penalty>
0.000402132

> <r_epik_Charging_Adjusted_Penalty>
0.000402132

> <i_epik_Tot_Q>
0

> <i_epik_Tot_abs_Q>
0

> <r_epik_Metal_State_Penalty>
-0

> <b_epik_Metal_Only>
0

> <s_lp_Force_Field>
OPLS_2005

> <r_lp_Energy>
44.1373

> <b_lp_Chiralities_Consistent>
1

> <s_lp_Variant>
AV-unprocessed.smi:261-8

> <Gold.Version>
5.8.1

> <Gold.Id.Protein>
6NUR|6NUR_protein|mol2

> <Gold.PLP.Fitness>
41.7637

> <Gold.PLP.PLP>
-34.6842

> <Gold.PLP.part.hbond>
-3.0000

> <Gold.PLP.part.metal>
0.0000

> <Gold.PLP.part.buried>
-5.8711

> <Gold.PLP.part.nonpolar>
-26.0866

> <Gold.PLP.part.repulsive>
0.1872

> <Gold.PLP.ligand.clash>
0.0000

> <Gold.PLP.ligand.torsion>
0.9383

> <Gold.PLP.Chemscore.Hbond>
2.9353

> <Gold.PLP.Chemscore.CHOScore>
0.0000

> <Gold.PLP.Chemscore.Metal>
0.0000

> <Gold.Chemscore.Hbonds>
donor molecule, donor type, donor heavy atom, donor atom, acceptor molecule, acceptor atom, score
      P1  H  6896  6908       L1    11  0.89
      P1  H  7997  8009       L1    21  1.00
      P1  H 10752 10765       L1    16  0.98

> <Gold.PLP.Chemscore.Internal.Correction>
0.1504

> <Gold.Rescore>
     Score         DG    S(hbond)    S(metal)    S(lipo)     H(rot)  DE(clash)    DE(int)     intcor
     10.30     -11.42       1.34        0.00      82.07       3.18       0.23       0.90       ----

> <Gold.Chemscore.Fitness>
10.3024

> <Gold.Chemscore.DG>
-11.4242

> <Gold.Chemscore.ZeroCoef>
-5.4800

> <Gold.Chemscore.Hbond>
1.3444

> <Gold.Chemscore.Metal>
0.0000

> <Gold.Chemscore.Lipo>
82.0723

> <Gold.Chemscore.Internal_Hbond>
0.0000

> <Gold.Chemscore.DEClash>
0.2257

> <Gold.Chemscore.DEInternal>
0.8961

> <Gold.Chemscore.Rot>
3.1831

> <Gold.Chemscore.Internal.Correction>
   9.000000E+99

> <Gold.Chemscore.Hbonds>
donor molecule, donor type, donor heavy atom, donor atom, acceptor molecule, acceptor atom, score
      P1  H  6896  6908       L1    11  0.11
      P1  H  7997  8009       L1    21  0.58
      P1  H 10752 10765       L1    16  0.69

> <Gold.Chemscore.Hbond.Weighted>
-4.4904

> <Gold.Chemscore.Metal.Weighted>
-0.0000

> <Gold.Chemscore.Lipo.Weighted>
-9.6025

> <Gold.Chemscore.Internal_Hbond.Weighted>
0.0000

> <Gold.Chemscore.DEClash.Weighted>
0.2257

> <Gold.Chemscore.DEInternal.Weighted>
0.8961

> <Gold.Chemscore.Rot.Weighted>
8.1486

> <Gold.Chemscore.Internal.Correction.Weighted>
   9.000000E+99

> <Gold.Protein.RotatedTorsions>
[ 6907 6896 6895 6894 ] final  141.06 input  -60.11 | X-H torsion
[ 7974 7965 7964 7962 ] final -122.38 input  175.53 | X-H torsion
[ 8008 7997 7996 7995 ] final  170.16 input   59.86 | X-H torsion
[ 10167 10162 10161 10158 ] final -137.09 input  -65.29 | X-H torsion
[ 10718 10713 10712 10709 ] final  -71.66 input   66.30 | X-H torsion
[ 10763 10752 10751 10750 ] final  174.31 input  -60.55 | X-H torsion
[ 11005 11000 10999 10996 ] final -104.16 input  -57.11 | X-H torsion

> <Gold.Protein.ActiveResidues>
 VAL166  LYS551  ARG553  GLY616  TRP617  ASP618  TYR619  PRO620  LYS621  CYS622 
 ASP623  PHE694  ASN695  SER759  ASP760  ASP761  ALA762  ILE779  LEU786  VAL792 
 PHE793  MET794  SER795  GLU796  ALA797  LYS798  CYS799  TRP800  GLU811  SER814 

> <Gold.Protein.RotatedAtoms>
  152.2356  133.5093  159.5240 H   0  0  0  0  0  0  0  0  0  0  0  0  # atno 6907 bound_to 6896
  150.7049  134.1158  159.4026 H   0  0  0  0  0  0  0  0  0  0  0  0  # atno 6908 bound_to 6896
  151.9079  135.0351  160.0562 H   0  0  0  0  0  0  0  0  0  0  0  0  # atno 6909 bound_to 6896
  145.0301  140.8060  143.4328 H   0  0  0  0  0  0  0  0  0  0  0  0  # atno 7974 bound_to 7965
  156.1391  140.1545  156.8948 H   0  0  0  0  0  0  0  0  0  0  0  0  # atno 8008 bound_to 7997
  154.4972  140.0835  156.7761 H   0  0  0  0  0  0  0  0  0  0  0  0  # atno 8009 bound_to 7997
  155.4112  140.3419  155.4266 H   0  0  0  0  0  0  0  0  0  0  0  0  # atno 8010 bound_to 7997
  139.8612  143.7074  152.2650 H   0  0  0  0  0  0  0  0  0  0  0  0  # atno 10167 bound_to 10162
  156.0353  130.4356  150.2477 H   0  0  0  0  0  0  0  0  0  0  0  0  # atno 10718 bound_to 10713
  154.4522  135.2765  155.1773 H   0  0  0  0  0  0  0  0  0  0  0  0  # atno 10763 bound_to 10752
  154.3596  135.6132  153.5687 H   0  0  0  0  0  0  0  0  0  0  0  0  # atno 10764 bound_to 10752
  152.9848  135.5831  154.4868 H   0  0  0  0  0  0  0  0  0  0  0  0  # atno 10765 bound_to 10752
  141.1113  133.8700  157.1576 H   0  0  0  0  0  0  0  0  0  0  0  0  # atno 11005 bound_to 11000
  145.1781  139.2366  143.5306 LP  0  0  0  0  0  0  0  0  0  0  0  0  # atno 17320 bound_to 7965
  146.3497  140.1549  142.8592 LP  0  0  0  0  0  0  0  0  0  0  0  0  # atno 17321 bound_to 7965
  139.7372  144.7568  151.0709 LP  0  0  0  0  0  0  0  0  0  0  0  0  # atno 17342 bound_to 10162
  140.7774  143.5016  150.9764 LP  0  0  0  0  0  0  0  0  0  0  0  0  # atno 17343 bound_to 10162
  157.0577  131.0081  151.3233 LP  0  0  0  0  0  0  0  0  0  0  0  0  # atno 17370 bound_to 10713
  157.5094  130.7929  149.7688 LP  0  0  0  0  0  0  0  0  0  0  0  0  # atno 17371 bound_to 10713
  140.0009  135.0028  157.0186 LP  0  0  0  0  0  0  0  0  0  0  0  0  # atno 17394 bound_to 11000
  140.4767  134.1331  155.7211 LP  0  0  0  0  0  0  0  0  0  0  0  0  # atno 17395 bound_to 11000

$$$$
