AV-unprocessed.smi:2346|AV-procd|sdf|9367|dock7
  -GOLD-   2272012593D 1   1.00000     0.00000
 Structure written by MMmdl.
 45 47  0  0  0  0  0  0  0  0  2 V2000
  143.6804  146.0534  156.9586 C   0  0  0  0  0  0  0  0  0  0  0  0
  144.4298  144.8667  156.7427 O   0  0  0  0  0  0  0  0  0  0  0  0
  144.6869  144.0478  157.8231 C   0  0  0  0  0  0  0  0  0  0  0  0
  144.2026  144.2997  159.1321 C   0  0  0  0  0  0  0  0  0  0  0  0
  144.5045  143.4192  160.1891 C   0  0  0  0  0  0  0  0  0  0  0  0
  144.0048  143.6877  161.5272 C   0  0  0  0  0  0  0  0  0  0  0  0
  143.6068  143.9011  162.5924 N   0  0  0  0  0  0  0  0  0  0  0  0
  145.2926  142.2793  159.9469 C   0  0  0  0  0  0  0  0  0  0  0  0
  145.7763  142.0204  158.6520 C   0  0  0  0  0  0  0  0  0  0  0  0
  145.4774  142.9005  157.5815 C   0  0  0  0  0  0  0  0  0  0  0  0
  145.9174  142.7083  156.2881 O   0  0  0  0  0  0  0  0  0  0  0  0
  146.9489  141.7605  156.0566 C   0  0  0  0  0  0  0  0  0  0  0  0
  147.0856  141.5560  154.5435 C   0  0  0  0  0  0  0  0  0  0  0  0
  148.0583  140.5033  154.2216 N   0  0  0  0  0  0  0  0  0  0  0  0
  147.9369  139.4013  153.4251 C   0  0  0  0  0  0  0  0  0  0  0  0
  146.7329  138.9934  152.6316 C   0  0  2  0  0  0  0  0  0  0  0  0
  146.1012  137.7030  153.1749 C   0  0  0  0  0  0  0  0  0  0  0  0
  147.0491  138.8028  151.2699 O   0  0  0  0  0  0  0  0  0  0  0  0
  149.1406  138.7599  153.4446 N   0  3  0  0  0  0  0  0  0  0  0  0
  150.0262  139.4365  154.2834 C   0  0  0  0  0  0  0  0  0  0  0  0
  151.3459  139.1609  154.6272 C   0  0  0  0  0  0  0  0  0  0  0  0
  151.9674  140.0580  155.5205 C   0  0  0  0  0  0  0  0  0  0  0  0
  151.2794  141.1762  156.0350 C   0  0  0  0  0  0  0  0  0  0  0  0
  149.9421  141.4470  155.6760 C   0  0  0  0  0  0  0  0  0  0  0  0
  149.3356  140.5557  154.7910 C   0  0  0  0  0  0  0  0  0  0  0  0
  143.5658  146.5821  156.0124 H   0  0  0  0  0  0  0  0  0  0  0  0
  144.1882  146.7253  157.6517 H   0  0  0  0  0  0  0  0  0  0  0  0
  142.6810  145.8317  157.3352 H   0  0  0  0  0  0  0  0  0  0  0  0
  143.5958  145.1671  159.3455 H   0  0  0  0  0  0  0  0  0  0  0  0
  145.5313  141.5976  160.7509 H   0  0  0  0  0  0  0  0  0  0  0  0
  146.3783  141.1364  158.5071 H   0  0  0  0  0  0  0  0  0  0  0  0
  147.8929  142.1176  156.4710 H   0  0  0  0  0  0  0  0  0  0  0  0
  146.7017  140.8108  156.5341 H   0  0  0  0  0  0  0  0  0  0  0  0
  146.1262  141.2674  154.1134 H   0  0  0  0  0  0  0  0  0  0  0  0
  147.3770  142.4808  154.0448 H   0  0  0  0  0  0  0  0  0  0  0  0
  145.9879  139.7871  152.6891 H   0  0  0  0  0  0  0  0  0  0  0  0
  145.8148  137.8181  154.2208 H   0  0  0  0  0  0  0  0  0  0  0  0
  146.7870  136.8578  153.1070 H   0  0  0  0  0  0  0  0  0  0  0  0
  145.2018  137.4425  152.6160 H   0  0  0  0  0  0  0  0  0  0  0  0
  147.9259  139.1216  151.1177 H   0  0  0  0  0  0  0  0  0  0  0  0
  151.8743  138.3042  154.2350 H   0  0  0  0  0  0  0  0  0  0  0  0
  152.9917  139.8843  155.8173 H   0  0  0  0  0  0  0  0  0  0  0  0
  151.7879  141.8410  156.7183 H   0  0  0  0  0  0  0  0  0  0  0  0
  149.4251  142.3063  156.0768 H   0  0  0  0  0  0  0  0  0  0  0  0
  149.3354  137.9160  152.9213 H   0  0  0  0  0  0  0  0  0  0  0  0
  1  2  1  0  0  0  0
  1 26  1  0  0  0  0
  1 27  1  0  0  0  0
  1 28  1  0  0  0  0
  2  3  1  0  0  0  0
  3 10  1  0  0  0  0
  3  4  2  0  0  0  0
  4  5  1  0  0  0  0
  4 29  1  0  0  0  0
  5  6  1  0  0  0  0
  5  8  2  0  0  0  0
  6  7  3  0  0  0  0
  8  9  1  0  0  0  0
  8 30  1  0  0  0  0
  9 10  2  0  0  0  0
  9 31  1  0  0  0  0
 10 11  1  0  0  0  0
 11 12  1  0  0  0  0
 12 13  1  0  0  0  0
 12 32  1  0  0  0  0
 12 33  1  0  0  0  0
 13 14  1  0  0  0  0
 13 34  1  0  0  0  0
 13 35  1  0  0  0  0
 14 25  1  0  0  0  0
 14 15  1  0  0  0  0
 15 16  1  0  0  0  0
 15 19  2  0  0  0  0
 16 17  1  0  0  0  0
 16 18  1  0  0  0  0
 16 36  1  0  0  0  0
 17 37  1  0  0  0  0
 17 38  1  0  0  0  0
 17 39  1  0  0  0  0
 18 40  1  0  0  0  0
 19 20  1  0  0  0  0
 19 45  1  0  0  0  0
 20 25  2  0  0  0  0
 20 21  1  0  0  0  0
 21 22  2  0  0  0  0
 21 41  1  0  0  0  0
 22 23  1  0  0  0  0
 22 42  1  0  0  0  0
 23 24  2  0  0  0  0
 23 43  1  0  0  0  0
 24 25  1  0  0  0  0
 24 44  1  0  0  0  0
M  CHG  1  19   1
M  END
> <s_m_source_file>
AV-unprocessed.smi

> <i_m_source_file_index>
2346

> <i_lp_mmshare_version>
43012

> <i_f3d_flags>
0

> <s_epik_input>
W0NIM11PYzFbY0hdYyhDI04pW2NIXVtjSF1jMU9bQ0gyXVtDSDJdbihjKG4yKVtDQEhdKFtDSDNdKVtPSF0pYyhjMjMpW2NIXVtjSF1bY0hdW2NIXTM=

> <s_epik_cmdline>
J2VwaWtfcHl0aG9uJywgJy1waCcsICc3LjAnLCAnLXRuJywgJzgnLCAnLW1hJywgJzIwMCcsICctbWV0YWxfYmluZGluZycsICctaW1hZScsICc8aW5maWxlLm1hZT4nLCAnLW9tYWUnLCAnPG91dGZpbGUubWFlPic=

> <r_epik_Ionization_Penalty>
1.58928

> <r_epik_Ionization_Penalty_Charging>
1.58925

> <r_epik_Ionization_Penalty_Neutral>
2.92192e-05

> <r_epik_State_Penalty>
1.68649

> <r_epik_Charging_Adjusted_Penalty>
3.27574

> <i_epik_Tot_Q>
1

> <i_epik_Tot_abs_Q>
1

> <r_epik_Metal_State_Penalty>
5.74385

> <b_epik_Metal_Only>
0

> <s_lp_Force_Field>
OPLS_2005

> <r_lp_Energy>
24.6554

> <b_lp_Chiralities_Consistent>
1

> <s_lp_Variant>
AV-unprocessed.smi:2346-3

> <Gold.Version>
5.8.1

> <Gold.Id.Protein>
6NUR|6NUR_protein|mol2

> <Gold.PLP.Fitness>
50.9042

> <Gold.PLP.PLP>
-42.5757

> <Gold.PLP.part.hbond>
-4.7000

> <Gold.PLP.part.metal>
0.0000

> <Gold.PLP.part.buried>
-5.7310

> <Gold.PLP.part.nonpolar>
-32.7123

> <Gold.PLP.part.repulsive>
1.0011

> <Gold.PLP.ligand.clash>
0.0000

> <Gold.PLP.ligand.torsion>
0.3900

> <Gold.PLP.Chemscore.Hbond>
3.0000

> <Gold.PLP.Chemscore.CHOScore>
0.0000

> <Gold.PLP.Chemscore.Metal>
0.0000

> <Gold.Chemscore.Hbonds>
donor molecule, donor type, donor heavy atom, donor atom, acceptor molecule, acceptor atom, score
      L1  H    18    40       P1  7957  1.00
      L1  H    19    45       P1  7948  2.00

> <Gold.PLP.Chemscore.Internal.Correction>
0.1086

> <Gold.Rescore>
     Score         DG    S(hbond)    S(metal)    S(lipo)     H(rot)  DE(clash)    DE(int)     intcor
     12.89     -14.02       1.85        0.00      77.98       2.65       0.19       0.94       ----

> <Gold.Chemscore.Fitness>
12.8898

> <Gold.Chemscore.DG>
-14.0196

> <Gold.Chemscore.ZeroCoef>
-5.4800

> <Gold.Chemscore.Hbond>
1.8536

> <Gold.Chemscore.Metal>
0.0000

> <Gold.Chemscore.Lipo>
77.9841

> <Gold.Chemscore.Internal_Hbond>
0.0000

> <Gold.Chemscore.DEClash>
0.1877

> <Gold.Chemscore.DEInternal>
0.9421

> <Gold.Chemscore.Rot>
2.6467

> <Gold.Chemscore.Internal.Correction>
   9.000000E+99

> <Gold.Chemscore.Hbonds>
donor molecule, donor type, donor heavy atom, donor atom, acceptor molecule, acceptor atom, score
      L1  H    18    40       P1  7957  0.50
      L1  H    19    45       P1  7948  0.91

> <Gold.Chemscore.Hbond.Weighted>
-6.1911

> <Gold.Chemscore.Metal.Weighted>
-0.0000

> <Gold.Chemscore.Lipo.Weighted>
-9.1241

> <Gold.Chemscore.Internal_Hbond.Weighted>
0.0000

> <Gold.Chemscore.DEClash.Weighted>
0.1877

> <Gold.Chemscore.DEInternal.Weighted>
0.9421

> <Gold.Chemscore.Rot.Weighted>
6.7756

> <Gold.Chemscore.Internal.Correction.Weighted>
   9.000000E+99

> <Gold.Protein.RotatedTorsions>
[ 6907 6896 6895 6894 ] final  133.09 input  -60.11 | X-H torsion
[ 7974 7965 7964 7962 ] final   12.56 input  175.53 | X-H torsion
[ 8008 7997 7996 7995 ] final  -39.10 input   59.86 | X-H torsion
[ 10167 10162 10161 10158 ] final   28.51 input  -65.29 | X-H torsion
[ 10718 10713 10712 10709 ] final -114.32 input   66.30 | X-H torsion
[ 10763 10752 10751 10750 ] final -124.57 input  -60.55 | X-H torsion
[ 11005 11000 10999 10996 ] final   81.38 input  -57.11 | X-H torsion

> <Gold.Protein.ActiveResidues>
 VAL166  LYS551  ARG553  GLY616  TRP617  ASP618  TYR619  PRO620  LYS621  CYS622 
 ASP623  PHE694  ASN695  SER759  ASP760  ASP761  ALA762  ILE779  LEU786  VAL792 
 PHE793  MET794  SER795  GLU796  ALA797  LYS798  CYS799  TRP800  GLU811  SER814 

> <Gold.Protein.RotatedAtoms>
  152.3256  133.5901  159.5773 H   0  0  0  0  0  0  0  0  0  0  0  0  # atno 6907 bound_to 6896
  150.7394  133.9946  159.3627 H   0  0  0  0  0  0  0  0  0  0  0  0  # atno 6908 bound_to 6896
  151.7826  135.0758  160.0427 H   0  0  0  0  0  0  0  0  0  0  0  0  # atno 6909 bound_to 6896
  146.2348  139.9319  142.8495 H   0  0  0  0  0  0  0  0  0  0  0  0  # atno 7974 bound_to 7965
  154.4027  140.1560  156.2808 H   0  0  0  0  0  0  0  0  0  0  0  0  # atno 8008 bound_to 7997
  155.8871  140.3440  155.5907 H   0  0  0  0  0  0  0  0  0  0  0  0  # atno 8009 bound_to 7997
  155.7601  140.0816  157.2150 H   0  0  0  0  0  0  0  0  0  0  0  0  # atno 8010 bound_to 7997
  140.4846  144.0562  150.6276 H   0  0  0  0  0  0  0  0  0  0  0  0  # atno 10167 bound_to 10162
  156.0823  130.6020  150.8760 H   0  0  0  0  0  0  0  0  0  0  0  0  # atno 10718 bound_to 10713
  154.8725  135.4059  154.3128 H   0  0  0  0  0  0  0  0  0  0  0  0  # atno 10763 bound_to 10752
  153.3969  135.7017  153.6460 H   0  0  0  0  0  0  0  0  0  0  0  0  # atno 10764 bound_to 10752
  153.5219  135.3685  155.2607 H   0  0  0  0  0  0  0  0  0  0  0  0  # atno 10765 bound_to 10752
  139.9100  134.7992  156.2034 H   0  0  0  0  0  0  0  0  0  0  0  0  # atno 11005 bound_to 11000
  145.2036  140.9865  143.4141 LP  0  0  0  0  0  0  0  0  0  0  0  0  # atno 17320 bound_to 7965
  144.9752  139.3839  143.6289 LP  0  0  0  0  0  0  0  0  0  0  0  0  # atno 17321 bound_to 7965
  140.3814  143.2801  152.0166 LP  0  0  0  0  0  0  0  0  0  0  0  0  # atno 17342 bound_to 10162
  139.4839  144.6152  151.7360 LP  0  0  0  0  0  0  0  0  0  0  0  0  # atno 17343 bound_to 10162
  157.5944  131.0943  150.9065 LP  0  0  0  0  0  0  0  0  0  0  0  0  # atno 17370 bound_to 10713
  156.9235  130.5323  149.5279 LP  0  0  0  0  0  0  0  0  0  0  0  0  # atno 17371 bound_to 10713
  141.0511  133.6888  156.1773 LP  0  0  0  0  0  0  0  0  0  0  0  0  # atno 17394 bound_to 11000
  140.6809  134.4768  157.5589 LP  0  0  0  0  0  0  0  0  0  0  0  0  # atno 17395 bound_to 11000

$$$$
