AV-unprocessed.smi:1433|AV-procd|sdf|5836|dock10
  -GOLD-   22720 5493D 1   1.00000     0.00000
 Structure written by MMmdl.
 44 45  0  0  0  0  0  0  0  0  1 V2000
  150.4937  142.0689  155.4356 C   0  0  0  0  0  0  0  0  0  0  0  0
  150.6597  140.5674  155.6924 C   0  0  1  0  0  0  0  0  0  0  0  0
  149.4462  139.7551  155.2018 C   0  0  0  0  0  0  0  0  0  0  0  0
  149.6190  138.3083  155.3721 N   0  0  0  0  0  0  0  0  0  0  0  0
  148.4537  137.5355  154.8821 C   0  0  2  0  0  0  0  0  0  0  0  0
  147.0988  138.1664  155.2973 C   0  0  0  0  0  0  0  0  0  0  0  0
  148.4721  136.0473  155.3282 C   0  0  0  0  0  0  0  0  0  0  0  0
  148.3844  135.1328  154.1966 N   0  0  0  0  0  0  0  0  0  0  0  0
  148.3378  133.7958  154.2873 C   0  0  0  0  0  0  0  0  0  0  0  0
  148.4155  133.1842  155.3523 O   0  0  0  0  0  0  0  0  0  0  0  0
  148.1774  133.0301  152.9726 C   0  0  0  0  0  0  0  0  0  0  0  0
  146.8618  133.2456  152.3945 N   0  0  0  0  0  0  0  0  0  0  0  0
  146.2970  134.4302  151.9698 C   0  0  0  0  0  0  0  0  0  0  0  0
  145.0536  134.1378  151.4875 C   0  0  0  0  0  0  0  0  0  0  0  0
  144.9464  132.7294  151.6600 C   0  0  0  0  0  0  0  0  0  0  0  0
  146.0296  132.1980  152.2034 N   0  0  0  0  0  0  0  0  0  0  0  0
  150.8728  137.9239  154.7147 C   0  0  0  0  0  0  0  0  0  0  0  0
  152.0834  138.7410  155.2053 C   0  0  1  0  0  0  0  0  0  0  0  0
  153.3686  138.3807  154.4526 C   0  0  0  0  0  0  0  0  0  0  0  0
  151.8244  140.1249  155.0072 O   0  0  0  0  0  0  0  0  0  0  0  0
  149.6171  142.4612  155.9519 H   0  0  0  0  0  0  0  0  0  0  0  0
  150.3769  142.2773  154.3717 H   0  0  0  0  0  0  0  0  0  0  0  0
  151.3634  142.6227  155.7900 H   0  0  0  0  0  0  0  0  0  0  0  0
  150.7961  140.4098  156.7638 H   0  0  0  0  0  0  0  0  0  0  0  0
  148.5817  140.1047  155.7630 H   0  0  0  0  0  0  0  0  0  0  0  0
  149.2556  139.9820  154.1515 H   0  0  0  0  0  0  0  0  0  0  0  0
  148.4839  137.5394  153.7911 H   0  0  0  0  0  0  0  0  0  0  0  0
  146.2432  137.5702  154.9812 H   0  0  0  0  0  0  0  0  0  0  0  0
  146.9416  139.1441  154.8438 H   0  0  0  0  0  0  0  0  0  0  0  0
  147.0336  138.2816  156.3797 H   0  0  0  0  0  0  0  0  0  0  0  0
  149.3979  135.7902  155.8401 H   0  0  0  0  0  0  0  0  0  0  0  0
  147.6544  135.8617  156.0268 H   0  0  0  0  0  0  0  0  0  0  0  0
  148.3147  135.5473  153.2782 H   0  0  0  0  0  0  0  0  0  0  0  0
  148.9455  133.3445  152.2641 H   0  0  0  0  0  0  0  0  0  0  0  0
  148.3141  131.9613  153.1420 H   0  0  0  0  0  0  0  0  0  0  0  0
  146.8232  135.3708  152.0436 H   0  0  0  0  0  0  0  0  0  0  0  0
  144.3313  134.8257  151.0736 H   0  0  0  0  0  0  0  0  0  0  0  0
  144.1196  132.0821  151.4083 H   0  0  0  0  0  0  0  0  0  0  0  0
  151.1014  136.8778  154.9069 H   0  0  0  0  0  0  0  0  0  0  0  0
  150.7707  138.0338  153.6340 H   0  0  0  0  0  0  0  0  0  0  0  0
  152.2396  138.5580  156.2699 H   0  0  0  0  0  0  0  0  0  0  0  0
  153.6175  137.3272  154.5823 H   0  0  0  0  0  0  0  0  0  0  0  0
  154.2115  138.9682  154.8178 H   0  0  0  0  0  0  0  0  0  0  0  0
  153.2671  138.5722  153.3840 H   0  0  0  0  0  0  0  0  0  0  0  0
  1  2  1  0  0  0  0
  1 21  1  0  0  0  0
  1 22  1  0  0  0  0
  1 23  1  0  0  0  0
  2 20  1  0  0  0  0
  2  3  1  0  0  0  0
  2 24  1  0  0  0  0
  3  4  1  0  0  0  0
  3 25  1  0  0  0  0
  3 26  1  0  0  0  0
  4  5  1  0  0  0  0
  4 17  1  0  0  0  0
  5  6  1  0  0  0  0
  5  7  1  0  0  0  0
  5 27  1  0  0  0  0
  6 28  1  0  0  0  0
  6 29  1  0  0  0  0
  6 30  1  0  0  0  0
  7  8  1  0  0  0  0
  7 31  1  0  0  0  0
  7 32  1  0  0  0  0
  8  9  1  0  0  0  0
  8 33  1  0  0  0  0
  9 10  2  0  0  0  0
  9 11  1  0  0  0  0
 11 12  1  0  0  0  0
 11 34  1  0  0  0  0
 11 35  1  0  0  0  0
 12 16  1  0  0  0  0
 12 13  1  0  0  0  0
 13 14  2  0  0  0  0
 13 36  1  0  0  0  0
 14 15  1  0  0  0  0
 14 37  1  0  0  0  0
 15 16  2  0  0  0  0
 15 38  1  0  0  0  0
 17 18  1  0  0  0  0
 17 39  1  0  0  0  0
 17 40  1  0  0  0  0
 18 19  1  0  0  0  0
 18 20  1  0  0  0  0
 18 41  1  0  0  0  0
 19 42  1  0  0  0  0
 19 43  1  0  0  0  0
 19 44  1  0  0  0  0
M  END
> <s_m_source_file>
AV-unprocessed.smi

> <i_m_source_file_index>
1433

> <i_lp_mmshare_version>
43012

> <i_f3d_flags>
0

> <s_epik_input>
W0NIM11bQ0BASF0xW0NIMl1OKFtDSDJdW0NASF0oTzEpW0NIM10pW0NASF0oW0NIM10pW0NIMl1bTkhdQyg9TylbQ0gyXW4yW2NIXVtjSF1bY0hdbjI=

> <s_epik_cmdline>
J2VwaWtfcHl0aG9uJywgJy1waCcsICc3LjAnLCAnLXRuJywgJzgnLCAnLW1hJywgJzIwMCcsICctbWV0YWxfYmluZGluZycsICctaW1hZScsICc8aW5maWxlLm1hZT4nLCAnLW9tYWUnLCAnPG91dGZpbGUubWFlPic=

> <r_lp_tautomer_probability>
1

> <r_epik_Ionization_Penalty>
0.196927

> <r_epik_Ionization_Penalty_Charging>
0

> <r_epik_Ionization_Penalty_Neutral>
0.196927

> <r_epik_State_Penalty>
0.186684

> <r_epik_Charging_Adjusted_Penalty>
0.186684

> <i_epik_Tot_Q>
0

> <i_epik_Tot_abs_Q>
0

> <r_epik_Metal_State_Penalty>
0.186682

> <b_epik_Metal_Only>
0

> <s_lp_Force_Field>
OPLS_2005

> <r_lp_Energy>
26.9477

> <b_lp_Chiralities_Consistent>
1

> <s_lp_Variant>
AV-unprocessed.smi:1433-2

> <Gold.Version>
5.8.1

> <Gold.Id.Protein>
6NUR|6NUR_protein|mol2

> <Gold.PLP.Fitness>
37.5008

> <Gold.PLP.PLP>
-30.4410

> <Gold.PLP.part.hbond>
-2.0000

> <Gold.PLP.part.metal>
0.0000

> <Gold.PLP.part.buried>
-2.6973

> <Gold.PLP.part.nonpolar>
-24.9755

> <Gold.PLP.part.repulsive>
0.2497

> <Gold.PLP.ligand.clash>
0.0000

> <Gold.PLP.ligand.torsion>
0.9789

> <Gold.PLP.Chemscore.Hbond>
1.9920

> <Gold.PLP.Chemscore.CHOScore>
1.0000

> <Gold.PLP.Chemscore.Metal>
0.0000

> <Gold.Chemscore.Hbonds>
donor molecule, donor type, donor heavy atom, donor atom, acceptor molecule, acceptor atom, score
      L1  H     8    33       P1  7948  1.00
      P1  H  7989  7998       L1    20  0.90
      L1  C    13    36       P1  7948  1.00

> <Gold.PLP.Chemscore.Internal.Correction>
0.0417

> <Gold.Rescore>
     Score         DG    S(hbond)    S(metal)    S(lipo)     H(rot)  DE(clash)    DE(int)     intcor
     14.10     -15.32       1.84        0.00      70.94       1.80       0.11       1.10       ----

> <Gold.Chemscore.Fitness>
14.1037

> <Gold.Chemscore.DG>
-15.3179

> <Gold.Chemscore.ZeroCoef>
-5.4800

> <Gold.Chemscore.Hbond>
1.8429

> <Gold.Chemscore.Metal>
0.0000

> <Gold.Chemscore.Lipo>
70.9438

> <Gold.Chemscore.Internal_Hbond>
0.0000

> <Gold.Chemscore.DEClash>
0.1126

> <Gold.Chemscore.DEInternal>
1.1015

> <Gold.Chemscore.Rot>
1.8038

> <Gold.Chemscore.Internal.Correction>
   9.000000E+99

> <Gold.Chemscore.Hbonds>
donor molecule, donor type, donor heavy atom, donor atom, acceptor molecule, acceptor atom, score
      L1  H     8    33       P1  7948  0.97
      P1  H  7989  7998       L1    20  0.30

> <Gold.Chemscore.Hbond.Weighted>
-6.1552

> <Gold.Chemscore.Metal.Weighted>
-0.0000

> <Gold.Chemscore.Lipo.Weighted>
-8.3004

> <Gold.Chemscore.Internal_Hbond.Weighted>
0.0000

> <Gold.Chemscore.DEClash.Weighted>
0.1126

> <Gold.Chemscore.DEInternal.Weighted>
1.1015

> <Gold.Chemscore.Rot.Weighted>
4.6178

> <Gold.Chemscore.Internal.Correction.Weighted>
   9.000000E+99

> <Gold.Protein.RotatedTorsions>
[ 6907 6896 6895 6894 ] final   74.89 input  -60.11 | X-H torsion
[ 7974 7965 7964 7962 ] final   64.39 input  175.53 | X-H torsion
[ 8008 7997 7996 7995 ] final   82.09 input   59.86 | X-H torsion
[ 10167 10162 10161 10158 ] final  101.81 input  -65.29 | X-H torsion
[ 10718 10713 10712 10709 ] final  116.02 input   66.30 | X-H torsion
[ 10763 10752 10751 10750 ] final -171.64 input  -60.55 | X-H torsion
[ 11005 11000 10999 10996 ] final  157.31 input  -57.11 | X-H torsion

> <Gold.Protein.ActiveResidues>
 VAL166  LYS551  ARG553  GLY616  TRP617  ASP618  TYR619  PRO620  LYS621  CYS622 
 ASP623  PHE694  ASN695  SER759  ASP760  ASP761  ALA762  ILE779  LEU786  VAL792 
 PHE793  MET794  SER795  GLU796  ALA797  LYS798  CYS799  TRP800  GLU811  SER814 

> <Gold.Protein.RotatedAtoms>
  152.4999  134.4202  159.9477 H   0  0  0  0  0  0  0  0  0  0  0  0  # atno 6907 bound_to 6896
  151.4175  133.3702  159.2759 H   0  0  0  0  0  0  0  0  0  0  0  0  # atno 6908 bound_to 6896
  150.9247  134.8686  159.7571 H   0  0  0  0  0  0  0  0  0  0  0  0  # atno 6909 bound_to 6896
  145.8508  139.3253  143.0876 H   0  0  0  0  0  0  0  0  0  0  0  0  # atno 7974 bound_to 7965
  155.9059  140.3430  155.6062 H   0  0  0  0  0  0  0  0  0  0  0  0  # atno 8008 bound_to 7997
  155.7445  140.0812  157.2249 H   0  0  0  0  0  0  0  0  0  0  0  0  # atno 8009 bound_to 7997
  154.4049  140.1564  156.2640 H   0  0  0  0  0  0  0  0  0  0  0  0  # atno 8010 bound_to 7997
  139.7405  144.7012  151.0582 H   0  0  0  0  0  0  0  0  0  0  0  0  # atno 10167 bound_to 10162
  157.6186  131.1020  150.7413 H   0  0  0  0  0  0  0  0  0  0  0  0  # atno 10718 bound_to 10713
  154.6283  135.2883  155.0247 H   0  0  0  0  0  0  0  0  0  0  0  0  # atno 10763 bound_to 10752
  154.1417  135.6517  153.4947 H   0  0  0  0  0  0  0  0  0  0  0  0  # atno 10764 bound_to 10752
  153.0267  135.5334  154.7100 H   0  0  0  0  0  0  0  0  0  0  0  0  # atno 10765 bound_to 10752
  140.1758  134.8511  157.2744 H   0  0  0  0  0  0  0  0  0  0  0  0  # atno 11005 bound_to 11000
  145.9360  140.9014  143.0332 LP  0  0  0  0  0  0  0  0  0  0  0  0  # atno 17320 bound_to 7965
  144.6729  140.1483  143.7432 LP  0  0  0  0  0  0  0  0  0  0  0  0  # atno 17321 bound_to 7965
  140.7785  143.4930  150.9869 LP  0  0  0  0  0  0  0  0  0  0  0  0  # atno 17342 bound_to 10162
  139.8618  143.7305  152.3173 LP  0  0  0  0  0  0  0  0  0  0  0  0  # atno 17343 bound_to 10162
  156.7775  130.4848  149.5407 LP  0  0  0  0  0  0  0  0  0  0  0  0  # atno 17370 bound_to 10713
  156.1320  130.6185  151.0347 LP  0  0  0  0  0  0  0  0  0  0  0  0  # atno 17371 bound_to 10713
  140.2324  134.3892  155.7516 LP  0  0  0  0  0  0  0  0  0  0  0  0  # atno 17394 bound_to 11000
  141.2220  133.7222  156.8662 LP  0  0  0  0  0  0  0  0  0  0  0  0  # atno 17395 bound_to 11000

$$$$
