AV-unprocessed.smi:3039|AV-procd|sdf|11591|dock6
  -GOLD-   2272016563D 1   1.00000     0.00000
 Structure written by MMmdl.
 38 39  0  0  0  0  0  0  0  0  1 V2000
  153.0680  139.6755  156.1929 O   0  0  0  0  0  0  0  0  0  0  0  0
  151.9551  140.2002  156.2260 C   0  0  0  0  0  0  0  0  0  0  0  0
  150.9042  139.8202  155.1833 C   0  0  0  0  0  0  0  0  0  0  0  0
  150.8950  138.3295  154.9796 C   0  0  0  0  0  0  0  0  0  0  0  0
  149.8065  137.4249  155.1255 C   0  0  0  0  0  0  0  0  0  0  0  0
  150.3562  136.2127  154.8224 C   0  0  0  0  0  0  0  0  0  0  0  0
  151.6694  136.3509  154.5103 O   0  0  0  0  0  0  0  0  0  0  0  0
  152.0042  137.7060  154.6112 N   0  0  0  0  0  0  0  0  0  0  0  0
  151.5832  141.1121  157.1416 N   0  0  0  0  0  0  0  0  0  0  0  0
  152.3923  141.6611  158.2348 C   0  0  2  0  0  0  0  0  0  0  0  0
  152.6226  140.5824  159.3226 C   0  0  0  0  0  0  0  0  0  0  0  0
  153.8113  140.8887  160.2484 C   0  0  0  0  0  0  0  0  0  0  0  0
  153.4790  141.7524  161.4754 C   0  0  0  0  0  0  0  0  0  0  0  0
  152.4863  142.9021  161.2413 C   0  0  0  0  0  0  0  0  0  0  0  0
  152.6499  143.6454  159.9052 C   0  0  0  0  0  0  0  0  0  0  0  0
  151.8333  143.0236  158.7475 C   0  0  1  0  0  0  0  0  0  0  0  0
  151.6437  144.0569  157.6105 C   0  0  0  0  0  0  0  0  0  0  0  0
  150.9552  143.5005  156.5088 O   0  0  0  0  0  0  0  0  0  0  0  0
  149.9255  140.1619  155.5218 H   0  0  0  0  0  0  0  0  0  0  0  0
  151.1061  140.3425  154.2467 H   0  0  0  0  0  0  0  0  0  0  0  0
  148.7862  137.6334  155.4112 H   0  0  0  0  0  0  0  0  0  0  0  0
  149.9624  135.2079  154.7840 H   0  0  0  0  0  0  0  0  0  0  0  0
  150.6430  141.4738  157.0692 H   0  0  0  0  0  0  0  0  0  0  0  0
  153.3618  141.8570  157.7761 H   0  0  0  0  0  0  0  0  0  0  0  0
  151.7193  140.4034  159.9070 H   0  0  0  0  0  0  0  0  0  0  0  0
  152.8407  139.6382  158.8208 H   0  0  0  0  0  0  0  0  0  0  0  0
  154.2319  139.9484  160.6069 H   0  0  0  0  0  0  0  0  0  0  0  0
  154.6109  141.3578  159.6740 H   0  0  0  0  0  0  0  0  0  0  0  0
  153.0807  141.1153  162.2660 H   0  0  0  0  0  0  0  0  0  0  0  0
  154.4122  142.1579  161.8682 H   0  0  0  0  0  0  0  0  0  0  0  0
  151.4649  142.5304  161.3317 H   0  0  0  0  0  0  0  0  0  0  0  0
  152.6031  143.6140  162.0592 H   0  0  0  0  0  0  0  0  0  0  0  0
  152.2934  144.6640  160.0626 H   0  0  0  0  0  0  0  0  0  0  0  0
  153.7028  143.7438  159.6387 H   0  0  0  0  0  0  0  0  0  0  0  0
  150.8334  142.8427  159.1424 H   0  0  0  0  0  0  0  0  0  0  0  0
  151.0988  144.9342  157.9591 H   0  0  0  0  0  0  0  0  0  0  0  0
  152.6114  144.4219  157.2649 H   0  0  0  0  0  0  0  0  0  0  0  0
  150.2411  144.0755  156.2795 H   0  0  0  0  0  0  0  0  0  0  0  0
  1  2  2  0  0  0  0
  2  3  1  0  0  0  0
  2  9  1  0  0  0  0
  3  4  1  0  0  0  0
  3 19  1  0  0  0  0
  3 20  1  0  0  0  0
  4  8  2  0  0  0  0
  4  5  1  0  0  0  0
  5  6  2  0  0  0  0
  5 21  1  0  0  0  0
  6  7  1  0  0  0  0
  6 22  1  0  0  0  0
  7  8  1  0  0  0  0
  9 10  1  0  0  0  0
  9 23  1  0  0  0  0
 10 16  1  0  0  0  0
 10 11  1  0  0  0  0
 10 24  1  0  0  0  0
 11 12  1  0  0  0  0
 11 25  1  0  0  0  0
 11 26  1  0  0  0  0
 12 13  1  0  0  0  0
 12 27  1  0  0  0  0
 12 28  1  0  0  0  0
 13 14  1  0  0  0  0
 13 29  1  0  0  0  0
 13 30  1  0  0  0  0
 14 15  1  0  0  0  0
 14 31  1  0  0  0  0
 14 32  1  0  0  0  0
 15 16  1  0  0  0  0
 15 33  1  0  0  0  0
 15 34  1  0  0  0  0
 16 17  1  0  0  0  0
 16 35  1  0  0  0  0
 17 18  1  0  0  0  0
 17 36  1  0  0  0  0
 17 37  1  0  0  0  0
 18 38  1  0  0  0  0
M  END
> <s_m_source_file>
AV-unprocessed.smi

> <i_m_source_file_index>
3039

> <i_lp_mmshare_version>
43012

> <i_f3d_flags>
0

> <s_epik_input>
bjFvW2NIXVtjSF1jMVtDSDJdQyg9TylbTkhdW0NAQEhdMltDSDJdW0NIMl1bQ0gyXVtDSDJdW0NIMl1bQ0BIXTJbQ0gyXVtPSF0=

> <s_epik_cmdline>
J2VwaWtfcHl0aG9uJywgJy1waCcsICc3LjAnLCAnLXRuJywgJzgnLCAnLW1hJywgJzIwMCcsICctbWV0YWxfYmluZGluZycsICctaW1hZScsICc8aW5maWxlLm1hZT4nLCAnLW9tYWUnLCAnPG91dGZpbGUubWFlPic=

> <r_lp_tautomer_probability>
1

> <r_epik_Ionization_Penalty>
3.05817e-07

> <r_epik_Ionization_Penalty_Charging>
0

> <r_epik_Ionization_Penalty_Neutral>
3.05817e-07

> <r_epik_State_Penalty>
-0

> <r_epik_Charging_Adjusted_Penalty>
0

> <i_epik_Tot_Q>
0

> <i_epik_Tot_abs_Q>
0

> <r_epik_Metal_State_Penalty>
-0

> <b_epik_Metal_Only>
0

> <s_lp_Force_Field>
OPLS_2005

> <r_lp_Energy>
18.2522

> <b_lp_Chiralities_Consistent>
1

> <s_lp_Variant>
AV-unprocessed.smi:3039-1

> <Gold.Version>
5.8.1

> <Gold.Id.Protein>
6NUR|6NUR_protein|mol2

> <Gold.PLP.Fitness>
47.3543

> <Gold.PLP.PLP>
-39.1837

> <Gold.PLP.part.hbond>
-3.3195

> <Gold.PLP.part.metal>
0.0000

> <Gold.PLP.part.buried>
-5.1679

> <Gold.PLP.part.nonpolar>
-30.3909

> <Gold.PLP.part.repulsive>
0.3543

> <Gold.PLP.ligand.clash>
0.0000

> <Gold.PLP.ligand.torsion>
0.4610

> <Gold.PLP.Chemscore.Hbond>
3.0000

> <Gold.PLP.Chemscore.CHOScore>
0.0000

> <Gold.PLP.Chemscore.Metal>
0.0000

> <Gold.Chemscore.Hbonds>
donor molecule, donor type, donor heavy atom, donor atom, acceptor molecule, acceptor atom, score
      L1  H    18    38       P1  8028  1.00
      P1  H  7997  8008       L1     1  0.70
      P1  H 10752 10765       L1     7  0.99

> <Gold.PLP.Chemscore.Internal.Correction>
0.0926

> <Gold.Rescore>
     Score         DG    S(hbond)    S(metal)    S(lipo)     H(rot)  DE(clash)    DE(int)     intcor
     17.41     -21.17       2.72        0.00     105.85       2.26       0.06       3.70       ----

> <Gold.Chemscore.Fitness>
17.4071

> <Gold.Chemscore.DG>
-21.1705

> <Gold.Chemscore.ZeroCoef>
-5.4800

> <Gold.Chemscore.Hbond>
2.7233

> <Gold.Chemscore.Metal>
0.0000

> <Gold.Chemscore.Lipo>
105.8491

> <Gold.Chemscore.Internal_Hbond>
0.0000

> <Gold.Chemscore.DEClash>
0.0589

> <Gold.Chemscore.DEInternal>
3.7044

> <Gold.Chemscore.Rot>
2.2616

> <Gold.Chemscore.Internal.Correction>
   9.000000E+99

> <Gold.Chemscore.Hbonds>
donor molecule, donor type, donor heavy atom, donor atom, acceptor molecule, acceptor atom, score
      L1  H    18    38       P1  8028  0.99
      P1  H  7997  8008       L1     1  0.67
      P1  H 10752 10765       L1     7  0.49

> <Gold.Chemscore.Hbond.Weighted>
-9.0957

> <Gold.Chemscore.Metal.Weighted>
-0.0000

> <Gold.Chemscore.Lipo.Weighted>
-12.3843

> <Gold.Chemscore.Internal_Hbond.Weighted>
0.0000

> <Gold.Chemscore.DEClash.Weighted>
0.0589

> <Gold.Chemscore.DEInternal.Weighted>
3.7044

> <Gold.Chemscore.Rot.Weighted>
5.7896

> <Gold.Chemscore.Internal.Correction.Weighted>
   9.000000E+99

> <Gold.Protein.RotatedTorsions>
[ 6907 6896 6895 6894 ] final   91.24 input  -60.11 | X-H torsion
[ 7974 7965 7964 7962 ] final  -62.34 input  175.53 | X-H torsion
[ 8008 7997 7996 7995 ] final  -25.50 input   59.86 | X-H torsion
[ 10167 10162 10161 10158 ] final -141.92 input  -65.29 | X-H torsion
[ 10718 10713 10712 10709 ] final  -83.53 input   66.30 | X-H torsion
[ 10763 10752 10751 10750 ] final -170.95 input  -60.55 | X-H torsion
[ 11005 11000 10999 10996 ] final  168.91 input  -57.11 | X-H torsion

> <Gold.Protein.ActiveResidues>
 VAL166  LYS551  ARG553  GLY616  TRP617  ASP618  TYR619  PRO620  LYS621  CYS622 
 ASP623  PHE694  ASN695  SER759  ASP760  ASP761  ALA762  ILE779  LEU786  VAL792 
 PHE793  MET794  SER795  GLU796  ALA797  LYS798  CYS799  TRP800  GLU811  SER814 

> <Gold.Protein.RotatedAtoms>
  152.5449  134.1687  159.8587 H   0  0  0  0  0  0  0  0  0  0  0  0  # atno 6907 bound_to 6896
  151.1699  133.4784  159.2601 H   0  0  0  0  0  0  0  0  0  0  0  0  # atno 6908 bound_to 6896
  151.1286  135.0129  159.8627 H   0  0  0  0  0  0  0  0  0  0  0  0  # atno 6909 bound_to 6896
  145.7925  140.8701  143.0273 H   0  0  0  0  0  0  0  0  0  0  0  0  # atno 7974 bound_to 7965
  154.4472  140.1925  156.0629 H   0  0  0  0  0  0  0  0  0  0  0  0  # atno 8008 bound_to 7997
  156.0569  140.3301  155.7389 H   0  0  0  0  0  0  0  0  0  0  0  0  # atno 8009 bound_to 7997
  155.5471  140.0591  157.2848 H   0  0  0  0  0  0  0  0  0  0  0  0  # atno 8010 bound_to 7997
  139.8138  143.7666  152.2664 H   0  0  0  0  0  0  0  0  0  0  0  0  # atno 10167 bound_to 10162
  156.0017  130.4668  150.4272 H   0  0  0  0  0  0  0  0  0  0  0  0  # atno 10718 bound_to 10713
  154.6358  135.2892  155.0162 H   0  0  0  0  0  0  0  0  0  0  0  0  # atno 10763 bound_to 10752
  154.1306  135.6534  153.4925 H   0  0  0  0  0  0  0  0  0  0  0  0  # atno 10764 bound_to 10752
  153.0302  135.5309  154.7205 H   0  0  0  0  0  0  0  0  0  0  0  0  # atno 10765 bound_to 10752
  140.2922  134.7664  157.3848 H   0  0  0  0  0  0  0  0  0  0  0  0  # atno 11005 bound_to 11000
  144.6780  140.0144  143.7484 LP  0  0  0  0  0  0  0  0  0  0  0  0  # atno 17320 bound_to 7965
  145.9961  139.3054  143.0955 LP  0  0  0  0  0  0  0  0  0  0  0  0  # atno 17321 bound_to 7965
  139.7823  144.7440  151.0070 LP  0  0  0  0  0  0  0  0  0  0  0  0  # atno 17342 bound_to 10162
  140.7816  143.4529  151.0388 LP  0  0  0  0  0  0  0  0  0  0  0  0  # atno 17343 bound_to 10162
  157.2323  131.0507  151.2485 LP  0  0  0  0  0  0  0  0  0  0  0  0  # atno 17370 bound_to 10713
  157.3699  130.7175  149.6558 LP  0  0  0  0  0  0  0  0  0  0  0  0  # atno 17371 bound_to 10713
  140.1185  134.5251  155.8204 LP  0  0  0  0  0  0  0  0  0  0  0  0  # atno 17394 bound_to 11000
  141.2144  133.6748  156.6821 LP  0  0  0  0  0  0  0  0  0  0  0  0  # atno 17395 bound_to 11000

$$$$
