AV-unprocessed.smi:109|AV-procd|sdf|1061|dock9
  -GOLD-   2262018133D 1   1.00000     0.00000
 Structure written by MMmdl.
 58 61  0  0  0  0  0  0  0  0  1 V2000
  155.1866  138.8319  158.8527 O   0  0  0  0  0  0  0  0  0  0  0  0
  154.1200  139.1570  159.7178 C   0  0  0  0  0  0  0  0  0  0  0  0
  154.0462  140.6824  159.9035 C   0  0  0  0  0  0  0  0  0  0  0  0
  152.6738  141.2960  159.5345 C   0  0  2  0  0  0  0  0  0  0  0  0
  152.2886  140.8453  158.1947 N   0  0  0  0  0  0  0  0  0  0  0  0
  151.5108  139.7580  157.9929 C   0  0  0  0  0  0  0  0  0  0  0  0
  150.6997  139.2719  158.9680 N   0  0  0  0  0  0  0  0  0  0  0  0
  149.9437  138.1953  158.7350 C   0  0  0  0  0  0  0  0  0  0  0  0
  149.8501  137.4676  157.6202 N   0  0  0  0  0  0  0  0  0  0  0  0
  150.6650  137.9485  156.6375 C   0  0  0  0  0  0  0  0  0  0  0  0
  151.5176  139.0824  156.7452 C   0  0  0  0  0  0  0  0  0  0  0  0
  152.1966  139.2757  155.5493 N   0  0  0  0  0  0  0  0  0  0  0  0
  151.7707  138.3066  154.7843 C   0  0  0  0  0  0  0  0  0  0  0  0
  150.8451  137.4634  155.3579 N   0  0  0  0  0  0  0  0  0  0  0  0
  150.1923  136.2731  154.7351 C   0  0  1  0  0  0  0  0  0  0  0  0
  150.8446  135.1342  155.1976 O   0  0  0  0  0  0  0  0  0  0  0  0
  149.9303  134.0427  155.3240 C   0  0  1  0  0  0  0  0  0  0  0  0
  150.0478  133.4693  156.7464 C   0  0  0  0  0  0  0  0  0  0  0  0
  149.7309  134.4616  157.6991 O   0  0  0  0  0  0  0  0  0  0  0  0
  148.5353  134.6329  155.0374 C   0  0  2  0  0  0  0  0  0  0  0  0
  148.1411  134.2501  153.7297 O   0  0  0  0  0  0  0  0  0  0  0  0
  148.7377  136.1397  155.1717 C   0  0  2  0  0  0  0  0  0  0  0  0
  147.8382  136.8746  154.3629 O   0  0  0  0  0  0  0  0  0  0  0  0
  152.6479  142.8506  159.5852 C   0  0  0  0  0  0  0  0  0  0  0  0
  152.5592  143.4139  161.0261 C   0  0  0  0  0  0  0  0  0  0  0  0
  152.4867  144.9495  161.0548 C   0  0  0  0  0  0  0  0  0  0  0  0
  151.3152  145.4723  160.2153 C   0  0  0  0  0  0  0  0  0  0  0  0
  151.4073  144.9486  158.7773 C   0  0  0  0  0  0  0  0  0  0  0  0
  151.4696  143.4136  158.7496 C   0  0  0  0  0  0  0  0  0  0  0  0
  150.3247  136.3789  153.6572 H   0  0  0  0  0  0  0  0  0  0  0  0
  150.1777  133.2681  154.5955 H   0  0  0  0  0  0  0  0  0  0  0  0
  147.7745  134.2724  155.7307 H   0  0  0  0  0  0  0  0  0  0  0  0
  148.6362  136.4325  156.2171 H   0  0  0  0  0  0  0  0  0  0  0  0
  155.0391  137.9649  158.5067 H   0  0  0  0  0  0  0  0  0  0  0  0
  153.1975  138.7644  159.2904 H   0  0  0  0  0  0  0  0  0  0  0  0
  154.2755  138.6596  160.6756 H   0  0  0  0  0  0  0  0  0  0  0  0
  154.2711  140.8815  160.9500 H   0  0  0  0  0  0  0  0  0  0  0  0
  154.8334  141.1637  159.3214 H   0  0  0  0  0  0  0  0  0  0  0  0
  151.9585  140.9531  160.2813 H   0  0  0  0  0  0  0  0  0  0  0  0
  152.7107  141.3552  157.4320 H   0  0  0  0  0  0  0  0  0  0  0  0
  149.3252  137.8708  159.5588 H   0  0  0  0  0  0  0  0  0  0  0  0
  152.1230  138.1803  153.7707 H   0  0  0  0  0  0  0  0  0  0  0  0
  149.4142  132.5942  156.8834 H   0  0  0  0  0  0  0  0  0  0  0  0
  151.0736  133.1548  156.9411 H   0  0  0  0  0  0  0  0  0  0  0  0
  149.6039  135.2819  157.2474 H   0  0  0  0  0  0  0  0  0  0  0  0
  148.4365  134.9096  153.1212 H   0  0  0  0  0  0  0  0  0  0  0  0
  147.9967  136.6495  153.4589 H   0  0  0  0  0  0  0  0  0  0  0  0
  153.5768  143.2181  159.1459 H   0  0  0  0  0  0  0  0  0  0  0  0
  151.6864  142.9974  161.5308 H   0  0  0  0  0  0  0  0  0  0  0  0
  153.4288  143.1197  161.6117 H   0  0  0  0  0  0  0  0  0  0  0  0
  152.3889  145.2966  162.0837 H   0  0  0  0  0  0  0  0  0  0  0  0
  153.4214  145.3656  160.6767 H   0  0  0  0  0  0  0  0  0  0  0  0
  150.3720  145.1565  160.6629 H   0  0  0  0  0  0  0  0  0  0  0  0
  151.3110  146.5626  160.2172 H   0  0  0  0  0  0  0  0  0  0  0  0
  150.5492  145.2957  158.2010 H   0  0  0  0  0  0  0  0  0  0  0  0
  152.2930  145.3600  158.2916 H   0  0  0  0  0  0  0  0  0  0  0  0
  151.5450  143.0939  157.7102 H   0  0  0  0  0  0  0  0  0  0  0  0
  150.5292  143.0072  159.1243 H   0  0  0  0  0  0  0  0  0  0  0  0
  1  2  1  0  0  0  0
  1 34  1  0  0  0  0
  2  3  1  0  0  0  0
  2 35  1  0  0  0  0
  2 36  1  0  0  0  0
  3  4  1  0  0  0  0
  3 37  1  0  0  0  0
  3 38  1  0  0  0  0
  4  5  1  0  0  0  0
  4 24  1  0  0  0  0
  4 39  1  0  0  0  0
  5  6  1  0  0  0  0
  5 40  1  0  0  0  0
  6 11  1  0  0  0  0
  6  7  2  0  0  0  0
  7  8  1  0  0  0  0
  8  9  2  0  0  0  0
  8 41  1  0  0  0  0
  9 10  1  0  0  0  0
 10 14  1  0  0  0  0
 10 11  2  0  0  0  0
 11 12  1  0  0  0  0
 12 13  2  0  0  0  0
 13 14  1  0  0  0  0
 13 42  1  0  0  0  0
 14 15  1  0  0  0  0
 15 30  1  0  0  0  0
 15 22  1  0  0  0  0
 15 16  1  0  0  0  0
 16 17  1  0  0  0  0
 17 31  1  0  0  0  0
 17 18  1  0  0  0  0
 17 20  1  0  0  0  0
 18 19  1  0  0  0  0
 18 43  1  0  0  0  0
 18 44  1  0  0  0  0
 19 45  1  0  0  0  0
 20 32  1  0  0  0  0
 20 21  1  0  0  0  0
 20 22  1  0  0  0  0
 21 46  1  0  0  0  0
 22 33  1  0  0  0  0
 22 23  1  0  0  0  0
 23 47  1  0  0  0  0
 24 29  1  0  0  0  0
 24 25  1  0  0  0  0
 24 48  1  0  0  0  0
 25 26  1  0  0  0  0
 25 49  1  0  0  0  0
 25 50  1  0  0  0  0
 26 27  1  0  0  0  0
 26 51  1  0  0  0  0
 26 52  1  0  0  0  0
 27 28  1  0  0  0  0
 27 53  1  0  0  0  0
 27 54  1  0  0  0  0
 28 29  1  0  0  0  0
 28 55  1  0  0  0  0
 28 56  1  0  0  0  0
 29 57  1  0  0  0  0
 29 58  1  0  0  0  0
M  END
> <s_m_source_file>
AV-unprocessed.smi

> <i_m_source_file_index>
109

> <i_lp_mmshare_version>
43012

> <i_f3d_flags>
0

> <s_epik_input>
W0NIMl0xW0NIMl1bQ0gyXVtDSDJdW0NIMl1bQ0hdMVtDQEhdKFtDSDJdW0NIMl1bT0hdKVtOSF1jKG5bY0hdbjIpYyhjMjMpbltjSF1uM1tDQEBIXTRPW0NASF0oW0NIMl1bT0hdKVtDQEBIXShbT0hdKVtDQEhdNFtPSF0=

> <s_epik_cmdline>
J2VwaWtfcHl0aG9uJywgJy1waCcsICc3LjAnLCAnLXRuJywgJzgnLCAnLW1hJywgJzIwMCcsICctbWV0YWxfYmluZGluZycsICctaW1hZScsICc8aW5maWxlLm1hZT4nLCAnLW9tYWUnLCAnPG91dGZpbGUubWFlPic=

> <r_lp_tautomer_probability>
1

> <r_epik_Ionization_Penalty>
0.000793976

> <r_epik_Ionization_Penalty_Charging>
0

> <r_epik_Ionization_Penalty_Neutral>
0.000793976

> <r_epik_State_Penalty>
-0

> <r_epik_Charging_Adjusted_Penalty>
0

> <i_epik_Tot_Q>
0

> <i_epik_Tot_abs_Q>
0

> <r_epik_Metal_State_Penalty>
-0

> <b_epik_Metal_Only>
0

> <s_epik_Chemistry_Notes>
This compound contains an acetal/aminal-like group ( X-CH(R)-Y where X, Y are N, S, or O) that may be acid/base labile, releasing an aldehyde.

> <s_lp_Force_Field>
OPLS_2005

> <r_lp_Energy>
56.6401

> <b_lp_Chiralities_Consistent>
1

> <s_lp_Variant>
AV-unprocessed.smi:109-31

> <Gold.Version>
5.8.1

> <Gold.Id.Protein>
6NUR|6NUR_protein|mol2

> <Gold.PLP.Fitness>
57.6186

> <Gold.PLP.PLP>
-46.5887

> <Gold.PLP.part.hbond>
-5.1115

> <Gold.PLP.part.metal>
0.0000

> <Gold.PLP.part.buried>
-4.2385

> <Gold.PLP.part.nonpolar>
-37.2633

> <Gold.PLP.part.repulsive>
0.2002

> <Gold.PLP.ligand.clash>
0.0000

> <Gold.PLP.ligand.torsion>
1.8018

> <Gold.PLP.Chemscore.Hbond>
4.8080

> <Gold.PLP.Chemscore.CHOScore>
0.0000

> <Gold.PLP.Chemscore.Metal>
0.0000

> <Gold.Chemscore.Hbonds>
donor molecule, donor type, donor heavy atom, donor atom, acceptor molecule, acceptor atom, score
      L1  H    21    46       P1  7948  1.00
      L1  H    23    47       P1  7948  1.00
      P1  H  6896  6908       L1    19  0.93
      P1  H  7997  8010       L1     1  1.00
      P1  H 10752 10764       L1    16  0.55

> <Gold.PLP.Chemscore.Internal.Correction>
0.2096

> <Gold.Rescore>
     Score         DG    S(hbond)    S(metal)    S(lipo)     H(rot)  DE(clash)    DE(int)     intcor
     12.35     -16.81       3.51        0.00     116.24       5.47       1.37       3.10       ----

> <Gold.Chemscore.Fitness>
12.3500

> <Gold.Chemscore.DG>
-16.8141

> <Gold.Chemscore.ZeroCoef>
-5.4800

> <Gold.Chemscore.Hbond>
3.5113

> <Gold.Chemscore.Metal>
0.0000

> <Gold.Chemscore.Lipo>
116.2378

> <Gold.Chemscore.Internal_Hbond>
0.0000

> <Gold.Chemscore.DEClash>
1.3675

> <Gold.Chemscore.DEInternal>
3.0967

> <Gold.Chemscore.Rot>
5.4662

> <Gold.Chemscore.Internal.Correction>
   9.000000E+99

> <Gold.Chemscore.Hbonds>
donor molecule, donor type, donor heavy atom, donor atom, acceptor molecule, acceptor atom, score
      L1  H    21    46       P1  7948  0.70
      L1  H    23    47       P1  7948  0.99
      P1  H  6896  6908       L1    19  0.36
      P1  H  7997  8010       L1     1  0.35
      P1  H 10752 10764       L1    16  0.21

> <Gold.Chemscore.Hbond.Weighted>
-11.7278

> <Gold.Chemscore.Metal.Weighted>
-0.0000

> <Gold.Chemscore.Lipo.Weighted>
-13.5998

> <Gold.Chemscore.Internal_Hbond.Weighted>
0.0000

> <Gold.Chemscore.DEClash.Weighted>
1.3675

> <Gold.Chemscore.DEInternal.Weighted>
3.0967

> <Gold.Chemscore.Rot.Weighted>
13.9935

> <Gold.Chemscore.Internal.Correction.Weighted>
   9.000000E+99

> <Gold.Protein.RotatedTorsions>
[ 6907 6896 6895 6894 ] final  125.35 input  -60.11 | X-H torsion
[ 7974 7965 7964 7962 ] final   63.66 input  175.53 | X-H torsion
[ 8008 7997 7996 7995 ] final   -0.41 input   59.86 | X-H torsion
[ 10167 10162 10161 10158 ] final -125.81 input  -65.29 | X-H torsion
[ 10718 10713 10712 10709 ] final -140.66 input   66.30 | X-H torsion
[ 10763 10752 10751 10750 ] final  -54.34 input  -60.55 | X-H torsion
[ 11005 11000 10999 10996 ] final   18.85 input  -57.11 | X-H torsion

> <Gold.Protein.ActiveResidues>
 VAL166  LYS551  ARG553  GLY616  TRP617  ASP618  TYR619  PRO620  LYS621  CYS622 
 ASP623  PHE694  ASN695  SER759  ASP760  ASP761  ALA762  ILE779  LEU786  VAL792 
 PHE793  MET794  SER795  GLU796  ALA797  LYS798  CYS799  TRP800  GLU811  SER814 

> <Gold.Protein.RotatedAtoms>
  152.3999  133.6802  159.6307 H   0  0  0  0  0  0  0  0  0  0  0  0  # atno 6907 bound_to 6896
  150.7892  133.8809  159.3294 H   0  0  0  0  0  0  0  0  0  0  0  0  # atno 6908 bound_to 6896
  151.6577  135.0995  160.0225 H   0  0  0  0  0  0  0  0  0  0  0  0  # atno 6909 bound_to 6896
  145.8593  139.3304  143.0828 H   0  0  0  0  0  0  0  0  0  0  0  0  # atno 7974 bound_to 7965
  154.6584  140.2585  155.7136 H   0  0  0  0  0  0  0  0  0  0  0  0  # atno 8008 bound_to 7997
  156.2607  140.2853  156.0968 H   0  0  0  0  0  0  0  0  0  0  0  0  # atno 8009 bound_to 7997
  155.1345  140.0379  157.2773 H   0  0  0  0  0  0  0  0  0  0  0  0  # atno 8010 bound_to 7997
  139.9781  143.5772  152.2388 H   0  0  0  0  0  0  0  0  0  0  0  0  # atno 10167 bound_to 10162
  156.3249  130.7554  151.1660 H   0  0  0  0  0  0  0  0  0  0  0  0  # atno 10718 bound_to 10713
  154.1733  135.6455  153.5015 H   0  0  0  0  0  0  0  0  0  0  0  0  # atno 10763 bound_to 10752
  153.0078  135.5388  154.6590 H   0  0  0  0  0  0  0  0  0  0  0  0  # atno 10764 bound_to 10752
  154.5935  135.2936  155.0583 H   0  0  0  0  0  0  0  0  0  0  0  0  # atno 10765 bound_to 10752
  140.4202  134.1526  155.7672 H   0  0  0  0  0  0  0  0  0  0  0  0  # atno 11005 bound_to 11000
  145.9267  140.9077  143.0377 LP  0  0  0  0  0  0  0  0  0  0  0  0  # atno 17320 bound_to 7965
  144.6727  140.1362  143.7440 LP  0  0  0  0  0  0  0  0  0  0  0  0  # atno 17321 bound_to 7965
  139.6430  144.7656  151.2300 LP  0  0  0  0  0  0  0  0  0  0  0  0  # atno 17342 bound_to 10162
  140.7499  143.6285  150.8445 LP  0  0  0  0  0  0  0  0  0  0  0  0  # atno 17343 bound_to 10162
  157.7419  131.0497  150.5063 LP  0  0  0  0  0  0  0  0  0  0  0  0  # atno 17370 bound_to 10713
  156.5220  130.4164  149.6245 LP  0  0  0  0  0  0  0  0  0  0  0  0  # atno 17371 bound_to 10713
  141.1787  133.8460  157.1334 LP  0  0  0  0  0  0  0  0  0  0  0  0  # atno 17394 bound_to 11000
  140.0205  134.9948  157.0582 LP  0  0  0  0  0  0  0  0  0  0  0  0  # atno 17395 bound_to 11000

$$$$
