AV-unprocessed.smi:2781|AV-procd|sdf|10719|dock3
  -GOLD-   2272015153D 1   1.00000     0.00000
 Structure written by MMmdl.
 35 38  0  0  0  0  0  0  0  0  1 V2000
  150.4786  140.8494  157.0856 O   0  0  0  0  0  0  0  0  0  0  0  0
  150.2136  141.9842  156.6874 C   0  0  0  0  0  0  0  0  0  0  0  0
  150.4322  143.1200  157.3734 N   0  0  0  0  0  0  0  0  0  0  0  0
  151.0259  143.2719  158.6547 C   0  0  0  0  0  0  0  0  0  0  0  0
  151.8695  142.2097  159.0521 C   0  0  0  0  0  0  0  0  0  0  0  0
  152.5031  142.2607  160.3090 C   0  0  0  0  0  0  0  0  0  0  0  0
  152.2756  143.3752  161.1356 C   0  0  0  0  0  0  0  0  0  0  0  0
  152.8625  143.4683  162.3522 F   0  0  0  0  0  0  0  0  0  0  0  0
  151.4223  144.3904  160.6655 C   0  0  0  0  0  0  0  0  0  0  0  0
  150.8143  144.3425  159.4610 N   0  0  0  0  0  0  0  0  0  0  0  0
  149.6622  142.2428  155.4942 N   0  0  0  0  0  0  0  0  0  0  0  0
  149.2980  141.2723  154.5134 C   0  0  2  0  0  0  0  0  0  0  0  0
  147.9298  141.2862  153.8574 C   0  0  2  0  0  0  0  0  0  0  0  0
  146.5669  141.7534  154.3813 C   0  0  2  0  0  0  0  0  0  0  0  0
  146.6535  142.5029  155.7262 C   0  0  0  0  0  0  0  0  0  0  0  0
  147.0283  141.3735  156.7104 C   0  0  0  0  0  0  0  0  0  0  0  0
  147.1031  140.1414  155.7861 C   0  0  1  0  0  0  0  0  0  0  0  0
  145.9467  140.4375  154.8374 C   0  0  0  0  0  0  0  0  0  0  0  0
  148.3026  140.1710  154.8313 C   0  0  2  0  0  0  0  0  0  0  0  0
  150.1509  143.9773  156.9213 H   0  0  0  0  0  0  0  0  0  0  0  0
  152.0324  141.3611  158.4034 H   0  0  0  0  0  0  0  0  0  0  0  0
  153.1508  141.4591  160.6319 H   0  0  0  0  0  0  0  0  0  0  0  0
  151.2215  145.2625  161.2703 H   0  0  0  0  0  0  0  0  0  0  0  0
  149.4822  143.2071  155.2559 H   0  0  0  0  0  0  0  0  0  0  0  0
  150.1078  140.9597  153.8554 H   0  0  0  0  0  0  0  0  0  0  0  0
  147.9116  141.0069  152.8056 H   0  0  0  0  0  0  0  0  0  0  0  0
  145.9964  142.2825  153.6175 H   0  0  0  0  0  0  0  0  0  0  0  0
  147.3590  143.3324  155.7099 H   0  0  0  0  0  0  0  0  0  0  0  0
  145.6809  142.9209  155.9899 H   0  0  0  0  0  0  0  0  0  0  0  0
  147.9495  141.5514  157.2631 H   0  0  0  0  0  0  0  0  0  0  0  0
  146.2366  141.2442  157.4496 H   0  0  0  0  0  0  0  0  0  0  0  0
  147.0248  139.1898  156.3122 H   0  0  0  0  0  0  0  0  0  0  0  0
  144.9826  140.5522  155.3367 H   0  0  0  0  0  0  0  0  0  0  0  0
  145.8481  139.7049  154.0339 H   0  0  0  0  0  0  0  0  0  0  0  0
  148.5154  139.2033  154.3804 H   0  0  0  0  0  0  0  0  0  0  0  0
  1  2  2  0  0  0  0
  2  3  1  0  0  0  0
  2 11  1  0  0  0  0
  3  4  1  0  0  0  0
  3 20  1  0  0  0  0
  4 10  1  0  0  0  0
  4  5  2  0  0  0  0
  5  6  1  0  0  0  0
  5 21  1  0  0  0  0
  6  7  2  0  0  0  0
  6 22  1  0  0  0  0
  7  8  1  0  0  0  0
  7  9  1  0  0  0  0
  9 10  2  0  0  0  0
  9 23  1  0  0  0  0
 11 12  1  0  0  0  0
 11 24  1  0  0  0  0
 12 19  1  0  0  0  0
 12 13  1  0  0  0  0
 12 25  1  0  0  0  0
 13 19  1  0  0  0  0
 13 14  1  0  0  0  0
 13 26  1  0  0  0  0
 14 18  1  0  0  0  0
 14 15  1  0  0  0  0
 14 27  1  0  0  0  0
 15 16  1  0  0  0  0
 15 28  1  0  0  0  0
 15 29  1  0  0  0  0
 16 17  1  0  0  0  0
 16 30  1  0  0  0  0
 16 31  1  0  0  0  0
 17 18  1  0  0  0  0
 17 19  1  0  0  0  0
 17 32  1  0  0  0  0
 18 33  1  0  0  0  0
 18 34  1  0  0  0  0
 19 35  1  0  0  0  0
M  END
> <s_m_source_file>
AV-unprocessed.smi

> <i_m_source_file_index>
2781

> <i_lp_mmshare_version>
43012

> <i_f3d_flags>
0

> <s_epik_input>
bjFbY0hdYyhGKVtjSF1bY0hdYzFbTkhdQyg9TylbTkhdW0NASF0yW0NAQEhdM1tDQEhdKFtDSDJdNClbQ0gyXVtDSDJdW0NASF00W0NASF0yMw==

> <s_epik_cmdline>
J2VwaWtfcHl0aG9uJywgJy1waCcsICc3LjAnLCAnLXRuJywgJzgnLCAnLW1hJywgJzIwMCcsICctbWV0YWxfYmluZGluZycsICctaW1hZScsICc8aW5maWxlLm1hZT4nLCAnLW9tYWUnLCAnPG91dGZpbGUubWFlPic=

> <r_lp_tautomer_probability>
1

> <r_epik_Ionization_Penalty>
4.05776e-05

> <r_epik_Ionization_Penalty_Charging>
0

> <r_epik_Ionization_Penalty_Neutral>
4.05776e-05

> <r_epik_State_Penalty>
-0

> <r_epik_Charging_Adjusted_Penalty>
0

> <i_epik_Tot_Q>
0

> <i_epik_Tot_abs_Q>
0

> <r_epik_Metal_State_Penalty>
-0

> <b_epik_Metal_Only>
0

> <s_lp_Force_Field>
OPLS_2005

> <r_lp_Energy>
85.3989

> <b_lp_Chiralities_Consistent>
1

> <s_lp_Variant>
AV-unprocessed.smi:2781-3

> <Gold.Version>
5.8.1

> <Gold.Id.Protein>
6NUR|6NUR_protein|mol2

> <Gold.PLP.Fitness>
41.4384

> <Gold.PLP.PLP>
-35.9201

> <Gold.PLP.part.hbond>
-2.0000

> <Gold.PLP.part.metal>
0.0000

> <Gold.PLP.part.buried>
-5.2127

> <Gold.PLP.part.nonpolar>
-29.8487

> <Gold.PLP.part.repulsive>
0.3354

> <Gold.PLP.ligand.clash>
0.0000

> <Gold.PLP.ligand.torsion>
0.1692

> <Gold.PLP.Chemscore.Hbond>
1.9280

> <Gold.PLP.Chemscore.CHOScore>
0.0000

> <Gold.PLP.Chemscore.Metal>
0.0000

> <Gold.Chemscore.Hbonds>
donor molecule, donor type, donor heavy atom, donor atom, acceptor molecule, acceptor atom, score
      L1  H     3    20       P1  8028  0.90
      L1  H    11    24       P1  8028  1.00

> <Gold.PLP.Chemscore.Internal.Correction>
0.0726

> <Gold.Rescore>
     Score         DG    S(hbond)    S(metal)    S(lipo)     H(rot)  DE(clash)    DE(int)     intcor
     16.90     -18.62       1.86        0.00      81.11       1.00       0.08       1.65       ----

> <Gold.Chemscore.Fitness>
16.8982

> <Gold.Chemscore.DG>
-18.6245

> <Gold.Chemscore.ZeroCoef>
-5.4800

> <Gold.Chemscore.Hbond>
1.8606

> <Gold.Chemscore.Metal>
0.0000

> <Gold.Chemscore.Lipo>
81.1120

> <Gold.Chemscore.Internal_Hbond>
0.0000

> <Gold.Chemscore.DEClash>
0.0774

> <Gold.Chemscore.DEInternal>
1.6489

> <Gold.Chemscore.Rot>
1.0000

> <Gold.Chemscore.Internal.Correction>
   9.000000E+99

> <Gold.Chemscore.Hbonds>
donor molecule, donor type, donor heavy atom, donor atom, acceptor molecule, acceptor atom, score
      L1  H     3    20       P1  8028  0.86
      L1  H    11    24       P1  8028  0.95

> <Gold.Chemscore.Hbond.Weighted>
-6.2144

> <Gold.Chemscore.Metal.Weighted>
-0.0000

> <Gold.Chemscore.Lipo.Weighted>
-9.4901

> <Gold.Chemscore.Internal_Hbond.Weighted>
0.0000

> <Gold.Chemscore.DEClash.Weighted>
0.0774

> <Gold.Chemscore.DEInternal.Weighted>
1.6489

> <Gold.Chemscore.Rot.Weighted>
2.5600

> <Gold.Chemscore.Internal.Correction.Weighted>
   9.000000E+99

> <Gold.Protein.RotatedTorsions>
[ 6907 6896 6895 6894 ] final -176.18 input  -60.11 | X-H torsion
[ 7974 7965 7964 7962 ] final  110.55 input  175.53 | X-H torsion
[ 8008 7997 7996 7995 ] final  -49.09 input   59.86 | X-H torsion
[ 10167 10162 10161 10158 ] final   81.83 input  -65.29 | X-H torsion
[ 10718 10713 10712 10709 ] final -143.04 input   66.30 | X-H torsion
[ 10763 10752 10751 10750 ] final   71.05 input  -60.55 | X-H torsion
[ 11005 11000 10999 10996 ] final -122.93 input  -57.11 | X-H torsion

> <Gold.Protein.ActiveResidues>
 VAL166  LYS551  ARG553  GLY616  TRP617  ASP618  TYR619  PRO620  LYS621  CYS622 
 ASP623  PHE694  ASN695  SER759  ASP760  ASP761  ALA762  ILE779  LEU786  VAL792 
 PHE793  MET794  SER795  GLU796  ALA797  LYS798  CYS799  TRP800  GLU811  SER814 

> <Gold.Protein.RotatedAtoms>
  151.6006  133.3357  159.3046 H   0  0  0  0  0  0  0  0  0  0  0  0  # atno 6907 bound_to 6896
  150.8210  134.7421  159.6783 H   0  0  0  0  0  0  0  0  0  0  0  0  # atno 6908 bound_to 6896
  152.4303  134.5796  159.9995 H   0  0  0  0  0  0  0  0  0  0  0  0  # atno 6909 bound_to 6896
  145.2535  139.2730  143.4055 H   0  0  0  0  0  0  0  0  0  0  0  0  # atno 7974 bound_to 7965
  154.4038  140.1305  156.4446 H   0  0  0  0  0  0  0  0  0  0  0  0  # atno 8008 bound_to 7997
  155.7425  140.3489  155.5091 H   0  0  0  0  0  0  0  0  0  0  0  0  # atno 8009 bound_to 7997
  155.9025  140.1022  157.1329 H   0  0  0  0  0  0  0  0  0  0  0  0  # atno 8010 bound_to 7997
  139.9351  144.6126  150.8306 H   0  0  0  0  0  0  0  0  0  0  0  0  # atno 10167 bound_to 10162
  156.3531  130.7699  151.1855 H   0  0  0  0  0  0  0  0  0  0  0  0  # atno 10718 bound_to 10713
  153.0376  135.5151  154.7534 H   0  0  0  0  0  0  0  0  0  0  0  0  # atno 10763 bound_to 10752
  154.6498  135.2923  155.0004 H   0  0  0  0  0  0  0  0  0  0  0  0  # atno 10764 bound_to 10752
  154.0892  135.6653  153.4902 H   0  0  0  0  0  0  0  0  0  0  0  0  # atno 10765 bound_to 10752
  140.9958  134.0474  157.3599 H   0  0  0  0  0  0  0  0  0  0  0  0  # atno 11005 bound_to 11000
  146.3296  140.2932  142.8616 LP  0  0  0  0  0  0  0  0  0  0  0  0  # atno 17320 bound_to 7965
  144.9482  140.8150  143.5588 LP  0  0  0  0  0  0  0  0  0  0  0  0  # atno 17321 bound_to 7965
  140.7627  143.3204  151.2636 LP  0  0  0  0  0  0  0  0  0  0  0  0  # atno 17342 bound_to 10162
  139.6750  143.9953  152.2776 LP  0  0  0  0  0  0  0  0  0  0  0  0  # atno 17343 bound_to 10162
  157.7464  131.0421  150.4681 LP  0  0  0  0  0  0  0  0  0  0  0  0  # atno 17370 bound_to 10713
  156.4880  130.4089  149.6423 LP  0  0  0  0  0  0  0  0  0  0  0  0  # atno 17371 bound_to 10713
  139.9014  135.0166  156.7285 LP  0  0  0  0  0  0  0  0  0  0  0  0  # atno 17394 bound_to 11000
  140.6968  133.9341  155.8000 LP  0  0  0  0  0  0  0  0  0  0  0  0  # atno 17395 bound_to 11000

$$$$
