AV-unprocessed.smi:21|AV-procd|sdf|164|dock8
  -GOLD-   2262015403D 1   1.00000     0.00000
 Structure written by MMmdl.
 61 64  0  0  0  0  0  0  0  0  1 V2000
  153.7362  142.8208  163.0882 C   0  0  0  0  0  0  0  0  0  0  0  0
  153.7101  142.3571  161.7475 O   0  0  0  0  0  0  0  0  0  0  0  0
  152.4309  142.4618  161.1367 C   0  0  2  0  0  0  0  0  0  0  0  0
  152.2154  141.3674  160.0767 C   0  0  0  0  0  0  0  0  0  0  0  0
  151.8460  142.1333  158.7971 C   0  0  2  0  0  0  0  0  0  0  0  0
  152.1810  141.3650  157.4972 C   0  0  0  0  0  0  0  0  0  0  0  0
  151.1504  140.4015  157.1068 N   0  0  0  0  0  0  0  0  0  0  0  0
  150.0244  140.2235  158.0205 C   0  0  0  0  0  0  0  0  0  0  0  0
  151.4954  139.3585  156.3014 C   0  0  0  0  0  0  0  0  0  0  0  0
  152.5922  139.4786  155.5047 N   0  0  0  0  0  0  0  0  0  0  0  0
  152.9443  138.4947  154.6735 C   0  0  0  0  0  0  0  0  0  0  0  0
  152.3522  137.3161  154.4800 N   0  0  0  0  0  0  0  0  0  0  0  0
  151.2606  137.1759  155.2842 C   0  0  0  0  0  0  0  0  0  0  0  0
  150.7691  138.1326  156.2194 C   0  0  0  0  0  0  0  0  0  0  0  0
  149.6495  137.6166  156.8636 N   0  0  0  0  0  0  0  0  0  0  0  0
  149.4782  136.4394  156.3291 C   0  0  0  0  0  0  0  0  0  0  0  0
  150.4047  136.0922  155.3743 N   0  0  0  0  0  0  0  0  0  0  0  0
  150.4468  134.8494  154.6226 C   0  0  0  0  0  0  0  0  0  0  0  0
  149.7892  133.6595  155.3658 C   0  0  2  0  0  0  0  0  0  0  0  0
  150.7667  133.0375  156.3957 C   0  0  0  0  0  0  0  0  0  0  0  0
  151.0186  133.9133  157.4741 O   0  0  0  0  0  0  0  0  0  0  0  0
  149.2633  132.6140  154.3439 C   0  0  1  0  0  0  0  0  0  0  0  0
  148.2757  131.5957  154.8879 C   0  0  0  0  0  0  0  0  0  0  0  0
  147.6262  131.0612  153.6173 C   0  0  0  0  0  0  0  0  0  0  0  0
  147.5917  132.1613  152.7175 O   0  0  0  0  0  0  0  0  0  0  0  0
  148.4367  133.2040  153.1934 C   0  0  0  0  0  0  0  0  0  0  0  0
  152.5399  143.4038  158.9370 N   0  0  0  0  0  0  0  0  0  0  0  0
  152.0609  144.4441  158.0362 C   0  0  0  0  0  0  0  0  0  0  0  0
  152.3539  143.7631  160.3307 C   0  0  0  0  0  0  0  0  0  0  0  0
  151.6426  142.4555  161.8915 H   0  0  0  0  0  0  0  0  0  0  0  0
  150.7723  142.3280  158.8231 H   0  0  0  0  0  0  0  0  0  0  0  0
  154.7444  142.7181  163.4894 H   0  0  0  0  0  0  0  0  0  0  0  0
  153.0627  142.2485  163.7272 H   0  0  0  0  0  0  0  0  0  0  0  0
  153.4590  143.8740  163.1455 H   0  0  0  0  0  0  0  0  0  0  0  0
  153.1400  140.8096  159.9227 H   0  0  0  0  0  0  0  0  0  0  0  0
  151.4430  140.6569  160.3719 H   0  0  0  0  0  0  0  0  0  0  0  0
  152.2739  142.0711  156.6729 H   0  0  0  0  0  0  0  0  0  0  0  0
  153.1628  140.9047  157.5769 H   0  0  0  0  0  0  0  0  0  0  0  0
  149.1522  139.8372  157.4913 H   0  0  0  0  0  0  0  0  0  0  0  0
  149.7408  141.1741  158.4726 H   0  0  0  0  0  0  0  0  0  0  0  0
  150.2802  139.5306  158.8230 H   0  0  0  0  0  0  0  0  0  0  0  0
  153.8242  138.6809  154.0754 H   0  0  0  0  0  0  0  0  0  0  0  0
  148.6687  135.7864  156.6211 H   0  0  0  0  0  0  0  0  0  0  0  0
  149.9478  135.0381  153.6726 H   0  0  0  0  0  0  0  0  0  0  0  0
  151.4848  134.6161  154.3827 H   0  0  0  0  0  0  0  0  0  0  0  0
  148.9342  134.0581  155.9143 H   0  0  0  0  0  0  0  0  0  0  0  0
  150.3801  132.0909  156.7741 H   0  0  0  0  0  0  0  0  0  0  0  0
  151.7369  132.8226  155.9502 H   0  0  0  0  0  0  0  0  0  0  0  0
  151.0321  134.7991  157.1449 H   0  0  0  0  0  0  0  0  0  0  0  0
  150.1094  132.0728  153.9170 H   0  0  0  0  0  0  0  0  0  0  0  0
  148.7478  130.8050  155.4712 H   0  0  0  0  0  0  0  0  0  0  0  0
  147.5271  132.0851  155.5129 H   0  0  0  0  0  0  0  0  0  0  0  0
  148.2396  130.2729  153.1792 H   0  0  0  0  0  0  0  0  0  0  0  0
  146.6293  130.6575  153.7947 H   0  0  0  0  0  0  0  0  0  0  0  0
  147.8034  134.0178  153.5490 H   0  0  0  0  0  0  0  0  0  0  0  0
  149.0611  133.5909  152.3880 H   0  0  0  0  0  0  0  0  0  0  0  0
  152.5772  145.3845  158.2307 H   0  0  0  0  0  0  0  0  0  0  0  0
  150.9905  144.6138  158.1602 H   0  0  0  0  0  0  0  0  0  0  0  0
  152.2459  144.1794  156.9956 H   0  0  0  0  0  0  0  0  0  0  0  0
  151.3642  144.2021  160.4694 H   0  0  0  0  0  0  0  0  0  0  0  0
  153.0865  144.5031  160.6551 H   0  0  0  0  0  0  0  0  0  0  0  0
  1  2  1  0  0  0  0
  1 32  1  0  0  0  0
  1 33  1  0  0  0  0
  1 34  1  0  0  0  0
  2  3  1  0  0  0  0
  3 30  1  0  0  0  0
  3 29  1  0  0  0  0
  3  4  1  0  0  0  0
  4  5  1  0  0  0  0
  4 35  1  0  0  0  0
  4 36  1  0  0  0  0
  5 31  1  0  0  0  0
  5  6  1  0  0  0  0
  5 27  1  0  0  0  0
  6  7  1  0  0  0  0
  6 37  1  0  0  0  0
  6 38  1  0  0  0  0
  7  8  1  0  0  0  0
  7  9  1  0  0  0  0
  8 39  1  0  0  0  0
  8 40  1  0  0  0  0
  8 41  1  0  0  0  0
  9 14  1  0  0  0  0
  9 10  2  0  0  0  0
 10 11  1  0  0  0  0
 11 12  2  0  0  0  0
 11 42  1  0  0  0  0
 12 13  1  0  0  0  0
 13 17  1  0  0  0  0
 13 14  2  0  0  0  0
 14 15  1  0  0  0  0
 15 16  2  0  0  0  0
 16 17  1  0  0  0  0
 16 43  1  0  0  0  0
 17 18  1  0  0  0  0
 18 19  1  0  0  0  0
 18 44  1  0  0  0  0
 18 45  1  0  0  0  0
 19 20  1  0  0  0  0
 19 22  1  0  0  0  0
 19 46  1  0  0  0  0
 20 21  1  0  0  0  0
 20 47  1  0  0  0  0
 20 48  1  0  0  0  0
 21 49  1  0  0  0  0
 22 26  1  0  0  0  0
 22 23  1  0  0  0  0
 22 50  1  0  0  0  0
 23 24  1  0  0  0  0
 23 51  1  0  0  0  0
 23 52  1  0  0  0  0
 24 25  1  0  0  0  0
 24 53  1  0  0  0  0
 24 54  1  0  0  0  0
 25 26  1  0  0  0  0
 26 55  1  0  0  0  0
 26 56  1  0  0  0  0
 27 28  1  0  0  0  0
 27 29  1  0  0  0  0
 28 57  1  0  0  0  0
 28 58  1  0  0  0  0
 28 59  1  0  0  0  0
 29 60  1  0  0  0  0
 29 61  1  0  0  0  0
M  END
> <s_m_source_file>
AV-unprocessed.smi

> <i_m_source_file_index>
21

> <i_lp_mmshare_version>
43012

> <i_f3d_flags>
0

> <s_epik_input>
W0NIM11PW0NASF0xW0NIMl1bQ0BIXShOKFtDSDNdKVtDSDJdMSlbQ0gyXU4oW0NIM10pYyhuW2NIXW4yKWMoYzIzKW5bY0hdbjNbQ0gyXVtDQEhdKFtDSDJdW09IXSlbQ0BASF00W0NIMl1bQ0gyXU9bQ0gyXTQ=

> <s_epik_cmdline>
J2VwaWtfcHl0aG9uJywgJy1waCcsICc3LjAnLCAnLXRuJywgJzgnLCAnLW1hJywgJzIwMCcsICctbWV0YWxfYmluZGluZycsICctaW1hZScsICc8aW5maWxlLm1hZT4nLCAnLW9tYWUnLCAnPG91dGZpbGUubWFlPic=

> <r_lp_tautomer_probability>
1

> <r_epik_Ionization_Penalty>
2.17574

> <r_epik_Ionization_Penalty_Charging>
0

> <r_epik_Ionization_Penalty_Neutral>
2.17574

> <r_epik_State_Penalty>
2.31336

> <r_epik_Charging_Adjusted_Penalty>
2.31336

> <i_epik_Tot_Q>
0

> <i_epik_Tot_abs_Q>
0

> <r_epik_Metal_State_Penalty>
2.31025

> <b_epik_Metal_Only>
0

> <s_lp_Force_Field>
OPLS_2005

> <r_lp_Energy>
70.4108

> <b_lp_Chiralities_Consistent>
1

> <s_lp_Variant>
AV-unprocessed.smi:21-44

> <Gold.Version>
5.8.1

> <Gold.Id.Protein>
6NUR|6NUR_protein|mol2

> <Gold.PLP.Fitness>
53.6390

> <Gold.PLP.PLP>
-49.4276

> <Gold.PLP.part.hbond>
-3.3663

> <Gold.PLP.part.metal>
0.0000

> <Gold.PLP.part.buried>
-7.1030

> <Gold.PLP.part.nonpolar>
-38.5817

> <Gold.PLP.part.repulsive>
0.4834

> <Gold.PLP.ligand.clash>
0.0000

> <Gold.PLP.ligand.torsion>
1.7895

> <Gold.PLP.Chemscore.Hbond>
2.3280

> <Gold.PLP.Chemscore.CHOScore>
0.0000

> <Gold.PLP.Chemscore.Metal>
0.0000

> <Gold.Chemscore.Hbonds>
donor molecule, donor type, donor heavy atom, donor atom, acceptor molecule, acceptor atom, score
      P1  H  6896  6909       L1    21  0.51
      P1  H  7997  8010       L1    10  1.00
      P1  H 10752 10764       L1    12  0.72

> <Gold.PLP.Chemscore.Internal.Correction>
0.8064

> <Gold.Rescore>
     Score         DG    S(hbond)    S(metal)    S(lipo)     H(rot)  DE(clash)    DE(int)     intcor
     15.11     -18.40       2.25        0.00     112.01       3.00       0.26       3.03       ----

> <Gold.Chemscore.Fitness>
15.1061

> <Gold.Chemscore.DG>
-18.3968

> <Gold.Chemscore.ZeroCoef>
-5.4800

> <Gold.Chemscore.Hbond>
2.2454

> <Gold.Chemscore.Metal>
0.0000

> <Gold.Chemscore.Lipo>
112.0099

> <Gold.Chemscore.Internal_Hbond>
0.0000

> <Gold.Chemscore.DEClash>
0.2576

> <Gold.Chemscore.DEInternal>
3.0330

> <Gold.Chemscore.Rot>
3.0031

> <Gold.Chemscore.Internal.Correction>
   9.000000E+99

> <Gold.Chemscore.Hbonds>
donor molecule, donor type, donor heavy atom, donor atom, acceptor molecule, acceptor atom, score
      P1  H  6896  6909       L1    21  0.50
      P1  H  7997  8010       L1    10  0.38
      P1  H 10752 10764       L1    12  0.32

> <Gold.Chemscore.Hbond.Weighted>
-7.4996

> <Gold.Chemscore.Metal.Weighted>
-0.0000

> <Gold.Chemscore.Lipo.Weighted>
-13.1052

> <Gold.Chemscore.Internal_Hbond.Weighted>
0.0000

> <Gold.Chemscore.DEClash.Weighted>
0.2576

> <Gold.Chemscore.DEInternal.Weighted>
3.0330

> <Gold.Chemscore.Rot.Weighted>
7.6880

> <Gold.Chemscore.Internal.Correction.Weighted>
   9.000000E+99

> <Gold.Protein.RotatedTorsions>
[ 6907 6896 6895 6894 ] final  -13.72 input  -60.11 | X-H torsion
[ 7974 7965 7964 7962 ] final  -90.15 input  175.53 | X-H torsion
[ 8008 7997 7996 7995 ] final   86.62 input   59.86 | X-H torsion
[ 10167 10162 10161 10158 ] final -150.92 input  -65.29 | X-H torsion
[ 10718 10713 10712 10709 ] final   91.41 input   66.30 | X-H torsion
[ 10763 10752 10751 10750 ] final  -76.69 input  -60.55 | X-H torsion
[ 11005 11000 10999 10996 ] final  177.00 input  -57.11 | X-H torsion

> <Gold.Protein.ActiveResidues>
 VAL166  LYS551  ARG553  GLY616  TRP617  ASP618  TYR619  PRO620  LYS621  CYS622 
 ASP623  PHE694  ASN695  SER759  ASP760  ASP761  ALA762  ILE779  LEU786  VAL792 
 PHE793  MET794  SER795  GLU796  ALA797  LYS798  CYS799  TRP800  GLU811  SER814 

> <Gold.Protein.RotatedAtoms>
  151.3505  135.0883  159.9401 H   0  0  0  0  0  0  0  0  0  0  0  0  # atno 6907 bound_to 6896
  152.5188  133.9357  159.7612 H   0  0  0  0  0  0  0  0  0  0  0  0  # atno 6908 bound_to 6896
  150.9731  133.6269  159.2764 H   0  0  0  0  0  0  0  0  0  0  0  0  # atno 6909 bound_to 6896
  145.4303  140.9555  143.2132 H   0  0  0  0  0  0  0  0  0  0  0  0  # atno 7974 bound_to 7965
  155.9650  140.3390  155.6524 H   0  0  0  0  0  0  0  0  0  0  0  0  # atno 8008 bound_to 7997
  155.6748  140.0731  157.2525 H   0  0  0  0  0  0  0  0  0  0  0  0  # atno 8009 bound_to 7997
  154.4152  140.1685  156.1906 H   0  0  0  0  0  0  0  0  0  0  0  0  # atno 8010 bound_to 7997
  139.7312  143.8805  152.2535 H   0  0  0  0  0  0  0  0  0  0  0  0  # atno 10167 bound_to 10162
  157.6960  131.0406  150.3725 H   0  0  0  0  0  0  0  0  0  0  0  0  # atno 10718 bound_to 10713
  154.5032  135.5789  153.6547 H   0  0  0  0  0  0  0  0  0  0  0  0  # atno 10763 bound_to 10752
  152.9882  135.6141  154.2975 H   0  0  0  0  0  0  0  0  0  0  0  0  # atno 10764 bound_to 10752
  154.2884  135.2849  155.2645 H   0  0  0  0  0  0  0  0  0  0  0  0  # atno 10765 bound_to 10752
  140.3793  134.6960  157.4441 H   0  0  0  0  0  0  0  0  0  0  0  0  # atno 11005 bound_to 11000
  144.8187  139.5830  143.6996 LP  0  0  0  0  0  0  0  0  0  0  0  0  # atno 17320 bound_to 7965
  146.2611  139.6412  142.9361 LP  0  0  0  0  0  0  0  0  0  0  0  0  # atno 17321 bound_to 7965
  139.8728  144.7059  150.8967 LP  0  0  0  0  0  0  0  0  0  0  0  0  # atno 17342 bound_to 10162
  140.7771  143.3724  151.1625 LP  0  0  0  0  0  0  0  0  0  0  0  0  # atno 17343 bound_to 10162
  156.4148  130.3941  149.6866 LP  0  0  0  0  0  0  0  0  0  0  0  0  # atno 17370 bound_to 10713
  156.4137  130.7735  151.2749 LP  0  0  0  0  0  0  0  0  0  0  0  0  # atno 17371 bound_to 10713
  140.0491  134.6157  155.8884 LP  0  0  0  0  0  0  0  0  0  0  0  0  # atno 17394 bound_to 11000
  141.1929  133.6577  156.5522 LP  0  0  0  0  0  0  0  0  0  0  0  0  # atno 17395 bound_to 11000

$$$$
