AV-unprocessed.smi:749|AV-procd|sdf|3585|dock2
  -GOLD-   22720 0583D 1   1.00000     0.00000
 Structure written by MMmdl.
 43 44  0  0  0  0  0  0  0  0  1 V2000
  146.0191  131.8026  148.9706 C   0  0  0  0  0  0  0  0  0  0  0  0
  145.3809  132.6320  149.9941 N   0  0  0  0  0  0  0  0  0  0  0  0
  146.2150  133.7305  150.5058 C   0  0  0  0  0  0  0  0  0  0  0  0
  145.4379  134.7974  151.2962 C   0  0  2  0  0  0  0  0  0  0  0  0
  146.3732  135.6503  152.0212 N   0  0  0  0  0  0  0  0  0  0  0  0
  146.0431  136.6978  152.7948 C   0  0  0  0  0  0  0  0  0  0  0  0
  144.8802  137.0595  152.9657 O   0  0  0  0  0  0  0  0  0  0  0  0
  147.0686  137.3450  153.3875 N   0  0  0  0  0  0  0  0  0  0  0  0
  147.0824  138.4736  154.2556 C   0  0  0  0  0  0  0  0  0  0  0  0
  146.4461  139.6820  153.8676 C   0  0  0  0  0  0  0  0  0  0  0  0
  146.6611  140.5124  154.9338 C   0  0  0  0  0  0  0  0  0  0  0  0
  146.2794  141.9357  155.2299 C   0  0  0  0  0  0  0  0  0  0  0  0
  144.7551  142.0649  155.4207 C   0  0  0  0  0  0  0  0  0  0  0  0
  146.7019  142.8485  154.0634 C   0  0  0  0  0  0  0  0  0  0  0  0
  146.9726  142.4094  156.5212 C   0  0  0  0  0  0  0  0  0  0  0  0
  147.3699  139.8568  155.8949 O   0  0  0  0  0  0  0  0  0  0  0  0
  147.6366  138.5558  155.4557 N   0  0  0  0  0  0  0  0  0  0  0  0
  144.4657  134.1163  152.2643 C   0  0  0  0  0  0  0  0  0  0  0  0
  143.4773  133.2312  151.4964 C   0  0  0  0  0  0  0  0  0  0  0  0
  144.1443  132.3216  150.4531 C   0  0  0  0  0  0  0  0  0  0  0  0
  143.5109  131.3487  150.0429 O   0  0  0  0  0  0  0  0  0  0  0  0
  145.4651  131.8616  148.0326 H   0  0  0  0  0  0  0  0  0  0  0  0
  146.0525  130.7575  149.2830 H   0  0  0  0  0  0  0  0  0  0  0  0
  147.0453  132.1133  148.7699 H   0  0  0  0  0  0  0  0  0  0  0  0
  146.9800  133.2840  151.1431 H   0  0  0  0  0  0  0  0  0  0  0  0
  146.7413  134.2128  149.6806 H   0  0  0  0  0  0  0  0  0  0  0  0
  144.8684  135.4035  150.5885 H   0  0  0  0  0  0  0  0  0  0  0  0
  147.3539  135.4229  151.9354 H   0  0  0  0  0  0  0  0  0  0  0  0
  147.9823  136.9806  153.1604 H   0  0  0  0  0  0  0  0  0  0  0  0
  145.9164  139.9044  152.9533 H   0  0  0  0  0  0  0  0  0  0  0  0
  144.4653  143.0949  155.6316 H   0  0  0  0  0  0  0  0  0  0  0  0
  144.4042  141.4513  156.2512 H   0  0  0  0  0  0  0  0  0  0  0  0
  144.2140  141.7506  154.5272 H   0  0  0  0  0  0  0  0  0  0  0  0
  146.2238  142.5455  153.1314 H   0  0  0  0  0  0  0  0  0  0  0  0
  147.7802  142.8193  153.9029 H   0  0  0  0  0  0  0  0  0  0  0  0
  146.4292  143.8877  154.2505 H   0  0  0  0  0  0  0  0  0  0  0  0
  146.7025  143.4379  156.7647 H   0  0  0  0  0  0  0  0  0  0  0  0
  148.0587  142.3711  156.4302 H   0  0  0  0  0  0  0  0  0  0  0  0
  146.6931  141.7861  157.3715 H   0  0  0  0  0  0  0  0  0  0  0  0
  145.0165  133.5136  152.9883 H   0  0  0  0  0  0  0  0  0  0  0  0
  143.9146  134.8626  152.8377 H   0  0  0  0  0  0  0  0  0  0  0  0
  142.9051  132.6217  152.1969 H   0  0  0  0  0  0  0  0  0  0  0  0
  142.7576  133.8607  150.9721 H   0  0  0  0  0  0  0  0  0  0  0  0
  1  2  1  0  0  0  0
  1 22  1  0  0  0  0
  1 23  1  0  0  0  0
  1 24  1  0  0  0  0
  2 20  1  0  0  0  0
  2  3  1  0  0  0  0
  3  4  1  0  0  0  0
  3 25  1  0  0  0  0
  3 26  1  0  0  0  0
  4  5  1  0  0  0  0
  4 18  1  0  0  0  0
  4 27  1  0  0  0  0
  5  6  1  0  0  0  0
  5 28  1  0  0  0  0
  6  7  2  0  0  0  0
  6  8  1  0  0  0  0
  8  9  1  0  0  0  0
  8 29  1  0  0  0  0
  9 17  2  0  0  0  0
  9 10  1  0  0  0  0
 10 11  2  0  0  0  0
 10 30  1  0  0  0  0
 11 12  1  0  0  0  0
 11 16  1  0  0  0  0
 12 13  1  0  0  0  0
 12 14  1  0  0  0  0
 12 15  1  0  0  0  0
 13 31  1  0  0  0  0
 13 32  1  0  0  0  0
 13 33  1  0  0  0  0
 14 34  1  0  0  0  0
 14 35  1  0  0  0  0
 14 36  1  0  0  0  0
 15 37  1  0  0  0  0
 15 38  1  0  0  0  0
 15 39  1  0  0  0  0
 16 17  1  0  0  0  0
 18 19  1  0  0  0  0
 18 40  1  0  0  0  0
 18 41  1  0  0  0  0
 19 20  1  0  0  0  0
 19 42  1  0  0  0  0
 19 43  1  0  0  0  0
 20 21  2  0  0  0  0
M  END
> <s_m_source_file>
AV-unprocessed.smi

> <i_m_source_file_index>
749

> <i_lp_mmshare_version>
43012

> <i_f3d_flags>
0

> <s_epik_input>
Tz1DMVtDSDJdW0NIMl1bQ0BASF0oW0NIMl1OMVtDSDNdKVtOSF1DKD1PKVtOSF1jMltjSF1jKG9uMilDKFtDSDNdKShbQ0gzXSlbQ0gzXQ==

> <s_epik_cmdline>
J2VwaWtfcHl0aG9uJywgJy1waCcsICc3LjAnLCAnLXRuJywgJzgnLCAnLW1hJywgJzIwMCcsICctbWV0YWxfYmluZGluZycsICctaW1hZScsICc8aW5maWxlLm1hZT4nLCAnLW9tYWUnLCAnPG91dGZpbGUubWFlPic=

> <r_lp_tautomer_probability>
1

> <r_epik_Ionization_Penalty>
2.91905e-05

> <r_epik_Ionization_Penalty_Charging>
0

> <r_epik_Ionization_Penalty_Neutral>
2.91905e-05

> <r_epik_State_Penalty>
-0

> <r_epik_Charging_Adjusted_Penalty>
0

> <i_epik_Tot_Q>
0

> <i_epik_Tot_abs_Q>
0

> <r_epik_Metal_State_Penalty>
0.0102923

> <b_epik_Metal_Only>
0

> <s_lp_Force_Field>
OPLS_2005

> <r_lp_Energy>
15.3042

> <b_lp_Chiralities_Consistent>
1

> <s_lp_Variant>
AV-unprocessed.smi:749-2

> <Gold.Version>
5.8.1

> <Gold.Id.Protein>
6NUR|6NUR_protein|mol2

> <Gold.PLP.Fitness>
34.4131

> <Gold.PLP.PLP>
-28.0193

> <Gold.PLP.part.hbond>
-3.0000

> <Gold.PLP.part.metal>
0.0000

> <Gold.PLP.part.buried>
-1.8551

> <Gold.PLP.part.nonpolar>
-24.6083

> <Gold.PLP.part.repulsive>
1.7557

> <Gold.PLP.ligand.clash>
0.0000

> <Gold.PLP.ligand.torsion>
0.6920

> <Gold.PLP.Chemscore.Hbond>
2.5920

> <Gold.PLP.Chemscore.CHOScore>
0.0000

> <Gold.PLP.Chemscore.Metal>
0.0000

> <Gold.Chemscore.Hbonds>
donor molecule, donor type, donor heavy atom, donor atom, acceptor molecule, acceptor atom, score
      L1  H     5    28       P1  7948  0.83
      L1  H     8    29       P1  7948  0.88
      P1  H 10785 10796       L1    21  0.90

> <Gold.PLP.Chemscore.Internal.Correction>
0.0017

> <Gold.Rescore>
     Score         DG    S(hbond)    S(metal)    S(lipo)     H(rot)  DE(clash)    DE(int)     intcor
     16.73     -18.06       2.56        0.00      61.41       1.23       0.61       0.72       ----

> <Gold.Chemscore.Fitness>
16.7289

> <Gold.Chemscore.DG>
-18.0621

> <Gold.Chemscore.ZeroCoef>
-5.4800

> <Gold.Chemscore.Hbond>
2.5599

> <Gold.Chemscore.Metal>
0.0000

> <Gold.Chemscore.Lipo>
61.4098

> <Gold.Chemscore.Internal_Hbond>
0.0000

> <Gold.Chemscore.DEClash>
0.6093

> <Gold.Chemscore.DEInternal>
0.7239

> <Gold.Chemscore.Rot>
1.2317

> <Gold.Chemscore.Internal.Correction>
   9.000000E+99

> <Gold.Chemscore.Hbonds>
donor molecule, donor type, donor heavy atom, donor atom, acceptor molecule, acceptor atom, score
      L1  H     5    28       P1  7948  0.81
      L1  H     8    29       P1  7948  0.87
      P1  H 10785 10796       L1    21  0.88

> <Gold.Chemscore.Hbond.Weighted>
-8.5502

> <Gold.Chemscore.Metal.Weighted>
-0.0000

> <Gold.Chemscore.Lipo.Weighted>
-7.1850

> <Gold.Chemscore.Internal_Hbond.Weighted>
0.0000

> <Gold.Chemscore.DEClash.Weighted>
0.6093

> <Gold.Chemscore.DEInternal.Weighted>
0.7239

> <Gold.Chemscore.Rot.Weighted>
3.1531

> <Gold.Chemscore.Internal.Correction.Weighted>
   9.000000E+99

> <Gold.Protein.RotatedTorsions>
[ 6907 6896 6895 6894 ] final -152.92 input  -60.11 | X-H torsion
[ 7974 7965 7964 7962 ] final -100.74 input  175.53 | X-H torsion
[ 8008 7997 7996 7995 ] final -176.12 input   59.86 | X-H torsion
[ 10167 10162 10161 10158 ] final -117.80 input  -65.29 | X-H torsion
[ 10718 10713 10712 10709 ] final   53.93 input   66.30 | X-H torsion
[ 10763 10752 10751 10750 ] final   93.43 input  -60.55 | X-H torsion
[ 11005 11000 10999 10996 ] final  129.06 input  -57.11 | X-H torsion

> <Gold.Protein.ActiveResidues>
 VAL166  LYS551  ARG553  GLY616  TRP617  ASP618  TYR619  PRO620  LYS621  CYS622 
 ASP623  PHE694  ASN695  SER759  ASP760  ASP761  ALA762  ILE779  LEU786  VAL792 
 PHE793  MET794  SER795  GLU796  ALA797  LYS798  CYS799  TRP800  GLU811  SER814 

> <Gold.Protein.RotatedAtoms>
  151.2349  133.4430  159.2604 H   0  0  0  0  0  0  0  0  0  0  0  0  # atno 6907 bound_to 6896
  151.0759  134.9828  159.8342 H   0  0  0  0  0  0  0  0  0  0  0  0  # atno 6908 bound_to 6896
  152.5418  134.2292  159.8871 H   0  0  0  0  0  0  0  0  0  0  0  0  # atno 6909 bound_to 6896
  145.2906  140.9351  143.2880 H   0  0  0  0  0  0  0  0  0  0  0  0  # atno 7974 bound_to 7965
  155.9909  140.1201  157.0639 H   0  0  0  0  0  0  0  0  0  0  0  0  # atno 8008 bound_to 7997
  154.4211  140.1126  156.5633 H   0  0  0  0  0  0  0  0  0  0  0  0  # atno 8009 bound_to 7997
  155.6344  140.3473  155.4696 H   0  0  0  0  0  0  0  0  0  0  0  0  # atno 8010 bound_to 7997
  140.0644  143.4937  152.2014 H   0  0  0  0  0  0  0  0  0  0  0  0  # atno 10167 bound_to 10162
  157.5211  130.8566  149.8560 H   0  0  0  0  0  0  0  0  0  0  0  0  # atno 10718 bound_to 10713
  153.2302  135.4326  155.0586 H   0  0  0  0  0  0  0  0  0  0  0  0  # atno 10763 bound_to 10752
  154.8293  135.3377  154.6799 H   0  0  0  0  0  0  0  0  0  0  0  0  # atno 10764 bound_to 10752
  153.7226  135.7016  153.5065 H   0  0  0  0  0  0  0  0  0  0  0  0  # atno 10765 bound_to 10752
  139.9595  134.9605  156.9093 H   0  0  0  0  0  0  0  0  0  0  0  0  # atno 11005 bound_to 11000
  144.9176  139.4451  143.6557 LP  0  0  0  0  0  0  0  0  0  0  0  0  # atno 17320 bound_to 7965
  146.3186  139.8018  142.8964 LP  0  0  0  0  0  0  0  0  0  0  0  0  # atno 17321 bound_to 7965
  139.5874  144.7536  151.3486 LP  0  0  0  0  0  0  0  0  0  0  0  0  # atno 17342 bound_to 10162
  140.7156  143.7275  150.7649 LP  0  0  0  0  0  0  0  0  0  0  0  0  # atno 17343 bound_to 10162
  156.0354  130.3753  150.1574 LP  0  0  0  0  0  0  0  0  0  0  0  0  # atno 17370 bound_to 10713
  156.9761  130.9850  151.3448 LP  0  0  0  0  0  0  0  0  0  0  0  0  # atno 17371 bound_to 10713
  140.5533  134.0606  155.7376 LP  0  0  0  0  0  0  0  0  0  0  0  0  # atno 17394 bound_to 11000
  141.1270  133.9366  157.2614 LP  0  0  0  0  0  0  0  0  0  0  0  0  # atno 17395 bound_to 11000

$$$$
