AV-unprocessed.smi:1196|AV-procd|sdf|5001|dock6
  -GOLD-   22720 4 13D 1   1.00000     0.00000
 Structure written by MMmdl.
 36 37  0  0  0  0  0  0  0  0  2 V2000
  149.6421  141.0011  157.1133 C   0  0  0  0  0  0  0  0  0  0  0  0
  151.1688  141.1289  156.9924 C   0  0  1  0  0  0  0  0  0  0  0  0
  151.8151  141.4490  158.3540 C   0  0  0  0  0  0  0  0  0  0  0  0
  151.7190  142.8577  158.6941 N   0  0  0  0  0  0  0  0  0  0  0  0
  151.1275  143.8729  157.9725 C   0  0  0  0  0  0  0  0  0  0  0  0
  151.2903  145.0263  158.6850 C   0  0  0  0  0  0  0  0  0  0  0  0
  152.0047  144.6097  159.8431 C   0  0  0  0  0  0  0  0  0  0  0  0
  152.2582  143.3109  159.8468 N   0  0  0  0  0  0  0  0  0  0  0  0
  151.7298  139.8944  156.4470 N   0  0  0  0  0  0  0  0  0  0  0  0
  151.4518  139.3766  155.2410 C   0  0  0  0  0  0  0  0  0  0  0  0
  150.6686  139.8981  154.4464 O   0  0  0  0  0  0  0  0  0  0  0  0
  152.1727  138.0738  154.8850 C   0  0  0  0  0  0  0  0  0  0  0  0
  151.2032  136.9200  154.5636 C   0  0  0  0  0  0  0  0  0  0  0  0
  150.7014  136.1859  155.8250 C   0  0  2  0  0  0  0  0  0  0  0  0
  151.7901  135.5380  156.5357 N   0  5  0  0  0  0  0  0  0  0  0  0
  151.5248  134.2126  156.6114 C   0  0  0  0  0  0  0  0  0  0  0  0
  152.2042  133.3392  157.1461 O   0  0  0  0  0  0  0  0  0  0  0  0
  150.3700  133.9257  156.0020 N   0  0  0  0  0  0  0  0  0  0  0  0
  149.8028  135.0119  155.4875 C   0  0  0  0  0  0  0  0  0  0  0  0
  148.7493  135.0777  154.8559 O   0  0  0  0  0  0  0  0  0  0  0  0
  149.2023  141.9186  157.5047 H   0  0  0  0  0  0  0  0  0  0  0  0
  149.3639  140.1866  157.7828 H   0  0  0  0  0  0  0  0  0  0  0  0
  149.1830  140.8068  156.1435 H   0  0  0  0  0  0  0  0  0  0  0  0
  151.3875  141.9545  156.3125 H   0  0  0  0  0  0  0  0  0  0  0  0
  151.3206  140.8828  159.1441 H   0  0  0  0  0  0  0  0  0  0  0  0
  152.8637  141.1464  158.3659 H   0  0  0  0  0  0  0  0  0  0  0  0
  150.6473  143.6917  157.0221 H   0  0  0  0  0  0  0  0  0  0  0  0
  150.9521  146.0167  158.4188 H   0  0  0  0  0  0  0  0  0  0  0  0
  152.3433  145.2084  160.6758 H   0  0  0  0  0  0  0  0  0  0  0  0
  152.3942  139.4024  157.0272 H   0  0  0  0  0  0  0  0  0  0  0  0
  152.8257  138.2643  154.0327 H   0  0  0  0  0  0  0  0  0  0  0  0
  152.8190  137.7837  155.7147 H   0  0  0  0  0  0  0  0  0  0  0  0
  150.3451  137.3246  154.0236 H   0  0  0  0  0  0  0  0  0  0  0  0
  151.6797  136.2110  153.8835 H   0  0  0  0  0  0  0  0  0  0  0  0
  150.1406  136.8736  156.4595 H   0  0  0  0  0  0  0  0  0  0  0  0
  149.9833  132.9963  155.9324 H   0  0  0  0  0  0  0  0  0  0  0  0
  1  2  1  0  0  0  0
  1 21  1  0  0  0  0
  1 22  1  0  0  0  0
  1 23  1  0  0  0  0
  2  3  1  0  0  0  0
  2  9  1  0  0  0  0
  2 24  1  0  0  0  0
  3  4  1  0  0  0  0
  3 25  1  0  0  0  0
  3 26  1  0  0  0  0
  4  8  1  0  0  0  0
  4  5  1  0  0  0  0
  5  6  2  0  0  0  0
  5 27  1  0  0  0  0
  6  7  1  0  0  0  0
  6 28  1  0  0  0  0
  7  8  2  0  0  0  0
  7 29  1  0  0  0  0
  9 10  1  0  0  0  0
  9 30  1  0  0  0  0
 10 11  2  0  0  0  0
 10 12  1  0  0  0  0
 12 13  1  0  0  0  0
 12 31  1  0  0  0  0
 12 32  1  0  0  0  0
 13 14  1  0  0  0  0
 13 33  1  0  0  0  0
 13 34  1  0  0  0  0
 14 19  1  0  0  0  0
 14 15  1  0  0  0  0
 14 35  1  0  0  0  0
 15 16  1  0  0  0  0
 16 17  2  0  0  0  0
 16 18  1  0  0  0  0
 18 19  1  0  0  0  0
 18 36  1  0  0  0  0
 19 20  2  0  0  0  0
M  CHG  1  15  -1
M  END
> <s_m_source_file>
AV-unprocessed.smi

> <i_m_source_file_index>
1196

> <i_lp_mmshare_version>
43012

> <i_f3d_flags>
0

> <s_epik_input>
bjFbY0hdW2NIXVtjSF1uMVtDSDJdW0NAQEhdKFtDSDNdKVtOSF1DKD1PKVtDSDJdW0NIMl1bQ0BASF0yW05IXUMoPU8pW05IXUMyPU8=

> <s_epik_cmdline>
J2VwaWtfcHl0aG9uJywgJy1waCcsICc3LjAnLCAnLXRuJywgJzgnLCAnLW1hJywgJzIwMCcsICctbWV0YWxfYmluZGluZycsICctaW1hZScsICc8aW5maWxlLm1hZT4nLCAnLW9tYWUnLCAnPG91dGZpbGUubWFlPic=

> <r_lp_tautomer_probability>
1

> <r_epik_Ionization_Penalty>
5.79547

> <r_epik_Ionization_Penalty_Charging>
5.79516

> <r_epik_Ionization_Penalty_Neutral>
0.000313087

> <r_epik_State_Penalty>
5.80096

> <r_epik_Charging_Adjusted_Penalty>
11.5961

> <i_epik_Tot_Q>
-1

> <i_epik_Tot_abs_Q>
1

> <r_epik_Metal_State_Penalty>
2.14443

> <b_epik_Metal_Only>
1

> <s_lp_Force_Field>
OPLS_2005

> <r_lp_Energy>
12.2353

> <b_lp_Chiralities_Consistent>
1

> <s_lp_Variant>
AV-unprocessed.smi:1196-6

> <Gold.Version>
5.8.1

> <Gold.Id.Protein>
6NUR|6NUR_protein|mol2

> <Gold.PLP.Fitness>
47.5835

> <Gold.PLP.PLP>
-35.8450

> <Gold.PLP.part.hbond>
-2.9727

> <Gold.PLP.part.metal>
0.0000

> <Gold.PLP.part.buried>
-5.9754

> <Gold.PLP.part.nonpolar>
-29.3342

> <Gold.PLP.part.repulsive>
0.4522

> <Gold.PLP.ligand.clash>
0.0000

> <Gold.PLP.ligand.torsion>
0.3661

> <Gold.PLP.Chemscore.Hbond>
3.1287

> <Gold.PLP.Chemscore.CHOScore>
1.0000

> <Gold.PLP.Chemscore.Metal>
0.0000

> <Gold.Chemscore.Hbonds>
donor molecule, donor type, donor heavy atom, donor atom, acceptor molecule, acceptor atom, score
      P1  H  6896  6908       L1    17  0.33
      P1  H  7989  7998       L1    11  1.00
      P1  H 10752 10765       L1    15  1.80
      L1  C     5    27       P1  8028  1.00

> <Gold.PLP.Chemscore.Internal.Correction>
0.0846

> <Gold.Rescore>
     Score         DG    S(hbond)    S(metal)    S(lipo)     H(rot)  DE(clash)    DE(int)     intcor
     11.13     -11.53       1.43        0.00      74.14       2.89       0.06       0.34       ----

> <Gold.Chemscore.Fitness>
11.1321

> <Gold.Chemscore.DG>
-11.5253

> <Gold.Chemscore.ZeroCoef>
-5.4800

> <Gold.Chemscore.Hbond>
1.4314

> <Gold.Chemscore.Metal>
0.0000

> <Gold.Chemscore.Lipo>
74.1424

> <Gold.Chemscore.Internal_Hbond>
0.0000

> <Gold.Chemscore.DEClash>
0.0574

> <Gold.Chemscore.DEInternal>
0.3359

> <Gold.Chemscore.Rot>
2.8946

> <Gold.Chemscore.Internal.Correction>
   9.000000E+99

> <Gold.Chemscore.Hbonds>
donor molecule, donor type, donor heavy atom, donor atom, acceptor molecule, acceptor atom, score
      P1  H  6896  6908       L1    17  0.26
      P1  H  7989  7998       L1    11  0.50
      P1  H 10752 10765       L1    15  0.05

> <Gold.Chemscore.Hbond.Weighted>
-4.7808

> <Gold.Chemscore.Metal.Weighted>
-0.0000

> <Gold.Chemscore.Lipo.Weighted>
-8.6747

> <Gold.Chemscore.Internal_Hbond.Weighted>
0.0000

> <Gold.Chemscore.DEClash.Weighted>
0.0574

> <Gold.Chemscore.DEInternal.Weighted>
0.3359

> <Gold.Chemscore.Rot.Weighted>
7.4101

> <Gold.Chemscore.Internal.Correction.Weighted>
   9.000000E+99

> <Gold.Protein.RotatedTorsions>
[ 6907 6896 6895 6894 ] final   41.65 input  -60.11 | X-H torsion
[ 7974 7965 7964 7962 ] final -130.10 input  175.53 | X-H torsion
[ 8008 7997 7996 7995 ] final   85.61 input   59.86 | X-H torsion
[ 10167 10162 10161 10158 ] final -146.57 input  -65.29 | X-H torsion
[ 10718 10713 10712 10709 ] final   56.81 input   66.30 | X-H torsion
[ 10763 10752 10751 10750 ] final -146.71 input  -60.55 | X-H torsion
[ 11005 11000 10999 10996 ] final  -31.82 input  -57.11 | X-H torsion

> <Gold.Protein.ActiveResidues>
 VAL166  LYS551  ARG553  GLY616  TRP617  ASP618  TYR619  PRO620  LYS621  CYS622 
 ASP623  PHE694  ASN695  SER759  ASP760  ASP761  ALA762  ILE779  LEU786  VAL792 
 PHE793  MET794  SER795  GLU796  ALA797  LYS798  CYS799  TRP800  GLU811  SER814 

> <Gold.Protein.RotatedAtoms>
  152.1979  134.8614  160.0510 H   0  0  0  0  0  0  0  0  0  0  0  0  # atno 6907 bound_to 6896
  151.9479  133.3652  159.3997 H   0  0  0  0  0  0  0  0  0  0  0  0  # atno 6908 bound_to 6896
  150.6948  134.4295  159.5286 H   0  0  0  0  0  0  0  0  0  0  0  0  # atno 6909 bound_to 6896
  144.9508  140.7342  143.4789 H   0  0  0  0  0  0  0  0  0  0  0  0  # atno 7974 bound_to 7965
  155.9522  140.3400  155.6417 H   0  0  0  0  0  0  0  0  0  0  0  0  # atno 8008 bound_to 7997
  155.6906  140.0748  157.2468 H   0  0  0  0  0  0  0  0  0  0  0  0  # atno 8009 bound_to 7997
  154.4124  140.1658  156.2069 H   0  0  0  0  0  0  0  0  0  0  0  0  # atno 8010 bound_to 7997
  139.7701  143.8250  152.2623 H   0  0  0  0  0  0  0  0  0  0  0  0  # atno 10167 bound_to 10162
  157.5462  130.8733  149.8895 H   0  0  0  0  0  0  0  0  0  0  0  0  # atno 10718 bound_to 10713
  154.8323  135.3379  154.6703 H   0  0  0  0  0  0  0  0  0  0  0  0  # atno 10763 bound_to 10752
  153.7322  135.6951  153.4991 H   0  0  0  0  0  0  0  0  0  0  0  0  # atno 10764 bound_to 10752
  153.2304  135.4418  155.0541 H   0  0  0  0  0  0  0  0  0  0  0  0  # atno 10765 bound_to 10752
  140.9501  133.7226  156.1206 H   0  0  0  0  0  0  0  0  0  0  0  0  # atno 11005 bound_to 11000
  145.2847  139.1905  143.4772 LP  0  0  0  0  0  0  0  0  0  0  0  0  # atno 17320 bound_to 7965
  146.3320  140.2815  142.8610 LP  0  0  0  0  0  0  0  0  0  0  0  0  # atno 17321 bound_to 7965
  139.8282  144.7265  150.9484 LP  0  0  0  0  0  0  0  0  0  0  0  0  # atno 17342 bound_to 10162
  140.7813  143.4094  151.1017 LP  0  0  0  0  0  0  0  0  0  0  0  0  # atno 17343 bound_to 10162
  156.0538  130.3712  150.1139 LP  0  0  0  0  0  0  0  0  0  0  0  0  # atno 17370 bound_to 10713
  156.9315  130.9715  151.3532 LP  0  0  0  0  0  0  0  0  0  0  0  0  # atno 17371 bound_to 10713
  140.7615  134.3934  157.5525 LP  0  0  0  0  0  0  0  0  0  0  0  0  # atno 17394 bound_to 11000
  139.8845  134.8964  156.2701 LP  0  0  0  0  0  0  0  0  0  0  0  0  # atno 17395 bound_to 11000

$$$$
