AV-unprocessed.smi:16|AV-procd|sdf|89|dock5
  -GOLD-   2262015233D 1   1.00000     0.00000
 Structure written by MMmdl.
 60 64  0  0  0  0  0  0  0  0  2 V2000
  150.7714  135.4436  155.5337 C   0  0  0  0  0  0  0  0  0  0  0  0
  149.2471  135.5493  155.3790 C   0  0  0  0  0  0  0  0  0  0  0  0
  148.7068  134.6074  154.3658 N   0  3  1  0  0  0  0  0  0  0  0  0
  149.2392  133.2311  154.5448 C   0  0  0  0  0  0  0  0  0  0  0  0
  148.7663  132.2965  153.4199 C   0  0  0  0  0  0  0  0  0  0  0  0
  147.2361  132.2821  153.3444 C   0  0  2  0  0  0  0  0  0  0  0  0
  146.8177  131.4574  152.2627 O   0  0  0  0  0  0  0  0  0  0  0  0
  145.3987  131.3632  152.1919 C   0  0  0  0  0  0  0  0  0  0  0  0
  144.8056  132.7629  151.9654 C   0  0  0  0  0  0  0  0  0  0  0  0
  145.2521  133.6812  153.0107 N   0  0  0  0  0  0  0  0  0  0  0  0
  144.6593  134.8946  152.9350 C   0  0  0  0  0  0  0  0  0  0  0  0
  145.4068  136.0084  152.7155 N   0  0  0  0  0  0  0  0  0  0  0  0
  144.8175  137.2070  152.6660 C   0  0  0  0  0  0  0  0  0  0  0  0
  143.5264  137.5092  152.8212 N   0  0  0  0  0  0  0  0  0  0  0  0
  142.7785  136.3927  153.0561 C   0  0  0  0  0  0  0  0  0  0  0  0
  143.2620  135.0569  153.1216 C   0  0  0  0  0  0  0  0  0  0  0  0
  142.2148  134.1794  153.3696 N   0  0  0  0  0  0  0  0  0  0  0  0
  141.1658  134.9539  153.4368 C   0  0  0  0  0  0  0  0  0  0  0  0
  141.4182  136.3001  153.2911 N   0  0  0  0  0  0  0  0  0  0  0  0
  140.4535  137.3602  153.2872 C   0  0  0  0  0  0  0  0  0  0  0  0
  140.4299  138.4105  154.4023 C   0  0  0  0  0  0  0  0  0  0  0  0
  138.8947  138.5136  154.2551 C   0  0  0  0  0  0  0  0  0  0  0  0
  138.0860  138.6647  155.5585 C   0  0  0  0  0  0  0  0  0  0  0  0
  138.4312  137.6959  156.5287 O   0  0  0  0  0  0  0  0  0  0  0  0
  138.4296  139.6283  153.2985 C   0  0  0  0  0  0  0  0  0  0  0  0
  139.1541  140.8242  153.5038 O   0  0  0  0  0  0  0  0  0  0  0  0
  138.9843  137.0998  153.6344 C   0  0  0  0  0  0  0  0  0  0  0  0
  146.7119  133.7182  153.1349 C   0  0  1  0  0  0  0  0  0  0  0  0
  147.2208  134.6198  154.2864 C   0  0  0  0  0  0  0  0  0  0  0  0
  146.8426  131.8719  154.2771 H   0  0  0  0  0  0  0  0  0  0  0  0
  147.1139  134.1017  152.1952 H   0  0  0  0  0  0  0  0  0  0  0  0
  151.1153  136.0706  156.3567 H   0  0  0  0  0  0  0  0  0  0  0  0
  151.3003  135.7723  154.6395 H   0  0  0  0  0  0  0  0  0  0  0  0
  151.0763  134.4194  155.7500 H   0  0  0  0  0  0  0  0  0  0  0  0
  148.8017  135.3241  156.3490 H   0  0  0  0  0  0  0  0  0  0  0  0
  148.9545  136.5716  155.1352 H   0  0  0  0  0  0  0  0  0  0  0  0
  150.3295  133.2552  154.5528 H   0  0  0  0  0  0  0  0  0  0  0  0
  148.9232  132.8421  155.5142 H   0  0  0  0  0  0  0  0  0  0  0  0
  149.1825  132.6254  152.4666 H   0  0  0  0  0  0  0  0  0  0  0  0
  149.1413  131.2870  153.5919 H   0  0  0  0  0  0  0  0  0  0  0  0
  145.1262  130.7018  151.3695 H   0  0  0  0  0  0  0  0  0  0  0  0
  145.0041  130.9155  153.1055 H   0  0  0  0  0  0  0  0  0  0  0  0
  145.1160  133.1325  150.9870 H   0  0  0  0  0  0  0  0  0  0  0  0
  143.7161  132.7090  151.9597 H   0  0  0  0  0  0  0  0  0  0  0  0
  145.4736  138.0446  152.4800 H   0  0  0  0  0  0  0  0  0  0  0  0
  140.1732  134.5610  153.6042 H   0  0  0  0  0  0  0  0  0  0  0  0
  140.5384  137.8379  152.3096 H   0  0  0  0  0  0  0  0  0  0  0  0
  140.7567  138.0009  155.3596 H   0  0  0  0  0  0  0  0  0  0  0  0
  140.9756  139.3251  154.1683 H   0  0  0  0  0  0  0  0  0  0  0  0
  138.2430  139.6495  155.9995 H   0  0  0  0  0  0  0  0  0  0  0  0
  137.0164  138.5713  155.3697 H   0  0  0  0  0  0  0  0  0  0  0  0
  138.9321  138.1188  157.2093 H   0  0  0  0  0  0  0  0  0  0  0  0
  138.5426  139.3245  152.2573 H   0  0  0  0  0  0  0  0  0  0  0  0
  137.3718  139.8536  153.4353 H   0  0  0  0  0  0  0  0  0  0  0  0
  139.7764  140.9232  152.7996 H   0  0  0  0  0  0  0  0  0  0  0  0
  138.3423  136.9330  152.7689 H   0  0  0  0  0  0  0  0  0  0  0  0
  138.8660  136.2969  154.3638 H   0  0  0  0  0  0  0  0  0  0  0  0
  146.7987  134.2954  155.2392 H   0  0  0  0  0  0  0  0  0  0  0  0
  146.8869  135.6435  154.1247 H   0  0  0  0  0  0  0  0  0  0  0  0
  149.0494  134.9261  153.4705 H   0  0  0  0  0  0  0  0  0  0  0  0
  1  2  1  0  0  0  0
  1 32  1  0  0  0  0
  1 33  1  0  0  0  0
  1 34  1  0  0  0  0
  2  3  1  0  0  0  0
  2 35  1  0  0  0  0
  2 36  1  0  0  0  0
  3 29  1  0  0  0  0
  3  4  1  0  0  0  0
  3 60  1  0  0  0  0
  4  5  1  0  0  0  0
  4 37  1  0  0  0  0
  4 38  1  0  0  0  0
  5  6  1  0  0  0  0
  5 39  1  0  0  0  0
  5 40  1  0  0  0  0
  6 30  1  0  0  0  0
  6 28  1  0  0  0  0
  6  7  1  0  0  0  0
  7  8  1  0  0  0  0
  8  9  1  0  0  0  0
  8 41  1  0  0  0  0
  8 42  1  0  0  0  0
  9 10  1  0  0  0  0
  9 43  1  0  0  0  0
  9 44  1  0  0  0  0
 10 11  1  0  0  0  0
 10 28  1  0  0  0  0
 11 16  1  0  0  0  0
 11 12  2  0  0  0  0
 12 13  1  0  0  0  0
 13 14  2  0  0  0  0
 13 45  1  0  0  0  0
 14 15  1  0  0  0  0
 15 19  1  0  0  0  0
 15 16  2  0  0  0  0
 16 17  1  0  0  0  0
 17 18  2  0  0  0  0
 18 19  1  0  0  0  0
 18 46  1  0  0  0  0
 19 20  1  0  0  0  0
 20 27  1  0  0  0  0
 20 21  1  0  0  0  0
 20 47  1  0  0  0  0
 21 22  1  0  0  0  0
 21 48  1  0  0  0  0
 21 49  1  0  0  0  0
 22 23  1  0  0  0  0
 22 25  1  0  0  0  0
 22 27  1  0  0  0  0
 23 24  1  0  0  0  0
 23 50  1  0  0  0  0
 23 51  1  0  0  0  0
 24 52  1  0  0  0  0
 25 26  1  0  0  0  0
 25 53  1  0  0  0  0
 25 54  1  0  0  0  0
 26 55  1  0  0  0  0
 27 56  1  0  0  0  0
 27 57  1  0  0  0  0
 28 31  1  0  0  0  0
 28 29  1  0  0  0  0
 29 58  1  0  0  0  0
 29 59  1  0  0  0  0
M  CHG  1   3   1
M  END
> <s_m_source_file>
AV-unprocessed.smi

> <i_m_source_file_index>
16

> <i_lp_mmshare_version>
43012

> <i_f3d_flags>
0

> <s_epik_input>
W0NIM11bQ0gyXU4oW0NIMl1bQ0gyXTEpW0NIMl1bQ0BASF0oW0NAQEhdMTIpTihbQ0gyXVtDSDJdTzIpYyhuW2NIXW4zKWMoYzM0KW5bY0hdbjRbQ0hdKFtDSDJdNSlbQ0gyXUM1KFtDSDJdW09IXSlbQ0gyXVtPSF0=

> <s_epik_cmdline>
J2VwaWtfcHl0aG9uJywgJy1waCcsICc3LjAnLCAnLXRuJywgJzgnLCAnLW1hJywgJzIwMCcsICctbWV0YWxfYmluZGluZycsICctaW1hZScsICc8aW5maWxlLm1hZT4nLCAnLW9tYWUnLCAnPG91dGZpbGUubWFlPic=

> <r_lp_tautomer_probability>
1

> <r_epik_Ionization_Penalty>
0.0135603

> <r_epik_Ionization_Penalty_Charging>
0.0131385

> <r_epik_Ionization_Penalty_Neutral>
0.000421734

> <r_epik_State_Penalty>
0.0102091

> <r_epik_Charging_Adjusted_Penalty>
0.0233476

> <i_epik_Tot_Q>
1

> <i_epik_Tot_abs_Q>
1

> <r_epik_Metal_State_Penalty>
0.0103746

> <b_epik_Metal_Only>
0

> <s_lp_Force_Field>
OPLS_2005

> <r_lp_Energy>
54.8635

> <b_lp_Chiralities_Consistent>
1

> <s_lp_Variant>
AV-unprocessed.smi:16-3

> <Gold.Version>
5.8.1

> <Gold.Id.Protein>
6NUR|6NUR_protein|mol2

> <Gold.PLP.Fitness>
45.4345

> <Gold.PLP.PLP>
-37.6009

> <Gold.PLP.part.hbond>
-2.0000

> <Gold.PLP.part.metal>
0.0000

> <Gold.PLP.part.buried>
-8.5847

> <Gold.PLP.part.nonpolar>
-31.1888

> <Gold.PLP.part.repulsive>
4.5390

> <Gold.PLP.ligand.clash>
0.0000

> <Gold.PLP.ligand.torsion>
0.8861

> <Gold.PLP.Chemscore.Hbond>
3.0000

> <Gold.PLP.Chemscore.CHOScore>
0.0000

> <Gold.PLP.Chemscore.Metal>
0.0000

> <Gold.Chemscore.Hbonds>
donor molecule, donor type, donor heavy atom, donor atom, acceptor molecule, acceptor atom, score
      L1  H     3    60       P1  7948  1.98
      L1  H    26    55       P1 10160  0.88

> <Gold.PLP.Chemscore.Internal.Correction>
0.6059

> <Gold.Rescore>
     Score         DG    S(hbond)    S(metal)    S(lipo)     H(rot)  DE(clash)    DE(int)     intcor
      8.40     -12.92       1.65        0.00      89.19       3.33       1.93       2.59       ----

> <Gold.Chemscore.Fitness>
8.4021

> <Gold.Chemscore.DG>
-12.9186

> <Gold.Chemscore.ZeroCoef>
-5.4800

> <Gold.Chemscore.Hbond>
1.6515

> <Gold.Chemscore.Metal>
0.0000

> <Gold.Chemscore.Lipo>
89.1853

> <Gold.Chemscore.Internal_Hbond>
0.0000

> <Gold.Chemscore.DEClash>
1.9263

> <Gold.Chemscore.DEInternal>
2.5901

> <Gold.Chemscore.Rot>
3.3251

> <Gold.Chemscore.Internal.Correction>
   9.000000E+99

> <Gold.Chemscore.Hbonds>
donor molecule, donor type, donor heavy atom, donor atom, acceptor molecule, acceptor atom, score
      L1  H     3    60       P1  7948  0.23
      L1  H    26    55       P1 10160  0.81

> <Gold.Chemscore.Hbond.Weighted>
-5.5161

> <Gold.Chemscore.Metal.Weighted>
-0.0000

> <Gold.Chemscore.Lipo.Weighted>
-10.4347

> <Gold.Chemscore.Internal_Hbond.Weighted>
0.0000

> <Gold.Chemscore.DEClash.Weighted>
1.9263

> <Gold.Chemscore.DEInternal.Weighted>
2.5901

> <Gold.Chemscore.Rot.Weighted>
8.5122

> <Gold.Chemscore.Internal.Correction.Weighted>
   9.000000E+99

> <Gold.Protein.RotatedTorsions>
[ 6907 6896 6895 6894 ] final  108.28 input  -60.11 | X-H torsion
[ 7974 7965 7964 7962 ] final  -19.24 input  175.53 | X-H torsion
[ 8008 7997 7996 7995 ] final   40.63 input   59.86 | X-H torsion
[ 10167 10162 10161 10158 ] final  -27.72 input  -65.29 | X-H torsion
[ 10718 10713 10712 10709 ] final  -61.60 input   66.30 | X-H torsion
[ 10763 10752 10751 10750 ] final   94.20 input  -60.55 | X-H torsion
[ 11005 11000 10999 10996 ] final  -50.95 input  -57.11 | X-H torsion

> <Gold.Protein.ActiveResidues>
 VAL166  LYS551  ARG553  GLY616  TRP617  ASP618  TYR619  PRO620  LYS621  CYS622 
 ASP623  PHE694  ASN695  SER759  ASP760  ASP761  ALA762  ILE779  LEU786  VAL792 
 PHE793  MET794  SER795  GLU796  ALA797  LYS798  CYS799  TRP800  GLU811  SER814 

> <Gold.Protein.RotatedAtoms>
  152.5119  133.9112  159.7488 H   0  0  0  0  0  0  0  0  0  0  0  0  # atno 6907 bound_to 6896
  150.9505  133.6546  159.2780 H   0  0  0  0  0  0  0  0  0  0  0  0  # atno 6908 bound_to 6896
  151.3826  135.0947  159.9554 H   0  0  0  0  0  0  0  0  0  0  0  0  # atno 6909 bound_to 6896
  146.1851  140.4034  142.8479 H   0  0  0  0  0  0  0  0  0  0  0  0  # atno 7974 bound_to 7965
  155.2563  140.3356  155.4277 H   0  0  0  0  0  0  0  0  0  0  0  0  # atno 8008 bound_to 7997
  156.2194  140.1802  156.7556 H   0  0  0  0  0  0  0  0  0  0  0  0  # atno 8009 bound_to 7997
  154.5802  140.0655  156.9078 H   0  0  0  0  0  0  0  0  0  0  0  0  # atno 8010 bound_to 7997
  140.7275  143.4070  151.1169 H   0  0  0  0  0  0  0  0  0  0  0  0  # atno 10167 bound_to 10162
  156.0911  130.4200  150.1017 H   0  0  0  0  0  0  0  0  0  0  0  0  # atno 10718 bound_to 10713
  153.2389  135.4298  155.0676 H   0  0  0  0  0  0  0  0  0  0  0  0  # atno 10763 bound_to 10752
  154.8331  135.3398  154.6678 H   0  0  0  0  0  0  0  0  0  0  0  0  # atno 10764 bound_to 10752
  153.7103  135.7023  153.5096 H   0  0  0  0  0  0  0  0  0  0  0  0  # atno 10765 bound_to 10752
  141.0844  133.6646  156.3806 H   0  0  0  0  0  0  0  0  0  0  0  0  # atno 11005 bound_to 11000
  144.8384  140.6818  143.6245 LP  0  0  0  0  0  0  0  0  0  0  0  0  # atno 17320 bound_to 7965
  145.3961  139.1607  143.4203 LP  0  0  0  0  0  0  0  0  0  0  0  0  # atno 17321 bound_to 7965
  139.7698  143.8512  152.3118 LP  0  0  0  0  0  0  0  0  0  0  0  0  # atno 17342 bound_to 10162
  139.8426  144.7203  150.9312 LP  0  0  0  0  0  0  0  0  0  0  0  0  # atno 17343 bound_to 10162
  156.9026  130.9625  151.3574 LP  0  0  0  0  0  0  0  0  0  0  0  0  # atno 17370 bound_to 10713
  157.6060  130.8547  149.8876 LP  0  0  0  0  0  0  0  0  0  0  0  0  # atno 17371 bound_to 10713
  140.5396  134.6134  157.5375 LP  0  0  0  0  0  0  0  0  0  0  0  0  # atno 17394 bound_to 11000
  139.9661  134.7371  156.0136 LP  0  0  0  0  0  0  0  0  0  0  0  0  # atno 17395 bound_to 11000

$$$$
