AV-unprocessed.smi:124|AV-procd|sdf|1148|dock5
  -GOLD-   2262018283D 1   1.00000     0.00000
 Structure written by MMmdl.
 52 56  0  0  0  0  0  0  0  0  1 V2000
  148.4422  130.0907  156.6930 O   0  0  0  0  0  0  0  0  0  0  0  0
  149.6290  130.4115  156.7746 C   0  0  0  0  0  0  0  0  0  0  0  0
  150.0750  131.3847  157.8813 C   0  0  0  0  0  0  0  0  0  0  0  0
  149.0581  131.5662  158.9108 N   0  0  0  0  0  0  0  0  0  0  0  0
  148.6441  130.4174  159.6308 C   0  0  0  0  0  0  0  0  0  0  0  0
  149.1209  129.3020  159.4124 O   0  0  0  0  0  0  0  0  0  0  0  0
  147.6257  130.6708  160.6441 C   0  0  0  0  0  0  0  0  0  0  0  0
  147.1413  129.6483  161.3693 F   0  0  0  0  0  0  0  0  0  0  0  0
  147.1567  131.9178  160.8652 C   0  0  0  0  0  0  0  0  0  0  0  0
  147.6009  133.0276  160.1655 N   0  0  0  0  0  0  0  0  0  0  0  0
  147.0572  134.4095  160.4538 C   0  0  1  0  0  0  0  0  0  0  0  0
  145.8881  134.3243  161.4414 C   0  0  0  0  0  0  0  0  0  0  0  0
  146.5825  134.5564  162.7660 C   0  0  0  0  0  0  0  0  0  0  0  0
  147.6701  135.5496  162.3731 C   0  0  0  0  0  0  0  0  0  0  0  0
  148.0594  135.1807  161.0523 O   0  0  0  0  0  0  0  0  0  0  0  0
  148.5696  132.8741  159.1496 C   0  0  0  0  0  0  0  0  0  0  0  0
  148.9691  133.8477  158.5065 O   0  0  0  0  0  0  0  0  0  0  0  0
  150.6798  129.9480  155.8681 C   0  0  0  0  0  0  0  0  0  0  0  0
  150.4357  129.3256  154.6598 C   0  0  0  0  0  0  0  0  0  0  0  0
  149.1987  129.0349  153.9393 C   0  0  0  0  0  0  0  0  0  0  0  0
  149.0682  127.8404  153.1970 C   0  0  0  0  0  0  0  0  0  0  0  0
  147.8802  127.5592  152.4944 C   0  0  0  0  0  0  0  0  0  0  0  0
  146.8110  128.4741  152.5239 C   0  0  0  0  0  0  0  0  0  0  0  0
  146.9329  129.6707  153.2548 C   0  0  0  0  0  0  0  0  0  0  0  0
  148.1222  129.9496  153.9557 C   0  0  0  0  0  0  0  0  0  0  0  0
  151.6423  128.9751  154.0805 N   0  0  0  0  0  0  0  0  0  0  0  0
  152.6998  129.3505  154.8781 C   0  0  0  0  0  0  0  0  0  0  0  0
  154.0907  129.2133  154.7170 C   0  0  0  0  0  0  0  0  0  0  0  0
  154.9538  129.6875  155.7198 C   0  0  0  0  0  0  0  0  0  0  0  0
  154.4170  130.2893  156.8726 C   0  0  0  0  0  0  0  0  0  0  0  0
  153.0220  130.4221  157.0230 C   0  0  0  0  0  0  0  0  0  0  0  0
  152.1195  129.9653  156.0280 C   0  0  0  0  0  0  0  0  0  0  0  0
  151.7076  128.5141  153.1843 H   0  0  0  0  0  0  0  0  0  0  0  0
  150.9897  131.0329  158.3584 H   0  0  0  0  0  0  0  0  0  0  0  0
  150.3106  132.3721  157.4806 H   0  0  0  0  0  0  0  0  0  0  0  0
  146.3990  132.0392  161.6248 H   0  0  0  0  0  0  0  0  0  0  0  0
  146.7912  134.8411  159.4877 H   0  0  0  0  0  0  0  0  0  0  0  0
  145.1918  135.1359  161.2264 H   0  0  0  0  0  0  0  0  0  0  0  0
  145.3552  133.3748  161.3777 H   0  0  0  0  0  0  0  0  0  0  0  0
  145.9154  134.9383  163.5390 H   0  0  0  0  0  0  0  0  0  0  0  0
  147.0281  133.6283  163.1259 H   0  0  0  0  0  0  0  0  0  0  0  0
  147.2674  136.5630  162.3481 H   0  0  0  0  0  0  0  0  0  0  0  0
  148.5179  135.5374  163.0582 H   0  0  0  0  0  0  0  0  0  0  0  0
  149.8815  127.1299  153.1695 H   0  0  0  0  0  0  0  0  0  0  0  0
  147.7896  126.6408  151.9334 H   0  0  0  0  0  0  0  0  0  0  0  0
  145.8995  128.2589  151.9858 H   0  0  0  0  0  0  0  0  0  0  0  0
  146.1150  130.3757  153.2777 H   0  0  0  0  0  0  0  0  0  0  0  0
  148.2059  130.8728  154.5109 H   0  0  0  0  0  0  0  0  0  0  0  0
  154.4929  128.7443  153.8311 H   0  0  0  0  0  0  0  0  0  0  0  0
  156.0234  129.5868  155.6077 H   0  0  0  0  0  0  0  0  0  0  0  0
  155.0774  130.6507  157.6471 H   0  0  0  0  0  0  0  0  0  0  0  0
  152.6466  130.8842  157.9221 H   0  0  0  0  0  0  0  0  0  0  0  0
  1  2  2  0  0  0  0
  2  3  1  0  0  0  0
  2 18  1  0  0  0  0
  3  4  1  0  0  0  0
  3 34  1  0  0  0  0
  3 35  1  0  0  0  0
  4 16  1  0  0  0  0
  4  5  1  0  0  0  0
  5  6  2  0  0  0  0
  5  7  1  0  0  0  0
  7  8  1  0  0  0  0
  7  9  2  0  0  0  0
  9 10  1  0  0  0  0
  9 36  1  0  0  0  0
 10 11  1  0  0  0  0
 10 16  1  0  0  0  0
 11 15  1  0  0  0  0
 11 12  1  0  0  0  0
 11 37  1  0  0  0  0
 12 13  1  0  0  0  0
 12 38  1  0  0  0  0
 12 39  1  0  0  0  0
 13 14  1  0  0  0  0
 13 40  1  0  0  0  0
 13 41  1  0  0  0  0
 14 15  1  0  0  0  0
 14 42  1  0  0  0  0
 14 43  1  0  0  0  0
 16 17  2  0  0  0  0
 18 32  1  0  0  0  0
 18 19  2  0  0  0  0
 19 20  1  0  0  0  0
 19 26  1  0  0  0  0
 20 25  1  0  0  0  0
 20 21  2  0  0  0  0
 21 22  1  0  0  0  0
 21 44  1  0  0  0  0
 22 23  2  0  0  0  0
 22 45  1  0  0  0  0
 23 24  1  0  0  0  0
 23 46  1  0  0  0  0
 24 25  2  0  0  0  0
 24 47  1  0  0  0  0
 25 48  1  0  0  0  0
 26 33  1  0  0  0  0
 26 27  1  0  0  0  0
 27 32  1  0  0  0  0
 27 28  2  0  0  0  0
 28 29  1  0  0  0  0
 28 49  1  0  0  0  0
 29 30  2  0  0  0  0
 29 50  1  0  0  0  0
 30 31  1  0  0  0  0
 30 51  1  0  0  0  0
 31 32  2  0  0  0  0
 31 52  1  0  0  0  0
M  END
> <s_m_source_file>
AV-unprocessed.smi

> <i_m_source_file_index>
124

> <i_lp_mmshare_version>
43012

> <i_f3d_flags>
0

> <s_epik_input>
W2NIXTFbY0hdW2NIXVtjSF1bY0hdYzEtYyhbbkhdMiljKGMoYzIzKVtjSF1bY0hdW2NIXVtjSF0zKUMoPU8pW0NIMl1uNGMoPU8pYyhGKVtjSF1uKGM0PU8pW0NAQEhdNVtDSDJdW0NIMl1bQ0gyXU81

> <s_epik_cmdline>
J2VwaWtfcHl0aG9uJywgJy1waCcsICc3LjAnLCAnLXRuJywgJzgnLCAnLW1hJywgJzIwMCcsICctbWV0YWxfYmluZGluZycsICctaW1hZScsICc8aW5maWxlLm1hZT4nLCAnLW9tYWUnLCAnPG91dGZpbGUubWFlPic=

> <r_lp_tautomer_probability>
1

> <r_epik_Ionization_Penalty>
1.43207e-08

> <r_epik_Ionization_Penalty_Charging>
5.01743e-09

> <r_epik_Ionization_Penalty_Neutral>
9.30329e-09

> <r_epik_State_Penalty>
-0

> <r_epik_Charging_Adjusted_Penalty>
5.01743e-09

> <i_epik_Tot_Q>
0

> <i_epik_Tot_abs_Q>
0

> <r_epik_Metal_State_Penalty>
-0

> <b_epik_Metal_Only>
0

> <s_epik_Chemistry_Notes>
This compound contains an acetal/aminal-like group ( X-CH(R)-Y where X, Y are N, S, or O) that may be acid/base labile, releasing an aldehyde.

> <s_lp_Force_Field>
OPLS_2005

> <r_lp_Energy>
48.1056

> <b_lp_Chiralities_Consistent>
1

> <s_lp_Variant>
AV-unprocessed.smi:124-2

> <Gold.Version>
5.8.1

> <Gold.Id.Protein>
6NUR|6NUR_protein|mol2

> <Gold.PLP.Fitness>
48.3292

> <Gold.PLP.PLP>
-42.8695

> <Gold.PLP.part.hbond>
-2.0000

> <Gold.PLP.part.metal>
0.0000

> <Gold.PLP.part.buried>
-3.1191

> <Gold.PLP.part.nonpolar>
-39.0835

> <Gold.PLP.part.repulsive>
0.0820

> <Gold.PLP.ligand.clash>
0.0000

> <Gold.PLP.ligand.torsion>
0.9691

> <Gold.PLP.Chemscore.Hbond>
2.0000

> <Gold.PLP.Chemscore.CHOScore>
0.0000

> <Gold.PLP.Chemscore.Metal>
0.0000

> <Gold.Chemscore.Hbonds>
donor molecule, donor type, donor heavy atom, donor atom, acceptor molecule, acceptor atom, score
      L1  H    26    33       P1 10737  1.00
      P1  H  6896  6908       L1    17  0.99

> <Gold.PLP.Chemscore.Internal.Correction>
1.3978

> <Gold.Rescore>
     Score         DG    S(hbond)    S(metal)    S(lipo)     H(rot)  DE(clash)    DE(int)     intcor
     13.74     -18.32       1.19        0.00     109.67       1.55       0.00       4.58       ----

> <Gold.Chemscore.Fitness>
13.7436

> <Gold.Chemscore.DG>
-18.3225

> <Gold.Chemscore.ZeroCoef>
-5.4800

> <Gold.Chemscore.Hbond>
1.1941

> <Gold.Chemscore.Metal>
0.0000

> <Gold.Chemscore.Lipo>
109.6710

> <Gold.Chemscore.Internal_Hbond>
0.0000

> <Gold.Chemscore.DEClash>
0.0000

> <Gold.Chemscore.DEInternal>
4.5789

> <Gold.Chemscore.Rot>
1.5537

> <Gold.Chemscore.Internal.Correction>
   9.000000E+99

> <Gold.Chemscore.Hbonds>
donor molecule, donor type, donor heavy atom, donor atom, acceptor molecule, acceptor atom, score
      L1  H    26    33       P1 10737  0.82
      P1  H  6896  6908       L1    17  0.36

> <Gold.Chemscore.Hbond.Weighted>
-3.9884

> <Gold.Chemscore.Metal.Weighted>
-0.0000

> <Gold.Chemscore.Lipo.Weighted>
-12.8315

> <Gold.Chemscore.Internal_Hbond.Weighted>
0.0000

> <Gold.Chemscore.DEClash.Weighted>
0.0000

> <Gold.Chemscore.DEInternal.Weighted>
4.5789

> <Gold.Chemscore.Rot.Weighted>
3.9774

> <Gold.Chemscore.Internal.Correction.Weighted>
   9.000000E+99

> <Gold.Protein.RotatedTorsions>
[ 6907 6896 6895 6894 ] final  157.26 input  -60.11 | X-H torsion
[ 7974 7965 7964 7962 ] final -126.70 input  175.53 | X-H torsion
[ 8008 7997 7996 7995 ] final   -4.45 input   59.86 | X-H torsion
[ 10167 10162 10161 10158 ] final  168.73 input  -65.29 | X-H torsion
[ 10718 10713 10712 10709 ] final  160.01 input   66.30 | X-H torsion
[ 10763 10752 10751 10750 ] final -103.87 input  -60.55 | X-H torsion
[ 11005 11000 10999 10996 ] final -128.07 input  -57.11 | X-H torsion

> <Gold.Protein.ActiveResidues>
 VAL166  LYS551  ARG553  GLY616  TRP617  ASP618  TYR619  PRO620  LYS621  CYS622 
 ASP623  PHE694  ASN695  SER759  ASP760  ASP761  ALA762  ILE779  LEU786  VAL792 
 PHE793  MET794  SER795  GLU796  ALA797  LYS798  CYS799  TRP800  GLU811  SER814 

> <Gold.Protein.RotatedAtoms>
  152.0177  133.3886  159.4245 H   0  0  0  0  0  0  0  0  0  0  0  0  # atno 6907 bound_to 6896
  150.6893  134.3661  159.4981 H   0  0  0  0  0  0  0  0  0  0  0  0  # atno 6908 bound_to 6896
  152.1430  134.9047  160.0603 H   0  0  0  0  0  0  0  0  0  0  0  0  # atno 6909 bound_to 6896
  144.9845  140.7673  143.4591 H   0  0  0  0  0  0  0  0  0  0  0  0  # atno 7974 bound_to 7965
  154.6142  140.2483  155.7631 H   0  0  0  0  0  0  0  0  0  0  0  0  # atno 8008 bound_to 7997
  156.2388  140.2940  156.0337 H   0  0  0  0  0  0  0  0  0  0  0  0  # atno 8009 bound_to 7997
  155.2003  140.0394  157.2906 H   0  0  0  0  0  0  0  0  0  0  0  0  # atno 8010 bound_to 7997
  139.4975  144.3783  151.9650 H   0  0  0  0  0  0  0  0  0  0  0  0  # atno 10167 bound_to 10162
  157.1563  131.0576  151.2255 H   0  0  0  0  0  0  0  0  0  0  0  0  # atno 10718 bound_to 10713
  154.7838  135.4807  153.9902 H   0  0  0  0  0  0  0  0  0  0  0  0  # atno 10763 bound_to 10752
  153.1531  135.6795  153.8860 H   0  0  0  0  0  0  0  0  0  0  0  0  # atno 10764 bound_to 10752
  153.8497  135.3169  155.3410 H   0  0  0  0  0  0  0  0  0  0  0  0  # atno 10765 bound_to 10752
  140.9547  134.1018  157.4028 H   0  0  0  0  0  0  0  0  0  0  0  0  # atno 11005 bound_to 11000
  145.2373  139.2088  143.5011 LP  0  0  0  0  0  0  0  0  0  0  0  0  # atno 17320 bound_to 7965
  146.3416  140.2261  142.8592 LP  0  0  0  0  0  0  0  0  0  0  0  0  # atno 17321 bound_to 7965
  140.3219  144.3417  150.6007 LP  0  0  0  0  0  0  0  0  0  0  0  0  # atno 17342 bound_to 10162
  140.5715  143.2180  151.7590 LP  0  0  0  0  0  0  0  0  0  0  0  0  # atno 17343 bound_to 10162
  157.4174  130.7418  149.6886 LP  0  0  0  0  0  0  0  0  0  0  0  0  # atno 17370 bound_to 10713
  155.9761  130.4079  150.3799 LP  0  0  0  0  0  0  0  0  0  0  0  0  # atno 17371 bound_to 10713
  139.8858  135.0076  156.6461 LP  0  0  0  0  0  0  0  0  0  0  0  0  # atno 17394 bound_to 11000
  140.7553  133.8863  155.8377 LP  0  0  0  0  0  0  0  0  0  0  0  0  # atno 17395 bound_to 11000

$$$$
