AV-unprocessed.smi:561|AV-procd|sdf|2940|dock9
  -GOLD-   2262023433D 1   1.00000     0.00000
 Structure written by MMmdl.
 36 37  0  0  0  0  0  0  0  0  3 V2000
  148.3261  132.2819  152.4764 C   0  0  0  0  0  0  0  0  0  0  0  0
  147.0648  131.4700  152.8012 C   0  0  2  0  0  0  0  0  0  0  0  0
  145.8492  132.3995  153.0512 C   0  0  0  0  0  0  0  0  0  0  0  0
  145.0232  132.6585  151.8575 N   0  0  0  0  0  0  0  0  0  0  0  0
  145.2701  132.2412  150.5725 C   0  0  0  0  0  0  0  0  0  0  0  0
  144.2409  132.7140  149.8006 C   0  0  0  0  0  0  0  0  0  0  0  0
  143.4013  133.3894  150.6452 N   0  3  0  0  0  0  0  0  0  0  0  0
  143.8733  133.3487  151.8952 C   0  0  0  0  0  0  0  0  0  0  0  0
  147.3289  130.6474  153.9871 N   0  5  0  0  0  0  0  0  0  0  0  0
  148.0552  129.4878  154.0064 C   0  0  0  0  0  0  0  0  0  0  0  0
  149.1130  129.3025  154.6208 O   0  0  0  0  0  0  0  0  0  0  0  0
  147.5718  128.3231  153.2068 C   0  0  0  0  0  0  0  0  0  0  0  0
  148.1618  127.1746  153.3266 N   0  0  0  0  0  0  0  0  0  0  0  0
  147.7492  126.0578  152.6298 N   0  0  0  0  0  0  0  0  0  0  0  0
  148.3508  124.8022  153.0741 C   0  0  0  0  0  0  0  0  0  0  0  0
  146.8874  126.0768  151.5833 C   0  0  0  0  0  0  0  0  0  0  0  0
  146.5188  125.0681  150.9812 O   0  0  0  0  0  0  0  0  0  0  0  0
  146.3920  127.4534  151.1328 C   0  0  0  0  0  0  0  0  0  0  0  0
  146.3728  128.4747  152.2870 C   0  0  0  0  0  0  0  0  0  0  0  0
  148.1768  132.8977  151.5894 H   0  0  0  0  0  0  0  0  0  0  0  0
  149.1767  131.6281  152.2806 H   0  0  0  0  0  0  0  0  0  0  0  0
  148.5972  132.9453  153.2987 H   0  0  0  0  0  0  0  0  0  0  0  0
  146.8440  130.8590  151.9245 H   0  0  0  0  0  0  0  0  0  0  0  0
  145.1991  131.9826  153.8223 H   0  0  0  0  0  0  0  0  0  0  0  0
  146.1892  133.3665  153.4242 H   0  0  0  0  0  0  0  0  0  0  0  0
  146.1471  131.6663  150.3122 H   0  0  0  0  0  0  0  0  0  0  0  0
  144.0492  132.6237  148.7415 H   0  0  0  0  0  0  0  0  0  0  0  0
  143.4241  133.7976  152.7632 H   0  0  0  0  0  0  0  0  0  0  0  0
  148.9598  124.3687  152.2798 H   0  0  0  0  0  0  0  0  0  0  0  0
  147.5805  124.0800  153.3486 H   0  0  0  0  0  0  0  0  0  0  0  0
  148.9941  124.9424  153.9443 H   0  0  0  0  0  0  0  0  0  0  0  0
  147.0645  127.8010  150.3478 H   0  0  0  0  0  0  0  0  0  0  0  0
  145.4018  127.3688  150.6837 H   0  0  0  0  0  0  0  0  0  0  0  0
  145.4573  128.3634  152.8691 H   0  0  0  0  0  0  0  0  0  0  0  0
  146.3421  129.4740  151.8516 H   0  0  0  0  0  0  0  0  0  0  0  0
  142.5483  133.8573  150.3666 H   0  0  0  0  0  0  0  0  0  0  0  0
  1  2  1  0  0  0  0
  1 20  1  0  0  0  0
  1 21  1  0  0  0  0
  1 22  1  0  0  0  0
  2  3  1  0  0  0  0
  2  9  1  0  0  0  0
  2 23  1  0  0  0  0
  3  4  1  0  0  0  0
  3 24  1  0  0  0  0
  3 25  1  0  0  0  0
  4  8  1  0  0  0  0
  4  5  1  0  0  0  0
  5  6  2  0  0  0  0
  5 26  1  0  0  0  0
  6  7  1  0  0  0  0
  6 27  1  0  0  0  0
  7  8  2  0  0  0  0
  7 36  1  0  0  0  0
  8 28  1  0  0  0  0
  9 10  1  0  0  0  0
 10 11  2  0  0  0  0
 10 12  1  0  0  0  0
 12 19  1  0  0  0  0
 12 13  2  0  0  0  0
 13 14  1  0  0  0  0
 14 15  1  0  0  0  0
 14 16  1  0  0  0  0
 15 29  1  0  0  0  0
 15 30  1  0  0  0  0
 15 31  1  0  0  0  0
 16 17  2  0  0  0  0
 16 18  1  0  0  0  0
 18 19  1  0  0  0  0
 18 32  1  0  0  0  0
 18 33  1  0  0  0  0
 19 34  1  0  0  0  0
 19 35  1  0  0  0  0
M  CHG  1   7   1
M  CHG  1   9  -1
M  END
> <s_m_source_file>
AV-unprocessed.smi

> <i_m_source_file_index>
561

> <i_lp_mmshare_version>
43012

> <i_f3d_flags>
0

> <s_epik_input>
W2NIXTFuW2NIXVtjSF1uMVtDSDJdW0NAQEhdKFtDSDNdKVtOSF1DKD1PKUMyPU5OKFtDSDNdKUMoPU8pW0NIMl1bQ0gyXTI=

> <s_epik_cmdline>
J2VwaWtfcHl0aG9uJywgJy1waCcsICc3LjAnLCAnLXRuJywgJzgnLCAnLW1hJywgJzIwMCcsICctbWV0YWxfYmluZGluZycsICctaW1hZScsICc8aW5maWxlLm1hZT4nLCAnLW9tYWUnLCAnPG91dGZpbGUubWFlPic=

> <r_lp_tautomer_probability>
1

> <r_epik_Ionization_Penalty>
5.37239

> <r_epik_Ionization_Penalty_Charging>
5.18263

> <r_epik_Ionization_Penalty_Neutral>
0.189756

> <r_epik_State_Penalty>
5.53772

> <r_epik_Charging_Adjusted_Penalty>
10.7204

> <i_epik_Tot_Q>
0

> <i_epik_Tot_abs_Q>
2

> <r_epik_Metal_State_Penalty>
1.80836

> <b_epik_Metal_Only>
1

> <s_epik_Chemistry_Notes>
This compound has an imine and may undergo hydrolysis.

> <s_lp_Force_Field>
OPLS_2005

> <r_lp_Energy>
20.2917

> <b_lp_Chiralities_Consistent>
1

> <s_lp_Variant>
AV-unprocessed.smi:561-5

> <Gold.Version>
5.8.1

> <Gold.Id.Protein>
6NUR|6NUR_protein|mol2

> <Gold.PLP.Fitness>
42.0249

> <Gold.PLP.PLP>
-34.0837

> <Gold.PLP.part.hbond>
-1.0000

> <Gold.PLP.part.metal>
0.0000

> <Gold.PLP.part.buried>
-5.4217

> <Gold.PLP.part.nonpolar>
-28.4745

> <Gold.PLP.part.repulsive>
0.3644

> <Gold.PLP.ligand.clash>
0.0000

> <Gold.PLP.ligand.torsion>
1.3285

> <Gold.PLP.Chemscore.Hbond>
2.0000

> <Gold.PLP.Chemscore.CHOScore>
1.5195

> <Gold.PLP.Chemscore.Metal>
0.0000

> <Gold.Chemscore.Hbonds>
donor molecule, donor type, donor heavy atom, donor atom, acceptor molecule, acceptor atom, score
      L1  H     7    36       P1 10186  2.00

> <Gold.PLP.Chemscore.Internal.Correction>
0.0395

> <Gold.Rescore>
     Score         DG    S(hbond)    S(metal)    S(lipo)     H(rot)  DE(clash)    DE(int)     intcor
     11.12     -12.31       0.99        0.00      67.86       1.73       0.14       1.05       ----

> <Gold.Chemscore.Fitness>
11.1210

> <Gold.Chemscore.DG>
-12.3103

> <Gold.Chemscore.ZeroCoef>
-5.4800

> <Gold.Chemscore.Hbond>
0.9937

> <Gold.Chemscore.Metal>
0.0000

> <Gold.Chemscore.Lipo>
67.8633

> <Gold.Chemscore.Internal_Hbond>
0.0000

> <Gold.Chemscore.DEClash>
0.1367

> <Gold.Chemscore.DEInternal>
1.0526

> <Gold.Chemscore.Rot>
1.7299

> <Gold.Chemscore.Internal.Correction>
   9.000000E+99

> <Gold.Chemscore.Hbonds>
donor molecule, donor type, donor heavy atom, donor atom, acceptor molecule, acceptor atom, score
      L1  H     7    36       P1 10186  0.97

> <Gold.Chemscore.Hbond.Weighted>
-3.3190

> <Gold.Chemscore.Metal.Weighted>
-0.0000

> <Gold.Chemscore.Lipo.Weighted>
-7.9400

> <Gold.Chemscore.Internal_Hbond.Weighted>
0.0000

> <Gold.Chemscore.DEClash.Weighted>
0.1367

> <Gold.Chemscore.DEInternal.Weighted>
1.0526

> <Gold.Chemscore.Rot.Weighted>
4.4286

> <Gold.Chemscore.Internal.Correction.Weighted>
   9.000000E+99

> <Gold.Protein.RotatedTorsions>
[ 6907 6896 6895 6894 ] final   95.07 input  -60.11 | X-H torsion
[ 7974 7965 7964 7962 ] final  -52.24 input  175.53 | X-H torsion
[ 8008 7997 7996 7995 ] final  -13.14 input   59.86 | X-H torsion
[ 10167 10162 10161 10158 ] final -155.87 input  -65.29 | X-H torsion
[ 10718 10713 10712 10709 ] final -158.22 input   66.30 | X-H torsion
[ 10763 10752 10751 10750 ] final  -89.10 input  -60.55 | X-H torsion
[ 11005 11000 10999 10996 ] final  -34.59 input  -57.11 | X-H torsion

> <Gold.Protein.ActiveResidues>
 VAL166  LYS551  ARG553  GLY616  TRP617  ASP618  TYR619  PRO620  LYS621  CYS622 
 ASP623  PHE694  ASN695  SER759  ASP760  ASP761  ALA762  ILE779  LEU786  VAL792 
 PHE793  MET794  SER795  GLU796  ALA797  LYS798  CYS799  TRP800  GLU811  SER814 

> <Gold.Protein.RotatedAtoms>
  152.5446  134.1097  159.8352 H   0  0  0  0  0  0  0  0  0  0  0  0  # atno 6907 bound_to 6896
  151.1165  133.5128  159.2611 H   0  0  0  0  0  0  0  0  0  0  0  0  # atno 6908 bound_to 6896
  151.1826  135.0377  159.8853 H   0  0  0  0  0  0  0  0  0  0  0  0  # atno 6909 bound_to 6896
  145.9102  140.7922  142.9699 H   0  0  0  0  0  0  0  0  0  0  0  0  # atno 7974 bound_to 7965
  154.5318  140.2257  155.8792 H   0  0  0  0  0  0  0  0  0  0  0  0  # atno 8008 bound_to 7997
  156.1771  140.3109  155.9043 H   0  0  0  0  0  0  0  0  0  0  0  0  # atno 8009 bound_to 7997
  155.3436  140.0452  157.3036 H   0  0  0  0  0  0  0  0  0  0  0  0  # atno 8010 bound_to 7997
  139.6896  143.9442  152.2378 H   0  0  0  0  0  0  0  0  0  0  0  0  # atno 10167 bound_to 10162
  156.5512  130.8606  151.2780 H   0  0  0  0  0  0  0  0  0  0  0  0  # atno 10718 bound_to 10713
  154.6516  135.5353  153.7909 H   0  0  0  0  0  0  0  0  0  0  0  0  # atno 10763 bound_to 10752
  153.0390  135.6484  154.1007 H   0  0  0  0  0  0  0  0  0  0  0  0  # atno 10764 bound_to 10752
  154.0924  135.2939  155.3248 H   0  0  0  0  0  0  0  0  0  0  0  0  # atno 10765 bound_to 10752
  140.9728  133.7100  156.1552 H   0  0  0  0  0  0  0  0  0  0  0  0  # atno 11005 bound_to 11000
  144.6742  140.1813  143.7405 LP  0  0  0  0  0  0  0  0  0  0  0  0  # atno 17320 bound_to 7965
  145.8682  139.2258  143.1677 LP  0  0  0  0  0  0  0  0  0  0  0  0  # atno 17321 bound_to 7965
  139.9255  144.6773  150.8417 LP  0  0  0  0  0  0  0  0  0  0  0  0  # atno 17342 bound_to 10162
  140.7678  143.3345  151.2339 LP  0  0  0  0  0  0  0  0  0  0  0  0  # atno 17343 bound_to 10162
  157.7387  130.9818  150.2269 LP  0  0  0  0  0  0  0  0  0  0  0  0  # atno 17370 bound_to 10713
  156.2883  130.3742  149.7866 LP  0  0  0  0  0  0  0  0  0  0  0  0  # atno 17371 bound_to 10713
  140.7303  134.4261  157.5566 LP  0  0  0  0  0  0  0  0  0  0  0  0  # atno 17394 bound_to 11000
  139.8919  134.8769  156.2298 LP  0  0  0  0  0  0  0  0  0  0  0  0  # atno 17395 bound_to 11000

$$$$
