AV-unprocessed.smi:1958|AV-procd|sdf|7910|dock6
  -GOLD-   2272010 73D 1   1.00000     0.00000
 Structure written by MMmdl.
 47 48  0  0  0  0  0  0  0  0  3 V2000
  153.5003  141.7211  160.0472 C   0  0  0  0  0  0  0  0  0  0  0  0
  152.4136  142.5421  160.4373 O   0  0  0  0  0  0  0  0  0  0  0  0
  152.5605  143.8824  159.9992 C   0  0  0  0  0  0  0  0  0  0  0  0
  152.1759  143.9616  158.5144 C   0  0  0  0  0  0  0  0  0  0  0  0
  150.9968  143.1433  158.2143 N   0  0  0  0  0  0  0  0  0  0  0  0
  151.2072  142.1896  157.2333 N   0  0  0  0  0  0  0  0  0  0  0  0
  150.2413  141.4153  156.8553 C   0  0  0  0  0  0  0  0  0  0  0  0
  150.4374  140.4023  155.7717 C   0  0  0  0  0  0  0  0  0  0  0  0
  151.6090  140.1648  155.4516 O   0  0  0  0  0  0  0  0  0  0  0  0
  149.3250  139.8100  155.2415 N   0  5  0  0  0  0  0  0  0  0  0  0
  149.3234  138.6974  154.2873 C   0  0  0  0  0  0  0  0  0  0  0  0
  150.2271  137.5392  154.7896 C   0  0  2  0  0  0  0  0  0  0  0  0
  151.6775  137.5840  154.2479 C   0  0  0  0  0  0  0  0  0  0  0  0
  149.5481  136.2137  154.6219 N   0  3  0  0  0  0  0  0  0  0  0  0
  150.3210  135.0077  155.0284 C   0  0  0  0  0  0  0  0  0  0  0  0
  149.5677  133.7378  154.6072 C   0  0  0  0  0  0  0  0  0  0  0  0
  148.2788  133.7348  155.2095 O   0  0  0  0  0  0  0  0  0  0  0  0
  147.4910  134.8430  154.7909 C   0  0  0  0  0  0  0  0  0  0  0  0
  148.1796  136.1596  155.1913 C   0  0  0  0  0  0  0  0  0  0  0  0
  148.9238  141.5255  157.4654 C   0  0  0  0  0  0  0  0  0  0  0  0
  148.7368  142.4538  158.4288 C   0  0  0  0  0  0  0  0  0  0  0  0
  149.8125  143.3439  158.8662 C   0  0  0  0  0  0  0  0  0  0  0  0
  149.6656  144.1977  159.7406 O   0  0  0  0  0  0  0  0  0  0  0  0
  153.3420  140.7061  160.4113 H   0  0  0  0  0  0  0  0  0  0  0  0
  154.4399  142.0860  160.4634 H   0  0  0  0  0  0  0  0  0  0  0  0
  153.5915  141.6781  158.9611 H   0  0  0  0  0  0  0  0  0  0  0  0
  151.9201  144.5402  160.5889 H   0  0  0  0  0  0  0  0  0  0  0  0
  153.5916  144.2087  160.1441 H   0  0  0  0  0  0  0  0  0  0  0  0
  151.9975  144.9999  158.2296 H   0  0  0  0  0  0  0  0  0  0  0  0
  153.0206  143.6351  157.9047 H   0  0  0  0  0  0  0  0  0  0  0  0
  148.3148  138.3172  154.1261 H   0  0  0  0  0  0  0  0  0  0  0  0
  149.6747  138.9975  153.2989 H   0  0  0  0  0  0  0  0  0  0  0  0
  150.3225  137.7168  155.8617 H   0  0  0  0  0  0  0  0  0  0  0  0
  152.1755  138.5199  154.5073 H   0  0  0  0  0  0  0  0  0  0  0  0
  151.7288  137.4811  153.1626 H   0  0  0  0  0  0  0  0  0  0  0  0
  152.2770  136.7841  154.6835 H   0  0  0  0  0  0  0  0  0  0  0  0
  151.3084  135.0075  154.5672 H   0  0  0  0  0  0  0  0  0  0  0  0
  150.4693  134.9987  156.1088 H   0  0  0  0  0  0  0  0  0  0  0  0
  149.4804  133.6780  153.5211 H   0  0  0  0  0  0  0  0  0  0  0  0
  150.1130  132.8521  154.9331 H   0  0  0  0  0  0  0  0  0  0  0  0
  147.3325  134.8016  153.7121 H   0  0  0  0  0  0  0  0  0  0  0  0
  146.5091  134.7752  155.2593 H   0  0  0  0  0  0  0  0  0  0  0  0
  148.2315  136.2474  156.2777 H   0  0  0  0  0  0  0  0  0  0  0  0
  147.5877  136.9995  154.8258 H   0  0  0  0  0  0  0  0  0  0  0  0
  148.1085  140.8816  157.1697 H   0  0  0  0  0  0  0  0  0  0  0  0
  147.7648  142.5424  158.8917 H   0  0  0  0  0  0  0  0  0  0  0  0
  149.4252  136.1310  153.6222 H   0  0  0  0  0  0  0  0  0  0  0  0
  1  2  1  0  0  0  0
  1 24  1  0  0  0  0
  1 25  1  0  0  0  0
  1 26  1  0  0  0  0
  2  3  1  0  0  0  0
  3  4  1  0  0  0  0
  3 27  1  0  0  0  0
  3 28  1  0  0  0  0
  4  5  1  0  0  0  0
  4 29  1  0  0  0  0
  4 30  1  0  0  0  0
  5 22  1  0  0  0  0
  5  6  1  0  0  0  0
  6  7  2  0  0  0  0
  7  8  1  0  0  0  0
  7 20  1  0  0  0  0
  8  9  2  0  0  0  0
  8 10  1  0  0  0  0
 10 11  1  0  0  0  0
 11 12  1  0  0  0  0
 11 31  1  0  0  0  0
 11 32  1  0  0  0  0
 12 13  1  0  0  0  0
 12 14  1  0  0  0  0
 12 33  1  0  0  0  0
 13 34  1  0  0  0  0
 13 35  1  0  0  0  0
 13 36  1  0  0  0  0
 14 19  1  0  0  0  0
 14 15  1  0  0  0  0
 14 47  1  0  0  0  0
 15 16  1  0  0  0  0
 15 37  1  0  0  0  0
 15 38  1  0  0  0  0
 16 17  1  0  0  0  0
 16 39  1  0  0  0  0
 16 40  1  0  0  0  0
 17 18  1  0  0  0  0
 18 19  1  0  0  0  0
 18 41  1  0  0  0  0
 18 42  1  0  0  0  0
 19 43  1  0  0  0  0
 19 44  1  0  0  0  0
 20 21  2  0  0  0  0
 20 45  1  0  0  0  0
 21 22  1  0  0  0  0
 21 46  1  0  0  0  0
 22 23  2  0  0  0  0
M  CHG  1  10  -1
M  CHG  1  14   1
M  END
> <s_m_source_file>
AV-unprocessed.smi

> <i_m_source_file_index>
1958

> <i_lp_mmshare_version>
43012

> <i_f3d_flags>
0

> <s_epik_input>
W0NIM11PW0NIMl1bQ0gyXW4xbmMoW2NIXVtjSF1jMT1PKUMoPU8pW05IXVtDSDJdW0NASF0oW0NIM10pTjJbQ0gyXVtDSDJdT1tDSDJdW0NIMl0y

> <s_epik_cmdline>
J2VwaWtfcHl0aG9uJywgJy1waCcsICc3LjAnLCAnLXRuJywgJzgnLCAnLW1hJywgJzIwMCcsICctbWV0YWxfYmluZGluZycsICctaW1hZScsICc8aW5maWxlLm1hZT4nLCAnLW9tYWUnLCAnPG91dGZpbGUubWFlPic=

> <r_lp_tautomer_probability>
1

> <r_epik_Ionization_Penalty>
6.89388

> <r_epik_Ionization_Penalty_Charging>
6.89388

> <r_epik_Ionization_Penalty_Neutral>
1.08445e-11

> <r_epik_State_Penalty>
7.53214

> <r_epik_Charging_Adjusted_Penalty>
14.426

> <i_epik_Tot_Q>
0

> <i_epik_Tot_abs_Q>
2

> <r_epik_Metal_State_Penalty>
3.44743

> <b_epik_Metal_Only>
1

> <s_lp_Force_Field>
OPLS_2005

> <r_lp_Energy>
42.3217

> <b_lp_Chiralities_Consistent>
1

> <s_lp_Variant>
AV-unprocessed.smi:1958-5

> <Gold.Version>
5.8.1

> <Gold.Id.Protein>
6NUR|6NUR_protein|mol2

> <Gold.PLP.Fitness>
46.8463

> <Gold.PLP.PLP>
-39.8412

> <Gold.PLP.part.hbond>
-2.0000

> <Gold.PLP.part.metal>
0.0000

> <Gold.PLP.part.buried>
-5.2368

> <Gold.PLP.part.nonpolar>
-33.0426

> <Gold.PLP.part.repulsive>
0.4395

> <Gold.PLP.ligand.clash>
0.0000

> <Gold.PLP.ligand.torsion>
0.9149

> <Gold.PLP.Chemscore.Hbond>
2.8640

> <Gold.PLP.Chemscore.CHOScore>
0.0000

> <Gold.PLP.Chemscore.Metal>
0.0000

> <Gold.Chemscore.Hbonds>
donor molecule, donor type, donor heavy atom, donor atom, acceptor molecule, acceptor atom, score
      L1  H    14    47       P1  7948  2.00
      P1  H  7989  7998       L1     9  0.84

> <Gold.PLP.Chemscore.Internal.Correction>
0.2429

> <Gold.Rescore>
     Score         DG    S(hbond)    S(metal)    S(lipo)     H(rot)  DE(clash)    DE(int)     intcor
     12.92     -15.96       1.78        0.00      83.83       2.07       0.01       3.03       ----

> <Gold.Chemscore.Fitness>
12.9173

> <Gold.Chemscore.DG>
-15.9572

> <Gold.Chemscore.ZeroCoef>
-5.4800

> <Gold.Chemscore.Hbond>
1.7849

> <Gold.Chemscore.Metal>
0.0000

> <Gold.Chemscore.Lipo>
83.8298

> <Gold.Chemscore.Internal_Hbond>
0.0000

> <Gold.Chemscore.DEClash>
0.0147

> <Gold.Chemscore.DEInternal>
3.0251

> <Gold.Chemscore.Rot>
2.0673

> <Gold.Chemscore.Internal.Correction>
   9.000000E+99

> <Gold.Chemscore.Hbonds>
donor molecule, donor type, donor heavy atom, donor atom, acceptor molecule, acceptor atom, score
      L1  H    14    47       P1  7948  0.65
      P1  H  7989  7998       L1     9  0.27

> <Gold.Chemscore.Hbond.Weighted>
-5.9614

> <Gold.Chemscore.Metal.Weighted>
-0.0000

> <Gold.Chemscore.Lipo.Weighted>
-9.8081

> <Gold.Chemscore.Internal_Hbond.Weighted>
0.0000

> <Gold.Chemscore.DEClash.Weighted>
0.0147

> <Gold.Chemscore.DEInternal.Weighted>
3.0251

> <Gold.Chemscore.Rot.Weighted>
5.2923

> <Gold.Chemscore.Internal.Correction.Weighted>
   9.000000E+99

> <Gold.Protein.RotatedTorsions>
[ 6907 6896 6895 6894 ] final   96.43 input  -60.11 | X-H torsion
[ 7974 7965 7964 7962 ] final  -12.82 input  175.53 | X-H torsion
[ 8008 7997 7996 7995 ] final  138.04 input   59.86 | X-H torsion
[ 10167 10162 10161 10158 ] final  110.24 input  -65.29 | X-H torsion
[ 10718 10713 10712 10709 ] final  158.38 input   66.30 | X-H torsion
[ 10763 10752 10751 10750 ] final -106.02 input  -60.55 | X-H torsion
[ 11005 11000 10999 10996 ] final  168.35 input  -57.11 | X-H torsion

> <Gold.Protein.ActiveResidues>
 VAL166  LYS551  ARG553  GLY616  TRP617  ASP618  TYR619  PRO620  LYS621  CYS622 
 ASP623  PHE694  ASN695  SER759  ASP760  ASP761  ALA762  ILE779  LEU786  VAL792 
 PHE793  MET794  SER795  GLU796  ALA797  LYS798  CYS799  TRP800  GLU811  SER814 

> <Gold.Protein.RotatedAtoms>
  152.5435  134.0888  159.8267 H   0  0  0  0  0  0  0  0  0  0  0  0  # atno 6907 bound_to 6896
  151.0980  133.5258  159.2619 H   0  0  0  0  0  0  0  0  0  0  0  0  # atno 6908 bound_to 6896
  151.2024  135.0457  159.8932 H   0  0  0  0  0  0  0  0  0  0  0  0  # atno 6909 bound_to 6896
  146.2138  140.3113  142.8383 H   0  0  0  0  0  0  0  0  0  0  0  0  # atno 7974 bound_to 7965
  156.2999  140.2404  156.4008 H   0  0  0  0  0  0  0  0  0  0  0  0  # atno 8008 bound_to 7997
  154.8529  140.0423  157.1635 H   0  0  0  0  0  0  0  0  0  0  0  0  # atno 8009 bound_to 7997
  154.8979  140.2972  155.5337 H   0  0  0  0  0  0  0  0  0  0  0  0  # atno 8010 bound_to 7997
  139.6704  144.7125  151.1699 H   0  0  0  0  0  0  0  0  0  0  0  0  # atno 10167 bound_to 10162
  157.1787  131.0627  151.2143 H   0  0  0  0  0  0  0  0  0  0  0  0  # atno 10718 bound_to 10713
  154.7985  135.4727  154.0218 H   0  0  0  0  0  0  0  0  0  0  0  0  # atno 10763 bound_to 10752
  153.1742  135.6830  153.8573 H   0  0  0  0  0  0  0  0  0  0  0  0  # atno 10764 bound_to 10752
  153.8145  135.3212  155.3382 H   0  0  0  0  0  0  0  0  0  0  0  0  # atno 10765 bound_to 10752
  140.2863  134.7709  157.3801 H   0  0  0  0  0  0  0  0  0  0  0  0  # atno 11005 bound_to 11000
  144.8986  140.7614  143.5881 LP  0  0  0  0  0  0  0  0  0  0  0  0  # atno 17320 bound_to 7965
  145.3038  139.1841  143.4675 LP  0  0  0  0  0  0  0  0  0  0  0  0  # atno 17321 bound_to 7965
  140.7616  143.5854  150.8852 LP  0  0  0  0  0  0  0  0  0  0  0  0  # atno 17342 bound_to 10162
  139.9518  143.6263  152.3027 LP  0  0  0  0  0  0  0  0  0  0  0  0  # atno 17343 bound_to 10162
  157.3973  130.7314  149.6741 LP  0  0  0  0  0  0  0  0  0  0  0  0  # atno 17370 bound_to 10713
  155.9727  130.4130  150.4061 LP  0  0  0  0  0  0  0  0  0  0  0  0  # atno 17371 bound_to 10713
  140.1236  134.5187  155.8163 LP  0  0  0  0  0  0  0  0  0  0  0  0  # atno 17394 bound_to 11000
  141.2154  133.6765  156.6911 LP  0  0  0  0  0  0  0  0  0  0  0  0  # atno 17395 bound_to 11000

$$$$
