AV-unprocessed.smi:72|AV-procd|sdf|677|dock2
  -GOLD-   2262016583D 1   1.00000     0.00000
 Structure written by MMmdl.
 29 30  0  0  0  0  0  0  0  0  1 V2000
  149.3610  142.5417  153.8081 N   0  0  0  0  0  0  0  0  0  0  0  0
  150.0457  141.8573  154.6536 C   0  0  0  0  0  0  0  0  0  0  0  0
  150.6285  140.6063  154.4012 N   0  0  0  0  0  0  0  0  0  0  0  0
  151.2973  140.0267  155.3501 C   0  0  0  0  0  0  0  0  0  0  0  0
  151.4622  140.6326  156.6643 N   0  0  0  0  0  0  0  0  0  0  0  0
  152.2478  139.9619  157.7776 C   0  0  2  0  0  0  0  0  0  0  0  0
  153.2098  139.1028  157.2337 O   0  0  0  0  0  0  0  0  0  0  0  0
  152.8417  137.7444  157.4595 C   0  0  1  0  0  0  0  0  0  0  0  0
  154.0942  136.8557  157.4324 C   0  0  0  0  0  0  0  0  0  0  0  0
  153.7369  135.5265  157.1191 O   0  0  0  0  0  0  0  0  0  0  0  0
  152.1771  137.8301  158.8326 C   0  0  2  0  0  0  0  0  0  0  0  0
  151.3945  136.6928  159.1450 O   0  0  0  0  0  0  0  0  0  0  0  0
  151.3669  139.1193  158.7315 C   0  0  2  0  0  0  0  0  0  0  0  0
  150.0536  138.8893  158.2428 O   0  0  0  0  0  0  0  0  0  0  0  0
  150.8738  141.8916  156.9360 C   0  0  0  0  0  0  0  0  0  0  0  0
  150.9685  142.4386  158.0345 O   0  0  0  0  0  0  0  0  0  0  0  0
  150.1910  142.4516  155.9143 N   0  0  0  0  0  0  0  0  0  0  0  0
  152.7811  140.7675  158.2854 H   0  0  0  0  0  0  0  0  0  0  0  0
  152.1098  137.4214  156.7166 H   0  0  0  0  0  0  0  0  0  0  0  0
  152.9437  137.9517  159.5998 H   0  0  0  0  0  0  0  0  0  0  0  0
  151.2920  139.6197  159.6975 H   0  0  0  0  0  0  0  0  0  0  0  0
  149.0460  143.4063  154.2229 H   0  0  0  0  0  0  0  0  0  0  0  0
  151.7720  139.0547  155.2179 H   0  0  0  0  0  0  0  0  0  0  0  0
  154.8316  137.2296  156.7215 H   0  0  0  0  0  0  0  0  0  0  0  0
  154.5677  136.8433  158.4146 H   0  0  0  0  0  0  0  0  0  0  0  0
  154.3406  134.9430  157.5530 H   0  0  0  0  0  0  0  0  0  0  0  0
  150.5042  136.8584  158.8746 H   0  0  0  0  0  0  0  0  0  0  0  0
  149.8366  137.9805  158.3839 H   0  0  0  0  0  0  0  0  0  0  0  0
  149.7604  143.3494  156.0794 H   0  0  0  0  0  0  0  0  0  0  0  0
  1  2  2  0  0  0  0
  1 22  1  0  0  0  0
  2 17  1  0  0  0  0
  2  3  1  0  0  0  0
  3  4  2  0  0  0  0
  4  5  1  0  0  0  0
  4 23  1  0  0  0  0
  5  6  1  0  0  0  0
  5 15  1  0  0  0  0
  6 18  1  0  0  0  0
  6 13  1  0  0  0  0
  6  7  1  0  0  0  0
  7  8  1  0  0  0  0
  8 19  1  0  0  0  0
  8  9  1  0  0  0  0
  8 11  1  0  0  0  0
  9 10  1  0  0  0  0
  9 24  1  0  0  0  0
  9 25  1  0  0  0  0
 10 26  1  0  0  0  0
 11 20  1  0  0  0  0
 11 12  1  0  0  0  0
 11 13  1  0  0  0  0
 12 27  1  0  0  0  0
 13 21  1  0  0  0  0
 13 14  1  0  0  0  0
 14 28  1  0  0  0  0
 15 16  2  0  0  0  0
 15 17  1  0  0  0  0
 17 29  1  0  0  0  0
M  END
> <s_m_source_file>
AV-unprocessed.smi

> <i_m_source_file_index>
72

> <i_lp_mmshare_version>
43012

> <i_f3d_flags>
0

> <s_epik_input>
W05IMl1jMW5bY0hdbihjKD1PKW4xKVtDQEBIXTJPW0NASF0oW0NIMl1bT0hdKVtDQEBIXShbT0hdKVtDQEhdMltPSF0=

> <s_epik_cmdline>
J2VwaWtfcHl0aG9uJywgJy1waCcsICc3LjAnLCAnLXRuJywgJzgnLCAnLW1hJywgJzIwMCcsICctbWV0YWxfYmluZGluZycsICctaW1hZScsICc8aW5maWxlLm1hZT4nLCAnLW9tYWUnLCAnPG91dGZpbGUubWFlPic=

> <r_lp_tautomer_probability>
7.17554e-07

> <r_epik_Ionization_Penalty>
0.0066451

> <r_epik_Ionization_Penalty_Charging>
0.00663793

> <r_epik_Ionization_Penalty_Neutral>
7.17052e-06

> <r_epik_State_Penalty>
0.419231

> <r_epik_Charging_Adjusted_Penalty>
0.425868

> <i_epik_Tot_Q>
0

> <i_epik_Tot_abs_Q>
0

> <r_epik_Metal_State_Penalty>
1.44144

> <b_epik_Metal_Only>
0

> <s_epik_Chemistry_Notes>
This compound contains an acetal/aminal-like group ( X-CH(R)-Y where X, Y are N, S, or O) that may be acid/base labile, releasing an aldehyde.

> <s_lp_Force_Field>
OPLS_2005

> <r_lp_Energy>
48.3326

> <b_lp_Chiralities_Consistent>
1

> <s_lp_Variant>
AV-unprocessed.smi:72-15

> <Gold.Version>
5.8.1

> <Gold.Id.Protein>
6NUR|6NUR_protein|mol2

> <Gold.PLP.Fitness>
40.1730

> <Gold.PLP.PLP>
-24.2829

> <Gold.PLP.part.hbond>
-7.0000

> <Gold.PLP.part.metal>
0.0000

> <Gold.PLP.part.buried>
-4.0111

> <Gold.PLP.part.nonpolar>
-13.6132

> <Gold.PLP.part.repulsive>
0.2723

> <Gold.PLP.ligand.clash>
0.0000

> <Gold.PLP.ligand.torsion>
1.0317

> <Gold.PLP.Chemscore.Hbond>
5.9584

> <Gold.PLP.Chemscore.CHOScore>
0.0000

> <Gold.PLP.Chemscore.Metal>
0.0000

> <Gold.Chemscore.Hbonds>
donor molecule, donor type, donor heavy atom, donor atom, acceptor molecule, acceptor atom, score
      L1  H     1    22       P1  8028  1.00
      L1  H    17    29       P1  8028  1.00
      P1  H  6896  6907       L1    12  0.88
      P1  H  7989  7998       L1     3  0.58
      P1  H  7997  8008       L1     7  1.00
      P1  H  8011  8017       L1     1  0.06
      P1  H 10752 10763       L1    10  1.00

> <Gold.PLP.Chemscore.Internal.Correction>
0.0783

> <Gold.Rescore>
     Score         DG    S(hbond)    S(metal)    S(lipo)     H(rot)  DE(clash)    DE(int)     intcor
     12.15     -13.25       4.86        0.00      16.58       4.06       0.04       1.06       ----

> <Gold.Chemscore.Fitness>
12.1502

> <Gold.Chemscore.DG>
-13.2467

> <Gold.Chemscore.ZeroCoef>
-5.4800

> <Gold.Chemscore.Hbond>
4.8564

> <Gold.Chemscore.Metal>
0.0000

> <Gold.Chemscore.Lipo>
16.5813

> <Gold.Chemscore.Internal_Hbond>
0.0000

> <Gold.Chemscore.DEClash>
0.0354

> <Gold.Chemscore.DEInternal>
1.0611

> <Gold.Chemscore.Rot>
4.0600

> <Gold.Chemscore.Internal.Correction>
   9.000000E+99

> <Gold.Chemscore.Hbonds>
donor molecule, donor type, donor heavy atom, donor atom, acceptor molecule, acceptor atom, score
      L1  H     1    22       P1  8028  0.98
      L1  H    17    29       P1  8028  0.98
      P1  H  6896  6907       L1    12  0.80
      P1  H  7989  7998       L1     3  0.09
      P1  H  7997  8008       L1     7  0.55
      P1  H  8011  8017       L1     1  0.09
      P1  H 10752 10763       L1    10  0.52

> <Gold.Chemscore.Hbond.Weighted>
-16.2203

> <Gold.Chemscore.Metal.Weighted>
-0.0000

> <Gold.Chemscore.Lipo.Weighted>
-1.9400

> <Gold.Chemscore.Internal_Hbond.Weighted>
0.0000

> <Gold.Chemscore.DEClash.Weighted>
0.0354

> <Gold.Chemscore.DEInternal.Weighted>
1.0611

> <Gold.Chemscore.Rot.Weighted>
10.3936

> <Gold.Chemscore.Internal.Correction.Weighted>
   9.000000E+99

> <Gold.Protein.RotatedTorsions>
[ 6907 6896 6895 6894 ] final    7.15 input  -60.11 | X-H torsion
[ 7974 7965 7964 7962 ] final   79.81 input  175.53 | X-H torsion
[ 8008 7997 7996 7995 ] final  -61.60 input   59.86 | X-H torsion
[ 10167 10162 10161 10158 ] final  -90.59 input  -65.29 | X-H torsion
[ 10718 10713 10712 10709 ] final   -6.87 input   66.30 | X-H torsion
[ 10763 10752 10751 10750 ] final  135.16 input  -60.55 | X-H torsion
[ 11005 11000 10999 10996 ] final  -31.93 input  -57.11 | X-H torsion

> <Gold.Protein.ActiveResidues>
 VAL166  LYS551  ARG553  GLY616  TRP617  ASP618  TYR619  PRO620  LYS621  CYS622 
 ASP623  PHE694  ASN695  SER759  ASP760  ASP761  ALA762  ILE779  LEU786  VAL792 
 PHE793  MET794  SER795  GLU796  ALA797  LYS798  CYS799  TRP800  GLU811  SER814 

> <Gold.Protein.RotatedAtoms>
  151.6852  135.0955  160.0223 H   0  0  0  0  0  0  0  0  0  0  0  0  # atno 6907 bound_to 6896
  152.3812  133.6544  159.6171 H   0  0  0  0  0  0  0  0  0  0  0  0  # atno 6908 bound_to 6896
  150.7748  133.9028  159.3387 H   0  0  0  0  0  0  0  0  0  0  0  0  # atno 6909 bound_to 6896
  145.6594  139.2467  143.1931 H   0  0  0  0  0  0  0  0  0  0  0  0  # atno 7974 bound_to 7965
  154.4456  140.1014  156.6456 H   0  0  0  0  0  0  0  0  0  0  0  0  # atno 8008 bound_to 7997
  155.5453  140.3484  155.4437 H   0  0  0  0  0  0  0  0  0  0  0  0  # atno 8009 bound_to 7997
  156.0568  140.1317  156.9977 H   0  0  0  0  0  0  0  0  0  0  0  0  # atno 8010 bound_to 7997
  140.3533  143.2879  151.9700 H   0  0  0  0  0  0  0  0  0  0  0  0  # atno 10167 bound_to 10162
  156.7256  130.5164  149.5858 H   0  0  0  0  0  0  0  0  0  0  0  0  # atno 10718 bound_to 10713
  153.8355  135.3098  155.3422 H   0  0  0  0  0  0  0  0  0  0  0  0  # atno 10763 bound_to 10752
  154.7955  135.4758  154.0154 H   0  0  0  0  0  0  0  0  0  0  0  0  # atno 10764 bound_to 10752
  153.1608  135.6860  153.8837 H   0  0  0  0  0  0  0  0  0  0  0  0  # atno 10765 bound_to 10752
  140.9510  133.7221  156.1220 H   0  0  0  0  0  0  0  0  0  0  0  0  # atno 11005 bound_to 11000
  146.1138  140.7395  142.9490 LP  0  0  0  0  0  0  0  0  0  0  0  0  # atno 17320 bound_to 7965
  144.7094  140.3981  143.7092 LP  0  0  0  0  0  0  0  0  0  0  0  0  # atno 17321 bound_to 7965
  139.4823  144.6057  151.7526 LP  0  0  0  0  0  0  0  0  0  0  0  0  # atno 17342 bound_to 10162
  140.5198  144.0897  150.6019 LP  0  0  0  0  0  0  0  0  0  0  0  0  # atno 17343 bound_to 10162
  156.1564  130.6345  151.0663 LP  0  0  0  0  0  0  0  0  0  0  0  0  # atno 17370 bound_to 10713
  157.6880  131.0819  150.7188 LP  0  0  0  0  0  0  0  0  0  0  0  0  # atno 17371 bound_to 10713
  140.7603  134.3947  157.5527 LP  0  0  0  0  0  0  0  0  0  0  0  0  # atno 17394 bound_to 11000
  139.8847  134.8957  156.2685 LP  0  0  0  0  0  0  0  0  0  0  0  0  # atno 17395 bound_to 11000

$$$$
