AV-unprocessed.smi:1919|AV-procd|sdf|7775|dock3
  -GOLD-   22720 9523D 1   1.00000     0.00000
 Structure written by MMmdl.
 37 39  0  0  0  0  0  0  0  0  2 V2000
  151.5742  136.6450  153.9988 O   0  0  0  0  0  0  0  0  0  0  0  0
  151.8331  137.9310  154.5176 C   0  0  0  0  0  0  0  0  0  0  0  0
  150.6481  138.8326  154.4078 C   0  0  0  0  0  0  0  0  0  0  0  0
  149.5544  138.6111  153.6265 N   0  3  0  0  0  0  0  0  0  0  0  0
  148.6611  139.6750  153.7497 C   0  0  0  0  0  0  0  0  0  0  0  0
  147.4271  139.9000  153.1477 C   0  0  0  0  0  0  0  0  0  0  0  0
  146.7696  141.1018  153.4821 C   0  0  0  0  0  0  0  0  0  0  0  0
  147.3399  142.0234  154.3837 C   0  0  0  0  0  0  0  0  0  0  0  0
  148.5894  141.7816  154.9911 C   0  0  0  0  0  0  0  0  0  0  0  0
  149.2352  140.5913  154.6549 C   0  0  0  0  0  0  0  0  0  0  0  0
  150.4615  140.0302  155.0355 N   0  0  0  0  0  0  0  0  0  0  0  0
  151.3361  140.7547  155.9735 C   0  0  0  0  0  0  0  0  0  0  0  0
  151.0256  140.4234  157.4471 C   0  0  2  0  0  0  0  0  0  0  0  0
  149.6263  140.4938  157.6282 O   0  0  0  0  0  0  0  0  0  0  0  0
  151.7837  141.3204  158.4164 C   0  0  0  0  0  0  0  0  0  0  0  0
  152.5562  140.7671  159.4621 C   0  0  0  0  0  0  0  0  0  0  0  0
  153.2291  141.6088  160.3689 C   0  0  0  0  0  0  0  0  0  0  0  0
  153.1314  143.0074  160.2383 C   0  0  0  0  0  0  0  0  0  0  0  0
  152.3613  143.5643  159.1996 C   0  0  0  0  0  0  0  0  0  0  0  0
  152.2596  144.9090  159.0779 F   0  0  0  0  0  0  0  0  0  0  0  0
  151.6921  142.7234  158.2898 C   0  0  0  0  0  0  0  0  0  0  0  0
  151.3719  136.7265  153.0789 H   0  0  0  0  0  0  0  0  0  0  0  0
  152.1206  137.8397  155.5654 H   0  0  0  0  0  0  0  0  0  0  0  0
  152.6821  138.3657  153.9909 H   0  0  0  0  0  0  0  0  0  0  0  0
  146.9902  139.1965  152.4541 H   0  0  0  0  0  0  0  0  0  0  0  0
  145.8102  141.3219  153.0368 H   0  0  0  0  0  0  0  0  0  0  0  0
  146.8091  142.9359  154.6137 H   0  0  0  0  0  0  0  0  0  0  0  0
  149.0158  142.5002  155.6747 H   0  0  0  0  0  0  0  0  0  0  0  0
  152.3807  140.5592  155.7319 H   0  0  0  0  0  0  0  0  0  0  0  0
  151.1832  141.8188  155.7913 H   0  0  0  0  0  0  0  0  0  0  0  0
  151.3056  139.3882  157.6451 H   0  0  0  0  0  0  0  0  0  0  0  0
  149.2067  140.1211  156.8677 H   0  0  0  0  0  0  0  0  0  0  0  0
  152.6299  139.6957  159.5780 H   0  0  0  0  0  0  0  0  0  0  0  0
  153.8179  141.1810  161.1669 H   0  0  0  0  0  0  0  0  0  0  0  0
  153.6456  143.6523  160.9356 H   0  0  0  0  0  0  0  0  0  0  0  0
  151.0962  143.1590  157.5008 H   0  0  0  0  0  0  0  0  0  0  0  0
  149.4360  137.7930  153.0427 H   0  0  0  0  0  0  0  0  0  0  0  0
  1  2  1  0  0  0  0
  1 22  1  0  0  0  0
  2  3  1  0  0  0  0
  2 23  1  0  0  0  0
  2 24  1  0  0  0  0
  3 11  1  0  0  0  0
  3  4  2  0  0  0  0
  4  5  1  0  0  0  0
  4 37  1  0  0  0  0
  5 10  2  0  0  0  0
  5  6  1  0  0  0  0
  6  7  2  0  0  0  0
  6 25  1  0  0  0  0
  7  8  1  0  0  0  0
  7 26  1  0  0  0  0
  8  9  2  0  0  0  0
  8 27  1  0  0  0  0
  9 10  1  0  0  0  0
  9 28  1  0  0  0  0
 10 11  1  0  0  0  0
 11 12  1  0  0  0  0
 12 13  1  0  0  0  0
 12 29  1  0  0  0  0
 12 30  1  0  0  0  0
 13 14  1  0  0  0  0
 13 15  1  0  0  0  0
 13 31  1  0  0  0  0
 14 32  1  0  0  0  0
 15 21  1  0  0  0  0
 15 16  2  0  0  0  0
 16 17  1  0  0  0  0
 16 33  1  0  0  0  0
 17 18  2  0  0  0  0
 17 34  1  0  0  0  0
 18 19  1  0  0  0  0
 18 35  1  0  0  0  0
 19 20  1  0  0  0  0
 19 21  2  0  0  0  0
 21 36  1  0  0  0  0
M  CHG  1   4   1
M  END
> <s_m_source_file>
AV-unprocessed.smi

> <i_m_source_file_index>
1919

> <i_lp_mmshare_version>
43012

> <i_f3d_flags>
0

> <s_epik_input>
W2NIXTFbY0hdW2NIXVtjSF1jKGMxMiluKGMobjIpW0NIMl1bT0hdKVtDSDJdW0NASF0oW09IXSljM1tjSF1bY0hdW2NIXWMoRilbY0hdMw==

> <s_epik_cmdline>
J2VwaWtfcHl0aG9uJywgJy1waCcsICc3LjAnLCAnLXRuJywgJzgnLCAnLW1hJywgJzIwMCcsICctbWV0YWxfYmluZGluZycsICctaW1hZScsICc8aW5maWxlLm1hZT4nLCAnLW9tYWUnLCAnPG91dGZpbGUubWFlPic=

> <r_epik_Ionization_Penalty>
1.35643

> <r_epik_Ionization_Penalty_Charging>
1.35557

> <r_epik_Ionization_Penalty_Neutral>
0.000859316

> <r_epik_State_Penalty>
1.43401

> <r_epik_Charging_Adjusted_Penalty>
2.78958

> <i_epik_Tot_Q>
1

> <i_epik_Tot_abs_Q>
1

> <r_epik_Metal_State_Penalty>
5.47166

> <b_epik_Metal_Only>
0

> <s_lp_Force_Field>
OPLS_2005

> <r_lp_Energy>
14.8361

> <b_lp_Chiralities_Consistent>
1

> <s_lp_Variant>
AV-unprocessed.smi:1919-3

> <Gold.Version>
5.8.1

> <Gold.Id.Protein>
6NUR|6NUR_protein|mol2

> <Gold.PLP.Fitness>
63.3649

> <Gold.PLP.PLP>
-52.8222

> <Gold.PLP.part.hbond>
-4.0000

> <Gold.PLP.part.metal>
0.0000

> <Gold.PLP.part.buried>
0.7726

> <Gold.PLP.part.nonpolar>
-50.3985

> <Gold.PLP.part.repulsive>
0.0728

> <Gold.PLP.ligand.clash>
0.0000

> <Gold.PLP.ligand.torsion>
0.7461

> <Gold.PLP.Chemscore.Hbond>
4.0000

> <Gold.PLP.Chemscore.CHOScore>
0.0000

> <Gold.PLP.Chemscore.Metal>
0.0000

> <Gold.Chemscore.Hbonds>
donor molecule, donor type, donor heavy atom, donor atom, acceptor molecule, acceptor atom, score
      L1  H     1    22       P1  7949  0.99
      L1  H     4    37       P1  7948  2.00
      P1  H 10752 10765       L1     1  1.00

> <Gold.PLP.Chemscore.Internal.Correction>
0.0348

> <Gold.Rescore>
     Score         DG    S(hbond)    S(metal)    S(lipo)     H(rot)  DE(clash)    DE(int)     intcor
     19.88     -20.65       2.55        0.00     118.55       2.82       0.26       0.52       ----

> <Gold.Chemscore.Fitness>
19.8756

> <Gold.Chemscore.DG>
-20.6494

> <Gold.Chemscore.ZeroCoef>
-5.4800

> <Gold.Chemscore.Hbond>
2.5517

> <Gold.Chemscore.Metal>
0.0000

> <Gold.Chemscore.Lipo>
118.5528

> <Gold.Chemscore.Internal_Hbond>
0.0000

> <Gold.Chemscore.DEClash>
0.2556

> <Gold.Chemscore.DEInternal>
0.5182

> <Gold.Chemscore.Rot>
2.8219

> <Gold.Chemscore.Internal.Correction>
   9.000000E+99

> <Gold.Chemscore.Hbonds>
donor molecule, donor type, donor heavy atom, donor atom, acceptor molecule, acceptor atom, score
      L1  H     1    22       P1  7949  0.74
      L1  H     4    37       P1  7948  0.88
      P1  H 10752 10765       L1     1  0.42

> <Gold.Chemscore.Hbond.Weighted>
-8.5228

> <Gold.Chemscore.Metal.Weighted>
-0.0000

> <Gold.Chemscore.Lipo.Weighted>
-13.8707

> <Gold.Chemscore.Internal_Hbond.Weighted>
0.0000

> <Gold.Chemscore.DEClash.Weighted>
0.2556

> <Gold.Chemscore.DEInternal.Weighted>
0.5182

> <Gold.Chemscore.Rot.Weighted>
7.2240

> <Gold.Chemscore.Internal.Correction.Weighted>
   9.000000E+99

> <Gold.Protein.RotatedTorsions>
[ 6907 6896 6895 6894 ] final  -79.84 input  -60.11 | X-H torsion
[ 7974 7965 7964 7962 ] final  -46.82 input  175.53 | X-H torsion
[ 8008 7997 7996 7995 ] final -144.46 input   59.86 | X-H torsion
[ 10167 10162 10161 10158 ] final -145.80 input  -65.29 | X-H torsion
[ 10718 10713 10712 10709 ] final -138.48 input   66.30 | X-H torsion
[ 10763 10752 10751 10750 ] final  152.08 input  -60.55 | X-H torsion
[ 11005 11000 10999 10996 ] final  104.40 input  -57.11 | X-H torsion

> <Gold.Protein.ActiveResidues>
 VAL166  LYS551  ARG553  GLY616  TRP617  ASP618  TYR619  PRO620  LYS621  CYS622 
 ASP623  PHE694  ASN695  SER759  ASP760  ASP761  ALA762  ILE779  LEU786  VAL792 
 PHE793  MET794  SER795  GLU796  ALA797  LYS798  CYS799  TRP800  GLU811  SER814 

> <Gold.Protein.RotatedAtoms>
  150.6941  134.4061  159.5140 H   0  0  0  0  0  0  0  0  0  0  0  0  # atno 6907 bound_to 6896
  152.1827  134.8738  160.0534 H   0  0  0  0  0  0  0  0  0  0  0  0  # atno 6908 bound_to 6896
  151.9722  133.3695  159.4112 H   0  0  0  0  0  0  0  0  0  0  0  0  # atno 6909 bound_to 6896
  145.9679  140.7413  142.9425 H   0  0  0  0  0  0  0  0  0  0  0  0  # atno 7974 bound_to 7965
  155.5272  140.0596  157.2895 H   0  0  0  0  0  0  0  0  0  0  0  0  # atno 8008 bound_to 7997
  154.4497  140.1942  156.0503 H   0  0  0  0  0  0  0  0  0  0  0  0  # atno 8009 bound_to 7997
  156.0677  140.3264  155.7542 H   0  0  0  0  0  0  0  0  0  0  0  0  # atno 8010 bound_to 7997
  139.7772  143.8153  152.2633 H   0  0  0  0  0  0  0  0  0  0  0  0  # atno 10167 bound_to 10162
  156.2998  130.7422  151.1471 H   0  0  0  0  0  0  0  0  0  0  0  0  # atno 10718 bound_to 10713
  154.1143  135.2837  155.3223 H   0  0  0  0  0  0  0  0  0  0  0  0  # atno 10763 bound_to 10752
  154.6468  135.5383  153.7857 H   0  0  0  0  0  0  0  0  0  0  0  0  # atno 10764 bound_to 10752
  153.0335  135.6500  154.1300 H   0  0  0  0  0  0  0  0  0  0  0  0  # atno 10765 bound_to 10752
  139.8791  134.9299  156.5356 H   0  0  0  0  0  0  0  0  0  0  0  0  # atno 11005 bound_to 11000
  144.6830  140.2700  143.7307 LP  0  0  0  0  0  0  0  0  0  0  0  0  # atno 17320 bound_to 7965
  145.7947  139.1941  143.2082 LP  0  0  0  0  0  0  0  0  0  0  0  0  # atno 17321 bound_to 7965
  139.8205  144.7298  150.9579 LP  0  0  0  0  0  0  0  0  0  0  0  0  # atno 17342 bound_to 10162
  140.7817  143.4164  151.0911 LP  0  0  0  0  0  0  0  0  0  0  0  0  # atno 17343 bound_to 10162
  157.7365  131.0562  150.5411 LP  0  0  0  0  0  0  0  0  0  0  0  0  # atno 17370 bound_to 10713
  156.5537  130.4238  149.6095 LP  0  0  0  0  0  0  0  0  0  0  0  0  # atno 17371 bound_to 10713
  140.8348  133.8251  155.9018 LP  0  0  0  0  0  0  0  0  0  0  0  0  # atno 17394 bound_to 11000
  140.9294  134.2041  157.4874 LP  0  0  0  0  0  0  0  0  0  0  0  0  # atno 17395 bound_to 11000

$$$$
