AV-unprocessed.smi:1092|AV-procd|sdf|4737|dock2
  -GOLD-   22720 3273D 1   1.00000     0.00000
 Structure written by MMmdl.
 43 45  0  0  0  0  0  0  0  0  1 V2000
  148.6848  141.3714  155.2756 C   0  0  0  0  0  0  0  0  0  0  0  0
  149.2098  139.9702  154.9057 C   0  0  0  0  0  0  0  0  0  0  0  0
  148.7313  138.9343  155.9372 C   0  0  0  0  0  0  0  0  0  0  0  0
  148.6119  139.5893  153.6809 O   0  0  0  0  0  0  0  0  0  0  0  0
  150.7529  139.8793  154.7431 C   0  0  0  0  0  0  0  0  0  0  0  0
  151.5011  140.0679  155.9947 N   0  0  0  0  0  0  0  0  0  0  0  0
  151.2062  141.2380  156.6543 N   0  0  0  0  0  0  0  0  0  0  0  0
  151.7527  141.5386  157.7894 C   0  0  0  0  0  0  0  0  0  0  0  0
  151.3819  142.8470  158.3774 C   0  0  0  0  0  0  0  0  0  0  0  0
  152.3807  143.8313  158.5548 C   0  0  0  0  0  0  0  0  0  0  0  0
  152.0339  145.0755  159.1167 C   0  0  0  0  0  0  0  0  0  0  0  0
  150.7033  145.3304  159.5052 C   0  0  0  0  0  0  0  0  0  0  0  0
  149.7141  144.3408  159.3385 C   0  0  0  0  0  0  0  0  0  0  0  0
  150.0493  143.0931  158.7773 C   0  0  0  0  0  0  0  0  0  0  0  0
  152.7266  140.5363  158.3411 C   0  0  0  0  0  0  0  0  0  0  0  0
  153.3773  140.7023  159.6726 C   0  0  0  0  0  0  0  0  0  0  0  0
  154.5231  139.9371  159.9944 C   0  0  0  0  0  0  0  0  0  0  0  0
  155.1424  140.0741  161.2519 C   0  0  0  0  0  0  0  0  0  0  0  0
  154.6187  140.9696  162.2029 C   0  0  0  0  0  0  0  0  0  0  0  0
  153.4713  141.7251  161.8979 C   0  0  0  0  0  0  0  0  0  0  0  0
  152.8502  141.5893  160.6414 C   0  0  0  0  0  0  0  0  0  0  0  0
  153.0107  139.4632  157.6865 N   0  0  0  0  0  0  0  0  0  0  0  0
  152.4147  139.1650  156.4574 C   0  0  0  0  0  0  0  0  0  0  0  0
  152.6843  138.1394  155.8327 O   0  0  0  0  0  0  0  0  0  0  0  0
  149.1312  141.7265  156.2048 H   0  0  0  0  0  0  0  0  0  0  0  0
  147.6032  141.3644  155.4134 H   0  0  0  0  0  0  0  0  0  0  0  0
  148.9028  142.1054  154.4992 H   0  0  0  0  0  0  0  0  0  0  0  0
  149.1299  139.1546  156.9282 H   0  0  0  0  0  0  0  0  0  0  0  0
  149.0528  137.9268  155.6704 H   0  0  0  0  0  0  0  0  0  0  0  0
  147.6436  138.9225  156.0178 H   0  0  0  0  0  0  0  0  0  0  0  0
  149.1365  139.9281  152.9719 H   0  0  0  0  0  0  0  0  0  0  0  0
  151.0088  138.9130  154.3053 H   0  0  0  0  0  0  0  0  0  0  0  0
  151.0961  140.6053  154.0036 H   0  0  0  0  0  0  0  0  0  0  0  0
  153.4040  143.6507  158.2573 H   0  0  0  0  0  0  0  0  0  0  0  0
  152.7894  145.8357  159.2494 H   0  0  0  0  0  0  0  0  0  0  0  0
  150.4416  146.2856  159.9363 H   0  0  0  0  0  0  0  0  0  0  0  0
  148.6972  144.5380  159.6446 H   0  0  0  0  0  0  0  0  0  0  0  0
  149.2836  142.3389  158.6695 H   0  0  0  0  0  0  0  0  0  0  0  0
  154.9419  139.2455  159.2773 H   0  0  0  0  0  0  0  0  0  0  0  0
  156.0201  139.4900  161.4868 H   0  0  0  0  0  0  0  0  0  0  0  0
  155.0933  141.0728  163.1675 H   0  0  0  0  0  0  0  0  0  0  0  0
  153.0635  142.4066  162.6298 H   0  0  0  0  0  0  0  0  0  0  0  0
  151.9602  142.1658  160.4355 H   0  0  0  0  0  0  0  0  0  0  0  0
  1  2  1  0  0  0  0
  1 25  1  0  0  0  0
  1 26  1  0  0  0  0
  1 27  1  0  0  0  0
  2  3  1  0  0  0  0
  2  4  1  0  0  0  0
  2  5  1  0  0  0  0
  3 28  1  0  0  0  0
  3 29  1  0  0  0  0
  3 30  1  0  0  0  0
  4 31  1  0  0  0  0
  5  6  1  0  0  0  0
  5 32  1  0  0  0  0
  5 33  1  0  0  0  0
  6 23  1  0  0  0  0
  6  7  1  0  0  0  0
  7  8  2  0  0  0  0
  8  9  1  0  0  0  0
  8 15  1  0  0  0  0
  9 14  1  0  0  0  0
  9 10  2  0  0  0  0
 10 11  1  0  0  0  0
 10 34  1  0  0  0  0
 11 12  2  0  0  0  0
 11 35  1  0  0  0  0
 12 13  1  0  0  0  0
 12 36  1  0  0  0  0
 13 14  2  0  0  0  0
 13 37  1  0  0  0  0
 14 38  1  0  0  0  0
 15 16  1  0  0  0  0
 15 22  2  0  0  0  0
 16 21  1  0  0  0  0
 16 17  2  0  0  0  0
 17 18  1  0  0  0  0
 17 39  1  0  0  0  0
 18 19  2  0  0  0  0
 18 40  1  0  0  0  0
 19 20  1  0  0  0  0
 19 41  1  0  0  0  0
 20 21  2  0  0  0  0
 20 42  1  0  0  0  0
 21 43  1  0  0  0  0
 22 23  1  0  0  0  0
 23 24  2  0  0  0  0
M  END
> <s_m_source_file>
AV-unprocessed.smi

> <i_m_source_file_index>
1092

> <i_lp_mmshare_version>
43012

> <i_f3d_flags>
0

> <s_epik_input>
W2NIXTFbY0hdW2NIXVtjSF1bY0hdYzEtYyhubjJbQ0gyXUMoW0NIM10pKFtDSDNdKVtPSF0pYyhuYzI9TyktYzNbY0hdW2NIXVtjSF1bY0hdW2NIXTM=

> <s_epik_cmdline>
J2VwaWtfcHl0aG9uJywgJy1waCcsICc3LjAnLCAnLXRuJywgJzgnLCAnLW1hJywgJzIwMCcsICctbWV0YWxfYmluZGluZycsICctaW1hZScsICc8aW5maWxlLm1hZT4nLCAnLW9tYWUnLCAnPG91dGZpbGUubWFlPic=

> <r_lp_tautomer_probability>
1

> <r_epik_Ionization_Penalty>
4.51197e-08

> <r_epik_Ionization_Penalty_Charging>
4.64162e-09

> <r_epik_Ionization_Penalty_Neutral>
4.04781e-08

> <r_epik_State_Penalty>
-0

> <r_epik_Charging_Adjusted_Penalty>
4.64162e-09

> <i_epik_Tot_Q>
0

> <i_epik_Tot_abs_Q>
0

> <r_epik_Metal_State_Penalty>
-0

> <b_epik_Metal_Only>
0

> <s_lp_Force_Field>
OPLS_2005

> <r_lp_Energy>
39.3317

> <b_lp_Chiralities_Consistent>
1

> <s_lp_Variant>
AV-unprocessed.smi:1092-1

> <Gold.Version>
5.8.1

> <Gold.Id.Protein>
6NUR|6NUR_protein|mol2

> <Gold.PLP.Fitness>
51.1311

> <Gold.PLP.PLP>
-46.8066

> <Gold.PLP.part.hbond>
-2.0000

> <Gold.PLP.part.metal>
0.0000

> <Gold.PLP.part.buried>
-0.1715

> <Gold.PLP.part.nonpolar>
-44.9042

> <Gold.PLP.part.repulsive>
0.0360

> <Gold.PLP.ligand.clash>
0.7592

> <Gold.PLP.ligand.torsion>
1.3928

> <Gold.PLP.Chemscore.Hbond>
1.8500

> <Gold.PLP.Chemscore.CHOScore>
0.0000

> <Gold.PLP.Chemscore.Metal>
0.0000

> <Gold.Chemscore.Hbonds>
donor molecule, donor type, donor heavy atom, donor atom, acceptor molecule, acceptor atom, score
      L1  H     4    31       P1  7957  1.00
      P1  H  7997  8010       L1    22  0.80

> <Gold.PLP.Chemscore.Internal.Correction>
2.3194

> <Gold.Rescore>
     Score         DG    S(hbond)    S(metal)    S(lipo)     H(rot)  DE(clash)    DE(int)     intcor
     18.70     -22.34       1.00        0.00     150.45       1.59       0.90       2.74       ----

> <Gold.Chemscore.Fitness>
18.7036

> <Gold.Chemscore.DG>
-22.3401

> <Gold.Chemscore.ZeroCoef>
-5.4800

> <Gold.Chemscore.Hbond>
0.9978

> <Gold.Chemscore.Metal>
0.0000

> <Gold.Chemscore.Lipo>
150.4490

> <Gold.Chemscore.Internal_Hbond>
0.0000

> <Gold.Chemscore.DEClash>
0.8992

> <Gold.Chemscore.DEInternal>
2.7373

> <Gold.Chemscore.Rot>
1.5918

> <Gold.Chemscore.Internal.Correction>
   9.000000E+99

> <Gold.Chemscore.Hbonds>
donor molecule, donor type, donor heavy atom, donor atom, acceptor molecule, acceptor atom, score
      L1  H     4    31       P1  7957  0.96
      P1  H  7997  8010       L1    22  0.03

> <Gold.Chemscore.Hbond.Weighted>
-3.3325

> <Gold.Chemscore.Metal.Weighted>
-0.0000

> <Gold.Chemscore.Lipo.Weighted>
-17.6025

> <Gold.Chemscore.Internal_Hbond.Weighted>
0.0000

> <Gold.Chemscore.DEClash.Weighted>
0.8992

> <Gold.Chemscore.DEInternal.Weighted>
2.7373

> <Gold.Chemscore.Rot.Weighted>
4.0749

> <Gold.Chemscore.Internal.Correction.Weighted>
   9.000000E+99

> <Gold.Protein.RotatedTorsions>
[ 6907 6896 6895 6894 ] final  -35.77 input  -60.11 | X-H torsion
[ 7974 7965 7964 7962 ] final  170.21 input  175.53 | X-H torsion
[ 8008 7997 7996 7995 ] final   26.47 input   59.86 | X-H torsion
[ 10167 10162 10161 10158 ] final -107.61 input  -65.29 | X-H torsion
[ 10718 10713 10712 10709 ] final    2.34 input   66.30 | X-H torsion
[ 10763 10752 10751 10750 ] final   46.12 input  -60.55 | X-H torsion
[ 11005 11000 10999 10996 ] final  -43.57 input  -57.11 | X-H torsion

> <Gold.Protein.ActiveResidues>
 VAL166  LYS551  ARG553  GLY616  TRP617  ASP618  TYR619  PRO620  LYS621  CYS622 
 ASP623  PHE694  ASN695  SER759  ASP760  ASP761  ALA762  ILE779  LEU786  VAL792 
 PHE793  MET794  SER795  GLU796  ALA797  LYS798  CYS799  TRP800  GLU811  SER814 

> <Gold.Protein.RotatedAtoms>
  151.0356  134.9571  159.8134 H   0  0  0  0  0  0  0  0  0  0  0  0  # atno 6907 bound_to 6896
  152.5354  134.2724  159.8986 H   0  0  0  0  0  0  0  0  0  0  0  0  # atno 6908 bound_to 6896
  151.2734  133.4201  159.2656 H   0  0  0  0  0  0  0  0  0  0  0  0  # atno 6909 bound_to 6896
  144.7331  139.9168  143.6418 H   0  0  0  0  0  0  0  0  0  0  0  0  # atno 7974 bound_to 7965
  155.0277  140.3155  155.4769 H   0  0  0  0  0  0  0  0  0  0  0  0  # atno 8008 bound_to 7997
  156.2880  140.2186  156.5340 H   0  0  0  0  0  0  0  0  0  0  0  0  # atno 8009 bound_to 7997
  154.7397  140.0474  157.0788 H   0  0  0  0  0  0  0  0  0  0  0  0  # atno 8010 bound_to 7997
  140.1751  143.4011  152.1325 H   0  0  0  0  0  0  0  0  0  0  0  0  # atno 10167 bound_to 10162
  156.8616  130.5588  149.5662 H   0  0  0  0  0  0  0  0  0  0  0  0  # atno 10718 bound_to 10713
  152.9815  135.6018  154.3547 H   0  0  0  0  0  0  0  0  0  0  0  0  # atno 10763 bound_to 10752
  154.3234  135.2769  155.2510 H   0  0  0  0  0  0  0  0  0  0  0  0  # atno 10764 bound_to 10752
  154.4666  135.5952  153.6348 H   0  0  0  0  0  0  0  0  0  0  0  0  # atno 10765 bound_to 10752
  141.0392  133.6787  156.2751 H   0  0  0  0  0  0  0  0  0  0  0  0  # atno 11005 bound_to 11000
  146.0959  139.3951  143.0377 LP  0  0  0  0  0  0  0  0  0  0  0  0  # atno 17320 bound_to 7965
  145.7646  140.9921  143.1182 LP  0  0  0  0  0  0  0  0  0  0  0  0  # atno 17321 bound_to 7965
  139.5321  144.7170  151.5021 LP  0  0  0  0  0  0  0  0  0  0  0  0  # atno 17342 bound_to 10162
  140.6556  143.8605  150.6832 LP  0  0  0  0  0  0  0  0  0  0  0  0  # atno 17343 bound_to 10162
  156.0774  130.5793  150.9499 LP  0  0  0  0  0  0  0  0  0  0  0  0  # atno 17370 bound_to 10713
  157.6247  131.0926  150.8556 LP  0  0  0  0  0  0  0  0  0  0  0  0  # atno 17371 bound_to 10713
  140.6265  134.5308  157.5554 LP  0  0  0  0  0  0  0  0  0  0  0  0  # atno 17394 bound_to 11000
  139.9263  134.8049  156.1059 LP  0  0  0  0  0  0  0  0  0  0  0  0  # atno 17395 bound_to 11000

$$$$
