AV-unprocessed.smi:1388|AV-procd|sdf|5643|dock1
  -GOLD-   22720 5263D 1   1.00000     0.00000
 Structure written by MMmdl.
 46 47  0  0  0  0  0  0  0  0  2 V2000
  145.5665  135.4928  151.7906 C   0  0  0  0  0  0  0  0  0  0  0  0
  146.5699  135.7007  152.8238 N   0  0  0  0  0  0  0  0  0  0  0  0
  146.2906  135.8526  154.1257 C   0  0  0  0  0  0  0  0  0  0  0  0
  145.1446  135.8370  154.5763 O   0  0  0  0  0  0  0  0  0  0  0  0
  147.4896  136.0731  155.0540 C   0  0  0  0  0  0  0  0  0  0  0  0
  148.4800  137.0369  154.5082 N   0  3  2  0  0  0  0  0  0  0  0  0
  149.8141  136.8985  155.1458 C   0  0  0  0  0  0  0  0  0  0  0  0
  150.8559  137.8050  154.4648 C   0  0  0  0  0  0  0  0  0  0  0  0
  150.4131  139.2780  154.4376 C   0  0  2  0  0  0  0  0  0  0  0  0
  150.4766  139.8571  155.7792 N   0  0  0  0  0  0  0  0  0  0  0  0
  151.6004  140.0555  156.4840 C   0  0  0  0  0  0  0  0  0  0  0  0
  152.7218  139.7696  156.0641 O   0  0  0  0  0  0  0  0  0  0  0  0
  151.3320  140.6074  157.6807 N   0  0  0  0  0  0  0  0  0  0  0  0
  152.2416  140.9547  158.7191 C   0  0  0  0  0  0  0  0  0  0  0  0
  152.9859  140.0316  159.3784 N   0  0  0  0  0  0  0  0  0  0  0  0
  153.8245  140.4288  160.3571 C   0  0  0  0  0  0  0  0  0  0  0  0
  153.9748  141.7724  160.7404 C   0  0  0  0  0  0  0  0  0  0  0  0
  153.2117  142.7417  160.0673 C   0  0  0  0  0  0  0  0  0  0  0  0
  152.3308  142.3354  159.0425 C   0  0  0  0  0  0  0  0  0  0  0  0
  151.5051  143.3829  158.3132 C   0  0  0  0  0  0  0  0  0  0  0  0
  148.9980  139.3840  153.8354 C   0  0  0  0  0  0  0  0  0  0  0  0
  148.0018  138.4452  154.5383 C   0  0  0  0  0  0  0  0  0  0  0  0
  146.0500  135.3729  150.8213 H   0  0  0  0  0  0  0  0  0  0  0  0
  144.8887  136.3454  151.7302 H   0  0  0  0  0  0  0  0  0  0  0  0
  144.9805  134.5952  151.9917 H   0  0  0  0  0  0  0  0  0  0  0  0
  147.5350  135.7343  152.5275 H   0  0  0  0  0  0  0  0  0  0  0  0
  147.1562  136.3976  156.0411 H   0  0  0  0  0  0  0  0  0  0  0  0
  147.9605  135.0984  155.1872 H   0  0  0  0  0  0  0  0  0  0  0  0
  149.7375  137.1363  156.2080 H   0  0  0  0  0  0  0  0  0  0  0  0
  150.1483  135.8625  155.0778 H   0  0  0  0  0  0  0  0  0  0  0  0
  151.8209  137.7086  154.9642 H   0  0  0  0  0  0  0  0  0  0  0  0
  151.0097  137.4604  153.4412 H   0  0  0  0  0  0  0  0  0  0  0  0
  151.1090  139.8268  153.8003 H   0  0  0  0  0  0  0  0  0  0  0  0
  149.5995  140.1160  156.2064 H   0  0  0  0  0  0  0  0  0  0  0  0
  150.3619  140.8046  157.8760 H   0  0  0  0  0  0  0  0  0  0  0  0
  154.3920  139.6522  160.8482 H   0  0  0  0  0  0  0  0  0  0  0  0
  154.6570  142.0514  161.5295 H   0  0  0  0  0  0  0  0  0  0  0  0
  153.3037  143.7835  160.3372 H   0  0  0  0  0  0  0  0  0  0  0  0
  151.7247  144.3864  158.6786 H   0  0  0  0  0  0  0  0  0  0  0  0
  150.4407  143.1985  158.4589 H   0  0  0  0  0  0  0  0  0  0  0  0
  151.7187  143.3622  157.2445 H   0  0  0  0  0  0  0  0  0  0  0  0
  148.6371  140.4123  153.8777 H   0  0  0  0  0  0  0  0  0  0  0  0
  149.0411  139.1257  152.7765 H   0  0  0  0  0  0  0  0  0  0  0  0
  147.0328  138.5236  154.0447 H   0  0  0  0  0  0  0  0  0  0  0  0
  147.8515  138.7598  155.5721 H   0  0  0  0  0  0  0  0  0  0  0  0
  148.6031  136.7898  153.5362 H   0  0  0  0  0  0  0  0  0  0  0  0
  1  2  1  0  0  0  0
  1 23  1  0  0  0  0
  1 24  1  0  0  0  0
  1 25  1  0  0  0  0
  2  3  1  0  0  0  0
  2 26  1  0  0  0  0
  3  4  2  0  0  0  0
  3  5  1  0  0  0  0
  5  6  1  0  0  0  0
  5 27  1  0  0  0  0
  5 28  1  0  0  0  0
  6 22  1  0  0  0  0
  6  7  1  0  0  0  0
  6 46  1  0  0  0  0
  7  8  1  0  0  0  0
  7 29  1  0  0  0  0
  7 30  1  0  0  0  0
  8  9  1  0  0  0  0
  8 31  1  0  0  0  0
  8 32  1  0  0  0  0
  9 10  1  0  0  0  0
  9 21  1  0  0  0  0
  9 33  1  0  0  0  0
 10 11  1  0  0  0  0
 10 34  1  0  0  0  0
 11 12  2  0  0  0  0
 11 13  1  0  0  0  0
 13 14  1  0  0  0  0
 13 35  1  0  0  0  0
 14 19  1  0  0  0  0
 14 15  2  0  0  0  0
 15 16  1  0  0  0  0
 16 17  2  0  0  0  0
 16 36  1  0  0  0  0
 17 18  1  0  0  0  0
 17 37  1  0  0  0  0
 18 19  2  0  0  0  0
 18 38  1  0  0  0  0
 19 20  1  0  0  0  0
 20 39  1  0  0  0  0
 20 40  1  0  0  0  0
 20 41  1  0  0  0  0
 21 22  1  0  0  0  0
 21 42  1  0  0  0  0
 21 43  1  0  0  0  0
 22 44  1  0  0  0  0
 22 45  1  0  0  0  0
M  CHG  1   6   1
M  END
> <s_m_source_file>
AV-unprocessed.smi

> <i_m_source_file_index>
1388

> <i_lp_mmshare_version>
43012

> <i_f3d_flags>
0

> <s_epik_input>
W0NIM11bTkhdQyg9TylbQ0gyXU4xW0NIMl1bQ0gyXVtDSF0oW0NIMl1bQ0gyXTEpW05IXUMoPU8pW05IXWMybltjSF1bY0hdW2NIXWMyW0NIM10=

> <s_epik_cmdline>
J2VwaWtfcHl0aG9uJywgJy1waCcsICc3LjAnLCAnLXRuJywgJzgnLCAnLW1hJywgJzIwMCcsICctbWV0YWxfYmluZGluZycsICctaW1hZScsICc8aW5maWxlLm1hZT4nLCAnLW9tYWUnLCAnPG91dGZpbGUubWFlPic=

> <r_epik_Ionization_Penalty>
0.83891

> <r_epik_Ionization_Penalty_Charging>
0.838844

> <r_epik_Ionization_Penalty_Neutral>
6.58477e-05

> <r_epik_State_Penalty>
0.8734

> <r_epik_Charging_Adjusted_Penalty>
1.71224

> <i_epik_Tot_Q>
1

> <i_epik_Tot_abs_Q>
1

> <r_epik_Metal_State_Penalty>
0.877924

> <b_epik_Metal_Only>
0

> <s_lp_Force_Field>
OPLS_2005

> <r_lp_Energy>
16.2558

> <b_lp_Chiralities_Consistent>
1

> <s_lp_Variant>
AV-unprocessed.smi:1388-3

> <Gold.Version>
5.8.1

> <Gold.Id.Protein>
6NUR|6NUR_protein|mol2

> <Gold.PLP.Fitness>
45.6446

> <Gold.PLP.PLP>
-35.5925

> <Gold.PLP.part.hbond>
-3.0000

> <Gold.PLP.part.metal>
0.0000

> <Gold.PLP.part.buried>
-1.6356

> <Gold.PLP.part.nonpolar>
-31.3760

> <Gold.PLP.part.repulsive>
0.1671

> <Gold.PLP.ligand.clash>
0.0000

> <Gold.PLP.ligand.torsion>
0.9857

> <Gold.PLP.Chemscore.Hbond>
4.0000

> <Gold.PLP.Chemscore.CHOScore>
0.0000

> <Gold.PLP.Chemscore.Metal>
0.0000

> <Gold.Chemscore.Hbonds>
donor molecule, donor type, donor heavy atom, donor atom, acceptor molecule, acceptor atom, score
      L1  H     2    26       P1  7948  1.00
      L1  H     6    46       P1  7948  2.00
      P1  H  7997  8010       L1    12  1.00

> <Gold.PLP.Chemscore.Internal.Correction>
0.0234

> <Gold.Rescore>
     Score         DG    S(hbond)    S(metal)    S(lipo)     H(rot)  DE(clash)    DE(int)     intcor
     19.37     -21.53       2.99        0.00      88.59       1.69       1.25       0.90       ----

> <Gold.Chemscore.Fitness>
19.3716

> <Gold.Chemscore.DG>
-21.5293

> <Gold.Chemscore.ZeroCoef>
-5.4800

> <Gold.Chemscore.Hbond>
2.9934

> <Gold.Chemscore.Metal>
0.0000

> <Gold.Chemscore.Lipo>
88.5941

> <Gold.Chemscore.Internal_Hbond>
0.0000

> <Gold.Chemscore.DEClash>
1.2545

> <Gold.Chemscore.DEInternal>
0.9031

> <Gold.Chemscore.Rot>
1.6853

> <Gold.Chemscore.Internal.Correction>
   9.000000E+99

> <Gold.Chemscore.Hbonds>
donor molecule, donor type, donor heavy atom, donor atom, acceptor molecule, acceptor atom, score
      L1  H     2    26       P1  7948  0.99
      L1  H     6    46       P1  7948  1.00
      P1  H  7997  8010       L1    12  1.00

> <Gold.Chemscore.Hbond.Weighted>
-9.9980

> <Gold.Chemscore.Metal.Weighted>
-0.0000

> <Gold.Chemscore.Lipo.Weighted>
-10.3655

> <Gold.Chemscore.Internal_Hbond.Weighted>
0.0000

> <Gold.Chemscore.DEClash.Weighted>
1.2545

> <Gold.Chemscore.DEInternal.Weighted>
0.9031

> <Gold.Chemscore.Rot.Weighted>
4.3143

> <Gold.Chemscore.Internal.Correction.Weighted>
   9.000000E+99

> <Gold.Protein.RotatedTorsions>
[ 6907 6896 6895 6894 ] final  -18.41 input  -60.11 | X-H torsion
[ 7974 7965 7964 7962 ] final  -58.24 input  175.53 | X-H torsion
[ 8008 7997 7996 7995 ] final   90.68 input   59.86 | X-H torsion
[ 10167 10162 10161 10158 ] final   -2.35 input  -65.29 | X-H torsion
[ 10718 10713 10712 10709 ] final -153.98 input   66.30 | X-H torsion
[ 10763 10752 10751 10750 ] final -113.79 input  -60.55 | X-H torsion
[ 11005 11000 10999 10996 ] final -140.79 input  -57.11 | X-H torsion

> <Gold.Protein.ActiveResidues>
 VAL166  LYS551  ARG553  GLY616  TRP617  ASP618  TYR619  PRO620  LYS621  CYS622 
 ASP623  PHE694  ASN695  SER759  ASP760  ASP761  ALA762  ILE779  LEU786  VAL792 
 PHE793  MET794  SER795  GLU796  ALA797  LYS798  CYS799  TRP800  GLU811  SER814 

> <Gold.Protein.RotatedAtoms>
  151.2787  135.0707  159.9160 H   0  0  0  0  0  0  0  0  0  0  0  0  # atno 6907 bound_to 6896
  152.5338  134.0054  159.7924 H   0  0  0  0  0  0  0  0  0  0  0  0  # atno 6908 bound_to 6896
  151.0304  133.5745  159.2692 H   0  0  0  0  0  0  0  0  0  0  0  0  # atno 6909 bound_to 6896
  145.8417  140.8413  143.0031 H   0  0  0  0  0  0  0  0  0  0  0  0  # atno 7974 bound_to 7965
  156.0149  140.3346  155.6978 H   0  0  0  0  0  0  0  0  0  0  0  0  # atno 8008 bound_to 7997
  155.6105  140.0665  157.2725 H   0  0  0  0  0  0  0  0  0  0  0  0  # atno 8009 bound_to 7997
  154.4294  140.1794  156.1255 H   0  0  0  0  0  0  0  0  0  0  0  0  # atno 8010 bound_to 7997
  140.6847  143.6667  150.8219 H   0  0  0  0  0  0  0  0  0  0  0  0  # atno 10167 bound_to 10162
  156.4931  130.8356  151.2578 H   0  0  0  0  0  0  0  0  0  0  0  0  # atno 10718 bound_to 10713
  154.8412  135.4441  154.1405 H   0  0  0  0  0  0  0  0  0  0  0  0  # atno 10763 bound_to 10752
  153.2592  135.6934  153.7603 H   0  0  0  0  0  0  0  0  0  0  0  0  # atno 10764 bound_to 10752
  153.6886  135.3391  155.3172 H   0  0  0  0  0  0  0  0  0  0  0  0  # atno 10765 bound_to 10752
  140.8388  134.2427  157.4820 H   0  0  0  0  0  0  0  0  0  0  0  0  # atno 11005 bound_to 11000
  144.6733  140.0822  143.7469 LP  0  0  0  0  0  0  0  0  0  0  0  0  # atno 17320 bound_to 7965
  145.9458  139.2699  143.1242 LP  0  0  0  0  0  0  0  0  0  0  0  0  # atno 17321 bound_to 7965
  140.0373  143.5382  152.2734 LP  0  0  0  0  0  0  0  0  0  0  0  0  # atno 17342 bound_to 10162
  139.6196  144.7626  151.2769 LP  0  0  0  0  0  0  0  0  0  0  0  0  # atno 17343 bound_to 10162
  157.7471  131.0007  150.2935 LP  0  0  0  0  0  0  0  0  0  0  0  0  # atno 17370 bound_to 10713
  156.3407  130.3815  149.7411 LP  0  0  0  0  0  0  0  0  0  0  0  0  # atno 17371 bound_to 10713
  139.8703  134.9625  156.4430 LP  0  0  0  0  0  0  0  0  0  0  0  0  # atno 17394 bound_to 11000
  140.8918  133.7843  155.9580 LP  0  0  0  0  0  0  0  0  0  0  0  0  # atno 17395 bound_to 11000

$$$$
