AV-unprocessed.smi:674|AV-procd|sdf|3302|dock6
  -GOLD-   22720 0263D 1   1.00000     0.00000
 Structure written by MMmdl.
 47 48  0  0  0  0  0  0  0  0  1 V2000
  151.4449  145.2736  159.4344 C   0  0  0  0  0  0  0  0  0  0  0  0
  150.9687  143.8473  159.7325 C   0  0  0  0  0  0  0  0  0  0  0  0
  152.0396  143.0204  160.3866 C   0  0  0  0  0  0  0  0  0  0  0  0
  152.6698  143.2434  161.6449 C   0  0  0  0  0  0  0  0  0  0  0  0
  153.5521  142.2011  161.7307 C   0  0  0  0  0  0  0  0  0  0  0  0
  154.4311  141.9094  162.7261 N   0  0  0  0  0  0  0  0  0  0  0  0
  154.6242  142.5508  163.8917 C   0  0  0  0  0  0  0  0  0  0  0  0
  153.9807  143.5224  164.2887 O   0  0  0  0  0  0  0  0  0  0  0  0
  155.6263  141.9974  164.5881 N   0  0  0  0  0  0  0  0  0  0  0  0
  156.0936  142.4803  165.8836 C   0  0  1  0  0  0  0  0  0  0  0  0
  154.9499  142.7494  166.8598 C   0  0  0  0  0  0  0  0  0  0  0  0
  155.8639  142.1941  167.9690 C   0  0  2  0  0  0  0  0  0  0  0  0
  155.2406  141.4400  169.1506 C   0  0  0  0  0  0  0  0  0  0  0  0
  156.7510  143.2196  168.4367 O   0  0  0  0  0  0  0  0  0  0  0  0
  156.1650  144.3491  169.0723 C   0  0  0  0  0  0  0  0  0  0  0  0
  156.5957  141.3788  166.8532 C   0  0  0  0  0  0  0  0  0  0  0  0
  156.0727  139.9503  166.6092 C   0  0  0  0  0  0  0  0  0  0  0  0
  158.1168  141.2464  166.9889 C   0  0  0  0  0  0  0  0  0  0  0  0
  153.4427  141.4317  160.5922 N   0  0  0  0  0  0  0  0  0  0  0  0
  154.1559  140.2306  160.2028 C   0  0  0  0  0  0  0  0  0  0  0  0
  152.5027  141.9400  159.7671 N   0  0  0  0  0  0  0  0  0  0  0  0
  150.6530  145.8575  158.9652 H   0  0  0  0  0  0  0  0  0  0  0  0
  152.3006  145.2707  158.7587 H   0  0  0  0  0  0  0  0  0  0  0  0
  151.7410  145.7878  160.3492 H   0  0  0  0  0  0  0  0  0  0  0  0
  150.0898  143.8885  160.3765 H   0  0  0  0  0  0  0  0  0  0  0  0
  150.6422  143.3713  158.8071 H   0  0  0  0  0  0  0  0  0  0  0  0
  152.4907  144.0425  162.3481 H   0  0  0  0  0  0  0  0  0  0  0  0
  155.0239  141.1108  162.5550 H   0  0  0  0  0  0  0  0  0  0  0  0
  156.1048  141.2001  164.1952 H   0  0  0  0  0  0  0  0  0  0  0  0
  156.7753  143.3316  165.8172 H   0  0  0  0  0  0  0  0  0  0  0  0
  154.6737  143.7999  166.9457 H   0  0  0  0  0  0  0  0  0  0  0  0
  154.0703  142.1272  166.6852 H   0  0  0  0  0  0  0  0  0  0  0  0
  154.6452  140.5896  168.8207 H   0  0  0  0  0  0  0  0  0  0  0  0
  154.5676  142.0722  169.7291 H   0  0  0  0  0  0  0  0  0  0  0  0
  156.0074  141.0596  169.8257 H   0  0  0  0  0  0  0  0  0  0  0  0
  156.9310  145.1092  169.2230 H   0  0  0  0  0  0  0  0  0  0  0  0
  155.7679  144.0946  170.0550 H   0  0  0  0  0  0  0  0  0  0  0  0
  155.3688  144.7954  168.4773 H   0  0  0  0  0  0  0  0  0  0  0  0
  156.3174  139.2881  167.4402 H   0  0  0  0  0  0  0  0  0  0  0  0
  156.5068  139.5100  165.7108 H   0  0  0  0  0  0  0  0  0  0  0  0
  154.9902  139.9234  166.4844 H   0  0  0  0  0  0  0  0  0  0  0  0
  158.3901  140.7013  167.8929 H   0  0  0  0  0  0  0  0  0  0  0  0
  158.6086  142.2183  167.0351 H   0  0  0  0  0  0  0  0  0  0  0  0
  158.5519  140.7178  166.1402 H   0  0  0  0  0  0  0  0  0  0  0  0
  155.0260  140.0761  160.8407 H   0  0  0  0  0  0  0  0  0  0  0  0
  154.4929  140.3196  159.1694 H   0  0  0  0  0  0  0  0  0  0  0  0
  153.4943  139.3683  160.2890 H   0  0  0  0  0  0  0  0  0  0  0  0
  1  2  1  0  0  0  0
  1 22  1  0  0  0  0
  1 23  1  0  0  0  0
  1 24  1  0  0  0  0
  2  3  1  0  0  0  0
  2 25  1  0  0  0  0
  2 26  1  0  0  0  0
  3 21  2  0  0  0  0
  3  4  1  0  0  0  0
  4  5  2  0  0  0  0
  4 27  1  0  0  0  0
  5  6  1  0  0  0  0
  5 19  1  0  0  0  0
  6  7  1  0  0  0  0
  6 28  1  0  0  0  0
  7  8  2  0  0  0  0
  7  9  1  0  0  0  0
  9 10  1  0  0  0  0
  9 29  1  0  0  0  0
 10 16  1  0  0  0  0
 10 11  1  0  0  0  0
 10 30  1  0  0  0  0
 11 12  1  0  0  0  0
 11 31  1  0  0  0  0
 11 32  1  0  0  0  0
 12 13  1  0  0  0  0
 12 14  1  0  0  0  0
 12 16  1  0  0  0  0
 13 33  1  0  0  0  0
 13 34  1  0  0  0  0
 13 35  1  0  0  0  0
 14 15  1  0  0  0  0
 15 36  1  0  0  0  0
 15 37  1  0  0  0  0
 15 38  1  0  0  0  0
 16 17  1  0  0  0  0
 16 18  1  0  0  0  0
 17 39  1  0  0  0  0
 17 40  1  0  0  0  0
 17 41  1  0  0  0  0
 18 42  1  0  0  0  0
 18 43  1  0  0  0  0
 18 44  1  0  0  0  0
 19 20  1  0  0  0  0
 19 21  1  0  0  0  0
 20 45  1  0  0  0  0
 20 46  1  0  0  0  0
 20 47  1  0  0  0  0
M  END
> <s_m_source_file>
AV-unprocessed.smi

> <i_m_source_file_index>
674

> <i_lp_mmshare_version>
43012

> <i_f3d_flags>
0

> <s_epik_input>
W0NIM11bQ0gyXWMxW2NIXWMobihuMSlbQ0gzXSlbTkhdQyg9TylbTkhdW0NAQEhdKEMyKFtDSDNdKVtDSDNdKVtDSDJdW0NAQF0yKFtDSDNdKU9bQ0gzXQ==

> <s_epik_cmdline>
J2VwaWtfcHl0aG9uJywgJy1waCcsICc3LjAnLCAnLXRuJywgJzgnLCAnLW1hJywgJzIwMCcsICctbWV0YWxfYmluZGluZycsICctaW1hZScsICc8aW5maWxlLm1hZT4nLCAnLW9tYWUnLCAnPG91dGZpbGUubWFlPic=

> <r_lp_tautomer_probability>
1

> <r_epik_Ionization_Penalty>
0.000101626

> <r_epik_Ionization_Penalty_Charging>
0

> <r_epik_Ionization_Penalty_Neutral>
0.000101626

> <r_epik_State_Penalty>
-0

> <r_epik_Charging_Adjusted_Penalty>
0

> <i_epik_Tot_Q>
0

> <i_epik_Tot_abs_Q>
0

> <r_epik_Metal_State_Penalty>
-0

> <b_epik_Metal_Only>
0

> <s_lp_Force_Field>
OPLS_2005

> <r_lp_Energy>
22.7899

> <b_lp_Chiralities_Consistent>
1

> <s_lp_Variant>
AV-unprocessed.smi:674-4

> <Gold.Version>
5.8.1

> <Gold.Id.Protein>
6NUR|6NUR_protein|mol2

> <Gold.PLP.Fitness>
42.7353

> <Gold.PLP.PLP>
-43.1614

> <Gold.PLP.part.hbond>
-2.0000

> <Gold.PLP.part.metal>
0.0000

> <Gold.PLP.part.buried>
-4.8327

> <Gold.PLP.part.nonpolar>
-35.3602

> <Gold.PLP.part.repulsive>
0.1540

> <Gold.PLP.ligand.clash>
0.0000

> <Gold.PLP.ligand.torsion>
0.4033

> <Gold.PLP.Chemscore.Hbond>
0.0000

> <Gold.PLP.Chemscore.CHOScore>
0.0000

> <Gold.PLP.Chemscore.Metal>
0.0000

> <Gold.PLP.Chemscore.Internal.Correction>
0.3806

> <Gold.Rescore>
     Score         DG    S(hbond)    S(metal)    S(lipo)     H(rot)  DE(clash)    DE(int)     intcor
      8.41     -12.71       0.00        0.00      91.71       1.37       1.42       2.88       ----

> <Gold.Chemscore.Fitness>
8.4052

> <Gold.Chemscore.DG>
-12.7139

> <Gold.Chemscore.ZeroCoef>
-5.4800

> <Gold.Chemscore.Hbond>
0.0000

> <Gold.Chemscore.Metal>
0.0000

> <Gold.Chemscore.Lipo>
91.7112

> <Gold.Chemscore.Internal_Hbond>
0.0000

> <Gold.Chemscore.DEClash>
1.4238

> <Gold.Chemscore.DEInternal>
2.8849

> <Gold.Chemscore.Rot>
1.3658

> <Gold.Chemscore.Internal.Correction>
   9.000000E+99

> <Gold.Chemscore.Hbond.Weighted>
-0.0000

> <Gold.Chemscore.Metal.Weighted>
-0.0000

> <Gold.Chemscore.Lipo.Weighted>
-10.7302

> <Gold.Chemscore.Internal_Hbond.Weighted>
0.0000

> <Gold.Chemscore.DEClash.Weighted>
1.4238

> <Gold.Chemscore.DEInternal.Weighted>
2.8849

> <Gold.Chemscore.Rot.Weighted>
3.4963

> <Gold.Chemscore.Internal.Correction.Weighted>
   9.000000E+99

> <Gold.Protein.RotatedTorsions>
[ 6907 6896 6895 6894 ] final  120.19 input  -60.11 | X-H torsion
[ 7974 7965 7964 7962 ] final  104.75 input  175.53 | X-H torsion
[ 8008 7997 7996 7995 ] final  -26.81 input   59.86 | X-H torsion
[ 10167 10162 10161 10158 ] final   95.96 input  -65.29 | X-H torsion
[ 10718 10713 10712 10709 ] final  160.72 input   66.30 | X-H torsion
[ 10763 10752 10751 10750 ] final  101.14 input  -60.55 | X-H torsion
[ 11005 11000 10999 10996 ] final   35.12 input  -57.11 | X-H torsion

> <Gold.Protein.ActiveResidues>
 VAL166  LYS551  ARG553  GLY616  TRP617  ASP618  TYR619  PRO620  LYS621  CYS622 
 ASP623  PHE694  ASN695  SER759  ASP760  ASP761  ALA762  ILE779  LEU786  VAL792 
 PHE793  MET794  SER795  GLU796  ALA797  LYS798  CYS799  TRP800  GLU811  SER814 

> <Gold.Protein.RotatedAtoms>
  152.4417  133.7460  159.6667 H   0  0  0  0  0  0  0  0  0  0  0  0  # atno 6907 bound_to 6896
  150.8308  133.8083  159.3105 H   0  0  0  0  0  0  0  0  0  0  0  0  # atno 6908 bound_to 6896
  151.5737  135.1064  160.0053 H   0  0  0  0  0  0  0  0  0  0  0  0  # atno 6909 bound_to 6896
  145.3286  139.2493  143.3673 H   0  0  0  0  0  0  0  0  0  0  0  0  # atno 7974 bound_to 7965
  154.4407  140.1889  156.0834 H   0  0  0  0  0  0  0  0  0  0  0  0  # atno 8008 bound_to 7997
  156.0421  140.3318  155.7229 H   0  0  0  0  0  0  0  0  0  0  0  0  # atno 8009 bound_to 7997
  155.5684  140.0610  157.2803 H   0  0  0  0  0  0  0  0  0  0  0  0  # atno 8010 bound_to 7997
  139.7939  144.6841  150.9855 H   0  0  0  0  0  0  0  0  0  0  0  0  # atno 10167 bound_to 10162
  157.1465  131.0553  151.2301 H   0  0  0  0  0  0  0  0  0  0  0  0  # atno 10718 bound_to 10713
  153.3229  135.4055  155.1432 H   0  0  0  0  0  0  0  0  0  0  0  0  # atno 10763 bound_to 10752
  154.8605  135.3592  154.5573 H   0  0  0  0  0  0  0  0  0  0  0  0  # atno 10764 bound_to 10752
  153.6007  135.7071  153.5444 H   0  0  0  0  0  0  0  0  0  0  0  0  # atno 10765 bound_to 10752
  140.2459  134.3360  155.7908 H   0  0  0  0  0  0  0  0  0  0  0  0  # atno 11005 bound_to 11000
  146.3054  140.3859  142.8689 LP  0  0  0  0  0  0  0  0  0  0  0  0  # atno 17320 bound_to 7965
  144.8882  140.7489  143.5943 LP  0  0  0  0  0  0  0  0  0  0  0  0  # atno 17321 bound_to 7965
  140.7820  143.4351  151.0635 LP  0  0  0  0  0  0  0  0  0  0  0  0  # atno 17342 bound_to 10162
  139.8027  143.8061  152.3164 LP  0  0  0  0  0  0  0  0  0  0  0  0  # atno 17343 bound_to 10162
  157.4259  130.7463  149.6951 LP  0  0  0  0  0  0  0  0  0  0  0  0  # atno 17370 bound_to 10713
  155.9778  130.4058  150.3686 LP  0  0  0  0  0  0  0  0  0  0  0  0  # atno 17371 bound_to 10713
  141.2206  133.7325  156.8960 LP  0  0  0  0  0  0  0  0  0  0  0  0  # atno 17394 bound_to 11000
  140.1606  134.9168  157.2710 LP  0  0  0  0  0  0  0  0  0  0  0  0  # atno 17395 bound_to 11000

$$$$
