AV-unprocessed.smi:909|AV-procd|sdf|4115|dock1
  -GOLD-   22720 2 13D 1   1.00000     0.00000
 Structure written by MMmdl.
 39 40  0  0  0  0  0  0  0  0  2 V2000
  153.2036  140.6090  160.5088 C   0  0  0  0  0  0  0  0  0  0  0  0
  152.6071  141.9831  160.6122 C   0  0  0  0  0  0  0  0  0  0  0  0
  152.3901  142.5111  161.8052 N   0  0  0  0  0  0  0  0  0  0  0  0
  151.8477  143.7780  161.5700 O   0  0  0  0  0  0  0  0  0  0  0  0
  151.7539  143.9632  160.2285 C   0  0  0  0  0  0  0  0  0  0  0  0
  151.2043  145.2715  159.7694 C   0  0  0  0  0  0  0  0  0  0  0  0
  152.2115  142.8596  159.5617 C   0  0  0  0  0  0  0  0  0  0  0  0
  152.2939  142.6218  158.0756 C   0  0  0  0  0  0  0  0  0  0  0  0
  151.2995  141.5325  157.6769 C   0  0  0  0  0  0  0  0  0  0  0  0
  150.1585  141.5641  158.1338 O   0  0  0  0  0  0  0  0  0  0  0  0
  151.7832  140.5876  156.8494 N   0  0  0  0  0  0  0  0  0  0  0  0
  151.1806  139.3880  156.2438 C   0  0  0  0  0  0  0  0  0  0  0  0
  152.3627  138.6456  155.5717 C   0  0  0  0  0  0  0  0  0  0  0  0
  152.4860  137.4192  155.7883 O   0  0  0  0  0  0  0  0  0  0  0  0
  153.1612  139.3208  154.8831 O   0  5  0  0  0  0  0  0  0  0  0  0
  150.4292  138.4207  157.2174 C   0  0  0  0  0  0  0  0  0  0  0  0
  149.0784  138.9605  157.7294 C   0  0  0  0  0  0  0  0  0  0  0  0
  148.1672  139.3878  156.5743 C   0  0  0  0  0  0  0  0  0  0  0  0
  148.8739  140.4174  155.6867 C   0  0  0  0  0  0  0  0  0  0  0  0
  150.1957  139.8589  155.1341 C   0  0  0  0  0  0  0  0  0  0  0  0
  152.4244  139.8517  160.4261 H   0  0  0  0  0  0  0  0  0  0  0  0
  153.8112  140.3694  161.3821 H   0  0  0  0  0  0  0  0  0  0  0  0
  153.8451  140.5243  159.6314 H   0  0  0  0  0  0  0  0  0  0  0  0
  152.0081  145.9342  159.4489 H   0  0  0  0  0  0  0  0  0  0  0  0
  150.6552  145.7694  160.5691 H   0  0  0  0  0  0  0  0  0  0  0  0
  150.5244  145.1337  158.9286 H   0  0  0  0  0  0  0  0  0  0  0  0
  152.0708  143.5300  157.5143 H   0  0  0  0  0  0  0  0  0  0  0  0
  153.2983  142.3218  157.7741 H   0  0  0  0  0  0  0  0  0  0  0  0
  152.7540  140.7083  156.6011 H   0  0  0  0  0  0  0  0  0  0  0  0
  150.2207  137.4881  156.6902 H   0  0  0  0  0  0  0  0  0  0  0  0
  151.0574  138.1286  158.0591 H   0  0  0  0  0  0  0  0  0  0  0  0
  148.5814  138.1956  158.3266 H   0  0  0  0  0  0  0  0  0  0  0  0
  149.2316  139.8096  158.3939 H   0  0  0  0  0  0  0  0  0  0  0  0
  147.8899  138.5162  155.9803 H   0  0  0  0  0  0  0  0  0  0  0  0
  147.2399  139.8059  156.9662 H   0  0  0  0  0  0  0  0  0  0  0  0
  148.2208  140.7023  154.8615 H   0  0  0  0  0  0  0  0  0  0  0  0
  149.0653  141.3273  156.2569 H   0  0  0  0  0  0  0  0  0  0  0  0
  150.6597  140.6188  154.5030 H   0  0  0  0  0  0  0  0  0  0  0  0
  149.9613  139.0234  154.4719 H   0  0  0  0  0  0  0  0  0  0  0  0
  1  2  1  0  0  0  0
  1 21  1  0  0  0  0
  1 22  1  0  0  0  0
  1 23  1  0  0  0  0
  2  7  1  0  0  0  0
  2  3  2  0  0  0  0
  3  4  1  0  0  0  0
  4  5  1  0  0  0  0
  5  6  1  0  0  0  0
  5  7  2  0  0  0  0
  6 24  1  0  0  0  0
  6 25  1  0  0  0  0
  6 26  1  0  0  0  0
  7  8  1  0  0  0  0
  8  9  1  0  0  0  0
  8 27  1  0  0  0  0
  8 28  1  0  0  0  0
  9 10  2  0  0  0  0
  9 11  1  0  0  0  0
 11 12  1  0  0  0  0
 11 29  1  0  0  0  0
 12 20  1  0  0  0  0
 12 13  1  0  0  0  0
 12 16  1  0  0  0  0
 13 14  2  0  0  0  0
 13 15  1  0  0  0  0
 16 17  1  0  0  0  0
 16 30  1  0  0  0  0
 16 31  1  0  0  0  0
 17 18  1  0  0  0  0
 17 32  1  0  0  0  0
 17 33  1  0  0  0  0
 18 19  1  0  0  0  0
 18 34  1  0  0  0  0
 18 35  1  0  0  0  0
 19 20  1  0  0  0  0
 19 36  1  0  0  0  0
 19 37  1  0  0  0  0
 20 38  1  0  0  0  0
 20 39  1  0  0  0  0
M  CHG  1  15  -1
M  END
> <s_m_source_file>
AV-unprocessed.smi

> <i_m_source_file_index>
909

> <i_lp_mmshare_version>
43012

> <i_f3d_flags>
0

> <s_epik_input>
W0NIM11jMW5vYyhbQ0gzXSljMVtDSDJdQyg9TylbTkhdQzIoQyg9TylbT0hdKVtDSDJdW0NIMl1bQ0gyXVtDSDJdW0NIMl0y

> <s_epik_cmdline>
J2VwaWtfcHl0aG9uJywgJy1waCcsICc3LjAnLCAnLXRuJywgJzgnLCAnLW1hJywgJzIwMCcsICctbWV0YWxfYmluZGluZycsICctaW1hZScsICc8aW5maWxlLm1hZT4nLCAnLW9tYWUnLCAnPG91dGZpbGUubWFlPic=

> <r_epik_Ionization_Penalty>
0.000391234

> <r_epik_Ionization_Penalty_Charging>
0.000391215

> <r_epik_Ionization_Penalty_Neutral>
1.90707e-08

> <r_epik_State_Penalty>
0.000239413

> <r_epik_Charging_Adjusted_Penalty>
0.000630628

> <i_epik_Tot_Q>
-1

> <i_epik_Tot_abs_Q>
1

> <r_epik_Metal_State_Penalty>
-0

> <b_epik_Metal_Only>
0

> <s_lp_Force_Field>
OPLS_2005

> <r_lp_Energy>
2.68806

> <b_lp_Chiralities_Consistent>
1

> <s_lp_Variant>
AV-unprocessed.smi:909-1

> <Gold.Version>
5.8.1

> <Gold.Id.Protein>
6NUR|6NUR_protein|mol2

> <Gold.PLP.Fitness>
41.9996

> <Gold.PLP.PLP>
-34.2559

> <Gold.PLP.part.hbond>
-3.0000

> <Gold.PLP.part.metal>
0.0000

> <Gold.PLP.part.buried>
-7.2253

> <Gold.PLP.part.nonpolar>
-24.9841

> <Gold.PLP.part.repulsive>
0.4231

> <Gold.PLP.ligand.clash>
0.0000

> <Gold.PLP.ligand.torsion>
0.6494

> <Gold.PLP.Chemscore.Hbond>
2.9880

> <Gold.PLP.Chemscore.CHOScore>
0.0000

> <Gold.PLP.Chemscore.Metal>
0.0000

> <Gold.Chemscore.Hbonds>
donor molecule, donor type, donor heavy atom, donor atom, acceptor molecule, acceptor atom, score
      P1  H  7997  8008       L1    15  2.00
      P1  H 10752 10765       L1    14  0.98

> <Gold.PLP.Chemscore.Internal.Correction>
0.0785

> <Gold.Rescore>
     Score         DG    S(hbond)    S(metal)    S(lipo)     H(rot)  DE(clash)    DE(int)     intcor
     12.63     -16.47       1.77        0.00      85.57       1.93       1.37       2.46       ----

> <Gold.Chemscore.Fitness>
12.6341

> <Gold.Chemscore.DG>
-16.4714

> <Gold.Chemscore.ZeroCoef>
-5.4800

> <Gold.Chemscore.Hbond>
1.7718

> <Gold.Chemscore.Metal>
0.0000

> <Gold.Chemscore.Lipo>
85.5674

> <Gold.Chemscore.Internal_Hbond>
0.0000

> <Gold.Chemscore.DEClash>
1.3734

> <Gold.Chemscore.DEInternal>
2.4639

> <Gold.Chemscore.Rot>
1.9289

> <Gold.Chemscore.Internal.Correction>
   9.000000E+99

> <Gold.Chemscore.Hbonds>
donor molecule, donor type, donor heavy atom, donor atom, acceptor molecule, acceptor atom, score
      P1  H  7997  8008       L1    15  0.82
      P1  H 10752 10765       L1    14  0.48

> <Gold.Chemscore.Hbond.Weighted>
-5.9179

> <Gold.Chemscore.Metal.Weighted>
-0.0000

> <Gold.Chemscore.Lipo.Weighted>
-10.0114

> <Gold.Chemscore.Internal_Hbond.Weighted>
0.0000

> <Gold.Chemscore.DEClash.Weighted>
1.3734

> <Gold.Chemscore.DEInternal.Weighted>
2.4639

> <Gold.Chemscore.Rot.Weighted>
4.9379

> <Gold.Chemscore.Internal.Correction.Weighted>
   9.000000E+99

> <Gold.Protein.RotatedTorsions>
[ 6907 6896 6895 6894 ] final   71.99 input  -60.11 | X-H torsion
[ 7974 7965 7964 7962 ] final  101.52 input  175.53 | X-H torsion
[ 8008 7997 7996 7995 ] final  -19.32 input   59.86 | X-H torsion
[ 10167 10162 10161 10158 ] final  -38.63 input  -65.29 | X-H torsion
[ 10718 10713 10712 10709 ] final -153.18 input   66.30 | X-H torsion
[ 10763 10752 10751 10750 ] final -164.81 input  -60.55 | X-H torsion
[ 11005 11000 10999 10996 ] final   12.88 input  -57.11 | X-H torsion

> <Gold.Protein.ActiveResidues>
 VAL166  LYS551  ARG553  GLY616  TRP617  ASP618  TYR619  PRO620  LYS621  CYS622 
 ASP623  PHE694  ASN695  SER759  ASP760  ASP761  ALA762  ILE779  LEU786  VAL792 
 PHE793  MET794  SER795  GLU796  ALA797  LYS798  CYS799  TRP800  GLU811  SER814 

> <Gold.Protein.RotatedAtoms>
  152.4842  134.4638  159.9613 H   0  0  0  0  0  0  0  0  0  0  0  0  # atno 6907 bound_to 6896
  151.4638  133.3580  159.2821 H   0  0  0  0  0  0  0  0  0  0  0  0  # atno 6908 bound_to 6896
  150.8938  134.8370  159.7373 H   0  0  0  0  0  0  0  0  0  0  0  0  # atno 6909 bound_to 6896
  145.3712  139.2398  143.3454 H   0  0  0  0  0  0  0  0  0  0  0  0  # atno 7974 bound_to 7965
  154.4845  140.2092  155.9688 H   0  0  0  0  0  0  0  0  0  0  0  0  # atno 8008 bound_to 7997
  156.1215  140.3212  155.8184 H   0  0  0  0  0  0  0  0  0  0  0  0  # atno 8009 bound_to 7997
  155.4460  140.0513  157.2996 H   0  0  0  0  0  0  0  0  0  0  0  0  # atno 8010 bound_to 7997
  140.7087  143.3265  151.2668 H   0  0  0  0  0  0  0  0  0  0  0  0  # atno 10167 bound_to 10162
  156.4824  130.8309  151.2535 H   0  0  0  0  0  0  0  0  0  0  0  0  # atno 10718 bound_to 10713
  154.6993  135.2985  154.9365 H   0  0  0  0  0  0  0  0  0  0  0  0  # atno 10763 bound_to 10752
  154.0302  135.6671  153.4784 H   0  0  0  0  0  0  0  0  0  0  0  0  # atno 10764 bound_to 10752
  153.0669  135.5083  154.8128 H   0  0  0  0  0  0  0  0  0  0  0  0  # atno 10765 bound_to 10752
  140.4870  134.0879  155.7763 H   0  0  0  0  0  0  0  0  0  0  0  0  # atno 11005 bound_to 11000
  146.2884  140.4363  142.8749 LP  0  0  0  0  0  0  0  0  0  0  0  0  # atno 17320 bound_to 7965
  144.8575  140.7092  143.6128 LP  0  0  0  0  0  0  0  0  0  0  0  0  # atno 17321 bound_to 7965
  139.6734  143.9979  152.2767 LP  0  0  0  0  0  0  0  0  0  0  0  0  # atno 17342 bound_to 10162
  139.9586  144.6573  150.8102 LP  0  0  0  0  0  0  0  0  0  0  0  0  # atno 17343 bound_to 10162
  157.7482  131.0040  150.3061 LP  0  0  0  0  0  0  0  0  0  0  0  0  # atno 17370 bound_to 10713
  156.3508  130.3830  149.7330 LP  0  0  0  0  0  0  0  0  0  0  0  0  # atno 17371 bound_to 10713
  141.1503  133.8980  157.2114 LP  0  0  0  0  0  0  0  0  0  0  0  0  # atno 17394 bound_to 11000
  139.9792  135.0104  156.9708 LP  0  0  0  0  0  0  0  0  0  0  0  0  # atno 17395 bound_to 11000

$$$$
