AV-unprocessed.smi:1712|AV-procd|sdf|6901|dock2
  -GOLD-   22720 8103D 1   1.00000     0.00000
 Structure written by MMmdl.
 37 38  0  0  0  0  0  0  0  0  1 V2000
  148.1079  140.3024  154.1042 C   0  0  0  0  0  0  0  0  0  0  0  0
  149.1575  139.1680  154.0977 C   0  0  2  0  0  0  0  0  0  0  0  0
  148.5872  137.9683  154.8984 C   0  0  0  0  0  0  0  0  0  0  0  0
  148.8732  136.6871  154.2554 N   0  0  0  0  0  0  0  0  0  0  0  0
  149.1789  135.5458  154.8883 C   0  0  0  0  0  0  0  0  0  0  0  0
  149.2372  135.4374  156.1134 O   0  0  0  0  0  0  0  0  0  0  0  0
  149.4177  134.5542  154.0147 N   0  0  0  0  0  0  0  0  0  0  0  0
  149.7546  133.2091  154.3099 C   0  0  0  0  0  0  0  0  0  0  0  0
  150.2922  132.7629  155.5476 C   0  0  0  0  0  0  0  0  0  0  0  0
  150.5140  131.4562  155.5360 N   0  0  0  0  0  0  0  0  0  0  0  0
  150.1238  131.0641  154.3020 N   0  0  0  0  0  0  0  0  0  0  0  0
  149.6543  132.0974  153.5211 C   0  0  0  0  0  0  0  0  0  0  0  0
  150.5001  139.6048  154.5401 N   0  0  0  0  0  0  0  0  0  0  0  0
  150.4840  140.2172  155.8720 C   0  0  0  0  0  0  0  0  0  0  0  0
  151.8830  140.6579  156.3361 C   0  0  0  0  0  0  0  0  0  0  0  0
  152.7658  139.5439  156.3191 O   0  0  0  0  0  0  0  0  0  0  0  0
  152.8643  138.9566  155.0283 C   0  0  0  0  0  0  0  0  0  0  0  0
  151.4711  138.5067  154.5556 C   0  0  0  0  0  0  0  0  0  0  0  0
  150.1840  130.0989  154.0101 H   0  0  0  0  0  0  0  0  0  0  0  0
  147.1102  139.9185  153.8901 H   0  0  0  0  0  0  0  0  0  0  0  0
  148.3128  141.0546  153.3431 H   0  0  0  0  0  0  0  0  0  0  0  0
  148.0663  140.8049  155.0711 H   0  0  0  0  0  0  0  0  0  0  0  0
  149.2392  138.8318  153.0629 H   0  0  0  0  0  0  0  0  0  0  0  0
  148.9733  137.9863  155.9190 H   0  0  0  0  0  0  0  0  0  0  0  0
  147.5081  138.0563  155.0191 H   0  0  0  0  0  0  0  0  0  0  0  0
  148.8588  136.6789  153.2460 H   0  0  0  0  0  0  0  0  0  0  0  0
  149.3525  134.7857  153.0342 H   0  0  0  0  0  0  0  0  0  0  0  0
  150.5243  133.3325  156.4356 H   0  0  0  0  0  0  0  0  0  0  0  0
  149.3064  131.9467  152.5101 H   0  0  0  0  0  0  0  0  0  0  0  0
  149.8449  141.0985  155.8815 H   0  0  0  0  0  0  0  0  0  0  0  0
  150.0667  139.5162  156.5965 H   0  0  0  0  0  0  0  0  0  0  0  0
  152.2713  141.4499  155.6936 H   0  0  0  0  0  0  0  0  0  0  0  0
  151.8376  141.0602  157.3481 H   0  0  0  0  0  0  0  0  0  0  0  0
  153.2982  139.6714  154.3270 H   0  0  0  0  0  0  0  0  0  0  0  0
  153.5414  138.1035  155.0762 H   0  0  0  0  0  0  0  0  0  0  0  0
  151.1114  137.7044  155.2017 H   0  0  0  0  0  0  0  0  0  0  0  0
  151.5852  138.0825  153.5592 H   0  0  0  0  0  0  0  0  0  0  0  0
  1  2  1  0  0  0  0
  1 20  1  0  0  0  0
  1 21  1  0  0  0  0
  1 22  1  0  0  0  0
  2  3  1  0  0  0  0
  2 13  1  0  0  0  0
  2 23  1  0  0  0  0
  3  4  1  0  0  0  0
  3 24  1  0  0  0  0
  3 25  1  0  0  0  0
  4  5  1  0  0  0  0
  4 26  1  0  0  0  0
  5  6  2  0  0  0  0
  5  7  1  0  0  0  0
  7  8  1  0  0  0  0
  7 27  1  0  0  0  0
  8 12  2  0  0  0  0
  8  9  1  0  0  0  0
  9 10  2  0  0  0  0
  9 28  1  0  0  0  0
 10 11  1  0  0  0  0
 11 19  1  0  0  0  0
 11 12  1  0  0  0  0
 12 29  1  0  0  0  0
 13 18  1  0  0  0  0
 13 14  1  0  0  0  0
 14 15  1  0  0  0  0
 14 30  1  0  0  0  0
 14 31  1  0  0  0  0
 15 16  1  0  0  0  0
 15 32  1  0  0  0  0
 15 33  1  0  0  0  0
 16 17  1  0  0  0  0
 17 18  1  0  0  0  0
 17 34  1  0  0  0  0
 17 35  1  0  0  0  0
 18 36  1  0  0  0  0
 18 37  1  0  0  0  0
M  END
> <s_m_source_file>
AV-unprocessed.smi

> <i_m_source_file_index>
1712

> <i_lp_mmshare_version>
43012

> <i_f3d_flags>
0

> <s_epik_input>
W0NIMl0xW0NIMl1PW0NIMl1bQ0gyXU4xW0NASF0oW0NIM10pW0NIMl1bTkhdQyg9TylbTkhdYzJbY0hdbltuSF1bY0hdMg==

> <s_epik_cmdline>
J2VwaWtfcHl0aG9uJywgJy1waCcsICc3LjAnLCAnLXRuJywgJzgnLCAnLW1hJywgJzIwMCcsICctbWV0YWxfYmluZGluZycsICctaW1hZScsICc8aW5maWxlLm1hZT4nLCAnLW9tYWUnLCAnPG91dGZpbGUubWFlPic=

> <r_lp_tautomer_probability>
0.5

> <r_epik_Ionization_Penalty>
0.242772

> <r_epik_Ionization_Penalty_Charging>
0

> <r_epik_Ionization_Penalty_Neutral>
0.242772

> <r_epik_State_Penalty>
0.233765

> <r_epik_Charging_Adjusted_Penalty>
0.233765

> <i_epik_Tot_Q>
0

> <i_epik_Tot_abs_Q>
0

> <r_epik_Metal_State_Penalty>
0.233764

> <b_epik_Metal_Only>
0

> <s_lp_Force_Field>
OPLS_2005

> <r_lp_Energy>
36.7302

> <b_lp_Chiralities_Consistent>
1

> <s_lp_Variant>
AV-unprocessed.smi:1712-1

> <Gold.Version>
5.8.1

> <Gold.Id.Protein>
6NUR|6NUR_protein|mol2

> <Gold.PLP.Fitness>
39.7878

> <Gold.PLP.PLP>
-27.8180

> <Gold.PLP.part.hbond>
-3.8709

> <Gold.PLP.part.metal>
0.0000

> <Gold.PLP.part.buried>
-2.8054

> <Gold.PLP.part.nonpolar>
-20.9137

> <Gold.PLP.part.repulsive>
0.1677

> <Gold.PLP.ligand.clash>
0.0000

> <Gold.PLP.ligand.torsion>
0.8026

> <Gold.PLP.Chemscore.Hbond>
3.5130

> <Gold.PLP.Chemscore.CHOScore>
0.9959

> <Gold.PLP.Chemscore.Metal>
0.0000

> <Gold.Chemscore.Hbonds>
donor molecule, donor type, donor heavy atom, donor atom, acceptor molecule, acceptor atom, score
      L1  H     4    26       P1  7948  0.80
      L1  H     7    27       P1  7948  0.22
      P1  H  7989  7998       L1    13  0.80
      P1  H  7997  8008       L1    16  0.75
      L1  C    12    29       P1 10747  1.00

> <Gold.PLP.Chemscore.Internal.Correction>
0.0485

> <Gold.Rescore>
     Score         DG    S(hbond)    S(metal)    S(lipo)     H(rot)  DE(clash)    DE(int)     intcor
     12.27     -14.31       1.82        0.00      59.17       1.63       0.06       1.97       ----

> <Gold.Chemscore.Fitness>
12.2722

> <Gold.Chemscore.DG>
-14.3090

> <Gold.Chemscore.ZeroCoef>
-5.4800

> <Gold.Chemscore.Hbond>
1.8210

> <Gold.Chemscore.Metal>
0.0000

> <Gold.Chemscore.Lipo>
59.1689

> <Gold.Chemscore.Internal_Hbond>
0.0000

> <Gold.Chemscore.DEClash>
0.0630

> <Gold.Chemscore.DEInternal>
1.9738

> <Gold.Chemscore.Rot>
1.6311

> <Gold.Chemscore.Internal.Correction>
   9.000000E+99

> <Gold.Chemscore.Hbonds>
donor molecule, donor type, donor heavy atom, donor atom, acceptor molecule, acceptor atom, score
      L1  H     4    26       P1  7948  0.78
      P1  H  7989  7998       L1    13  0.04
      P1  H  7997  8008       L1    16  0.06

> <Gold.Chemscore.Hbond.Weighted>
-6.0820

> <Gold.Chemscore.Metal.Weighted>
-0.0000

> <Gold.Chemscore.Lipo.Weighted>
-6.9228

> <Gold.Chemscore.Internal_Hbond.Weighted>
0.0000

> <Gold.Chemscore.DEClash.Weighted>
0.0630

> <Gold.Chemscore.DEInternal.Weighted>
1.9738

> <Gold.Chemscore.Rot.Weighted>
4.1757

> <Gold.Chemscore.Internal.Correction.Weighted>
   9.000000E+99

> <Gold.Protein.RotatedTorsions>
[ 6907 6896 6895 6894 ] final  -35.52 input  -60.11 | X-H torsion
[ 7974 7965 7964 7962 ] final  112.14 input  175.53 | X-H torsion
[ 8008 7997 7996 7995 ] final  -43.31 input   59.86 | X-H torsion
[ 10167 10162 10161 10158 ] final   37.16 input  -65.29 | X-H torsion
[ 10718 10713 10712 10709 ] final -100.92 input   66.30 | X-H torsion
[ 10763 10752 10751 10750 ] final  109.28 input  -60.55 | X-H torsion
[ 11005 11000 10999 10996 ] final    1.77 input  -57.11 | X-H torsion

> <Gold.Protein.ActiveResidues>
 VAL166  LYS551  ARG553  GLY616  TRP617  ASP618  TYR619  PRO620  LYS621  CYS622 
 ASP623  PHE694  ASN695  SER759  ASP760  ASP761  ALA762  ILE779  LEU786  VAL792 
 PHE793  MET794  SER795  GLU796  ALA797  LYS798  CYS799  TRP800  GLU811  SER814 

> <Gold.Protein.RotatedAtoms>
  151.0388  134.9592  159.8150 H   0  0  0  0  0  0  0  0  0  0  0  0  # atno 6907 bound_to 6896
  152.5360  134.2685  159.8972 H   0  0  0  0  0  0  0  0  0  0  0  0  # atno 6908 bound_to 6896
  151.2696  133.4219  159.2654 H   0  0  0  0  0  0  0  0  0  0  0  0  # atno 6909 bound_to 6896
  145.2333  139.2810  143.4156 H   0  0  0  0  0  0  0  0  0  0  0  0  # atno 7974 bound_to 7965
  154.3997  140.1451  156.3499 H   0  0  0  0  0  0  0  0  0  0  0  0  # atno 8008 bound_to 7997
  155.8279  140.3467  155.5533 H   0  0  0  0  0  0  0  0  0  0  0  0  # atno 8009 bound_to 7997
  155.8219  140.0899  157.1834 H   0  0  0  0  0  0  0  0  0  0  0  0  # atno 8010 bound_to 7997
  140.4059  144.1659  150.6136 H   0  0  0  0  0  0  0  0  0  0  0  0  # atno 10167 bound_to 10162
  156.0178  130.5350  150.6888 H   0  0  0  0  0  0  0  0  0  0  0  0  # atno 10718 bound_to 10713
  153.4326  135.3785  155.2179 H   0  0  0  0  0  0  0  0  0  0  0  0  # atno 10763 bound_to 10752
  154.8750  135.3843  154.4250 H   0  0  0  0  0  0  0  0  0  0  0  0  # atno 10764 bound_to 10752
  153.4784  135.7088  153.6015 H   0  0  0  0  0  0  0  0  0  0  0  0  # atno 10765 bound_to 10752
  140.6117  133.9742  155.8181 H   0  0  0  0  0  0  0  0  0  0  0  0  # atno 11005 bound_to 11000
  146.3347  140.2674  142.8604 LP  0  0  0  0  0  0  0  0  0  0  0  0  # atno 17320 bound_to 7965
  144.9656  140.8319  143.5486 LP  0  0  0  0  0  0  0  0  0  0  0  0  # atno 17321 bound_to 7965
  140.4690  143.2420  151.9115 LP  0  0  0  0  0  0  0  0  0  0  0  0  # atno 17342 bound_to 10162
  139.4783  144.5390  151.8557 LP  0  0  0  0  0  0  0  0  0  0  0  0  # atno 17343 bound_to 10162
  157.4574  131.0879  151.0782 LP  0  0  0  0  0  0  0  0  0  0  0  0  # atno 17370 bound_to 10713
  157.1280  130.6090  149.5522 LP  0  0  0  0  0  0  0  0  0  0  0  0  # atno 17371 bound_to 10713
  141.0803  134.0072  157.3395 LP  0  0  0  0  0  0  0  0  0  0  0  0  # atno 17394 bound_to 11000
  139.9189  135.0199  156.7990 LP  0  0  0  0  0  0  0  0  0  0  0  0  # atno 17395 bound_to 11000

$$$$
