AV-unprocessed.smi:357|AV-procd|sdf|2416|dock10
  -GOLD-   2262022353D 1   1.00000     0.00000
 Structure written by MMmdl.
 37 38  0  0  0  0  0  0  0  0  1 V2000
  151.1712  139.6176  156.8593 O   0  0  0  0  0  0  0  0  0  0  0  0
  150.2314  139.9815  156.1511 C   0  0  0  0  0  0  0  0  0  0  0  0
  149.7471  139.2180  154.9918 C   0  0  0  0  0  0  0  0  0  0  0  0
  150.5494  137.7258  154.6300 Cl  0  0  0  0  0  0  0  0  0  0  0  0
  148.7151  139.6484  154.2169 C   0  0  0  0  0  0  0  0  0  0  0  0
  148.2895  138.9039  153.1231 N   0  0  0  0  0  0  0  0  0  0  0  0
  147.2158  139.1933  152.1837 C   0  0  0  0  0  0  0  0  0  0  0  0
  146.1931  138.0503  152.1063 C   0  0  0  0  0  0  0  0  0  0  0  0
  146.4113  137.2759  150.9464 O   0  0  0  0  0  0  0  0  0  0  0  0
  148.1077  140.9158  154.5948 C   0  0  0  0  0  0  0  0  0  0  0  0
  148.5048  141.6063  155.6071 N   0  0  0  0  0  0  0  0  0  0  0  0
  149.5518  141.1442  156.3781 N   0  0  0  0  0  0  0  0  0  0  0  0
  149.9205  142.0362  157.4823 C   0  0  0  0  0  0  0  0  0  0  0  0
  151.0945  142.9480  157.0956 C   0  0  0  0  0  0  0  0  0  0  0  0
  151.2206  143.9703  158.0744 O   0  0  0  0  0  0  0  0  0  0  0  0
  151.9084  143.6801  159.2331 C   0  0  0  0  0  0  0  0  0  0  0  0
  151.7411  144.5682  160.3158 C   0  0  0  0  0  0  0  0  0  0  0  0
  152.4069  144.3499  161.5373 C   0  0  0  0  0  0  0  0  0  0  0  0
  153.2519  143.2350  161.6885 C   0  0  0  0  0  0  0  0  0  0  0  0
  154.0693  142.9649  163.1836 Cl  0  0  0  0  0  0  0  0  0  0  0  0
  153.4289  142.3408  160.6163 C   0  0  0  0  0  0  0  0  0  0  0  0
  152.7622  142.5590  159.3950 C   0  0  0  0  0  0  0  0  0  0  0  0
  148.7707  138.0312  152.9572 H   0  0  0  0  0  0  0  0  0  0  0  0
  146.7116  140.0810  152.5662 H   0  0  0  0  0  0  0  0  0  0  0  0
  147.5942  139.4678  151.1990 H   0  0  0  0  0  0  0  0  0  0  0  0
  146.2190  137.4223  152.9977 H   0  0  0  0  0  0  0  0  0  0  0  0
  145.1870  138.4640  152.0357 H   0  0  0  0  0  0  0  0  0  0  0  0
  146.0284  136.4221  151.0786 H   0  0  0  0  0  0  0  0  0  0  0  0
  147.2868  141.2624  153.9687 H   0  0  0  0  0  0  0  0  0  0  0  0
  149.0638  142.6498  157.7669 H   0  0  0  0  0  0  0  0  0  0  0  0
  150.1717  141.4594  158.3742 H   0  0  0  0  0  0  0  0  0  0  0  0
  152.0175  142.3683  157.0410 H   0  0  0  0  0  0  0  0  0  0  0  0
  150.9081  143.3867  156.1138 H   0  0  0  0  0  0  0  0  0  0  0  0
  151.0941  145.4266  160.2090 H   0  0  0  0  0  0  0  0  0  0  0  0
  152.2676  145.0394  162.3570 H   0  0  0  0  0  0  0  0  0  0  0  0
  154.0775  141.4844  160.7287 H   0  0  0  0  0  0  0  0  0  0  0  0
  152.9240  141.8509  158.5968 H   0  0  0  0  0  0  0  0  0  0  0  0
  1  2  2  0  0  0  0
  2 12  1  0  0  0  0
  2  3  1  0  0  0  0
  3  4  1  0  0  0  0
  3  5  2  0  0  0  0
  5  6  1  0  0  0  0
  5 10  1  0  0  0  0
  6  7  1  0  0  0  0
  6 23  1  0  0  0  0
  7  8  1  0  0  0  0
  7 24  1  0  0  0  0
  7 25  1  0  0  0  0
  8  9  1  0  0  0  0
  8 26  1  0  0  0  0
  8 27  1  0  0  0  0
  9 28  1  0  0  0  0
 10 11  2  0  0  0  0
 10 29  1  0  0  0  0
 11 12  1  0  0  0  0
 12 13  1  0  0  0  0
 13 14  1  0  0  0  0
 13 30  1  0  0  0  0
 13 31  1  0  0  0  0
 14 15  1  0  0  0  0
 14 32  1  0  0  0  0
 14 33  1  0  0  0  0
 15 16  1  0  0  0  0
 16 22  1  0  0  0  0
 16 17  2  0  0  0  0
 17 18  1  0  0  0  0
 17 34  1  0  0  0  0
 18 19  2  0  0  0  0
 18 35  1  0  0  0  0
 19 20  1  0  0  0  0
 19 21  1  0  0  0  0
 21 22  2  0  0  0  0
 21 36  1  0  0  0  0
 22 37  1  0  0  0  0
M  END
> <s_m_source_file>
AV-unprocessed.smi

> <i_m_source_file_index>
357

> <i_lp_mmshare_version>
43012

> <i_f3d_flags>
0

> <s_epik_input>
W09IXVtDSDJdW0NIMl1bTkhdYyhjKENsKWMxPU8pW2NIXW5uMVtDSDJdW0NIMl1PYzJbY0hdW2NIXWMoQ2wpW2NIXVtjSF0y

> <s_epik_cmdline>
J2VwaWtfcHl0aG9uJywgJy1waCcsICc3LjAnLCAnLXRuJywgJzgnLCAnLW1hJywgJzIwMCcsICctbWV0YWxfYmluZGluZycsICctaW1hZScsICc8aW5maWxlLm1hZT4nLCAnLW9tYWUnLCAnPG91dGZpbGUubWFlPic=

> <r_lp_tautomer_probability>
1

> <r_epik_Ionization_Penalty>
2.22594e-05

> <r_epik_Ionization_Penalty_Charging>
1.05597e-09

> <r_epik_Ionization_Penalty_Neutral>
2.22583e-05

> <r_epik_State_Penalty>
-0

> <r_epik_Charging_Adjusted_Penalty>
1.05597e-09

> <i_epik_Tot_Q>
0

> <i_epik_Tot_abs_Q>
0

> <r_epik_Metal_State_Penalty>
-0

> <b_epik_Metal_Only>
0

> <s_lp_Force_Field>
OPLS_2005

> <r_lp_Energy>
32.065

> <b_lp_Chiralities_Consistent>
1

> <s_lp_Variant>
AV-unprocessed.smi:357-1

> <Gold.Version>
5.8.1

> <Gold.Id.Protein>
6NUR|6NUR_protein|mol2

> <Gold.PLP.Fitness>
55.0615

> <Gold.PLP.PLP>
-51.0096

> <Gold.PLP.part.hbond>
-4.5917

> <Gold.PLP.part.metal>
0.0000

> <Gold.PLP.part.buried>
-0.6119

> <Gold.PLP.part.nonpolar>
-46.7464

> <Gold.PLP.part.repulsive>
0.6710

> <Gold.PLP.ligand.clash>
0.0000

> <Gold.PLP.ligand.torsion>
0.9846

> <Gold.PLP.Chemscore.Hbond>
1.9913

> <Gold.PLP.Chemscore.CHOScore>
0.0000

> <Gold.PLP.Chemscore.Metal>
0.0000

> <Gold.Chemscore.Hbonds>
donor molecule, donor type, donor heavy atom, donor atom, acceptor molecule, acceptor atom, score
      L1  H     6    23       P1  7948  0.84
      P1  H  7954  7966       L1     9  0.76

> <Gold.PLP.Chemscore.Internal.Correction>
0.0472

> <Gold.Rescore>
     Score         DG    S(hbond)    S(metal)    S(lipo)     H(rot)  DE(clash)    DE(int)     intcor
     17.55     -20.40       1.69        0.00     138.51       2.70       1.91       0.94       ----

> <Gold.Chemscore.Fitness>
17.5495

> <Gold.Chemscore.DG>
-20.4023

> <Gold.Chemscore.ZeroCoef>
-5.4800

> <Gold.Chemscore.Hbond>
1.6852

> <Gold.Chemscore.Metal>
0.0000

> <Gold.Chemscore.Lipo>
138.5076

> <Gold.Chemscore.Internal_Hbond>
0.0000

> <Gold.Chemscore.DEClash>
1.9147

> <Gold.Chemscore.DEInternal>
0.9381

> <Gold.Chemscore.Rot>
2.6999

> <Gold.Chemscore.Internal.Correction>
   9.000000E+99

> <Gold.Chemscore.Hbonds>
donor molecule, donor type, donor heavy atom, donor atom, acceptor molecule, acceptor atom, score
      L1  H     6    23       P1  7948  0.79
      P1  H  7954  7966       L1     9  0.64

> <Gold.Chemscore.Hbond.Weighted>
-5.6287

> <Gold.Chemscore.Metal.Weighted>
-0.0000

> <Gold.Chemscore.Lipo.Weighted>
-16.2054

> <Gold.Chemscore.Internal_Hbond.Weighted>
0.0000

> <Gold.Chemscore.DEClash.Weighted>
1.9147

> <Gold.Chemscore.DEInternal.Weighted>
0.9381

> <Gold.Chemscore.Rot.Weighted>
6.9118

> <Gold.Chemscore.Internal.Correction.Weighted>
   9.000000E+99

> <Gold.Protein.RotatedTorsions>
[ 6907 6896 6895 6894 ] final -166.65 input  -60.11 | X-H torsion
[ 7974 7965 7964 7962 ] final -113.11 input  175.53 | X-H torsion
[ 8008 7997 7996 7995 ] final   14.49 input   59.86 | X-H torsion
[ 10167 10162 10161 10158 ] final  133.63 input  -65.29 | X-H torsion
[ 10718 10713 10712 10709 ] final  161.66 input   66.30 | X-H torsion
[ 10763 10752 10751 10750 ] final   65.83 input  -60.55 | X-H torsion
[ 11005 11000 10999 10996 ] final  -15.33 input  -57.11 | X-H torsion

> <Gold.Protein.ActiveResidues>
 VAL166  LYS551  ARG553  GLY616  TRP617  ASP618  TYR619  PRO620  LYS621  CYS622 
 ASP623  PHE694  ASN695  SER759  ASP760  ASP761  ALA762  ILE779  LEU786  VAL792 
 PHE793  MET794  SER795  GLU796  ALA797  LYS798  CYS799  TRP800  GLU811  SER814 

> <Gold.Protein.RotatedAtoms>
  151.4470  133.3627  159.2789 H   0  0  0  0  0  0  0  0  0  0  0  0  # atno 6907 bound_to 6896
  150.9117  134.8536  159.7440 H   0  0  0  0  0  0  0  0  0  0  0  0  # atno 6908 bound_to 6896
  152.4936  134.4401  159.9592 H   0  0  0  0  0  0  0  0  0  0  0  0  # atno 6909 bound_to 6896
  145.1359  140.8751  143.3730 H   0  0  0  0  0  0  0  0  0  0  0  0  # atno 7974 bound_to 7965
  154.8493  140.2927  155.5609 H   0  0  0  0  0  0  0  0  0  0  0  0  # atno 8008 bound_to 7997
  156.3015  140.2499  156.3381 H   0  0  0  0  0  0  0  0  0  0  0  0  # atno 8009 bound_to 7997
  154.9039  140.0390  157.1898 H   0  0  0  0  0  0  0  0  0  0  0  0  # atno 8010 bound_to 7997
  139.5289  144.6606  151.5024 H   0  0  0  0  0  0  0  0  0  0  0  0  # atno 10167 bound_to 10162
  157.1334  131.0522  151.2361 H   0  0  0  0  0  0  0  0  0  0  0  0  # atno 10718 bound_to 10713
  153.0113  135.5342  154.6728 H   0  0  0  0  0  0  0  0  0  0  0  0  # atno 10763 bound_to 10752
  154.5908  135.2858  155.0639 H   0  0  0  0  0  0  0  0  0  0  0  0  # atno 10764 bound_to 10752
  154.1733  135.6528  153.5067 H   0  0  0  0  0  0  0  0  0  0  0  0  # atno 10765 bound_to 10752
  140.7955  133.8255  155.9420 H   0  0  0  0  0  0  0  0  0  0  0  0  # atno 11005 bound_to 11000
  145.0584  139.3125  143.5893 LP  0  0  0  0  0  0  0  0  0  0  0  0  # atno 17320 bound_to 7965
  146.3510  140.0018  142.8675 LP  0  0  0  0  0  0  0  0  0  0  0  0  # atno 17321 bound_to 7965
  140.6453  143.8807  150.6731 LP  0  0  0  0  0  0  0  0  0  0  0  0  # atno 17342 bound_to 10162
  140.2155  143.3850  152.1684 LP  0  0  0  0  0  0  0  0  0  0  0  0  # atno 17343 bound_to 10162
  157.4372  130.7523  149.7039 LP  0  0  0  0  0  0  0  0  0  0  0  0  # atno 17370 bound_to 10713
  155.9803  130.4031  150.3536 LP  0  0  0  0  0  0  0  0  0  0  0  0  # atno 17371 bound_to 10713
  140.9347  134.1977  157.4839 LP  0  0  0  0  0  0  0  0  0  0  0  0  # atno 17394 bound_to 11000
  139.8727  134.9847  156.5252 LP  0  0  0  0  0  0  0  0  0  0  0  0  # atno 17395 bound_to 11000

$$$$
