AV-unprocessed.smi:1417|AV-procd|sdf|5772|dock9
  -GOLD-   22720 5413D 1   1.00000     0.00000
 Structure written by MMmdl.
 39 40  0  0  0  0  0  0  0  0  3 V2000
  150.6958  141.9497  156.0920 C   0  0  0  0  0  0  0  0  0  0  0  0
  150.2984  140.7228  155.3454 C   0  0  0  0  0  0  0  0  0  0  0  0
  149.0875  140.1552  155.0662 C   0  0  0  0  0  0  0  0  0  0  0  0
  149.4434  138.9994  154.3120 C   0  0  0  0  0  0  0  0  0  0  0  0
  148.5482  138.0405  153.7713 N   0  0  0  0  0  0  0  0  0  0  0  0
  147.2526  137.8474  154.0698 C   0  0  0  0  0  0  0  0  0  0  0  0
  146.6024  138.5028  154.8837 O   0  0  0  0  0  0  0  0  0  0  0  0
  146.7371  136.8344  153.3576 N   0  0  0  0  0  0  0  0  0  0  0  0
  145.3514  136.3706  153.4252 C   0  0  2  0  0  0  0  0  0  0  0  0
  145.2562  134.8981  153.8724 C   0  0  0  0  0  0  0  0  0  0  0  0
  145.7656  133.9325  152.7885 C   0  0  0  0  0  0  0  0  0  0  0  0
  145.0412  134.1392  151.5061 N   0  3  2  0  0  0  0  0  0  0  0  0
  145.3901  133.1377  150.4663 C   0  0  0  0  0  0  0  0  0  0  0  0
  144.1943  132.8817  149.5429 C   0  0  0  0  0  0  0  0  0  0  0  0
  143.8739  133.9645  148.8060 N   0  5  0  0  0  0  0  0  0  0  0  0
  143.6494  131.7804  149.5453 O   0  0  0  0  0  0  0  0  0  0  0  0
  145.1753  135.5348  151.0178 C   0  0  0  0  0  0  0  0  0  0  0  0
  144.6599  136.5430  152.0616 C   0  0  0  0  0  0  0  0  0  0  0  0
  150.7484  138.8745  154.1571 N   0  0  0  0  0  0  0  0  0  0  0  0
  151.3048  139.9784  154.8135 O   0  0  0  0  0  0  0  0  0  0  0  0
  149.8239  142.4452  156.5196 H   0  0  0  0  0  0  0  0  0  0  0  0
  151.1971  142.6579  155.4321 H   0  0  0  0  0  0  0  0  0  0  0  0
  151.3777  141.7035  156.9060 H   0  0  0  0  0  0  0  0  0  0  0  0
  148.1160  140.5213  155.3622 H   0  0  0  0  0  0  0  0  0  0  0  0
  148.9415  137.4371  153.0643 H   0  0  0  0  0  0  0  0  0  0  0  0
  147.3448  136.3577  152.7077 H   0  0  0  0  0  0  0  0  0  0  0  0
  144.8260  136.9934  154.1516 H   0  0  0  0  0  0  0  0  0  0  0  0
  145.8038  134.7392  154.8019 H   0  0  0  0  0  0  0  0  0  0  0  0
  144.2151  134.6606  154.0954 H   0  0  0  0  0  0  0  0  0  0  0  0
  146.8364  134.0706  152.6309 H   0  0  0  0  0  0  0  0  0  0  0  0
  145.6303  132.9082  153.1363 H   0  0  0  0  0  0  0  0  0  0  0  0
  146.2194  133.4957  149.8535 H   0  0  0  0  0  0  0  0  0  0  0  0
  145.7253  132.2080  150.9292 H   0  0  0  0  0  0  0  0  0  0  0  0
  144.6165  134.4628  148.3012 H   0  0  0  0  0  0  0  0  0  0  0  0
  146.2191  135.7373  150.7730 H   0  0  0  0  0  0  0  0  0  0  0  0
  144.6055  135.6563  150.0958 H   0  0  0  0  0  0  0  0  0  0  0  0
  143.5852  136.4028  152.1870 H   0  0  0  0  0  0  0  0  0  0  0  0
  144.7906  137.5623  151.6958 H   0  0  0  0  0  0  0  0  0  0  0  0
  144.0589  133.9957  151.6965 H   0  0  0  0  0  0  0  0  0  0  0  0
  1  2  1  0  0  0  0
  1 21  1  0  0  0  0
  1 22  1  0  0  0  0
  1 23  1  0  0  0  0
  2 20  1  0  0  0  0
  2  3  2  0  0  0  0
  3  4  1  0  0  0  0
  3 24  1  0  0  0  0
  4  5  1  0  0  0  0
  4 19  2  0  0  0  0
  5  6  1  0  0  0  0
  5 25  1  0  0  0  0
  6  7  2  0  0  0  0
  6  8  1  0  0  0  0
  8  9  1  0  0  0  0
  8 26  1  0  0  0  0
  9 18  1  0  0  0  0
  9 10  1  0  0  0  0
  9 27  1  0  0  0  0
 10 11  1  0  0  0  0
 10 28  1  0  0  0  0
 10 29  1  0  0  0  0
 11 12  1  0  0  0  0
 11 30  1  0  0  0  0
 11 31  1  0  0  0  0
 12 13  1  0  0  0  0
 12 17  1  0  0  0  0
 12 39  1  0  0  0  0
 13 14  1  0  0  0  0
 13 32  1  0  0  0  0
 13 33  1  0  0  0  0
 14 15  1  0  0  0  0
 14 16  2  0  0  0  0
 15 34  1  0  0  0  0
 17 18  1  0  0  0  0
 17 35  1  0  0  0  0
 17 36  1  0  0  0  0
 18 37  1  0  0  0  0
 18 38  1  0  0  0  0
 19 20  1  0  0  0  0
M  CHG  1  12   1
M  CHG  1  15  -1
M  END
> <s_m_source_file>
AV-unprocessed.smi

> <i_m_source_file_index>
1417

> <i_lp_mmshare_version>
43012

> <i_f3d_flags>
0

> <s_epik_input>
W0NIM11jMVtjSF1jKG5vMSlbTkhdQyg9TylbTkhdW0NIXTJbQ0gyXVtDSDJdTihbQ0gyXVtDSDJdMilbQ0gyXUMoPU8pW05IMl0=

> <s_epik_cmdline>
J2VwaWtfcHl0aG9uJywgJy1waCcsICc3LjAnLCAnLXRuJywgJzgnLCAnLW1hJywgJzIwMCcsICctbWV0YWxfYmluZGluZycsICctaW1hZScsICc8aW5maWxlLm1hZT4nLCAnLW9tYWUnLCAnPG91dGZpbGUubWFlPic=

> <r_epik_Ionization_Penalty>
5.73218

> <r_epik_Ionization_Penalty_Charging>
5.73215

> <r_epik_Ionization_Penalty_Neutral>
3.37968e-05

> <r_epik_State_Penalty>
6.58009

> <r_epik_Charging_Adjusted_Penalty>
12.3122

> <i_epik_Tot_Q>
0

> <i_epik_Tot_abs_Q>
2

> <r_epik_Metal_State_Penalty>
2.55295

> <b_epik_Metal_Only>
1

> <s_lp_Force_Field>
OPLS_2005

> <r_lp_Energy>
7.04924

> <b_lp_Chiralities_Consistent>
1

> <s_lp_Variant>
AV-unprocessed.smi:1417-8

> <Gold.Version>
5.8.1

> <Gold.Id.Protein>
6NUR|6NUR_protein|mol2

> <Gold.PLP.Fitness>
44.1587

> <Gold.PLP.PLP>
-30.4774

> <Gold.PLP.part.hbond>
-6.3003

> <Gold.PLP.part.metal>
0.0000

> <Gold.PLP.part.buried>
-5.6347

> <Gold.PLP.part.nonpolar>
-19.5209

> <Gold.PLP.part.repulsive>
0.5573

> <Gold.PLP.ligand.clash>
0.0000

> <Gold.PLP.ligand.torsion>
0.4143

> <Gold.PLP.Chemscore.Hbond>
4.8280

> <Gold.PLP.Chemscore.CHOScore>
0.0000

> <Gold.PLP.Chemscore.Metal>
0.0000

> <Gold.Chemscore.Hbonds>
donor molecule, donor type, donor heavy atom, donor atom, acceptor molecule, acceptor atom, score
      L1  H     5    25       P1  7948  1.00
      L1  H     8    26       P1  7948  1.00
      L1  H    15    34       P1  7921  1.00
      P1  H  7989  7998       L1    20  0.90
      P1  H 10785 10796       L1    16  0.91

> <Gold.PLP.Chemscore.Internal.Correction>
0.0258

> <Gold.Rescore>
     Score         DG    S(hbond)    S(metal)    S(lipo)     H(rot)  DE(clash)    DE(int)     intcor
     17.13     -18.83       3.90        0.00      46.92       2.02       0.07       1.62       ----

> <Gold.Chemscore.Fitness>
17.1305

> <Gold.Chemscore.DG>
-18.8254

> <Gold.Chemscore.ZeroCoef>
-5.4800

> <Gold.Chemscore.Hbond>
3.8985

> <Gold.Chemscore.Metal>
0.0000

> <Gold.Chemscore.Lipo>
46.9198

> <Gold.Chemscore.Internal_Hbond>
0.0000

> <Gold.Chemscore.DEClash>
0.0726

> <Gold.Chemscore.DEInternal>
1.6223

> <Gold.Chemscore.Rot>
2.0176

> <Gold.Chemscore.Internal.Correction>
   9.000000E+99

> <Gold.Chemscore.Hbonds>
donor molecule, donor type, donor heavy atom, donor atom, acceptor molecule, acceptor atom, score
      L1  H     5    25       P1  7948  0.99
      L1  H     8    26       P1  7948  0.94
      L1  H    15    34       P1  7921  1.00
      P1  H  7989  7998       L1    20  0.05
      P1  H 10785 10796       L1    16  0.90

> <Gold.Chemscore.Hbond.Weighted>
-13.0209

> <Gold.Chemscore.Metal.Weighted>
-0.0000

> <Gold.Chemscore.Lipo.Weighted>
-5.4896

> <Gold.Chemscore.Internal_Hbond.Weighted>
0.0000

> <Gold.Chemscore.DEClash.Weighted>
0.0726

> <Gold.Chemscore.DEInternal.Weighted>
1.6223

> <Gold.Chemscore.Rot.Weighted>
5.1651

> <Gold.Chemscore.Internal.Correction.Weighted>
   9.000000E+99

> <Gold.Protein.RotatedTorsions>
[ 6907 6896 6895 6894 ] final   41.64 input  -60.11 | X-H torsion
[ 7974 7965 7964 7962 ] final  -30.17 input  175.53 | X-H torsion
[ 8008 7997 7996 7995 ] final   82.76 input   59.86 | X-H torsion
[ 10167 10162 10161 10158 ] final   37.01 input  -65.29 | X-H torsion
[ 10718 10713 10712 10709 ] final  115.16 input   66.30 | X-H torsion
[ 10763 10752 10751 10750 ] final  -57.72 input  -60.55 | X-H torsion
[ 11005 11000 10999 10996 ] final  -52.77 input  -57.11 | X-H torsion

> <Gold.Protein.ActiveResidues>
 VAL166  LYS551  ARG553  GLY616  TRP617  ASP618  TYR619  PRO620  LYS621  CYS622 
 ASP623  PHE694  ASN695  SER759  ASP760  ASP761  ALA762  ILE779  LEU786  VAL792 
 PHE793  MET794  SER795  GLU796  ALA797  LYS798  CYS799  TRP800  GLU811  SER814 

> <Gold.Protein.RotatedAtoms>
  152.1979  134.8614  160.0510 H   0  0  0  0  0  0  0  0  0  0  0  0  # atno 6907 bound_to 6896
  151.9479  133.3652  159.3997 H   0  0  0  0  0  0  0  0  0  0  0  0  # atno 6908 bound_to 6896
  150.6948  134.4295  159.5286 H   0  0  0  0  0  0  0  0  0  0  0  0  # atno 6909 bound_to 6896
  146.1162  140.5506  142.8755 H   0  0  0  0  0  0  0  0  0  0  0  0  # atno 7974 bound_to 7965
  155.9149  140.3425  155.6127 H   0  0  0  0  0  0  0  0  0  0  0  0  # atno 8008 bound_to 7997
  155.7344  140.0799  157.2293 H   0  0  0  0  0  0  0  0  0  0  0  0  # atno 8009 bound_to 7997
  154.4061  140.1582  156.2532 H   0  0  0  0  0  0  0  0  0  0  0  0  # atno 8010 bound_to 7997
  140.4073  144.1641  150.6137 H   0  0  0  0  0  0  0  0  0  0  0  0  # atno 10167 bound_to 10162
  157.6239  131.1008  150.7289 H   0  0  0  0  0  0  0  0  0  0  0  0  # atno 10718 bound_to 10713
  154.2268  135.6368  153.5162 H   0  0  0  0  0  0  0  0  0  0  0  0  # atno 10763 bound_to 10752
  152.9957  135.5510  154.6055 H   0  0  0  0  0  0  0  0  0  0  0  0  # atno 10764 bound_to 10752
  154.5529  135.2903  155.0966 H   0  0  0  0  0  0  0  0  0  0  0  0  # atno 10765 bound_to 10752
  141.0942  133.6627  156.4074 H   0  0  0  0  0  0  0  0  0  0  0  0  # atno 11005 bound_to 11000
  144.7555  140.5297  143.6771 LP  0  0  0  0  0  0  0  0  0  0  0  0  # atno 17320 bound_to 7965
  145.5561  139.1478  143.3367 LP  0  0  0  0  0  0  0  0  0  0  0  0  # atno 17321 bound_to 7965
  140.4676  143.2425  151.9134 LP  0  0  0  0  0  0  0  0  0  0  0  0  # atno 17342 bound_to 10162
  139.4783  144.5403  151.8537 LP  0  0  0  0  0  0  0  0  0  0  0  0  # atno 17343 bound_to 10162
  156.7641  130.4808  149.5431 LP  0  0  0  0  0  0  0  0  0  0  0  0  # atno 17370 bound_to 10713
  156.1399  130.6237  151.0453 LP  0  0  0  0  0  0  0  0  0  0  0  0  # atno 17371 bound_to 10713
  140.5181  134.6331  157.5308 LP  0  0  0  0  0  0  0  0  0  0  0  0  # atno 17394 bound_to 11000
  139.9774  134.7193  155.9923 LP  0  0  0  0  0  0  0  0  0  0  0  0  # atno 17395 bound_to 11000

$$$$
