AV-unprocessed.smi:2850|AV-procd|sdf|10968|dock7
  -GOLD-   2272015423D 1   1.00000     0.00000
 Structure written by MMmdl.
 45 46  0  0  0  0  0  0  0  0  2 V2000
  153.1585  142.6998  161.2619 C   0  0  0  0  0  0  0  0  0  0  0  0
  152.4257  143.3369  159.7289 S   0  0  0  0  0  0  0  0  0  0  0  0
  152.2886  141.9764  158.6089 C   0  0  0  0  0  0  0  0  0  0  0  0
  151.0629  141.6836  157.9848 C   0  0  0  0  0  0  0  0  0  0  0  0
  151.0384  140.5830  157.1106 C   0  0  0  0  0  0  0  0  0  0  0  0
  152.2367  139.8628  156.9301 C   0  0  0  0  0  0  0  0  0  0  0  0
  152.2410  138.7605  156.0650 N   0  0  0  0  0  0  0  0  0  0  0  0
  151.7770  138.8984  154.6914 C   0  0  0  0  0  0  0  0  0  0  0  0
  150.6694  137.8875  154.3641 C   0  0  1  0  0  0  0  0  0  0  0  0
  151.1704  136.4343  154.4812 C   0  0  0  0  0  0  0  0  0  0  0  0
  150.0616  135.4783  154.2364 N   0  3  1  0  0  0  0  0  0  0  0  0
  150.4781  134.0529  154.2824 C   0  0  0  0  0  0  0  0  0  0  0  0
  149.7577  133.1735  153.2373 C   0  0  0  0  0  0  0  0  0  0  0  0
  148.2288  133.2319  153.3931 C   0  0  0  0  0  0  0  0  0  0  0  0
  150.2492  131.7208  153.3247 C   0  0  0  0  0  0  0  0  0  0  0  0
  148.9263  135.7630  155.1450 C   0  0  0  0  0  0  0  0  0  0  0  0
  148.4952  137.2329  155.0210 C   0  0  0  0  0  0  0  0  0  0  0  0
  149.6067  138.0762  155.2934 O   0  0  0  0  0  0  0  0  0  0  0  0
  153.3848  140.2076  157.5668 N   0  0  0  0  0  0  0  0  0  0  0  0
  153.4129  141.2545  158.3993 N   0  0  0  0  0  0  0  0  0  0  0  0
  153.2559  143.5033  161.9920 H   0  0  0  0  0  0  0  0  0  0  0  0
  154.1492  142.2877  161.0693 H   0  0  0  0  0  0  0  0  0  0  0  0
  152.5305  141.9189  161.6913 H   0  0  0  0  0  0  0  0  0  0  0  0
  150.1788  142.2760  158.1684 H   0  0  0  0  0  0  0  0  0  0  0  0
  150.1293  140.3028  156.5990 H   0  0  0  0  0  0  0  0  0  0  0  0
  152.7350  137.9210  156.3316 H   0  0  0  0  0  0  0  0  0  0  0  0
  151.3970  139.9120  154.5574 H   0  0  0  0  0  0  0  0  0  0  0  0
  152.6146  138.7743  154.0037 H   0  0  0  0  0  0  0  0  0  0  0  0
  150.3092  138.0659  153.3488 H   0  0  0  0  0  0  0  0  0  0  0  0
  151.9737  136.2742  153.7628 H   0  0  0  0  0  0  0  0  0  0  0  0
  151.5904  136.2600  155.4733 H   0  0  0  0  0  0  0  0  0  0  0  0
  151.5603  133.9921  154.1566 H   0  0  0  0  0  0  0  0  0  0  0  0
  150.2657  133.6473  155.2730 H   0  0  0  0  0  0  0  0  0  0  0  0
  150.0072  133.5274  152.2376 H   0  0  0  0  0  0  0  0  0  0  0  0
  147.9176  132.8914  154.3813 H   0  0  0  0  0  0  0  0  0  0  0  0
  147.7355  132.5993  152.6545 H   0  0  0  0  0  0  0  0  0  0  0  0
  147.8509  134.2450  153.2550 H   0  0  0  0  0  0  0  0  0  0  0  0
  150.0193  131.2810  154.2957 H   0  0  0  0  0  0  0  0  0  0  0  0
  151.3281  131.6601  153.1791 H   0  0  0  0  0  0  0  0  0  0  0  0
  149.7812  131.1003  152.5597 H   0  0  0  0  0  0  0  0  0  0  0  0
  148.0837  135.1140  154.9030 H   0  0  0  0  0  0  0  0  0  0  0  0
  149.2166  135.5436  156.1738 H   0  0  0  0  0  0  0  0  0  0  0  0
  148.0976  137.4419  154.0266 H   0  0  0  0  0  0  0  0  0  0  0  0
  147.7013  137.4535  155.7347 H   0  0  0  0  0  0  0  0  0  0  0  0
  149.7238  135.6494  153.2998 H   0  0  0  0  0  0  0  0  0  0  0  0
  1  2  1  0  0  0  0
  1 21  1  0  0  0  0
  1 22  1  0  0  0  0
  1 23  1  0  0  0  0
  2  3  1  0  0  0  0
  3 20  1  0  0  0  0
  3  4  2  0  0  0  0
  4  5  1  0  0  0  0
  4 24  1  0  0  0  0
  5  6  2  0  0  0  0
  5 25  1  0  0  0  0
  6  7  1  0  0  0  0
  6 19  1  0  0  0  0
  7  8  1  0  0  0  0
  7 26  1  0  0  0  0
  8  9  1  0  0  0  0
  8 27  1  0  0  0  0
  8 28  1  0  0  0  0
  9 18  1  0  0  0  0
  9 10  1  0  0  0  0
  9 29  1  0  0  0  0
 10 11  1  0  0  0  0
 10 30  1  0  0  0  0
 10 31  1  0  0  0  0
 11 12  1  0  0  0  0
 11 16  1  0  0  0  0
 11 45  1  0  0  0  0
 12 13  1  0  0  0  0
 12 32  1  0  0  0  0
 12 33  1  0  0  0  0
 13 14  1  0  0  0  0
 13 15  1  0  0  0  0
 13 34  1  0  0  0  0
 14 35  1  0  0  0  0
 14 36  1  0  0  0  0
 14 37  1  0  0  0  0
 15 38  1  0  0  0  0
 15 39  1  0  0  0  0
 15 40  1  0  0  0  0
 16 17  1  0  0  0  0
 16 41  1  0  0  0  0
 16 42  1  0  0  0  0
 17 18  1  0  0  0  0
 17 43  1  0  0  0  0
 17 44  1  0  0  0  0
 19 20  2  0  0  0  0
M  CHG  1  11   1
M  END
> <s_m_source_file>
AV-unprocessed.smi

> <i_m_source_file_index>
2850

> <i_lp_mmshare_version>
43012

> <i_f3d_flags>
0

> <s_epik_input>
W0NIM11TYzFbY0hdW2NIXWMobm4xKVtOSF1bQ0gyXVtDQEBIXTJbQ0gyXU4oW0NIMl1bQ0gyXU8yKVtDSDJdW0NIXShbQ0gzXSlbQ0gzXQ==

> <s_epik_cmdline>
J2VwaWtfcHl0aG9uJywgJy1waCcsICc3LjAnLCAnLXRuJywgJzgnLCAnLW1hJywgJzIwMCcsICctbWV0YWxfYmluZGluZycsICctaW1hZScsICc8aW5maWxlLm1hZT4nLCAnLW9tYWUnLCAnPG91dGZpbGUubWFlPic=

> <r_lp_tautomer_probability>
0.999978

> <r_epik_Ionization_Penalty>
0.0874875

> <r_epik_Ionization_Penalty_Charging>
0.0831532

> <r_epik_Ionization_Penalty_Neutral>
0.00433433

> <r_epik_State_Penalty>
0.0738301

> <r_epik_Charging_Adjusted_Penalty>
0.156983

> <i_epik_Tot_Q>
1

> <i_epik_Tot_abs_Q>
1

> <r_epik_Metal_State_Penalty>
0.073888

> <b_epik_Metal_Only>
0

> <s_lp_Force_Field>
OPLS_2005

> <r_lp_Energy>
24.628

> <b_lp_Chiralities_Consistent>
1

> <s_lp_Variant>
AV-unprocessed.smi:2850-4

> <Gold.Version>
5.8.1

> <Gold.Id.Protein>
6NUR|6NUR_protein|mol2

> <Gold.PLP.Fitness>
42.4880

> <Gold.PLP.PLP>
-35.4930

> <Gold.PLP.part.hbond>
-2.6051

> <Gold.PLP.part.metal>
0.0000

> <Gold.PLP.part.buried>
-3.0067

> <Gold.PLP.part.nonpolar>
-30.3428

> <Gold.PLP.part.repulsive>
0.2314

> <Gold.PLP.ligand.clash>
0.0000

> <Gold.PLP.ligand.torsion>
1.0254

> <Gold.PLP.Chemscore.Hbond>
3.0000

> <Gold.PLP.Chemscore.CHOScore>
0.0000

> <Gold.PLP.Chemscore.Metal>
0.0000

> <Gold.Chemscore.Hbonds>
donor molecule, donor type, donor heavy atom, donor atom, acceptor molecule, acceptor atom, score
      L1  H    11    45       P1  7948  1.00
      P1  H  7997  8010       L1    19  0.40

> <Gold.PLP.Chemscore.Internal.Correction>
0.0459

> <Gold.Rescore>
     Score         DG    S(hbond)    S(metal)    S(lipo)     H(rot)  DE(clash)    DE(int)     intcor
     15.86     -17.04       1.68        0.00      86.01       1.60       0.05       1.13       ----

> <Gold.Chemscore.Fitness>
15.8577

> <Gold.Chemscore.DG>
-17.0444

> <Gold.Chemscore.ZeroCoef>
-5.4800

> <Gold.Chemscore.Hbond>
1.6759

> <Gold.Chemscore.Metal>
0.0000

> <Gold.Chemscore.Lipo>
86.0140

> <Gold.Chemscore.Internal_Hbond>
0.0000

> <Gold.Chemscore.DEClash>
0.0533

> <Gold.Chemscore.DEInternal>
1.1334

> <Gold.Chemscore.Rot>
1.6003

> <Gold.Chemscore.Internal.Correction>
   9.000000E+99

> <Gold.Chemscore.Hbonds>
donor molecule, donor type, donor heavy atom, donor atom, acceptor molecule, acceptor atom, score
      L1  H    11    45       P1  7948  0.02
      P1  H  7997  8010       L1    19  0.31

> <Gold.Chemscore.Hbond.Weighted>
-5.5975

> <Gold.Chemscore.Metal.Weighted>
-0.0000

> <Gold.Chemscore.Lipo.Weighted>
-10.0636

> <Gold.Chemscore.Internal_Hbond.Weighted>
0.0000

> <Gold.Chemscore.DEClash.Weighted>
0.0533

> <Gold.Chemscore.DEInternal.Weighted>
1.1334

> <Gold.Chemscore.Rot.Weighted>
4.0968

> <Gold.Chemscore.Internal.Correction.Weighted>
   9.000000E+99

> <Gold.Protein.RotatedTorsions>
[ 6907 6896 6895 6894 ] final  166.98 input  -60.11 | X-H torsion
[ 7974 7965 7964 7962 ] final  127.55 input  175.53 | X-H torsion
[ 8008 7997 7996 7995 ] final   48.40 input   59.86 | X-H torsion
[ 10167 10162 10161 10158 ] final  -64.78 input  -65.29 | X-H torsion
[ 10718 10713 10712 10709 ] final -122.95 input   66.30 | X-H torsion
[ 10763 10752 10751 10750 ] final  -83.97 input  -60.55 | X-H torsion
[ 11005 11000 10999 10996 ] final  131.90 input  -57.11 | X-H torsion

> <Gold.Protein.ActiveResidues>
 VAL166  LYS551  ARG553  GLY616  TRP617  ASP618  TYR619  PRO620  LYS621  CYS622 
 ASP623  PHE694  ASN695  SER759  ASP760  ASP761  ALA762  ILE779  LEU786  VAL792 
 PHE793  MET794  SER795  GLU796  ALA797  LYS798  CYS799  TRP800  GLU811  SER814 

> <Gold.Protein.RotatedAtoms>
  151.8705  133.3474  159.3732 H   0  0  0  0  0  0  0  0  0  0  0  0  # atno 6907 bound_to 6896
  150.7154  134.5118  159.5620 H   0  0  0  0  0  0  0  0  0  0  0  0  # atno 6908 bound_to 6896
  152.2649  134.7995  160.0475 H   0  0  0  0  0  0  0  0  0  0  0  0  # atno 6909 bound_to 6896
  145.0493  139.3896  143.5062 H   0  0  0  0  0  0  0  0  0  0  0  0  # atno 7974 bound_to 7965
  155.3850  140.3430  155.4248 H   0  0  0  0  0  0  0  0  0  0  0  0  # atno 8008 bound_to 7997
  156.1589  140.1594  156.8678 H   0  0  0  0  0  0  0  0  0  0  0  0  # atno 8009 bound_to 7997
  154.5121  140.0787  156.7992 H   0  0  0  0  0  0  0  0  0  0  0  0  # atno 8010 bound_to 7997
  140.5777  143.2323  151.6408 H   0  0  0  0  0  0  0  0  0  0  0  0  # atno 10167 bound_to 10162
  156.1461  130.6501  150.9844 H   0  0  0  0  0  0  0  0  0  0  0  0  # atno 10718 bound_to 10713
  154.5940  135.5537  153.7307 H   0  0  0  0  0  0  0  0  0  0  0  0  # atno 10763 bound_to 10752
  153.0128  135.6350  154.1809 H   0  0  0  0  0  0  0  0  0  0  0  0  # atno 10764 bound_to 10752
  154.1750  135.2890  155.3049 H   0  0  0  0  0  0  0  0  0  0  0  0  # atno 10765 bound_to 10752
  139.9758  134.9564  156.9504 H   0  0  0  0  0  0  0  0  0  0  0  0  # atno 11005 bound_to 11000
  146.3516  140.0135  142.8665 LP  0  0  0  0  0  0  0  0  0  0  0  0  # atno 17320 bound_to 7965
  145.1547  140.9641  143.4412 LP  0  0  0  0  0  0  0  0  0  0  0  0  # atno 17321 bound_to 7965
  139.5152  144.3387  152.0760 LP  0  0  0  0  0  0  0  0  0  0  0  0  # atno 17342 bound_to 10162
  140.2533  144.4146  150.6213 LP  0  0  0  0  0  0  0  0  0  0  0  0  # atno 17343 bound_to 10162
  157.6618  131.0879  150.7821 LP  0  0  0  0  0  0  0  0  0  0  0  0  # atno 17370 bound_to 10713
  156.7893  130.4885  149.5387 LP  0  0  0  0  0  0  0  0  0  0  0  0  # atno 17371 bound_to 10713
  140.5199  134.0918  155.7289 LP  0  0  0  0  0  0  0  0  0  0  0  0  # atno 17394 bound_to 11000
  141.1435  133.9097  157.2271 LP  0  0  0  0  0  0  0  0  0  0  0  0  # atno 17395 bound_to 11000

$$$$
