AV-unprocessed.smi:1649|AV-procd|sdf|6635|dock2
  -GOLD-   22720 7333D 1   1.00000     0.00000
 Structure written by MMmdl.
 43 44  0  0  0  0  0  0  0  0  1 V2000
  152.5620  138.6303  159.3313 C   0  0  0  0  0  0  0  0  0  0  0  0
  153.5701  137.2966  158.5649 S   0  0  0  0  0  0  0  0  0  0  0  0
  154.7840  137.9031  157.9966 O   0  0  0  0  0  0  0  0  0  0  0  0
  153.6935  136.2051  159.5437 O   0  0  0  0  0  0  0  0  0  0  0  0
  152.5537  136.7233  157.2087 C   0  0  0  0  0  0  0  0  0  0  0  0
  152.4453  137.4850  156.0278 C   0  0  0  0  0  0  0  0  0  0  0  0
  151.6707  136.9667  154.9727 C   0  0  0  0  0  0  0  0  0  0  0  0
  151.0399  135.7092  155.1396 C   0  0  0  0  0  0  0  0  0  0  0  0
  150.2530  135.0681  154.1449 N   0  0  0  0  0  0  0  0  0  0  0  0
  149.8698  133.7821  154.0744 C   0  0  0  0  0  0  0  0  0  0  0  0
  150.1860  132.8987  154.8708 O   0  0  0  0  0  0  0  0  0  0  0  0
  149.0912  133.5717  153.0037 N   0  0  0  0  0  0  0  0  0  0  0  0
  148.4840  132.2974  152.6232 C   0  0  0  0  0  0  0  0  0  0  0  0
  147.4892  132.4237  151.4424 C   0  0  0  0  0  0  0  0  0  0  0  0
  148.2668  132.5780  150.2683 O   0  0  0  0  0  0  0  0  0  0  0  0
  146.6865  131.1080  151.3009 C   0  0  0  0  0  0  0  0  0  0  0  0
  145.6128  131.1670  150.1996 C   0  0  0  0  0  0  0  0  0  0  0  0
  144.6658  132.3561  150.4088 C   0  0  0  0  0  0  0  0  0  0  0  0
  145.4494  133.6735  150.4803 C   0  0  0  0  0  0  0  0  0  0  0  0
  146.5265  133.6316  151.5792 C   0  0  0  0  0  0  0  0  0  0  0  0
  151.2412  135.0266  156.3585 C   0  0  0  0  0  0  0  0  0  0  0  0
  151.9826  135.5118  157.3762 N   0  0  0  0  0  0  0  0  0  0  0  0
  153.1004  139.0491  160.1811 H   0  0  0  0  0  0  0  0  0  0  0  0
  151.6116  138.2185  159.6699 H   0  0  0  0  0  0  0  0  0  0  0  0
  152.3770  139.4140  158.5968 H   0  0  0  0  0  0  0  0  0  0  0  0
  152.9432  138.4377  155.9257 H   0  0  0  0  0  0  0  0  0  0  0  0
  151.5935  137.5339  154.0585 H   0  0  0  0  0  0  0  0  0  0  0  0
  149.9756  135.6541  153.3710 H   0  0  0  0  0  0  0  0  0  0  0  0
  148.8855  134.3594  152.4069 H   0  0  0  0  0  0  0  0  0  0  0  0
  149.2863  131.6045  152.3657 H   0  0  0  0  0  0  0  0  0  0  0  0
  147.9806  131.8543  153.4843 H   0  0  0  0  0  0  0  0  0  0  0  0
  148.6044  131.7307  150.0210 H   0  0  0  0  0  0  0  0  0  0  0  0
  147.3607  130.2718  151.1102 H   0  0  0  0  0  0  0  0  0  0  0  0
  146.1942  130.8857  152.2488 H   0  0  0  0  0  0  0  0  0  0  0  0
  146.0874  131.2424  149.2204 H   0  0  0  0  0  0  0  0  0  0  0  0
  145.0423  130.2379  150.1915 H   0  0  0  0  0  0  0  0  0  0  0  0
  143.9374  132.3992  149.5986 H   0  0  0  0  0  0  0  0  0  0  0  0
  144.0982  132.2161  151.3295 H   0  0  0  0  0  0  0  0  0  0  0  0
  145.9146  133.8755  149.5149 H   0  0  0  0  0  0  0  0  0  0  0  0
  144.7643  134.5008  150.6680 H   0  0  0  0  0  0  0  0  0  0  0  0
  146.0338  133.5853  152.5512 H   0  0  0  0  0  0  0  0  0  0  0  0
  147.0805  134.5706  151.5647 H   0  0  0  0  0  0  0  0  0  0  0  0
  150.7933  134.0574  156.5237 H   0  0  0  0  0  0  0  0  0  0  0  0
  1  2  1  0  0  0  0
  1 23  1  0  0  0  0
  1 24  1  0  0  0  0
  1 25  1  0  0  0  0
  2  3  2  0  0  0  0
  2  4  2  0  0  0  0
  2  5  1  0  0  0  0
  5 22  1  0  0  0  0
  5  6  2  0  0  0  0
  6  7  1  0  0  0  0
  6 26  1  0  0  0  0
  7  8  2  0  0  0  0
  7 27  1  0  0  0  0
  8  9  1  0  0  0  0
  8 21  1  0  0  0  0
  9 10  1  0  0  0  0
  9 28  1  0  0  0  0
 10 11  2  0  0  0  0
 10 12  1  0  0  0  0
 12 13  1  0  0  0  0
 12 29  1  0  0  0  0
 13 14  1  0  0  0  0
 13 30  1  0  0  0  0
 13 31  1  0  0  0  0
 14 20  1  0  0  0  0
 14 15  1  0  0  0  0
 14 16  1  0  0  0  0
 15 32  1  0  0  0  0
 16 17  1  0  0  0  0
 16 33  1  0  0  0  0
 16 34  1  0  0  0  0
 17 18  1  0  0  0  0
 17 35  1  0  0  0  0
 17 36  1  0  0  0  0
 18 19  1  0  0  0  0
 18 37  1  0  0  0  0
 18 38  1  0  0  0  0
 19 20  1  0  0  0  0
 19 39  1  0  0  0  0
 19 40  1  0  0  0  0
 20 41  1  0  0  0  0
 20 42  1  0  0  0  0
 21 22  2  0  0  0  0
 21 43  1  0  0  0  0
M  END
> <s_m_source_file>
AV-unprocessed.smi

> <i_m_source_file_index>
1649

> <i_lp_mmshare_version>
43012

> <i_f3d_flags>
0

> <s_epik_input>
W0NIM11TKD1PKSg9TyljMVtjSF1bY0hdYyhbY0hdbjEpW05IXUMoPU8pW05IXVtDSDJdQzIoW09IXSlbQ0gyXVtDSDJdW0NIMl1bQ0gyXVtDSDJdMg==

> <s_epik_cmdline>
J2VwaWtfcHl0aG9uJywgJy1waCcsICc3LjAnLCAnLXRuJywgJzgnLCAnLW1hJywgJzIwMCcsICctbWV0YWxfYmluZGluZycsICctaW1hZScsICc8aW5maWxlLm1hZT4nLCAnLW9tYWUnLCAnPG91dGZpbGUubWFlPic=

> <r_lp_tautomer_probability>
1

> <r_epik_Ionization_Penalty>
4.25152e-05

> <r_epik_Ionization_Penalty_Charging>
0

> <r_epik_Ionization_Penalty_Neutral>
4.25152e-05

> <r_epik_State_Penalty>
-0

> <r_epik_Charging_Adjusted_Penalty>
0

> <i_epik_Tot_Q>
0

> <i_epik_Tot_abs_Q>
0

> <r_epik_Metal_State_Penalty>
-0

> <b_epik_Metal_Only>
0

> <s_lp_Force_Field>
OPLS_2005

> <r_lp_Energy>
14.216

> <b_lp_Chiralities_Consistent>
1

> <s_lp_Variant>
AV-unprocessed.smi:1649-1

> <Gold.Version>
5.8.1

> <Gold.Id.Protein>
6NUR|6NUR_protein|mol2

> <Gold.PLP.Fitness>
49.5644

> <Gold.PLP.PLP>
-35.9379

> <Gold.PLP.part.hbond>
-5.8843

> <Gold.PLP.part.metal>
0.0000

> <Gold.PLP.part.buried>
-5.6949

> <Gold.PLP.part.nonpolar>
-24.1838

> <Gold.PLP.part.repulsive>
0.0638

> <Gold.PLP.ligand.clash>
0.0000

> <Gold.PLP.ligand.torsion>
1.2589

> <Gold.PLP.Chemscore.Hbond>
4.7040

> <Gold.PLP.Chemscore.CHOScore>
0.0000

> <Gold.PLP.Chemscore.Metal>
0.0000

> <Gold.Chemscore.Hbonds>
donor molecule, donor type, donor heavy atom, donor atom, acceptor molecule, acceptor atom, score
      L1  H     9    28       P1  7948  0.25
      L1  H    12    29       P1  7948  0.10
      P1  H  6896  6907       L1     4  0.96
      P1  H  7997  8010       L1     3  0.37

> <Gold.PLP.Chemscore.Internal.Correction>
2.0322

> <Gold.Rescore>
     Score         DG    S(hbond)    S(metal)    S(lipo)     H(rot)  DE(clash)    DE(int)     intcor
     21.92     -24.48       4.38        0.00      76.97       1.80       0.09       2.46       ----

> <Gold.Chemscore.Fitness>
21.9216

> <Gold.Chemscore.DG>
-24.4771

> <Gold.Chemscore.ZeroCoef>
-5.4800

> <Gold.Chemscore.Hbond>
4.3750

> <Gold.Chemscore.Metal>
0.0000

> <Gold.Chemscore.Lipo>
76.9655

> <Gold.Chemscore.Internal_Hbond>
0.0000

> <Gold.Chemscore.DEClash>
0.0925

> <Gold.Chemscore.DEInternal>
2.4631

> <Gold.Chemscore.Rot>
1.8049

> <Gold.Chemscore.Internal.Correction>
   9.000000E+99

> <Gold.Chemscore.Hbonds>
donor molecule, donor type, donor heavy atom, donor atom, acceptor molecule, acceptor atom, score
      P1  H  6896  6907       L1     4  0.85
      P1  H  7997  8010       L1     3  0.38

> <Gold.Chemscore.Hbond.Weighted>
-14.6126

> <Gold.Chemscore.Metal.Weighted>
-0.0000

> <Gold.Chemscore.Lipo.Weighted>
-9.0050

> <Gold.Chemscore.Internal_Hbond.Weighted>
0.0000

> <Gold.Chemscore.DEClash.Weighted>
0.0925

> <Gold.Chemscore.DEInternal.Weighted>
2.4631

> <Gold.Chemscore.Rot.Weighted>
4.6205

> <Gold.Chemscore.Internal.Correction.Weighted>
   9.000000E+99

> <Gold.Protein.RotatedTorsions>
[ 6907 6896 6895 6894 ] final   31.30 input  -60.11 | X-H torsion
[ 7974 7965 7964 7962 ] final -169.76 input  175.53 | X-H torsion
[ 8008 7997 7996 7995 ] final   17.77 input   59.86 | X-H torsion
[ 10167 10162 10161 10158 ] final  160.29 input  -65.29 | X-H torsion
[ 10718 10713 10712 10709 ] final  125.82 input   66.30 | X-H torsion
[ 10763 10752 10751 10750 ] final -175.42 input  -60.55 | X-H torsion
[ 11005 11000 10999 10996 ] final  134.47 input  -57.11 | X-H torsion

> <Gold.Protein.ActiveResidues>
 VAL166  LYS551  ARG553  GLY616  TRP617  ASP618  TYR619  PRO620  LYS621  CYS622 
 ASP623  PHE694  ASN695  SER759  ASP760  ASP761  ALA762  ILE779  LEU786  VAL792 
 PHE793  MET794  SER795  GLU796  ALA797  LYS798  CYS799  TRP800  GLU811  SER814 

> <Gold.Protein.RotatedAtoms>
  152.0583  134.9610  160.0574 H   0  0  0  0  0  0  0  0  0  0  0  0  # atno 6907 bound_to 6896
  152.0983  133.4232  159.4584 H   0  0  0  0  0  0  0  0  0  0  0  0  # atno 6908 bound_to 6896
  150.6838  134.2709  159.4631 H   0  0  0  0  0  0  0  0  0  0  0  0  # atno 6909 bound_to 6896
  144.7180  140.2173  143.6320 H   0  0  0  0  0  0  0  0  0  0  0  0  # atno 7974 bound_to 7965
  154.8963  140.2994  155.5342 H   0  0  0  0  0  0  0  0  0  0  0  0  # atno 8008 bound_to 7997
  156.3020  140.2415  156.3920 H   0  0  0  0  0  0  0  0  0  0  0  0  # atno 8009 bound_to 7997
  154.8567  140.0407  157.1628 H   0  0  0  0  0  0  0  0  0  0  0  0  # atno 8010 bound_to 7997
  139.4839  144.4649  151.8655 H   0  0  0  0  0  0  0  0  0  0  0  0  # atno 10167 bound_to 10162
  157.5471  131.1095  150.8764 H   0  0  0  0  0  0  0  0  0  0  0  0  # atno 10718 bound_to 10713
  154.5845  135.2839  155.0698 H   0  0  0  0  0  0  0  0  0  0  0  0  # atno 10763 bound_to 10752
  154.2022  135.6422  153.5094 H   0  0  0  0  0  0  0  0  0  0  0  0  # atno 10764 bound_to 10752
  153.0099  135.5472  154.6510 H   0  0  0  0  0  0  0  0  0  0  0  0  # atno 10765 bound_to 10752
  139.9917  134.9512  156.9871 H   0  0  0  0  0  0  0  0  0  0  0  0  # atno 11005 bound_to 11000
  145.8534  139.2187  143.1759 LP  0  0  0  0  0  0  0  0  0  0  0  0  # atno 17320 bound_to 7965
  146.0240  140.8321  142.9909 LP  0  0  0  0  0  0  0  0  0  0  0  0  # atno 17321 bound_to 7965
  140.4113  144.2365  150.5889 LP  0  0  0  0  0  0  0  0  0  0  0  0  # atno 17342 bound_to 10162
  140.4963  143.2331  151.8744 LP  0  0  0  0  0  0  0  0  0  0  0  0  # atno 17343 bound_to 10162
  156.9300  130.5346  149.5279 LP  0  0  0  0  0  0  0  0  0  0  0  0  # atno 17370 bound_to 10713
  156.0545  130.5608  150.9061 LP  0  0  0  0  0  0  0  0  0  0  0  0  # atno 17371 bound_to 10713
  140.4896  134.1207  155.7230 LP  0  0  0  0  0  0  0  0  0  0  0  0  # atno 17394 bound_to 11000
  141.1571  133.8862  157.1948 LP  0  0  0  0  0  0  0  0  0  0  0  0  # atno 17395 bound_to 11000

$$$$
