AV-unprocessed.smi:3089|AV-procd|sdf|11771|dock3
  -GOLD-   2272017153D 1   1.00000     0.00000
 Structure written by MMmdl.
 25 25  0  0  0  0  0  0  0  0  2 V2000
  151.1573  141.9338  156.1117 C   0  0  0  0  0  0  0  0  0  0  0  0
  150.0512  141.0820  155.7296 N   0  0  0  0  0  0  0  0  0  0  0  0
  148.8129  141.4435  155.2459 C   0  0  0  0  0  0  0  0  0  0  0  0
  148.1012  140.2958  155.0251 C   0  0  0  0  0  0  0  0  0  0  0  0
  146.6919  140.1471  154.4910 C   0  0  2  0  0  0  0  0  0  0  0  0
  146.3890  138.6649  154.2119 C   0  0  0  0  0  0  0  0  0  0  0  0
  146.5222  140.8159  153.2548 O   0  0  0  0  0  0  0  0  0  0  0  0
  145.6569  140.7338  155.4765 C   0  0  0  0  0  0  0  0  0  0  0  0
  144.2691  140.4820  155.0447 N   0  3  0  0  0  0  0  0  0  0  0  0
  149.0125  139.2715  155.4195 C   0  0  0  0  0  0  0  0  0  0  0  0
  150.1762  139.7442  155.8339 N   0  0  0  0  0  0  0  0  0  0  0  0
  150.8919  142.9811  155.9652 H   0  0  0  0  0  0  0  0  0  0  0  0
  152.0310  141.7014  155.5020 H   0  0  0  0  0  0  0  0  0  0  0  0
  151.4007  141.7742  157.1624 H   0  0  0  0  0  0  0  0  0  0  0  0
  148.5417  142.4787  155.0985 H   0  0  0  0  0  0  0  0  0  0  0  0
  146.4595  138.0660  155.1207 H   0  0  0  0  0  0  0  0  0  0  0  0
  147.0900  138.2461  153.4886 H   0  0  0  0  0  0  0  0  0  0  0  0
  145.3835  138.5301  153.8111 H   0  0  0  0  0  0  0  0  0  0  0  0
  145.5985  140.8645  153.0595 H   0  0  0  0  0  0  0  0  0  0  0  0
  145.7942  140.3179  156.4755 H   0  0  0  0  0  0  0  0  0  0  0  0
  145.7900  141.8126  155.5658 H   0  0  0  0  0  0  0  0  0  0  0  0
  143.9482  139.6021  155.4222 H   0  0  0  0  0  0  0  0  0  0  0  0
  144.2350  140.4513  154.0356 H   0  0  0  0  0  0  0  0  0  0  0  0
  148.8645  138.2016  155.4126 H   0  0  0  0  0  0  0  0  0  0  0  0
  143.6757  141.2295  155.3755 H   0  0  0  0  0  0  0  0  0  0  0  0
  1  2  1  0  0  0  0
  1 12  1  0  0  0  0
  1 13  1  0  0  0  0
  1 14  1  0  0  0  0
  2 11  1  0  0  0  0
  2  3  1  0  0  0  0
  3  4  2  0  0  0  0
  3 15  1  0  0  0  0
  4  5  1  0  0  0  0
  4 10  1  0  0  0  0
  5  6  1  0  0  0  0
  5  7  1  0  0  0  0
  5  8  1  0  0  0  0
  6 16  1  0  0  0  0
  6 17  1  0  0  0  0
  6 18  1  0  0  0  0
  7 19  1  0  0  0  0
  8  9  1  0  0  0  0
  8 20  1  0  0  0  0
  8 21  1  0  0  0  0
  9 22  1  0  0  0  0
  9 23  1  0  0  0  0
  9 25  1  0  0  0  0
 10 11  2  0  0  0  0
 10 24  1  0  0  0  0
M  CHG  1   9   1
M  END
> <s_m_source_file>
AV-unprocessed.smi

> <i_m_source_file_index>
3089

> <i_lp_mmshare_version>
43012

> <i_f3d_flags>
0

> <s_epik_input>
W0NIM11uMVtjSF1jKFtjSF1uMSlbQ0BAXShbQ0gzXSkoW09IXSlbQ0gyXVtOSDJd

> <s_epik_cmdline>
J2VwaWtfcHl0aG9uJywgJy1waCcsICc3LjAnLCAnLXRuJywgJzgnLCAnLW1hJywgJzIwMCcsICctbWV0YWxfYmluZGluZycsICctaW1hZScsICc8aW5maWxlLm1hZT4nLCAnLW9tYWUnLCAnPG91dGZpbGUubWFlPic=

> <r_lp_tautomer_probability>
1

> <r_epik_Ionization_Penalty>
0.0140512

> <r_epik_Ionization_Penalty_Charging>
0.0140431

> <r_epik_Ionization_Penalty_Neutral>
8.10489e-06

> <r_epik_State_Penalty>
0.0109628

> <r_epik_Charging_Adjusted_Penalty>
0.0250059

> <i_epik_Tot_Q>
1

> <i_epik_Tot_abs_Q>
1

> <r_epik_Metal_State_Penalty>
0.0109638

> <b_epik_Metal_Only>
0

> <s_lp_Force_Field>
OPLS_2005

> <r_lp_Energy>
3.27267

> <b_lp_Chiralities_Consistent>
1

> <s_lp_Variant>
AV-unprocessed.smi:3089-2

> <Gold.Version>
5.8.1

> <Gold.Id.Protein>
6NUR|6NUR_protein|mol2

> <Gold.PLP.Fitness>
34.4882

> <Gold.PLP.PLP>
-19.7693

> <Gold.PLP.part.hbond>
-2.9520

> <Gold.PLP.part.metal>
0.0000

> <Gold.PLP.part.buried>
-1.1850

> <Gold.PLP.part.nonpolar>
-14.4587

> <Gold.PLP.part.repulsive>
0.0613

> <Gold.PLP.ligand.clash>
0.0000

> <Gold.PLP.ligand.torsion>
0.1625

> <Gold.PLP.Chemscore.Hbond>
3.9913

> <Gold.PLP.Chemscore.CHOScore>
1.0179

> <Gold.PLP.Chemscore.Metal>
0.0000

> <Gold.Chemscore.Hbonds>
donor molecule, donor type, donor heavy atom, donor atom, acceptor molecule, acceptor atom, score
      L1  H     7    19       P1 10175  1.00
      L1  H     9    23       P1 10175  2.00
      L1  C     3    15       P1  8028  1.00

> <Gold.PLP.Chemscore.Internal.Correction>
0.0165

> <Gold.Rescore>
     Score         DG    S(hbond)    S(metal)    S(lipo)     H(rot)  DE(clash)    DE(int)     intcor
     12.93     -13.41       2.35        0.00      41.94       1.89       0.45       0.04       ----

> <Gold.Chemscore.Fitness>
12.9279

> <Gold.Chemscore.DG>
-13.4136

> <Gold.Chemscore.ZeroCoef>
-5.4800

> <Gold.Chemscore.Hbond>
2.3534

> <Gold.Chemscore.Metal>
0.0000

> <Gold.Chemscore.Lipo>
41.9419

> <Gold.Chemscore.Internal_Hbond>
0.0000

> <Gold.Chemscore.DEClash>
0.4467

> <Gold.Chemscore.DEInternal>
0.0390

> <Gold.Chemscore.Rot>
1.8883

> <Gold.Chemscore.Internal.Correction>
   9.000000E+99

> <Gold.Chemscore.Hbonds>
donor molecule, donor type, donor heavy atom, donor atom, acceptor molecule, acceptor atom, score
      L1  H     7    19       P1 10175  0.47
      L1  H     9    23       P1 10175  0.99

> <Gold.Chemscore.Hbond.Weighted>
-7.8604

> <Gold.Chemscore.Metal.Weighted>
-0.0000

> <Gold.Chemscore.Lipo.Weighted>
-4.9072

> <Gold.Chemscore.Internal_Hbond.Weighted>
0.0000

> <Gold.Chemscore.DEClash.Weighted>
0.4467

> <Gold.Chemscore.DEInternal.Weighted>
0.0390

> <Gold.Chemscore.Rot.Weighted>
4.8341

> <Gold.Chemscore.Internal.Correction.Weighted>
   9.000000E+99

> <Gold.Protein.RotatedTorsions>
[ 6907 6896 6895 6894 ] final  -79.88 input  -60.11 | X-H torsion
[ 7974 7965 7964 7962 ] final  -62.52 input  175.53 | X-H torsion
[ 8008 7997 7996 7995 ] final   44.72 input   59.86 | X-H torsion
[ 10167 10162 10161 10158 ] final  -32.66 input  -65.29 | X-H torsion
[ 10718 10713 10712 10709 ] final  -72.99 input   66.30 | X-H torsion
[ 10763 10752 10751 10750 ] final  -70.47 input  -60.55 | X-H torsion
[ 11005 11000 10999 10996 ] final -151.68 input  -57.11 | X-H torsion

> <Gold.Protein.ActiveResidues>
 VAL166  LYS551  ARG553  GLY616  TRP617  ASP618  TYR619  PRO620  LYS621  CYS622 
 ASP623  PHE694  ASN695  SER759  ASP760  ASP761  ALA762  ILE779  LEU786  VAL792 
 PHE793  MET794  SER795  GLU796  ALA797  LYS798  CYS799  TRP800  GLU811  SER814 

> <Gold.Protein.RotatedAtoms>
  150.6940  134.4054  159.5137 H   0  0  0  0  0  0  0  0  0  0  0  0  # atno 6907 bound_to 6896
  152.1821  134.8742  160.0534 H   0  0  0  0  0  0  0  0  0  0  0  0  # atno 6908 bound_to 6896
  151.9729  133.3697  159.4115 H   0  0  0  0  0  0  0  0  0  0  0  0  # atno 6909 bound_to 6896
  145.7903  140.8713  143.0284 H   0  0  0  0  0  0  0  0  0  0  0  0  # atno 7974 bound_to 7965
  155.3240  140.3398  155.4240 H   0  0  0  0  0  0  0  0  0  0  0  0  # atno 8008 bound_to 7997
  156.1895  140.1692  156.8157 H   0  0  0  0  0  0  0  0  0  0  0  0  # atno 8009 bound_to 7997
  154.5425  140.0722  156.8517 H   0  0  0  0  0  0  0  0  0  0  0  0  # atno 8010 bound_to 7997
  140.7217  143.3678  151.1837 H   0  0  0  0  0  0  0  0  0  0  0  0  # atno 10167 bound_to 10162
  156.0298  130.4384  150.2675 H   0  0  0  0  0  0  0  0  0  0  0  0  # atno 10718 bound_to 10713
  154.4181  135.5993  153.5993 H   0  0  0  0  0  0  0  0  0  0  0  0  # atno 10763 bound_to 10752
  152.9793  135.5945  154.3988 H   0  0  0  0  0  0  0  0  0  0  0  0  # atno 10764 bound_to 10752
  154.3810  135.2841  155.2190 H   0  0  0  0  0  0  0  0  0  0  0  0  # atno 10765 bound_to 10752
  140.7269  134.3664  157.5173 H   0  0  0  0  0  0  0  0  0  0  0  0  # atno 11005 bound_to 11000
  144.6783  140.0114  143.7484 LP  0  0  0  0  0  0  0  0  0  0  0  0  # atno 17320 bound_to 7965
  145.9984  139.3071  143.0943 LP  0  0  0  0  0  0  0  0  0  0  0  0  # atno 17321 bound_to 7965
  139.7243  143.9174  152.2997 LP  0  0  0  0  0  0  0  0  0  0  0  0  # atno 17342 bound_to 10162
  139.8941  144.6949  150.8737 LP  0  0  0  0  0  0  0  0  0  0  0  0  # atno 17343 bound_to 10162
  157.0778  131.0135  151.3167 LP  0  0  0  0  0  0  0  0  0  0  0  0  # atno 17370 bound_to 10713
  157.4950  130.7845  149.7546 LP  0  0  0  0  0  0  0  0  0  0  0  0  # atno 17371 bound_to 10713
  139.8835  134.8992  156.2763 LP  0  0  0  0  0  0  0  0  0  0  0  0  # atno 17394 bound_to 11000
  140.9955  133.7183  156.0878 LP  0  0  0  0  0  0  0  0  0  0  0  0  # atno 17395 bound_to 11000

$$$$
