AV-unprocessed.smi:1999|AV-procd|sdf|8099|dock8
  -GOLD-   2272010323D 1   1.00000     0.00000
 Structure written by MMmdl.
 38 39  0  0  0  0  0  0  0  0  3 V2000
  149.0740  134.4760  154.4074 C   0  0  0  0  0  0  0  0  0  0  0  0
  150.1322  135.3088  155.0461 C   0  0  0  0  0  0  0  0  0  0  0  0
  151.2176  134.7861  155.6226 N   0  0  0  0  0  0  0  0  0  0  0  0
  152.0538  135.7627  156.1433 N   0  0  0  0  0  0  0  0  0  0  0  0
  151.5966  137.0073  155.9435 C   0  0  0  0  0  0  0  0  0  0  0  0
  152.2618  138.0948  156.3665 N   0  5  0  0  0  0  0  0  0  0  0  0
  151.8447  139.3241  155.9930 C   0  0  0  0  0  0  0  0  0  0  0  0
  152.4135  140.0766  155.1992 O   0  0  0  0  0  0  0  0  0  0  0  0
  150.7179  139.7194  156.6051 N   0  0  0  0  0  0  0  0  0  0  0  0
  150.0832  141.0352  156.5039 C   0  0  1  0  0  0  0  0  0  0  0  0
  151.1215  142.1242  156.8053 C   0  0  0  0  0  0  0  0  0  0  0  0
  149.4483  141.2276  155.1078 C   0  0  0  0  0  0  0  0  0  0  0  0
  148.1831  142.0023  155.1595 N   0  3  0  0  0  0  0  0  0  0  0  0
  147.4312  142.0001  153.8826 C   0  0  0  0  0  0  0  0  0  0  0  0
  146.2060  142.9217  153.9958 C   0  0  0  0  0  0  0  0  0  0  0  0
  145.3867  142.4907  155.0767 O   0  0  0  0  0  0  0  0  0  0  0  0
  146.0719  142.5494  156.3225 C   0  0  0  0  0  0  0  0  0  0  0  0
  147.2984  141.6218  156.2838 C   0  0  0  0  0  0  0  0  0  0  0  0
  150.0530  137.0621  155.0939 S   0  0  0  0  0  0  0  0  0  0  0  0
  149.2141  134.4625  153.3264 H   0  0  0  0  0  0  0  0  0  0  0  0
  148.0889  134.8871  154.6286 H   0  0  0  0  0  0  0  0  0  0  0  0
  149.1154  133.4518  154.7798 H   0  0  0  0  0  0  0  0  0  0  0  0
  150.2858  139.0579  157.2339 H   0  0  0  0  0  0  0  0  0  0  0  0
  149.3046  141.1228  157.2628 H   0  0  0  0  0  0  0  0  0  0  0  0
  150.6720  143.1165  156.7632 H   0  0  0  0  0  0  0  0  0  0  0  0
  151.9435  142.1007  156.0888 H   0  0  0  0  0  0  0  0  0  0  0  0
  151.5451  141.9971  157.8022 H   0  0  0  0  0  0  0  0  0  0  0  0
  150.1497  141.7035  154.4208 H   0  0  0  0  0  0  0  0  0  0  0  0
  149.2415  140.2395  154.6937 H   0  0  0  0  0  0  0  0  0  0  0  0
  148.0689  142.3382  153.0661 H   0  0  0  0  0  0  0  0  0  0  0  0
  147.1154  140.9840  153.6420 H   0  0  0  0  0  0  0  0  0  0  0  0
  146.5116  143.9591  154.1432 H   0  0  0  0  0  0  0  0  0  0  0  0
  145.6240  142.8881  153.0747 H   0  0  0  0  0  0  0  0  0  0  0  0
  146.3690  143.5771  156.5389 H   0  0  0  0  0  0  0  0  0  0  0  0
  145.3913  142.2407  157.1158 H   0  0  0  0  0  0  0  0  0  0  0  0
  146.9856  140.5826  156.1717 H   0  0  0  0  0  0  0  0  0  0  0  0
  147.8420  141.6971  157.2264 H   0  0  0  0  0  0  0  0  0  0  0  0
  148.4561  142.9601  155.3340 H   0  0  0  0  0  0  0  0  0  0  0  0
  1  2  1  0  0  0  0
  1 20  1  0  0  0  0
  1 21  1  0  0  0  0
  1 22  1  0  0  0  0
  2 19  1  0  0  0  0
  2  3  2  0  0  0  0
  3  4  1  0  0  0  0
  4  5  2  0  0  0  0
  5  6  1  0  0  0  0
  5 19  1  0  0  0  0
  6  7  1  0  0  0  0
  7  8  2  0  0  0  0
  7  9  1  0  0  0  0
  9 10  1  0  0  0  0
  9 23  1  0  0  0  0
 10 11  1  0  0  0  0
 10 12  1  0  0  0  0
 10 24  1  0  0  0  0
 11 25  1  0  0  0  0
 11 26  1  0  0  0  0
 11 27  1  0  0  0  0
 12 13  1  0  0  0  0
 12 28  1  0  0  0  0
 12 29  1  0  0  0  0
 13 18  1  0  0  0  0
 13 14  1  0  0  0  0
 13 38  1  0  0  0  0
 14 15  1  0  0  0  0
 14 30  1  0  0  0  0
 14 31  1  0  0  0  0
 15 16  1  0  0  0  0
 15 32  1  0  0  0  0
 15 33  1  0  0  0  0
 16 17  1  0  0  0  0
 17 18  1  0  0  0  0
 17 34  1  0  0  0  0
 17 35  1  0  0  0  0
 18 36  1  0  0  0  0
 18 37  1  0  0  0  0
M  CHG  1   6  -1
M  CHG  1  13   1
M  END
> <s_m_source_file>
AV-unprocessed.smi

> <i_m_source_file_index>
1999

> <i_lp_mmshare_version>
43012

> <i_f3d_flags>
0

> <s_epik_input>
W0NIM11jMW5uYyhzMSlbTkhdQyg9TylbTkhdW0NASF0oW0NIM10pW0NIMl1OMltDSDJdW0NIMl1PW0NIMl1bQ0gyXTI=

> <s_epik_cmdline>
J2VwaWtfcHl0aG9uJywgJy1waCcsICc3LjAnLCAnLXRuJywgJzgnLCAnLW1hJywgJzIwMCcsICctbWV0YWxfYmluZGluZycsICctaW1hZScsICc8aW5maWxlLm1hZT4nLCAnLW9tYWUnLCAnPG91dGZpbGUubWFlPic=

> <r_lp_tautomer_probability>
1

> <r_epik_Ionization_Penalty>
3.39984

> <r_epik_Ionization_Penalty_Charging>
3.28696

> <r_epik_Ionization_Penalty_Neutral>
0.11288

> <r_epik_State_Penalty>
3.47917

> <r_epik_Charging_Adjusted_Penalty>
6.76613

> <i_epik_Tot_Q>
0

> <i_epik_Tot_abs_Q>
2

> <r_epik_Metal_State_Penalty>
1.13142

> <b_epik_Metal_Only>
1

> <s_lp_Force_Field>
OPLS_2005

> <r_lp_Energy>
12.2925

> <b_lp_Chiralities_Consistent>
1

> <s_lp_Variant>
AV-unprocessed.smi:1999-8

> <Gold.Version>
5.8.1

> <Gold.Id.Protein>
6NUR|6NUR_protein|mol2

> <Gold.PLP.Fitness>
38.8028

> <Gold.PLP.PLP>
-28.5971

> <Gold.PLP.part.hbond>
-4.1401

> <Gold.PLP.part.metal>
0.0000

> <Gold.PLP.part.buried>
-5.8175

> <Gold.PLP.part.nonpolar>
-19.9707

> <Gold.PLP.part.repulsive>
0.4011

> <Gold.PLP.ligand.clash>
0.0000

> <Gold.PLP.ligand.torsion>
1.3564

> <Gold.PLP.Chemscore.Hbond>
4.2572

> <Gold.PLP.Chemscore.CHOScore>
0.0000

> <Gold.PLP.Chemscore.Metal>
0.0000

> <Gold.Chemscore.Hbonds>
donor molecule, donor type, donor heavy atom, donor atom, acceptor molecule, acceptor atom, score
      L1  H    13    38       P1  8028  2.00
      P1  H  7989  7998       L1     8  0.61
      P1  H  7997  8008       L1     8  0.70
      P1  H 10752 10764       L1     4  0.86

> <Gold.PLP.Chemscore.Internal.Correction>
0.1469

> <Gold.Rescore>
     Score         DG    S(hbond)    S(metal)    S(lipo)     H(rot)  DE(clash)    DE(int)     intcor
     13.00     -15.55       2.41        0.00      52.40       1.60       0.04       2.51       ----

> <Gold.Chemscore.Fitness>
13.0012

> <Gold.Chemscore.DG>
-15.5521

> <Gold.Chemscore.ZeroCoef>
-5.4800

> <Gold.Chemscore.Hbond>
2.4091

> <Gold.Chemscore.Metal>
0.0000

> <Gold.Chemscore.Lipo>
52.4022

> <Gold.Chemscore.Internal_Hbond>
0.0000

> <Gold.Chemscore.DEClash>
0.0437

> <Gold.Chemscore.DEInternal>
2.5072

> <Gold.Chemscore.Rot>
1.6036

> <Gold.Chemscore.Internal.Correction>
   9.000000E+99

> <Gold.Chemscore.Hbonds>
donor molecule, donor type, donor heavy atom, donor atom, acceptor molecule, acceptor atom, score
      L1  H    13    38       P1  8028  1.00
      P1  H  7989  7998       L1     8  0.57
      P1  H  7997  8008       L1     8  0.18
      P1  H 10752 10764       L1     4  0.15

> <Gold.Chemscore.Hbond.Weighted>
-8.0464

> <Gold.Chemscore.Metal.Weighted>
-0.0000

> <Gold.Chemscore.Lipo.Weighted>
-6.1311

> <Gold.Chemscore.Internal_Hbond.Weighted>
0.0000

> <Gold.Chemscore.DEClash.Weighted>
0.0437

> <Gold.Chemscore.DEInternal.Weighted>
2.5072

> <Gold.Chemscore.Rot.Weighted>
4.1053

> <Gold.Chemscore.Internal.Correction.Weighted>
   9.000000E+99

> <Gold.Protein.RotatedTorsions>
[ 6907 6896 6895 6894 ] final   81.78 input  -60.11 | X-H torsion
[ 7974 7965 7964 7962 ] final   12.24 input  175.53 | X-H torsion
[ 8008 7997 7996 7995 ] final  -30.23 input   59.86 | X-H torsion
[ 10167 10162 10161 10158 ] final  -30.68 input  -65.29 | X-H torsion
[ 10718 10713 10712 10709 ] final  109.29 input   66.30 | X-H torsion
[ 10763 10752 10751 10750 ] final   -7.20 input  -60.55 | X-H torsion
[ 11005 11000 10999 10996 ] final  -89.25 input  -57.11 | X-H torsion

> <Gold.Protein.ActiveResidues>
 VAL166  LYS551  ARG553  GLY616  TRP617  ASP618  TYR619  PRO620  LYS621  CYS622 
 ASP623  PHE694  ASN695  SER759  ASP760  ASP761  ALA762  ILE779  LEU786  VAL792 
 PHE793  MET794  SER795  GLU796  ALA797  LYS798  CYS799  TRP800  GLU811  SER814 

> <Gold.Protein.RotatedAtoms>
  152.5279  134.3152  159.9127 H   0  0  0  0  0  0  0  0  0  0  0  0  # atno 6907 bound_to 6896
  151.3101  133.4078  159.2654 H   0  0  0  0  0  0  0  0  0  0  0  0  # atno 6908 bound_to 6896
  151.0045  134.9365  159.8030 H   0  0  0  0  0  0  0  0  0  0  0  0  # atno 6909 bound_to 6896
  146.2355  139.9365  142.8489 H   0  0  0  0  0  0  0  0  0  0  0  0  # atno 7974 bound_to 7965
  154.4258  140.1797  156.1375 H   0  0  0  0  0  0  0  0  0  0  0  0  # atno 8008 bound_to 7997
  156.0019  140.3359  155.6829 H   0  0  0  0  0  0  0  0  0  0  0  0  # atno 8009 bound_to 7997
  155.6231  140.0662  157.2662 H   0  0  0  0  0  0  0  0  0  0  0  0  # atno 8010 bound_to 7997
  140.7246  143.3829  151.1567 H   0  0  0  0  0  0  0  0  0  0  0  0  # atno 10167 bound_to 10162
  157.6548  131.0911  150.6432 H   0  0  0  0  0  0  0  0  0  0  0  0  # atno 10718 bound_to 10713
  153.4231  135.7010  153.6281 H   0  0  0  0  0  0  0  0  0  0  0  0  # atno 10763 bound_to 10752
  153.4727  135.3711  155.2400 H   0  0  0  0  0  0  0  0  0  0  0  0  # atno 10764 bound_to 10752
  154.8723  135.4047  154.3602 H   0  0  0  0  0  0  0  0  0  0  0  0  # atno 10765 bound_to 10752
  141.1588  133.7619  156.9568 H   0  0  0  0  0  0  0  0  0  0  0  0  # atno 11005 bound_to 11000
  145.1993  140.9847  143.4165 LP  0  0  0  0  0  0  0  0  0  0  0  0  # atno 17320 bound_to 7965
  144.9787  139.3805  143.6272 LP  0  0  0  0  0  0  0  0  0  0  0  0  # atno 17321 bound_to 7965
  139.7421  143.8908  152.3053 LP  0  0  0  0  0  0  0  0  0  0  0  0  # atno 17342 bound_to 10162
  139.8733  144.7057  150.8963 LP  0  0  0  0  0  0  0  0  0  0  0  0  # atno 17343 bound_to 10162
  156.6740  130.4548  149.5648 LP  0  0  0  0  0  0  0  0  0  0  0  0  # atno 17370 bound_to 10713
  156.1977  130.6600  151.1132 LP  0  0  0  0  0  0  0  0  0  0  0  0  # atno 17371 bound_to 10713
  140.1220  134.9411  157.2217 LP  0  0  0  0  0  0  0  0  0  0  0  0  # atno 17394 bound_to 11000
  140.3060  134.3077  155.7278 LP  0  0  0  0  0  0  0  0  0  0  0  0  # atno 17395 bound_to 11000

$$$$
