AV-unprocessed.smi:1075|AV-procd|sdf|4694|dock4
  -GOLD-   22720 3213D 1   1.00000     0.00000
 Structure written by MMmdl.
 50 51  0  0  0  0  0  0  0  0  1 V2000
  150.0850  145.4006  160.1488 C   0  0  0  0  0  0  0  0  0  0  0  0
  151.1566  144.3533  160.2554 C   0  0  0  0  0  0  0  0  0  0  0  0
  151.7013  144.1038  161.4335 N   0  0  0  0  0  0  0  0  0  0  0  0
  152.5989  143.1275  161.1974 N   0  0  0  0  0  0  0  0  0  0  0  0
  153.3855  142.6081  162.2994 C   0  0  0  0  0  0  0  0  0  0  0  0
  152.6181  142.7541  159.8671 C   0  0  0  0  0  0  0  0  0  0  0  0
  153.5239  141.6753  159.3621 C   0  0  0  0  0  0  0  0  0  0  0  0
  151.6968  143.5371  159.2177 C   0  0  0  0  0  0  0  0  0  0  0  0
  151.2964  143.5557  157.7553 C   0  0  1  0  0  0  0  0  0  0  0  0
  152.3841  144.1957  156.8715 C   0  0  0  0  0  0  0  0  0  0  0  0
  150.8986  142.1400  157.3033 C   0  0  0  0  0  0  0  0  0  0  0  0
  151.7161  141.2197  157.3262 O   0  0  0  0  0  0  0  0  0  0  0  0
  149.6269  141.9963  156.8874 N   0  0  0  0  0  0  0  0  0  0  0  0
  148.9393  140.7887  156.4125 C   0  0  1  0  0  0  0  0  0  0  0  0
  149.5540  139.5380  157.0774 C   0  0  0  0  0  0  0  0  0  0  0  0
  147.4557  140.9024  156.8377 C   0  0  0  0  0  0  0  0  0  0  0  0
  146.7153  142.0535  156.1306 C   0  0  0  0  0  0  0  0  0  0  0  0
  146.8040  141.9291  154.5987 C   0  0  1  0  0  0  0  0  0  0  0  0
  146.0851  143.0905  153.8981 C   0  0  0  0  0  0  0  0  0  0  0  0
  148.2736  141.8232  154.1515 C   0  0  0  0  0  0  0  0  0  0  0  0
  149.0009  140.6701  154.8673 C   0  0  0  0  0  0  0  0  0  0  0  0
  149.1552  144.9682  159.7785 H   0  0  0  0  0  0  0  0  0  0  0  0
  150.3813  146.1916  159.4598 H   0  0  0  0  0  0  0  0  0  0  0  0
  149.8729  145.8640  161.1131 H   0  0  0  0  0  0  0  0  0  0  0  0
  153.0547  141.5976  162.5397 H   0  0  0  0  0  0  0  0  0  0  0  0
  153.2732  143.2371  163.1836 H   0  0  0  0  0  0  0  0  0  0  0  0
  154.4390  142.5822  162.0203 H   0  0  0  0  0  0  0  0  0  0  0  0
  153.1514  141.2468  158.4324 H   0  0  0  0  0  0  0  0  0  0  0  0
  153.6084  140.8613  160.0819 H   0  0  0  0  0  0  0  0  0  0  0  0
  154.5230  142.0686  159.1752 H   0  0  0  0  0  0  0  0  0  0  0  0
  150.4000  144.1634  157.6281 H   0  0  0  0  0  0  0  0  0  0  0  0
  153.3207  143.6397  156.9049 H   0  0  0  0  0  0  0  0  0  0  0  0
  152.5948  145.2149  157.1965 H   0  0  0  0  0  0  0  0  0  0  0  0
  152.0675  144.2480  155.8290 H   0  0  0  0  0  0  0  0  0  0  0  0
  149.0569  142.8293  156.9155 H   0  0  0  0  0  0  0  0  0  0  0  0
  148.9934  138.6389  156.8194 H   0  0  0  0  0  0  0  0  0  0  0  0
  149.5505  139.6250  158.1647 H   0  0  0  0  0  0  0  0  0  0  0  0
  150.5840  139.3703  156.7633 H   0  0  0  0  0  0  0  0  0  0  0  0
  146.9392  139.9676  156.6147 H   0  0  0  0  0  0  0  0  0  0  0  0
  147.3833  141.0338  157.9185 H   0  0  0  0  0  0  0  0  0  0  0  0
  145.6701  142.0556  156.4413 H   0  0  0  0  0  0  0  0  0  0  0  0
  147.1276  143.0118  156.4497 H   0  0  0  0  0  0  0  0  0  0  0  0
  146.2984  141.0069  154.3083 H   0  0  0  0  0  0  0  0  0  0  0  0
  146.5446  144.0482  154.1446 H   0  0  0  0  0  0  0  0  0  0  0  0
  145.0370  143.1383  154.1943 H   0  0  0  0  0  0  0  0  0  0  0  0
  146.1164  142.9752  152.8144 H   0  0  0  0  0  0  0  0  0  0  0  0
  148.3211  141.6668  153.0735 H   0  0  0  0  0  0  0  0  0  0  0  0
  148.7909  142.7638  154.3454 H   0  0  0  0  0  0  0  0  0  0  0  0
  150.0326  140.6173  154.5198 H   0  0  0  0  0  0  0  0  0  0  0  0
  148.5431  139.7282  154.5618 H   0  0  0  0  0  0  0  0  0  0  0  0
  1  2  1  0  0  0  0
  1 22  1  0  0  0  0
  1 23  1  0  0  0  0
  1 24  1  0  0  0  0
  2  8  1  0  0  0  0
  2  3  2  0  0  0  0
  3  4  1  0  0  0  0
  4  5  1  0  0  0  0
  4  6  1  0  0  0  0
  5 25  1  0  0  0  0
  5 26  1  0  0  0  0
  5 27  1  0  0  0  0
  6  7  1  0  0  0  0
  6  8  2  0  0  0  0
  7 28  1  0  0  0  0
  7 29  1  0  0  0  0
  7 30  1  0  0  0  0
  8  9  1  0  0  0  0
  9 10  1  0  0  0  0
  9 11  1  0  0  0  0
  9 31  1  0  0  0  0
 10 32  1  0  0  0  0
 10 33  1  0  0  0  0
 10 34  1  0  0  0  0
 11 12  2  0  0  0  0
 11 13  1  0  0  0  0
 13 14  1  0  0  0  0
 13 35  1  0  0  0  0
 14 21  1  0  0  0  0
 14 15  1  0  0  0  0
 14 16  1  0  0  0  0
 15 36  1  0  0  0  0
 15 37  1  0  0  0  0
 15 38  1  0  0  0  0
 16 17  1  0  0  0  0
 16 39  1  0  0  0  0
 16 40  1  0  0  0  0
 17 18  1  0  0  0  0
 17 41  1  0  0  0  0
 17 42  1  0  0  0  0
 18 19  1  0  0  0  0
 18 20  1  0  0  0  0
 18 43  1  0  0  0  0
 19 44  1  0  0  0  0
 19 45  1  0  0  0  0
 19 46  1  0  0  0  0
 20 21  1  0  0  0  0
 20 47  1  0  0  0  0
 20 48  1  0  0  0  0
 21 49  1  0  0  0  0
 21 50  1  0  0  0  0
M  END
> <s_m_source_file>
AV-unprocessed.smi

> <i_m_source_file_index>
1075

> <i_lp_mmshare_version>
43012

> <i_f3d_flags>
0

> <s_epik_input>
W0NIM11jMW5uKFtDSDNdKWMoW0NIM10pYzFbQ0BIXShbQ0gzXSlDKD1PKVtOSF1bQ0BAXTIoW0NIM10pW0NIMl1bQ0gyXVtDQEBIXShbQ0gzXSlbQ0gyXVtDSDJdMg==

> <s_epik_cmdline>
J2VwaWtfcHl0aG9uJywgJy1waCcsICc3LjAnLCAnLXRuJywgJzgnLCAnLW1hJywgJzIwMCcsICctbWV0YWxfYmluZGluZycsICctaW1hZScsICc8aW5maWxlLm1hZT4nLCAnLW9tYWUnLCAnPG91dGZpbGUubWFlPic=

> <r_lp_tautomer_probability>
1

> <r_epik_Ionization_Penalty>
0.00502928

> <r_epik_Ionization_Penalty_Charging>
0

> <r_epik_Ionization_Penalty_Neutral>
0.00502928

> <r_epik_State_Penalty>
0.0036576

> <r_epik_Charging_Adjusted_Penalty>
0.0036576

> <i_epik_Tot_Q>
0

> <i_epik_Tot_abs_Q>
0

> <r_epik_Metal_State_Penalty>
-0

> <b_epik_Metal_Only>
0

> <s_lp_Force_Field>
OPLS_2005

> <r_lp_Energy>
4.5461

> <b_lp_Chiralities_Consistent>
1

> <s_lp_Variant>
AV-unprocessed.smi:1075-2

> <Gold.Version>
5.8.1

> <Gold.Id.Protein>
6NUR|6NUR_protein|mol2

> <Gold.PLP.Fitness>
44.1640

> <Gold.PLP.PLP>
-44.0764

> <Gold.PLP.part.hbond>
-1.0000

> <Gold.PLP.part.metal>
0.0000

> <Gold.PLP.part.buried>
-4.1185

> <Gold.PLP.part.nonpolar>
-38.9611

> <Gold.PLP.part.repulsive>
0.2065

> <Gold.PLP.ligand.clash>
0.0000

> <Gold.PLP.ligand.torsion>
0.7517

> <Gold.PLP.Chemscore.Hbond>
0.4992

> <Gold.PLP.Chemscore.CHOScore>
0.0000

> <Gold.PLP.Chemscore.Metal>
0.0000

> <Gold.Chemscore.Hbonds>
donor molecule, donor type, donor heavy atom, donor atom, acceptor molecule, acceptor atom, score
      L1  H    13    35       P1  8028  0.29

> <Gold.PLP.Chemscore.Internal.Correction>
0.0935

> <Gold.Rescore>
     Score         DG    S(hbond)    S(metal)    S(lipo)     H(rot)  DE(clash)    DE(int)     intcor
     12.22     -16.49       0.00        0.00     121.07       1.23       0.77       3.51       ----

> <Gold.Chemscore.Fitness>
12.2166

> <Gold.Chemscore.DG>
-16.4913

> <Gold.Chemscore.ZeroCoef>
-5.4800

> <Gold.Chemscore.Hbond>
0.0000

> <Gold.Chemscore.Metal>
0.0000

> <Gold.Chemscore.Lipo>
121.0716

> <Gold.Chemscore.Internal_Hbond>
0.0000

> <Gold.Chemscore.DEClash>
0.7676

> <Gold.Chemscore.DEInternal>
3.5071

> <Gold.Chemscore.Rot>
1.2321

> <Gold.Chemscore.Internal.Correction>
   9.000000E+99

> <Gold.Chemscore.Hbonds>
donor molecule, donor type, donor heavy atom, donor atom, acceptor molecule, acceptor atom, score
      L1  H    13    35       P1  8028  0.27

> <Gold.Chemscore.Hbond.Weighted>
-0.0000

> <Gold.Chemscore.Metal.Weighted>
-0.0000

> <Gold.Chemscore.Lipo.Weighted>
-14.1654

> <Gold.Chemscore.Internal_Hbond.Weighted>
0.0000

> <Gold.Chemscore.DEClash.Weighted>
0.7676

> <Gold.Chemscore.DEInternal.Weighted>
3.5071

> <Gold.Chemscore.Rot.Weighted>
3.1541

> <Gold.Chemscore.Internal.Correction.Weighted>
   9.000000E+99

> <Gold.Protein.RotatedTorsions>
[ 6907 6896 6895 6894 ] final   93.03 input  -60.11 | X-H torsion
[ 7974 7965 7964 7962 ] final -128.86 input  175.53 | X-H torsion
[ 8008 7997 7996 7995 ] final  141.02 input   59.86 | X-H torsion
[ 10167 10162 10161 10158 ] final  -19.84 input  -65.29 | X-H torsion
[ 10718 10713 10712 10709 ] final   32.02 input   66.30 | X-H torsion
[ 10763 10752 10751 10750 ] final  -19.59 input  -60.55 | X-H torsion
[ 11005 11000 10999 10996 ] final   89.74 input  -57.11 | X-H torsion

> <Gold.Protein.ActiveResidues>
 VAL166  LYS551  ARG553  GLY616  TRP617  ASP618  TYR619  PRO620  LYS621  CYS622 
 ASP623  PHE694  ASN695  SER759  ASP760  ASP761  ALA762  ILE779  LEU786  VAL792 
 PHE793  MET794  SER795  GLU796  ALA797  LYS798  CYS799  TRP800  GLU811  SER814 

> <Gold.Protein.RotatedAtoms>
  152.5453  134.1411  159.8478 H   0  0  0  0  0  0  0  0  0  0  0  0  # atno 6907 bound_to 6896
  151.1447  133.4940  159.2603 H   0  0  0  0  0  0  0  0  0  0  0  0  # atno 6908 bound_to 6896
  151.1536  135.0249  159.8734 H   0  0  0  0  0  0  0  0  0  0  0  0  # atno 6909 bound_to 6896
  144.9629  140.7466  143.4718 H   0  0  0  0  0  0  0  0  0  0  0  0  # atno 7974 bound_to 7965
  156.2971  140.2326  156.4497 H   0  0  0  0  0  0  0  0  0  0  0  0  # atno 8008 bound_to 7997
  154.8113  140.0443  157.1365 H   0  0  0  0  0  0  0  0  0  0  0  0  # atno 8009 bound_to 7997
  154.9420  140.3031  155.5119 H   0  0  0  0  0  0  0  0  0  0  0  0  # atno 8010 bound_to 7997
  140.7271  143.4779  151.0157 H   0  0  0  0  0  0  0  0  0  0  0  0  # atno 10167 bound_to 10162
  157.2799  130.7250  149.6551 H   0  0  0  0  0  0  0  0  0  0  0  0  # atno 10718 bound_to 10713
  153.6072  135.6997  153.5361 H   0  0  0  0  0  0  0  0  0  0  0  0  # atno 10763 bound_to 10752
  153.3047  135.4118  155.1283 H   0  0  0  0  0  0  0  0  0  0  0  0  # atno 10764 bound_to 10752
  154.8571  135.3657  154.5609 H   0  0  0  0  0  0  0  0  0  0  0  0  # atno 10765 bound_to 10752
  139.8869  134.8570  156.3186 H   0  0  0  0  0  0  0  0  0  0  0  0  # atno 11005 bound_to 11000
  145.2673  139.1968  143.4860 LP  0  0  0  0  0  0  0  0  0  0  0  0  # atno 17320 bound_to 7965
  146.3359  140.2613  142.8602 LP  0  0  0  0  0  0  0  0  0  0  0  0  # atno 17321 bound_to 7965
  139.8476  143.7481  152.3179 LP  0  0  0  0  0  0  0  0  0  0  0  0  # atno 17342 bound_to 10162
  139.7652  144.7494  151.0306 LP  0  0  0  0  0  0  0  0  0  0  0  0  # atno 17343 bound_to 10162
  155.9664  130.4341  150.5035 LP  0  0  0  0  0  0  0  0  0  0  0  0  # atno 17370 bound_to 10713
  157.2977  131.0639  151.2090 LP  0  0  0  0  0  0  0  0  0  0  0  0  # atno 17371 bound_to 10713
  140.9802  133.7272  156.0661 LP  0  0  0  0  0  0  0  0  0  0  0  0  # atno 17394 bound_to 11000
  140.7759  134.3780  157.5498 LP  0  0  0  0  0  0  0  0  0  0  0  0  # atno 17395 bound_to 11000

$$$$
