AV-unprocessed.smi:2964|AV-procd|sdf|11321|dock2
  -GOLD-   2272016223D 1   1.00000     0.00000
 Structure written by MMmdl.
 35 36  0  0  0  0  0  0  0  0  1 V2000
  147.7131  133.4658  160.3196 O   0  0  0  0  0  0  0  0  0  0  0  0
  147.2687  133.3284  161.4604 C   0  0  0  0  0  0  0  0  0  0  0  0
  147.3800  134.4594  162.4931 C   0  0  0  0  0  0  0  0  0  0  0  0
  146.2728  135.4282  162.4224 N   0  0  0  0  0  0  0  0  0  0  0  0
  144.9670  134.9231  162.5807 C   0  0  0  0  0  0  0  0  0  0  0  0
  143.8696  135.7032  162.5305 C   0  0  0  0  0  0  0  0  0  0  0  0
  142.4653  135.1536  162.7246 C   0  0  0  0  0  0  0  0  0  0  0  0
  142.1655  134.2955  161.7497 F   0  0  0  0  0  0  0  0  0  0  0  0
  142.3889  134.5008  163.8836 F   0  0  0  0  0  0  0  0  0  0  0  0
  141.5488  136.1226  162.7277 F   0  0  0  0  0  0  0  0  0  0  0  0
  144.0923  137.1187  162.3174 C   0  0  0  0  0  0  0  0  0  0  0  0
  145.3341  137.6177  162.1622 C   0  0  0  0  0  0  0  0  0  0  0  0
  146.5175  136.7556  162.2063 C   0  0  0  0  0  0  0  0  0  0  0  0
  147.6568  137.1987  162.0599 O   0  0  0  0  0  0  0  0  0  0  0  0
  146.6496  132.2134  161.8767 N   0  0  0  0  0  0  0  0  0  0  0  0
  146.4356  131.0202  161.0624 C   0  0  0  0  0  0  0  0  0  0  0  0
  144.9391  130.6614  160.9495 C   0  0  0  0  0  0  0  0  0  0  0  0
  144.8379  129.1673  161.2592 C   0  0  0  0  0  0  0  0  0  0  0  0
  145.9932  128.9042  162.2192 C   0  0  0  0  0  0  0  0  0  0  0  0
  147.1207  129.7978  161.7006 C   0  0  0  0  0  0  0  0  0  0  0  0
  147.4313  134.0091  163.4852 H   0  0  0  0  0  0  0  0  0  0  0  0
  148.3358  134.9711  162.3641 H   0  0  0  0  0  0  0  0  0  0  0  0
  144.9180  133.8557  162.7404 H   0  0  0  0  0  0  0  0  0  0  0  0
  143.2455  137.7880  162.2778 H   0  0  0  0  0  0  0  0  0  0  0  0
  145.4622  138.6781  162.0015 H   0  0  0  0  0  0  0  0  0  0  0  0
  146.3089  132.1848  162.8268 H   0  0  0  0  0  0  0  0  0  0  0  0
  146.8597  131.1818  160.0695 H   0  0  0  0  0  0  0  0  0  0  0  0
  144.3542  131.2154  161.6856 H   0  0  0  0  0  0  0  0  0  0  0  0
  144.5315  130.9033  159.9673 H   0  0  0  0  0  0  0  0  0  0  0  0
  143.8705  128.8898  161.6786 H   0  0  0  0  0  0  0  0  0  0  0  0
  144.9827  128.5914  160.3443 H   0  0  0  0  0  0  0  0  0  0  0  0
  145.7106  129.2131  163.2265 H   0  0  0  0  0  0  0  0  0  0  0  0
  146.2756  127.8519  162.2593 H   0  0  0  0  0  0  0  0  0  0  0  0
  147.6799  129.2594  160.9342 H   0  0  0  0  0  0  0  0  0  0  0  0
  147.8297  130.0590  162.4875 H   0  0  0  0  0  0  0  0  0  0  0  0
  1  2  2  0  0  0  0
  2  3  1  0  0  0  0
  2 15  1  0  0  0  0
  3  4  1  0  0  0  0
  3 21  1  0  0  0  0
  3 22  1  0  0  0  0
  4 13  1  0  0  0  0
  4  5  1  0  0  0  0
  5  6  2  0  0  0  0
  5 23  1  0  0  0  0
  6  7  1  0  0  0  0
  6 11  1  0  0  0  0
  7  8  1  0  0  0  0
  7  9  1  0  0  0  0
  7 10  1  0  0  0  0
 11 12  2  0  0  0  0
 11 24  1  0  0  0  0
 12 13  1  0  0  0  0
 12 25  1  0  0  0  0
 13 14  2  0  0  0  0
 15 16  1  0  0  0  0
 15 26  1  0  0  0  0
 16 20  1  0  0  0  0
 16 17  1  0  0  0  0
 16 27  1  0  0  0  0
 17 18  1  0  0  0  0
 17 28  1  0  0  0  0
 17 29  1  0  0  0  0
 18 19  1  0  0  0  0
 18 30  1  0  0  0  0
 18 31  1  0  0  0  0
 19 20  1  0  0  0  0
 19 32  1  0  0  0  0
 19 33  1  0  0  0  0
 20 34  1  0  0  0  0
 20 35  1  0  0  0  0
M  END
> <s_m_source_file>
AV-unprocessed.smi

> <i_m_source_file_index>
2964

> <i_lp_mmshare_version>
43012

> <i_f3d_flags>
0

> <s_epik_input>
W0NIMl0xW0NIMl1bQ0gyXVtDSDJdW0NIXTFbTkhdQyg9TylbQ0gyXW4yW2NIXWMoQyhGKShGKUYpW2NIXVtjSF1jMj1P

> <s_epik_cmdline>
J2VwaWtfcHl0aG9uJywgJy1waCcsICc3LjAnLCAnLXRuJywgJzgnLCAnLW1hJywgJzIwMCcsICctbWV0YWxfYmluZGluZycsICctaW1hZScsICc8aW5maWxlLm1hZT4nLCAnLW9tYWUnLCAnPG91dGZpbGUubWFlPic=

> <r_lp_tautomer_probability>
1

> <r_epik_Ionization_Penalty>
3.84201e-08

> <r_epik_Ionization_Penalty_Charging>
1.91184e-08

> <r_epik_Ionization_Penalty_Neutral>
1.93017e-08

> <r_epik_State_Penalty>
-0

> <r_epik_Charging_Adjusted_Penalty>
1.91184e-08

> <i_epik_Tot_Q>
0

> <i_epik_Tot_abs_Q>
0

> <r_epik_Metal_State_Penalty>
-0

> <b_epik_Metal_Only>
0

> <s_lp_Force_Field>
OPLS_2005

> <r_lp_Energy>
29.7678

> <b_lp_Chiralities_Consistent>
1

> <s_lp_Variant>
AV-unprocessed.smi:2964-1

> <Gold.Version>
5.8.1

> <Gold.Id.Protein>
6NUR|6NUR_protein|mol2

> <Gold.PLP.Fitness>
39.7789

> <Gold.PLP.PLP>
-36.5246

> <Gold.PLP.part.hbond>
-2.0000

> <Gold.PLP.part.metal>
0.0000

> <Gold.PLP.part.buried>
-4.1677

> <Gold.PLP.part.nonpolar>
-29.8372

> <Gold.PLP.part.repulsive>
0.0401

> <Gold.PLP.ligand.clash>
0.0000

> <Gold.PLP.ligand.torsion>
0.4120

> <Gold.PLP.Chemscore.Hbond>
1.3514

> <Gold.PLP.Chemscore.CHOScore>
0.0000

> <Gold.PLP.Chemscore.Metal>
0.0000

> <Gold.Chemscore.Hbonds>
donor molecule, donor type, donor heavy atom, donor atom, acceptor molecule, acceptor atom, score
      P1  H  6931  6943       L1    14  0.98
      P1  H  6934  6947       L1    14  0.38

> <Gold.PLP.Chemscore.Internal.Correction>
0.0239

> <Gold.Rescore>
     Score         DG    S(hbond)    S(metal)    S(lipo)     H(rot)  DE(clash)    DE(int)     intcor
     12.50     -12.89       1.52        0.00      53.91       1.56       0.00       0.38       ----

> <Gold.Chemscore.Fitness>
12.5045

> <Gold.Chemscore.DG>
-12.8852

> <Gold.Chemscore.ZeroCoef>
-5.4800

> <Gold.Chemscore.Hbond>
1.5219

> <Gold.Chemscore.Metal>
0.0000

> <Gold.Chemscore.Lipo>
53.9111

> <Gold.Chemscore.Internal_Hbond>
0.0000

> <Gold.Chemscore.DEClash>
0.0002

> <Gold.Chemscore.DEInternal>
0.3805

> <Gold.Chemscore.Rot>
1.5568

> <Gold.Chemscore.Internal.Correction>
   9.000000E+99

> <Gold.Chemscore.Hbonds>
donor molecule, donor type, donor heavy atom, donor atom, acceptor molecule, acceptor atom, score
      P1  H  6931  6943       L1    14  0.93
      P1  H  6934  6947       L1    14  0.10

> <Gold.Chemscore.Hbond.Weighted>
-5.0830

> <Gold.Chemscore.Metal.Weighted>
-0.0000

> <Gold.Chemscore.Lipo.Weighted>
-6.3076

> <Gold.Chemscore.Internal_Hbond.Weighted>
0.0000

> <Gold.Chemscore.DEClash.Weighted>
0.0002

> <Gold.Chemscore.DEInternal.Weighted>
0.3805

> <Gold.Chemscore.Rot.Weighted>
3.9854

> <Gold.Chemscore.Internal.Correction.Weighted>
   9.000000E+99

> <Gold.Protein.RotatedTorsions>
[ 6907 6896 6895 6894 ] final  -40.03 input  -60.11 | X-H torsion
[ 7974 7965 7964 7962 ] final  -38.23 input  175.53 | X-H torsion
[ 8008 7997 7996 7995 ] final -173.96 input   59.86 | X-H torsion
[ 10167 10162 10161 10158 ] final  169.57 input  -65.29 | X-H torsion
[ 10718 10713 10712 10709 ] final -170.43 input   66.30 | X-H torsion
[ 10763 10752 10751 10750 ] final   95.80 input  -60.55 | X-H torsion
[ 11005 11000 10999 10996 ] final   89.78 input  -57.11 | X-H torsion

> <Gold.Protein.ActiveResidues>
 VAL166  LYS551  ARG553  GLY616  TRP617  ASP618  TYR619  PRO620  LYS621  CYS622 
 ASP623  PHE694  ASN695  SER759  ASP760  ASP761  ALA762  ILE779  LEU786  VAL792 
 PHE793  MET794  SER795  GLU796  ALA797  LYS798  CYS799  TRP800  GLU811  SER814 

> <Gold.Protein.RotatedAtoms>
  150.9833  134.9183  159.7856 H   0  0  0  0  0  0  0  0  0  0  0  0  # atno 6907 bound_to 6896
  152.5228  134.3381  159.9217 H   0  0  0  0  0  0  0  0  0  0  0  0  # atno 6908 bound_to 6896
  151.3388  133.3930  159.2703 H   0  0  0  0  0  0  0  0  0  0  0  0  # atno 6909 bound_to 6896
  146.0505  140.6487  142.9044 H   0  0  0  0  0  0  0  0  0  0  0  0  # atno 7974 bound_to 7965
  155.9640  140.1150  157.0870 H   0  0  0  0  0  0  0  0  0  0  0  0  # atno 8008 bound_to 7997
  154.4139  140.1176  156.5284 H   0  0  0  0  0  0  0  0  0  0  0  0  # atno 8009 bound_to 7997
  155.6683  140.3473  155.4811 H   0  0  0  0  0  0  0  0  0  0  0  0  # atno 8010 bound_to 7997
  139.4996  144.3692  151.9743 H   0  0  0  0  0  0  0  0  0  0  0  0  # atno 10167 bound_to 10162
  156.7261  130.9288  151.3101 H   0  0  0  0  0  0  0  0  0  0  0  0  # atno 10718 bound_to 10713
  153.2575  135.4241  155.0860 H   0  0  0  0  0  0  0  0  0  0  0  0  # atno 10763 bound_to 10752
  154.8406  135.3441  154.6425 H   0  0  0  0  0  0  0  0  0  0  0  0  # atno 10764 bound_to 10752
  153.6846  135.7037  153.5165 H   0  0  0  0  0  0  0  0  0  0  0  0  # atno 10765 bound_to 10752
  139.8868  134.8573  156.3191 H   0  0  0  0  0  0  0  0  0  0  0  0  # atno 11005 bound_to 11000
  144.7120  140.4074  143.7073 LP  0  0  0  0  0  0  0  0  0  0  0  0  # atno 17320 bound_to 7965
  145.6732  139.1603  143.2742 LP  0  0  0  0  0  0  0  0  0  0  0  0  # atno 17321 bound_to 7965
  140.3128  144.3518  150.6029 LP  0  0  0  0  0  0  0  0  0  0  0  0  # atno 17342 bound_to 10162
  140.5785  143.2174  151.7471 LP  0  0  0  0  0  0  0  0  0  0  0  0  # atno 17343 bound_to 10162
  157.6878  130.9203  150.0433 LP  0  0  0  0  0  0  0  0  0  0  0  0  # atno 17370 bound_to 10713
  156.1561  130.3643  149.9367 LP  0  0  0  0  0  0  0  0  0  0  0  0  # atno 17371 bound_to 10713
  140.9799  133.7274  156.0656 LP  0  0  0  0  0  0  0  0  0  0  0  0  # atno 17394 bound_to 11000
  140.7763  134.3776  157.5497 LP  0  0  0  0  0  0  0  0  0  0  0  0  # atno 17395 bound_to 11000

$$$$
