AV-unprocessed.smi:1|AV-procd|sdf|5|dock3
  -GOLD-   2262015 93D 1   1.00000     0.00000
 Structure written by MMmdl.
 57 62  0  0  0  0  0  0  0  0  1 V2000
  150.1926  142.4914  156.0250 O   0  0  0  0  0  0  0  0  0  0  0  0
  150.7596  141.9840  156.9933 C   0  0  0  0  0  0  0  0  0  0  0  0
  150.8119  140.5464  157.1926 N   0  0  0  0  0  0  0  0  0  0  0  0
  150.3548  139.5708  156.3728 C   0  0  0  0  0  0  0  0  0  0  0  0
  150.3102  139.7136  155.0221 N   0  0  0  0  0  0  0  0  0  0  0  0
  149.8497  138.7212  154.2556 C   0  0  0  0  0  0  0  0  0  0  0  0
  149.3917  137.5245  154.6281 N   0  0  0  0  0  0  0  0  0  0  0  0
  149.4359  137.3697  155.9826 C   0  0  0  0  0  0  0  0  0  0  0  0
  149.9007  138.3399  156.9144 C   0  0  0  0  0  0  0  0  0  0  0  0
  149.8003  137.8384  158.2050 N   0  0  0  0  0  0  0  0  0  0  0  0
  149.3064  136.6408  158.0408 C   0  0  0  0  0  0  0  0  0  0  0  0
  149.0515  136.2785  156.7364 N   0  0  0  0  0  0  0  0  0  0  0  0
  148.4982  134.9778  156.2504 C   0  0  2  0  0  0  0  0  0  0  0  0
  149.4467  133.9703  156.4433 O   0  0  0  0  0  0  0  0  0  0  0  0
  149.8332  133.3969  155.1965 C   0  0  1  0  0  0  0  0  0  0  0  0
  150.1877  131.9140  155.3561 C   0  0  0  0  0  0  0  0  0  0  0  0
  149.5631  131.1772  154.3182 O   0  0  0  0  0  0  0  0  0  0  0  0
  149.8121  129.8610  154.1800 C   0  0  0  0  0  0  0  0  0  0  0  0
  150.7858  129.2945  154.6805 O   0  0  0  0  0  0  0  0  0  0  0  0
  148.7823  129.1597  153.3602 C   0  0  0  0  0  0  0  0  0  0  0  0
  147.5478  129.8001  153.1020 C   0  0  0  0  0  0  0  0  0  0  0  0
  146.5571  129.1632  152.3292 C   0  0  0  0  0  0  0  0  0  0  0  0
  146.7886  127.8779  151.8059 C   0  0  0  0  0  0  0  0  0  0  0  0
  148.0117  127.2294  152.0568 C   0  0  0  0  0  0  0  0  0  0  0  0
  149.0040  127.8648  152.8289 C   0  0  0  0  0  0  0  0  0  0  0  0
  148.6477  133.6689  154.2730 C   0  0  1  0  0  0  0  0  0  0  0  0
  147.6075  132.7252  154.4706 O   0  0  0  0  0  0  0  0  0  0  0  0
  146.1518  133.5445  154.4873 S   0  0  0  0  0  0  0  0  0  0  0  0
  145.5031  133.3621  153.1801 O   0  0  0  0  0  0  0  0  0  0  0  0
  145.4729  133.2499  155.7584 O   0  0  0  0  0  0  0  0  0  0  0  0
  146.7511  135.1033  154.5599 O   0  0  0  0  0  0  0  0  0  0  0  0
  148.1524  135.0341  154.7555 C   0  0  1  0  0  0  0  0  0  0  0  0
  151.3651  142.8226  158.0812 C   0  0  0  0  0  0  0  0  0  0  0  0
  151.2125  144.2273  158.0587 C   0  0  0  0  0  0  0  0  0  0  0  0
  151.7914  145.0238  159.0657 C   0  0  0  0  0  0  0  0  0  0  0  0
  152.5337  144.4235  160.1001 C   0  0  0  0  0  0  0  0  0  0  0  0
  152.7008  143.0261  160.1243 C   0  0  0  0  0  0  0  0  0  0  0  0
  152.1229  142.2282  159.1173 C   0  0  0  0  0  0  0  0  0  0  0  0
  151.2611  140.2346  158.0414 H   0  0  0  0  0  0  0  0  0  0  0  0
  149.8480  138.9137  153.1929 H   0  0  0  0  0  0  0  0  0  0  0  0
  149.1111  135.9839  158.8760 H   0  0  0  0  0  0  0  0  0  0  0  0
  147.6350  134.7850  156.8888 H   0  0  0  0  0  0  0  0  0  0  0  0
  150.6971  133.9378  154.8110 H   0  0  0  0  0  0  0  0  0  0  0  0
  151.2687  131.7691  155.3361 H   0  0  0  0  0  0  0  0  0  0  0  0
  149.8223  131.5499  156.3174 H   0  0  0  0  0  0  0  0  0  0  0  0
  147.3474  130.7876  153.4929 H   0  0  0  0  0  0  0  0  0  0  0  0
  145.6187  129.6625  152.1381 H   0  0  0  0  0  0  0  0  0  0  0  0
  146.0290  127.3899  151.2132 H   0  0  0  0  0  0  0  0  0  0  0  0
  148.1906  126.2423  151.6564 H   0  0  0  0  0  0  0  0  0  0  0  0
  149.9314  127.3388  153.0022 H   0  0  0  0  0  0  0  0  0  0  0  0
  148.9303  133.6748  153.2197 H   0  0  0  0  0  0  0  0  0  0  0  0
  148.6787  135.8490  154.2573 H   0  0  0  0  0  0  0  0  0  0  0  0
  150.6467  144.7037  157.2710 H   0  0  0  0  0  0  0  0  0  0  0  0
  151.6665  146.0964  159.0435 H   0  0  0  0  0  0  0  0  0  0  0  0
  152.9779  145.0348  160.8718 H   0  0  0  0  0  0  0  0  0  0  0  0
  153.2755  142.5655  160.9145 H   0  0  0  0  0  0  0  0  0  0  0  0
  152.2721  141.1587  159.1498 H   0  0  0  0  0  0  0  0  0  0  0  0
  1  2  2  0  0  0  0
  2  3  1  0  0  0  0
  2 33  1  0  0  0  0
  3  4  1  0  0  0  0
  3 39  1  0  0  0  0
  4  9  1  0  0  0  0
  4  5  2  0  0  0  0
  5  6  1  0  0  0  0
  6  7  2  0  0  0  0
  6 40  1  0  0  0  0
  7  8  1  0  0  0  0
  8 12  1  0  0  0  0
  8  9  2  0  0  0  0
  9 10  1  0  0  0  0
 10 11  2  0  0  0  0
 11 12  1  0  0  0  0
 11 41  1  0  0  0  0
 12 13  1  0  0  0  0
 13 32  1  0  0  0  0
 13 14  1  0  0  0  0
 13 42  1  0  0  0  0
 14 15  1  0  0  0  0
 15 16  1  0  0  0  0
 15 26  1  0  0  0  0
 15 43  1  0  0  0  0
 16 17  1  0  0  0  0
 16 44  1  0  0  0  0
 16 45  1  0  0  0  0
 17 18  1  0  0  0  0
 18 19  2  0  0  0  0
 18 20  1  0  0  0  0
 20 25  1  0  0  0  0
 20 21  2  0  0  0  0
 21 22  1  0  0  0  0
 21 46  1  0  0  0  0
 22 23  2  0  0  0  0
 22 47  1  0  0  0  0
 23 24  1  0  0  0  0
 23 48  1  0  0  0  0
 24 25  2  0  0  0  0
 24 49  1  0  0  0  0
 25 50  1  0  0  0  0
 26 32  1  0  0  0  0
 26 27  1  0  0  0  0
 26 51  1  0  0  0  0
 27 28  1  0  0  0  0
 28 29  2  0  0  0  0
 28 30  2  0  0  0  0
 28 31  1  0  0  0  0
 31 32  1  0  0  0  0
 32 52  1  0  0  0  0
 33 38  1  0  0  0  0
 33 34  2  0  0  0  0
 34 35  1  0  0  0  0
 34 53  1  0  0  0  0
 35 36  2  0  0  0  0
 35 54  1  0  0  0  0
 36 37  1  0  0  0  0
 36 55  1  0  0  0  0
 37 38  2  0  0  0  0
 37 56  1  0  0  0  0
 38 57  1  0  0  0  0
M  END
> <s_m_source_file>
AV-unprocessed.smi

> <i_m_source_file_index>
1

> <i_lp_mmshare_version>
43012

> <i_f3d_flags>
0

> <s_epik_input>
W2NIXTFbY0hdW2NIXVtjSF1bY0hdYzFDKD1PKVtOSF1jKG5bY0hdbjIpYyhjMjMpbltjSF1uM1tDQEBIXShbQ0BIXShbQ0BIXTQ1KU9TKE81KSg9Tyk9TylPW0NASF00W0NIMl1PQyg9TyljNltjSF1bY0hdW2NIXVtjSF1bY0hdNg==

> <s_epik_cmdline>
J2VwaWtfcHl0aG9uJywgJy1waCcsICc3LjAnLCAnLXRuJywgJzgnLCAnLW1hJywgJzIwMCcsICctbWV0YWxfYmluZGluZycsICctaW1hZScsICc8aW5maWxlLm1hZT4nLCAnLW9tYWUnLCAnPG91dGZpbGUubWFlPic=

> <r_lp_tautomer_probability>
1

> <r_epik_Ionization_Penalty>
0.00195722

> <r_epik_Ionization_Penalty_Charging>
0

> <r_epik_Ionization_Penalty_Neutral>
0.00195722

> <r_epik_State_Penalty>
0.00633741

> <r_epik_Charging_Adjusted_Penalty>
0.00633741

> <i_epik_Tot_Q>
0

> <i_epik_Tot_abs_Q>
0

> <r_epik_Metal_State_Penalty>
0.341185

> <b_epik_Metal_Only>
0

> <s_epik_Chemistry_Notes>
This compound has an ester and may undergo hydrolysis at high or low pH. This compound contains an acetal/aminal-like group ( X-CH(R)-Y where X, Y are N, S, or O) that may be acid/base labile, releasing an aldehyde.

> <s_lp_Force_Field>
OPLS_2005

> <r_lp_Energy>
45.5474

> <b_lp_Chiralities_Consistent>
1

> <s_lp_Variant>
AV-unprocessed.smi:1-5

> <Gold.Version>
5.8.1

> <Gold.Id.Protein>
6NUR|6NUR_protein|mol2

> <Gold.PLP.Fitness>
53.0310

> <Gold.PLP.PLP>
-49.8569

> <Gold.PLP.part.hbond>
-0.8884

> <Gold.PLP.part.metal>
0.0000

> <Gold.PLP.part.buried>
-2.9175

> <Gold.PLP.part.nonpolar>
-47.7913

> <Gold.PLP.part.repulsive>
3.8730

> <Gold.PLP.ligand.clash>
0.0511

> <Gold.PLP.ligand.torsion>
1.3885

> <Gold.PLP.Chemscore.Hbond>
0.8954

> <Gold.PLP.Chemscore.CHOScore>
1.0000

> <Gold.PLP.Chemscore.Metal>
0.0000

> <Gold.Chemscore.Hbonds>
donor molecule, donor type, donor heavy atom, donor atom, acceptor molecule, acceptor atom, score
      P1  H  7989  7998       L1     5  0.26
      L1  C     6    40       P1  7957  1.00

> <Gold.PLP.Chemscore.Internal.Correction>
0.3160

> <Gold.Rescore>
     Score         DG    S(hbond)    S(metal)    S(lipo)     H(rot)  DE(clash)    DE(int)     intcor
      9.90     -15.73       0.00        0.00     134.29       2.13       0.10       5.74       ----

> <Gold.Chemscore.Fitness>
9.8976

> <Gold.Chemscore.DG>
-15.7309

> <Gold.Chemscore.ZeroCoef>
-5.4800

> <Gold.Chemscore.Hbond>
0.0000

> <Gold.Chemscore.Metal>
0.0000

> <Gold.Chemscore.Lipo>
134.2930

> <Gold.Chemscore.Internal_Hbond>
0.0000

> <Gold.Chemscore.DEClash>
0.0978

> <Gold.Chemscore.DEInternal>
5.7355

> <Gold.Chemscore.Rot>
2.1333

> <Gold.Chemscore.Internal.Correction>
   9.000000E+99

> <Gold.Chemscore.Hbonds>
donor molecule, donor type, donor heavy atom, donor atom, acceptor molecule, acceptor atom, score
      P1  H  7989  7998       L1     5  0.08

> <Gold.Chemscore.Hbond.Weighted>
-0.0000

> <Gold.Chemscore.Metal.Weighted>
-0.0000

> <Gold.Chemscore.Lipo.Weighted>
-15.7123

> <Gold.Chemscore.Internal_Hbond.Weighted>
0.0000

> <Gold.Chemscore.DEClash.Weighted>
0.0978

> <Gold.Chemscore.DEInternal.Weighted>
5.7355

> <Gold.Chemscore.Rot.Weighted>
5.4614

> <Gold.Chemscore.Internal.Correction.Weighted>
   9.000000E+99

> <Gold.Protein.RotatedTorsions>
[ 6907 6896 6895 6894 ] final  103.75 input  -60.11 | X-H torsion
[ 7974 7965 7964 7962 ] final -136.37 input  175.53 | X-H torsion
[ 8008 7997 7996 7995 ] final   29.18 input   59.86 | X-H torsion
[ 10167 10162 10161 10158 ] final   28.78 input  -65.29 | X-H torsion
[ 10718 10713 10712 10709 ] final -129.28 input   66.30 | X-H torsion
[ 10763 10752 10751 10750 ] final -119.73 input  -60.55 | X-H torsion
[ 11005 11000 10999 10996 ] final   18.41 input  -57.11 | X-H torsion

> <Gold.Protein.ActiveResidues>
 VAL166  LYS551  ARG553  GLY616  TRP617  ASP618  TYR619  PRO620  LYS621  CYS622 
 ASP623  PHE694  ASN695  SER759  ASP760  ASP761  ALA762  ILE779  LEU786  VAL792 
 PHE793  MET794  SER795  GLU796  ALA797  LYS798  CYS799  TRP800  GLU811  SER814 

> <Gold.Protein.RotatedAtoms>
  152.5286  133.9778  159.7792 H   0  0  0  0  0  0  0  0  0  0  0  0  # atno 6907 bound_to 6896
  151.0038  133.6023  159.2698 H   0  0  0  0  0  0  0  0  0  0  0  0  # atno 6908 bound_to 6896
  151.3122  135.0803  159.9329 H   0  0  0  0  0  0  0  0  0  0  0  0  # atno 6909 bound_to 6896
  144.8933  140.6672  143.5131 H   0  0  0  0  0  0  0  0  0  0  0  0  # atno 7974 bound_to 7965
  155.0705  140.3200  155.4632 H   0  0  0  0  0  0  0  0  0  0  0  0  # atno 8008 bound_to 7997
  156.2792  140.2113  156.5778 H   0  0  0  0  0  0  0  0  0  0  0  0  # atno 8009 bound_to 7997
  154.7059  140.0502  157.0490 H   0  0  0  0  0  0  0  0  0  0  0  0  # atno 8010 bound_to 7997
  140.4822  144.0597  150.6269 H   0  0  0  0  0  0  0  0  0  0  0  0  # atno 10167 bound_to 10162
  156.2032  130.6871  151.0563 H   0  0  0  0  0  0  0  0  0  0  0  0  # atno 10718 bound_to 10713
  154.8625  135.4228  154.2346 H   0  0  0  0  0  0  0  0  0  0  0  0  # atno 10763 bound_to 10752
  153.3324  135.6989  153.6942 H   0  0  0  0  0  0  0  0  0  0  0  0  # atno 10764 bound_to 10752
  153.5954  135.3547  155.2899 H   0  0  0  0  0  0  0  0  0  0  0  0  # atno 10765 bound_to 10752
  140.4251  134.1478  155.7676 H   0  0  0  0  0  0  0  0  0  0  0  0  # atno 11005 bound_to 11000
  145.3745  139.1651  143.4314 LP  0  0  0  0  0  0  0  0  0  0  0  0  # atno 17320 bound_to 7965
  146.3066  140.3820  142.8685 LP  0  0  0  0  0  0  0  0  0  0  0  0  # atno 17321 bound_to 7965
  140.3843  143.2786  152.0134 LP  0  0  0  0  0  0  0  0  0  0  0  0  # atno 17342 bound_to 10162
  139.4835  144.6130  151.7399 LP  0  0  0  0  0  0  0  0  0  0  0  0  # atno 17343 bound_to 10162
  157.6997  131.0780  150.6858 LP  0  0  0  0  0  0  0  0  0  0  0  0  # atno 17370 bound_to 10713
  156.6916  130.4596  149.5598 LP  0  0  0  0  0  0  0  0  0  0  0  0  # atno 17371 bound_to 10713
  141.1768  133.8497  157.1393 LP  0  0  0  0  0  0  0  0  0  0  0  0  # atno 17394 bound_to 11000
  140.0173  134.9962  157.0519 LP  0  0  0  0  0  0  0  0  0  0  0  0  # atno 17395 bound_to 11000

$$$$
