AV-unprocessed.smi:527|AV-procd|sdf|2819|dock5
  -GOLD-   2262023303D 1   1.00000     0.00000
 Structure written by MMmdl.
 42 43  0  0  0  0  0  0  0  0  1 V2000
  149.3525  141.1008  155.9856 C   0  0  0  0  0  0  0  0  0  0  0  0
  149.1488  140.9397  154.4651 C   0  0  2  0  0  0  0  0  0  0  0  0
  147.8899  141.6862  153.9792 C   0  0  0  0  0  0  0  0  0  0  0  0
  146.5946  140.9780  154.4053 C   0  0  0  0  0  0  0  0  0  0  0  0
  146.5755  139.5201  153.9257 C   0  0  0  0  0  0  0  0  0  0  0  0
  147.8202  138.7405  154.4003 C   0  0  1  0  0  0  0  0  0  0  0  0
  147.7915  137.3855  153.8521 N   0  0  0  0  0  0  0  0  0  0  0  0
  146.8464  136.4662  154.0985 C   0  0  0  0  0  0  0  0  0  0  0  0
  145.9840  136.5981  154.9699 O   0  0  0  0  0  0  0  0  0  0  0  0
  146.9783  135.4074  153.2763 N   0  0  0  0  0  0  0  0  0  0  0  0
  146.1691  134.3325  153.1822 C   0  0  0  0  0  0  0  0  0  0  0  0
  145.1487  134.1578  153.8534 O   0  0  0  0  0  0  0  0  0  0  0  0
  146.6087  133.2881  152.1472 C   0  0  0  0  0  0  0  0  0  0  0  0
  145.5095  132.7892  151.3381 N   0  0  0  0  0  0  0  0  0  0  0  0
  144.1686  133.1400  151.4352 C   0  0  0  0  0  0  0  0  0  0  0  0
  143.5028  132.4196  150.4695 C   0  0  0  0  0  0  0  0  0  0  0  0
  144.4078  131.6244  149.7702 N   0  0  0  0  0  0  0  0  0  0  0  0
  145.5751  131.8982  150.3387 C   0  0  0  0  0  0  0  0  0  0  0  0
  149.1249  139.4655  153.9792 C   0  0  2  0  0  0  0  0  0  0  0  0
  150.3986  138.6952  154.3803 C   0  0  0  0  0  0  0  0  0  0  0  0
  148.5749  140.6001  156.5614 H   0  0  0  0  0  0  0  0  0  0  0  0
  149.3416  142.1535  156.2693 H   0  0  0  0  0  0  0  0  0  0  0  0
  150.3126  140.6971  156.3062 H   0  0  0  0  0  0  0  0  0  0  0  0
  150.0032  141.4248  153.9909 H   0  0  0  0  0  0  0  0  0  0  0  0
  147.8926  142.7126  154.3475 H   0  0  0  0  0  0  0  0  0  0  0  0
  147.9131  141.7580  152.8910 H   0  0  0  0  0  0  0  0  0  0  0  0
  146.4899  141.0098  155.4900 H   0  0  0  0  0  0  0  0  0  0  0  0
  145.7329  141.5097  154.0012 H   0  0  0  0  0  0  0  0  0  0  0  0
  145.6667  139.0339  154.2827 H   0  0  0  0  0  0  0  0  0  0  0  0
  146.5246  139.5030  152.8361 H   0  0  0  0  0  0  0  0  0  0  0  0
  147.7997  138.6743  155.4895 H   0  0  0  0  0  0  0  0  0  0  0  0
  148.5590  137.1274  153.2495 H   0  0  0  0  0  0  0  0  0  0  0  0
  147.7775  135.4175  152.6602 H   0  0  0  0  0  0  0  0  0  0  0  0
  147.3599  133.7226  151.4862 H   0  0  0  0  0  0  0  0  0  0  0  0
  147.0764  132.4454  152.6580 H   0  0  0  0  0  0  0  0  0  0  0  0
  143.8099  133.8544  152.1614 H   0  0  0  0  0  0  0  0  0  0  0  0
  142.4505  132.4123  150.2260 H   0  0  0  0  0  0  0  0  0  0  0  0
  146.4998  131.4398  150.0206 H   0  0  0  0  0  0  0  0  0  0  0  0
  149.1277  139.5043  152.8884 H   0  0  0  0  0  0  0  0  0  0  0  0
  150.4260  138.4941  155.4515 H   0  0  0  0  0  0  0  0  0  0  0  0
  151.2955  139.2585  154.1217 H   0  0  0  0  0  0  0  0  0  0  0  0
  150.4639  137.7357  153.8671 H   0  0  0  0  0  0  0  0  0  0  0  0
  1  2  1  0  0  0  0
  1 21  1  0  0  0  0
  1 22  1  0  0  0  0
  1 23  1  0  0  0  0
  2 19  1  0  0  0  0
  2  3  1  0  0  0  0
  2 24  1  0  0  0  0
  3  4  1  0  0  0  0
  3 25  1  0  0  0  0
  3 26  1  0  0  0  0
  4  5  1  0  0  0  0
  4 27  1  0  0  0  0
  4 28  1  0  0  0  0
  5  6  1  0  0  0  0
  5 29  1  0  0  0  0
  5 30  1  0  0  0  0
  6  7  1  0  0  0  0
  6 19  1  0  0  0  0
  6 31  1  0  0  0  0
  7  8  1  0  0  0  0
  7 32  1  0  0  0  0
  8  9  2  0  0  0  0
  8 10  1  0  0  0  0
 10 11  1  0  0  0  0
 10 33  1  0  0  0  0
 11 12  2  0  0  0  0
 11 13  1  0  0  0  0
 13 14  1  0  0  0  0
 13 34  1  0  0  0  0
 13 35  1  0  0  0  0
 14 18  1  0  0  0  0
 14 15  1  0  0  0  0
 15 16  2  0  0  0  0
 15 36  1  0  0  0  0
 16 17  1  0  0  0  0
 16 37  1  0  0  0  0
 17 18  2  0  0  0  0
 18 38  1  0  0  0  0
 19 20  1  0  0  0  0
 19 39  1  0  0  0  0
 20 40  1  0  0  0  0
 20 41  1  0  0  0  0
 20 42  1  0  0  0  0
M  END
> <s_m_source_file>
AV-unprocessed.smi

> <i_m_source_file_index>
527

> <i_lp_mmshare_version>
43012

> <i_f3d_flags>
0

> <s_epik_input>
W0NIM11bQ0BASF0xW0NIMl1bQ0gyXVtDSDJdW0NASF0oW0NASF0xW0NIM10pW05IXUMoPU8pW05IXUMoPU8pW0NIMl1uMltjSF1bY0hdbltjSF0y

> <s_epik_cmdline>
J2VwaWtfcHl0aG9uJywgJy1waCcsICc3LjAnLCAnLXRuJywgJzgnLCAnLW1hJywgJzIwMCcsICctbWV0YWxfYmluZGluZycsICctaW1hZScsICc8aW5maWxlLm1hZT4nLCAnLW9tYWUnLCAnPG91dGZpbGUubWFlPic=

> <r_lp_tautomer_probability>
1

> <r_epik_Ionization_Penalty>
0.172132

> <r_epik_Ionization_Penalty_Charging>
0.172105

> <r_epik_Ionization_Penalty_Neutral>
2.71747e-05

> <r_epik_State_Penalty>
0.161503

> <r_epik_Charging_Adjusted_Penalty>
0.333607

> <i_epik_Tot_Q>
0

> <i_epik_Tot_abs_Q>
0

> <r_epik_Metal_State_Penalty>
0.124763

> <b_epik_Metal_Only>
0

> <s_lp_Force_Field>
OPLS_2005

> <r_lp_Energy>
17.7357

> <b_lp_Chiralities_Consistent>
1

> <s_lp_Variant>
AV-unprocessed.smi:527-5

> <Gold.Version>
5.8.1

> <Gold.Id.Protein>
6NUR|6NUR_protein|mol2

> <Gold.PLP.Fitness>
45.8426

> <Gold.PLP.PLP>
-32.2250

> <Gold.PLP.part.hbond>
-3.0000

> <Gold.PLP.part.metal>
0.0000

> <Gold.PLP.part.buried>
-2.1102

> <Gold.PLP.part.nonpolar>
-28.1122

> <Gold.PLP.part.repulsive>
0.2713

> <Gold.PLP.ligand.clash>
0.0000

> <Gold.PLP.ligand.torsion>
0.2523

> <Gold.PLP.Chemscore.Hbond>
2.2404

> <Gold.PLP.Chemscore.CHOScore>
2.4615

> <Gold.PLP.Chemscore.Metal>
0.0000

> <Gold.Chemscore.Hbonds>
donor molecule, donor type, donor heavy atom, donor atom, acceptor molecule, acceptor atom, score
      L1  H     7    32       P1  7948  0.88
      L1  H    10    33       P1  7948  1.00
      P1  H 10785 10796       L1    17  0.36
      L1  C    16    37       P1 10186  0.89
      L1  C    16    37       P1 10952  0.57
      L1  C    18    38       P1 10747  0.97

> <Gold.PLP.Chemscore.Internal.Correction>
0.0166

> <Gold.Rescore>
     Score         DG    S(hbond)    S(metal)    S(lipo)     H(rot)  DE(clash)    DE(int)     intcor
     14.57     -17.67       2.58        0.00      66.96       1.66       0.06       3.03       ----

> <Gold.Chemscore.Fitness>
14.5712

> <Gold.Chemscore.DG>
-17.6654

> <Gold.Chemscore.ZeroCoef>
-5.4800

> <Gold.Chemscore.Hbond>
2.5774

> <Gold.Chemscore.Metal>
0.0000

> <Gold.Chemscore.Lipo>
66.9564

> <Gold.Chemscore.Internal_Hbond>
0.0000

> <Gold.Chemscore.DEClash>
0.0640

> <Gold.Chemscore.DEInternal>
3.0303

> <Gold.Chemscore.Rot>
1.6629

> <Gold.Chemscore.Internal.Correction>
   9.000000E+99

> <Gold.Chemscore.Hbonds>
donor molecule, donor type, donor heavy atom, donor atom, acceptor molecule, acceptor atom, score
      L1  H     7    32       P1  7948  0.86
      L1  H    10    33       P1  7948  0.95
      P1  H 10785 10796       L1    17  0.19

> <Gold.Chemscore.Hbond.Weighted>
-8.6084

> <Gold.Chemscore.Metal.Weighted>
-0.0000

> <Gold.Chemscore.Lipo.Weighted>
-7.8339

> <Gold.Chemscore.Internal_Hbond.Weighted>
0.0000

> <Gold.Chemscore.DEClash.Weighted>
0.0640

> <Gold.Chemscore.DEInternal.Weighted>
3.0303

> <Gold.Chemscore.Rot.Weighted>
4.2569

> <Gold.Chemscore.Internal.Correction.Weighted>
   9.000000E+99

> <Gold.Protein.RotatedTorsions>
[ 6907 6896 6895 6894 ] final  109.36 input  -60.11 | X-H torsion
[ 7974 7965 7964 7962 ] final  147.01 input  175.53 | X-H torsion
[ 8008 7997 7996 7995 ] final  149.46 input   59.86 | X-H torsion
[ 10167 10162 10161 10158 ] final  124.16 input  -65.29 | X-H torsion
[ 10718 10713 10712 10709 ] final   47.62 input   66.30 | X-H torsion
[ 10763 10752 10751 10750 ] final   85.30 input  -60.55 | X-H torsion
[ 11005 11000 10999 10996 ] final   22.65 input  -57.11 | X-H torsion

> <Gold.Protein.ActiveResidues>
 VAL166  LYS551  ARG553  GLY616  TRP617  ASP618  TYR619  PRO620  LYS621  CYS622 
 ASP623  PHE694  ASN695  SER759  ASP760  ASP761  ALA762  ILE779  LEU786  VAL792 
 PHE793  MET794  SER795  GLU796  ALA797  LYS798  CYS799  TRP800  GLU811  SER814 

> <Gold.Protein.RotatedAtoms>
  152.5070  133.8955  159.7414 H   0  0  0  0  0  0  0  0  0  0  0  0  # atno 6907 bound_to 6896
  150.9383  133.6677  159.2803 H   0  0  0  0  0  0  0  0  0  0  0  0  # atno 6908 bound_to 6896
  151.3997  135.0974  159.9605 H   0  0  0  0  0  0  0  0  0  0  0  0  # atno 6909 bound_to 6896
  144.8626  139.5975  143.5924 H   0  0  0  0  0  0  0  0  0  0  0  0  # atno 7974 bound_to 7965
  156.2754  140.2101  156.5862 H   0  0  0  0  0  0  0  0  0  0  0  0  # atno 8008 bound_to 7997
  154.7019  140.0520  157.0489 H   0  0  0  0  0  0  0  0  0  0  0  0  # atno 8009 bound_to 7997
  155.0724  140.3178  155.4629 H   0  0  0  0  0  0  0  0  0  0  0  0  # atno 8010 bound_to 7997
  139.5758  144.6962  151.3658 H   0  0  0  0  0  0  0  0  0  0  0  0  # atno 10167 bound_to 10162
  157.4603  130.8192  149.7880 H   0  0  0  0  0  0  0  0  0  0  0  0  # atno 10718 bound_to 10713
  153.1462  135.4622  154.9569 H   0  0  0  0  0  0  0  0  0  0  0  0  # atno 10763 bound_to 10752
  154.7788  135.3181  154.8037 H   0  0  0  0  0  0  0  0  0  0  0  0  # atno 10764 bound_to 10752
  153.8551  135.6918  153.4842 H   0  0  0  0  0  0  0  0  0  0  0  0  # atno 10765 bound_to 10752
  140.3782  134.1949  155.7664 H   0  0  0  0  0  0  0  0  0  0  0  0  # atno 11005 bound_to 11000
  146.2871  139.7036  142.9187 LP  0  0  0  0  0  0  0  0  0  0  0  0  # atno 17320 bound_to 7965
  145.4284  141.0413  143.2925 LP  0  0  0  0  0  0  0  0  0  0  0  0  # atno 17321 bound_to 7965
  140.7040  143.7560  150.7451 LP  0  0  0  0  0  0  0  0  0  0  0  0  # atno 17342 bound_to 10162
  140.1079  143.4726  152.2387 LP  0  0  0  0  0  0  0  0  0  0  0  0  # atno 17343 bound_to 10162
  156.0026  130.3872  150.2550 LP  0  0  0  0  0  0  0  0  0  0  0  0  # atno 17370 bound_to 10713
  157.0727  131.0121  151.3184 LP  0  0  0  0  0  0  0  0  0  0  0  0  # atno 17371 bound_to 10713
  141.1932  133.8156  157.0808 LP  0  0  0  0  0  0  0  0  0  0  0  0  # atno 17394 bound_to 11000
  140.0499  134.9811  157.1117 LP  0  0  0  0  0  0  0  0  0  0  0  0  # atno 17395 bound_to 11000

$$$$
