AV-unprocessed.smi:2527|AV-procd|sdf|9945|dock6
  -GOLD-   2272013583D 1   1.00000     0.00000
 Structure written by MMmdl.
 35 37  0  0  0  0  0  0  0  0  2 V2000
  151.6194  145.5256  159.9967 C   0  0  0  0  0  0  0  0  0  0  0  0
  152.4527  144.8053  159.1066 O   0  0  0  0  0  0  0  0  0  0  0  0
  151.7834  144.4346  157.9120 C   0  0  0  0  0  0  0  0  0  0  0  0
  150.9636  143.1597  158.1551 C   0  0  0  0  0  0  0  0  0  0  0  0
  151.8117  142.0083  158.4274 N   0  0  0  0  0  0  0  0  0  0  0  0
  152.0396  140.9343  157.6305 C   0  0  0  0  0  0  0  0  0  0  0  0
  151.2794  140.7948  156.0384 S   0  0  0  0  0  0  0  0  0  0  0  0
  150.0734  139.4760  156.3675 C   0  0  0  0  0  0  0  0  0  0  0  0
  150.6770  138.0900  156.4136 C   0  0  0  0  0  0  0  0  0  0  0  0
  149.9877  137.1101  157.0669 N   0  0  0  0  0  0  0  0  0  0  0  0
  150.7143  136.0024  156.9591 C   0  0  0  0  0  0  0  0  0  0  0  0
  150.3616  134.9311  157.4475 O   0  0  0  0  0  0  0  0  0  0  0  0
  151.8364  136.2836  156.2521 N   0  5  0  0  0  0  0  0  0  0  0  0
  151.7785  137.6731  155.9063 N   0  0  0  0  0  0  0  0  0  0  0  0
  152.8722  140.0192  158.1314 N   0  0  0  0  0  0  0  0  0  0  0  0
  153.2151  140.5487  159.3587 C   0  0  0  0  0  0  0  0  0  0  0  0
  154.0712  140.0509  160.3666 C   0  0  0  0  0  0  0  0  0  0  0  0
  154.2758  140.7828  161.5549 C   0  0  0  0  0  0  0  0  0  0  0  0
  155.3259  140.1617  162.7746 Cl  0  0  0  0  0  0  0  0  0  0  0  0
  153.6274  142.0198  161.7505 C   0  0  0  0  0  0  0  0  0  0  0  0
  152.7690  142.5324  160.7589 C   0  0  0  0  0  0  0  0  0  0  0  0
  152.5685  141.7970  159.5755 C   0  0  0  0  0  0  0  0  0  0  0  0
  149.1008  137.2175  157.5359 H   0  0  0  0  0  0  0  0  0  0  0  0
  152.1803  145.7826  160.8954 H   0  0  0  0  0  0  0  0  0  0  0  0
  150.7558  144.9309  160.2973 H   0  0  0  0  0  0  0  0  0  0  0  0
  151.2666  146.4528  159.5433 H   0  0  0  0  0  0  0  0  0  0  0  0
  151.1232  145.2409  157.5888 H   0  0  0  0  0  0  0  0  0  0  0  0
  152.5083  144.2671  157.1137 H   0  0  0  0  0  0  0  0  0  0  0  0
  150.2919  143.3056  159.0015 H   0  0  0  0  0  0  0  0  0  0  0  0
  150.3261  142.9448  157.2974 H   0  0  0  0  0  0  0  0  0  0  0  0
  149.5744  139.6855  157.3144 H   0  0  0  0  0  0  0  0  0  0  0  0
  149.3068  139.4916  155.5922 H   0  0  0  0  0  0  0  0  0  0  0  0
  154.5722  139.1049  160.2233 H   0  0  0  0  0  0  0  0  0  0  0  0
  153.7894  142.5771  162.6615 H   0  0  0  0  0  0  0  0  0  0  0  0
  152.2747  143.4813  160.9047 H   0  0  0  0  0  0  0  0  0  0  0  0
  1  2  1  0  0  0  0
  1 24  1  0  0  0  0
  1 25  1  0  0  0  0
  1 26  1  0  0  0  0
  2  3  1  0  0  0  0
  3  4  1  0  0  0  0
  3 27  1  0  0  0  0
  3 28  1  0  0  0  0
  4  5  1  0  0  0  0
  4 29  1  0  0  0  0
  4 30  1  0  0  0  0
  5 22  1  0  0  0  0
  5  6  1  0  0  0  0
  6  7  1  0  0  0  0
  6 15  2  0  0  0  0
  7  8  1  0  0  0  0
  8 31  1  0  0  0  0
  8 32  1  0  0  0  0
  8  9  1  0  0  0  0
  9 14  2  0  0  0  0
  9 10  1  0  0  0  0
 10 11  1  0  0  0  0
 10 23  1  0  0  0  0
 11 13  1  0  0  0  0
 11 12  2  0  0  0  0
 13 14  1  0  0  0  0
 15 16  1  0  0  0  0
 16 22  2  0  0  0  0
 16 17  1  0  0  0  0
 17 18  2  0  0  0  0
 17 33  1  0  0  0  0
 18 19  1  0  0  0  0
 18 20  1  0  0  0  0
 20 21  2  0  0  0  0
 20 34  1  0  0  0  0
 21 22  1  0  0  0  0
 21 35  1  0  0  0  0
M  CHG  1  13  -1
M  END
> <s_m_source_file>
AV-unprocessed.smi

> <i_m_source_file_index>
2527

> <i_lp_mmshare_version>
43012

> <i_f3d_flags>
0

> <s_epik_input>
W2NIXTFjKENsKVtjSF1bY0hdYyhjMTIpbihbQ0gyXVtDSDJdT1tDSDNdKWMobjIpU1tDSDJdYzNuYyg9TylbbkhdW25IXTM=

> <s_epik_cmdline>
J2VwaWtfcHl0aG9uJywgJy1waCcsICc3LjAnLCAnLXRuJywgJzgnLCAnLW1hJywgJzIwMCcsICctbWV0YWxfYmluZGluZycsICctaW1hZScsICc8aW5maWxlLm1hZT4nLCAnLW9tYWUnLCAnPG91dGZpbGUubWFlPic=

> <r_lp_tautomer_probability>
0.999897

> <r_epik_Ionization_Penalty>
2.94119

> <r_epik_Ionization_Penalty_Charging>
1.40065e-06

> <r_epik_Ionization_Penalty_Neutral>
2.94119

> <r_epik_State_Penalty>
4.57578

> <r_epik_Charging_Adjusted_Penalty>
4.57578

> <i_epik_Tot_Q>
-1

> <i_epik_Tot_abs_Q>
1

> <r_epik_Metal_State_Penalty>
2.1052

> <b_epik_Metal_Only>
1

> <s_lp_Force_Field>
OPLS_2005

> <r_lp_Energy>
14.3955

> <b_lp_Chiralities_Consistent>
1

> <s_lp_Variant>
AV-unprocessed.smi:2527-4

> <Gold.Version>
5.8.1

> <Gold.Id.Protein>
6NUR|6NUR_protein|mol2

> <Gold.PLP.Fitness>
52.5040

> <Gold.PLP.PLP>
-43.2600

> <Gold.PLP.part.hbond>
-3.0000

> <Gold.PLP.part.metal>
0.0000

> <Gold.PLP.part.buried>
-5.3077

> <Gold.PLP.part.nonpolar>
-34.7795

> <Gold.PLP.part.repulsive>
0.0554

> <Gold.PLP.ligand.clash>
0.0000

> <Gold.PLP.ligand.torsion>
0.7234

> <Gold.PLP.Chemscore.Hbond>
3.5392

> <Gold.PLP.Chemscore.CHOScore>
0.0000

> <Gold.PLP.Chemscore.Metal>
0.0000

> <Gold.Chemscore.Hbonds>
donor molecule, donor type, donor heavy atom, donor atom, acceptor molecule, acceptor atom, score
      P1  H  6896  6908       L1    12  0.49
      P1  H  7997  8010       L1    15  0.94
      P1  H 10752 10763       L1    13  2.00

> <Gold.PLP.Chemscore.Internal.Correction>
0.0730

> <Gold.Rescore>
     Score         DG    S(hbond)    S(metal)    S(lipo)     H(rot)  DE(clash)    DE(int)     intcor
     15.45     -16.55       1.71        0.00     107.29       2.81       0.10       1.01       ----

> <Gold.Chemscore.Fitness>
15.4467

> <Gold.Chemscore.DG>
-16.5483

> <Gold.Chemscore.ZeroCoef>
-5.4800

> <Gold.Chemscore.Hbond>
1.7087

> <Gold.Chemscore.Metal>
0.0000

> <Gold.Chemscore.Lipo>
107.2883

> <Gold.Chemscore.Internal_Hbond>
0.0000

> <Gold.Chemscore.DEClash>
0.0959

> <Gold.Chemscore.DEInternal>
1.0057

> <Gold.Chemscore.Rot>
2.8092

> <Gold.Chemscore.Internal.Correction>
   9.000000E+99

> <Gold.Chemscore.Hbonds>
donor molecule, donor type, donor heavy atom, donor atom, acceptor molecule, acceptor atom, score
      P1  H  6896  6908       L1    12  0.49
      P1  H  7997  8010       L1    15  0.27
      P1  H 10752 10763       L1    13  0.44

> <Gold.Chemscore.Hbond.Weighted>
-5.7072

> <Gold.Chemscore.Metal.Weighted>
-0.0000

> <Gold.Chemscore.Lipo.Weighted>
-12.5527

> <Gold.Chemscore.Internal_Hbond.Weighted>
0.0000

> <Gold.Chemscore.DEClash.Weighted>
0.0959

> <Gold.Chemscore.DEInternal.Weighted>
1.0057

> <Gold.Chemscore.Rot.Weighted>
7.1916

> <Gold.Chemscore.Internal.Correction.Weighted>
   9.000000E+99

> <Gold.Protein.RotatedTorsions>
[ 6907 6896 6895 6894 ] final  135.07 input  -60.11 | X-H torsion
[ 7974 7965 7964 7962 ] final  142.68 input  175.53 | X-H torsion
[ 8008 7997 7996 7995 ] final   30.60 input   59.86 | X-H torsion
[ 10167 10162 10161 10158 ] final   34.63 input  -65.29 | X-H torsion
[ 10718 10713 10712 10709 ] final  -88.37 input   66.30 | X-H torsion
[ 10763 10752 10751 10750 ] final   78.32 input  -60.55 | X-H torsion
[ 11005 11000 10999 10996 ] final  138.91 input  -57.11 | X-H torsion

> <Gold.Protein.ActiveResidues>
 VAL166  LYS551  ARG553  GLY616  TRP617  ASP618  TYR619  PRO620  LYS621  CYS622 
 ASP623  PHE694  ASN695  SER759  ASP760  ASP761  ALA762  ILE779  LEU786  VAL792 
 PHE793  MET794  SER795  GLU796  ALA797  LYS798  CYS799  TRP800  GLU811  SER814 

> <Gold.Protein.RotatedAtoms>
  152.3044  133.5688  159.5639 H   0  0  0  0  0  0  0  0  0  0  0  0  # atno 6907 bound_to 6896
  150.7293  134.0244  159.3721 H   0  0  0  0  0  0  0  0  0  0  0  0  # atno 6908 bound_to 6896
  151.8142  135.0672  160.0467 H   0  0  0  0  0  0  0  0  0  0  0  0  # atno 6909 bound_to 6896
  144.8986  139.5454  143.5764 H   0  0  0  0  0  0  0  0  0  0  0  0  # atno 7974 bound_to 7965
  155.0931  140.3222  155.4568 H   0  0  0  0  0  0  0  0  0  0  0  0  # atno 8008 bound_to 7997
  156.2737  140.2074  156.6004 H   0  0  0  0  0  0  0  0  0  0  0  0  # atno 8009 bound_to 7997
  154.6888  140.0518  157.0329 H   0  0  0  0  0  0  0  0  0  0  0  0  # atno 8010 bound_to 7997
  140.4297  144.1342  150.6158 H   0  0  0  0  0  0  0  0  0  0  0  0  # atno 10167 bound_to 10162
  155.9984  130.4833  150.5009 H   0  0  0  0  0  0  0  0  0  0  0  0  # atno 10718 bound_to 10713
  153.0865  135.4881  154.8607 H   0  0  0  0  0  0  0  0  0  0  0  0  # atno 10763 bound_to 10752
  154.7217  135.3041  154.9038 H   0  0  0  0  0  0  0  0  0  0  0  0  # atno 10764 bound_to 10752
  153.9701  135.6802  153.4800 H   0  0  0  0  0  0  0  0  0  0  0  0  # atno 10765 bound_to 10752
  140.0217  134.9393  157.0487 H   0  0  0  0  0  0  0  0  0  0  0  0  # atno 11005 bound_to 11000
  146.3096  139.7698  142.9030 LP  0  0  0  0  0  0  0  0  0  0  0  0  # atno 17320 bound_to 7965
  145.3655  141.0333  143.3260 LP  0  0  0  0  0  0  0  0  0  0  0  0  # atno 17321 bound_to 7965
  140.4441  143.2514  151.9434 LP  0  0  0  0  0  0  0  0  0  0  0  0  # atno 17342 bound_to 10162
  139.4784  144.5626  151.8215 LP  0  0  0  0  0  0  0  0  0  0  0  0  # atno 17343 bound_to 10162
  157.2994  131.0642  151.2079 LP  0  0  0  0  0  0  0  0  0  0  0  0  # atno 17370 bound_to 10713
  157.3064  130.6868  149.6191 LP  0  0  0  0  0  0  0  0  0  0  0  0  # atno 17371 bound_to 10713
  140.4376  134.1715  155.7171 LP  0  0  0  0  0  0  0  0  0  0  0  0  # atno 17394 bound_to 11000
  141.1778  133.8478  157.1363 LP  0  0  0  0  0  0  0  0  0  0  0  0  # atno 17395 bound_to 11000

$$$$
