AV-unprocessed.smi:2021|AV-procd|sdf|8180|dock1
  -GOLD-   2272010433D 1   1.00000     0.00000
 Structure written by MMmdl.
 41 42  0  0  0  0  0  0  0  0  1 V2000
  152.5925  141.0756  159.7281 C   0  0  0  0  0  0  0  0  0  0  0  0
  152.2329  142.2998  158.8715 C   0  0  0  0  0  0  0  0  0  0  0  0
  152.3557  143.5814  159.7136 C   0  0  0  0  0  0  0  0  0  0  0  0
  150.8223  142.1514  158.2543 C   0  0  0  0  0  0  0  0  0  0  0  0
  150.6688  141.0686  157.2814 N   0  0  0  0  0  0  0  0  0  0  0  0
  151.9370  140.6547  156.6868 C   0  0  0  0  0  0  0  0  0  0  0  0
  151.7459  139.5423  155.6422 C   0  0  0  0  0  0  0  0  0  0  0  0
  150.8258  139.9751  154.6464 O   0  0  0  0  0  0  0  0  0  0  0  0
  149.5521  140.3257  155.1828 C   0  0  2  0  0  0  0  0  0  0  0  0
  148.6356  140.7580  154.0252 C   0  0  0  0  0  0  0  0  0  0  0  0
  148.2300  139.6213  153.2056 N   0  0  0  0  0  0  0  0  0  0  0  0
  147.0764  138.9512  153.3361 C   0  0  0  0  0  0  0  0  0  0  0  0
  146.2089  139.2488  154.1572 O   0  0  0  0  0  0  0  0  0  0  0  0
  147.0062  137.9310  152.4662 N   0  0  0  0  0  0  0  0  0  0  0  0
  145.9656  136.9797  152.3204 C   0  0  0  0  0  0  0  0  0  0  0  0
  145.0770  136.8634  153.3144 N   0  0  0  0  0  0  0  0  0  0  0  0
  144.1121  135.9019  153.0401 N   0  0  0  0  0  0  0  0  0  0  0  0
  144.3114  135.3298  151.8489 C   0  0  0  0  0  0  0  0  0  0  0  0
  145.6981  135.9076  150.9423 S   0  0  0  0  0  0  0  0  0  0  0  0
  149.7479  141.4522  156.2162 C   0  0  0  0  0  0  0  0  0  0  0  0
  151.8957  140.9521  160.5577 H   0  0  0  0  0  0  0  0  0  0  0  0
  153.5954  141.1678  160.1460 H   0  0  0  0  0  0  0  0  0  0  0  0
  152.5700  140.1609  159.1348 H   0  0  0  0  0  0  0  0  0  0  0  0
  152.9678  142.3460  158.0666 H   0  0  0  0  0  0  0  0  0  0  0  0
  151.6694  143.5641  160.5607 H   0  0  0  0  0  0  0  0  0  0  0  0
  152.1336  144.4733  159.1294 H   0  0  0  0  0  0  0  0  0  0  0  0
  153.3655  143.6952  160.1088 H   0  0  0  0  0  0  0  0  0  0  0  0
  150.1188  141.9667  159.0674 H   0  0  0  0  0  0  0  0  0  0  0  0
  150.5032  143.0977  157.8146 H   0  0  0  0  0  0  0  0  0  0  0  0
  152.4242  141.5114  156.2188 H   0  0  0  0  0  0  0  0  0  0  0  0
  152.6129  140.2894  157.4590 H   0  0  0  0  0  0  0  0  0  0  0  0
  152.6967  139.2994  155.1681 H   0  0  0  0  0  0  0  0  0  0  0  0
  151.3797  138.6287  156.1132 H   0  0  0  0  0  0  0  0  0  0  0  0
  149.1215  139.4552  155.6812 H   0  0  0  0  0  0  0  0  0  0  0  0
  147.7512  141.2684  154.4106 H   0  0  0  0  0  0  0  0  0  0  0  0
  149.1522  141.4751  153.3868 H   0  0  0  0  0  0  0  0  0  0  0  0
  148.8880  139.3080  152.5073 H   0  0  0  0  0  0  0  0  0  0  0  0
  147.7933  137.8110  151.8460 H   0  0  0  0  0  0  0  0  0  0  0  0
  143.6359  134.5622  151.5011 H   0  0  0  0  0  0  0  0  0  0  0  0
  148.7804  141.7164  156.6448 H   0  0  0  0  0  0  0  0  0  0  0  0
  150.1193  142.3463  155.7123 H   0  0  0  0  0  0  0  0  0  0  0  0
  1  2  1  0  0  0  0
  1 21  1  0  0  0  0
  1 22  1  0  0  0  0
  1 23  1  0  0  0  0
  2  3  1  0  0  0  0
  2  4  1  0  0  0  0
  2 24  1  0  0  0  0
  3 25  1  0  0  0  0
  3 26  1  0  0  0  0
  3 27  1  0  0  0  0
  4  5  1  0  0  0  0
  4 28  1  0  0  0  0
  4 29  1  0  0  0  0
  5 20  1  0  0  0  0
  5  6  1  0  0  0  0
  6  7  1  0  0  0  0
  6 30  1  0  0  0  0
  6 31  1  0  0  0  0
  7  8  1  0  0  0  0
  7 32  1  0  0  0  0
  7 33  1  0  0  0  0
  8  9  1  0  0  0  0
  9 10  1  0  0  0  0
  9 20  1  0  0  0  0
  9 34  1  0  0  0  0
 10 11  1  0  0  0  0
 10 35  1  0  0  0  0
 10 36  1  0  0  0  0
 11 12  1  0  0  0  0
 11 37  1  0  0  0  0
 12 13  2  0  0  0  0
 12 14  1  0  0  0  0
 14 15  1  0  0  0  0
 14 38  1  0  0  0  0
 15 19  1  0  0  0  0
 15 16  2  0  0  0  0
 16 17  1  0  0  0  0
 17 18  2  0  0  0  0
 18 19  1  0  0  0  0
 18 39  1  0  0  0  0
 20 40  1  0  0  0  0
 20 41  1  0  0  0  0
M  END
> <s_m_source_file>
AV-unprocessed.smi

> <i_m_source_file_index>
2021

> <i_lp_mmshare_version>
43012

> <i_f3d_flags>
0

> <s_epik_input>
W0NIM11bQ0hdKFtDSDNdKVtDSDJdTjFbQ0gyXVtDSDJdT1tDQEhdKFtDSDJdMSlbQ0gyXVtOSF1DKD1PKVtOSF1jMm5uW2NIXXMy

> <s_epik_cmdline>
J2VwaWtfcHl0aG9uJywgJy1waCcsICc3LjAnLCAnLXRuJywgJzgnLCAnLW1hJywgJzIwMCcsICctbWV0YWxfYmluZGluZycsICctaW1hZScsICc8aW5maWxlLm1hZT4nLCAnLW9tYWUnLCAnPG91dGZpbGUubWFlPic=

> <r_lp_tautomer_probability>
1

> <r_epik_Ionization_Penalty>
1.11451

> <r_epik_Ionization_Penalty_Charging>
0

> <r_epik_Ionization_Penalty_Neutral>
1.11451

> <r_epik_State_Penalty>
1.17021

> <r_epik_Charging_Adjusted_Penalty>
1.17021

> <i_epik_Tot_Q>
0

> <i_epik_Tot_abs_Q>
0

> <r_epik_Metal_State_Penalty>
1.53642

> <b_epik_Metal_Only>
0

> <s_lp_Force_Field>
OPLS_2005

> <r_lp_Energy>
23.4775

> <b_lp_Chiralities_Consistent>
1

> <s_lp_Variant>
AV-unprocessed.smi:2021-6

> <Gold.Version>
5.8.1

> <Gold.Id.Protein>
6NUR|6NUR_protein|mol2

> <Gold.PLP.Fitness>
39.8824

> <Gold.PLP.PLP>
-34.7107

> <Gold.PLP.part.hbond>
-2.8971

> <Gold.PLP.part.metal>
0.0000

> <Gold.PLP.part.buried>
-5.6272

> <Gold.PLP.part.nonpolar>
-27.6466

> <Gold.PLP.part.repulsive>
0.6339

> <Gold.PLP.ligand.clash>
0.0000

> <Gold.PLP.ligand.torsion>
0.8252

> <Gold.PLP.Chemscore.Hbond>
2.2480

> <Gold.PLP.Chemscore.CHOScore>
0.0000

> <Gold.PLP.Chemscore.Metal>
0.0000

> <Gold.Chemscore.Hbonds>
donor molecule, donor type, donor heavy atom, donor atom, acceptor molecule, acceptor atom, score
      L1  H    11    37       P1  7957  0.69
      L1  H    14    38       P1  7948  0.50
      P1  H  7989  7998       L1     8  1.00

> <Gold.PLP.Chemscore.Internal.Correction>
0.0782

> <Gold.Rescore>
     Score         DG    S(hbond)    S(metal)    S(lipo)     H(rot)  DE(clash)    DE(int)     intcor
     15.71     -17.96       2.32        0.00      80.58       1.84       0.01       2.23       ----

> <Gold.Chemscore.Fitness>
15.7062

> <Gold.Chemscore.DG>
-17.9555

> <Gold.Chemscore.ZeroCoef>
-5.4800

> <Gold.Chemscore.Hbond>
2.3236

> <Gold.Chemscore.Metal>
0.0000

> <Gold.Chemscore.Lipo>
80.5842

> <Gold.Chemscore.Internal_Hbond>
0.0000

> <Gold.Chemscore.DEClash>
0.0149

> <Gold.Chemscore.DEInternal>
2.2344

> <Gold.Chemscore.Rot>
1.8413

> <Gold.Chemscore.Internal.Correction>
   9.000000E+99

> <Gold.Chemscore.Hbonds>
donor molecule, donor type, donor heavy atom, donor atom, acceptor molecule, acceptor atom, score
      L1  H    11    37       P1  7957  0.70
      L1  H    14    38       P1  7948  0.50
      P1  H  7989  7998       L1     8  0.74

> <Gold.Chemscore.Hbond.Weighted>
-7.7610

> <Gold.Chemscore.Metal.Weighted>
-0.0000

> <Gold.Chemscore.Lipo.Weighted>
-9.4283

> <Gold.Chemscore.Internal_Hbond.Weighted>
0.0000

> <Gold.Chemscore.DEClash.Weighted>
0.0149

> <Gold.Chemscore.DEInternal.Weighted>
2.2344

> <Gold.Chemscore.Rot.Weighted>
4.7138

> <Gold.Chemscore.Internal.Correction.Weighted>
   9.000000E+99

> <Gold.Protein.RotatedTorsions>
[ 6907 6896 6895 6894 ] final -144.07 input  -60.11 | X-H torsion
[ 7974 7965 7964 7962 ] final   97.36 input  175.53 | X-H torsion
[ 8008 7997 7996 7995 ] final   41.65 input   59.86 | X-H torsion
[ 10167 10162 10161 10158 ] final -119.83 input  -65.29 | X-H torsion
[ 10718 10713 10712 10709 ] final  137.47 input   66.30 | X-H torsion
[ 10763 10752 10751 10750 ] final  114.80 input  -60.55 | X-H torsion
[ 11005 11000 10999 10996 ] final -148.18 input  -57.11 | X-H torsion

> <Gold.Protein.ActiveResidues>
 VAL166  LYS551  ARG553  GLY616  TRP617  ASP618  TYR619  PRO620  LYS621  CYS622 
 ASP623  PHE694  ASN695  SER759  ASP760  ASP761  ALA762  ILE779  LEU786  VAL792 
 PHE793  MET794  SER795  GLU796  ALA797  LYS798  CYS799  TRP800  GLU811  SER814 

> <Gold.Protein.RotatedAtoms>
  151.1090  133.5187  159.2606 H   0  0  0  0  0  0  0  0  0  0  0  0  # atno 6907 bound_to 6896
  151.1988  135.0433  159.8873 H   0  0  0  0  0  0  0  0  0  0  0  0  # atno 6908 bound_to 6896
  152.5449  134.0921  159.8334 H   0  0  0  0  0  0  0  0  0  0  0  0  # atno 6909 bound_to 6896
  145.4265  139.2315  143.3167 H   0  0  0  0  0  0  0  0  0  0  0  0  # atno 7974 bound_to 7965
  155.2731  140.3367  155.4264 H   0  0  0  0  0  0  0  0  0  0  0  0  # atno 8008 bound_to 7997
  156.2124  140.1775  156.7707 H   0  0  0  0  0  0  0  0  0  0  0  0  # atno 8009 bound_to 7997
  154.5705  140.0671  156.8941 H   0  0  0  0  0  0  0  0  0  0  0  0  # atno 8010 bound_to 7997
  140.0424  143.5140  152.2123 H   0  0  0  0  0  0  0  0  0  0  0  0  # atno 10167 bound_to 10162
  157.4357  131.1053  151.0200 H   0  0  0  0  0  0  0  0  0  0  0  0  # atno 10718 bound_to 10713
  153.5127  135.3614  155.2594 H   0  0  0  0  0  0  0  0  0  0  0  0  # atno 10763 bound_to 10752
  154.8741  135.4026  154.3350 H   0  0  0  0  0  0  0  0  0  0  0  0  # atno 10764 bound_to 10752
  153.4006  135.7075  153.6496 H   0  0  0  0  0  0  0  0  0  0  0  0  # atno 10765 bound_to 10752
  140.7639  134.3266  157.5094 H   0  0  0  0  0  0  0  0  0  0  0  0  # atno 11005 bound_to 11000
  146.2629  140.4997  142.8846 LP  0  0  0  0  0  0  0  0  0  0  0  0  # atno 17320 bound_to 7965
  144.8210  140.6550  143.6353 LP  0  0  0  0  0  0  0  0  0  0  0  0  # atno 17321 bound_to 7965
  139.6005  144.7581  151.3183 LP  0  0  0  0  0  0  0  0  0  0  0  0  # atno 17342 bound_to 10162
  140.7254  143.7018  150.7839 LP  0  0  0  0  0  0  0  0  0  0  0  0  # atno 17343 bound_to 10162
  157.1081  130.6010  149.5475 LP  0  0  0  0  0  0  0  0  0  0  0  0  # atno 17370 bound_to 10713
  155.9929  130.4989  150.7361 LP  0  0  0  0  0  0  0  0  0  0  0  0  # atno 17371 bound_to 10713
  139.8766  134.9219  156.3287 LP  0  0  0  0  0  0  0  0  0  0  0  0  # atno 17394 bound_to 11000
  140.9637  133.7372  156.0437 LP  0  0  0  0  0  0  0  0  0  0  0  0  # atno 17395 bound_to 11000

$$$$
