AV-unprocessed.smi:3148|AV-procd|sdf|11992|dock9
  -GOLD-   2272017393D 1   1.00000     0.00000
 Structure written by MMmdl.
 34 36  0  0  0  0  0  0  0  0  1 V2000
  154.6478  140.2347  161.5607 C   0  0  0  0  0  0  0  0  0  0  0  0
  154.1720  141.5624  161.3691 O   0  0  0  0  0  0  0  0  0  0  0  0
  153.4158  141.8255  160.2458 C   0  0  0  0  0  0  0  0  0  0  0  0
  152.9478  143.1352  160.0154 C   0  0  0  0  0  0  0  0  0  0  0  0
  152.1829  143.3316  158.8467 C   0  0  0  0  0  0  0  0  0  0  0  0
  151.6292  144.6927  158.4824 C   0  0  0  0  0  0  0  0  0  0  0  0
  151.9126  142.3195  157.9932 N   0  0  0  0  0  0  0  0  0  0  0  0
  152.4043  141.1181  158.3034 C   0  0  0  0  0  0  0  0  0  0  0  0
  152.1161  140.1073  157.4052 N   0  0  0  0  0  0  0  0  0  0  0  0
  151.8880  140.3165  155.9799 C   0  0  1  0  0  0  0  0  0  0  0  0
  152.0392  139.0388  155.1515 C   0  0  0  0  0  0  0  0  0  0  0  0
  150.7052  138.9972  154.3925 C   0  0  1  0  0  0  0  0  0  0  0  0
  149.5496  138.5713  155.3074 C   0  0  0  0  0  0  0  0  0  0  0  0
  149.3642  139.8160  156.1730 C   0  0  0  0  0  0  0  0  0  0  0  0
  150.4533  140.7522  155.6217 C   0  0  2  0  0  0  0  0  0  0  0  0
  150.4279  140.3809  154.2538 O   0  0  0  0  0  0  0  0  0  0  0  0
  153.1379  140.8185  159.3811 N   0  0  0  0  0  0  0  0  0  0  0  0
  155.2299  140.1897  162.4810 H   0  0  0  0  0  0  0  0  0  0  0  0
  155.2975  139.9217  160.7421 H   0  0  0  0  0  0  0  0  0  0  0  0
  153.8245  139.5251  161.6550 H   0  0  0  0  0  0  0  0  0  0  0  0
  153.1674  143.9419  160.6990 H   0  0  0  0  0  0  0  0  0  0  0  0
  151.7694  145.4046  159.2963 H   0  0  0  0  0  0  0  0  0  0  0  0
  150.5622  144.6266  158.2680 H   0  0  0  0  0  0  0  0  0  0  0  0
  152.1349  145.0807  157.5980 H   0  0  0  0  0  0  0  0  0  0  0  0
  151.8731  139.2080  157.7942 H   0  0  0  0  0  0  0  0  0  0  0  0
  152.5964  141.0598  155.6109 H   0  0  0  0  0  0  0  0  0  0  0  0
  152.8778  139.1345  154.4612 H   0  0  0  0  0  0  0  0  0  0  0  0
  152.1954  138.1403  155.7504 H   0  0  0  0  0  0  0  0  0  0  0  0
  150.7483  138.4495  153.4508 H   0  0  0  0  0  0  0  0  0  0  0  0
  148.6477  138.3710  154.7280 H   0  0  0  0  0  0  0  0  0  0  0  0
  149.7868  137.6806  155.8903 H   0  0  0  0  0  0  0  0  0  0  0  0
  148.3747  140.2446  156.0117 H   0  0  0  0  0  0  0  0  0  0  0  0
  149.4714  139.6140  157.2390 H   0  0  0  0  0  0  0  0  0  0  0  0
  150.2549  141.8099  155.7978 H   0  0  0  0  0  0  0  0  0  0  0  0
  1  2  1  0  0  0  0
  1 18  1  0  0  0  0
  1 19  1  0  0  0  0
  1 20  1  0  0  0  0
  2  3  1  0  0  0  0
  3 17  1  0  0  0  0
  3  4  2  0  0  0  0
  4  5  1  0  0  0  0
  4 21  1  0  0  0  0
  5  6  1  0  0  0  0
  5  7  2  0  0  0  0
  6 22  1  0  0  0  0
  6 23  1  0  0  0  0
  6 24  1  0  0  0  0
  7  8  1  0  0  0  0
  8  9  1  0  0  0  0
  8 17  2  0  0  0  0
  9 10  1  0  0  0  0
  9 25  1  0  0  0  0
 10 15  1  0  0  0  0
 10 11  1  0  0  0  0
 10 26  1  0  0  0  0
 11 12  1  0  0  0  0
 11 27  1  0  0  0  0
 11 28  1  0  0  0  0
 12 16  1  0  0  0  0
 12 13  1  0  0  0  0
 12 29  1  0  0  0  0
 13 14  1  0  0  0  0
 13 30  1  0  0  0  0
 13 31  1  0  0  0  0
 14 15  1  0  0  0  0
 14 32  1  0  0  0  0
 14 33  1  0  0  0  0
 15 16  1  0  0  0  0
 15 34  1  0  0  0  0
M  END
> <s_m_source_file>
AV-unprocessed.smi

> <i_m_source_file_index>
3148

> <i_lp_mmshare_version>
43012

> <i_f3d_flags>
0

> <s_epik_input>
W0NIM11PYzFbY0hdYyhbQ0gzXSluYyhuMSlbTkhdW0NASF0oW0NIMl1bQ0BASF0yMylbQ0BASF0oTzMpW0NIMl1bQ0gyXTI=

> <s_epik_cmdline>
J2VwaWtfcHl0aG9uJywgJy1waCcsICc3LjAnLCAnLXRuJywgJzgnLCAnLW1hJywgJzIwMCcsICctbWV0YWxfYmluZGluZycsICctaW1hZScsICc8aW5maWxlLm1hZT4nLCAnLW9tYWUnLCAnPG91dGZpbGUubWFlPic=

> <r_lp_tautomer_probability>
1

> <r_epik_Ionization_Penalty>
0.101645

> <r_epik_Ionization_Penalty_Charging>
0

> <r_epik_Ionization_Penalty_Neutral>
0.101645

> <r_epik_State_Penalty>
0.0916212

> <r_epik_Charging_Adjusted_Penalty>
0.0916212

> <i_epik_Tot_Q>
0

> <i_epik_Tot_abs_Q>
0

> <r_epik_Metal_State_Penalty>
0.0781

> <b_epik_Metal_Only>
0

> <s_lp_Force_Field>
OPLS_2005

> <r_lp_Energy>
31.5885

> <b_lp_Chiralities_Consistent>
1

> <s_lp_Variant>
AV-unprocessed.smi:3148-2

> <Gold.Version>
5.8.1

> <Gold.Id.Protein>
6NUR|6NUR_protein|mol2

> <Gold.PLP.Fitness>
38.0215

> <Gold.PLP.PLP>
-35.9390

> <Gold.PLP.part.hbond>
-1.6146

> <Gold.PLP.part.metal>
0.0000

> <Gold.PLP.part.buried>
-4.0337

> <Gold.PLP.part.nonpolar>
-29.4181

> <Gold.PLP.part.repulsive>
0.2431

> <Gold.PLP.ligand.clash>
0.0000

> <Gold.PLP.ligand.torsion>
0.4638

> <Gold.PLP.Chemscore.Hbond>
1.0000

> <Gold.PLP.Chemscore.CHOScore>
0.0000

> <Gold.PLP.Chemscore.Metal>
0.0000

> <Gold.Chemscore.Hbonds>
donor molecule, donor type, donor heavy atom, donor atom, acceptor molecule, acceptor atom, score
      P1  H  7989  7998       L1    16  0.91

> <Gold.PLP.Chemscore.Internal.Correction>
0.0100

> <Gold.Rescore>
     Score         DG    S(hbond)    S(metal)    S(lipo)     H(rot)  DE(clash)    DE(int)     intcor
     14.03     -14.57       0.87        0.00      79.68       1.22       0.00       0.54       ----

> <Gold.Chemscore.Fitness>
14.0320

> <Gold.Chemscore.DG>
-14.5700

> <Gold.Chemscore.ZeroCoef>
-5.4800

> <Gold.Chemscore.Hbond>
0.8680

> <Gold.Chemscore.Metal>
0.0000

> <Gold.Chemscore.Lipo>
79.6765

> <Gold.Chemscore.Internal_Hbond>
0.0000

> <Gold.Chemscore.DEClash>
0.0000

> <Gold.Chemscore.DEInternal>
0.5381

> <Gold.Chemscore.Rot>
1.2232

> <Gold.Chemscore.Internal.Correction>
   9.000000E+99

> <Gold.Chemscore.Hbonds>
donor molecule, donor type, donor heavy atom, donor atom, acceptor molecule, acceptor atom, score
      P1  H  7989  7998       L1    16  0.28

> <Gold.Chemscore.Hbond.Weighted>
-2.8993

> <Gold.Chemscore.Metal.Weighted>
-0.0000

> <Gold.Chemscore.Lipo.Weighted>
-9.3221

> <Gold.Chemscore.Internal_Hbond.Weighted>
0.0000

> <Gold.Chemscore.DEClash.Weighted>
0.0000

> <Gold.Chemscore.DEInternal.Weighted>
0.5381

> <Gold.Chemscore.Rot.Weighted>
3.1314

> <Gold.Chemscore.Internal.Correction.Weighted>
   9.000000E+99

> <Gold.Protein.RotatedTorsions>
[ 6907 6896 6895 6894 ] final    9.18 input  -60.11 | X-H torsion
[ 7974 7965 7964 7962 ] final   21.48 input  175.53 | X-H torsion
[ 8008 7997 7996 7995 ] final  125.46 input   59.86 | X-H torsion
[ 10167 10162 10161 10158 ] final   76.84 input  -65.29 | X-H torsion
[ 10718 10713 10712 10709 ] final  -92.92 input   66.30 | X-H torsion
[ 10763 10752 10751 10750 ] final  -27.16 input  -60.55 | X-H torsion
[ 11005 11000 10999 10996 ] final -161.54 input  -57.11 | X-H torsion

> <Gold.Protein.ActiveResidues>
 VAL166  LYS551  ARG553  GLY616  TRP617  ASP618  TYR619  PRO620  LYS621  CYS622 
 ASP623  PHE694  ASN695  SER759  ASP760  ASP761  ALA762  ILE779  LEU786  VAL792 
 PHE793  MET794  SER795  GLU796  ALA797  LYS798  CYS799  TRP800  GLU811  SER814 

> <Gold.Protein.RotatedAtoms>
  151.7180  135.0900  160.0278 H   0  0  0  0  0  0  0  0  0  0  0  0  # atno 6907 bound_to 6896
  152.3620  133.6305  159.6030 H   0  0  0  0  0  0  0  0  0  0  0  0  # atno 6908 bound_to 6896
  150.7611  133.9324  159.3472 H   0  0  0  0  0  0  0  0  0  0  0  0  # atno 6909 bound_to 6896
  146.2069  139.8021  142.8718 H   0  0  0  0  0  0  0  0  0  0  0  0  # atno 7974 bound_to 7965
  156.2834  140.2716  156.1952 H   0  0  0  0  0  0  0  0  0  0  0  0  # atno 8008 bound_to 7997
  155.0417  140.0386  157.2530 H   0  0  0  0  0  0  0  0  0  0  0  0  # atno 8009 bound_to 7997
  154.7268  140.2699  155.6496 H   0  0  0  0  0  0  0  0  0  0  0  0  # atno 8010 bound_to 7997
  139.9880  144.5778  150.7842 H   0  0  0  0  0  0  0  0  0  0  0  0  # atno 10167 bound_to 10162
  156.0007  130.5006  150.5698 H   0  0  0  0  0  0  0  0  0  0  0  0  # atno 10718 bound_to 10713
  153.7277  135.6941  153.4997 H   0  0  0  0  0  0  0  0  0  0  0  0  # atno 10763 bound_to 10752
  153.2158  135.4387  155.0432 H   0  0  0  0  0  0  0  0  0  0  0  0  # atno 10764 bound_to 10752
  154.8263  135.3448  154.6808 H   0  0  0  0  0  0  0  0  0  0  0  0  # atno 10765 bound_to 10752
  140.6193  134.4767  157.5222 H   0  0  0  0  0  0  0  0  0  0  0  0  # atno 11005 bound_to 11000
  145.3285  141.0261  143.3460 LP  0  0  0  0  0  0  0  0  0  0  0  0  # atno 17320 bound_to 7965
  144.8816  139.4896  143.6720 LP  0  0  0  0  0  0  0  0  0  0  0  0  # atno 17321 bound_to 7965
  140.7465  143.2892  151.3378 LP  0  0  0  0  0  0  0  0  0  0  0  0  # atno 17342 bound_to 10162
  139.6361  144.0628  152.2516 LP  0  0  0  0  0  0  0  0  0  0  0  0  # atno 17343 bound_to 10162
  157.3595  131.0747  151.1648 LP  0  0  0  0  0  0  0  0  0  0  0  0  # atno 17370 bound_to 10713
  157.2438  130.6582  149.5901 LP  0  0  0  0  0  0  0  0  0  0  0  0  # atno 17371 bound_to 10713
  139.9160  134.8246  156.1366 LP  0  0  0  0  0  0  0  0  0  0  0  0  # atno 17394 bound_to 11000
  141.0754  133.6778  156.2225 LP  0  0  0  0  0  0  0  0  0  0  0  0  # atno 17395 bound_to 11000

$$$$
