AV-unprocessed.smi:715|AV-procd|sdf|3485|dock7
  -GOLD-   22720 0483D 1   1.00000     0.00000
 Structure written by MMmdl.
 39 40  0  0  0  0  0  0  0  0  1 V2000
  145.7350  142.6549  154.6983 C   0  0  0  0  0  0  0  0  0  0  0  0
  146.5189  141.4394  154.6523 N   0  0  0  0  0  0  0  0  0  0  0  0
  147.8863  141.2926  154.7441 C   0  0  0  0  0  0  0  0  0  0  0  0
  148.1642  139.9571  154.6495 C   0  0  0  0  0  0  0  0  0  0  0  0
  149.4958  139.2554  154.6993 C   0  0  1  0  0  0  0  0  0  0  0  0
  150.3963  139.8120  153.7624 O   0  0  0  0  0  0  0  0  0  0  0  0
  150.1199  139.3776  156.1004 C   0  0  0  0  0  0  0  0  0  0  0  0
  150.3132  140.7745  156.4680 N   0  0  0  0  0  0  0  0  0  0  0  0
  151.4605  141.2828  156.9391 C   0  0  0  0  0  0  0  0  0  0  0  0
  152.4794  140.6104  157.0983 O   0  0  0  0  0  0  0  0  0  0  0  0
  151.4549  142.7786  157.2740 C   0  0  0  0  0  0  0  0  0  0  0  0
  151.4498  143.0733  158.7887 C   0  0  0  0  0  0  0  0  0  0  0  0
  151.3565  144.5595  159.1555 C   0  0  0  0  0  0  0  0  0  0  0  0
  151.8929  144.6568  160.5886 C   0  0  0  0  0  0  0  0  0  0  0  0
  152.7339  143.3927  160.8235 C   0  0  0  0  0  0  0  0  0  0  0  0
  152.7284  142.6236  159.4988 C   0  0  0  0  0  0  0  0  0  0  0  0
  146.8772  139.3644  154.5037 C   0  0  0  0  0  0  0  0  0  0  0  0
  145.8965  140.2525  154.5030 N   0  0  0  0  0  0  0  0  0  0  0  0
  146.3845  143.5128  154.8751 H   0  0  0  0  0  0  0  0  0  0  0  0
  145.0033  142.5924  155.5044 H   0  0  0  0  0  0  0  0  0  0  0  0
  145.2140  142.7935  153.7504 H   0  0  0  0  0  0  0  0  0  0  0  0
  148.5437  142.1405  154.8693 H   0  0  0  0  0  0  0  0  0  0  0  0
  149.3689  138.2006  154.4514 H   0  0  0  0  0  0  0  0  0  0  0  0
  150.1336  139.5399  152.8963 H   0  0  0  0  0  0  0  0  0  0  0  0
  149.5140  138.8627  156.8482 H   0  0  0  0  0  0  0  0  0  0  0  0
  151.1000  138.8974  156.1013 H   0  0  0  0  0  0  0  0  0  0  0  0
  149.5186  141.3895  156.3697 H   0  0  0  0  0  0  0  0  0  0  0  0
  152.3390  143.2260  156.8188 H   0  0  0  0  0  0  0  0  0  0  0  0
  150.5928  143.2543  156.8038 H   0  0  0  0  0  0  0  0  0  0  0  0
  150.6119  142.5520  159.2554 H   0  0  0  0  0  0  0  0  0  0  0  0
  151.9935  145.1453  158.4910 H   0  0  0  0  0  0  0  0  0  0  0  0
  150.3423  144.9508  159.0670 H   0  0  0  0  0  0  0  0  0  0  0  0
  152.4790  145.5659  160.7272 H   0  0  0  0  0  0  0  0  0  0  0  0
  151.0675  144.6898  161.3011 H   0  0  0  0  0  0  0  0  0  0  0  0
  153.7484  143.6283  161.1466 H   0  0  0  0  0  0  0  0  0  0  0  0
  152.2746  142.7876  161.6063 H   0  0  0  0  0  0  0  0  0  0  0  0
  152.7685  141.5437  159.6446 H   0  0  0  0  0  0  0  0  0  0  0  0
  153.6017  142.9097  158.9107 H   0  0  0  0  0  0  0  0  0  0  0  0
  146.6291  138.3185  154.3994 H   0  0  0  0  0  0  0  0  0  0  0  0
  1  2  1  0  0  0  0
  1 19  1  0  0  0  0
  1 20  1  0  0  0  0
  1 21  1  0  0  0  0
  2 18  1  0  0  0  0
  2  3  1  0  0  0  0
  3  4  2  0  0  0  0
  3 22  1  0  0  0  0
  4  5  1  0  0  0  0
  4 17  1  0  0  0  0
  5  6  1  0  0  0  0
  5  7  1  0  0  0  0
  5 23  1  0  0  0  0
  6 24  1  0  0  0  0
  7  8  1  0  0  0  0
  7 25  1  0  0  0  0
  7 26  1  0  0  0  0
  8  9  1  0  0  0  0
  8 27  1  0  0  0  0
  9 10  2  0  0  0  0
  9 11  1  0  0  0  0
 11 12  1  0  0  0  0
 11 28  1  0  0  0  0
 11 29  1  0  0  0  0
 12 16  1  0  0  0  0
 12 13  1  0  0  0  0
 12 30  1  0  0  0  0
 13 14  1  0  0  0  0
 13 31  1  0  0  0  0
 13 32  1  0  0  0  0
 14 15  1  0  0  0  0
 14 33  1  0  0  0  0
 14 34  1  0  0  0  0
 15 16  1  0  0  0  0
 15 35  1  0  0  0  0
 15 36  1  0  0  0  0
 16 37  1  0  0  0  0
 16 38  1  0  0  0  0
 17 18  2  0  0  0  0
 17 39  1  0  0  0  0
M  END
> <s_m_source_file>
AV-unprocessed.smi

> <i_m_source_file_index>
715

> <i_lp_mmshare_version>
43012

> <i_f3d_flags>
0

> <s_epik_input>
W0NIM11uMVtjSF1jKFtjSF1uMSlbQ0BIXShbT0hdKVtDSDJdW05IXUMoPU8pW0NIMl1bQ0hdMltDSDJdW0NIMl1bQ0gyXVtDSDJdMg==

> <s_epik_cmdline>
J2VwaWtfcHl0aG9uJywgJy1waCcsICc3LjAnLCAnLXRuJywgJzgnLCAnLW1hJywgJzIwMCcsICctbWV0YWxfYmluZGluZycsICctaW1hZScsICc8aW5maWxlLm1hZT4nLCAnLW9tYWUnLCAnPG91dGZpbGUubWFlPic=

> <r_lp_tautomer_probability>
1

> <r_epik_Ionization_Penalty>
4.45533e-05

> <r_epik_Ionization_Penalty_Charging>
0

> <r_epik_Ionization_Penalty_Neutral>
4.45533e-05

> <r_epik_State_Penalty>
-0

> <r_epik_Charging_Adjusted_Penalty>
0

> <i_epik_Tot_Q>
0

> <i_epik_Tot_abs_Q>
0

> <r_epik_Metal_State_Penalty>
-0

> <b_epik_Metal_Only>
0

> <s_lp_Force_Field>
OPLS_2005

> <r_lp_Energy>
19.2831

> <b_lp_Chiralities_Consistent>
1

> <s_lp_Variant>
AV-unprocessed.smi:715-2

> <Gold.Version>
5.8.1

> <Gold.Id.Protein>
6NUR|6NUR_protein|mol2

> <Gold.PLP.Fitness>
46.0465

> <Gold.PLP.PLP>
-34.7734

> <Gold.PLP.part.hbond>
-2.9312

> <Gold.PLP.part.metal>
0.0000

> <Gold.PLP.part.buried>
-2.6639

> <Gold.PLP.part.nonpolar>
-28.6685

> <Gold.PLP.part.repulsive>
1.2916

> <Gold.PLP.ligand.clash>
0.0000

> <Gold.PLP.ligand.torsion>
0.3276

> <Gold.PLP.Chemscore.Hbond>
2.9840

> <Gold.PLP.Chemscore.CHOScore>
0.9788

> <Gold.PLP.Chemscore.Metal>
0.0000

> <Gold.Chemscore.Hbonds>
donor molecule, donor type, donor heavy atom, donor atom, acceptor molecule, acceptor atom, score
      L1  H     6    24       P1  7957  0.96
      P1  H  7989  7998       L1     6  0.94
      P1  H  7997  8009       L1    10  0.82
      L1  C     3    22       P1  8028  0.57

> <Gold.PLP.Chemscore.Internal.Correction>
0.0398

> <Gold.Rescore>
     Score         DG    S(hbond)    S(metal)    S(lipo)     H(rot)  DE(clash)    DE(int)     intcor
     15.97     -18.39       2.37        0.00      92.67       2.29       0.73       1.69       ----

> <Gold.Chemscore.Fitness>
15.9663

> <Gold.Chemscore.DG>
-18.3867

> <Gold.Chemscore.ZeroCoef>
-5.4800

> <Gold.Chemscore.Hbond>
2.3708

> <Gold.Chemscore.Metal>
0.0000

> <Gold.Chemscore.Lipo>
92.6664

> <Gold.Chemscore.Internal_Hbond>
0.0000

> <Gold.Chemscore.DEClash>
0.7316

> <Gold.Chemscore.DEInternal>
1.6888

> <Gold.Chemscore.Rot>
2.2866

> <Gold.Chemscore.Internal.Correction>
   9.000000E+99

> <Gold.Chemscore.Hbonds>
donor molecule, donor type, donor heavy atom, donor atom, acceptor molecule, acceptor atom, score
      L1  H     6    24       P1  7957  0.89
      P1  H  7989  7998       L1     6  0.36
      P1  H  7997  8009       L1    10  0.78

> <Gold.Chemscore.Hbond.Weighted>
-7.9186

> <Gold.Chemscore.Metal.Weighted>
-0.0000

> <Gold.Chemscore.Lipo.Weighted>
-10.8420

> <Gold.Chemscore.Internal_Hbond.Weighted>
0.0000

> <Gold.Chemscore.DEClash.Weighted>
0.7316

> <Gold.Chemscore.DEInternal.Weighted>
1.6888

> <Gold.Chemscore.Rot.Weighted>
5.8538

> <Gold.Chemscore.Internal.Correction.Weighted>
   9.000000E+99

> <Gold.Protein.RotatedTorsions>
[ 6907 6896 6895 6894 ] final  -56.61 input  -60.11 | X-H torsion
[ 7974 7965 7964 7962 ] final  -29.14 input  175.53 | X-H torsion
[ 8008 7997 7996 7995 ] final  178.61 input   59.86 | X-H torsion
[ 10167 10162 10161 10158 ] final  -54.69 input  -65.29 | X-H torsion
[ 10718 10713 10712 10709 ] final  -82.29 input   66.30 | X-H torsion
[ 10763 10752 10751 10750 ] final -112.38 input  -60.55 | X-H torsion
[ 11005 11000 10999 10996 ] final  -43.21 input  -57.11 | X-H torsion

> <Gold.Protein.ActiveResidues>
 VAL166  LYS551  ARG553  GLY616  TRP617  ASP618  TYR619  PRO620  LYS621  CYS622 
 ASP623  PHE694  ASN695  SER759  ASP760  ASP761  ALA762  ILE779  LEU786  VAL792 
 PHE793  MET794  SER795  GLU796  ALA797  LYS798  CYS799  TRP800  GLU811  SER814 

> <Gold.Protein.RotatedAtoms>
  150.8153  134.7332  159.6724 H   0  0  0  0  0  0  0  0  0  0  0  0  # atno 6907 bound_to 6896
  152.4272  134.5842  159.9966 H   0  0  0  0  0  0  0  0  0  0  0  0  # atno 6908 bound_to 6896
  151.6041  133.3316  159.3089 H   0  0  0  0  0  0  0  0  0  0  0  0  # atno 6909 bound_to 6896
  146.1238  140.5374  142.8724 H   0  0  0  0  0  0  0  0  0  0  0  0  # atno 7974 bound_to 7965
  156.0527  140.1329  157.0032 H   0  0  0  0  0  0  0  0  0  0  0  0  # atno 8008 bound_to 7997
  154.4442  140.1007  156.6470 H   0  0  0  0  0  0  0  0  0  0  0  0  # atno 8009 bound_to 7997
  155.5499  140.3462  155.4468 H   0  0  0  0  0  0  0  0  0  0  0  0  # atno 8010 bound_to 7997
  140.6417  143.2511  151.4972 H   0  0  0  0  0  0  0  0  0  0  0  0  # atno 10167 bound_to 10162
  156.0035  130.4630  150.4083 H   0  0  0  0  0  0  0  0  0  0  0  0  # atno 10718 bound_to 10713
  154.8347  135.4493  154.1185 H   0  0  0  0  0  0  0  0  0  0  0  0  # atno 10763 bound_to 10752
  153.2428  135.6918  153.7771 H   0  0  0  0  0  0  0  0  0  0  0  0  # atno 10764 bound_to 10752
  153.7112  135.3356  155.3222 H   0  0  0  0  0  0  0  0  0  0  0  0  # atno 10765 bound_to 10752
  141.0368  133.6796  156.2701 H   0  0  0  0  0  0  0  0  0  0  0  0  # atno 11005 bound_to 11000
  144.7622  140.5448  143.6727 LP  0  0  0  0  0  0  0  0  0  0  0  0  # atno 17320 bound_to 7965
  145.5410  139.1475  143.3447 LP  0  0  0  0  0  0  0  0  0  0  0  0  # atno 17321 bound_to 7965
  139.5626  144.2120  152.1715 LP  0  0  0  0  0  0  0  0  0  0  0  0  # atno 17342 bound_to 10162
  140.1392  144.5218  150.6754 LP  0  0  0  0  0  0  0  0  0  0  0  0  # atno 17343 bound_to 10162
  157.2147  131.0468  151.2579 LP  0  0  0  0  0  0  0  0  0  0  0  0  # atno 17370 bound_to 10713
  157.3856  130.7254  149.6661 LP  0  0  0  0  0  0  0  0  0  0  0  0  # atno 17371 bound_to 10713
  140.6307  134.5267  157.5559 LP  0  0  0  0  0  0  0  0  0  0  0  0  # atno 17394 bound_to 11000
  139.9247  134.8080  156.1105 LP  0  0  0  0  0  0  0  0  0  0  0  0  # atno 17395 bound_to 11000

$$$$
