AV-unprocessed.smi:583|AV-procd|sdf|2998|dock9
  -GOLD-   2262023503D 1   1.00000     0.00000
 Structure written by MMmdl.
 35 36  0  0  0  0  0  0  0  0  1 V2000
  152.5376  140.1600  155.1647 O   0  0  0  0  0  0  0  0  0  0  0  0
  151.9017  139.8922  156.1852 C   0  0  0  0  0  0  0  0  0  0  0  0
  152.5969  139.2870  157.4135 C   0  0  0  0  0  0  0  0  0  0  0  0
  152.7566  140.2393  158.5258 N   0  0  0  0  0  0  0  0  0  0  0  0
  152.2270  141.5323  158.3449 C   0  0  0  0  0  0  0  0  0  0  0  0
  152.2929  142.4903  159.2895 C   0  0  0  0  0  0  0  0  0  0  0  0
  151.7591  143.8932  159.0452 C   0  0  0  0  0  0  0  0  0  0  0  0
  150.4508  143.8713  158.7899 F   0  0  0  0  0  0  0  0  0  0  0  0
  151.9666  144.6785  160.1032 F   0  0  0  0  0  0  0  0  0  0  0  0
  152.3776  144.4369  157.9977 F   0  0  0  0  0  0  0  0  0  0  0  0
  152.9773  142.1387  160.5182 C   0  0  0  0  0  0  0  0  0  0  0  0
  153.4949  140.9088  160.7051 C   0  0  0  0  0  0  0  0  0  0  0  0
  153.3944  139.8704  159.6772 C   0  0  0  0  0  0  0  0  0  0  0  0
  153.8554  138.7401  159.8397 O   0  0  0  0  0  0  0  0  0  0  0  0
  150.5790  140.0863  156.2970 N   0  0  0  0  0  0  0  0  0  0  0  0
  149.7227  140.6482  155.2571 C   0  0  1  0  0  0  0  0  0  0  0  0
  148.9185  139.5624  154.5125 C   0  0  0  0  0  0  0  0  0  0  0  0
  147.7924  140.2392  153.7212 C   0  0  0  0  0  0  0  0  0  0  0  0
  147.3347  141.7408  154.6678 S   0  0  0  0  0  0  0  0  0  0  0  0
  147.5097  142.9189  153.8053 O   0  0  0  0  0  0  0  0  0  0  0  0
  146.0714  141.5074  155.3838 O   0  0  0  0  0  0  0  0  0  0  0  0
  148.7239  141.6461  155.8588 C   0  0  0  0  0  0  0  0  0  0  0  0
  152.0385  138.4108  157.7483 H   0  0  0  0  0  0  0  0  0  0  0  0
  153.5673  138.9012  157.0980 H   0  0  0  0  0  0  0  0  0  0  0  0
  151.7579  141.6962  157.3856 H   0  0  0  0  0  0  0  0  0  0  0  0
  153.0725  142.8723  161.3052 H   0  0  0  0  0  0  0  0  0  0  0  0
  153.9952  140.6807  161.6348 H   0  0  0  0  0  0  0  0  0  0  0  0
  150.1349  139.8328  157.1677 H   0  0  0  0  0  0  0  0  0  0  0  0
  150.3363  141.1841  154.5301 H   0  0  0  0  0  0  0  0  0  0  0  0
  149.5527  138.9583  153.8627 H   0  0  0  0  0  0  0  0  0  0  0  0
  148.4729  138.8839  155.2412 H   0  0  0  0  0  0  0  0  0  0  0  0
  148.1461  140.5566  152.7399 H   0  0  0  0  0  0  0  0  0  0  0  0
  146.9219  139.5969  153.5866 H   0  0  0  0  0  0  0  0  0  0  0  0
  148.3225  141.2840  156.8059 H   0  0  0  0  0  0  0  0  0  0  0  0
  149.1517  142.6362  156.0174 H   0  0  0  0  0  0  0  0  0  0  0  0
  1  2  2  0  0  0  0
  2  3  1  0  0  0  0
  2 15  1  0  0  0  0
  3  4  1  0  0  0  0
  3 23  1  0  0  0  0
  3 24  1  0  0  0  0
  4 13  1  0  0  0  0
  4  5  1  0  0  0  0
  5  6  2  0  0  0  0
  5 25  1  0  0  0  0
  6  7  1  0  0  0  0
  6 11  1  0  0  0  0
  7  8  1  0  0  0  0
  7  9  1  0  0  0  0
  7 10  1  0  0  0  0
 11 12  2  0  0  0  0
 11 26  1  0  0  0  0
 12 13  1  0  0  0  0
 12 27  1  0  0  0  0
 13 14  2  0  0  0  0
 15 16  1  0  0  0  0
 15 28  1  0  0  0  0
 16 22  1  0  0  0  0
 16 17  1  0  0  0  0
 16 29  1  0  0  0  0
 17 18  1  0  0  0  0
 17 30  1  0  0  0  0
 17 31  1  0  0  0  0
 18 19  1  0  0  0  0
 18 32  1  0  0  0  0
 18 33  1  0  0  0  0
 19 20  2  0  0  0  0
 19 21  2  0  0  0  0
 19 22  1  0  0  0  0
 22 34  1  0  0  0  0
 22 35  1  0  0  0  0
M  END
> <s_m_source_file>
AV-unprocessed.smi

> <i_m_source_file_index>
583

> <i_lp_mmshare_version>
43012

> <i_f3d_flags>
0

> <s_epik_input>
Tz1TMSg9TylbQ0gyXVtDSDJdW0NASF0oW0NIMl0xKVtOSF1DKD1PKVtDSDJdbjJbY0hdYyhDKEYpKEYpRilbY0hdW2NIXWMyPU8=

> <s_epik_cmdline>
J2VwaWtfcHl0aG9uJywgJy1waCcsICc3LjAnLCAnLXRuJywgJzgnLCAnLW1hJywgJzIwMCcsICctbWV0YWxfYmluZGluZycsICctaW1hZScsICc8aW5maWxlLm1hZT4nLCAnLW9tYWUnLCAnPG91dGZpbGUubWFlPic=

> <r_lp_tautomer_probability>
1

> <r_epik_Ionization_Penalty>
1.22016e-07

> <r_epik_Ionization_Penalty_Charging>
1.48237e-08

> <r_epik_Ionization_Penalty_Neutral>
1.07193e-07

> <r_epik_State_Penalty>
-0

> <r_epik_Charging_Adjusted_Penalty>
1.48237e-08

> <i_epik_Tot_Q>
0

> <i_epik_Tot_abs_Q>
0

> <r_epik_Metal_State_Penalty>
-0

> <b_epik_Metal_Only>
0

> <s_lp_Force_Field>
OPLS_2005

> <r_lp_Energy>
16.0517

> <b_lp_Chiralities_Consistent>
1

> <s_lp_Variant>
AV-unprocessed.smi:583-2

> <Gold.Version>
5.8.1

> <Gold.Id.Protein>
6NUR|6NUR_protein|mol2

> <Gold.PLP.Fitness>
46.6837

> <Gold.PLP.PLP>
-42.0276

> <Gold.PLP.part.hbond>
-4.0000

> <Gold.PLP.part.metal>
0.0000

> <Gold.PLP.part.buried>
0.7675

> <Gold.PLP.part.nonpolar>
-40.3352

> <Gold.PLP.part.repulsive>
2.2218

> <Gold.PLP.ligand.clash>
0.6799

> <Gold.PLP.ligand.torsion>
0.4299

> <Gold.PLP.Chemscore.Hbond>
2.0544

> <Gold.PLP.Chemscore.CHOScore>
0.0000

> <Gold.PLP.Chemscore.Metal>
0.0000

> <Gold.Chemscore.Hbonds>
donor molecule, donor type, donor heavy atom, donor atom, acceptor molecule, acceptor atom, score
      P1  H  7989  7998       L1     1  0.53
      P1  H  7997  8008       L1     1  0.83
      P1  H  8022  8030       L1    20  0.45

> <Gold.PLP.Chemscore.Internal.Correction>
0.0326

> <Gold.Rescore>
     Score         DG    S(hbond)    S(metal)    S(lipo)     H(rot)  DE(clash)    DE(int)     intcor
     10.92     -13.95       1.11        0.00      78.59       1.73       1.54       1.48       ----

> <Gold.Chemscore.Fitness>
10.9232

> <Gold.Chemscore.DG>
-13.9460

> <Gold.Chemscore.ZeroCoef>
-5.4800

> <Gold.Chemscore.Hbond>
1.1087

> <Gold.Chemscore.Metal>
0.0000

> <Gold.Chemscore.Lipo>
78.5937

> <Gold.Chemscore.Internal_Hbond>
0.0000

> <Gold.Chemscore.DEClash>
1.5435

> <Gold.Chemscore.DEInternal>
1.4792

> <Gold.Chemscore.Rot>
1.7314

> <Gold.Chemscore.Internal.Correction>
   9.000000E+99

> <Gold.Chemscore.Hbonds>
donor molecule, donor type, donor heavy atom, donor atom, acceptor molecule, acceptor atom, score
      P1  H  7989  7998       L1     1  0.50
      P1  H  7997  8008       L1     1  0.13
      P1  H  8022  8030       L1    20  0.45

> <Gold.Chemscore.Hbond.Weighted>
-3.7029

> <Gold.Chemscore.Metal.Weighted>
-0.0000

> <Gold.Chemscore.Lipo.Weighted>
-9.1955

> <Gold.Chemscore.Internal_Hbond.Weighted>
0.0000

> <Gold.Chemscore.DEClash.Weighted>
1.5435

> <Gold.Chemscore.DEInternal.Weighted>
1.4792

> <Gold.Chemscore.Rot.Weighted>
4.4324

> <Gold.Chemscore.Internal.Correction.Weighted>
   9.000000E+99

> <Gold.Protein.RotatedTorsions>
[ 6907 6896 6895 6894 ] final   56.47 input  -60.11 | X-H torsion
[ 7974 7965 7964 7962 ] final  -99.75 input  175.53 | X-H torsion
[ 8008 7997 7996 7995 ] final  -24.93 input   59.86 | X-H torsion
[ 10167 10162 10161 10158 ] final -101.39 input  -65.29 | X-H torsion
[ 10718 10713 10712 10709 ] final  -28.52 input   66.30 | X-H torsion
[ 10763 10752 10751 10750 ] final   55.10 input  -60.55 | X-H torsion
[ 11005 11000 10999 10996 ] final  -43.57 input  -57.11 | X-H torsion

> <Gold.Protein.ActiveResidues>
 VAL166  LYS551  ARG553  GLY616  TRP617  ASP618  TYR619  PRO620  LYS621  CYS622 
 ASP623  PHE694  ASN695  SER759  ASP760  ASP761  ALA762  ILE779  LEU786  VAL792 
 PHE793  MET794  SER795  GLU796  ALA797  LYS798  CYS799  TRP800  GLU811  SER814 

> <Gold.Protein.RotatedAtoms>
  152.3639  134.6832  160.0197 H   0  0  0  0  0  0  0  0  0  0  0  0  # atno 6907 bound_to 6896
  151.7147  133.3307  159.3307 H   0  0  0  0  0  0  0  0  0  0  0  0  # atno 6908 bound_to 6896
  150.7624  134.6436  159.6295 H   0  0  0  0  0  0  0  0  0  0  0  0  # atno 6909 bound_to 6896
  145.3035  140.9383  143.2810 H   0  0  0  0  0  0  0  0  0  0  0  0  # atno 7974 bound_to 7965
  154.4503  140.1940  156.0540 H   0  0  0  0  0  0  0  0  0  0  0  0  # atno 8008 bound_to 7997
  156.0632  140.3294  155.7460 H   0  0  0  0  0  0  0  0  0  0  0  0  # atno 8009 bound_to 7997
  155.5378  140.0583  157.2867 H   0  0  0  0  0  0  0  0  0  0  0  0  # atno 8010 bound_to 7997
  140.2418  143.3533  152.0795 H   0  0  0  0  0  0  0  0  0  0  0  0  # atno 10167 bound_to 10162
  156.4241  130.4432  149.7163 H   0  0  0  0  0  0  0  0  0  0  0  0  # atno 10718 bound_to 10713
  152.9812  135.5722  154.5011 H   0  0  0  0  0  0  0  0  0  0  0  0  # atno 10763 bound_to 10752
  154.4530  135.2779  155.1769 H   0  0  0  0  0  0  0  0  0  0  0  0  # atno 10764 bound_to 10752
  154.3389  135.6233  153.5640 H   0  0  0  0  0  0  0  0  0  0  0  0  # atno 10765 bound_to 10752
  141.0392  133.6787  156.2751 H   0  0  0  0  0  0  0  0  0  0  0  0  # atno 11005 bound_to 11000
  144.9074  139.4572  143.6603 LP  0  0  0  0  0  0  0  0  0  0  0  0  # atno 17320 bound_to 7965
  146.3143  139.7862  142.8995 LP  0  0  0  0  0  0  0  0  0  0  0  0  # atno 17321 bound_to 7965
  139.5075  144.6833  151.5953 LP  0  0  0  0  0  0  0  0  0  0  0  0  # atno 17342 bound_to 10162
  140.6108  143.9440  150.6452 LP  0  0  0  0  0  0  0  0  0  0  0  0  # atno 17343 bound_to 10162
  156.4092  130.7713  151.2725 LP  0  0  0  0  0  0  0  0  0  0  0  0  # atno 17370 bound_to 10713
  157.7508  131.0216  150.3759 LP  0  0  0  0  0  0  0  0  0  0  0  0  # atno 17371 bound_to 10713
  140.6265  134.5308  157.5554 LP  0  0  0  0  0  0  0  0  0  0  0  0  # atno 17394 bound_to 11000
  139.9263  134.8049  156.1059 LP  0  0  0  0  0  0  0  0  0  0  0  0  # atno 17395 bound_to 11000

$$$$
