AV-unprocessed.smi:1868|AV-procd|sdf|7589|dock5
  -GOLD-   22720 9303D 1   1.00000     0.00000
 Structure written by MMmdl.
 48 50  0  0  0  0  0  0  0  0  3 V2000
  149.1194  141.0289  154.1433 C   0  0  0  0  0  0  0  0  0  0  0  0
  149.9778  141.3188  155.3285 C   0  0  0  0  0  0  0  0  0  0  0  0
  149.9650  142.4654  156.0652 N   0  3  0  0  0  0  0  0  0  0  0  0
  150.9069  142.3784  157.0915 C   0  0  0  0  0  0  0  0  0  0  0  0
  151.2591  143.2864  158.0853 C   0  0  0  0  0  0  0  0  0  0  0  0
  152.2703  142.8825  158.9818 C   0  0  0  0  0  0  0  0  0  0  0  0
  152.8887  141.6198  158.8711 C   0  0  0  0  0  0  0  0  0  0  0  0
  152.5231  140.7072  157.8592 C   0  0  0  0  0  0  0  0  0  0  0  0
  151.5227  141.1150  156.9774 C   0  0  0  0  0  0  0  0  0  0  0  0
  150.9158  140.4952  155.8793 N   0  0  0  0  0  0  0  0  0  0  0  0
  151.3471  139.1445  155.4862 C   0  0  0  0  0  0  0  0  0  0  0  0
  150.1890  138.2602  154.9817 C   0  0  1  0  0  0  0  0  0  0  0  0
  150.2128  138.2198  153.5681 O   0  0  0  0  0  0  0  0  0  0  0  0
  150.3029  136.8199  155.5198 C   0  0  0  0  0  0  0  0  0  0  0  0
  149.4514  135.8566  154.7747 N   0  3  2  0  0  0  0  0  0  0  0  0
  148.0166  135.9152  155.1623 C   0  0  0  0  0  0  0  0  0  0  0  0
  147.1641  134.9937  154.2736 C   0  0  0  0  0  0  0  0  0  0  0  0
  147.6715  133.5428  154.3247 C   0  0  1  0  0  0  0  0  0  0  0  0
  146.8461  132.6173  153.4201 C   0  0  0  0  0  0  0  0  0  0  0  0
  149.1639  133.5169  153.9554 C   0  0  0  0  0  0  0  0  0  0  0  0
  149.9769  134.4690  154.8485 C   0  0  0  0  0  0  0  0  0  0  0  0
  148.4937  141.8889  153.9030 H   0  0  0  0  0  0  0  0  0  0  0  0
  148.4720  140.1758  154.3463 H   0  0  0  0  0  0  0  0  0  0  0  0
  149.7387  140.7993  153.2758 H   0  0  0  0  0  0  0  0  0  0  0  0
  150.7883  144.2549  158.1716 H   0  0  0  0  0  0  0  0  0  0  0  0
  152.5783  143.5549  159.7694 H   0  0  0  0  0  0  0  0  0  0  0  0
  153.6604  141.3463  159.5762 H   0  0  0  0  0  0  0  0  0  0  0  0
  153.0045  139.7437  157.7825 H   0  0  0  0  0  0  0  0  0  0  0  0
  152.1063  139.2526  154.7106 H   0  0  0  0  0  0  0  0  0  0  0  0
  151.8471  138.6819  156.3384 H   0  0  0  0  0  0  0  0  0  0  0  0
  149.2461  138.7102  155.2892 H   0  0  0  0  0  0  0  0  0  0  0  0
  149.8624  137.3884  153.2854 H   0  0  0  0  0  0  0  0  0  0  0  0
  151.3484  136.5128  155.4561 H   0  0  0  0  0  0  0  0  0  0  0  0
  150.0424  136.7836  156.5787 H   0  0  0  0  0  0  0  0  0  0  0  0
  147.9094  135.6275  156.2094 H   0  0  0  0  0  0  0  0  0  0  0  0
  147.6391  136.9333  155.0767 H   0  0  0  0  0  0  0  0  0  0  0  0
  146.1228  135.0367  154.5949 H   0  0  0  0  0  0  0  0  0  0  0  0
  147.1854  135.3584  153.2453 H   0  0  0  0  0  0  0  0  0  0  0  0
  147.5681  133.1822  155.3493 H   0  0  0  0  0  0  0  0  0  0  0  0
  146.9088  132.9222  152.3750 H   0  0  0  0  0  0  0  0  0  0  0  0
  145.7940  132.6243  153.7061 H   0  0  0  0  0  0  0  0  0  0  0  0
  147.1980  131.5874  153.4878 H   0  0  0  0  0  0  0  0  0  0  0  0
  149.5547  132.5032  154.0504 H   0  0  0  0  0  0  0  0  0  0  0  0
  149.2922  133.8001  152.9095 H   0  0  0  0  0  0  0  0  0  0  0  0
  151.0195  134.4515  154.5286 H   0  0  0  0  0  0  0  0  0  0  0  0
  149.9562  134.1250  155.8840 H   0  0  0  0  0  0  0  0  0  0  0  0
  149.5081  136.1253  153.8023 H   0  0  0  0  0  0  0  0  0  0  0  0
  149.3563  143.2514  155.8751 H   0  0  0  0  0  0  0  0  0  0  0  0
  1  2  1  0  0  0  0
  1 22  1  0  0  0  0
  1 23  1  0  0  0  0
  1 24  1  0  0  0  0
  2 10  1  0  0  0  0
  2  3  2  0  0  0  0
  3  4  1  0  0  0  0
  3 48  1  0  0  0  0
  4  9  2  0  0  0  0
  4  5  1  0  0  0  0
  5  6  2  0  0  0  0
  5 25  1  0  0  0  0
  6  7  1  0  0  0  0
  6 26  1  0  0  0  0
  7  8  2  0  0  0  0
  7 27  1  0  0  0  0
  8  9  1  0  0  0  0
  8 28  1  0  0  0  0
  9 10  1  0  0  0  0
 10 11  1  0  0  0  0
 11 12  1  0  0  0  0
 11 29  1  0  0  0  0
 11 30  1  0  0  0  0
 12 13  1  0  0  0  0
 12 14  1  0  0  0  0
 12 31  1  0  0  0  0
 13 32  1  0  0  0  0
 14 15  1  0  0  0  0
 14 33  1  0  0  0  0
 14 34  1  0  0  0  0
 15 21  1  0  0  0  0
 15 16  1  0  0  0  0
 15 47  1  0  0  0  0
 16 17  1  0  0  0  0
 16 35  1  0  0  0  0
 16 36  1  0  0  0  0
 17 18  1  0  0  0  0
 17 37  1  0  0  0  0
 17 38  1  0  0  0  0
 18 19  1  0  0  0  0
 18 20  1  0  0  0  0
 18 39  1  0  0  0  0
 19 40  1  0  0  0  0
 19 41  1  0  0  0  0
 19 42  1  0  0  0  0
 20 21  1  0  0  0  0
 20 43  1  0  0  0  0
 20 44  1  0  0  0  0
 21 45  1  0  0  0  0
 21 46  1  0  0  0  0
M  CHG  1   3   1
M  CHG  1  15   1
M  END
> <s_m_source_file>
AV-unprocessed.smi

> <i_m_source_file_index>
1868

> <i_lp_mmshare_version>
43012

> <i_f3d_flags>
0

> <s_epik_input>
W2NIXTFbY0hdW2NIXVtjSF1jKGMxMiluKGMobjIpW0NIM10pW0NIMl1bQ0BIXShbT0hdKVtDSDJdTjNbQ0gyXVtDSDJdW0NIXShbQ0gzXSlbQ0gyXVtDSDJdMw==

> <s_epik_cmdline>
J2VwaWtfcHl0aG9uJywgJy1waCcsICc3LjAnLCAnLXRuJywgJzgnLCAnLW1hJywgJzIwMCcsICctbWV0YWxfYmluZGluZycsICctaW1hZScsICc8aW5maWxlLm1hZT4nLCAnLW9tYWUnLCAnPG91dGZpbGUubWFlPic=

> <r_epik_Ionization_Penalty>
1.10901

> <r_epik_Ionization_Penalty_Charging>
1.10901

> <r_epik_Ionization_Penalty_Neutral>
6.90208e-07

> <r_epik_State_Penalty>
1.18788

> <r_epik_Charging_Adjusted_Penalty>
2.29689

> <i_epik_Tot_Q>
2

> <i_epik_Tot_abs_Q>
2

> <r_epik_Metal_State_Penalty>
5.19353

> <b_epik_Metal_Only>
0

> <s_lp_Force_Field>
OPLS_2005

> <r_lp_Energy>
29.1884

> <b_lp_Chiralities_Consistent>
1

> <s_lp_Variant>
AV-unprocessed.smi:1868-6

> <Gold.Version>
5.8.1

> <Gold.Id.Protein>
6NUR|6NUR_protein|mol2

> <Gold.PLP.Fitness>
52.2985

> <Gold.PLP.PLP>
-39.8022

> <Gold.PLP.part.hbond>
-4.3928

> <Gold.PLP.part.metal>
0.0000

> <Gold.PLP.part.buried>
-0.8571

> <Gold.PLP.part.nonpolar>
-33.4949

> <Gold.PLP.part.repulsive>
0.1384

> <Gold.PLP.ligand.clash>
0.0000

> <Gold.PLP.ligand.torsion>
1.2679

> <Gold.PLP.Chemscore.Hbond>
4.9913

> <Gold.PLP.Chemscore.CHOScore>
0.0000

> <Gold.PLP.Chemscore.Metal>
0.0000

> <Gold.Chemscore.Hbonds>
donor molecule, donor type, donor heavy atom, donor atom, acceptor molecule, acceptor atom, score
      L1  H     3    48       P1  8028  2.00
      L1  H    13    32       P1  7948  0.99
      L1  H    15    47       P1  7948  2.00

> <Gold.PLP.Chemscore.Internal.Correction>
0.0582

> <Gold.Rescore>
     Score         DG    S(hbond)    S(metal)    S(lipo)     H(rot)  DE(clash)    DE(int)     intcor
     19.75     -20.99       2.90        0.00      93.35       1.99       0.04       1.20       ----

> <Gold.Chemscore.Fitness>
19.7536

> <Gold.Chemscore.DG>
-20.9949

> <Gold.Chemscore.ZeroCoef>
-5.4800

> <Gold.Chemscore.Hbond>
2.8977

> <Gold.Chemscore.Metal>
0.0000

> <Gold.Chemscore.Lipo>
93.3482

> <Gold.Chemscore.Internal_Hbond>
0.0000

> <Gold.Chemscore.DEClash>
0.0381

> <Gold.Chemscore.DEInternal>
1.2032

> <Gold.Chemscore.Rot>
1.9863

> <Gold.Chemscore.Internal.Correction>
   9.000000E+99

> <Gold.Chemscore.Hbonds>
donor molecule, donor type, donor heavy atom, donor atom, acceptor molecule, acceptor atom, score
      L1  H     3    48       P1  8028  0.96
      L1  H    13    32       P1  7948  0.45
      L1  H    15    47       P1  7948  0.58

> <Gold.Chemscore.Hbond.Weighted>
-9.6782

> <Gold.Chemscore.Metal.Weighted>
-0.0000

> <Gold.Chemscore.Lipo.Weighted>
-10.9217

> <Gold.Chemscore.Internal_Hbond.Weighted>
0.0000

> <Gold.Chemscore.DEClash.Weighted>
0.0381

> <Gold.Chemscore.DEInternal.Weighted>
1.2032

> <Gold.Chemscore.Rot.Weighted>
5.0850

> <Gold.Chemscore.Internal.Correction.Weighted>
   9.000000E+99

> <Gold.Protein.RotatedTorsions>
[ 6907 6896 6895 6894 ] final  176.96 input  -60.11 | X-H torsion
[ 7974 7965 7964 7962 ] final -129.86 input  175.53 | X-H torsion
[ 8008 7997 7996 7995 ] final  -45.96 input   59.86 | X-H torsion
[ 10167 10162 10161 10158 ] final   -0.32 input  -65.29 | X-H torsion
[ 10718 10713 10712 10709 ] final   -0.26 input   66.30 | X-H torsion
[ 10763 10752 10751 10750 ] final  -17.91 input  -60.55 | X-H torsion
[ 11005 11000 10999 10996 ] final -168.05 input  -57.11 | X-H torsion

> <Gold.Protein.ActiveResidues>
 VAL166  LYS551  ARG553  GLY616  TRP617  ASP618  TYR619  PRO620  LYS621  CYS622 
 ASP623  PHE694  ASN695  SER759  ASP760  ASP761  ALA762  ILE779  LEU786  VAL792 
 PHE793  MET794  SER795  GLU796  ALA797  LYS798  CYS799  TRP800  GLU811  SER814 

> <Gold.Protein.RotatedAtoms>
  151.7118  133.3312  159.3292 H   0  0  0  0  0  0  0  0  0  0  0  0  # atno 6907 bound_to 6896
  150.7691  134.6526  159.6305 H   0  0  0  0  0  0  0  0  0  0  0  0  # atno 6908 bound_to 6896
  152.3707  134.6741  160.0229 H   0  0  0  0  0  0  0  0  0  0  0  0  # atno 6909 bound_to 6896
  144.9531  140.7366  143.4775 H   0  0  0  0  0  0  0  0  0  0  0  0  # atno 7974 bound_to 7965
  154.4004  140.1383  156.3933 H   0  0  0  0  0  0  0  0  0  0  0  0  # atno 8008 bound_to 7997
  155.7893  140.3479  155.5320 H   0  0  0  0  0  0  0  0  0  0  0  0  # atno 8009 bound_to 7997
  155.8595  140.0954  157.1613 H   0  0  0  0  0  0  0  0  0  0  0  0  # atno 8010 bound_to 7997
  140.6762  143.6908  150.8029 H   0  0  0  0  0  0  0  0  0  0  0  0  # atno 10167 bound_to 10162
  156.8230  130.5463  149.5695 H   0  0  0  0  0  0  0  0  0  0  0  0  # atno 10718 bound_to 10713
  153.5812  135.7005  153.5462 H   0  0  0  0  0  0  0  0  0  0  0  0  # atno 10763 bound_to 10752
  153.3259  135.4061  155.1455 H   0  0  0  0  0  0  0  0  0  0  0  0  # atno 10764 bound_to 10752
  154.8617  135.3707  154.5339 H   0  0  0  0  0  0  0  0  0  0  0  0  # atno 10765 bound_to 10752
  140.5463  134.5472  157.5112 H   0  0  0  0  0  0  0  0  0  0  0  0  # atno 11005 bound_to 11000
  145.2813  139.1917  143.4789 LP  0  0  0  0  0  0  0  0  0  0  0  0  # atno 17320 bound_to 7965
  146.3328  140.2776  142.8609 LP  0  0  0  0  0  0  0  0  0  0  0  0  # atno 17321 bound_to 7965
  140.0601  143.5163  152.2632 LP  0  0  0  0  0  0  0  0  0  0  0  0  # atno 17342 bound_to 10162
  139.6056  144.7595  151.3069 LP  0  0  0  0  0  0  0  0  0  0  0  0  # atno 17343 bound_to 10162
  156.0978  130.5945  150.9843 LP  0  0  0  0  0  0  0  0  0  0  0  0  # atno 17370 bound_to 10713
  157.6447  131.0905  150.8179 LP  0  0  0  0  0  0  0  0  0  0  0  0  # atno 17371 bound_to 10713
  139.9478  134.7671  156.0521 LP  0  0  0  0  0  0  0  0  0  0  0  0  # atno 17394 bound_to 11000
  141.1198  133.6616  156.3185 LP  0  0  0  0  0  0  0  0  0  0  0  0  # atno 17395 bound_to 11000

$$$$
