AV-unprocessed.smi:1801|AV-procd|sdf|7270|dock4
  -GOLD-   22720 8523D 1   1.00000     0.00000
 Structure written by MMmdl.
 37 38  0  0  0  0  0  0  0  0  3 V2000
  151.6753  139.5931  156.3445 C   0  0  0  0  0  0  0  0  0  0  0  0
  151.0606  139.5465  157.7532 C   0  0  1  0  0  0  0  0  0  0  0  0
  150.7398  138.0870  158.1471 C   0  0  0  0  0  0  0  0  0  0  0  0
  149.6715  137.9901  159.1384 N   0  0  0  0  0  0  0  0  0  0  0  0
  148.9344  136.9017  159.4017 C   0  0  0  0  0  0  0  0  0  0  0  0
  149.1640  135.8446  158.8105 O   0  0  0  0  0  0  0  0  0  0  0  0
  147.9685  137.1114  160.3236 N   0  5  0  0  0  0  0  0  0  0  0  0
  147.4818  136.0793  161.0325 C   0  0  0  0  0  0  0  0  0  0  0  0
  146.9849  134.9776  160.4479 N   0  0  0  0  0  0  0  0  0  0  0  0
  146.5399  134.0294  161.3591 N   0  0  0  0  0  0  0  0  0  0  0  0
  146.7205  134.4397  162.6143 C   0  0  0  0  0  0  0  0  0  0  0  0
  147.4523  136.0201  162.7973 S   0  0  0  0  0  0  0  0  0  0  0  0
  151.9741  140.2441  158.7888 C   0  0  0  0  0  0  0  0  0  0  0  0
  151.5508  141.6367  159.0668 N   0  3  0  0  0  0  0  0  0  0  0  0
  152.4259  142.3840  160.0041 C   0  0  0  0  0  0  0  0  0  0  0  0
  152.6456  143.7753  159.3964 C   0  0  0  0  0  0  0  0  0  0  0  0
  151.5555  143.9049  158.3378 C   0  0  0  0  0  0  0  0  0  0  0  0
  151.3817  142.4680  157.8578 C   0  0  0  0  0  0  0  0  0  0  0  0
  152.6307  139.0686  156.3105 H   0  0  0  0  0  0  0  0  0  0  0  0
  151.8460  140.6186  156.0164 H   0  0  0  0  0  0  0  0  0  0  0  0
  151.0146  139.1250  155.6140 H   0  0  0  0  0  0  0  0  0  0  0  0
  150.1132  140.0839  157.7062 H   0  0  0  0  0  0  0  0  0  0  0  0
  150.4639  137.5054  157.2658 H   0  0  0  0  0  0  0  0  0  0  0  0
  151.6273  137.6102  158.5642 H   0  0  0  0  0  0  0  0  0  0  0  0
  149.4568  138.8274  159.6601 H   0  0  0  0  0  0  0  0  0  0  0  0
  146.4231  133.8072  163.4371 H   0  0  0  0  0  0  0  0  0  0  0  0
  151.9934  139.7024  159.7354 H   0  0  0  0  0  0  0  0  0  0  0  0
  153.0004  140.2457  158.4185 H   0  0  0  0  0  0  0  0  0  0  0  0
  151.9208  142.4543  160.9679 H   0  0  0  0  0  0  0  0  0  0  0  0
  153.3818  141.8839  160.1691 H   0  0  0  0  0  0  0  0  0  0  0  0
  152.6081  144.5714  160.1405 H   0  0  0  0  0  0  0  0  0  0  0  0
  153.6250  143.8141  158.9174 H   0  0  0  0  0  0  0  0  0  0  0  0
  150.6309  144.2600  158.7953 H   0  0  0  0  0  0  0  0  0  0  0  0
  151.8222  144.5924  157.5344 H   0  0  0  0  0  0  0  0  0  0  0  0
  152.1619  142.2288  157.1330 H   0  0  0  0  0  0  0  0  0  0  0  0
  150.4152  142.2964  157.3835 H   0  0  0  0  0  0  0  0  0  0  0  0
  150.6411  141.5910  159.5033 H   0  0  0  0  0  0  0  0  0  0  0  0
  1  2  1  0  0  0  0
  1 19  1  0  0  0  0
  1 20  1  0  0  0  0
  1 21  1  0  0  0  0
  2  3  1  0  0  0  0
  2 13  1  0  0  0  0
  2 22  1  0  0  0  0
  3  4  1  0  0  0  0
  3 23  1  0  0  0  0
  3 24  1  0  0  0  0
  4  5  1  0  0  0  0
  4 25  1  0  0  0  0
  5  6  2  0  0  0  0
  5  7  1  0  0  0  0
  7  8  1  0  0  0  0
  8 12  1  0  0  0  0
  8  9  2  0  0  0  0
  9 10  1  0  0  0  0
 10 11  2  0  0  0  0
 11 12  1  0  0  0  0
 11 26  1  0  0  0  0
 13 14  1  0  0  0  0
 13 27  1  0  0  0  0
 13 28  1  0  0  0  0
 14 18  1  0  0  0  0
 14 15  1  0  0  0  0
 14 37  1  0  0  0  0
 15 16  1  0  0  0  0
 15 29  1  0  0  0  0
 15 30  1  0  0  0  0
 16 17  1  0  0  0  0
 16 31  1  0  0  0  0
 16 32  1  0  0  0  0
 17 18  1  0  0  0  0
 17 33  1  0  0  0  0
 17 34  1  0  0  0  0
 18 35  1  0  0  0  0
 18 36  1  0  0  0  0
M  CHG  1   7  -1
M  CHG  1  14   1
M  END
> <s_m_source_file>
AV-unprocessed.smi

> <i_m_source_file_index>
1801

> <i_lp_mmshare_version>
43012

> <i_f3d_flags>
0

> <s_epik_input>
W0NIMl0xW0NIMl1bQ0gyXVtDSDJdTjFbQ0gyXVtDQEhdKFtDSDNdKVtDSDJdW05IXUMoPU8pW05IXWMybm5bY0hdczI=

> <s_epik_cmdline>
J2VwaWtfcHl0aG9uJywgJy1waCcsICc3LjAnLCAnLXRuJywgJzgnLCAnLW1hJywgJzIwMCcsICctbWV0YWxfYmluZGluZycsICctaW1hZScsICc8aW5maWxlLm1hZT4nLCAnLW9tYWUnLCAnPG91dGZpbGUubWFlPic=

> <r_lp_tautomer_probability>
1

> <r_epik_Ionization_Penalty>
3.29721

> <r_epik_Ionization_Penalty_Charging>
3.25987

> <r_epik_Ionization_Penalty_Neutral>
0.0373399

> <r_epik_State_Penalty>
3.2571

> <r_epik_Charging_Adjusted_Penalty>
6.51697

> <i_epik_Tot_Q>
0

> <i_epik_Tot_abs_Q>
2

> <r_epik_Metal_State_Penalty>
0.477553

> <b_epik_Metal_Only>
1

> <s_lp_Force_Field>
OPLS_2005

> <r_lp_Energy>
22.4804

> <b_lp_Chiralities_Consistent>
1

> <s_lp_Variant>
AV-unprocessed.smi:1801-4

> <Gold.Version>
5.8.1

> <Gold.Id.Protein>
6NUR|6NUR_protein|mol2

> <Gold.PLP.Fitness>
45.0736

> <Gold.PLP.PLP>
-36.9802

> <Gold.PLP.part.hbond>
-3.0000

> <Gold.PLP.part.metal>
0.0000

> <Gold.PLP.part.buried>
-5.6062

> <Gold.PLP.part.nonpolar>
-31.4342

> <Gold.PLP.part.repulsive>
1.1254

> <Gold.PLP.ligand.clash>
0.0000

> <Gold.PLP.ligand.torsion>
1.5786

> <Gold.PLP.Chemscore.Hbond>
3.6389

> <Gold.PLP.Chemscore.CHOScore>
0.0000

> <Gold.PLP.Chemscore.Metal>
0.0000

> <Gold.Chemscore.Hbonds>
donor molecule, donor type, donor heavy atom, donor atom, acceptor molecule, acceptor atom, score
      P1  H  6896  6909       L1     6  0.83
      P1  H  6931  6943       L1     7  0.79
      P1  H  6934  6947       L1     7  1.12

> <Gold.PLP.Chemscore.Internal.Correction>
0.3339

> <Gold.Rescore>
     Score         DG    S(hbond)    S(metal)    S(lipo)     H(rot)  DE(clash)    DE(int)     intcor
     12.96     -16.07       1.57        0.00      87.86       1.93       0.34       2.77       ----

> <Gold.Chemscore.Fitness>
12.9557

> <Gold.Chemscore.DG>
-16.0705

> <Gold.Chemscore.ZeroCoef>
-5.4800

> <Gold.Chemscore.Hbond>
1.5699

> <Gold.Chemscore.Metal>
0.0000

> <Gold.Chemscore.Lipo>
87.8559

> <Gold.Chemscore.Internal_Hbond>
0.0000

> <Gold.Chemscore.DEClash>
0.3400

> <Gold.Chemscore.DEInternal>
2.7748

> <Gold.Chemscore.Rot>
1.9266

> <Gold.Chemscore.Internal.Correction>
   9.000000E+99

> <Gold.Chemscore.Hbonds>
donor molecule, donor type, donor heavy atom, donor atom, acceptor molecule, acceptor atom, score
      P1  H  6896  6909       L1     6  0.79
      P1  H  6931  6943       L1     7  0.05
      P1  H  6934  6947       L1     7  0.48

> <Gold.Chemscore.Hbond.Weighted>
-5.2435

> <Gold.Chemscore.Metal.Weighted>
-0.0000

> <Gold.Chemscore.Lipo.Weighted>
-10.2791

> <Gold.Chemscore.Internal_Hbond.Weighted>
0.0000

> <Gold.Chemscore.DEClash.Weighted>
0.3400

> <Gold.Chemscore.DEInternal.Weighted>
2.7748

> <Gold.Chemscore.Rot.Weighted>
4.9321

> <Gold.Chemscore.Internal.Correction.Weighted>
   9.000000E+99

> <Gold.Protein.RotatedTorsions>
[ 6907 6896 6895 6894 ] final   51.33 input  -60.11 | X-H torsion
[ 7974 7965 7964 7962 ] final -125.61 input  175.53 | X-H torsion
[ 8008 7997 7996 7995 ] final -176.37 input   59.86 | X-H torsion
[ 10167 10162 10161 10158 ] final  160.49 input  -65.29 | X-H torsion
[ 10718 10713 10712 10709 ] final  -87.96 input   66.30 | X-H torsion
[ 10763 10752 10751 10750 ] final   65.34 input  -60.55 | X-H torsion
[ 11005 11000 10999 10996 ] final  -20.90 input  -57.11 | X-H torsion

> <Gold.Protein.ActiveResidues>
 VAL166  LYS551  ARG553  GLY616  TRP617  ASP618  TYR619  PRO620  LYS621  CYS622 
 ASP623  PHE694  ASN695  SER759  ASP760  ASP761  ALA762  ILE779  LEU786  VAL792 
 PHE793  MET794  SER795  GLU796  ALA797  LYS798  CYS799  TRP800  GLU811  SER814 

> <Gold.Protein.RotatedAtoms>
  152.3114  134.7492  160.0335 H   0  0  0  0  0  0  0  0  0  0  0  0  # atno 6907 bound_to 6896
  151.7972  133.3360  159.3524 H   0  0  0  0  0  0  0  0  0  0  0  0  # atno 6908 bound_to 6896
  150.7322  134.5718  159.5938 H   0  0  0  0  0  0  0  0  0  0  0  0  # atno 6909 bound_to 6896
  144.9958  140.7775  143.4526 H   0  0  0  0  0  0  0  0  0  0  0  0  # atno 7974 bound_to 7965
  155.9940  140.1207  157.0611 H   0  0  0  0  0  0  0  0  0  0  0  0  # atno 8008 bound_to 7997
  154.4221  140.1120  156.5674 H   0  0  0  0  0  0  0  0  0  0  0  0  # atno 8009 bound_to 7997
  155.6303  140.3473  155.4683 H   0  0  0  0  0  0  0  0  0  0  0  0  # atno 8010 bound_to 7997
  139.4840  144.4629  151.8681 H   0  0  0  0  0  0  0  0  0  0  0  0  # atno 10167 bound_to 10162
  155.9984  130.4818  150.4947 H   0  0  0  0  0  0  0  0  0  0  0  0  # atno 10718 bound_to 10713
  153.0092  135.5360  154.6652 H   0  0  0  0  0  0  0  0  0  0  0  0  # atno 10763 bound_to 10752
  154.5850  135.2853  155.0696 H   0  0  0  0  0  0  0  0  0  0  0  0  # atno 10764 bound_to 10752
  154.1810  135.6516  153.5087 H   0  0  0  0  0  0  0  0  0  0  0  0  # atno 10765 bound_to 10752
  140.8509  133.7857  155.9965 H   0  0  0  0  0  0  0  0  0  0  0  0  # atno 11005 bound_to 11000
  145.2222  139.2154  143.5087 LP  0  0  0  0  0  0  0  0  0  0  0  0  # atno 17320 bound_to 7965
  146.3441  140.2082  142.8590 LP  0  0  0  0  0  0  0  0  0  0  0  0  # atno 17321 bound_to 7965
  140.4092  144.2391  150.5889 LP  0  0  0  0  0  0  0  0  0  0  0  0  # atno 17342 bound_to 10162
  140.4982  143.2326  151.8718 LP  0  0  0  0  0  0  0  0  0  0  0  0  # atno 17343 bound_to 10162
  157.2938  131.0631  151.2115 LP  0  0  0  0  0  0  0  0  0  0  0  0  # atno 17370 bound_to 10713
  157.3119  130.6894  149.6220 LP  0  0  0  0  0  0  0  0  0  0  0  0  # atno 17371 bound_to 10713
  140.8791  134.2633  157.5153 LP  0  0  0  0  0  0  0  0  0  0  0  0  # atno 17394 bound_to 11000
  139.8704  134.9606  156.4369 LP  0  0  0  0  0  0  0  0  0  0  0  0  # atno 17395 bound_to 11000

$$$$
