AV-unprocessed.smi:1976|AV-procd|sdf|7986|dock8
  -GOLD-   2272010163D 1   1.00000     0.00000
 Structure written by MMmdl.
 45 47  0  0  0  0  0  0  0  0  2 V2000
  150.1533  139.8630  157.0680 O   0  0  0  0  0  0  0  0  0  0  0  0
  151.0016  140.2245  156.2511 C   0  0  0  0  0  0  0  0  0  0  0  0
  151.8917  141.4471  156.5183 C   0  0  0  0  0  0  0  0  0  0  0  0
  152.1594  141.6763  157.9482 N   0  0  0  0  0  0  0  0  0  0  0  0
  151.7461  142.9106  158.4869 C   0  0  0  0  0  0  0  0  0  0  0  0
  151.9278  143.2441  159.7791 C   0  0  0  0  0  0  0  0  0  0  0  0
  151.5272  144.6090  160.3167 C   0  0  0  0  0  0  0  0  0  0  0  0
  150.1997  144.7210  160.3231 F   0  0  0  0  0  0  0  0  0  0  0  0
  151.9648  144.7808  161.5643 F   0  0  0  0  0  0  0  0  0  0  0  0
  152.0227  145.5893  159.5603 F   0  0  0  0  0  0  0  0  0  0  0  0
  152.6123  142.2699  160.6065 C   0  0  0  0  0  0  0  0  0  0  0  0
  153.0256  141.0900  160.1039 C   0  0  0  0  0  0  0  0  0  0  0  0
  152.8033  140.7343  158.7007 C   0  0  0  0  0  0  0  0  0  0  0  0
  153.1755  139.6594  158.2294 O   0  0  0  0  0  0  0  0  0  0  0  0
  151.2231  139.5780  155.0968 N   0  0  0  0  0  0  0  0  0  0  0  0
  150.4844  138.4002  154.6501 C   0  0  1  0  0  0  0  0  0  0  0  0
  150.2011  137.4029  155.7658 C   0  0  0  0  0  0  0  0  0  0  0  0
  149.0697  136.5490  155.1839 C   0  0  0  0  0  0  0  0  0  0  0  0
  148.3458  137.4009  154.2082 N   0  3  1  0  0  0  0  0  0  0  0  0
  146.8876  137.5227  154.4766 C   0  0  0  0  0  0  0  0  0  0  0  0
  146.2813  138.6994  153.6977 C   0  0  0  0  0  0  0  0  0  0  0  0
  146.9126  140.0407  154.1173 C   0  0  0  0  0  0  0  0  0  0  0  0
  148.3159  139.8662  154.7296 C   0  0  0  0  0  0  0  0  0  0  0  0
  149.0832  138.6900  154.0770 C   0  0  1  0  0  0  0  0  0  0  0  0
  152.8275  141.3137  155.9736 H   0  0  0  0  0  0  0  0  0  0  0  0
  151.4286  142.3305  156.0746 H   0  0  0  0  0  0  0  0  0  0  0  0
  151.2796  143.5771  157.7760 H   0  0  0  0  0  0  0  0  0  0  0  0
  152.7950  142.4886  161.6482 H   0  0  0  0  0  0  0  0  0  0  0  0
  153.5332  140.3884  160.7496 H   0  0  0  0  0  0  0  0  0  0  0  0
  151.9408  139.9334  154.4814 H   0  0  0  0  0  0  0  0  0  0  0  0
  151.0748  137.8854  153.8888 H   0  0  0  0  0  0  0  0  0  0  0  0
  151.0755  136.8123  156.0413 H   0  0  0  0  0  0  0  0  0  0  0  0
  149.8507  137.9230  156.6585 H   0  0  0  0  0  0  0  0  0  0  0  0
  149.4851  135.6996  154.6405 H   0  0  0  0  0  0  0  0  0  0  0  0
  148.4254  136.1487  155.9680 H   0  0  0  0  0  0  0  0  0  0  0  0
  146.3972  136.5875  154.2040 H   0  0  0  0  0  0  0  0  0  0  0  0
  146.7118  137.6719  155.5434 H   0  0  0  0  0  0  0  0  0  0  0  0
  146.4435  138.5379  152.6310 H   0  0  0  0  0  0  0  0  0  0  0  0
  145.2006  138.7359  153.8384 H   0  0  0  0  0  0  0  0  0  0  0  0
  146.9641  140.6952  153.2464 H   0  0  0  0  0  0  0  0  0  0  0  0
  146.2723  140.5481  154.8399 H   0  0  0  0  0  0  0  0  0  0  0  0
  148.8643  140.8025  154.6274 H   0  0  0  0  0  0  0  0  0  0  0  0
  148.2227  139.6858  155.8017 H   0  0  0  0  0  0  0  0  0  0  0  0
  149.1802  138.9136  153.0136 H   0  0  0  0  0  0  0  0  0  0  0  0
  148.4360  136.9427  153.3124 H   0  0  0  0  0  0  0  0  0  0  0  0
  1  2  2  0  0  0  0
  2  3  1  0  0  0  0
  2 15  1  0  0  0  0
  3  4  1  0  0  0  0
  3 25  1  0  0  0  0
  3 26  1  0  0  0  0
  4 13  1  0  0  0  0
  4  5  1  0  0  0  0
  5  6  2  0  0  0  0
  5 27  1  0  0  0  0
  6  7  1  0  0  0  0
  6 11  1  0  0  0  0
  7  8  1  0  0  0  0
  7  9  1  0  0  0  0
  7 10  1  0  0  0  0
 11 12  2  0  0  0  0
 11 28  1  0  0  0  0
 12 13  1  0  0  0  0
 12 29  1  0  0  0  0
 13 14  2  0  0  0  0
 15 16  1  0  0  0  0
 15 30  1  0  0  0  0
 16 24  1  0  0  0  0
 16 17  1  0  0  0  0
 16 31  1  0  0  0  0
 17 18  1  0  0  0  0
 17 32  1  0  0  0  0
 17 33  1  0  0  0  0
 18 19  1  0  0  0  0
 18 34  1  0  0  0  0
 18 35  1  0  0  0  0
 19 24  1  0  0  0  0
 19 20  1  0  0  0  0
 19 45  1  0  0  0  0
 20 21  1  0  0  0  0
 20 36  1  0  0  0  0
 20 37  1  0  0  0  0
 21 22  1  0  0  0  0
 21 38  1  0  0  0  0
 21 39  1  0  0  0  0
 22 23  1  0  0  0  0
 22 40  1  0  0  0  0
 22 41  1  0  0  0  0
 23 24  1  0  0  0  0
 23 42  1  0  0  0  0
 23 43  1  0  0  0  0
 24 44  1  0  0  0  0
M  CHG  1  19   1
M  END
> <s_m_source_file>
AV-unprocessed.smi

> <i_m_source_file_index>
1976

> <i_lp_mmshare_version>
43012

> <i_f3d_flags>
0

> <s_epik_input>
W0NIMl0xW0NIMl1bQ0gyXVtDSDJdW0NASF0oTjEyKVtDQEBIXShbQ0gyXVtDSDJdMilbTkhdQyg9TylbQ0gyXW4zW2NIXWMoQyhGKShGKUYpW2NIXVtjSF1jMz1P

> <s_epik_cmdline>
J2VwaWtfcHl0aG9uJywgJy1waCcsICc3LjAnLCAnLXRuJywgJzgnLCAnLW1hJywgJzIwMCcsICctbWV0YWxfYmluZGluZycsICctaW1hZScsICc8aW5maWxlLm1hZT4nLCAnLW9tYWUnLCAnPG91dGZpbGUubWFlPic=

> <r_lp_tautomer_probability>
1

> <r_epik_Ionization_Penalty>
0.00171506

> <r_epik_Ionization_Penalty_Charging>
0.00171498

> <r_epik_Ionization_Penalty_Neutral>
7.81737e-08

> <r_epik_State_Penalty>
0.00115937

> <r_epik_Charging_Adjusted_Penalty>
0.00287436

> <i_epik_Tot_Q>
1

> <i_epik_Tot_abs_Q>
1

> <r_epik_Metal_State_Penalty>
-0

> <b_epik_Metal_Only>
0

> <s_lp_Force_Field>
OPLS_2005

> <r_lp_Energy>
52.608

> <b_lp_Chiralities_Consistent>
1

> <s_lp_Variant>
AV-unprocessed.smi:1976-4

> <Gold.Version>
5.8.1

> <Gold.Id.Protein>
6NUR|6NUR_protein|mol2

> <Gold.PLP.Fitness>
46.1031

> <Gold.PLP.PLP>
-38.6010

> <Gold.PLP.part.hbond>
-2.0000

> <Gold.PLP.part.metal>
0.0000

> <Gold.PLP.part.buried>
-4.2595

> <Gold.PLP.part.nonpolar>
-33.0397

> <Gold.PLP.part.repulsive>
0.4804

> <Gold.PLP.ligand.clash>
0.0000

> <Gold.PLP.ligand.torsion>
0.7690

> <Gold.PLP.Chemscore.Hbond>
3.0000

> <Gold.PLP.Chemscore.CHOScore>
0.0000

> <Gold.PLP.Chemscore.Metal>
0.0000

> <Gold.Chemscore.Hbonds>
donor molecule, donor type, donor heavy atom, donor atom, acceptor molecule, acceptor atom, score
      L1  H    19    45       P1  7948  2.00
      P1  H  7997  8009       L1    14  1.00

> <Gold.PLP.Chemscore.Internal.Correction>
0.0401

> <Gold.Rescore>
     Score         DG    S(hbond)    S(metal)    S(lipo)     H(rot)  DE(clash)    DE(int)     intcor
     13.17     -19.58       1.94        0.00      99.84       1.58       3.03       3.38       ----

> <Gold.Chemscore.Fitness>
13.1699

> <Gold.Chemscore.DG>
-19.5777

> <Gold.Chemscore.ZeroCoef>
-5.4800

> <Gold.Chemscore.Hbond>
1.9366

> <Gold.Chemscore.Metal>
0.0000

> <Gold.Chemscore.Lipo>
99.8436

> <Gold.Chemscore.Internal_Hbond>
0.0000

> <Gold.Chemscore.DEClash>
3.0290

> <Gold.Chemscore.DEInternal>
3.3787

> <Gold.Chemscore.Rot>
1.5830

> <Gold.Chemscore.Internal.Correction>
   9.000000E+99

> <Gold.Chemscore.Hbonds>
donor molecule, donor type, donor heavy atom, donor atom, acceptor molecule, acceptor atom, score
      L1  H    19    45       P1  7948  1.00
      P1  H  7997  8009       L1    14  0.60

> <Gold.Chemscore.Hbond.Weighted>
-6.4683

> <Gold.Chemscore.Metal.Weighted>
-0.0000

> <Gold.Chemscore.Lipo.Weighted>
-11.6817

> <Gold.Chemscore.Internal_Hbond.Weighted>
0.0000

> <Gold.Chemscore.DEClash.Weighted>
3.0290

> <Gold.Chemscore.DEInternal.Weighted>
3.3787

> <Gold.Chemscore.Rot.Weighted>
4.0524

> <Gold.Chemscore.Internal.Correction.Weighted>
   9.000000E+99

> <Gold.Protein.RotatedTorsions>
[ 6907 6896 6895 6894 ] final   54.26 input  -60.11 | X-H torsion
[ 7974 7965 7964 7962 ] final   32.19 input  175.53 | X-H torsion
[ 8008 7997 7996 7995 ] final  163.20 input   59.86 | X-H torsion
[ 10167 10162 10161 10158 ] final -172.34 input  -65.29 | X-H torsion
[ 10718 10713 10712 10709 ] final  -46.30 input   66.30 | X-H torsion
[ 10763 10752 10751 10750 ] final  -84.54 input  -60.55 | X-H torsion
[ 11005 11000 10999 10996 ] final -105.68 input  -57.11 | X-H torsion

> <Gold.Protein.ActiveResidues>
 VAL166  LYS551  ARG553  GLY616  TRP617  ASP618  TYR619  PRO620  LYS621  CYS622 
 ASP623  PHE694  ASN695  SER759  ASP760  ASP761  ALA762  ILE779  LEU786  VAL792 
 PHE793  MET794  SER795  GLU796  ALA797  LYS798  CYS799  TRP800  GLU811  SER814 

> <Gold.Protein.RotatedAtoms>
  152.3421  134.7120  160.0260 H   0  0  0  0  0  0  0  0  0  0  0  0  # atno 6907 bound_to 6896
  151.7502  133.3321  159.3397 H   0  0  0  0  0  0  0  0  0  0  0  0  # atno 6908 bound_to 6896
  150.7486  134.6131  159.6141 H   0  0  0  0  0  0  0  0  0  0  0  0  # atno 6909 bound_to 6896
  146.1502  139.6558  142.9104 H   0  0  0  0  0  0  0  0  0  0  0  0  # atno 7974 bound_to 7965
  156.1975  140.1730  156.7968 H   0  0  0  0  0  0  0  0  0  0  0  0  # atno 8008 bound_to 7997
  154.5548  140.0710  156.8757 H   0  0  0  0  0  0  0  0  0  0  0  0  # atno 8009 bound_to 7997
  155.2959  140.3358  155.4252 H   0  0  0  0  0  0  0  0  0  0  0  0  # atno 8010 bound_to 7997
  139.5750  144.1553  152.1438 H   0  0  0  0  0  0  0  0  0  0  0  0  # atno 10167 bound_to 10162
  156.2197  130.4165  149.9009 H   0  0  0  0  0  0  0  0  0  0  0  0  # atno 10718 bound_to 10713
  154.6007  135.5517  153.7371 H   0  0  0  0  0  0  0  0  0  0  0  0  # atno 10763 bound_to 10752
  153.0153  135.6365  154.1719 H   0  0  0  0  0  0  0  0  0  0  0  0  # atno 10764 bound_to 10752
  154.1658  135.2895  155.3075 H   0  0  0  0  0  0  0  0  0  0  0  0  # atno 10765 bound_to 10752
  141.1042  133.8828  157.1764 H   0  0  0  0  0  0  0  0  0  0  0  0  # atno 11005 bound_to 11000
  145.4841  141.0438  143.2629 LP  0  0  0  0  0  0  0  0  0  0  0  0  # atno 17320 bound_to 7965
  144.7895  139.6358  143.7119 LP  0  0  0  0  0  0  0  0  0  0  0  0  # atno 17321 bound_to 7965
  140.1094  144.5470  150.6935 LP  0  0  0  0  0  0  0  0  0  0  0  0  # atno 17342 bound_to 10162
  140.7033  143.2450  151.4800 LP  0  0  0  0  0  0  0  0  0  0  0  0  # atno 17343 bound_to 10162
  156.6660  130.8801  151.3555 LP  0  0  0  0  0  0  0  0  0  0  0  0  # atno 17370 bound_to 10713
  157.7081  130.9408  150.0997 LP  0  0  0  0  0  0  0  0  0  0  0  0  # atno 17371 bound_to 10713
  139.9905  135.0066  156.9963 LP  0  0  0  0  0  0  0  0  0  0  0  0  # atno 17394 bound_to 11000
  140.4946  134.1159  155.7239 LP  0  0  0  0  0  0  0  0  0  0  0  0  # atno 17395 bound_to 11000

$$$$
