AV-unprocessed.smi:3134|AV-procd|sdf|11944|dock5
  -GOLD-   2272017333D 1   1.00000     0.00000
 Structure written by MMmdl.
 36 36  0  0  0  0  0  0  0  0  1 V2000
  146.8766  139.1646  152.1916 C   0  0  0  0  0  0  0  0  0  0  0  0
  147.2427  139.9325  153.4719 C   0  0  0  0  0  0  0  0  0  0  0  0
  147.0305  141.4431  153.3071 C   0  0  0  0  0  0  0  0  0  0  0  0
  148.6313  139.6740  153.8396 N   0  0  0  0  0  0  0  0  0  0  0  0
  149.0484  139.2085  155.0277 C   0  0  0  0  0  0  0  0  0  0  0  0
  148.2844  138.9477  155.9579 O   0  0  0  0  0  0  0  0  0  0  0  0
  150.5598  138.9638  155.1758 C   0  0  1  0  0  0  0  0  0  0  0  0
  151.0529  137.9482  154.1329 C   0  0  0  0  0  0  0  0  0  0  0  0
  151.3629  140.1971  155.0864 N   0  0  0  0  0  0  0  0  0  0  0  0
  150.9726  141.2413  156.0274 C   0  0  0  0  0  0  0  0  0  0  0  0
  151.5285  140.9069  157.4184 C   0  0  0  0  0  0  0  0  0  0  0  0
  151.8042  142.1081  158.1818 N   0  0  0  0  0  0  0  0  0  0  0  0
  151.4843  143.4127  157.8705 C   0  0  0  0  0  0  0  0  0  0  0  0
  151.9401  144.1967  158.8915 C   0  0  0  0  0  0  0  0  0  0  0  0
  152.5312  143.2676  159.7929 C   0  0  0  0  0  0  0  0  0  0  0  0
  152.4467  142.0179  159.3662 N   0  0  0  0  0  0  0  0  0  0  0  0
  145.8392  139.3463  151.9100 H   0  0  0  0  0  0  0  0  0  0  0  0
  146.9950  138.0889  152.3264 H   0  0  0  0  0  0  0  0  0  0  0  0
  147.5068  139.4657  151.3541 H   0  0  0  0  0  0  0  0  0  0  0  0
  146.5923  139.5923  154.2797 H   0  0  0  0  0  0  0  0  0  0  0  0
  145.9929  141.6673  153.0582 H   0  0  0  0  0  0  0  0  0  0  0  0
  147.6581  141.8493  152.5132 H   0  0  0  0  0  0  0  0  0  0  0  0
  147.2698  141.9764  154.2278 H   0  0  0  0  0  0  0  0  0  0  0  0
  149.3296  139.8501  153.1317 H   0  0  0  0  0  0  0  0  0  0  0  0
  150.7346  138.5252  156.1601 H   0  0  0  0  0  0  0  0  0  0  0  0
  150.4921  137.0146  154.1931 H   0  0  0  0  0  0  0  0  0  0  0  0
  152.1043  137.7063  154.2917 H   0  0  0  0  0  0  0  0  0  0  0  0
  150.9536  138.3319  153.1164 H   0  0  0  0  0  0  0  0  0  0  0  0
  151.3719  140.5676  154.1467 H   0  0  0  0  0  0  0  0  0  0  0  0
  151.3579  142.2104  155.7085 H   0  0  0  0  0  0  0  0  0  0  0  0
  149.8847  141.3149  156.0662 H   0  0  0  0  0  0  0  0  0  0  0  0
  150.8233  140.2904  157.9783 H   0  0  0  0  0  0  0  0  0  0  0  0
  152.4529  140.3339  157.3332 H   0  0  0  0  0  0  0  0  0  0  0  0
  150.9639  143.6709  156.9599 H   0  0  0  0  0  0  0  0  0  0  0  0
  151.8629  145.2700  158.9813 H   0  0  0  0  0  0  0  0  0  0  0  0
  153.0151  143.4627  160.7384 H   0  0  0  0  0  0  0  0  0  0  0  0
  1  2  1  0  0  0  0
  1 17  1  0  0  0  0
  1 18  1  0  0  0  0
  1 19  1  0  0  0  0
  2  3  1  0  0  0  0
  2  4  1  0  0  0  0
  2 20  1  0  0  0  0
  3 21  1  0  0  0  0
  3 22  1  0  0  0  0
  3 23  1  0  0  0  0
  4  5  1  0  0  0  0
  4 24  1  0  0  0  0
  5  6  2  0  0  0  0
  5  7  1  0  0  0  0
  7  8  1  0  0  0  0
  7  9  1  0  0  0  0
  7 25  1  0  0  0  0
  8 26  1  0  0  0  0
  8 27  1  0  0  0  0
  8 28  1  0  0  0  0
  9 10  1  0  0  0  0
  9 29  1  0  0  0  0
 10 11  1  0  0  0  0
 10 30  1  0  0  0  0
 10 31  1  0  0  0  0
 11 12  1  0  0  0  0
 11 32  1  0  0  0  0
 11 33  1  0  0  0  0
 12 16  1  0  0  0  0
 12 13  1  0  0  0  0
 13 14  2  0  0  0  0
 13 34  1  0  0  0  0
 14 15  1  0  0  0  0
 14 35  1  0  0  0  0
 15 16  2  0  0  0  0
 15 36  1  0  0  0  0
M  END
> <s_m_source_file>
AV-unprocessed.smi

> <i_m_source_file_index>
3134

> <i_lp_mmshare_version>
43012

> <i_f3d_flags>
0

> <s_epik_input>
W0NIM11bQ0hdKFtDSDNdKVtOSF1DKD1PKVtDQEhdKFtDSDNdKVtOSF1bQ0gyXVtDSDJdbjFbY0hdW2NIXVtjSF1uMQ==

> <s_epik_cmdline>
J2VwaWtfcHl0aG9uJywgJy1waCcsICc3LjAnLCAnLXRuJywgJzgnLCAnLW1hJywgJzIwMCcsICctbWV0YWxfYmluZGluZycsICctaW1hZScsICc8aW5maWxlLm1hZT4nLCAnLW9tYWUnLCAnPG91dGZpbGUubWFlPic=

> <r_lp_tautomer_probability>
1

> <r_epik_Ionization_Penalty>
0.731872

> <r_epik_Ionization_Penalty_Charging>
0

> <r_epik_Ionization_Penalty_Neutral>
0.731872

> <r_epik_State_Penalty>
0.75611

> <r_epik_Charging_Adjusted_Penalty>
0.75611

> <i_epik_Tot_Q>
0

> <i_epik_Tot_abs_Q>
0

> <r_epik_Metal_State_Penalty>
0.755373

> <b_epik_Metal_Only>
0

> <s_lp_Force_Field>
OPLS_2005

> <r_lp_Energy>
3.64981

> <b_lp_Chiralities_Consistent>
1

> <s_lp_Variant>
AV-unprocessed.smi:3134-4

> <Gold.Version>
5.8.1

> <Gold.Id.Protein>
6NUR|6NUR_protein|mol2

> <Gold.PLP.Fitness>
40.5065

> <Gold.PLP.PLP>
-35.4093

> <Gold.PLP.part.hbond>
-2.0000

> <Gold.PLP.part.metal>
0.0000

> <Gold.PLP.part.buried>
-4.3482

> <Gold.PLP.part.nonpolar>
-27.8894

> <Gold.PLP.part.repulsive>
0.0804

> <Gold.PLP.ligand.clash>
0.0000

> <Gold.PLP.ligand.torsion>
0.3952

> <Gold.PLP.Chemscore.Hbond>
0.9440

> <Gold.PLP.Chemscore.CHOScore>
1.0000

> <Gold.PLP.Chemscore.Metal>
0.0000

> <Gold.Chemscore.Hbonds>
donor molecule, donor type, donor heavy atom, donor atom, acceptor molecule, acceptor atom, score
      L1  H     4    24       P1  7957  0.88
      L1  C    13    34       P1  8028  0.71

> <Gold.PLP.Chemscore.Internal.Correction>
0.0556

> <Gold.Rescore>
     Score         DG    S(hbond)    S(metal)    S(lipo)     H(rot)  DE(clash)    DE(int)     intcor
     13.53     -14.00       0.96        0.00      90.38       2.05       0.23       0.24       ----

> <Gold.Chemscore.Fitness>
13.5342

> <Gold.Chemscore.DG>
-14.0047

> <Gold.Chemscore.ZeroCoef>
-5.4800

> <Gold.Chemscore.Hbond>
0.9597

> <Gold.Chemscore.Metal>
0.0000

> <Gold.Chemscore.Lipo>
90.3817

> <Gold.Chemscore.Internal_Hbond>
0.0000

> <Gold.Chemscore.DEClash>
0.2266

> <Gold.Chemscore.DEInternal>
0.2439

> <Gold.Chemscore.Rot>
2.0529

> <Gold.Chemscore.Internal.Correction>
   9.000000E+99

> <Gold.Chemscore.Hbonds>
donor molecule, donor type, donor heavy atom, donor atom, acceptor molecule, acceptor atom, score
      L1  H     4    24       P1  7957  0.83

> <Gold.Chemscore.Hbond.Weighted>
-3.2054

> <Gold.Chemscore.Metal.Weighted>
-0.0000

> <Gold.Chemscore.Lipo.Weighted>
-10.5747

> <Gold.Chemscore.Internal_Hbond.Weighted>
0.0000

> <Gold.Chemscore.DEClash.Weighted>
0.2266

> <Gold.Chemscore.DEInternal.Weighted>
0.2439

> <Gold.Chemscore.Rot.Weighted>
5.2554

> <Gold.Chemscore.Internal.Correction.Weighted>
   9.000000E+99

> <Gold.Protein.RotatedTorsions>
[ 6907 6896 6895 6894 ] final -100.76 input  -60.11 | X-H torsion
[ 7974 7965 7964 7962 ] final  104.86 input  175.53 | X-H torsion
[ 8008 7997 7996 7995 ] final  134.75 input   59.86 | X-H torsion
[ 10167 10162 10161 10158 ] final  -53.69 input  -65.29 | X-H torsion
[ 10718 10713 10712 10709 ] final  -65.40 input   66.30 | X-H torsion
[ 10763 10752 10751 10750 ] final  139.28 input  -60.55 | X-H torsion
[ 11005 11000 10999 10996 ] final  -71.09 input  -57.11 | X-H torsion

> <Gold.Protein.ActiveResidues>
 VAL166  LYS551  ARG553  GLY616  TRP617  ASP618  TYR619  PRO620  LYS621  CYS622 
 ASP623  PHE694  ASN695  SER759  ASP760  ASP761  ALA762  ILE779  LEU786  VAL792 
 PHE793  MET794  SER795  GLU796  ALA797  LYS798  CYS799  TRP800  GLU811  SER814 

> <Gold.Protein.RotatedAtoms>
  150.7128  134.0838  159.3907 H   0  0  0  0  0  0  0  0  0  0  0  0  # atno 6907 bound_to 6896
  151.8823  135.0446  160.0499 H   0  0  0  0  0  0  0  0  0  0  0  0  # atno 6908 bound_to 6896
  152.2558  133.5219  159.5389 H   0  0  0  0  0  0  0  0  0  0  0  0  # atno 6909 bound_to 6896
  145.3272  139.2496  143.3680 H   0  0  0  0  0  0  0  0  0  0  0  0  # atno 7974 bound_to 7965
  156.3000  140.2488  156.3469 H   0  0  0  0  0  0  0  0  0  0  0  0  # atno 8008 bound_to 7997
  154.9002  140.0406  157.1908 H   0  0  0  0  0  0  0  0  0  0  0  0  # atno 8009 bound_to 7997
  154.8508  140.2905  155.5603 H   0  0  0  0  0  0  0  0  0  0  0  0  # atno 8010 bound_to 7997
  140.6471  143.2542  151.4829 H   0  0  0  0  0  0  0  0  0  0  0  0  # atno 10167 bound_to 10162
  156.0672  130.4247  150.1558 H   0  0  0  0  0  0  0  0  0  0  0  0  # atno 10718 bound_to 10713
  153.9035  135.3019  155.3448 H   0  0  0  0  0  0  0  0  0  0  0  0  # atno 10763 bound_to 10752
  154.7659  135.4911  153.9556 H   0  0  0  0  0  0  0  0  0  0  0  0  # atno 10764 bound_to 10752
  153.1232  135.6787  153.9401 H   0  0  0  0  0  0  0  0  0  0  0  0  # atno 10765 bound_to 10752
  141.1586  133.6808  156.6853 H   0  0  0  0  0  0  0  0  0  0  0  0  # atno 11005 bound_to 11000
  146.3059  140.3843  142.8687 LP  0  0  0  0  0  0  0  0  0  0  0  0  # atno 17320 bound_to 7965
  144.8892  140.7502  143.5937 LP  0  0  0  0  0  0  0  0  0  0  0  0  # atno 17321 bound_to 7965
  139.5682  144.1991  152.1797 LP  0  0  0  0  0  0  0  0  0  0  0  0  # atno 17342 bound_to 10162
  140.1279  144.5315  150.6821 LP  0  0  0  0  0  0  0  0  0  0  0  0  # atno 17343 bound_to 10162
  156.9616  130.9806  151.3478 LP  0  0  0  0  0  0  0  0  0  0  0  0  # atno 17370 bound_to 10713
  157.5721  130.8317  149.8405 LP  0  0  0  0  0  0  0  0  0  0  0  0  # atno 17371 bound_to 10713
  140.3071  134.8116  157.4146 LP  0  0  0  0  0  0  0  0  0  0  0  0  # atno 17394 bound_to 11000
  140.1211  134.5219  155.8183 LP  0  0  0  0  0  0  0  0  0  0  0  0  # atno 17395 bound_to 11000

$$$$
