AV-unprocessed.smi:2740|AV-procd|sdf|10556|dock10
  -GOLD-   2272015 03D 1   1.00000     0.00000
 Structure written by MMmdl.
 30 31  0  0  0  0  0  0  0  0  2 V2000
  149.5444  138.6790  153.4705 C   0  0  0  0  0  0  0  0  0  0  0  0
  150.7280  138.6376  154.3766 C   0  0  0  0  0  0  0  0  0  0  0  0
  151.8698  137.8943  154.2260 C   0  0  0  0  0  0  0  0  0  0  0  0
  152.8000  138.0795  155.2498 N   0  0  0  0  0  0  0  0  0  0  0  0
  152.4010  138.9562  156.1775 C   0  0  0  0  0  0  0  0  0  0  0  0
  153.1451  139.2800  157.2478 N   0  5  0  0  0  0  0  0  0  0  0  0
  152.5444  139.6915  158.3879 C   0  0  0  0  0  0  0  0  0  0  0  0
  151.5676  139.1676  158.9288 O   0  0  0  0  0  0  0  0  0  0  0  0
  153.1099  140.7764  158.9366 N   0  0  0  0  0  0  0  0  0  0  0  0
  152.6725  141.4373  160.1616 C   0  0  0  0  0  0  0  0  0  0  0  0
  152.6205  142.9651  159.9952 C   0  0  2  0  0  0  0  0  0  0  0  0
  151.6049  143.6503  160.9087 C   0  0  0  0  0  0  0  0  0  0  0  0
  151.2155  144.9074  160.1439 C   0  0  0  0  0  0  0  0  0  0  0  0
  151.8097  144.6971  158.7487 C   0  0  0  0  0  0  0  0  0  0  0  0
  152.1523  143.3202  158.7033 O   0  0  0  0  0  0  0  0  0  0  0  0
  150.7943  139.5988  155.8295 S   0  0  0  0  0  0  0  0  0  0  0  0
  149.8233  139.0669  152.4907 H   0  0  0  0  0  0  0  0  0  0  0  0
  148.7595  139.3188  153.8745 H   0  0  0  0  0  0  0  0  0  0  0  0
  149.1277  137.6813  153.3329 H   0  0  0  0  0  0  0  0  0  0  0  0
  152.1042  137.2099  153.4243 H   0  0  0  0  0  0  0  0  0  0  0  0
  153.9100  141.1718  158.4650 H   0  0  0  0  0  0  0  0  0  0  0  0
  151.6877  141.0539  160.4291 H   0  0  0  0  0  0  0  0  0  0  0  0
  153.3405  141.1697  160.9821 H   0  0  0  0  0  0  0  0  0  0  0  0
  153.6068  143.4066  160.1511 H   0  0  0  0  0  0  0  0  0  0  0  0
  150.7260  143.0177  161.0402 H   0  0  0  0  0  0  0  0  0  0  0  0
  152.0145  143.8642  161.8963 H   0  0  0  0  0  0  0  0  0  0  0  0
  150.1305  145.0098  160.1035 H   0  0  0  0  0  0  0  0  0  0  0  0
  151.6211  145.8072  160.6074 H   0  0  0  0  0  0  0  0  0  0  0  0
  151.1139  144.9595  157.9514 H   0  0  0  0  0  0  0  0  0  0  0  0
  152.7137  145.2947  158.6224 H   0  0  0  0  0  0  0  0  0  0  0  0
  1  2  1  0  0  0  0
  1 17  1  0  0  0  0
  1 18  1  0  0  0  0
  1 19  1  0  0  0  0
  2 16  1  0  0  0  0
  2  3  2  0  0  0  0
  3  4  1  0  0  0  0
  3 20  1  0  0  0  0
  4  5  2  0  0  0  0
  5  6  1  0  0  0  0
  5 16  1  0  0  0  0
  6  7  1  0  0  0  0
  7  8  2  0  0  0  0
  7  9  1  0  0  0  0
  9 10  1  0  0  0  0
  9 21  1  0  0  0  0
 10 11  1  0  0  0  0
 10 22  1  0  0  0  0
 10 23  1  0  0  0  0
 11 15  1  0  0  0  0
 11 12  1  0  0  0  0
 11 24  1  0  0  0  0
 12 13  1  0  0  0  0
 12 25  1  0  0  0  0
 12 26  1  0  0  0  0
 13 14  1  0  0  0  0
 13 27  1  0  0  0  0
 13 28  1  0  0  0  0
 14 15  1  0  0  0  0
 14 29  1  0  0  0  0
 14 30  1  0  0  0  0
M  CHG  1   6  -1
M  END
> <s_m_source_file>
AV-unprocessed.smi

> <i_m_source_file_index>
2740

> <i_lp_mmshare_version>
43012

> <i_f3d_flags>
0

> <s_epik_input>
W0NIM11jMVtjSF1uYyhzMSlbTkhdQyg9TylbTkhdW0NIMl1bQ0BASF0yW0NIMl1bQ0gyXVtDSDJdTzI=

> <s_epik_cmdline>
J2VwaWtfcHl0aG9uJywgJy1waCcsICc3LjAnLCAnLXRuJywgJzgnLCAnLW1hJywgJzIwMCcsICctbWV0YWxfYmluZGluZycsICctaW1hZScsICc8aW5maWxlLm1hZT4nLCAnLW9tYWUnLCAnPG91dGZpbGUubWFlPic=

> <r_lp_tautomer_probability>
0.999

> <r_epik_Ionization_Penalty>
8.54039

> <r_epik_Ionization_Penalty_Charging>
6.77868

> <r_epik_Ionization_Penalty_Neutral>
1.76171

> <r_epik_State_Penalty>
6.77885

> <r_epik_Charging_Adjusted_Penalty>
13.5575

> <i_epik_Tot_Q>
-1

> <i_epik_Tot_abs_Q>
1

> <r_epik_Metal_State_Penalty>
2.69888

> <b_epik_Metal_Only>
1

> <s_lp_Force_Field>
OPLS_2005

> <r_lp_Energy>
13.1736

> <b_lp_Chiralities_Consistent>
1

> <s_lp_Variant>
AV-unprocessed.smi:2740-3

> <Gold.Version>
5.8.1

> <Gold.Id.Protein>
6NUR|6NUR_protein|mol2

> <Gold.PLP.Fitness>
42.9102

> <Gold.PLP.PLP>
-35.7007

> <Gold.PLP.part.hbond>
-1.0000

> <Gold.PLP.part.metal>
0.0000

> <Gold.PLP.part.buried>
-3.1904

> <Gold.PLP.part.nonpolar>
-31.8548

> <Gold.PLP.part.repulsive>
0.1177

> <Gold.PLP.ligand.clash>
0.0000

> <Gold.PLP.ligand.torsion>
0.9060

> <Gold.PLP.Chemscore.Hbond>
2.0000

> <Gold.PLP.Chemscore.CHOScore>
1.0000

> <Gold.PLP.Chemscore.Metal>
0.0000

> <Gold.Chemscore.Hbonds>
donor molecule, donor type, donor heavy atom, donor atom, acceptor molecule, acceptor atom, score
      P1  H  7997  8009       L1     6  2.00
      L1  C     3    20       P1  7949  1.00

> <Gold.PLP.Chemscore.Internal.Correction>
0.0215

> <Gold.Rescore>
     Score         DG    S(hbond)    S(metal)    S(lipo)     H(rot)  DE(clash)    DE(int)     intcor
     14.36     -15.22       0.93        0.00      84.09       1.25       0.04       0.82       ----

> <Gold.Chemscore.Fitness>
14.3614

> <Gold.Chemscore.DG>
-15.2171

> <Gold.Chemscore.ZeroCoef>
-5.4800

> <Gold.Chemscore.Hbond>
0.9288

> <Gold.Chemscore.Metal>
0.0000

> <Gold.Chemscore.Lipo>
84.0883

> <Gold.Chemscore.Internal_Hbond>
0.0000

> <Gold.Chemscore.DEClash>
0.0402

> <Gold.Chemscore.DEInternal>
0.8154

> <Gold.Chemscore.Rot>
1.2514

> <Gold.Chemscore.Internal.Correction>
   9.000000E+99

> <Gold.Chemscore.Hbonds>
donor molecule, donor type, donor heavy atom, donor atom, acceptor molecule, acceptor atom, score
      P1  H  7997  8009       L1     6  0.74

> <Gold.Chemscore.Hbond.Weighted>
-3.1023

> <Gold.Chemscore.Metal.Weighted>
-0.0000

> <Gold.Chemscore.Lipo.Weighted>
-9.8383

> <Gold.Chemscore.Internal_Hbond.Weighted>
0.0000

> <Gold.Chemscore.DEClash.Weighted>
0.0402

> <Gold.Chemscore.DEInternal.Weighted>
0.8154

> <Gold.Chemscore.Rot.Weighted>
3.2036

> <Gold.Chemscore.Internal.Correction.Weighted>
   9.000000E+99

> <Gold.Protein.RotatedTorsions>
[ 6907 6896 6895 6894 ] final  178.25 input  -60.11 | X-H torsion
[ 7974 7965 7964 7962 ] final   51.06 input  175.53 | X-H torsion
[ 8008 7997 7996 7995 ] final  167.32 input   59.86 | X-H torsion
[ 10167 10162 10161 10158 ] final   94.72 input  -65.29 | X-H torsion
[ 10718 10713 10712 10709 ] final -117.93 input   66.30 | X-H torsion
[ 10763 10752 10751 10750 ] final   75.42 input  -60.55 | X-H torsion
[ 11005 11000 10999 10996 ] final -169.12 input  -57.11 | X-H torsion

> <Gold.Protein.ActiveResidues>
 VAL166  LYS551  ARG553  GLY616  TRP617  ASP618  TYR619  PRO620  LYS621  CYS622 
 ASP623  PHE694  ASN695  SER759  ASP760  ASP761  ALA762  ILE779  LEU786  VAL792 
 PHE793  MET794  SER795  GLU796  ALA797  LYS798  CYS799  TRP800  GLU811  SER814 

> <Gold.Protein.RotatedAtoms>
  151.6909  133.3311  159.3242 H   0  0  0  0  0  0  0  0  0  0  0  0  # atno 6907 bound_to 6896
  150.7779  134.6699  159.6395 H   0  0  0  0  0  0  0  0  0  0  0  0  # atno 6908 bound_to 6896
  152.3828  134.6568  160.0189 H   0  0  0  0  0  0  0  0  0  0  0  0  # atno 6909 bound_to 6896
  145.9950  139.4379  143.0050 H   0  0  0  0  0  0  0  0  0  0  0  0  # atno 7974 bound_to 7965
  156.1644  140.1620  156.8557 H   0  0  0  0  0  0  0  0  0  0  0  0  # atno 8008 bound_to 7997
  154.5192  140.0782  156.8175 H   0  0  0  0  0  0  0  0  0  0  0  0  # atno 8009 bound_to 7997
  155.3642  140.3397  155.4244 H   0  0  0  0  0  0  0  0  0  0  0  0  # atno 8010 bound_to 7997
  139.8057  144.6795  150.9707 H   0  0  0  0  0  0  0  0  0  0  0  0  # atno 10167 bound_to 10162
  156.1069  130.6217  150.9226 H   0  0  0  0  0  0  0  0  0  0  0  0  # atno 10718 bound_to 10713
  153.0653  135.4989  154.8186 H   0  0  0  0  0  0  0  0  0  0  0  0  # atno 10763 bound_to 10752
  154.6944  135.2990  154.9435 H   0  0  0  0  0  0  0  0  0  0  0  0  # atno 10764 bound_to 10752
  154.0179  135.6746  153.4823 H   0  0  0  0  0  0  0  0  0  0  0  0  # atno 10765 bound_to 10752
  140.5343  134.5585  157.5083 H   0  0  0  0  0  0  0  0  0  0  0  0  # atno 11005 bound_to 11000
  145.7573  140.9949  143.1219 LP  0  0  0  0  0  0  0  0  0  0  0  0  # atno 17320 bound_to 7965
  144.6901  139.9287  143.7471 LP  0  0  0  0  0  0  0  0  0  0  0  0  # atno 17321 bound_to 7965
  140.7819  143.4236  151.0802 LP  0  0  0  0  0  0  0  0  0  0  0  0  # atno 17342 bound_to 10162
  139.7906  143.8224  152.3151 LP  0  0  0  0  0  0  0  0  0  0  0  0  # atno 17343 bound_to 10162
  157.6246  131.0927  150.8557 LP  0  0  0  0  0  0  0  0  0  0  0  0  # atno 17370 bound_to 10713
  156.8675  130.5134  149.5299 LP  0  0  0  0  0  0  0  0  0  0  0  0  # atno 17371 bound_to 10713
  139.9537  134.7571  156.0389 LP  0  0  0  0  0  0  0  0  0  0  0  0  # atno 17394 bound_to 11000
  141.1264  133.6598  156.3347 LP  0  0  0  0  0  0  0  0  0  0  0  0  # atno 17395 bound_to 11000

$$$$
