AV-unprocessed.smi:1933|AV-procd|sdf|7822|dock9
  -GOLD-   22720 9573D 1   1.00000     0.00000
 Structure written by MMmdl.
 48 50  0  0  0  0  0  0  0  0  2 V2000
  144.5237  136.6181  152.5149 O   0  0  0  0  0  0  0  0  0  0  0  0
  145.7144  136.4075  152.2834 C   0  0  0  0  0  0  0  0  0  0  0  0
  146.6848  137.3004  152.5264 N   0  0  0  0  0  0  0  0  0  0  0  0
  146.4868  138.6352  153.0831 C   0  0  0  0  0  0  0  0  0  0  0  0
  147.8247  139.3690  153.3709 C   0  0  1  0  0  0  0  0  0  0  0  0
  147.6726  140.6157  154.2889 C   0  0  1  0  0  0  0  0  0  0  0  0
  146.8020  141.7175  153.7037 C   0  0  0  0  0  0  0  0  0  0  0  0
  146.4593  142.5436  154.9352 C   0  0  0  0  0  0  0  0  0  0  0  0
  146.2889  141.5876  155.9709 O   0  0  0  0  0  0  0  0  0  0  0  0
  146.9615  140.3787  155.6305 C   0  0  0  0  0  0  0  0  0  0  0  0
  148.8535  138.4452  153.9384 N   0  3  0  0  0  0  0  0  0  0  0  0
  150.2085  139.0186  154.1440 C   0  0  0  0  0  0  0  0  0  0  0  0
  151.1902  137.9082  154.5526 C   0  0  0  0  0  0  0  0  0  0  0  0
  150.7167  137.2653  155.7304 O   0  0  0  0  0  0  0  0  0  0  0  0
  149.4510  136.6461  155.5316 C   0  0  0  0  0  0  0  0  0  0  0  0
  148.4075  137.7086  155.1462 C   0  0  0  0  0  0  0  0  0  0  0  0
  146.2164  135.2758  151.7585 N   0  0  0  0  0  0  0  0  0  0  0  0
  145.5124  134.1125  151.3470 C   0  0  0  0  0  0  0  0  0  0  0  0
  146.3243  133.0580  150.8714 C   0  0  0  0  0  0  0  0  0  0  0  0
  145.7220  131.8604  150.4394 C   0  0  0  0  0  0  0  0  0  0  0  0
  144.3213  131.7478  150.4939 C   0  0  0  0  0  0  0  0  0  0  0  0
  143.5867  132.8453  150.9793 C   0  0  0  0  0  0  0  0  0  0  0  0
  144.1619  133.9938  151.3938 N   0  0  0  0  0  0  0  0  0  0  0  0
  147.6344  137.0362  152.3078 H   0  0  0  0  0  0  0  0  0  0  0  0
  145.8753  139.2381  152.4103 H   0  0  0  0  0  0  0  0  0  0  0  0
  145.9097  138.5129  153.9992 H   0  0  0  0  0  0  0  0  0  0  0  0
  148.2200  139.7276  152.4190 H   0  0  0  0  0  0  0  0  0  0  0  0
  148.6559  141.0382  154.5007 H   0  0  0  0  0  0  0  0  0  0  0  0
  147.3083  142.3064  152.9382 H   0  0  0  0  0  0  0  0  0  0  0  0
  145.8922  141.2995  153.2697 H   0  0  0  0  0  0  0  0  0  0  0  0
  147.2877  143.2036  155.1960 H   0  0  0  0  0  0  0  0  0  0  0  0
  145.5652  143.1529  154.8000 H   0  0  0  0  0  0  0  0  0  0  0  0
  146.2127  139.5902  155.5475 H   0  0  0  0  0  0  0  0  0  0  0  0
  147.6595  140.0998  156.4198 H   0  0  0  0  0  0  0  0  0  0  0  0
  150.5630  139.5013  153.2338 H   0  0  0  0  0  0  0  0  0  0  0  0
  150.1850  139.7784  154.9259 H   0  0  0  0  0  0  0  0  0  0  0  0
  151.3135  137.1802  153.7489 H   0  0  0  0  0  0  0  0  0  0  0  0
  152.1745  138.3319  154.7528 H   0  0  0  0  0  0  0  0  0  0  0  0
  149.5265  135.8769  154.7612 H   0  0  0  0  0  0  0  0  0  0  0  0
  149.1539  136.1453  156.4532 H   0  0  0  0  0  0  0  0  0  0  0  0
  148.2620  138.4002  155.9764 H   0  0  0  0  0  0  0  0  0  0  0  0
  147.4485  137.2246  154.9582 H   0  0  0  0  0  0  0  0  0  0  0  0
  147.2172  135.2424  151.6334 H   0  0  0  0  0  0  0  0  0  0  0  0
  147.3992  133.1604  150.8361 H   0  0  0  0  0  0  0  0  0  0  0  0
  146.3249  131.0428  150.0732 H   0  0  0  0  0  0  0  0  0  0  0  0
  143.8231  130.8452  150.1722 H   0  0  0  0  0  0  0  0  0  0  0  0
  142.5093  132.8006  151.0363 H   0  0  0  0  0  0  0  0  0  0  0  0
  148.9682  137.7321  153.2323 H   0  0  0  0  0  0  0  0  0  0  0  0
  1  2  2  0  0  0  0
  2  3  1  0  0  0  0
  2 17  1  0  0  0  0
  3  4  1  0  0  0  0
  3 24  1  0  0  0  0
  4  5  1  0  0  0  0
  4 25  1  0  0  0  0
  4 26  1  0  0  0  0
  5  6  1  0  0  0  0
  5 11  1  0  0  0  0
  5 27  1  0  0  0  0
  6 10  1  0  0  0  0
  6  7  1  0  0  0  0
  6 28  1  0  0  0  0
  7  8  1  0  0  0  0
  7 29  1  0  0  0  0
  7 30  1  0  0  0  0
  8  9  1  0  0  0  0
  8 31  1  0  0  0  0
  8 32  1  0  0  0  0
  9 10  1  0  0  0  0
 10 33  1  0  0  0  0
 10 34  1  0  0  0  0
 11 16  1  0  0  0  0
 11 12  1  0  0  0  0
 11 48  1  0  0  0  0
 12 13  1  0  0  0  0
 12 35  1  0  0  0  0
 12 36  1  0  0  0  0
 13 14  1  0  0  0  0
 13 37  1  0  0  0  0
 13 38  1  0  0  0  0
 14 15  1  0  0  0  0
 15 16  1  0  0  0  0
 15 39  1  0  0  0  0
 15 40  1  0  0  0  0
 16 41  1  0  0  0  0
 16 42  1  0  0  0  0
 17 18  1  0  0  0  0
 17 43  1  0  0  0  0
 18 23  1  0  0  0  0
 18 19  2  0  0  0  0
 19 20  1  0  0  0  0
 19 44  1  0  0  0  0
 20 21  2  0  0  0  0
 20 45  1  0  0  0  0
 21 22  1  0  0  0  0
 21 46  1  0  0  0  0
 22 23  2  0  0  0  0
 22 47  1  0  0  0  0
M  CHG  1  11   1
M  END
> <s_m_source_file>
AV-unprocessed.smi

> <i_m_source_file_index>
1933

> <i_lp_mmshare_version>
43012

> <i_f3d_flags>
0

> <s_epik_input>
bjFbY0hdW2NIXVtjSF1bY0hdYzFbTkhdQyg9TylbTkhdW0NIMl1bQ0BIXShbQ0BASF0yW0NIMl1bQ0gyXU9bQ0gyXTIpTjNbQ0gyXVtDSDJdT1tDSDJdW0NIMl0z

> <s_epik_cmdline>
J2VwaWtfcHl0aG9uJywgJy1waCcsICc3LjAnLCAnLXRuJywgJzgnLCAnLW1hJywgJzIwMCcsICctbWV0YWxfYmluZGluZycsICctaW1hZScsICc8aW5maWxlLm1hZT4nLCAnLW9tYWUnLCAnPG91dGZpbGUubWFlPic=

> <r_epik_Ionization_Penalty>
0.983294

> <r_epik_Ionization_Penalty_Charging>
0.98326

> <r_epik_Ionization_Penalty_Neutral>
3.39688e-05

> <r_epik_State_Penalty>
1.0303

> <r_epik_Charging_Adjusted_Penalty>
2.01356

> <i_epik_Tot_Q>
1

> <i_epik_Tot_abs_Q>
1

> <r_epik_Metal_State_Penalty>
1.0303

> <b_epik_Metal_Only>
0

> <s_lp_Force_Field>
OPLS_2005

> <r_lp_Energy>
40.1163

> <b_lp_Chiralities_Consistent>
1

> <s_lp_Variant>
AV-unprocessed.smi:1933-8

> <Gold.Version>
5.8.1

> <Gold.Id.Protein>
6NUR|6NUR_protein|mol2

> <Gold.PLP.Fitness>
51.6869

> <Gold.PLP.PLP>
-37.3265

> <Gold.PLP.part.hbond>
-3.4425

> <Gold.PLP.part.metal>
0.0000

> <Gold.PLP.part.buried>
-2.9559

> <Gold.PLP.part.nonpolar>
-32.1989

> <Gold.PLP.part.repulsive>
0.6660

> <Gold.PLP.ligand.clash>
0.0000

> <Gold.PLP.ligand.torsion>
0.2916

> <Gold.PLP.Chemscore.Hbond>
3.9440

> <Gold.PLP.Chemscore.CHOScore>
0.9685

> <Gold.PLP.Chemscore.Metal>
0.0000

> <Gold.Chemscore.Hbonds>
donor molecule, donor type, donor heavy atom, donor atom, acceptor molecule, acceptor atom, score
      L1  H     3    24       P1  7948  1.00
      L1  H    11    48       P1  7948  2.00
      L1  H    17    43       P1  7948  0.94
      L1  C    22    47       P1 10186  0.57

> <Gold.PLP.Chemscore.Internal.Correction>
0.2060

> <Gold.Rescore>
     Score         DG    S(hbond)    S(metal)    S(lipo)     H(rot)  DE(clash)    DE(int)     intcor
     18.85     -20.87       2.77        0.00      91.22       1.77       0.37       1.66       ----

> <Gold.Chemscore.Fitness>
18.8479

> <Gold.Chemscore.DG>
-20.8695

> <Gold.Chemscore.ZeroCoef>
-5.4800

> <Gold.Chemscore.Hbond>
2.7666

> <Gold.Chemscore.Metal>
0.0000

> <Gold.Chemscore.Lipo>
91.2198

> <Gold.Chemscore.Internal_Hbond>
0.0000

> <Gold.Chemscore.DEClash>
0.3651

> <Gold.Chemscore.DEInternal>
1.6566

> <Gold.Chemscore.Rot>
1.7671

> <Gold.Chemscore.Internal.Correction>
   9.000000E+99

> <Gold.Chemscore.Hbonds>
donor molecule, donor type, donor heavy atom, donor atom, acceptor molecule, acceptor atom, score
      L1  H     3    24       P1  7948  0.98
      L1  H    11    48       P1  7948  0.95
      L1  H    17    43       P1  7948  0.84

> <Gold.Chemscore.Hbond.Weighted>
-9.2406

> <Gold.Chemscore.Metal.Weighted>
-0.0000

> <Gold.Chemscore.Lipo.Weighted>
-10.6727

> <Gold.Chemscore.Internal_Hbond.Weighted>
0.0000

> <Gold.Chemscore.DEClash.Weighted>
0.3651

> <Gold.Chemscore.DEInternal.Weighted>
1.6566

> <Gold.Chemscore.Rot.Weighted>
4.5238

> <Gold.Chemscore.Internal.Correction.Weighted>
   9.000000E+99

> <Gold.Protein.RotatedTorsions>
[ 6907 6896 6895 6894 ] final  -99.89 input  -60.11 | X-H torsion
[ 7974 7965 7964 7962 ] final  -61.32 input  175.53 | X-H torsion
[ 8008 7997 7996 7995 ] final   83.35 input   59.86 | X-H torsion
[ 10167 10162 10161 10158 ] final  -68.13 input  -65.29 | X-H torsion
[ 10718 10713 10712 10709 ] final   89.82 input   66.30 | X-H torsion
[ 10763 10752 10751 10750 ] final  130.52 input  -60.55 | X-H torsion
[ 11005 11000 10999 10996 ] final    9.36 input  -57.11 | X-H torsion

> <Gold.Protein.ActiveResidues>
 VAL166  LYS551  ARG553  GLY616  TRP617  ASP618  TYR619  PRO620  LYS621  CYS622 
 ASP623  PHE694  ASN695  SER759  ASP760  ASP761  ALA762  ILE779  LEU786  VAL792 
 PHE793  MET794  SER795  GLU796  ALA797  LYS798  CYS799  TRP800  GLU811  SER814 

> <Gold.Protein.RotatedAtoms>
  150.7096  134.0972  159.3952 H   0  0  0  0  0  0  0  0  0  0  0  0  # atno 6907 bound_to 6896
  151.8957  135.0396  160.0511 H   0  0  0  0  0  0  0  0  0  0  0  0  # atno 6908 bound_to 6896
  152.2455  133.5135  159.5331 H   0  0  0  0  0  0  0  0  0  0  0  0  # atno 6909 bound_to 6896
  145.8049  140.8633  143.0212 H   0  0  0  0  0  0  0  0  0  0  0  0  # atno 7974 bound_to 7965
  155.9227  140.3420  155.6186 H   0  0  0  0  0  0  0  0  0  0  0  0  # atno 8008 bound_to 7997
  155.7254  140.0788  157.2331 H   0  0  0  0  0  0  0  0  0  0  0  0  # atno 8009 bound_to 7997
  154.4072  140.1598  156.2436 H   0  0  0  0  0  0  0  0  0  0  0  0  # atno 8010 bound_to 7997
  140.5531  143.2312  151.6873 H   0  0  0  0  0  0  0  0  0  0  0  0  # atno 10167 bound_to 10162
  157.6957  131.0347  150.3483 H   0  0  0  0  0  0  0  0  0  0  0  0  # atno 10718 bound_to 10713
  153.7594  135.3198  155.3334 H   0  0  0  0  0  0  0  0  0  0  0  0  # atno 10763 bound_to 10752
  154.8235  135.4586  154.0852 H   0  0  0  0  0  0  0  0  0  0  0  0  # atno 10764 bound_to 10752
  153.2079  135.6931  153.8233 H   0  0  0  0  0  0  0  0  0  0  0  0  # atno 10765 bound_to 10752
  140.5266  134.0507  155.7860 H   0  0  0  0  0  0  0  0  0  0  0  0  # atno 11005 bound_to 11000
  144.6764  140.0312  143.7482 LP  0  0  0  0  0  0  0  0  0  0  0  0  # atno 17320 bound_to 7965
  145.9839  139.2962  143.1025 LP  0  0  0  0  0  0  0  0  0  0  0  0  # atno 17321 bound_to 7965
  139.5036  144.3786  152.0399 LP  0  0  0  0  0  0  0  0  0  0  0  0  # atno 17342 bound_to 10162
  140.2905  144.3759  150.6090 LP  0  0  0  0  0  0  0  0  0  0  0  0  # atno 17343 bound_to 10162
  156.3935  130.3902  149.7012 LP  0  0  0  0  0  0  0  0  0  0  0  0  # atno 17370 bound_to 10713
  156.4354  130.7835  151.2856 LP  0  0  0  0  0  0  0  0  0  0  0  0  # atno 17371 bound_to 10713
  141.1305  133.9311  157.2546 LP  0  0  0  0  0  0  0  0  0  0  0  0  # atno 17394 bound_to 11000
  139.9577  135.0162  156.9173 LP  0  0  0  0  0  0  0  0  0  0  0  0  # atno 17395 bound_to 11000

$$$$
