AV-unprocessed.smi:837|AV-procd|sdf|3902|dock6
  -GOLD-   22720 1363D 1   1.00000     0.00000
 Structure written by MMmdl.
 48 50  0  0  0  0  0  0  0  0  2 V2000
  152.9249  138.1391  158.5463 C   0  0  0  0  0  0  0  0  0  0  0  0
  153.1656  139.6501  158.7603 C   0  0  2  0  0  0  0  0  0  0  0  0
  153.1707  139.9719  160.2717 C   0  0  0  0  0  0  0  0  0  0  0  0
  153.4803  141.4510  160.5437 C   0  0  0  0  0  0  0  0  0  0  0  0
  152.4929  142.3689  159.8126 C   0  0  0  0  0  0  0  0  0  0  0  0
  152.4827  142.0753  158.3025 C   0  0  0  0  0  0  0  0  0  0  0  0
  152.1967  140.5874  157.9633 C   0  0  1  0  0  0  0  0  0  0  0  0
  152.3753  140.3990  156.5338 N   0  5  0  0  0  0  0  0  0  0  0  0
  151.2010  140.0078  155.9872 C   0  0  0  0  0  0  0  0  0  0  0  0
  150.9918  139.7474  154.8027 O   0  0  0  0  0  0  0  0  0  0  0  0
  150.2366  139.9235  156.9227 N   0  0  0  0  0  0  0  0  0  0  0  0
  148.8539  139.4964  156.6686 C   0  0  0  0  0  0  0  0  0  0  0  0
  147.8335  140.6388  156.7772 C   0  0  0  0  0  0  0  0  0  0  0  0
  147.6350  141.2161  157.8476 O   0  0  0  0  0  0  0  0  0  0  0  0
  147.1998  140.9655  155.6407 N   0  0  0  0  0  0  0  0  0  0  0  0
  146.1990  142.0176  155.5118 C   0  0  0  0  0  0  0  0  0  0  0  0
  146.4455  142.8854  154.2670 C   0  0  0  0  0  0  0  0  0  0  0  0
  145.3754  143.9451  154.0905 C   0  0  0  0  0  0  0  0  0  0  0  0
  144.4490  144.2142  155.1190 C   0  0  0  0  0  0  0  0  0  0  0  0
  143.4759  145.2109  154.9111 C   0  0  0  0  0  0  0  0  0  0  0  0
  143.4718  145.8979  153.6804 C   0  0  0  0  0  0  0  0  0  0  0  0
  144.3544  145.6485  152.6889 N   0  0  0  0  0  0  0  0  0  0  0  0
  145.2837  144.6909  152.8960 C   0  0  0  0  0  0  0  0  0  0  0  0
  150.7178  140.2422  158.1293 C   0  0  0  0  0  0  0  0  0  0  0  0
  150.1018  140.2514  159.1960 O   0  0  0  0  0  0  0  0  0  0  0  0
  151.9533  137.8238  158.9277 H   0  0  0  0  0  0  0  0  0  0  0  0
  153.6827  137.5492  159.0620 H   0  0  0  0  0  0  0  0  0  0  0  0
  152.9717  137.8687  157.4912 H   0  0  0  0  0  0  0  0  0  0  0  0
  154.1745  139.8528  158.3962 H   0  0  0  0  0  0  0  0  0  0  0  0
  152.2109  139.7112  160.7177 H   0  0  0  0  0  0  0  0  0  0  0  0
  153.9138  139.3543  160.7769 H   0  0  0  0  0  0  0  0  0  0  0  0
  153.4456  141.6472  161.6156 H   0  0  0  0  0  0  0  0  0  0  0  0
  154.4973  141.6765  160.2202 H   0  0  0  0  0  0  0  0  0  0  0  0
  151.4940  142.2455  160.2306 H   0  0  0  0  0  0  0  0  0  0  0  0
  152.7650  143.4110  159.9817 H   0  0  0  0  0  0  0  0  0  0  0  0
  151.7522  142.7249  157.8173 H   0  0  0  0  0  0  0  0  0  0  0  0
  153.4516  142.3610  157.8893 H   0  0  0  0  0  0  0  0  0  0  0  0
  148.7722  139.0555  155.6739 H   0  0  0  0  0  0  0  0  0  0  0  0
  148.5817  138.7020  157.3658 H   0  0  0  0  0  0  0  0  0  0  0  0
  147.4261  140.4442  154.8059 H   0  0  0  0  0  0  0  0  0  0  0  0
  145.1994  141.5806  155.4828 H   0  0  0  0  0  0  0  0  0  0  0  0
  146.2424  142.6349  156.4094 H   0  0  0  0  0  0  0  0  0  0  0  0
  147.4197  143.3715  154.3355 H   0  0  0  0  0  0  0  0  0  0  0  0
  146.4753  142.2636  153.3712 H   0  0  0  0  0  0  0  0  0  0  0  0
  144.4830  143.6685  156.0509 H   0  0  0  0  0  0  0  0  0  0  0  0
  142.7503  145.4438  155.6765 H   0  0  0  0  0  0  0  0  0  0  0  0
  142.7400  146.6682  153.4875 H   0  0  0  0  0  0  0  0  0  0  0  0
  145.9762  144.5174  152.0854 H   0  0  0  0  0  0  0  0  0  0  0  0
  1  2  1  0  0  0  0
  1 26  1  0  0  0  0
  1 27  1  0  0  0  0
  1 28  1  0  0  0  0
  2  7  1  0  0  0  0
  2  3  1  0  0  0  0
  2 29  1  0  0  0  0
  3  4  1  0  0  0  0
  3 30  1  0  0  0  0
  3 31  1  0  0  0  0
  4  5  1  0  0  0  0
  4 32  1  0  0  0  0
  4 33  1  0  0  0  0
  5  6  1  0  0  0  0
  5 34  1  0  0  0  0
  5 35  1  0  0  0  0
  6  7  1  0  0  0  0
  6 36  1  0  0  0  0
  6 37  1  0  0  0  0
  7 24  1  0  0  0  0
  7  8  1  0  0  0  0
  8  9  1  0  0  0  0
  9 10  2  0  0  0  0
  9 11  1  0  0  0  0
 11 12  1  0  0  0  0
 11 24  1  0  0  0  0
 12 13  1  0  0  0  0
 12 38  1  0  0  0  0
 12 39  1  0  0  0  0
 13 14  2  0  0  0  0
 13 15  1  0  0  0  0
 15 16  1  0  0  0  0
 15 40  1  0  0  0  0
 16 17  1  0  0  0  0
 16 41  1  0  0  0  0
 16 42  1  0  0  0  0
 17 18  1  0  0  0  0
 17 43  1  0  0  0  0
 17 44  1  0  0  0  0
 18 23  1  0  0  0  0
 18 19  2  0  0  0  0
 19 20  1  0  0  0  0
 19 45  1  0  0  0  0
 20 21  2  0  0  0  0
 20 46  1  0  0  0  0
 21 22  1  0  0  0  0
 21 47  1  0  0  0  0
 22 23  2  0  0  0  0
 23 48  1  0  0  0  0
 24 25  2  0  0  0  0
M  CHG  1   8  -1
M  END
> <s_m_source_file>
AV-unprocessed.smi

> <i_m_source_file_index>
837

> <i_lp_mmshare_version>
43012

> <i_f3d_flags>
0

> <s_epik_input>
W0NIMl0xW0NIMl1bQ0gyXVtDSDJdW0NAQEhdKFtDSDNdKVtDQEBdMTJbTkhdQyg9TylOKEMyPU8pW0NIMl1DKD1PKVtOSF1bQ0gyXVtDSDJdYzNbY0hdW2NIXVtjSF1uW2NIXTM=

> <s_epik_cmdline>
J2VwaWtfcHl0aG9uJywgJy1waCcsICc3LjAnLCAnLXRuJywgJzgnLCAnLW1hJywgJzIwMCcsICctbWV0YWxfYmluZGluZycsICctaW1hZScsICc8aW5maWxlLm1hZT4nLCAnLW9tYWUnLCAnPG91dGZpbGUubWFlPic=

> <r_lp_tautomer_probability>
1

> <r_epik_Ionization_Penalty>
6.03002

> <r_epik_Ionization_Penalty_Charging>
6.01728

> <r_epik_Ionization_Penalty_Neutral>
0.0127382

> <r_epik_State_Penalty>
6.02713

> <r_epik_Charging_Adjusted_Penalty>
12.0444

> <i_epik_Tot_Q>
-1

> <i_epik_Tot_abs_Q>
1

> <r_epik_Metal_State_Penalty>
1.99078

> <b_epik_Metal_Only>
1

> <s_lp_Force_Field>
OPLS_2005

> <r_lp_Energy>
14.9732

> <b_lp_Chiralities_Consistent>
1

> <s_lp_Variant>
AV-unprocessed.smi:837-11

> <Gold.Version>
5.8.1

> <Gold.Id.Protein>
6NUR|6NUR_protein|mol2

> <Gold.PLP.Fitness>
45.6415

> <Gold.PLP.PLP>
-37.3529

> <Gold.PLP.part.hbond>
-5.7633

> <Gold.PLP.part.metal>
0.0000

> <Gold.PLP.part.buried>
1.0758

> <Gold.PLP.part.nonpolar>
-30.8532

> <Gold.PLP.part.repulsive>
0.2529

> <Gold.PLP.ligand.clash>
0.0000

> <Gold.PLP.ligand.torsion>
0.3506

> <Gold.PLP.Chemscore.Hbond>
2.9840

> <Gold.PLP.Chemscore.CHOScore>
0.0000

> <Gold.PLP.Chemscore.Metal>
0.0000

> <Gold.Chemscore.Hbonds>
donor molecule, donor type, donor heavy atom, donor atom, acceptor molecule, acceptor atom, score
      P1  H  7989  7998       L1    10  1.00
      P1  H  7997  8009       L1     8  1.98

> <Gold.PLP.Chemscore.Internal.Correction>
0.0377

> <Gold.Rescore>
     Score         DG    S(hbond)    S(metal)    S(lipo)     H(rot)  DE(clash)    DE(int)     intcor
     12.43     -17.98       1.56        0.00     101.91       1.81       4.45       1.11       ----

> <Gold.Chemscore.Fitness>
12.4290

> <Gold.Chemscore.DG>
-17.9837

> <Gold.Chemscore.ZeroCoef>
-5.4800

> <Gold.Chemscore.Hbond>
1.5603

> <Gold.Chemscore.Metal>
0.0000

> <Gold.Chemscore.Lipo>
101.9085

> <Gold.Chemscore.Internal_Hbond>
0.0000

> <Gold.Chemscore.DEClash>
4.4450

> <Gold.Chemscore.DEInternal>
1.1097

> <Gold.Chemscore.Rot>
1.8090

> <Gold.Chemscore.Internal.Correction>
   9.000000E+99

> <Gold.Chemscore.Hbonds>
donor molecule, donor type, donor heavy atom, donor atom, acceptor molecule, acceptor atom, score
      P1  H  7989  7998       L1    10  0.98
      P1  H  7997  8009       L1     8  0.23

> <Gold.Chemscore.Hbond.Weighted>
-5.2114

> <Gold.Chemscore.Metal.Weighted>
-0.0000

> <Gold.Chemscore.Lipo.Weighted>
-11.9233

> <Gold.Chemscore.Internal_Hbond.Weighted>
0.0000

> <Gold.Chemscore.DEClash.Weighted>
4.4450

> <Gold.Chemscore.DEInternal.Weighted>
1.1097

> <Gold.Chemscore.Rot.Weighted>
4.6310

> <Gold.Chemscore.Internal.Correction.Weighted>
   9.000000E+99

> <Gold.Protein.RotatedTorsions>
[ 6907 6896 6895 6894 ] final -170.51 input  -60.11 | X-H torsion
[ 7974 7965 7964 7962 ] final  178.32 input  175.53 | X-H torsion
[ 8008 7997 7996 7995 ] final -169.14 input   59.86 | X-H torsion
[ 10167 10162 10161 10158 ] final   40.51 input  -65.29 | X-H torsion
[ 10718 10713 10712 10709 ] final   94.49 input   66.30 | X-H torsion
[ 10763 10752 10751 10750 ] final -147.04 input  -60.55 | X-H torsion
[ 11005 11000 10999 10996 ] final  109.02 input  -57.11 | X-H torsion

> <Gold.Protein.ActiveResidues>
 VAL166  LYS551  ARG553  GLY616  TRP617  ASP618  TYR619  PRO620  LYS621  CYS622 
 ASP623  PHE694  ASN695  SER759  ASP760  ASP761  ALA762  ILE779  LEU786  VAL792 
 PHE793  MET794  SER795  GLU796  ALA797  LYS798  CYS799  TRP800  GLU811  SER814 

> <Gold.Protein.RotatedAtoms>
  151.5089  133.3489  159.2881 H   0  0  0  0  0  0  0  0  0  0  0  0  # atno 6907 bound_to 6896
  150.8725  134.8104  159.7176 H   0  0  0  0  0  0  0  0  0  0  0  0  # atno 6908 bound_to 6896
  152.4708  134.4975  159.9766 H   0  0  0  0  0  0  0  0  0  0  0  0  # atno 6909 bound_to 6896
  144.7157  140.0380  143.6438 H   0  0  0  0  0  0  0  0  0  0  0  0  # atno 7974 bound_to 7965
  155.9010  140.1041  157.1350 H   0  0  0  0  0  0  0  0  0  0  0  0  # atno 8008 bound_to 7997
  154.4026  140.1292  156.4500 H   0  0  0  0  0  0  0  0  0  0  0  0  # atno 8009 bound_to 7997
  155.7423  140.3466  155.5112 H   0  0  0  0  0  0  0  0  0  0  0  0  # atno 8010 bound_to 7997
  140.3735  144.2074  150.6132 H   0  0  0  0  0  0  0  0  0  0  0  0  # atno 10167 bound_to 10162
  157.6947  131.0514  150.4194 H   0  0  0  0  0  0  0  0  0  0  0  0  # atno 10718 bound_to 10713
  154.8306  135.3370  154.6756 H   0  0  0  0  0  0  0  0  0  0  0  0  # atno 10763 bound_to 10752
  153.7377  135.6948  153.4979 H   0  0  0  0  0  0  0  0  0  0  0  0  # atno 10764 bound_to 10752
  153.2267  135.4430  155.0501 H   0  0  0  0  0  0  0  0  0  0  0  0  # atno 10765 bound_to 10752
  139.8854  134.9447  156.6062 H   0  0  0  0  0  0  0  0  0  0  0  0  # atno 11005 bound_to 11000
  146.0047  139.3120  143.0906 LP  0  0  0  0  0  0  0  0  0  0  0  0  # atno 17320 bound_to 7965
  145.8752  140.9396  143.0630 LP  0  0  0  0  0  0  0  0  0  0  0  0  # atno 17321 bound_to 7965
  140.5010  143.2318  151.8679 LP  0  0  0  0  0  0  0  0  0  0  0  0  # atno 17342 bound_to 10162
  139.4801  144.5060  151.8997 LP  0  0  0  0  0  0  0  0  0  0  0  0  # atno 17343 bound_to 10162
  156.4571  130.4024  149.6599 LP  0  0  0  0  0  0  0  0  0  0  0  0  # atno 17370 bound_to 10713
  156.3728  130.7539  151.2524 LP  0  0  0  0  0  0  0  0  0  0  0  0  # atno 17371 bound_to 10713
  140.7846  133.8632  155.8596 LP  0  0  0  0  0  0  0  0  0  0  0  0  # atno 17394 bound_to 11000
  140.9730  134.1506  157.4560 LP  0  0  0  0  0  0  0  0  0  0  0  0  # atno 17395 bound_to 11000

$$$$
