AV-unprocessed.smi:2083|AV-procd|sdf|8509|dock8
  -GOLD-   2272011223D 1   1.00000     0.00000
 Structure written by MMmdl.
 44 45  0  0  0  0  0  0  0  0  3 V2000
  151.3762  140.4244  156.7900 C   0  0  0  0  0  0  0  0  0  0  0  0
  150.7816  139.3460  155.9507 C   0  0  0  0  0  0  0  0  0  0  0  0
  150.5955  138.0075  156.1526 C   0  0  0  0  0  0  0  0  0  0  0  0
  149.9681  137.5853  154.9502 C   0  0  0  0  0  0  0  0  0  0  0  0
  149.5998  136.2267  154.7648 N   0  0  0  0  0  0  0  0  0  0  0  0
  150.0427  135.1370  155.4179 C   0  0  0  0  0  0  0  0  0  0  0  0
  150.8743  135.2473  156.3270 O   0  0  0  0  0  0  0  0  0  0  0  0
  149.4683  133.9909  154.9580 N   0  5  0  0  0  0  0  0  0  0  0  0
  148.4139  133.9336  153.9442 C   0  0  0  0  0  0  0  0  0  0  0  0
  147.9921  132.4660  153.6565 C   0  0  1  0  0  0  0  0  0  0  0  0
  147.7234  131.6201  154.9267 C   0  0  0  0  0  0  0  0  0  0  0  0
  146.8573  132.4277  152.6818 N   0  3  2  0  0  0  0  0  0  0  0  0
  146.3648  131.0722  152.2961 C   0  0  0  0  0  0  0  0  0  0  0  0
  145.0471  131.1739  151.5137 C   0  0  0  0  0  0  0  0  0  0  0  0
  145.2143  132.0660  150.2752 C   0  0  0  0  0  0  0  0  0  0  0  0
  145.7933  133.4432  150.6503 C   0  0  1  0  0  0  0  0  0  0  0  0
  144.7633  134.3526  151.3433 C   0  0  0  0  0  0  0  0  0  0  0  0
  147.0813  133.2847  151.4853 C   0  0  0  0  0  0  0  0  0  0  0  0
  149.7896  138.5781  154.0910 N   0  0  0  0  0  0  0  0  0  0  0  0
  150.3092  139.7111  154.7282 O   0  0  0  0  0  0  0  0  0  0  0  0
  152.0565  140.0077  157.5329 H   0  0  0  0  0  0  0  0  0  0  0  0
  150.5972  140.9762  157.3158 H   0  0  0  0  0  0  0  0  0  0  0  0
  151.9373  141.1303  156.1773 H   0  0  0  0  0  0  0  0  0  0  0  0
  150.8630  137.4257  157.0222 H   0  0  0  0  0  0  0  0  0  0  0  0
  148.9206  136.0548  154.0385 H   0  0  0  0  0  0  0  0  0  0  0  0
  147.5358  134.5002  154.2543 H   0  0  0  0  0  0  0  0  0  0  0  0
  148.7335  134.3981  153.0099 H   0  0  0  0  0  0  0  0  0  0  0  0
  148.8453  132.0063  153.1555 H   0  0  0  0  0  0  0  0  0  0  0  0
  148.6154  131.5300  155.5492 H   0  0  0  0  0  0  0  0  0  0  0  0
  147.4291  130.6046  154.6611 H   0  0  0  0  0  0  0  0  0  0  0  0
  146.9329  132.0366  155.5534 H   0  0  0  0  0  0  0  0  0  0  0  0
  147.1112  130.5627  151.6855 H   0  0  0  0  0  0  0  0  0  0  0  0
  146.2038  130.4539  153.1795 H   0  0  0  0  0  0  0  0  0  0  0  0
  144.7179  130.1794  151.2111 H   0  0  0  0  0  0  0  0  0  0  0  0
  144.2640  131.5715  152.1600 H   0  0  0  0  0  0  0  0  0  0  0  0
  145.8870  131.5736  149.5717 H   0  0  0  0  0  0  0  0  0  0  0  0
  144.2613  132.1789  149.7573 H   0  0  0  0  0  0  0  0  0  0  0  0
  146.0671  133.9437  149.7206 H   0  0  0  0  0  0  0  0  0  0  0  0
  144.4445  133.9499  152.3049 H   0  0  0  0  0  0  0  0  0  0  0  0
  143.8740  134.4794  150.7255 H   0  0  0  0  0  0  0  0  0  0  0  0
  145.1781  135.3445  151.5252 H   0  0  0  0  0  0  0  0  0  0  0  0
  147.4337  134.2726  151.7846 H   0  0  0  0  0  0  0  0  0  0  0  0
  147.8709  132.8444  150.8746 H   0  0  0  0  0  0  0  0  0  0  0  0
  146.0943  132.8690  153.1755 H   0  0  0  0  0  0  0  0  0  0  0  0
  1  2  1  0  0  0  0
  1 21  1  0  0  0  0
  1 22  1  0  0  0  0
  1 23  1  0  0  0  0
  2 20  1  0  0  0  0
  2  3  2  0  0  0  0
  3  4  1  0  0  0  0
  3 24  1  0  0  0  0
  4  5  1  0  0  0  0
  4 19  2  0  0  0  0
  5  6  1  0  0  0  0
  5 25  1  0  0  0  0
  6  7  2  0  0  0  0
  6  8  1  0  0  0  0
  8  9  1  0  0  0  0
  9 10  1  0  0  0  0
  9 26  1  0  0  0  0
  9 27  1  0  0  0  0
 10 11  1  0  0  0  0
 10 12  1  0  0  0  0
 10 28  1  0  0  0  0
 11 29  1  0  0  0  0
 11 30  1  0  0  0  0
 11 31  1  0  0  0  0
 12 18  1  0  0  0  0
 12 13  1  0  0  0  0
 12 44  1  0  0  0  0
 13 14  1  0  0  0  0
 13 32  1  0  0  0  0
 13 33  1  0  0  0  0
 14 15  1  0  0  0  0
 14 34  1  0  0  0  0
 14 35  1  0  0  0  0
 15 16  1  0  0  0  0
 15 36  1  0  0  0  0
 15 37  1  0  0  0  0
 16 17  1  0  0  0  0
 16 18  1  0  0  0  0
 16 38  1  0  0  0  0
 17 39  1  0  0  0  0
 17 40  1  0  0  0  0
 17 41  1  0  0  0  0
 18 42  1  0  0  0  0
 18 43  1  0  0  0  0
 19 20  1  0  0  0  0
M  CHG  1   8  -1
M  CHG  1  12   1
M  END
> <s_m_source_file>
AV-unprocessed.smi

> <i_m_source_file_index>
2083

> <i_lp_mmshare_version>
43012

> <i_f3d_flags>
0

> <s_epik_input>
W0NIM11jMVtjSF1jKG5vMSlbTkhdQyg9TylbTkhdW0NIMl1bQ0BIXShbQ0gzXSlOMltDSDJdW0NIMl1bQ0gyXVtDQEBIXShbQ0gzXSlbQ0gyXTI=

> <s_epik_cmdline>
J2VwaWtfcHl0aG9uJywgJy1waCcsICc3LjAnLCAnLXRuJywgJzgnLCAnLW1hJywgJzIwMCcsICctbWV0YWxfYmluZGluZycsICctaW1hZScsICc8aW5maWxlLm1hZT4nLCAnLW9tYWUnLCAnPG91dGZpbGUubWFlPic=

> <r_epik_Ionization_Penalty>
6.76934

> <r_epik_Ionization_Penalty_Charging>
6.76934

> <r_epik_Ionization_Penalty_Neutral>
5.77849e-06

> <r_epik_State_Penalty>
6.79457

> <r_epik_Charging_Adjusted_Penalty>
13.5639

> <i_epik_Tot_Q>
0

> <i_epik_Tot_abs_Q>
2

> <r_epik_Metal_State_Penalty>
2.72837

> <b_epik_Metal_Only>
1

> <s_lp_Force_Field>
OPLS_2005

> <r_lp_Energy>
19.7061

> <b_lp_Chiralities_Consistent>
1

> <s_lp_Variant>
AV-unprocessed.smi:2083-20

> <Gold.Version>
5.8.1

> <Gold.Id.Protein>
6NUR|6NUR_protein|mol2

> <Gold.PLP.Fitness>
38.7950

> <Gold.PLP.PLP>
-32.3645

> <Gold.PLP.part.hbond>
-3.3719

> <Gold.PLP.part.metal>
0.0000

> <Gold.PLP.part.buried>
-3.6184

> <Gold.PLP.part.nonpolar>
-25.6544

> <Gold.PLP.part.repulsive>
1.0061

> <Gold.PLP.ligand.clash>
1.4844

> <Gold.PLP.ligand.torsion>
0.1758

> <Gold.PLP.Chemscore.Hbond>
2.7040

> <Gold.PLP.Chemscore.CHOScore>
0.0000

> <Gold.PLP.Chemscore.Metal>
0.0000

> <Gold.Chemscore.Hbonds>
donor molecule, donor type, donor heavy atom, donor atom, acceptor molecule, acceptor atom, score
      L1  H     5    25       P1  7948  0.44
      P1  H  7989  7998       L1    20  0.71

> <Gold.PLP.Chemscore.Internal.Correction>
0.1544

> <Gold.Rescore>
     Score         DG    S(hbond)    S(metal)    S(lipo)     H(rot)  DE(clash)    DE(int)     intcor
     16.26     -17.72       2.28        0.00      72.75       1.52       0.22       1.24       ----

> <Gold.Chemscore.Fitness>
16.2582

> <Gold.Chemscore.DG>
-17.7221

> <Gold.Chemscore.ZeroCoef>
-5.4800

> <Gold.Chemscore.Hbond>
2.2811

> <Gold.Chemscore.Metal>
0.0000

> <Gold.Chemscore.Lipo>
72.7504

> <Gold.Chemscore.Internal_Hbond>
0.0000

> <Gold.Chemscore.DEClash>
0.2244

> <Gold.Chemscore.DEInternal>
1.2396

> <Gold.Chemscore.Rot>
1.5190

> <Gold.Chemscore.Internal.Correction>
   9.000000E+99

> <Gold.Chemscore.Hbonds>
donor molecule, donor type, donor heavy atom, donor atom, acceptor molecule, acceptor atom, score
      L1  H     5    25       P1  7948  0.43
      P1  H  7989  7998       L1    20  0.59

> <Gold.Chemscore.Hbond.Weighted>
-7.6190

> <Gold.Chemscore.Metal.Weighted>
-0.0000

> <Gold.Chemscore.Lipo.Weighted>
-8.5118

> <Gold.Chemscore.Internal_Hbond.Weighted>
0.0000

> <Gold.Chemscore.DEClash.Weighted>
0.2244

> <Gold.Chemscore.DEInternal.Weighted>
1.2396

> <Gold.Chemscore.Rot.Weighted>
3.8886

> <Gold.Chemscore.Internal.Correction.Weighted>
   9.000000E+99

> <Gold.Protein.RotatedTorsions>
[ 6907 6896 6895 6894 ] final  -22.05 input  -60.11 | X-H torsion
[ 7974 7965 7964 7962 ] final  -80.86 input  175.53 | X-H torsion
[ 8008 7997 7996 7995 ] final  179.72 input   59.86 | X-H torsion
[ 10167 10162 10161 10158 ] final  121.80 input  -65.29 | X-H torsion
[ 10718 10713 10712 10709 ] final -113.30 input   66.30 | X-H torsion
[ 10763 10752 10751 10750 ] final   73.66 input  -60.55 | X-H torsion
[ 11005 11000 10999 10996 ] final   98.48 input  -57.11 | X-H torsion

> <Gold.Protein.ActiveResidues>
 VAL166  LYS551  ARG553  GLY616  TRP617  ASP618  TYR619  PRO620  LYS621  CYS622 
 ASP623  PHE694  ASN695  SER759  ASP760  ASP761  ALA762  ILE779  LEU786  VAL792 
 PHE793  MET794  SER795  GLU796  ALA797  LYS798  CYS799  TRP800  GLU811  SER814 

> <Gold.Protein.RotatedAtoms>
  151.2244  135.0530  159.8962 H   0  0  0  0  0  0  0  0  0  0  0  0  # atno 6907 bound_to 6896
  152.5412  134.0606  159.8160 H   0  0  0  0  0  0  0  0  0  0  0  0  # atno 6908 bound_to 6896
  151.0776  133.5367  159.2654 H   0  0  0  0  0  0  0  0  0  0  0  0  # atno 6909 bound_to 6896
  145.5543  140.9492  143.1482 H   0  0  0  0  0  0  0  0  0  0  0  0  # atno 7974 bound_to 7965
  156.0402  140.1301  157.0164 H   0  0  0  0  0  0  0  0  0  0  0  0  # atno 8008 bound_to 7997
  154.4387  140.1032  156.6296 H   0  0  0  0  0  0  0  0  0  0  0  0  # atno 8009 bound_to 7997
  155.5678  140.3466  155.4510 H   0  0  0  0  0  0  0  0  0  0  0  0  # atno 8010 bound_to 7997
  139.5897  144.7020  151.3320 H   0  0  0  0  0  0  0  0  0  0  0  0  # atno 10167 bound_to 10162
  156.0758  130.5966  150.8624 H   0  0  0  0  0  0  0  0  0  0  0  0  # atno 10718 bound_to 10713
  153.0535  135.5055  154.7926 H   0  0  0  0  0  0  0  0  0  0  0  0  # atno 10763 bound_to 10752
  154.6769  135.2962  154.9668 H   0  0  0  0  0  0  0  0  0  0  0  0  # atno 10764 bound_to 10752
  154.0467  135.6709  153.4848 H   0  0  0  0  0  0  0  0  0  0  0  0  # atno 10765 bound_to 10752
  139.8772  134.9051  156.4463 H   0  0  0  0  0  0  0  0  0  0  0  0  # atno 11005 bound_to 11000
  144.7514  139.7184  143.7271 LP  0  0  0  0  0  0  0  0  0  0  0  0  # atno 17320 bound_to 7965
  146.1895  139.5128  142.9814 LP  0  0  0  0  0  0  0  0  0  0  0  0  # atno 17321 bound_to 7965
  140.7163  143.7258  150.7661 LP  0  0  0  0  0  0  0  0  0  0  0  0  # atno 17342 bound_to 10162
  140.0811  143.4968  152.2529 LP  0  0  0  0  0  0  0  0  0  0  0  0  # atno 17343 bound_to 10162
  157.5853  131.0945  150.9207 LP  0  0  0  0  0  0  0  0  0  0  0  0  # atno 17370 bound_to 10713
  156.9394  130.5379  149.5280 LP  0  0  0  0  0  0  0  0  0  0  0  0  # atno 17371 bound_to 10713
  140.8963  133.7811  155.9629 LP  0  0  0  0  0  0  0  0  0  0  0  0  # atno 17394 bound_to 11000
  140.8699  134.2739  157.5196 LP  0  0  0  0  0  0  0  0  0  0  0  0  # atno 17395 bound_to 11000

$$$$
