AV-unprocessed.smi:1703|AV-procd|sdf|6869|dock10
  -GOLD-   22720 8 63D 1   1.00000     0.00000
 Structure written by MMmdl.
 49 51  0  0  0  0  0  0  0  0  2 V2000
  145.5478  136.3616  158.9854 C   0  0  0  0  0  0  0  0  0  0  0  0
  146.4205  137.5288  159.4725 C   0  0  2  0  0  0  0  0  0  0  0  0
  147.6537  137.7903  158.5831 C   0  0  0  0  0  0  0  0  0  0  0  0
  148.7196  136.8088  158.7766 N   0  0  0  0  0  0  0  0  0  0  0  0
  149.9033  137.1037  157.9677 C   0  0  0  0  0  0  0  0  0  0  0  0
  150.6431  138.4182  158.3041 C   0  0  1  0  0  0  0  0  0  0  0  0
  151.6531  138.1094  159.2408 O   0  0  0  0  0  0  0  0  0  0  0  0
  151.3430  139.0890  157.1014 C   0  0  0  0  0  0  0  0  0  0  0  0
  151.1393  140.5440  157.0285 N   0  0  0  0  0  0  0  0  0  0  0  0
  150.3468  141.2938  156.2070 C   0  0  0  0  0  0  0  0  0  0  0  0
  149.4274  140.7975  155.1375 C   0  0  0  0  0  0  0  0  0  0  0  0
  150.1085  140.1324  154.0952 O   0  0  0  0  0  0  0  0  0  0  0  0
  150.5456  142.6006  156.5412 N   0  3  0  0  0  0  0  0  0  0  0  0
  151.4606  142.6882  157.5900 C   0  0  0  0  0  0  0  0  0  0  0  0
  151.9645  143.7927  158.2697 C   0  0  0  0  0  0  0  0  0  0  0  0
  152.8840  143.5313  159.3066 C   0  0  0  0  0  0  0  0  0  0  0  0
  153.2712  142.2144  159.6302 C   0  0  0  0  0  0  0  0  0  0  0  0
  152.7562  141.1031  158.9305 C   0  0  0  0  0  0  0  0  0  0  0  0
  151.8444  141.3705  157.9102 C   0  0  0  0  0  0  0  0  0  0  0  0
  149.0584  136.7501  160.1922 C   0  0  0  0  0  0  0  0  0  0  0  0
  147.8383  136.3954  161.0589 C   0  0  1  0  0  0  0  0  0  0  0  0
  148.1735  136.3923  162.5537 C   0  0  0  0  0  0  0  0  0  0  0  0
  146.8104  137.3588  160.8361 O   0  0  0  0  0  0  0  0  0  0  0  0
  145.1958  136.5354  157.9683 H   0  0  0  0  0  0  0  0  0  0  0  0
  144.6721  136.2392  159.6227 H   0  0  0  0  0  0  0  0  0  0  0  0
  146.0927  135.4196  158.9877 H   0  0  0  0  0  0  0  0  0  0  0  0
  145.7960  138.4219  159.4421 H   0  0  0  0  0  0  0  0  0  0  0  0
  147.3370  137.8143  157.5413 H   0  0  0  0  0  0  0  0  0  0  0  0
  148.0382  138.7864  158.8088 H   0  0  0  0  0  0  0  0  0  0  0  0
  150.5994  136.2676  158.0552 H   0  0  0  0  0  0  0  0  0  0  0  0
  149.6252  137.1378  156.9136 H   0  0  0  0  0  0  0  0  0  0  0  0
  149.9760  139.1268  158.7925 H   0  0  0  0  0  0  0  0  0  0  0  0
  152.2871  138.8103  159.2419 H   0  0  0  0  0  0  0  0  0  0  0  0
  152.4174  138.9018  157.1279 H   0  0  0  0  0  0  0  0  0  0  0  0
  150.9874  138.6562  156.1658 H   0  0  0  0  0  0  0  0  0  0  0  0
  148.6991  140.1181  155.5804 H   0  0  0  0  0  0  0  0  0  0  0  0
  148.8740  141.6314  154.7074 H   0  0  0  0  0  0  0  0  0  0  0  0
  149.5355  140.0847  153.3449 H   0  0  0  0  0  0  0  0  0  0  0  0
  151.6675  144.8018  158.0241 H   0  0  0  0  0  0  0  0  0  0  0  0
  153.3002  144.3573  159.8650 H   0  0  0  0  0  0  0  0  0  0  0  0
  153.9788  142.0528  160.4305 H   0  0  0  0  0  0  0  0  0  0  0  0
  153.0590  140.0981  159.1846 H   0  0  0  0  0  0  0  0  0  0  0  0
  149.8385  136.0050  160.3532 H   0  0  0  0  0  0  0  0  0  0  0  0
  149.4714  137.7077  160.5142 H   0  0  0  0  0  0  0  0  0  0  0  0
  147.4754  135.4035  160.7879 H   0  0  0  0  0  0  0  0  0  0  0  0
  148.9494  135.6608  162.7802 H   0  0  0  0  0  0  0  0  0  0  0  0
  147.2954  136.1411  163.1491 H   0  0  0  0  0  0  0  0  0  0  0  0
  148.5293  137.3698  162.8807 H   0  0  0  0  0  0  0  0  0  0  0  0
  150.0759  143.3728  156.0862 H   0  0  0  0  0  0  0  0  0  0  0  0
  1  2  1  0  0  0  0
  1 24  1  0  0  0  0
  1 25  1  0  0  0  0
  1 26  1  0  0  0  0
  2 23  1  0  0  0  0
  2  3  1  0  0  0  0
  2 27  1  0  0  0  0
  3  4  1  0  0  0  0
  3 28  1  0  0  0  0
  3 29  1  0  0  0  0
  4  5  1  0  0  0  0
  4 20  1  0  0  0  0
  5  6  1  0  0  0  0
  5 30  1  0  0  0  0
  5 31  1  0  0  0  0
  6  7  1  0  0  0  0
  6  8  1  0  0  0  0
  6 32  1  0  0  0  0
  7 33  1  0  0  0  0
  8  9  1  0  0  0  0
  8 34  1  0  0  0  0
  8 35  1  0  0  0  0
  9 19  1  0  0  0  0
  9 10  1  0  0  0  0
 10 11  1  0  0  0  0
 10 13  2  0  0  0  0
 11 12  1  0  0  0  0
 11 36  1  0  0  0  0
 11 37  1  0  0  0  0
 12 38  1  0  0  0  0
 13 14  1  0  0  0  0
 13 49  1  0  0  0  0
 14 19  2  0  0  0  0
 14 15  1  0  0  0  0
 15 16  2  0  0  0  0
 15 39  1  0  0  0  0
 16 17  1  0  0  0  0
 16 40  1  0  0  0  0
 17 18  2  0  0  0  0
 17 41  1  0  0  0  0
 18 19  1  0  0  0  0
 18 42  1  0  0  0  0
 20 21  1  0  0  0  0
 20 43  1  0  0  0  0
 20 44  1  0  0  0  0
 21 22  1  0  0  0  0
 21 23  1  0  0  0  0
 21 45  1  0  0  0  0
 22 46  1  0  0  0  0
 22 47  1  0  0  0  0
 22 48  1  0  0  0  0
M  CHG  1  13   1
M  END
> <s_m_source_file>
AV-unprocessed.smi

> <i_m_source_file_index>
1703

> <i_lp_mmshare_version>
43012

> <i_f3d_flags>
0

> <s_epik_input>
W0NIM11bQ0BASF0xW0NIMl1OKFtDSDJdW0NASF0oTzEpW0NIM10pW0NIMl1bQ0BIXShbT0hdKVtDSDJdbihjKG4yKVtDSDJdW09IXSljKGMyMylbY0hdW2NIXVtjSF1bY0hdMw==

> <s_epik_cmdline>
J2VwaWtfcHl0aG9uJywgJy1waCcsICc3LjAnLCAnLXRuJywgJzgnLCAnLW1hJywgJzIwMCcsICctbWV0YWxfYmluZGluZycsICctaW1hZScsICc8aW5maWxlLm1hZT4nLCAnLW9tYWUnLCAnPG91dGZpbGUubWFlPic=

> <r_epik_Ionization_Penalty>
1.7682

> <r_epik_Ionization_Penalty_Charging>
1.55298

> <r_epik_Ionization_Penalty_Neutral>
0.215215

> <r_epik_State_Penalty>
1.83821

> <r_epik_Charging_Adjusted_Penalty>
3.39119

> <i_epik_Tot_Q>
1

> <i_epik_Tot_abs_Q>
1

> <r_epik_Metal_State_Penalty>
5.89206

> <b_epik_Metal_Only>
0

> <s_lp_Force_Field>
OPLS_2005

> <r_lp_Energy>
30.0096

> <b_lp_Chiralities_Consistent>
1

> <s_lp_Variant>
AV-unprocessed.smi:1703-17

> <Gold.Version>
5.8.1

> <Gold.Id.Protein>
6NUR|6NUR_protein|mol2

> <Gold.PLP.Fitness>
54.5609

> <Gold.PLP.PLP>
-42.1567

> <Gold.PLP.part.hbond>
-4.0000

> <Gold.PLP.part.metal>
0.0000

> <Gold.PLP.part.buried>
-5.3789

> <Gold.PLP.part.nonpolar>
-33.4528

> <Gold.PLP.part.repulsive>
0.0796

> <Gold.PLP.ligand.clash>
0.0000

> <Gold.PLP.ligand.torsion>
1.2540

> <Gold.PLP.Chemscore.Hbond>
4.9673

> <Gold.PLP.Chemscore.CHOScore>
0.0000

> <Gold.PLP.Chemscore.Metal>
0.0000

> <Gold.Chemscore.Hbonds>
donor molecule, donor type, donor heavy atom, donor atom, acceptor molecule, acceptor atom, score
      L1  H    12    38       P1  7957  0.49
      L1  H    13    49       P1  8028  2.00
      P1  H  6934  6947       L1    23  0.50
      P1  H  7989  7998       L1    12  0.94

> <Gold.PLP.Chemscore.Internal.Correction>
0.0105

> <Gold.Rescore>
     Score         DG    S(hbond)    S(metal)    S(lipo)     H(rot)  DE(clash)    DE(int)     intcor
     18.11     -19.50       2.88        0.00     102.25       2.96       0.03       1.36       ----

> <Gold.Chemscore.Fitness>
18.1135

> <Gold.Chemscore.DG>
-19.5021

> <Gold.Chemscore.ZeroCoef>
-5.4800

> <Gold.Chemscore.Hbond>
2.8815

> <Gold.Chemscore.Metal>
0.0000

> <Gold.Chemscore.Lipo>
102.2545

> <Gold.Chemscore.Internal_Hbond>
0.0000

> <Gold.Chemscore.DEClash>
0.0326

> <Gold.Chemscore.DEInternal>
1.3560

> <Gold.Chemscore.Rot>
2.9555

> <Gold.Chemscore.Internal.Correction>
   9.000000E+99

> <Gold.Chemscore.Hbonds>
donor molecule, donor type, donor heavy atom, donor atom, acceptor molecule, acceptor atom, score
      L1  H    12    38       P1  7957  0.48
      L1  H    13    49       P1  8028  1.00
      P1  H  6934  6947       L1    23  0.02
      P1  H  7989  7998       L1    12  0.44

> <Gold.Chemscore.Hbond.Weighted>
-9.6243

> <Gold.Chemscore.Metal.Weighted>
-0.0000

> <Gold.Chemscore.Lipo.Weighted>
-11.9638

> <Gold.Chemscore.Internal_Hbond.Weighted>
0.0000

> <Gold.Chemscore.DEClash.Weighted>
0.0326

> <Gold.Chemscore.DEInternal.Weighted>
1.3560

> <Gold.Chemscore.Rot.Weighted>
7.5660

> <Gold.Chemscore.Internal.Correction.Weighted>
   9.000000E+99

> <Gold.Protein.RotatedTorsions>
[ 6907 6896 6895 6894 ] final  -15.14 input  -60.11 | X-H torsion
[ 7974 7965 7964 7962 ] final   55.10 input  175.53 | X-H torsion
[ 8008 7997 7996 7995 ] final   98.99 input   59.86 | X-H torsion
[ 10167 10162 10161 10158 ] final -119.55 input  -65.29 | X-H torsion
[ 10718 10713 10712 10709 ] final    0.42 input   66.30 | X-H torsion
[ 10763 10752 10751 10750 ] final   95.67 input  -60.55 | X-H torsion
[ 11005 11000 10999 10996 ] final  -44.37 input  -57.11 | X-H torsion

> <Gold.Protein.ActiveResidues>
 VAL166  LYS551  ARG553  GLY616  TRP617  ASP618  TYR619  PRO620  LYS621  CYS622 
 ASP623  PHE694  ASN695  SER759  ASP760  ASP761  ALA762  ILE779  LEU786  VAL792 
 PHE793  MET794  SER795  GLU796  ALA797  LYS798  CYS799  TRP800  GLU811  SER814 

> <Gold.Protein.RotatedAtoms>
  151.3285  135.0836  159.9330 H   0  0  0  0  0  0  0  0  0  0  0  0  # atno 6907 bound_to 6896
  152.5240  133.9566  159.7708 H   0  0  0  0  0  0  0  0  0  0  0  0  # atno 6908 bound_to 6896
  150.9901  133.6106  159.2739 H   0  0  0  0  0  0  0  0  0  0  0  0  # atno 6909 bound_to 6896
  145.9539  139.3997  143.0289 H   0  0  0  0  0  0  0  0  0  0  0  0  # atno 7974 bound_to 7965
  156.1060  140.3235  155.8006 H   0  0  0  0  0  0  0  0  0  0  0  0  # atno 8008 bound_to 7997
  155.4755  140.0550  157.2991 H   0  0  0  0  0  0  0  0  0  0  0  0  # atno 8009 bound_to 7997
  154.4728  140.2019  155.9967 H   0  0  0  0  0  0  0  0  0  0  0  0  # atno 8010 bound_to 7997
  140.0454  143.5112  152.2109 H   0  0  0  0  0  0  0  0  0  0  0  0  # atno 10167 bound_to 10162
  156.8331  130.5495  149.5685 H   0  0  0  0  0  0  0  0  0  0  0  0  # atno 10718 bound_to 10713
  153.2559  135.4245  155.0845 H   0  0  0  0  0  0  0  0  0  0  0  0  # atno 10763 bound_to 10752
  154.8401  135.3437  154.6446 H   0  0  0  0  0  0  0  0  0  0  0  0  # atno 10764 bound_to 10752
  153.6866  135.7036  153.5159 H   0  0  0  0  0  0  0  0  0  0  0  0  # atno 10765 bound_to 10752
  141.0446  133.6766  156.2863 H   0  0  0  0  0  0  0  0  0  0  0  0  # atno 11005 bound_to 11000
  145.8133  140.9715  143.0937 LP  0  0  0  0  0  0  0  0  0  0  0  0  # atno 17320 bound_to 7965
  144.6801  139.9948  143.7484 LP  0  0  0  0  0  0  0  0  0  0  0  0  # atno 17321 bound_to 7965
  139.5987  144.7575  151.3224 LP  0  0  0  0  0  0  0  0  0  0  0  0  # atno 17342 bound_to 10162
  140.7241  143.7053  150.7812 LP  0  0  0  0  0  0  0  0  0  0  0  0  # atno 17343 bound_to 10162
  156.0923  130.5905  150.9753 LP  0  0  0  0  0  0  0  0  0  0  0  0  # atno 17370 bound_to 10713
  157.6396  131.0912  150.8279 LP  0  0  0  0  0  0  0  0  0  0  0  0  # atno 17371 bound_to 10713
  140.6171  134.5400  157.5542 LP  0  0  0  0  0  0  0  0  0  0  0  0  # atno 17394 bound_to 11000
  139.9302  134.7979  156.0953 LP  0  0  0  0  0  0  0  0  0  0  0  0  # atno 17395 bound_to 11000

$$$$
