AV-unprocessed.smi:640|AV-procd|sdf|3150|dock7
  -GOLD-   22720 0 73D 1   1.00000     0.00000
 Structure written by MMmdl.
 38 40  0  0  0  0  0  0  0  0  3 V2000
  150.8940  141.0544  157.5933 O   0  0  0  0  0  0  0  0  0  0  0  0
  150.7049  142.1541  157.0721 C   0  0  0  0  0  0  0  0  0  0  0  0
  151.3866  143.4097  157.6328 C   0  0  0  0  0  0  0  0  0  0  0  0
  151.9726  143.1948  158.9664 N   0  0  0  0  0  0  0  0  0  0  0  0
  152.9477  142.1846  159.0851 C   0  0  0  0  0  0  0  0  0  0  0  0
  153.5544  141.9095  160.2564 C   0  0  0  0  0  0  0  0  0  0  0  0
  154.5590  140.8738  160.3593 N   0  3  0  0  0  0  0  0  0  0  0  0
  155.1843  140.7628  161.4090 O   0  0  0  0  0  0  0  0  0  0  0  0
  154.7562  140.1378  159.3971 O   0  5  0  0  0  0  0  0  0  0  0  0
  153.1693  142.6920  161.4152 C   0  0  0  0  0  0  0  0  0  0  0  0
  152.2404  143.6622  161.3070 C   0  0  0  0  0  0  0  0  0  0  0  0
  151.5861  143.9640  160.0298 C   0  0  0  0  0  0  0  0  0  0  0  0
  150.7422  144.8540  159.9227 O   0  0  0  0  0  0  0  0  0  0  0  0
  149.8940  142.3434  156.0197 N   0  0  0  0  0  0  0  0  0  0  0  0
  149.1329  141.3043  155.3342 C   0  0  0  0  0  0  0  0  0  0  0  0
  150.0434  140.3198  154.6235 C   0  0  0  0  0  0  0  0  0  0  0  0
  149.7456  138.8388  154.6132 C   0  0  0  0  0  0  0  0  0  0  0  0
  150.9222  139.3700  155.4014 C   0  0  0  0  0  0  0  0  0  0  0  0
  148.1150  141.8801  154.3642 C   0  0  0  0  0  0  0  0  0  0  0  0
  146.7448  142.3130  154.8287 C   0  0  0  0  0  0  0  0  0  0  0  0
  146.8942  141.0947  153.9462 C   0  0  0  0  0  0  0  0  0  0  0  0
  152.1524  143.7570  156.9363 H   0  0  0  0  0  0  0  0  0  0  0  0
  150.6461  144.2102  157.6632 H   0  0  0  0  0  0  0  0  0  0  0  0
  153.1690  141.6650  158.1639 H   0  0  0  0  0  0  0  0  0  0  0  0
  153.6233  142.5069  162.3776 H   0  0  0  0  0  0  0  0  0  0  0  0
  151.9693  144.2336  162.1827 H   0  0  0  0  0  0  0  0  0  0  0  0
  149.7962  143.2833  155.6639 H   0  0  0  0  0  0  0  0  0  0  0  0
  148.5813  140.7324  156.0835 H   0  0  0  0  0  0  0  0  0  0  0  0
  150.4776  140.7163  153.7073 H   0  0  0  0  0  0  0  0  0  0  0  0
  148.8858  138.4855  155.1789 H   0  0  0  0  0  0  0  0  0  0  0  0
  149.9587  138.2904  153.6979 H   0  0  0  0  0  0  0  0  0  0  0  0
  151.9189  139.1750  155.0114 H   0  0  0  0  0  0  0  0  0  0  0  0
  150.8389  139.3765  156.4866 H   0  0  0  0  0  0  0  0  0  0  0  0
  148.5627  142.4958  153.5860 H   0  0  0  0  0  0  0  0  0  0  0  0
  146.4847  142.1462  155.8721 H   0  0  0  0  0  0  0  0  0  0  0  0
  146.3252  143.2118  154.3816 H   0  0  0  0  0  0  0  0  0  0  0  0
  146.5722  141.1809  152.9105 H   0  0  0  0  0  0  0  0  0  0  0  0
  146.7277  140.1233  154.4073 H   0  0  0  0  0  0  0  0  0  0  0  0
  1  2  2  0  0  0  0
  2  3  1  0  0  0  0
  2 14  1  0  0  0  0
  3  4  1  0  0  0  0
  3 22  1  0  0  0  0
  3 23  1  0  0  0  0
  4 12  1  0  0  0  0
  4  5  1  0  0  0  0
  5  6  2  0  0  0  0
  5 24  1  0  0  0  0
  6  7  1  0  0  0  0
  6 10  1  0  0  0  0
  7  8  2  0  0  0  0
  7  9  1  0  0  0  0
 10 11  2  0  0  0  0
 10 25  1  0  0  0  0
 11 12  1  0  0  0  0
 11 26  1  0  0  0  0
 12 13  2  0  0  0  0
 14 15  1  0  0  0  0
 14 27  1  0  0  0  0
 15 16  1  0  0  0  0
 15 19  1  0  0  0  0
 15 28  1  0  0  0  0
 16 18  1  0  0  0  0
 16 17  1  0  0  0  0
 16 29  1  0  0  0  0
 17 18  1  0  0  0  0
 17 30  1  0  0  0  0
 17 31  1  0  0  0  0
 18 32  1  0  0  0  0
 18 33  1  0  0  0  0
 19 21  1  0  0  0  0
 19 20  1  0  0  0  0
 19 34  1  0  0  0  0
 20 21  1  0  0  0  0
 20 35  1  0  0  0  0
 20 36  1  0  0  0  0
 21 37  1  0  0  0  0
 21 38  1  0  0  0  0
M  CHG  1   7   1
M  CHG  1   9  -1
M  END
> <s_m_source_file>
AV-unprocessed.smi

> <i_m_source_file_index>
640

> <i_lp_mmshare_version>
43012

> <i_f3d_flags>
0

> <s_epik_input>
W0NIMl0xW0NIMl1bQ0hdMVtDSF0oW0NIXTJbQ0gyXVtDSDJdMilbTkhdQyg9TylbQ0gyXW4zW2NIXWMoW04rXSg9TylbTy1dKVtjSF1bY0hdYzM9Tw==

> <s_epik_cmdline>
J2VwaWtfcHl0aG9uJywgJy1waCcsICc3LjAnLCAnLXRuJywgJzgnLCAnLW1hJywgJzIwMCcsICctbWV0YWxfYmluZGluZycsICctaW1hZScsICc8aW5maWxlLm1hZT4nLCAnLW9tYWUnLCAnPG91dGZpbGUubWFlPic=

> <r_lp_tautomer_probability>
1

> <r_epik_Ionization_Penalty>
2.04963e-08

> <r_epik_Ionization_Penalty_Charging>
8.36809e-11

> <r_epik_Ionization_Penalty_Neutral>
2.04126e-08

> <r_epik_State_Penalty>
-0

> <r_epik_Charging_Adjusted_Penalty>
8.36809e-11

> <i_epik_Tot_Q>
0

> <i_epik_Tot_abs_Q>
2

> <r_epik_Metal_State_Penalty>
-0

> <b_epik_Metal_Only>
0

> <s_lp_Force_Field>
OPLS_2005

> <r_lp_Energy>
35.0527

> <b_lp_Chiralities_Consistent>
1

> <s_lp_Variant>
AV-unprocessed.smi:640-1

> <Gold.Version>
5.8.1

> <Gold.Id.Protein>
6NUR|6NUR_protein|mol2

> <Gold.PLP.Fitness>
55.1171

> <Gold.PLP.PLP>
-50.1005

> <Gold.PLP.part.hbond>
-3.0000

> <Gold.PLP.part.metal>
0.0000

> <Gold.PLP.part.buried>
-2.5512

> <Gold.PLP.part.nonpolar>
-45.6741

> <Gold.PLP.part.repulsive>
0.3116

> <Gold.PLP.ligand.clash>
0.0000

> <Gold.PLP.ligand.torsion>
1.3809

> <Gold.PLP.Chemscore.Hbond>
1.8797

> <Gold.PLP.Chemscore.CHOScore>
0.0000

> <Gold.PLP.Chemscore.Metal>
0.0000

> <Gold.Chemscore.Hbonds>
donor molecule, donor type, donor heavy atom, donor atom, acceptor molecule, acceptor atom, score
      L1  H    14    27       P1  8028  0.96
      P1  H  7997  8009       L1     9  0.83

> <Gold.PLP.Chemscore.Internal.Correction>
2.1392

> <Gold.Rescore>
     Score         DG    S(hbond)    S(metal)    S(lipo)     H(rot)  DE(clash)    DE(int)     intcor
     14.56     -18.71       1.97        0.00      99.27       1.94       0.08       4.08       ----

> <Gold.Chemscore.Fitness>
14.5577

> <Gold.Chemscore.DG>
-18.7102

> <Gold.Chemscore.ZeroCoef>
-5.4800

> <Gold.Chemscore.Hbond>
1.9691

> <Gold.Chemscore.Metal>
0.0000

> <Gold.Chemscore.Lipo>
99.2703

> <Gold.Chemscore.Internal_Hbond>
0.0000

> <Gold.Chemscore.DEClash>
0.0754

> <Gold.Chemscore.DEInternal>
4.0772

> <Gold.Chemscore.Rot>
1.9380

> <Gold.Chemscore.Internal.Correction>
   9.000000E+99

> <Gold.Chemscore.Hbonds>
donor molecule, donor type, donor heavy atom, donor atom, acceptor molecule, acceptor atom, score
      L1  H    14    27       P1  8028  0.92
      P1  H  7997  8009       L1     9  0.77

> <Gold.Chemscore.Hbond.Weighted>
-6.5769

> <Gold.Chemscore.Metal.Weighted>
-0.0000

> <Gold.Chemscore.Lipo.Weighted>
-11.6146

> <Gold.Chemscore.Internal_Hbond.Weighted>
0.0000

> <Gold.Chemscore.DEClash.Weighted>
0.0754

> <Gold.Chemscore.DEInternal.Weighted>
4.0772

> <Gold.Chemscore.Rot.Weighted>
4.9613

> <Gold.Chemscore.Internal.Correction.Weighted>
   9.000000E+99

> <Gold.Protein.RotatedTorsions>
[ 6907 6896 6895 6894 ] final -164.63 input  -60.11 | X-H torsion
[ 7974 7965 7964 7962 ] final   65.31 input  175.53 | X-H torsion
[ 8008 7997 7996 7995 ] final  120.67 input   59.86 | X-H torsion
[ 10167 10162 10161 10158 ] final  -33.66 input  -65.29 | X-H torsion
[ 10718 10713 10712 10709 ] final -135.89 input   66.30 | X-H torsion
[ 10763 10752 10751 10750 ] final -157.86 input  -60.55 | X-H torsion
[ 11005 11000 10999 10996 ] final -116.32 input  -57.11 | X-H torsion

> <Gold.Protein.ActiveResidues>
 VAL166  LYS551  ARG553  GLY616  TRP617  ASP618  TYR619  PRO620  LYS621  CYS622 
 ASP623  PHE694  ASN695  SER759  ASP760  ASP761  ALA762  ILE779  LEU786  VAL792 
 PHE793  MET794  SER795  GLU796  ALA797  LYS798  CYS799  TRP800  GLU811  SER814 

> <Gold.Protein.RotatedAtoms>
  151.4148  133.3716  159.2748 H   0  0  0  0  0  0  0  0  0  0  0  0  # atno 6907 bound_to 6896
  150.9336  134.8751  159.7578 H   0  0  0  0  0  0  0  0  0  0  0  0  # atno 6908 bound_to 6896
  152.5040  134.4094  159.9495 H   0  0  0  0  0  0  0  0  0  0  0  0  # atno 6909 bound_to 6896
  145.8399  139.3189  143.0937 H   0  0  0  0  0  0  0  0  0  0  0  0  # atno 7974 bound_to 7965
  156.2653  140.2825  156.1186 H   0  0  0  0  0  0  0  0  0  0  0  0  # atno 8008 bound_to 7997
  155.1180  140.0392  157.2760 H   0  0  0  0  0  0  0  0  0  0  0  0  # atno 8009 bound_to 7997
  154.6692  140.2584  155.7031 H   0  0  0  0  0  0  0  0  0  0  0  0  # atno 8010 bound_to 7997
  140.7200  143.3604  151.1974 H   0  0  0  0  0  0  0  0  0  0  0  0  # atno 10167 bound_to 10162
  156.2711  130.7266  151.1233 H   0  0  0  0  0  0  0  0  0  0  0  0  # atno 10718 bound_to 10713
  154.7602  135.3116  154.8392 H   0  0  0  0  0  0  0  0  0  0  0  0  # atno 10763 bound_to 10752
  153.9155  135.6801  153.4753 H   0  0  0  0  0  0  0  0  0  0  0  0  # atno 10764 bound_to 10752
  153.1202  135.4826  154.9114 H   0  0  0  0  0  0  0  0  0  0  0  0  # atno 10765 bound_to 10752
  141.0430  133.9807  157.2964 H   0  0  0  0  0  0  0  0  0  0  0  0  # atno 11005 bound_to 11000
  145.9476  140.8933  143.0275 LP  0  0  0  0  0  0  0  0  0  0  0  0  # atno 17320 bound_to 7965
  144.6734  140.1635  143.7420 LP  0  0  0  0  0  0  0  0  0  0  0  0  # atno 17321 bound_to 7965
  139.7155  143.9307  152.2965 LP  0  0  0  0  0  0  0  0  0  0  0  0  # atno 17342 bound_to 10162
  139.9047  144.6891  150.8627 LP  0  0  0  0  0  0  0  0  0  0  0  0  # atno 17343 bound_to 10162
  157.7284  131.0632  150.5821 LP  0  0  0  0  0  0  0  0  0  0  0  0  # atno 17370 bound_to 10713
  156.5918  130.4331  149.5933 LP  0  0  0  0  0  0  0  0  0  0  0  0  # atno 17371 bound_to 10713
  139.9290  135.0200  156.8334 LP  0  0  0  0  0  0  0  0  0  0  0  0  # atno 17394 bound_to 11000
  140.6200  134.0003  155.7614 LP  0  0  0  0  0  0  0  0  0  0  0  0  # atno 17395 bound_to 11000

$$$$
