AV-unprocessed.smi:322|AV-procd|sdf|2336|dock8
  -GOLD-   2262022243D 1   1.00000     0.00000
 Structure written by MMmdl.
 43 45  0  0  0  0  0  0  0  0  1 V2000
  149.9906  138.3520  153.7016 O   0  0  0  0  0  0  0  0  0  0  0  0
  151.3074  138.5866  154.1585 C   0  0  0  0  0  0  0  0  0  0  0  0
  151.4028  139.6481  155.2179 C   0  0  0  0  0  0  0  0  0  0  0  0
  150.8080  140.8384  155.1080 N   0  0  0  0  0  0  0  0  0  0  0  0
  151.1484  141.4626  156.2918 C   0  0  0  0  0  0  0  0  0  0  0  0
  150.8257  142.7498  156.7779 C   0  0  0  0  0  0  0  0  0  0  0  0
  151.2952  143.1752  158.0380 C   0  0  0  0  0  0  0  0  0  0  0  0
  152.0917  142.3217  158.8284 C   0  0  0  0  0  0  0  0  0  0  0  0
  152.4243  141.0352  158.3630 C   0  0  0  0  0  0  0  0  0  0  0  0
  151.9533  140.6155  157.1042 C   0  0  0  0  0  0  0  0  0  0  0  0
  152.0947  139.4437  156.3671 N   0  0  0  0  0  0  0  0  0  0  0  0
  152.8335  138.2556  156.7722 C   0  0  0  0  0  0  0  0  0  0  0  0
  154.2593  138.2133  156.1840 C   0  0  1  0  0  0  0  0  0  0  0  0
  154.6085  136.9125  155.7546 O   0  0  0  0  0  0  0  0  0  0  0  0
  154.4740  139.2008  155.0255 C   0  0  0  0  0  0  0  0  0  0  0  0
  155.6713  138.8834  154.3338 O   0  0  0  0  0  0  0  0  0  0  0  0
  155.7848  139.5457  153.0852 C   0  0  0  0  0  0  0  0  0  0  0  0
  156.8731  138.9422  152.2173 C   0  0  0  0  0  0  0  0  0  0  0  0
  156.5559  138.3643  150.9689 C   0  0  0  0  0  0  0  0  0  0  0  0
  157.5731  137.8192  150.1614 C   0  0  0  0  0  0  0  0  0  0  0  0
  158.9126  137.8552  150.5951 C   0  0  0  0  0  0  0  0  0  0  0  0
  160.1587  137.1867  149.6064 Cl  0  0  0  0  0  0  0  0  0  0  0  0
  159.2346  138.4400  151.8352 C   0  0  0  0  0  0  0  0  0  0  0  0
  158.2175  138.9855  152.6428 C   0  0  0  0  0  0  0  0  0  0  0  0
  149.8900  138.7547  152.8527 H   0  0  0  0  0  0  0  0  0  0  0  0
  151.7137  137.6561  154.5555 H   0  0  0  0  0  0  0  0  0  0  0  0
  151.9150  138.8671  153.2988 H   0  0  0  0  0  0  0  0  0  0  0  0
  150.2160  143.4107  156.1801 H   0  0  0  0  0  0  0  0  0  0  0  0
  151.0431  144.1614  158.3996 H   0  0  0  0  0  0  0  0  0  0  0  0
  152.4477  142.6552  159.7922 H   0  0  0  0  0  0  0  0  0  0  0  0
  153.0364  140.3799  158.9649 H   0  0  0  0  0  0  0  0  0  0  0  0
  152.8689  138.2320  157.8622 H   0  0  0  0  0  0  0  0  0  0  0  0
  152.2727  137.3701  156.4720 H   0  0  0  0  0  0  0  0  0  0  0  0
  154.9711  138.4678  156.9695 H   0  0  0  0  0  0  0  0  0  0  0  0
  154.3032  136.2919  156.3990 H   0  0  0  0  0  0  0  0  0  0  0  0
  153.6351  139.1248  154.3319 H   0  0  0  0  0  0  0  0  0  0  0  0
  154.4962  140.2288  155.3914 H   0  0  0  0  0  0  0  0  0  0  0  0
  154.8400  139.4847  152.5433 H   0  0  0  0  0  0  0  0  0  0  0  0
  156.0000  140.6027  153.2505 H   0  0  0  0  0  0  0  0  0  0  0  0
  155.5322  138.3362  150.6248 H   0  0  0  0  0  0  0  0  0  0  0  0
  157.3242  137.3756  149.2086 H   0  0  0  0  0  0  0  0  0  0  0  0
  160.2615  138.4726  152.1682 H   0  0  0  0  0  0  0  0  0  0  0  0
  158.4731  139.4358  153.5908 H   0  0  0  0  0  0  0  0  0  0  0  0
  1  2  1  0  0  0  0
  1 25  1  0  0  0  0
  2  3  1  0  0  0  0
  2 26  1  0  0  0  0
  2 27  1  0  0  0  0
  3 11  1  0  0  0  0
  3  4  2  0  0  0  0
  4  5  1  0  0  0  0
  5 10  2  0  0  0  0
  5  6  1  0  0  0  0
  6  7  2  0  0  0  0
  6 28  1  0  0  0  0
  7  8  1  0  0  0  0
  7 29  1  0  0  0  0
  8  9  2  0  0  0  0
  8 30  1  0  0  0  0
  9 10  1  0  0  0  0
  9 31  1  0  0  0  0
 10 11  1  0  0  0  0
 11 12  1  0  0  0  0
 12 13  1  0  0  0  0
 12 32  1  0  0  0  0
 12 33  1  0  0  0  0
 13 14  1  0  0  0  0
 13 15  1  0  0  0  0
 13 34  1  0  0  0  0
 14 35  1  0  0  0  0
 15 16  1  0  0  0  0
 15 36  1  0  0  0  0
 15 37  1  0  0  0  0
 16 17  1  0  0  0  0
 17 18  1  0  0  0  0
 17 38  1  0  0  0  0
 17 39  1  0  0  0  0
 18 24  1  0  0  0  0
 18 19  2  0  0  0  0
 19 20  1  0  0  0  0
 19 40  1  0  0  0  0
 20 21  2  0  0  0  0
 20 41  1  0  0  0  0
 21 22  1  0  0  0  0
 21 23  1  0  0  0  0
 23 24  2  0  0  0  0
 23 42  1  0  0  0  0
 24 43  1  0  0  0  0
M  END
> <s_m_source_file>
AV-unprocessed.smi

> <i_m_source_file_index>
322

> <i_lp_mmshare_version>
43012

> <i_f3d_flags>
0

> <s_epik_input>
W2NIXTFbY0hdW2NIXVtjSF1jKGMxMiluKGMobjIpW0NIMl1bT0hdKVtDSDJdW0NASF0oW09IXSlbQ0gyXU9bQ0gyXWMzW2NIXVtjSF1jKENsKVtjSF1bY0hdMw==

> <s_epik_cmdline>
J2VwaWtfcHl0aG9uJywgJy1waCcsICc3LjAnLCAnLXRuJywgJzgnLCAnLW1hJywgJzIwMCcsICctbWV0YWxfYmluZGluZycsICctaW1hZScsICc8aW5maWxlLm1hZT4nLCAnLW9tYWUnLCAnPG91dGZpbGUubWFlPic=

> <r_epik_Ionization_Penalty>
0.0649918

> <r_epik_Ionization_Penalty_Charging>
0

> <r_epik_Ionization_Penalty_Neutral>
0.0649918

> <r_epik_State_Penalty>
0.0565791

> <r_epik_Charging_Adjusted_Penalty>
0.0565791

> <i_epik_Tot_Q>
0

> <i_epik_Tot_abs_Q>
0

> <r_epik_Metal_State_Penalty>
5.93658e-05

> <b_epik_Metal_Only>
0

> <s_lp_Force_Field>
OPLS_2005

> <r_lp_Energy>
15.9671

> <b_lp_Chiralities_Consistent>
1

> <s_lp_Variant>
AV-unprocessed.smi:322-2

> <Gold.Version>
5.8.1

> <Gold.Id.Protein>
6NUR|6NUR_protein|mol2

> <Gold.PLP.Fitness>
51.2092

> <Gold.PLP.PLP>
-45.5013

> <Gold.PLP.part.hbond>
-5.5428

> <Gold.PLP.part.metal>
0.0000

> <Gold.PLP.part.buried>
2.1995

> <Gold.PLP.part.nonpolar>
-42.7137

> <Gold.PLP.part.repulsive>
0.0826

> <Gold.PLP.ligand.clash>
0.0000

> <Gold.PLP.ligand.torsion>
1.2962

> <Gold.PLP.Chemscore.Hbond>
2.7244

> <Gold.PLP.Chemscore.CHOScore>
0.0000

> <Gold.PLP.Chemscore.Metal>
0.0000

> <Gold.Chemscore.Hbonds>
donor molecule, donor type, donor heavy atom, donor atom, acceptor molecule, acceptor atom, score
      L1  H     1    25       P1  7957  0.76
      P1  H  7989  7998       L1     4  0.16

> <Gold.PLP.Chemscore.Internal.Correction>
0.1272

> <Gold.Rescore>
     Score         DG    S(hbond)    S(metal)    S(lipo)     H(rot)  DE(clash)    DE(int)     intcor
     18.35     -21.31       1.64        0.00     157.14       3.13       1.71       1.25       ----

> <Gold.Chemscore.Fitness>
18.3487

> <Gold.Chemscore.DG>
-21.3070

> <Gold.Chemscore.ZeroCoef>
-5.4800

> <Gold.Chemscore.Hbond>
1.6357

> <Gold.Chemscore.Metal>
0.0000

> <Gold.Chemscore.Lipo>
157.1447

> <Gold.Chemscore.Internal_Hbond>
0.0000

> <Gold.Chemscore.DEClash>
1.7102

> <Gold.Chemscore.DEInternal>
1.2481

> <Gold.Chemscore.Rot>
3.1337

> <Gold.Chemscore.Internal.Correction>
   9.000000E+99

> <Gold.Chemscore.Hbonds>
donor molecule, donor type, donor heavy atom, donor atom, acceptor molecule, acceptor atom, score
      L1  H     1    25       P1  7957  0.52

> <Gold.Chemscore.Hbond.Weighted>
-5.4634

> <Gold.Chemscore.Metal.Weighted>
-0.0000

> <Gold.Chemscore.Lipo.Weighted>
-18.3859

> <Gold.Chemscore.Internal_Hbond.Weighted>
0.0000

> <Gold.Chemscore.DEClash.Weighted>
1.7102

> <Gold.Chemscore.DEInternal.Weighted>
1.2481

> <Gold.Chemscore.Rot.Weighted>
8.0224

> <Gold.Chemscore.Internal.Correction.Weighted>
   9.000000E+99

> <Gold.Protein.RotatedTorsions>
[ 6907 6896 6895 6894 ] final -130.46 input  -60.11 | X-H torsion
[ 7974 7965 7964 7962 ] final    6.33 input  175.53 | X-H torsion
[ 8008 7997 7996 7995 ] final  -21.48 input   59.86 | X-H torsion
[ 10167 10162 10161 10158 ] final  -90.97 input  -65.29 | X-H torsion
[ 10718 10713 10712 10709 ] final  -46.16 input   66.30 | X-H torsion
[ 10763 10752 10751 10750 ] final  103.95 input  -60.55 | X-H torsion
[ 11005 11000 10999 10996 ] final  119.00 input  -57.11 | X-H torsion

> <Gold.Protein.ActiveResidues>
 VAL166  LYS551  ARG553  GLY616  TRP617  ASP618  TYR619  PRO620  LYS621  CYS622 
 ASP623  PHE694  ASN695  SER759  ASP760  ASP761  ALA762  ILE779  LEU786  VAL792 
 PHE793  MET794  SER795  GLU796  ALA797  LYS798  CYS799  TRP800  GLU811  SER814 

> <Gold.Protein.RotatedAtoms>
  150.9400  133.6667  159.2792 H   0  0  0  0  0  0  0  0  0  0  0  0  # atno 6907 bound_to 6896
  151.4060  135.0977  159.9580 H   0  0  0  0  0  0  0  0  0  0  0  0  # atno 6908 bound_to 6896
  152.5065  133.8884  159.7436 H   0  0  0  0  0  0  0  0  0  0  0  0  # atno 6909 bound_to 6896
  146.2435  140.0249  142.8394 H   0  0  0  0  0  0  0  0  0  0  0  0  # atno 7974 bound_to 7965
  154.4703  140.2033  156.0012 H   0  0  0  0  0  0  0  0  0  0  0  0  # atno 8008 bound_to 7997
  156.0999  140.3245  155.7898 H   0  0  0  0  0  0  0  0  0  0  0  0  # atno 8009 bound_to 7997
  155.4815  140.0539  157.2957 H   0  0  0  0  0  0  0  0  0  0  0  0  # atno 8010 bound_to 7997
  140.3496  143.2898  151.9741 H   0  0  0  0  0  0  0  0  0  0  0  0  # atno 10167 bound_to 10162
  156.2210  130.4166  149.8993 H   0  0  0  0  0  0  0  0  0  0  0  0  # atno 10718 bound_to 10713
  153.3594  135.3959  155.1707 H   0  0  0  0  0  0  0  0  0  0  0  0  # atno 10763 bound_to 10752
  154.8676  135.3676  154.5119 H   0  0  0  0  0  0  0  0  0  0  0  0  # atno 10764 bound_to 10752
  153.5577  135.7081  153.5622 H   0  0  0  0  0  0  0  0  0  0  0  0  # atno 10765 bound_to 10752
  139.9130  134.9625  156.7588 H   0  0  0  0  0  0  0  0  0  0  0  0  # atno 11005 bound_to 11000
  145.1207  140.9461  143.4602 LP  0  0  0  0  0  0  0  0  0  0  0  0  # atno 17320 bound_to 7965
  145.0484  139.3202  143.5941 LP  0  0  0  0  0  0  0  0  0  0  0  0  # atno 17321 bound_to 7965
  139.4828  144.6087  151.7473 LP  0  0  0  0  0  0  0  0  0  0  0  0  # atno 17342 bound_to 10162
  140.5232  144.0847  150.6029 LP  0  0  0  0  0  0  0  0  0  0  0  0  # atno 17343 bound_to 10162
  156.6639  130.8793  151.3551 LP  0  0  0  0  0  0  0  0  0  0  0  0  # atno 17370 bound_to 10713
  157.7087  130.9415  150.1017 LP  0  0  0  0  0  0  0  0  0  0  0  0  # atno 17371 bound_to 10713
  140.6714  133.9556  155.7858 LP  0  0  0  0  0  0  0  0  0  0  0  0  # atno 17394 bound_to 11000
  141.0575  134.0395  157.3703 LP  0  0  0  0  0  0  0  0  0  0  0  0  # atno 17395 bound_to 11000

$$$$
