AV-unprocessed.smi:2524|AV-procd|sdf|9924|dock5
  -GOLD-   2272013563D 1   1.00000     0.00000
 Structure written by MMmdl.
 35 36  0  0  0  0  0  0  0  0  2 V2000
  150.5467  135.3620  155.0366 C   0  0  0  0  0  0  0  0  0  0  0  0
  150.4456  136.6862  155.2248 C   0  0  0  0  0  0  0  0  0  0  0  0
  151.3911  137.7106  154.6335 C   0  0  0  0  0  0  0  0  0  0  0  0
  152.3488  138.2798  155.6876 C   0  0  0  0  0  0  0  0  0  0  0  0
  151.5843  139.7099  156.5765 S   0  0  0  0  0  0  0  0  0  0  0  0
  151.2854  140.7230  155.5501 O   0  0  0  0  0  0  0  0  0  0  0  0
  150.4313  139.1438  157.2926 O   0  0  0  0  0  0  0  0  0  0  0  0
  152.7607  140.1427  157.6110 N   0  5  0  0  0  0  0  0  0  0  0  0
  152.6818  139.8076  159.0286 C   0  0  0  0  0  0  0  0  0  0  0  0
  153.5588  140.7244  159.9077 C   0  0  0  0  0  0  0  0  0  0  0  0
  152.9276  142.0908  160.0491 C   0  0  0  0  0  0  0  0  0  0  0  0
  152.5455  142.8444  158.9146 C   0  0  0  0  0  0  0  0  0  0  0  0
  151.9748  144.1191  159.0994 C   0  0  0  0  0  0  0  0  0  0  0  0
  151.7755  144.6734  160.3135 N   0  0  0  0  0  0  0  0  0  0  0  0
  152.1470  143.9605  161.3974 C   0  0  0  0  0  0  0  0  0  0  0  0
  152.7253  142.6781  161.3199 C   0  0  0  0  0  0  0  0  0  0  0  0
  154.3438  140.1865  161.0953 C   0  0  0  0  0  0  0  0  0  0  0  0
  155.0785  140.6566  159.8623 C   0  0  0  0  0  0  0  0  0  0  0  0
  151.3365  134.9400  154.4327 H   0  0  0  0  0  0  0  0  0  0  0  0
  149.8383  134.6823  155.4862 H   0  0  0  0  0  0  0  0  0  0  0  0
  149.6423  137.0725  155.8351 H   0  0  0  0  0  0  0  0  0  0  0  0
  151.9598  137.2586  153.8198 H   0  0  0  0  0  0  0  0  0  0  0  0
  150.7980  138.5135  154.1952 H   0  0  0  0  0  0  0  0  0  0  0  0
  152.6036  137.5211  156.4276 H   0  0  0  0  0  0  0  0  0  0  0  0
  153.2741  138.6144  155.2188 H   0  0  0  0  0  0  0  0  0  0  0  0
  151.6586  139.8816  159.3983 H   0  0  0  0  0  0  0  0  0  0  0  0
  152.9859  138.7751  159.2036 H   0  0  0  0  0  0  0  0  0  0  0  0
  152.6840  142.4486  157.9192 H   0  0  0  0  0  0  0  0  0  0  0  0
  151.6717  144.7102  158.2479 H   0  0  0  0  0  0  0  0  0  0  0  0
  151.9798  144.4269  162.3571 H   0  0  0  0  0  0  0  0  0  0  0  0
  153.0056  142.1515  162.2204 H   0  0  0  0  0  0  0  0  0  0  0  0
  154.4169  140.8132  161.9819 H   0  0  0  0  0  0  0  0  0  0  0  0
  154.3690  139.1158  161.2929 H   0  0  0  0  0  0  0  0  0  0  0  0
  155.5733  139.8858  159.2729 H   0  0  0  0  0  0  0  0  0  0  0  0
  155.6315  141.5903  159.9443 H   0  0  0  0  0  0  0  0  0  0  0  0
  1  2  2  0  0  0  0
  1 19  1  0  0  0  0
  1 20  1  0  0  0  0
  2  3  1  0  0  0  0
  2 21  1  0  0  0  0
  3  4  1  0  0  0  0
  3 22  1  0  0  0  0
  3 23  1  0  0  0  0
  4  5  1  0  0  0  0
  4 24  1  0  0  0  0
  4 25  1  0  0  0  0
  5  6  2  0  0  0  0
  5  7  2  0  0  0  0
  5  8  1  0  0  0  0
  8  9  1  0  0  0  0
  9 10  1  0  0  0  0
  9 26  1  0  0  0  0
  9 27  1  0  0  0  0
 10 18  1  0  0  0  0
 10 11  1  0  0  0  0
 10 17  1  0  0  0  0
 11 16  1  0  0  0  0
 11 12  2  0  0  0  0
 12 13  1  0  0  0  0
 12 28  1  0  0  0  0
 13 14  2  0  0  0  0
 13 29  1  0  0  0  0
 14 15  1  0  0  0  0
 15 16  2  0  0  0  0
 15 30  1  0  0  0  0
 16 31  1  0  0  0  0
 17 18  1  0  0  0  0
 17 32  1  0  0  0  0
 17 33  1  0  0  0  0
 18 34  1  0  0  0  0
 18 35  1  0  0  0  0
M  CHG  1   8  -1
M  END
> <s_m_source_file>
AV-unprocessed.smi

> <i_m_source_file_index>
2524

> <i_lp_mmshare_version>
43012

> <i_f3d_flags>
0

> <s_epik_input>
W0NIMl09W0NIXVtDSDJdW0NIMl1TKD1PKSg9TylbTkhdW0NIMl1DMShbQ0gyXVtDSDJdMSljMltjSF1bY0hdbltjSF1bY0hdMg==

> <s_epik_cmdline>
J2VwaWtfcHl0aG9uJywgJy1waCcsICc3LjAnLCAnLXRuJywgJzgnLCAnLW1hJywgJzIwMCcsICctbWV0YWxfYmluZGluZycsICctaW1hZScsICc8aW5maWxlLm1hZT4nLCAnLW9tYWUnLCAnPG91dGZpbGUubWFlPic=

> <r_epik_Ionization_Penalty>
6.82782

> <r_epik_Ionization_Penalty_Charging>
6.77146

> <r_epik_Ionization_Penalty_Neutral>
0.0563627

> <r_epik_State_Penalty>
6.80009

> <r_epik_Charging_Adjusted_Penalty>
13.5715

> <i_epik_Tot_Q>
-1

> <i_epik_Tot_abs_Q>
1

> <r_epik_Metal_State_Penalty>
2.75227

> <b_epik_Metal_Only>
1

> <s_lp_Force_Field>
OPLS_2005

> <r_lp_Energy>
12.2049

> <b_lp_Chiralities_Consistent>
1

> <s_lp_Variant>
AV-unprocessed.smi:2524-3

> <Gold.Version>
5.8.1

> <Gold.Id.Protein>
6NUR|6NUR_protein|mol2

> <Gold.PLP.Fitness>
49.0495

> <Gold.PLP.PLP>
-42.6387

> <Gold.PLP.part.hbond>
-2.0000

> <Gold.PLP.part.metal>
0.0000

> <Gold.PLP.part.buried>
-3.3592

> <Gold.PLP.part.nonpolar>
-36.6683

> <Gold.PLP.part.repulsive>
0.1370

> <Gold.PLP.ligand.clash>
0.0000

> <Gold.PLP.ligand.torsion>
1.9367

> <Gold.PLP.Chemscore.Hbond>
2.6220

> <Gold.PLP.Chemscore.CHOScore>
0.0000

> <Gold.PLP.Chemscore.Metal>
0.0000

> <Gold.Chemscore.Hbonds>
donor molecule, donor type, donor heavy atom, donor atom, acceptor molecule, acceptor atom, score
      P1  H  7989  7998       L1     6  0.69
      P1  H  7997  8009       L1     8  1.98

> <Gold.PLP.Chemscore.Internal.Correction>
2.4183

> <Gold.Rescore>
     Score         DG    S(hbond)    S(metal)    S(lipo)     H(rot)  DE(clash)    DE(int)     intcor
     18.17     -20.32       1.71        0.00     112.68       1.59       0.00       2.15       ----

> <Gold.Chemscore.Fitness>
18.1658

> <Gold.Chemscore.DG>
-20.3160

> <Gold.Chemscore.ZeroCoef>
-5.4800

> <Gold.Chemscore.Hbond>
1.7141

> <Gold.Chemscore.Metal>
0.0000

> <Gold.Chemscore.Lipo>
112.6794

> <Gold.Chemscore.Internal_Hbond>
0.0000

> <Gold.Chemscore.DEClash>
0.0025

> <Gold.Chemscore.DEInternal>
2.1477

> <Gold.Chemscore.Rot>
1.5908

> <Gold.Chemscore.Internal.Correction>
   9.000000E+99

> <Gold.Chemscore.Hbonds>
donor molecule, donor type, donor heavy atom, donor atom, acceptor molecule, acceptor atom, score
      P1  H  7989  7998       L1     6  0.65
      P1  H  7997  8009       L1     8  0.75

> <Gold.Chemscore.Hbond.Weighted>
-5.7249

> <Gold.Chemscore.Metal.Weighted>
-0.0000

> <Gold.Chemscore.Lipo.Weighted>
-13.1835

> <Gold.Chemscore.Internal_Hbond.Weighted>
0.0000

> <Gold.Chemscore.DEClash.Weighted>
0.0025

> <Gold.Chemscore.DEInternal.Weighted>
2.1477

> <Gold.Chemscore.Rot.Weighted>
4.0724

> <Gold.Chemscore.Internal.Correction.Weighted>
   9.000000E+99

> <Gold.Protein.RotatedTorsions>
[ 6907 6896 6895 6894 ] final  -35.76 input  -60.11 | X-H torsion
[ 7974 7965 7964 7962 ] final  -91.32 input  175.53 | X-H torsion
[ 8008 7997 7996 7995 ] final  162.50 input   59.86 | X-H torsion
[ 10167 10162 10161 10158 ] final  119.28 input  -65.29 | X-H torsion
[ 10718 10713 10712 10709 ] final  144.94 input   66.30 | X-H torsion
[ 10763 10752 10751 10750 ] final  -74.08 input  -60.55 | X-H torsion
[ 11005 11000 10999 10996 ] final  -33.10 input  -57.11 | X-H torsion

> <Gold.Protein.ActiveResidues>
 VAL166  LYS551  ARG553  GLY616  TRP617  ASP618  TYR619  PRO620  LYS621  CYS622 
 ASP623  PHE694  ASN695  SER759  ASP760  ASP761  ALA762  ILE779  LEU786  VAL792 
 PHE793  MET794  SER795  GLU796  ALA797  LYS798  CYS799  TRP800  GLU811  SER814 

> <Gold.Protein.RotatedAtoms>
  151.0357  134.9571  159.8134 H   0  0  0  0  0  0  0  0  0  0  0  0  # atno 6907 bound_to 6896
  152.5354  134.2723  159.8986 H   0  0  0  0  0  0  0  0  0  0  0  0  # atno 6908 bound_to 6896
  151.2734  133.4202  159.2656 H   0  0  0  0  0  0  0  0  0  0  0  0  # atno 6909 bound_to 6896
  145.4146  140.9547  143.2215 H   0  0  0  0  0  0  0  0  0  0  0  0  # atno 7974 bound_to 7965
  156.2026  140.1748  156.7866 H   0  0  0  0  0  0  0  0  0  0  0  0  # atno 8008 bound_to 7997
  154.5612  140.0699  156.8853 H   0  0  0  0  0  0  0  0  0  0  0  0  # atno 8009 bound_to 7997
  155.2844  140.3351  155.4258 H   0  0  0  0  0  0  0  0  0  0  0  0  # atno 8010 bound_to 7997
  139.6056  144.7069  151.2960 H   0  0  0  0  0  0  0  0  0  0  0  0  # atno 10167 bound_to 10162
  157.3512  131.0951  151.0998 H   0  0  0  0  0  0  0  0  0  0  0  0  # atno 10718 bound_to 10713
  154.4682  135.5876  153.6303 H   0  0  0  0  0  0  0  0  0  0  0  0  # atno 10763 bound_to 10752
  152.9831  135.6060  154.3400 H   0  0  0  0  0  0  0  0  0  0  0  0  # atno 10764 bound_to 10752
  154.3279  135.2843  155.2466 H   0  0  0  0  0  0  0  0  0  0  0  0  # atno 10765 bound_to 10752
  140.9607  133.7166  156.1365 H   0  0  0  0  0  0  0  0  0  0  0  0  # atno 11005 bound_to 11000
  144.8286  139.5668  143.6954 LP  0  0  0  0  0  0  0  0  0  0  0  0  # atno 17320 bound_to 7965
  146.2687  139.6583  142.9311 LP  0  0  0  0  0  0  0  0  0  0  0  0  # atno 17321 bound_to 7965
  140.7282  143.6941  150.7898 LP  0  0  0  0  0  0  0  0  0  0  0  0  # atno 17342 bound_to 10162
  140.0526  143.5235  152.2666 LP  0  0  0  0  0  0  0  0  0  0  0  0  # atno 17343 bound_to 10162
  157.2173  130.6465  149.5797 LP  0  0  0  0  0  0  0  0  0  0  0  0  # atno 17370 bound_to 10713
  155.9722  130.4640  150.6204 LP  0  0  0  0  0  0  0  0  0  0  0  0  # atno 17371 bound_to 10713
  140.7471  134.4085  157.5547 LP  0  0  0  0  0  0  0  0  0  0  0  0  # atno 17394 bound_to 11000
  139.8877  134.8875  156.2514 LP  0  0  0  0  0  0  0  0  0  0  0  0  # atno 17395 bound_to 11000

$$$$
