AV-unprocessed.smi:155|AV-procd|sdf|1276|dock3
  -GOLD-   2262018543D 1   1.00000     0.00000
 Structure written by MMmdl.
 63 66  0  0  0  0  0  0  0  0  2 V2000
  146.1794  132.3472  151.1769 C   0  0  0  0  0  0  0  0  0  0  0  0
  146.5968  131.3522  152.1922 N   0  3  0  0  0  0  0  0  0  0  0  0
  145.7139  130.1649  152.1803 C   0  0  0  0  0  0  0  0  0  0  0  0
  146.7429  131.9300  153.5516 C   0  0  0  0  0  0  0  0  0  0  0  0
  148.2021  132.3229  153.8647 C   0  0  0  0  0  0  0  0  0  0  0  0
  148.2849  133.3409  154.9129 N   0  0  0  0  0  0  0  0  0  0  0  0
  149.0722  132.8958  156.0729 C   0  0  0  0  0  0  0  0  0  0  0  0
  150.5931  133.1291  155.9570 C   0  0  0  0  0  0  0  0  0  0  0  0
  151.0221  134.5111  156.4862 C   0  0  0  0  0  0  0  0  0  0  0  0
  150.5384  135.6192  155.6614 N   0  0  0  0  0  0  0  0  0  0  0  0
  151.1863  136.8090  155.7449 C   0  0  0  0  0  0  0  0  0  0  0  0
  152.3899  136.9648  155.1314 N   0  0  0  0  0  0  0  0  0  0  0  0
  153.0418  138.1288  155.2087 C   0  0  0  0  0  0  0  0  0  0  0  0
  152.6771  139.2501  155.8334 N   0  0  0  0  0  0  0  0  0  0  0  0
  151.4665  139.1033  156.4436 C   0  0  0  0  0  0  0  0  0  0  0  0
  150.6609  137.9295  156.4492 C   0  0  0  0  0  0  0  0  0  0  0  0
  149.4892  138.1638  157.1603 N   0  0  0  0  0  0  0  0  0  0  0  0
  149.5992  139.4019  157.5576 C   0  0  0  0  0  0  0  0  0  0  0  0
  150.7514  140.0432  157.1644 N   0  0  0  0  0  0  0  0  0  0  0  0
  151.1169  141.4181  157.4517 C   0  0  0  0  0  0  0  0  0  0  0  0
  151.6878  141.6027  158.8735 C   0  0  1  0  0  0  0  0  0  0  0  0
  152.1438  140.3343  159.2983 O   0  0  0  0  0  0  0  0  0  0  0  0
  152.8598  142.6151  158.9701 C   0  0  2  0  0  0  0  0  0  0  0  0
  153.2837  142.9577  160.4011 C   0  0  0  0  0  0  0  0  0  0  0  0
  152.2937  144.0281  160.8234 C   0  0  0  0  0  0  0  0  0  0  0  0
  151.8294  144.6373  159.4988 C   0  0  0  0  0  0  0  0  0  0  0  0
  152.4900  143.8975  158.4777 O   0  0  0  0  0  0  0  0  0  0  0  0
  149.1121  135.6789  155.3455 C   0  0  0  0  0  0  0  0  0  0  0  0
  148.7439  134.5988  154.3152 C   0  0  0  0  0  0  0  0  0  0  0  0
  145.1898  132.7456  151.4044 H   0  0  0  0  0  0  0  0  0  0  0  0
  146.1403  131.8901  150.1877 H   0  0  0  0  0  0  0  0  0  0  0  0
  146.8759  133.1829  151.1203 H   0  0  0  0  0  0  0  0  0  0  0  0
  144.7016  130.4272  152.4908 H   0  0  0  0  0  0  0  0  0  0  0  0
  146.0908  129.3944  152.8536 H   0  0  0  0  0  0  0  0  0  0  0  0
  145.6637  129.7309  151.1811 H   0  0  0  0  0  0  0  0  0  0  0  0
  146.0770  132.7898  153.6460 H   0  0  0  0  0  0  0  0  0  0  0  0
  146.4093  131.1997  154.2892 H   0  0  0  0  0  0  0  0  0  0  0  0
  148.7964  131.4460  154.1249 H   0  0  0  0  0  0  0  0  0  0  0  0
  148.6532  132.7395  152.9643 H   0  0  0  0  0  0  0  0  0  0  0  0
  148.7007  133.4131  156.9579 H   0  0  0  0  0  0  0  0  0  0  0  0
  148.8824  131.8427  156.2720 H   0  0  0  0  0  0  0  0  0  0  0  0
  151.0927  132.3793  156.5709 H   0  0  0  0  0  0  0  0  0  0  0  0
  150.9544  132.9623  154.9417 H   0  0  0  0  0  0  0  0  0  0  0  0
  150.6739  134.6460  157.5112 H   0  0  0  0  0  0  0  0  0  0  0  0
  152.1123  134.5402  156.5189 H   0  0  0  0  0  0  0  0  0  0  0  0
  153.9914  138.1671  154.6957 H   0  0  0  0  0  0  0  0  0  0  0  0
  148.8327  139.8891  158.1425 H   0  0  0  0  0  0  0  0  0  0  0  0
  151.8538  141.7257  156.7084 H   0  0  0  0  0  0  0  0  0  0  0  0
  150.2440  142.0553  157.3045 H   0  0  0  0  0  0  0  0  0  0  0  0
  150.8817  141.8971  159.5464 H   0  0  0  0  0  0  0  0  0  0  0  0
  151.4012  139.7525  159.3535 H   0  0  0  0  0  0  0  0  0  0  0  0
  153.7097  142.2413  158.3977 H   0  0  0  0  0  0  0  0  0  0  0  0
  153.2998  142.1024  161.0769 H   0  0  0  0  0  0  0  0  0  0  0  0
  154.2884  143.3822  160.3856 H   0  0  0  0  0  0  0  0  0  0  0  0
  151.4481  143.5805  161.3467 H   0  0  0  0  0  0  0  0  0  0  0  0
  152.7471  144.7654  161.4862 H   0  0  0  0  0  0  0  0  0  0  0  0
  150.7491  144.5410  159.3842 H   0  0  0  0  0  0  0  0  0  0  0  0
  152.0850  145.6940  159.4190 H   0  0  0  0  0  0  0  0  0  0  0  0
  148.5185  135.5838  156.2554 H   0  0  0  0  0  0  0  0  0  0  0  0
  148.8515  136.6539  154.9345 H   0  0  0  0  0  0  0  0  0  0  0  0
  149.5847  134.4288  153.6402 H   0  0  0  0  0  0  0  0  0  0  0  0
  147.9305  134.9739  153.6929 H   0  0  0  0  0  0  0  0  0  0  0  0
  147.5120  131.0209  151.9214 H   0  0  0  0  0  0  0  0  0  0  0  0
  1  2  1  0  0  0  0
  1 30  1  0  0  0  0
  1 31  1  0  0  0  0
  1 32  1  0  0  0  0
  2  3  1  0  0  0  0
  2  4  1  0  0  0  0
  2 63  1  0  0  0  0
  3 33  1  0  0  0  0
  3 34  1  0  0  0  0
  3 35  1  0  0  0  0
  4  5  1  0  0  0  0
  4 36  1  0  0  0  0
  4 37  1  0  0  0  0
  5  6  1  0  0  0  0
  5 38  1  0  0  0  0
  5 39  1  0  0  0  0
  6 29  1  0  0  0  0
  6  7  1  0  0  0  0
  7  8  1  0  0  0  0
  7 40  1  0  0  0  0
  7 41  1  0  0  0  0
  8  9  1  0  0  0  0
  8 42  1  0  0  0  0
  8 43  1  0  0  0  0
  9 10  1  0  0  0  0
  9 44  1  0  0  0  0
  9 45  1  0  0  0  0
 10 11  1  0  0  0  0
 10 28  1  0  0  0  0
 11 16  1  0  0  0  0
 11 12  2  0  0  0  0
 12 13  1  0  0  0  0
 13 14  2  0  0  0  0
 13 46  1  0  0  0  0
 14 15  1  0  0  0  0
 15 19  1  0  0  0  0
 15 16  2  0  0  0  0
 16 17  1  0  0  0  0
 17 18  2  0  0  0  0
 18 19  1  0  0  0  0
 18 47  1  0  0  0  0
 19 20  1  0  0  0  0
 20 21  1  0  0  0  0
 20 48  1  0  0  0  0
 20 49  1  0  0  0  0
 21 22  1  0  0  0  0
 21 23  1  0  0  0  0
 21 50  1  0  0  0  0
 22 51  1  0  0  0  0
 23 27  1  0  0  0  0
 23 24  1  0  0  0  0
 23 52  1  0  0  0  0
 24 25  1  0  0  0  0
 24 53  1  0  0  0  0
 24 54  1  0  0  0  0
 25 26  1  0  0  0  0
 25 55  1  0  0  0  0
 25 56  1  0  0  0  0
 26 27  1  0  0  0  0
 26 57  1  0  0  0  0
 26 58  1  0  0  0  0
 28 29  1  0  0  0  0
 28 59  1  0  0  0  0
 28 60  1  0  0  0  0
 29 61  1  0  0  0  0
 29 62  1  0  0  0  0
M  CHG  1   2   1
M  END
> <s_m_source_file>
AV-unprocessed.smi

> <i_m_source_file_index>
155

> <i_lp_mmshare_version>
43012

> <i_f3d_flags>
0

> <s_epik_input>
W0NIM11OKFtDSDNdKVtDSDJdW0NIMl1OMVtDSDJdW0NIMl1bQ0gyXU4oW0NIMl1bQ0gyXTEpYyhuW2NIXW4yKWMoYzIzKW5bY0hdbjNbQ0gyXVtDQEhdKFtPSF0pW0NAQEhdNFtDSDJdW0NIMl1bQ0gyXU80

> <s_epik_cmdline>
J2VwaWtfcHl0aG9uJywgJy1waCcsICc3LjAnLCAnLXRuJywgJzgnLCAnLW1hJywgJzIwMCcsICctbWV0YWxfYmluZGluZycsICctaW1hZScsICc8aW5maWxlLm1hZT4nLCAnLW9tYWUnLCAnPG91dGZpbGUubWFlPic=

> <r_lp_tautomer_probability>
1

> <r_epik_Ionization_Penalty>
0.0599493

> <r_epik_Ionization_Penalty_Charging>
0.00816363

> <r_epik_Ionization_Penalty_Neutral>
0.0517857

> <r_epik_State_Penalty>
0.460607

> <r_epik_Charging_Adjusted_Penalty>
0.468771

> <i_epik_Tot_Q>
1

> <i_epik_Tot_abs_Q>
1

> <r_epik_Metal_State_Penalty>
0.45965

> <b_epik_Metal_Only>
0

> <s_lp_Force_Field>
OPLS_2005

> <r_lp_Energy>
58.8836

> <b_lp_Chiralities_Consistent>
1

> <s_lp_Variant>
AV-unprocessed.smi:155-10

> <Gold.Version>
5.8.1

> <Gold.Id.Protein>
6NUR|6NUR_protein|mol2

> <Gold.PLP.Fitness>
49.3095

> <Gold.PLP.PLP>
-47.4087

> <Gold.PLP.part.hbond>
-3.0000

> <Gold.PLP.part.metal>
0.0000

> <Gold.PLP.part.buried>
-5.9800

> <Gold.PLP.part.nonpolar>
-38.3709

> <Gold.PLP.part.repulsive>
0.1439

> <Gold.PLP.ligand.clash>
0.0000

> <Gold.PLP.ligand.torsion>
3.3463

> <Gold.PLP.Chemscore.Hbond>
2.7360

> <Gold.PLP.Chemscore.CHOScore>
0.0000

> <Gold.PLP.Chemscore.Metal>
0.0000

> <Gold.Chemscore.Hbonds>
donor molecule, donor type, donor heavy atom, donor atom, acceptor molecule, acceptor atom, score
      L1  H     2    63       P1 10747  0.53
      P1  H  7997  8009       L1    14  1.00
      P1  H 10752 10765       L1    12  0.77

> <Gold.PLP.Chemscore.Internal.Correction>
0.3853

> <Gold.Rescore>
     Score         DG    S(hbond)    S(metal)    S(lipo)     H(rot)  DE(clash)    DE(int)     intcor
     13.58     -19.19       2.16        0.00     114.80       2.71       1.64       3.97       ----

> <Gold.Chemscore.Fitness>
13.5825

> <Gold.Chemscore.DG>
-19.1891

> <Gold.Chemscore.ZeroCoef>
-5.4800

> <Gold.Chemscore.Hbond>
2.1587

> <Gold.Chemscore.Metal>
0.0000

> <Gold.Chemscore.Lipo>
114.7988

> <Gold.Chemscore.Internal_Hbond>
0.0000

> <Gold.Chemscore.DEClash>
1.6394

> <Gold.Chemscore.DEInternal>
3.9672

> <Gold.Chemscore.Rot>
2.7080

> <Gold.Chemscore.Internal.Correction>
   9.000000E+99

> <Gold.Chemscore.Hbonds>
donor molecule, donor type, donor heavy atom, donor atom, acceptor molecule, acceptor atom, score
      L1  H     2    63       P1 10747  0.50
      P1  H  7997  8009       L1    14  0.54
      P1  H 10752 10765       L1    12  0.62

> <Gold.Chemscore.Hbond.Weighted>
-7.2102

> <Gold.Chemscore.Metal.Weighted>
-0.0000

> <Gold.Chemscore.Lipo.Weighted>
-13.4315

> <Gold.Chemscore.Internal_Hbond.Weighted>
0.0000

> <Gold.Chemscore.DEClash.Weighted>
1.6394

> <Gold.Chemscore.DEInternal.Weighted>
3.9672

> <Gold.Chemscore.Rot.Weighted>
6.9326

> <Gold.Chemscore.Internal.Correction.Weighted>
   9.000000E+99

> <Gold.Protein.RotatedTorsions>
[ 6907 6896 6895 6894 ] final   90.71 input  -60.11 | X-H torsion
[ 7974 7965 7964 7962 ] final  -58.98 input  175.53 | X-H torsion
[ 8008 7997 7996 7995 ] final -168.35 input   59.86 | X-H torsion
[ 10167 10162 10161 10158 ] final   23.10 input  -65.29 | X-H torsion
[ 10718 10713 10712 10709 ] final  139.31 input   66.30 | X-H torsion
[ 10763 10752 10751 10750 ] final  177.10 input  -60.55 | X-H torsion
[ 11005 11000 10999 10996 ] final   53.00 input  -57.11 | X-H torsion

> <Gold.Protein.ActiveResidues>
 VAL166  LYS551  ARG553  GLY616  TRP617  ASP618  TYR619  PRO620  LYS621  CYS622 
 ASP623  PHE694  ASN695  SER759  ASP760  ASP761  ALA762  ILE779  LEU786  VAL792 
 PHE793  MET794  SER795  GLU796  ALA797  LYS798  CYS799  TRP800  GLU811  SER814 

> <Gold.Protein.RotatedAtoms>
  152.5446  134.1769  159.8619 H   0  0  0  0  0  0  0  0  0  0  0  0  # atno 6907 bound_to 6896
  151.1774  133.4739  159.2601 H   0  0  0  0  0  0  0  0  0  0  0  0  # atno 6908 bound_to 6896
  151.1213  135.0092  159.8595 H   0  0  0  0  0  0  0  0  0  0  0  0  # atno 6909 bound_to 6896
  145.8329  140.8468  143.0074 H   0  0  0  0  0  0  0  0  0  0  0  0  # atno 7974 bound_to 7965
  155.8903  140.1023  157.1423 H   0  0  0  0  0  0  0  0  0  0  0  0  # atno 8008 bound_to 7997
  154.4014  140.1312  156.4371 H   0  0  0  0  0  0  0  0  0  0  0  0  # atno 8009 bound_to 7997
  155.7542  140.3464  155.5168 H   0  0  0  0  0  0  0  0  0  0  0  0  # atno 8010 bound_to 7997
  140.5296  143.9865  150.6458 H   0  0  0  0  0  0  0  0  0  0  0  0  # atno 10167 bound_to 10162
  157.4158  131.1033  151.0406 H   0  0  0  0  0  0  0  0  0  0  0  0  # atno 10718 bound_to 10713
  154.4899  135.2778  155.1505 H   0  0  0  0  0  0  0  0  0  0  0  0  # atno 10763 bound_to 10752
  154.3180  135.6215  153.5499 H   0  0  0  0  0  0  0  0  0  0  0  0  # atno 10764 bound_to 10752
  152.9886  135.5736  154.5318 H   0  0  0  0  0  0  0  0  0  0  0  0  # atno 10765 bound_to 10752
  140.0803  134.5348  155.8954 H   0  0  0  0  0  0  0  0  0  0  0  0  # atno 11005 bound_to 11000
  144.6738  140.0698  143.7473 LP  0  0  0  0  0  0  0  0  0  0  0  0  # atno 17320 bound_to 7965
  145.9551  139.2761  143.1189 LP  0  0  0  0  0  0  0  0  0  0  0  0  # atno 17321 bound_to 7965
  140.3236  143.3121  152.0759 LP  0  0  0  0  0  0  0  0  0  0  0  0  # atno 17342 bound_to 10162
  139.4949  144.6557  151.6578 LP  0  0  0  0  0  0  0  0  0  0  0  0  # atno 17343 bound_to 10162
  157.1354  130.6120  149.5541 LP  0  0  0  0  0  0  0  0  0  0  0  0  # atno 17370 bound_to 10713
  155.9864  130.4899  150.7080 LP  0  0  0  0  0  0  0  0  0  0  0  0  # atno 17371 bound_to 10713
  141.2044  133.6639  156.6120 LP  0  0  0  0  0  0  0  0  0  0  0  0  # atno 17394 bound_to 11000
  140.3498  134.7778  157.4458 LP  0  0  0  0  0  0  0  0  0  0  0  0  # atno 17395 bound_to 11000

$$$$
