AV-unprocessed.smi:3181|AV-procd|sdf|12140|dock1
  -GOLD-   2272017583D 1   1.00000     0.00000
 Structure written by MMmdl.
 42 43  0  0  0  0  0  0  0  0  2 V2000
  148.0871  141.4496  157.3499 C   0  0  0  0  0  0  0  0  0  0  0  0
  149.6116  141.5527  157.1789 C   0  0  1  0  0  0  0  0  0  0  0  0
  150.0618  141.3675  155.7138 C   0  0  0  0  0  0  0  0  0  0  0  0
  150.3044  139.9784  155.3724 N   0  0  0  0  0  0  0  0  0  0  0  0
  150.3469  138.8912  156.1444 C   0  0  0  0  0  0  0  0  0  0  0  0
  150.5962  137.7724  155.4791 N   0  0  0  0  0  0  0  0  0  0  0  0
  150.7100  138.2783  154.2150 C   0  0  0  0  0  0  0  0  0  0  0  0
  150.5441  139.5960  154.0965 N   0  0  0  0  0  0  0  0  0  0  0  0
  150.0766  142.8622  157.6902 N   0  3  0  0  0  0  0  0  0  0  0  0
  151.5310  143.1321  157.5801 C   0  0  2  0  0  0  0  0  0  0  0  0
  152.3385  142.0184  158.2672 C   0  0  0  0  0  0  0  0  0  0  0  0
  152.2095  142.0731  159.7979 C   0  0  0  0  0  0  0  0  0  0  0  0
  152.6077  143.4492  160.3697 C   0  0  2  0  0  0  0  0  0  0  0  0
  152.4626  143.4395  161.9019 C   0  0  0  0  0  0  0  0  0  0  0  0
  151.7909  144.5811  159.6927 C   0  0  1  0  0  0  0  0  0  0  0  0
  152.1892  145.9844  160.1833 C   0  0  0  0  0  0  0  0  0  0  0  0
  151.9284  144.5070  158.1564 C   0  0  0  0  0  0  0  0  0  0  0  0
  147.7160  140.4668  157.0583 H   0  0  0  0  0  0  0  0  0  0  0  0
  147.5676  142.1938  156.7454 H   0  0  0  0  0  0  0  0  0  0  0  0
  147.7987  141.6049  158.3901 H   0  0  0  0  0  0  0  0  0  0  0  0
  150.0549  140.7568  157.7795 H   0  0  0  0  0  0  0  0  0  0  0  0
  149.3103  141.7715  155.0333 H   0  0  0  0  0  0  0  0  0  0  0  0
  150.9806  141.9206  155.5190 H   0  0  0  0  0  0  0  0  0  0  0  0
  150.1891  138.9181  157.2127 H   0  0  0  0  0  0  0  0  0  0  0  0
  150.9209  137.6574  153.3567 H   0  0  0  0  0  0  0  0  0  0  0  0
  149.5664  143.5989  157.2239 H   0  0  0  0  0  0  0  0  0  0  0  0
  151.7813  143.1116  156.5183 H   0  0  0  0  0  0  0  0  0  0  0  0
  152.0255  141.0403  157.8993 H   0  0  0  0  0  0  0  0  0  0  0  0
  153.3906  142.1197  157.9966 H   0  0  0  0  0  0  0  0  0  0  0  0
  151.1847  141.8365  160.0877 H   0  0  0  0  0  0  0  0  0  0  0  0
  152.8351  141.2949  160.2370 H   0  0  0  0  0  0  0  0  0  0  0  0
  153.6628  143.6092  160.1420 H   0  0  0  0  0  0  0  0  0  0  0  0
  151.4175  143.3560  162.2017 H   0  0  0  0  0  0  0  0  0  0  0  0
  152.8709  144.3433  162.3534 H   0  0  0  0  0  0  0  0  0  0  0  0
  153.0003  142.5982  162.3402 H   0  0  0  0  0  0  0  0  0  0  0  0
  150.7394  144.4374  159.9446 H   0  0  0  0  0  0  0  0  0  0  0  0
  153.2543  146.1684  160.0398 H   0  0  0  0  0  0  0  0  0  0  0  0
  151.9640  146.1228  161.2404 H   0  0  0  0  0  0  0  0  0  0  0  0
  151.6441  146.7577  159.6411 H   0  0  0  0  0  0  0  0  0  0  0  0
  152.9666  144.7078  157.8879 H   0  0  0  0  0  0  0  0  0  0  0  0
  151.3505  145.3014  157.6842 H   0  0  0  0  0  0  0  0  0  0  0  0
  149.8447  142.8946  158.6727 H   0  0  0  0  0  0  0  0  0  0  0  0
  1  2  1  0  0  0  0
  1 18  1  0  0  0  0
  1 19  1  0  0  0  0
  1 20  1  0  0  0  0
  2  3  1  0  0  0  0
  2  9  1  0  0  0  0
  2 21  1  0  0  0  0
  3  4  1  0  0  0  0
  3 22  1  0  0  0  0
  3 23  1  0  0  0  0
  4  8  1  0  0  0  0
  4  5  1  0  0  0  0
  5  6  2  0  0  0  0
  5 24  1  0  0  0  0
  6  7  1  0  0  0  0
  7  8  2  0  0  0  0
  7 25  1  0  0  0  0
  9 10  1  0  0  0  0
  9 26  1  0  0  0  0
  9 42  1  0  0  0  0
 10 17  1  0  0  0  0
 10 11  1  0  0  0  0
 10 27  1  0  0  0  0
 11 12  1  0  0  0  0
 11 28  1  0  0  0  0
 11 29  1  0  0  0  0
 12 13  1  0  0  0  0
 12 30  1  0  0  0  0
 12 31  1  0  0  0  0
 13 14  1  0  0  0  0
 13 15  1  0  0  0  0
 13 32  1  0  0  0  0
 14 33  1  0  0  0  0
 14 34  1  0  0  0  0
 14 35  1  0  0  0  0
 15 16  1  0  0  0  0
 15 17  1  0  0  0  0
 15 36  1  0  0  0  0
 16 37  1  0  0  0  0
 16 38  1  0  0  0  0
 16 39  1  0  0  0  0
 17 40  1  0  0  0  0
 17 41  1  0  0  0  0
M  CHG  1   9   1
M  END
> <s_m_source_file>
AV-unprocessed.smi

> <i_m_source_file_index>
3181

> <i_lp_mmshare_version>
43012

> <i_f3d_flags>
0

> <s_epik_input>
bjFbY0hdbltjSF1uMVtDSDJdW0NAQEhdKFtDSDNdKVtOSF1bQ0BASF0yW0NIMl1bQ0gyXVtDQEBIXShbQ0gzXSlbQ0BASF0oW0NIM10pW0NIMl0y

> <s_epik_cmdline>
J2VwaWtfcHl0aG9uJywgJy1waCcsICc3LjAnLCAnLXRuJywgJzgnLCAnLW1hJywgJzIwMCcsICctbWV0YWxfYmluZGluZycsICctaW1hZScsICc8aW5maWxlLm1hZT4nLCAnLW9tYWUnLCAnPG91dGZpbGUubWFlPic=

> <r_lp_tautomer_probability>
1

> <r_epik_Ionization_Penalty>
0.000617007

> <r_epik_Ionization_Penalty_Charging>
0.000616215

> <r_epik_Ionization_Penalty_Neutral>
7.92544e-07

> <r_epik_State_Penalty>
0.000388807

> <r_epik_Charging_Adjusted_Penalty>
0.00100502

> <i_epik_Tot_Q>
1

> <i_epik_Tot_abs_Q>
1

> <r_epik_Metal_State_Penalty>
-0

> <b_epik_Metal_Only>
0

> <s_lp_Force_Field>
OPLS_2005

> <r_lp_Energy>
23.1218

> <b_lp_Chiralities_Consistent>
1

> <s_lp_Variant>
AV-unprocessed.smi:3181-6

> <Gold.Version>
5.8.1

> <Gold.Id.Protein>
6NUR|6NUR_protein|mol2

> <Gold.PLP.Fitness>
50.2524

> <Gold.PLP.PLP>
-38.8413

> <Gold.PLP.part.hbond>
-2.0000

> <Gold.PLP.part.metal>
0.0000

> <Gold.PLP.part.buried>
-5.2172

> <Gold.PLP.part.nonpolar>
-30.5887

> <Gold.PLP.part.repulsive>
0.4218

> <Gold.PLP.ligand.clash>
0.0000

> <Gold.PLP.ligand.torsion>
0.4544

> <Gold.PLP.Chemscore.Hbond>
3.0000

> <Gold.PLP.Chemscore.CHOScore>
1.0975

> <Gold.PLP.Chemscore.Metal>
0.0000

> <Gold.Chemscore.Hbonds>
donor molecule, donor type, donor heavy atom, donor atom, acceptor molecule, acceptor atom, score
      L1  H     9    26       P1  8028  2.00
      P1  H  7989  7998       L1     8  1.00
      L1  C     7    25       P1  7948  0.11
      L1  C     7    25       P1  7949  0.99

> <Gold.PLP.Chemscore.Internal.Correction>
0.0275

> <Gold.Rescore>
     Score         DG    S(hbond)    S(metal)    S(lipo)     H(rot)  DE(clash)    DE(int)     intcor
     17.22     -17.80       1.57        0.00     106.64       2.11       0.32       0.26       ----

> <Gold.Chemscore.Fitness>
17.2157

> <Gold.Chemscore.DG>
-17.7996

> <Gold.Chemscore.ZeroCoef>
-5.4800

> <Gold.Chemscore.Hbond>
1.5699

> <Gold.Chemscore.Metal>
0.0000

> <Gold.Chemscore.Lipo>
106.6371

> <Gold.Chemscore.Internal_Hbond>
0.0000

> <Gold.Chemscore.DEClash>
0.3215

> <Gold.Chemscore.DEInternal>
0.2623

> <Gold.Chemscore.Rot>
2.1095

> <Gold.Chemscore.Internal.Correction>
   9.000000E+99

> <Gold.Chemscore.Hbonds>
donor molecule, donor type, donor heavy atom, donor atom, acceptor molecule, acceptor atom, score
      L1  H     9    26       P1  8028  0.76
      P1  H  7989  7998       L1     8  0.45

> <Gold.Chemscore.Hbond.Weighted>
-5.2434

> <Gold.Chemscore.Metal.Weighted>
-0.0000

> <Gold.Chemscore.Lipo.Weighted>
-12.4765

> <Gold.Chemscore.Internal_Hbond.Weighted>
0.0000

> <Gold.Chemscore.DEClash.Weighted>
0.3215

> <Gold.Chemscore.DEInternal.Weighted>
0.2623

> <Gold.Chemscore.Rot.Weighted>
5.4003

> <Gold.Chemscore.Internal.Correction.Weighted>
   9.000000E+99

> <Gold.Protein.RotatedTorsions>
[ 6907 6896 6895 6894 ] final -115.23 input  -60.11 | X-H torsion
[ 7974 7965 7964 7962 ] final   77.87 input  175.53 | X-H torsion
[ 8008 7997 7996 7995 ] final -120.63 input   59.86 | X-H torsion
[ 10167 10162 10161 10158 ] final  166.42 input  -65.29 | X-H torsion
[ 10718 10713 10712 10709 ] final  -81.87 input   66.30 | X-H torsion
[ 10763 10752 10751 10750 ] final   15.47 input  -60.55 | X-H torsion
[ 11005 11000 10999 10996 ] final  179.00 input  -57.11 | X-H torsion

> <Gold.Protein.ActiveResidues>
 VAL166  LYS551  ARG553  GLY616  TRP617  ASP618  TYR619  PRO620  LYS621  CYS622 
 ASP623  PHE694  ASN695  SER759  ASP760  ASP761  ALA762  ILE779  LEU786  VAL792 
 PHE793  MET794  SER795  GLU796  ALA797  LYS798  CYS799  TRP800  GLU811  SER814 

> <Gold.Protein.RotatedAtoms>
  150.7962  133.8687  159.3252 H   0  0  0  0  0  0  0  0  0  0  0  0  # atno 6907 bound_to 6896
  151.6512  135.0999  160.0170 H   0  0  0  0  0  0  0  0  0  0  0  0  # atno 6908 bound_to 6896
  152.4044  133.6827  159.6379 H   0  0  0  0  0  0  0  0  0  0  0  0  # atno 6909 bound_to 6896
  145.6844  139.2533  143.1795 H   0  0  0  0  0  0  0  0  0  0  0  0  # atno 7974 bound_to 7965
  155.1349  140.0401  157.2784 H   0  0  0  0  0  0  0  0  0  0  0  0  # atno 8008 bound_to 7997
  154.6515  140.2570  155.7182 H   0  0  0  0  0  0  0  0  0  0  0  0  # atno 8009 bound_to 7997
  156.2579  140.2835  156.0951 H   0  0  0  0  0  0  0  0  0  0  0  0  # atno 8010 bound_to 7997
  139.4924  144.4029  151.9388 H   0  0  0  0  0  0  0  0  0  0  0  0  # atno 10167 bound_to 10162
  156.0043  130.4617  150.4018 H   0  0  0  0  0  0  0  0  0  0  0  0  # atno 10718 bound_to 10713
  153.1522  135.6780  153.8866 H   0  0  0  0  0  0  0  0  0  0  0  0  # atno 10763 bound_to 10752
  153.8288  135.3120  155.3418 H   0  0  0  0  0  0  0  0  0  0  0  0  # atno 10764 bound_to 10752
  154.7870  135.4856  154.0055 H   0  0  0  0  0  0  0  0  0  0  0  0  # atno 10765 bound_to 10752
  140.4013  134.6775  157.4563 H   0  0  0  0  0  0  0  0  0  0  0  0  # atno 11005 bound_to 11000
  146.0936  140.7626  142.9583 LP  0  0  0  0  0  0  0  0  0  0  0  0  # atno 17320 bound_to 7965
  144.7016  140.3676  143.7151 LP  0  0  0  0  0  0  0  0  0  0  0  0  # atno 17321 bound_to 7965
  140.3469  144.3136  150.5956 LP  0  0  0  0  0  0  0  0  0  0  0  0  # atno 17342 bound_to 10162
  140.5518  143.2205  151.7913 LP  0  0  0  0  0  0  0  0  0  0  0  0  # atno 17343 bound_to 10162
  157.2086  131.0455  151.2611 LP  0  0  0  0  0  0  0  0  0  0  0  0  # atno 17370 bound_to 10713
  157.3909  130.7282  149.6697 LP  0  0  0  0  0  0  0  0  0  0  0  0  # atno 17371 bound_to 10713
  140.0334  134.6373  155.9076 LP  0  0  0  0  0  0  0  0  0  0  0  0  # atno 17394 bound_to 11000
  141.1855  133.6555  156.5203 LP  0  0  0  0  0  0  0  0  0  0  0  0  # atno 17395 bound_to 11000

$$$$
