AV-unprocessed.smi:2784|AV-procd|sdf|10738|dock6
  -GOLD-   2272015173D 1   1.00000     0.00000
 Structure written by MMmdl.
 31 32  0  0  0  0  0  0  0  0  1 V2000
  150.8226  137.9369  154.4578 C   0  0  0  0  0  0  0  0  0  0  0  0
  150.7784  139.3514  154.3540 O   0  0  0  0  0  0  0  0  0  0  0  0
  149.6005  139.9253  154.9040 C   0  0  2  0  0  0  0  0  0  0  0  0
  148.3713  139.3209  154.2197 C   0  0  0  0  0  0  0  0  0  0  0  0
  147.3090  140.4096  154.3189 C   0  0  0  0  0  0  0  0  0  0  0  0
  148.0899  141.7044  154.0976 C   0  0  0  0  0  0  0  0  0  0  0  0
  149.5015  141.4493  154.6627 C   0  0  1  0  0  0  0  0  0  0  0  0
  149.7078  142.1806  155.9108 N   0  0  0  0  0  0  0  0  0  0  0  0
  150.6612  141.9209  156.8176 C   0  0  0  0  0  0  0  0  0  0  0  0
  151.4760  141.0065  156.6583 O   0  0  0  0  0  0  0  0  0  0  0  0
  150.5446  142.7846  157.8954 N   0  0  0  0  0  0  0  0  0  0  0  0
  151.4526  142.7601  158.8212 C   0  0  0  0  0  0  0  0  0  0  0  0
  151.5263  143.5503  159.9571 N   0  0  0  0  0  0  0  0  0  0  0  0
  152.6396  143.1812  160.6604 C   0  0  0  0  0  0  0  0  0  0  0  0
  153.2417  142.1984  159.9969 C   0  0  0  0  0  0  0  0  0  0  0  0
  152.5384  141.9156  158.8650 O   0  0  0  0  0  0  0  0  0  0  0  0
  151.7380  137.5667  153.9965 H   0  0  0  0  0  0  0  0  0  0  0  0
  149.9783  137.4773  153.9427 H   0  0  0  0  0  0  0  0  0  0  0  0
  150.8178  137.6085  155.4975 H   0  0  0  0  0  0  0  0  0  0  0  0
  149.5333  139.6967  155.9700 H   0  0  0  0  0  0  0  0  0  0  0  0
  148.5880  139.1254  153.1683 H   0  0  0  0  0  0  0  0  0  0  0  0
  148.0576  138.3809  154.6741 H   0  0  0  0  0  0  0  0  0  0  0  0
  146.5015  140.2775  153.5984 H   0  0  0  0  0  0  0  0  0  0  0  0
  146.8713  140.4077  155.3180 H   0  0  0  0  0  0  0  0  0  0  0  0
  148.1638  141.8994  153.0270 H   0  0  0  0  0  0  0  0  0  0  0  0
  147.5894  142.5648  154.5441 H   0  0  0  0  0  0  0  0  0  0  0  0
  150.2428  141.7578  153.9229 H   0  0  0  0  0  0  0  0  0  0  0  0
  149.0668  142.9360  156.1052 H   0  0  0  0  0  0  0  0  0  0  0  0
  150.8940  144.2794  160.2539 H   0  0  0  0  0  0  0  0  0  0  0  0
  152.8892  143.6758  161.5875 H   0  0  0  0  0  0  0  0  0  0  0  0
  154.1351  141.6228  160.1889 H   0  0  0  0  0  0  0  0  0  0  0  0
  1  2  1  0  0  0  0
  1 17  1  0  0  0  0
  1 18  1  0  0  0  0
  1 19  1  0  0  0  0
  2  3  1  0  0  0  0
  3  7  1  0  0  0  0
  3  4  1  0  0  0  0
  3 20  1  0  0  0  0
  4  5  1  0  0  0  0
  4 21  1  0  0  0  0
  4 22  1  0  0  0  0
  5  6  1  0  0  0  0
  5 23  1  0  0  0  0
  5 24  1  0  0  0  0
  6  7  1  0  0  0  0
  6 25  1  0  0  0  0
  6 26  1  0  0  0  0
  7  8  1  0  0  0  0
  7 27  1  0  0  0  0
  8 28  1  0  0  0  0
  8  9  1  0  0  0  0
  9 11  1  0  0  0  0
  9 10  2  0  0  0  0
 11 12  2  0  0  0  0
 12 16  1  0  0  0  0
 12 13  1  0  0  0  0
 13 29  1  0  0  0  0
 13 14  1  0  0  0  0
 14 30  1  0  0  0  0
 14 15  2  0  0  0  0
 15 31  1  0  0  0  0
 15 16  1  0  0  0  0
M  END
> <s_m_source_file>
AV-unprocessed.smi

> <i_m_source_file_index>
2784

> <i_lp_mmshare_version>
43012

> <i_f3d_flags>
0

> <s_epik_input>
W0NIM11PW0NAQEhdMVtDSDJdW0NIMl1bQ0gyXVtDQEhdMVtOSF1DKD1PKVtOSF1jMm5bY0hdW2NIXW8y

> <s_epik_cmdline>
J2VwaWtfcHl0aG9uJywgJy1waCcsICc3LjAnLCAnLXRuJywgJzgnLCAnLW1hJywgJzIwMCcsICctbWV0YWxfYmluZGluZycsICctaW1hZScsICc8aW5maWxlLm1hZT4nLCAnLW9tYWUnLCAnPG91dGZpbGUubWFlPic=

> <r_lp_tautomer_probability>
0.107061

> <r_epik_Ionization_Penalty>
1.29244

> <r_epik_Ionization_Penalty_Charging>
1.29208

> <r_epik_Ionization_Penalty_Neutral>
0.000359742

> <r_epik_State_Penalty>
2.59896

> <r_epik_Charging_Adjusted_Penalty>
3.89105

> <i_epik_Tot_Q>
0

> <i_epik_Tot_abs_Q>
0

> <r_epik_Metal_State_Penalty>
3.62496

> <b_epik_Metal_Only>
0

> <s_lp_Force_Field>
OPLS_2005

> <r_lp_Energy>
42.0746

> <b_lp_Chiralities_Consistent>
1

> <s_lp_Variant>
AV-unprocessed.smi:2784-13

> <Gold.Version>
5.8.1

> <Gold.Id.Protein>
6NUR|6NUR_protein|mol2

> <Gold.PLP.Fitness>
35.3000

> <Gold.PLP.PLP>
-30.4829

> <Gold.PLP.part.hbond>
-2.0000

> <Gold.PLP.part.metal>
0.0000

> <Gold.PLP.part.buried>
-4.4876

> <Gold.PLP.part.nonpolar>
-24.3797

> <Gold.PLP.part.repulsive>
0.4914

> <Gold.PLP.ligand.clash>
0.0000

> <Gold.PLP.ligand.torsion>
0.2461

> <Gold.PLP.Chemscore.Hbond>
1.7680

> <Gold.PLP.Chemscore.CHOScore>
0.0000

> <Gold.PLP.Chemscore.Metal>
0.0000

> <Gold.Chemscore.Hbonds>
donor molecule, donor type, donor heavy atom, donor atom, acceptor molecule, acceptor atom, score
      L1  H     8    28       P1  8028  0.75
      P1  H  7989  7998       L1     2  1.00

> <Gold.PLP.Chemscore.Internal.Correction>
0.0053

> <Gold.Rescore>
     Score         DG    S(hbond)    S(metal)    S(lipo)     H(rot)  DE(clash)    DE(int)     intcor
     10.15     -14.74       1.48        0.00      65.88       1.32       0.03       4.55       ----

> <Gold.Chemscore.Fitness>
10.1542

> <Gold.Chemscore.DG>
-14.7353

> <Gold.Chemscore.ZeroCoef>
-5.4800

> <Gold.Chemscore.Hbond>
1.4778

> <Gold.Chemscore.Metal>
0.0000

> <Gold.Chemscore.Lipo>
65.8781

> <Gold.Chemscore.Internal_Hbond>
0.0000

> <Gold.Chemscore.DEClash>
0.0300

> <Gold.Chemscore.DEInternal>
4.5512

> <Gold.Chemscore.Rot>
1.3235

> <Gold.Chemscore.Internal.Correction>
   9.000000E+99

> <Gold.Chemscore.Hbonds>
donor molecule, donor type, donor heavy atom, donor atom, acceptor molecule, acceptor atom, score
      L1  H     8    28       P1  8028  0.76
      P1  H  7989  7998       L1     2  0.39

> <Gold.Chemscore.Hbond.Weighted>
-4.9357

> <Gold.Chemscore.Metal.Weighted>
-0.0000

> <Gold.Chemscore.Lipo.Weighted>
-7.7077

> <Gold.Chemscore.Internal_Hbond.Weighted>
0.0000

> <Gold.Chemscore.DEClash.Weighted>
0.0300

> <Gold.Chemscore.DEInternal.Weighted>
4.5512

> <Gold.Chemscore.Rot.Weighted>
3.3882

> <Gold.Chemscore.Internal.Correction.Weighted>
   9.000000E+99

> <Gold.Protein.RotatedTorsions>
[ 6907 6896 6895 6894 ] final  146.68 input  -60.11 | X-H torsion
[ 7974 7965 7964 7962 ] final   82.85 input  175.53 | X-H torsion
[ 8008 7997 7996 7995 ] final  139.28 input   59.86 | X-H torsion
[ 10167 10162 10161 10158 ] final   46.95 input  -65.29 | X-H torsion
[ 10718 10713 10712 10709 ] final  119.81 input   66.30 | X-H torsion
[ 10763 10752 10751 10750 ] final  -79.44 input  -60.55 | X-H torsion
[ 11005 11000 10999 10996 ] final  -61.19 input  -57.11 | X-H torsion

> <Gold.Protein.ActiveResidues>
 VAL166  LYS551  ARG553  GLY616  TRP617  ASP618  TYR619  PRO620  LYS621  CYS622 
 ASP623  PHE694  ASN695  SER759  ASP760  ASP761  ALA762  ILE779  LEU786  VAL792 
 PHE793  MET794  SER795  GLU796  ALA797  LYS798  CYS799  TRP800  GLU811  SER814 

> <Gold.Protein.RotatedAtoms>
  152.1648  133.4605  159.4878 H   0  0  0  0  0  0  0  0  0  0  0  0  # atno 6907 bound_to 6896
  150.6911  134.2027  159.4337 H   0  0  0  0  0  0  0  0  0  0  0  0  # atno 6908 bound_to 6896
  151.9931  134.9968  160.0613 H   0  0  0  0  0  0  0  0  0  0  0  0  # atno 6909 bound_to 6896
  145.6196  139.2383  143.2146 H   0  0  0  0  0  0  0  0  0  0  0  0  # atno 7974 bound_to 7965
  156.2991  140.2371  156.4212 H   0  0  0  0  0  0  0  0  0  0  0  0  # atno 8008 bound_to 7997
  154.8354  140.0431  157.1525 H   0  0  0  0  0  0  0  0  0  0  0  0  # atno 8009 bound_to 7997
  154.9162  140.2997  155.5244 H   0  0  0  0  0  0  0  0  0  0  0  0  # atno 8010 bound_to 7997
  140.3086  144.2848  150.6204 H   0  0  0  0  0  0  0  0  0  0  0  0  # atno 10167 bound_to 10162
  157.5935  131.1061  150.7948 H   0  0  0  0  0  0  0  0  0  0  0  0  # atno 10718 bound_to 10713
  154.5387  135.5695  153.6821 H   0  0  0  0  0  0  0  0  0  0  0  0  # atno 10763 bound_to 10752
  152.9958  135.6222  154.2531 H   0  0  0  0  0  0  0  0  0  0  0  0  # atno 10764 bound_to 10752
  154.2461  135.2860  155.2814 H   0  0  0  0  0  0  0  0  0  0  0  0  # atno 10765 bound_to 10752
  141.1315  133.6628  156.5338 H   0  0  0  0  0  0  0  0  0  0  0  0  # atno 11005 bound_to 11000
  146.1441  140.7016  142.9353 LP  0  0  0  0  0  0  0  0  0  0  0  0  # atno 17320 bound_to 7965
  144.7236  140.4455  143.6989 LP  0  0  0  0  0  0  0  0  0  0  0  0  # atno 17321 bound_to 7965
  140.5588  143.2195  151.7801 LP  0  0  0  0  0  0  0  0  0  0  0  0  # atno 17342 bound_to 10162
  139.4899  144.4377  151.9800 LP  0  0  0  0  0  0  0  0  0  0  0  0  # atno 17343 bound_to 10162
  156.8364  130.5033  149.5326 LP  0  0  0  0  0  0  0  0  0  0  0  0  # atno 17370 bound_to 10713
  156.0994  130.5957  150.9868 LP  0  0  0  0  0  0  0  0  0  0  0  0  # atno 17371 bound_to 10713
  140.4194  134.7200  157.4881 LP  0  0  0  0  0  0  0  0  0  0  0  0  # atno 17394 bound_to 11000
  140.0370  134.6322  155.9030 LP  0  0  0  0  0  0  0  0  0  0  0  0  # atno 17395 bound_to 11000

$$$$
