AV-unprocessed.smi:49|AV-procd|sdf|474|dock5
  -GOLD-   2262016343D 1   1.00000     0.00000
 Structure written by MMmdl.
 27 28  0  0  0  0  0  0  0  0  1 V2000
  149.9501  132.7772  154.9150 C   0  0  0  0  0  0  0  0  0  0  0  0
  149.1535  133.9600  154.3539 C   0  0  0  0  0  0  0  0  0  0  0  0
  147.9214  133.5311  153.6266 C   0  0  0  0  0  0  0  0  0  0  0  0
  147.8947  132.6979  152.5919 N   0  0  0  0  0  0  0  0  0  0  0  0
  146.5518  132.6688  152.3360 C   0  0  0  0  0  0  0  0  0  0  0  0
  145.9664  131.8177  151.2500 C   0  0  1  0  0  0  0  0  0  0  0  0
  144.4286  131.9119  151.2010 C   0  0  0  0  0  0  0  0  0  0  0  0
  144.1315  132.5369  149.8399 C   0  0  2  0  0  0  0  0  0  0  0  0
  142.9004  132.1115  149.2952 O   0  0  0  0  0  0  0  0  0  0  0  0
  145.3222  132.0910  149.0015 C   0  0  0  0  0  0  0  0  0  0  0  0
  146.4540  132.1718  149.9122 N   0  0  0  0  0  0  0  0  0  0  0  0
  145.7880  133.3945  153.1548 N   0  0  0  0  0  0  0  0  0  0  0  0
  146.7032  133.9480  153.9774 N   0  0  0  0  0  0  0  0  0  0  0  0
  146.2331  130.7804  151.4572 H   0  0  0  0  0  0  0  0  0  0  0  0
  144.1319  133.6247  149.9263 H   0  0  0  0  0  0  0  0  0  0  0  0
  146.4601  134.5729  154.7329 H   0  0  0  0  0  0  0  0  0  0  0  0
  150.8424  133.1230  155.4370 H   0  0  0  0  0  0  0  0  0  0  0  0
  150.2703  132.1055  154.1179 H   0  0  0  0  0  0  0  0  0  0  0  0
  149.3526  132.1996  155.6208 H   0  0  0  0  0  0  0  0  0  0  0  0
  148.8724  134.6349  155.1634 H   0  0  0  0  0  0  0  0  0  0  0  0
  149.7780  134.5368  153.6711 H   0  0  0  0  0  0  0  0  0  0  0  0
  144.0090  130.9061  151.2553 H   0  0  0  0  0  0  0  0  0  0  0  0
  143.9986  132.4885  152.0214 H   0  0  0  0  0  0  0  0  0  0  0  0
  142.2859  132.8277  149.3478 H   0  0  0  0  0  0  0  0  0  0  0  0
  145.1853  131.0583  148.6774 H   0  0  0  0  0  0  0  0  0  0  0  0
  145.4678  132.7059  148.1131 H   0  0  0  0  0  0  0  0  0  0  0  0
  147.1584  131.5040  149.6161 H   0  0  0  0  0  0  0  0  0  0  0  0
  1  2  1  0  0  0  0
  1 17  1  0  0  0  0
  1 18  1  0  0  0  0
  1 19  1  0  0  0  0
  2  3  1  0  0  0  0
  2 20  1  0  0  0  0
  2 21  1  0  0  0  0
  3 13  1  0  0  0  0
  3  4  2  0  0  0  0
  4  5  1  0  0  0  0
  5  6  1  0  0  0  0
  5 12  2  0  0  0  0
  6 14  1  0  0  0  0
  6 11  1  0  0  0  0
  6  7  1  0  0  0  0
  7  8  1  0  0  0  0
  7 22  1  0  0  0  0
  7 23  1  0  0  0  0
  8 15  1  0  0  0  0
  8  9  1  0  0  0  0
  8 10  1  0  0  0  0
  9 24  1  0  0  0  0
 10 11  1  0  0  0  0
 10 25  1  0  0  0  0
 10 26  1  0  0  0  0
 11 27  1  0  0  0  0
 12 13  1  0  0  0  0
 13 16  1  0  0  0  0
M  END
> <s_m_source_file>
AV-unprocessed.smi

> <i_m_source_file_index>
49

> <i_lp_mmshare_version>
43012

> <i_f3d_flags>
0

> <s_epik_input>
W0NIM11bQ0gyXWMxbmMobltuSF0xKVtDQEBIXTJbQ0gyXVtDQEBIXShbT0hdKVtDSDJdW05IXTI=

> <s_epik_cmdline>
J2VwaWtfcHl0aG9uJywgJy1waCcsICc3LjAnLCAnLXRuJywgJzgnLCAnLW1hJywgJzIwMCcsICctbWV0YWxfYmluZGluZycsICctaW1hZScsICc8aW5maWxlLm1hZT4nLCAnLW9tYWUnLCAnPG91dGZpbGUubWFlPic=

> <r_lp_tautomer_probability>
0.948284

> <r_epik_Ionization_Penalty>
1.6657

> <r_epik_Ionization_Penalty_Charging>
0

> <r_epik_Ionization_Penalty_Neutral>
1.6657

> <r_epik_State_Penalty>
2.01417

> <r_epik_Charging_Adjusted_Penalty>
2.01417

> <i_epik_Tot_Q>
0

> <i_epik_Tot_abs_Q>
0

> <r_epik_Metal_State_Penalty>
2.28256

> <b_epik_Metal_Only>
0

> <s_lp_Force_Field>
OPLS_2005

> <r_lp_Energy>
18.9317

> <b_lp_Chiralities_Consistent>
1

> <s_lp_Variant>
AV-unprocessed.smi:49-12

> <Gold.Version>
5.8.1

> <Gold.Id.Protein>
6NUR|6NUR_protein|mol2

> <Gold.PLP.Fitness>
34.8497

> <Gold.PLP.PLP>
-26.9040

> <Gold.PLP.part.hbond>
-3.9421

> <Gold.PLP.part.metal>
0.0000

> <Gold.PLP.part.buried>
-4.5419

> <Gold.PLP.part.nonpolar>
-18.5151

> <Gold.PLP.part.repulsive>
0.2750

> <Gold.PLP.ligand.clash>
0.0000

> <Gold.PLP.ligand.torsion>
0.0131

> <Gold.PLP.Chemscore.Hbond>
2.6530

> <Gold.PLP.Chemscore.CHOScore>
0.0000

> <Gold.PLP.Chemscore.Metal>
0.0000

> <Gold.Chemscore.Hbonds>
donor molecule, donor type, donor heavy atom, donor atom, acceptor molecule, acceptor atom, score
      L1  H     9    24       P1 10186  0.96
      L1  H    11    27       P1 10747  0.77
      P1  H 10785 10796       L1     9  0.91

> <Gold.PLP.Chemscore.Internal.Correction>
0.0128

> <Gold.Rescore>
     Score         DG    S(hbond)    S(metal)    S(lipo)     H(rot)  DE(clash)    DE(int)     intcor
     14.47     -14.50       2.34        0.00      50.88       1.86       0.01       0.01       ----

> <Gold.Chemscore.Fitness>
14.4718

> <Gold.Chemscore.DG>
-14.4986

> <Gold.Chemscore.ZeroCoef>
-5.4800

> <Gold.Chemscore.Hbond>
2.3401

> <Gold.Chemscore.Metal>
0.0000

> <Gold.Chemscore.Lipo>
50.8838

> <Gold.Chemscore.Internal_Hbond>
0.0000

> <Gold.Chemscore.DEClash>
0.0128

> <Gold.Chemscore.DEInternal>
0.0141

> <Gold.Chemscore.Rot>
1.8558

> <Gold.Chemscore.Internal.Correction>
   9.000000E+99

> <Gold.Chemscore.Hbonds>
donor molecule, donor type, donor heavy atom, donor atom, acceptor molecule, acceptor atom, score
      L1  H     9    24       P1 10186  0.91
      L1  H    11    27       P1 10747  0.72
      P1  H 10785 10796       L1     9  0.48

> <Gold.Chemscore.Hbond.Weighted>
-7.8159

> <Gold.Chemscore.Metal.Weighted>
-0.0000

> <Gold.Chemscore.Lipo.Weighted>
-5.9534

> <Gold.Chemscore.Internal_Hbond.Weighted>
0.0000

> <Gold.Chemscore.DEClash.Weighted>
0.0128

> <Gold.Chemscore.DEInternal.Weighted>
0.0141

> <Gold.Chemscore.Rot.Weighted>
4.7507

> <Gold.Chemscore.Internal.Correction.Weighted>
   9.000000E+99

> <Gold.Protein.RotatedTorsions>
[ 6907 6896 6895 6894 ] final  -92.62 input  -60.11 | X-H torsion
[ 7974 7965 7964 7962 ] final  163.13 input  175.53 | X-H torsion
[ 8008 7997 7996 7995 ] final   15.20 input   59.86 | X-H torsion
[ 10167 10162 10161 10158 ] final -172.31 input  -65.29 | X-H torsion
[ 10718 10713 10712 10709 ] final  -64.16 input   66.30 | X-H torsion
[ 10763 10752 10751 10750 ] final -139.01 input  -60.55 | X-H torsion
[ 11005 11000 10999 10996 ] final  -51.65 input  -57.11 | X-H torsion

> <Gold.Protein.ActiveResidues>
 VAL166  LYS551  ARG553  GLY616  TRP617  ASP618  TYR619  PRO620  LYS621  CYS622 
 ASP623  PHE694  ASN695  SER759  ASP760  ASP761  ALA762  ILE779  LEU786  VAL792 
 PHE793  MET794  SER795  GLU796  ALA797  LYS798  CYS799  TRP800  GLU811  SER814 

> <Gold.Protein.RotatedAtoms>
  150.6909  134.2093  159.4352 H   0  0  0  0  0  0  0  0  0  0  0  0  # atno 6907 bound_to 6896
  152.0056  134.9902  160.0576 H   0  0  0  0  0  0  0  0  0  0  0  0  # atno 6908 bound_to 6896
  152.1537  133.4503  159.4863 H   0  0  0  0  0  0  0  0  0  0  0  0  # atno 6909 bound_to 6896
  144.7604  139.8138  143.6334 H   0  0  0  0  0  0  0  0  0  0  0  0  # atno 7974 bound_to 7965
  154.8593  140.2942  155.5549 H   0  0  0  0  0  0  0  0  0  0  0  0  # atno 8008 bound_to 7997
  156.3019  140.2481  156.3497 H   0  0  0  0  0  0  0  0  0  0  0  0  # atno 8009 bound_to 7997
  154.8936  140.0393  157.1842 H   0  0  0  0  0  0  0  0  0  0  0  0  # atno 8010 bound_to 7997
  139.5752  144.1550  152.1440 H   0  0  0  0  0  0  0  0  0  0  0  0  # atno 10167 bound_to 10162
  156.0746  130.4230  150.1381 H   0  0  0  0  0  0  0  0  0  0  0  0  # atno 10718 bound_to 10713
  154.8621  135.3595  154.5476 H   0  0  0  0  0  0  0  0  0  0  0  0  # atno 10763 bound_to 10752
  153.6096  135.7010  153.5357 H   0  0  0  0  0  0  0  0  0  0  0  0  # atno 10764 bound_to 10752
  153.3221  135.4148  155.1386 H   0  0  0  0  0  0  0  0  0  0  0  0  # atno 10765 bound_to 10752
  141.0882  133.6638  156.3908 H   0  0  0  0  0  0  0  0  0  0  0  0  # atno 11005 bound_to 11000
  146.1661  139.4793  142.9957 LP  0  0  0  0  0  0  0  0  0  0  0  0  # atno 17320 bound_to 7965
  145.6638  141.0234  143.1694 LP  0  0  0  0  0  0  0  0  0  0  0  0  # atno 17321 bound_to 7965
  140.1091  144.5473  150.6937 LP  0  0  0  0  0  0  0  0  0  0  0  0  # atno 17342 bound_to 10162
  140.7035  143.2451  151.4796 LP  0  0  0  0  0  0  0  0  0  0  0  0  # atno 17343 bound_to 10162
  156.9425  130.9749  151.3513 LP  0  0  0  0  0  0  0  0  0  0  0  0  # atno 17370 bound_to 10713
  157.5835  130.8393  149.8555 LP  0  0  0  0  0  0  0  0  0  0  0  0  # atno 17371 bound_to 10713
  140.5314  134.6209  157.5351 LP  0  0  0  0  0  0  0  0  0  0  0  0  # atno 17394 bound_to 11000
  139.9703  134.7303  156.0054 LP  0  0  0  0  0  0  0  0  0  0  0  0  # atno 17395 bound_to 11000

$$$$
