AV-unprocessed.smi:1071|AV-procd|sdf|4678|dock1
  -GOLD-   22720 3193D 1   1.00000     0.00000
 Structure written by MMmdl.
 47 48  0  0  0  0  0  0  0  0  2 V2000
  152.4562  143.5182  159.8253 C   0  0  0  0  0  0  0  0  0  0  0  0
  153.5664  142.7922  159.3279 O   0  0  0  0  0  0  0  0  0  0  0  0
  154.0902  141.8820  160.2806 C   0  0  0  0  0  0  0  0  0  0  0  0
  153.4668  140.5012  160.0545 C   0  0  0  0  0  0  0  0  0  0  0  0
  153.5881  140.1612  158.6764 O   0  0  0  0  0  0  0  0  0  0  0  0
  152.4429  140.1008  157.9092 C   0  0  0  0  0  0  0  0  0  0  0  0
  151.2503  140.6345  158.4364 C   0  0  0  0  0  0  0  0  0  0  0  0
  150.0791  140.5778  157.6578 C   0  0  0  0  0  0  0  0  0  0  0  0
  150.1349  140.0006  156.3735 C   0  0  0  0  0  0  0  0  0  0  0  0
  148.9353  139.9362  155.6149 N   0  0  0  0  0  0  0  0  0  0  0  0
  148.6736  139.1914  154.5222 C   0  0  0  0  0  0  0  0  0  0  0  0
  149.5409  138.5477  153.9310 O   0  0  0  0  0  0  0  0  0  0  0  0
  147.4016  139.3137  154.0565 N   0  0  0  0  0  0  0  0  0  0  0  0
  146.3903  140.2345  154.6174 C   0  0  0  0  0  0  0  0  0  0  0  0
  145.1458  139.4706  155.0961 C   0  0  0  0  0  0  0  0  0  0  0  0
  144.5868  138.6318  154.0131 N   0  3  2  0  0  0  0  0  0  0  0  0
  143.3356  137.9513  154.4103 C   0  0  0  0  0  0  0  0  0  0  0  0
  145.5908  137.6942  153.4609 C   0  0  0  0  0  0  0  0  0  0  0  0
  146.8761  138.4166  153.0044 C   0  0  1  0  0  0  0  0  0  0  0  0
  146.7145  139.1669  151.6706 C   0  0  0  0  0  0  0  0  0  0  0  0
  151.3777  139.4793  155.9381 C   0  0  0  0  0  0  0  0  0  0  0  0
  152.5036  139.5289  156.6811 N   0  0  0  0  0  0  0  0  0  0  0  0
  152.0879  144.1978  159.0570 H   0  0  0  0  0  0  0  0  0  0  0  0
  152.7336  144.1133  160.6961 H   0  0  0  0  0  0  0  0  0  0  0  0
  151.6398  142.8500  160.1031 H   0  0  0  0  0  0  0  0  0  0  0  0
  155.1779  141.8254  160.2132 H   0  0  0  0  0  0  0  0  0  0  0  0
  153.8419  142.2323  161.2835 H   0  0  0  0  0  0  0  0  0  0  0  0
  154.0021  139.7662  160.6576 H   0  0  0  0  0  0  0  0  0  0  0  0
  152.4231  140.5019  160.3736 H   0  0  0  0  0  0  0  0  0  0  0  0
  151.2340  141.0780  159.4210 H   0  0  0  0  0  0  0  0  0  0  0  0
  149.1528  140.9781  158.0433 H   0  0  0  0  0  0  0  0  0  0  0  0
  148.1944  140.5489  155.9226 H   0  0  0  0  0  0  0  0  0  0  0  0
  146.7528  140.8275  155.4572 H   0  0  0  0  0  0  0  0  0  0  0  0
  146.1113  140.9574  153.8505 H   0  0  0  0  0  0  0  0  0  0  0  0
  145.3999  138.8413  155.9509 H   0  0  0  0  0  0  0  0  0  0  0  0
  144.3896  140.1792  155.4363 H   0  0  0  0  0  0  0  0  0  0  0  0
  143.5132  137.2483  155.2254 H   0  0  0  0  0  0  0  0  0  0  0  0
  142.9133  137.4009  153.5689 H   0  0  0  0  0  0  0  0  0  0  0  0
  142.5908  138.6764  154.7399 H   0  0  0  0  0  0  0  0  0  0  0  0
  145.8431  136.9611  154.2292 H   0  0  0  0  0  0  0  0  0  0  0  0
  145.1589  137.1361  152.6291 H   0  0  0  0  0  0  0  0  0  0  0  0
  147.5878  137.6183  152.7908 H   0  0  0  0  0  0  0  0  0  0  0  0
  146.4173  138.4844  150.8737 H   0  0  0  0  0  0  0  0  0  0  0  0
  147.6519  139.6347  151.3675 H   0  0  0  0  0  0  0  0  0  0  0  0
  145.9566  139.9479  151.7306 H   0  0  0  0  0  0  0  0  0  0  0  0
  151.4862  138.9873  154.9840 H   0  0  0  0  0  0  0  0  0  0  0  0
  144.3447  139.2619  153.2617 H   0  0  0  0  0  0  0  0  0  0  0  0
  1  2  1  0  0  0  0
  1 23  1  0  0  0  0
  1 24  1  0  0  0  0
  1 25  1  0  0  0  0
  2  3  1  0  0  0  0
  3  4  1  0  0  0  0
  3 26  1  0  0  0  0
  3 27  1  0  0  0  0
  4  5  1  0  0  0  0
  4 28  1  0  0  0  0
  4 29  1  0  0  0  0
  5  6  1  0  0  0  0
  6 22  1  0  0  0  0
  6  7  2  0  0  0  0
  7  8  1  0  0  0  0
  7 30  1  0  0  0  0
  8  9  2  0  0  0  0
  8 31  1  0  0  0  0
  9 10  1  0  0  0  0
  9 21  1  0  0  0  0
 10 11  1  0  0  0  0
 10 32  1  0  0  0  0
 11 12  2  0  0  0  0
 11 13  1  0  0  0  0
 13 19  1  0  0  0  0
 13 14  1  0  0  0  0
 14 15  1  0  0  0  0
 14 33  1  0  0  0  0
 14 34  1  0  0  0  0
 15 16  1  0  0  0  0
 15 35  1  0  0  0  0
 15 36  1  0  0  0  0
 16 17  1  0  0  0  0
 16 18  1  0  0  0  0
 16 47  1  0  0  0  0
 17 37  1  0  0  0  0
 17 38  1  0  0  0  0
 17 39  1  0  0  0  0
 18 19  1  0  0  0  0
 18 40  1  0  0  0  0
 18 41  1  0  0  0  0
 19 20  1  0  0  0  0
 19 42  1  0  0  0  0
 20 43  1  0  0  0  0
 20 44  1  0  0  0  0
 20 45  1  0  0  0  0
 21 22  2  0  0  0  0
 21 46  1  0  0  0  0
M  CHG  1  16   1
M  END
> <s_m_source_file>
AV-unprocessed.smi

> <i_m_source_file_index>
1071

> <i_lp_mmshare_version>
43012

> <i_f3d_flags>
0

> <s_epik_input>
W0NIM11PW0NIMl1bQ0gyXU9jMVtjSF1bY0hdYyhbY0hdbjEpW05IXUMoPU8pTjJbQ0gyXVtDSDJdTihbQ0gzXSlbQ0gyXVtDQEhdMltDSDNd

> <s_epik_cmdline>
J2VwaWtfcHl0aG9uJywgJy1waCcsICc3LjAnLCAnLXRuJywgJzgnLCAnLW1hJywgJzIwMCcsICctbWV0YWxfYmluZGluZycsICctaW1hZScsICc8aW5maWxlLm1hZT4nLCAnLW9tYWUnLCAnPG91dGZpbGUubWFlPic=

> <r_lp_tautomer_probability>
1

> <r_epik_Ionization_Penalty>
0.25455

> <r_epik_Ionization_Penalty_Charging>
0.254506

> <r_epik_Ionization_Penalty_Neutral>
4.43365e-05

> <r_epik_State_Penalty>
0.245983

> <r_epik_Charging_Adjusted_Penalty>
0.500488

> <i_epik_Tot_Q>
1

> <i_epik_Tot_abs_Q>
1

> <r_epik_Metal_State_Penalty>
0.245987

> <b_epik_Metal_Only>
0

> <s_lp_Force_Field>
OPLS_2005

> <r_lp_Energy>
56.9033

> <b_lp_Chiralities_Consistent>
1

> <s_lp_Variant>
AV-unprocessed.smi:1071-2

> <Gold.Version>
5.8.1

> <Gold.Id.Protein>
6NUR|6NUR_protein|mol2

> <Gold.PLP.Fitness>
37.2461

> <Gold.PLP.PLP>
-30.2097

> <Gold.PLP.part.hbond>
-3.0000

> <Gold.PLP.part.metal>
0.0000

> <Gold.PLP.part.buried>
-1.3600

> <Gold.PLP.part.nonpolar>
-27.2738

> <Gold.PLP.part.repulsive>
1.4178

> <Gold.PLP.ligand.clash>
0.1010

> <Gold.PLP.ligand.torsion>
0.8587

> <Gold.PLP.Chemscore.Hbond>
2.8960

> <Gold.PLP.Chemscore.CHOScore>
0.0000

> <Gold.PLP.Chemscore.Metal>
0.0000

> <Gold.Chemscore.Hbonds>
donor molecule, donor type, donor heavy atom, donor atom, acceptor molecule, acceptor atom, score
      L1  H    16    47       P1 10175  2.00
      P1  H  7997  8008       L1     5  0.82

> <Gold.PLP.Chemscore.Internal.Correction>
0.1667

> <Gold.Rescore>
     Score         DG    S(hbond)    S(metal)    S(lipo)     H(rot)  DE(clash)    DE(int)     intcor
     12.22     -14.60       1.27        0.00      76.72       1.60       0.27       2.11       ----

> <Gold.Chemscore.Fitness>
12.2240

> <Gold.Chemscore.DG>
-14.5962

> <Gold.Chemscore.ZeroCoef>
-5.4800

> <Gold.Chemscore.Hbond>
1.2718

> <Gold.Chemscore.Metal>
0.0000

> <Gold.Chemscore.Lipo>
76.7176

> <Gold.Chemscore.Internal_Hbond>
0.0000

> <Gold.Chemscore.DEClash>
0.2668

> <Gold.Chemscore.DEInternal>
2.1054

> <Gold.Chemscore.Rot>
1.6045

> <Gold.Chemscore.Internal.Correction>
   9.000000E+99

> <Gold.Chemscore.Hbonds>
donor molecule, donor type, donor heavy atom, donor atom, acceptor molecule, acceptor atom, score
      L1  H    16    47       P1 10175  0.97
      P1  H  7997  8008       L1     5  0.18

> <Gold.Chemscore.Hbond.Weighted>
-4.2478

> <Gold.Chemscore.Metal.Weighted>
-0.0000

> <Gold.Chemscore.Lipo.Weighted>
-8.9760

> <Gold.Chemscore.Internal_Hbond.Weighted>
0.0000

> <Gold.Chemscore.DEClash.Weighted>
0.2668

> <Gold.Chemscore.DEInternal.Weighted>
2.1054

> <Gold.Chemscore.Rot.Weighted>
4.1075

> <Gold.Chemscore.Internal.Correction.Weighted>
   9.000000E+99

> <Gold.Protein.RotatedTorsions>
[ 6907 6896 6895 6894 ] final  151.19 input  -60.11 | X-H torsion
[ 7974 7965 7964 7962 ] final  -56.05 input  175.53 | X-H torsion
[ 8008 7997 7996 7995 ] final -109.62 input   59.86 | X-H torsion
[ 10167 10162 10161 10158 ] final  140.88 input  -65.29 | X-H torsion
[ 10718 10713 10712 10709 ] final -164.86 input   66.30 | X-H torsion
[ 10763 10752 10751 10750 ] final  178.87 input  -60.55 | X-H torsion
[ 11005 11000 10999 10996 ] final  -91.38 input  -57.11 | X-H torsion

> <Gold.Protein.ActiveResidues>
 VAL166  LYS551  ARG553  GLY616  TRP617  ASP618  TYR619  PRO620  LYS621  CYS622 
 ASP623  PHE694  ASN695  SER759  ASP760  ASP761  ALA762  ILE779  LEU786  VAL792 
 PHE793  MET794  SER795  GLU796  ALA797  LYS798  CYS799  TRP800  GLU811  SER814 

> <Gold.Protein.RotatedAtoms>
  152.1041  133.4265  159.4600 H   0  0  0  0  0  0  0  0  0  0  0  0  # atno 6907 bound_to 6896
  150.6865  134.2726  159.4603 H   0  0  0  0  0  0  0  0  0  0  0  0  # atno 6908 bound_to 6896
  152.0588  134.9607  160.0625 H   0  0  0  0  0  0  0  0  0  0  0  0  # atno 6909 bound_to 6896
  145.8672  140.8243  142.9907 H   0  0  0  0  0  0  0  0  0  0  0  0  # atno 7974 bound_to 7965
  154.9620  140.0399  157.2194 H   0  0  0  0  0  0  0  0  0  0  0  0  # atno 8008 bound_to 7997
  154.7880  140.2830  155.5991 H   0  0  0  0  0  0  0  0  0  0  0  0  # atno 8009 bound_to 7997
  156.2946  140.2579  156.2721 H   0  0  0  0  0  0  0  0  0  0  0  0  # atno 8010 bound_to 7997
  139.5036  144.6207  151.6058 H   0  0  0  0  0  0  0  0  0  0  0  0  # atno 10167 bound_to 10162
  156.6451  130.8984  151.3003 H   0  0  0  0  0  0  0  0  0  0  0  0  # atno 10718 bound_to 10713
  154.5133  135.2790  155.1324 H   0  0  0  0  0  0  0  0  0  0  0  0  # atno 10763 bound_to 10752
  154.2911  135.6266  153.5389 H   0  0  0  0  0  0  0  0  0  0  0  0  # atno 10764 bound_to 10752
  152.9923  135.5674  154.5603 H   0  0  0  0  0  0  0  0  0  0  0  0  # atno 10765 bound_to 10752
  141.1546  133.7752  156.9871 H   0  0  0  0  0  0  0  0  0  0  0  0  # atno 11005 bound_to 11000
  144.6726  140.1184  143.7451 LP  0  0  0  0  0  0  0  0  0  0  0  0  # atno 17320 bound_to 7965
  145.9180  139.2528  143.1398 LP  0  0  0  0  0  0  0  0  0  0  0  0  # atno 17321 bound_to 7965
  140.5908  143.9783  150.6323 LP  0  0  0  0  0  0  0  0  0  0  0  0  # atno 17342 bound_to 10162
  140.2963  143.3290  152.1015 LP  0  0  0  0  0  0  0  0  0  0  0  0  # atno 17343 bound_to 10162
  157.7159  130.9496  150.1253 LP  0  0  0  0  0  0  0  0  0  0  0  0  # atno 17370 bound_to 10713
  156.2128  130.3668  149.8649 LP  0  0  0  0  0  0  0  0  0  0  0  0  # atno 17371 bound_to 10713
  140.1027  134.9525  157.1947 LP  0  0  0  0  0  0  0  0  0  0  0  0  # atno 17394 bound_to 11000
  140.3297  134.2824  155.7230 LP  0  0  0  0  0  0  0  0  0  0  0  0  # atno 17395 bound_to 11000

$$$$
