AV-unprocessed.smi:334|AV-procd|sdf|2366|dock3
  -GOLD-   2262022283D 1   1.00000     0.00000
 Structure written by MMmdl.
 44 46  0  0  0  0  0  0  0  0  3 V2000
  153.4759  141.4572  161.0089 C   0  0  0  0  0  0  0  0  0  0  0  0
  152.1968  141.5257  160.1580 C   0  0  2  0  0  0  0  0  0  0  0  0
  151.7676  140.1804  159.7933 N   0  0  0  0  0  0  0  0  0  0  0  0
  152.4884  139.2765  159.1092 C   0  0  0  0  0  0  0  0  0  0  0  0
  153.5907  139.5275  158.6239 O   0  0  0  0  0  0  0  0  0  0  0  0
  151.9054  137.8607  158.9602 C   0  0  0  0  0  0  0  0  0  0  0  0
  150.7866  137.7585  158.0043 N   0  0  0  0  0  0  0  0  0  0  0  0
  150.9097  138.4705  156.7949 C   0  0  0  0  0  0  0  0  0  0  0  0
  149.9398  138.4659  155.8596 C   0  0  0  0  0  0  0  0  0  0  0  0
  150.0773  139.2142  154.6297 N   0  3  0  0  0  0  0  0  0  0  0  0
  151.0918  139.8819  154.4573 O   0  0  0  0  0  0  0  0  0  0  0  0
  149.1784  139.1588  153.7958 O   0  5  0  0  0  0  0  0  0  0  0  0
  148.7447  137.6912  156.1315 C   0  0  0  0  0  0  0  0  0  0  0  0
  148.6184  137.0120  157.2882 C   0  0  0  0  0  0  0  0  0  0  0  0
  149.6709  137.0262  158.3090 C   0  0  0  0  0  0  0  0  0  0  0  0
  149.5524  136.4257  159.3770 O   0  0  0  0  0  0  0  0  0  0  0  0
  152.3992  142.3598  158.8711 C   0  0  2  0  0  0  0  0  0  0  0  0
  153.1855  143.6745  159.0696 C   0  0  0  0  0  0  0  0  0  0  0  0
  152.2844  144.7219  158.3885 C   0  0  2  0  0  0  0  0  0  0  0  0
  151.0511  144.9787  159.2746 C   0  0  0  0  0  0  0  0  0  0  0  0
  150.2255  143.6931  159.0870 C   0  0  0  0  0  0  0  0  0  0  0  0
  151.1163  142.8509  158.1513 C   0  0  1  0  0  0  0  0  0  0  0  0
  151.6841  143.9283  157.2337 C   0  0  0  0  0  0  0  0  0  0  0  0
  153.8052  142.4525  161.3074 H   0  0  0  0  0  0  0  0  0  0  0  0
  154.2932  140.9872  160.4609 H   0  0  0  0  0  0  0  0  0  0  0  0
  153.3132  140.8822  161.9210 H   0  0  0  0  0  0  0  0  0  0  0  0
  151.4153  141.9927  160.7596 H   0  0  0  0  0  0  0  0  0  0  0  0
  150.8680  139.8885  160.1464 H   0  0  0  0  0  0  0  0  0  0  0  0
  152.7166  137.1929  158.6678 H   0  0  0  0  0  0  0  0  0  0  0  0
  151.5919  137.5078  159.9443 H   0  0  0  0  0  0  0  0  0  0  0  0
  151.8332  139.0224  156.6923 H   0  0  0  0  0  0  0  0  0  0  0  0
  147.9424  137.6495  155.4094 H   0  0  0  0  0  0  0  0  0  0  0  0
  147.7191  136.4420  157.4704 H   0  0  0  0  0  0  0  0  0  0  0  0
  152.9473  141.7410  158.1578 H   0  0  0  0  0  0  0  0  0  0  0  0
  153.3613  143.9151  160.1190 H   0  0  0  0  0  0  0  0  0  0  0  0
  154.1574  143.6153  158.5780 H   0  0  0  0  0  0  0  0  0  0  0  0
  152.8119  145.6312  158.0997 H   0  0  0  0  0  0  0  0  0  0  0  0
  151.3198  145.1514  160.3173 H   0  0  0  0  0  0  0  0  0  0  0  0
  150.4923  145.8475  158.9250 H   0  0  0  0  0  0  0  0  0  0  0  0
  149.9949  143.1964  160.0288 H   0  0  0  0  0  0  0  0  0  0  0  0
  149.2753  143.9207  158.6020 H   0  0  0  0  0  0  0  0  0  0  0  0
  150.5750  142.0597  157.6317 H   0  0  0  0  0  0  0  0  0  0  0  0
  150.9185  144.4770  156.6824 H   0  0  0  0  0  0  0  0  0  0  0  0
  152.4306  143.5531  156.5314 H   0  0  0  0  0  0  0  0  0  0  0  0
  1  2  1  0  0  0  0
  1 24  1  0  0  0  0
  1 25  1  0  0  0  0
  1 26  1  0  0  0  0
  2  3  1  0  0  0  0
  2 17  1  0  0  0  0
  2 27  1  0  0  0  0
  3  4  1  0  0  0  0
  3 28  1  0  0  0  0
  4  5  2  0  0  0  0
  4  6  1  0  0  0  0
  6  7  1  0  0  0  0
  6 29  1  0  0  0  0
  6 30  1  0  0  0  0
  7 15  1  0  0  0  0
  7  8  1  0  0  0  0
  8  9  2  0  0  0  0
  8 31  1  0  0  0  0
  9 10  1  0  0  0  0
  9 13  1  0  0  0  0
 10 11  2  0  0  0  0
 10 12  1  0  0  0  0
 13 14  2  0  0  0  0
 13 32  1  0  0  0  0
 14 15  1  0  0  0  0
 14 33  1  0  0  0  0
 15 16  2  0  0  0  0
 17 22  1  0  0  0  0
 17 18  1  0  0  0  0
 17 34  1  0  0  0  0
 18 19  1  0  0  0  0
 18 35  1  0  0  0  0
 18 36  1  0  0  0  0
 19 23  1  0  0  0  0
 19 20  1  0  0  0  0
 19 37  1  0  0  0  0
 20 21  1  0  0  0  0
 20 38  1  0  0  0  0
 20 39  1  0  0  0  0
 21 22  1  0  0  0  0
 21 40  1  0  0  0  0
 21 41  1  0  0  0  0
 22 23  1  0  0  0  0
 22 42  1  0  0  0  0
 23 43  1  0  0  0  0
 23 44  1  0  0  0  0
M  CHG  1  10   1
M  CHG  1  12  -1
M  END
> <s_m_source_file>
AV-unprocessed.smi

> <i_m_source_file_index>
334

> <i_lp_mmshare_version>
43012

> <i_f3d_flags>
0

> <s_epik_input>
W0NIMl0xW0NIMl1bQ0BIXShbQ0gyXTIpW0NAQEhdKFtDSDJdW0NAQEhdMTIpW0NASF0oW0NIM10pW05IXUMoPU8pW0NIMl1uM1tjSF1jKFtOK10oPU8pW08tXSlbY0hdW2NIXWMzPU8=

> <s_epik_cmdline>
J2VwaWtfcHl0aG9uJywgJy1waCcsICc3LjAnLCAnLXRuJywgJzgnLCAnLW1hJywgJzIwMCcsICctbWV0YWxfYmluZGluZycsICctaW1hZScsICc8aW5maWxlLm1hZT4nLCAnLW9tYWUnLCAnPG91dGZpbGUubWFlPic=

> <r_lp_tautomer_probability>
1

> <r_epik_Ionization_Penalty>
2.17081e-08

> <r_epik_Ionization_Penalty_Charging>
8.1195e-11

> <r_epik_Ionization_Penalty_Neutral>
2.16269e-08

> <r_epik_State_Penalty>
-0

> <r_epik_Charging_Adjusted_Penalty>
8.1195e-11

> <i_epik_Tot_Q>
0

> <i_epik_Tot_abs_Q>
2

> <r_epik_Metal_State_Penalty>
-0

> <b_epik_Metal_Only>
0

> <s_lp_Force_Field>
OPLS_2005

> <r_lp_Energy>
61.6433

> <b_lp_Chiralities_Consistent>
1

> <s_lp_Variant>
AV-unprocessed.smi:334-5

> <Gold.Version>
5.8.1

> <Gold.Id.Protein>
6NUR|6NUR_protein|mol2

> <Gold.PLP.Fitness>
47.3656

> <Gold.PLP.PLP>
-39.6434

> <Gold.PLP.part.hbond>
-3.0000

> <Gold.PLP.part.metal>
0.0000

> <Gold.PLP.part.buried>
-6.0081

> <Gold.PLP.part.nonpolar>
-31.3602

> <Gold.PLP.part.repulsive>
0.4392

> <Gold.PLP.ligand.clash>
0.0000

> <Gold.PLP.ligand.torsion>
0.6533

> <Gold.PLP.Chemscore.Hbond>
3.0000

> <Gold.PLP.Chemscore.CHOScore>
0.0000

> <Gold.PLP.Chemscore.Metal>
0.0000

> <Gold.Chemscore.Hbonds>
donor molecule, donor type, donor heavy atom, donor atom, acceptor molecule, acceptor atom, score
      P1  H  6896  6908       L1    16  0.98
      P1  H  7989  7998       L1    11  0.86
      P1  H  7997  8008       L1     5  1.00

> <Gold.PLP.Chemscore.Internal.Correction>
0.0288

> <Gold.Rescore>
     Score         DG    S(hbond)    S(metal)    S(lipo)     H(rot)  DE(clash)    DE(int)     intcor
     22.52     -24.21       2.97        0.00     113.52       1.75       0.30       1.40       ----

> <Gold.Chemscore.Fitness>
22.5172

> <Gold.Chemscore.DG>
-24.2101

> <Gold.Chemscore.ZeroCoef>
-5.4800

> <Gold.Chemscore.Hbond>
2.9704

> <Gold.Chemscore.Metal>
0.0000

> <Gold.Chemscore.Lipo>
113.5232

> <Gold.Chemscore.Internal_Hbond>
0.0000

> <Gold.Chemscore.DEClash>
0.2964

> <Gold.Chemscore.DEInternal>
1.3965

> <Gold.Chemscore.Rot>
1.7474

> <Gold.Chemscore.Internal.Correction>
   9.000000E+99

> <Gold.Chemscore.Hbonds>
donor molecule, donor type, donor heavy atom, donor atom, acceptor molecule, acceptor atom, score
      P1  H  6896  6908       L1    16  0.86
      P1  H  7989  7998       L1    11  0.84
      P1  H  7997  8008       L1     5  1.00

> <Gold.Chemscore.Hbond.Weighted>
-9.9213

> <Gold.Chemscore.Metal.Weighted>
-0.0000

> <Gold.Chemscore.Lipo.Weighted>
-13.2822

> <Gold.Chemscore.Internal_Hbond.Weighted>
0.0000

> <Gold.Chemscore.DEClash.Weighted>
0.2964

> <Gold.Chemscore.DEInternal.Weighted>
1.3965

> <Gold.Chemscore.Rot.Weighted>
4.4733

> <Gold.Chemscore.Internal.Correction.Weighted>
   9.000000E+99

> <Gold.Protein.RotatedTorsions>
[ 6907 6896 6895 6894 ] final -166.72 input  -60.11 | X-H torsion
[ 7974 7965 7964 7962 ] final  117.27 input  175.53 | X-H torsion
[ 8008 7997 7996 7995 ] final  -98.87 input   59.86 | X-H torsion
[ 10167 10162 10161 10158 ] final -167.03 input  -65.29 | X-H torsion
[ 10718 10713 10712 10709 ] final   33.90 input   66.30 | X-H torsion
[ 10763 10752 10751 10750 ] final  -46.18 input  -60.55 | X-H torsion
[ 11005 11000 10999 10996 ] final   92.99 input  -57.11 | X-H torsion

> <Gold.Protein.ActiveResidues>
 VAL166  LYS551  ARG553  GLY616  TRP617  ASP618  TYR619  PRO620  LYS621  CYS622 
 ASP623  PHE694  ASN695  SER759  ASP760  ASP761  ALA762  ILE779  LEU786  VAL792 
 PHE793  MET794  SER795  GLU796  ALA797  LYS798  CYS799  TRP800  GLU811  SER814 

> <Gold.Protein.RotatedAtoms>
  151.4481  133.3625  159.2791 H   0  0  0  0  0  0  0  0  0  0  0  0  # atno 6907 bound_to 6896
  150.9110  134.8529  159.7436 H   0  0  0  0  0  0  0  0  0  0  0  0  # atno 6908 bound_to 6896
  152.4932  134.4410  159.9595 H   0  0  0  0  0  0  0  0  0  0  0  0  # atno 6909 bound_to 6896
  145.1694  139.3110  143.4475 H   0  0  0  0  0  0  0  0  0  0  0  0  # atno 7974 bound_to 7965
  154.8071  140.0452  157.1315 H   0  0  0  0  0  0  0  0  0  0  0  0  # atno 8008 bound_to 7997
  154.9412  140.3053  155.5100 H   0  0  0  0  0  0  0  0  0  0  0  0  # atno 8009 bound_to 7997
  156.2968  140.2305  156.4481 H   0  0  0  0  0  0  0  0  0  0  0  0  # atno 8010 bound_to 7997
  139.6076  144.0882  152.1808 H   0  0  0  0  0  0  0  0  0  0  0  0  # atno 10167 bound_to 10162
  157.3036  130.7363  149.6682 H   0  0  0  0  0  0  0  0  0  0  0  0  # atno 10718 bound_to 10713
  154.0408  135.6644  153.4790 H   0  0  0  0  0  0  0  0  0  0  0  0  # atno 10763 bound_to 10752
  153.0502  135.5089  154.7844 H   0  0  0  0  0  0  0  0  0  0  0  0  # atno 10764 bound_to 10752
  154.6820  135.3046  154.9566 H   0  0  0  0  0  0  0  0  0  0  0  0  # atno 10765 bound_to 10752
  139.8816  134.8764  156.3653 H   0  0  0  0  0  0  0  0  0  0  0  0  # atno 11005 bound_to 11000
  146.3471  140.1834  142.8589 LP  0  0  0  0  0  0  0  0  0  0  0  0  # atno 17320 bound_to 7965
  145.0248  140.8823  143.5145 LP  0  0  0  0  0  0  0  0  0  0  0  0  # atno 17321 bound_to 7965
  140.0492  144.5946  150.7349 LP  0  0  0  0  0  0  0  0  0  0  0  0  # atno 17342 bound_to 10162
  140.7296  143.2674  151.4000 LP  0  0  0  0  0  0  0  0  0  0  0  0  # atno 17343 bound_to 10162
  155.9673  130.4272  150.4735 LP  0  0  0  0  0  0  0  0  0  0  0  0  # atno 17370 bound_to 10713
  157.2720  131.0589  151.2253 LP  0  0  0  0  0  0  0  0  0  0  0  0  # atno 17371 bound_to 10713
  140.9501  133.7456  156.0261 LP  0  0  0  0  0  0  0  0  0  0  0  0  # atno 17394 bound_to 11000
  140.8115  134.3393  157.5410 LP  0  0  0  0  0  0  0  0  0  0  0  0  # atno 17395 bound_to 11000

$$$$
