AV-unprocessed.smi:1974|AV-procd|sdf|7980|dock4
  -GOLD-   2272010163D 1   1.00000     0.00000
 Structure written by MMmdl.
 34 35  0  0  0  0  0  0  0  0  1 V2000
  152.3872  140.5136  159.2224 C   0  0  0  0  0  0  0  0  0  0  0  0
  153.0390  141.3471  160.3369 C   0  0  2  0  0  0  0  0  0  0  0  0
  153.7110  142.6136  159.7718 C   0  0  0  0  0  0  0  0  0  0  0  0
  152.7641  143.6903  159.5422 N   0  0  0  0  0  0  0  0  0  0  0  0
  152.5301  144.3934  158.3790 C   0  0  0  0  0  0  0  0  0  0  0  0
  151.5515  145.3074  158.6468 C   0  0  0  0  0  0  0  0  0  0  0  0
  151.2449  145.0820  160.0179 C   0  0  0  0  0  0  0  0  0  0  0  0
  151.9715  144.1130  160.5507 N   0  0  0  0  0  0  0  0  0  0  0  0
  154.0212  140.5359  161.0537 N   0  0  0  0  0  0  0  0  0  0  0  0
  155.0017  139.8184  160.4850 C   0  0  0  0  0  0  0  0  0  0  0  0
  155.1721  139.7509  159.2671 O   0  0  0  0  0  0  0  0  0  0  0  0
  155.9133  139.0450  161.4450 C   0  0  0  0  0  0  0  0  0  0  0  0
  155.1643  138.1821  162.3590 N   0  0  0  0  0  0  0  0  0  0  0  0
  154.2664  137.1740  161.8112 C   0  0  0  0  0  0  0  0  0  0  0  0
  153.9373  136.1839  162.9301 C   0  0  0  0  0  0  0  0  0  0  0  0
  154.1878  137.0333  164.5017 S   0  0  0  0  0  0  0  0  0  0  0  0
  155.2097  138.2994  163.7420 C   0  0  0  0  0  0  0  0  0  0  0  0
  155.8375  139.1233  164.4049 O   0  0  0  0  0  0  0  0  0  0  0  0
  151.6401  141.0970  158.6837 H   0  0  0  0  0  0  0  0  0  0  0  0
  151.8845  139.6345  159.6271 H   0  0  0  0  0  0  0  0  0  0  0  0
  153.1272  140.1705  158.4986 H   0  0  0  0  0  0  0  0  0  0  0  0
  152.2537  141.6585  161.0288 H   0  0  0  0  0  0  0  0  0  0  0  0
  154.4900  142.9695  160.4476 H   0  0  0  0  0  0  0  0  0  0  0  0
  154.2021  142.3884  158.8240 H   0  0  0  0  0  0  0  0  0  0  0  0
  153.0747  144.1883  157.4691 H   0  0  0  0  0  0  0  0  0  0  0  0
  151.1196  146.0271  157.9671 H   0  0  0  0  0  0  0  0  0  0  0  0
  150.5206  145.5899  160.6375 H   0  0  0  0  0  0  0  0  0  0  0  0
  153.9534  140.5263  162.0610 H   0  0  0  0  0  0  0  0  0  0  0  0
  156.6235  138.4401  160.8779 H   0  0  0  0  0  0  0  0  0  0  0  0
  156.5058  139.7625  162.0139 H   0  0  0  0  0  0  0  0  0  0  0  0
  153.3591  137.6718  161.4663 H   0  0  0  0  0  0  0  0  0  0  0  0
  154.7128  136.6668  160.9549 H   0  0  0  0  0  0  0  0  0  0  0  0
  152.9229  135.7923  162.8502 H   0  0  0  0  0  0  0  0  0  0  0  0
  154.6249  135.3384  162.8925 H   0  0  0  0  0  0  0  0  0  0  0  0
  1  2  1  0  0  0  0
  1 19  1  0  0  0  0
  1 20  1  0  0  0  0
  1 21  1  0  0  0  0
  2  3  1  0  0  0  0
  2  9  1  0  0  0  0
  2 22  1  0  0  0  0
  3  4  1  0  0  0  0
  3 23  1  0  0  0  0
  3 24  1  0  0  0  0
  4  8  1  0  0  0  0
  4  5  1  0  0  0  0
  5  6  2  0  0  0  0
  5 25  1  0  0  0  0
  6  7  1  0  0  0  0
  6 26  1  0  0  0  0
  7  8  2  0  0  0  0
  7 27  1  0  0  0  0
  9 10  1  0  0  0  0
  9 28  1  0  0  0  0
 10 11  2  0  0  0  0
 10 12  1  0  0  0  0
 12 13  1  0  0  0  0
 12 29  1  0  0  0  0
 12 30  1  0  0  0  0
 13 17  1  0  0  0  0
 13 14  1  0  0  0  0
 14 15  1  0  0  0  0
 14 31  1  0  0  0  0
 14 32  1  0  0  0  0
 15 16  1  0  0  0  0
 15 33  1  0  0  0  0
 15 34  1  0  0  0  0
 16 17  1  0  0  0  0
 17 18  2  0  0  0  0
M  END
> <s_m_source_file>
AV-unprocessed.smi

> <i_m_source_file_index>
1974

> <i_lp_mmshare_version>
43012

> <i_f3d_flags>
0

> <s_epik_input>
bjFbY0hdW2NIXVtjSF1uMVtDSDJdW0NAQEhdKFtDSDNdKVtOSF1DKD1PKVtDSDJdTjJbQ0gyXVtDSDJdU0MyPU8=

> <s_epik_cmdline>
J2VwaWtfcHl0aG9uJywgJy1waCcsICc3LjAnLCAnLXRuJywgJzgnLCAnLW1hJywgJzIwMCcsICctbWV0YWxfYmluZGluZycsICctaW1hZScsICc8aW5maWxlLm1hZT4nLCAnLW9tYWUnLCAnPG91dGZpbGUubWFlPic=

> <r_lp_tautomer_probability>
1

> <r_epik_Ionization_Penalty>
0.000283364

> <r_epik_Ionization_Penalty_Charging>
0

> <r_epik_Ionization_Penalty_Neutral>
0.000283364

> <r_epik_State_Penalty>
-0

> <r_epik_Charging_Adjusted_Penalty>
0

> <i_epik_Tot_Q>
0

> <i_epik_Tot_abs_Q>
0

> <r_epik_Metal_State_Penalty>
-0

> <b_epik_Metal_Only>
0

> <s_lp_Force_Field>
OPLS_2005

> <r_lp_Energy>
2.8686

> <b_lp_Chiralities_Consistent>
1

> <s_lp_Variant>
AV-unprocessed.smi:1974-1

> <Gold.Version>
5.8.1

> <Gold.Id.Protein>
6NUR|6NUR_protein|mol2

> <Gold.PLP.Fitness>
45.0869

> <Gold.PLP.PLP>
-42.8495

> <Gold.PLP.part.hbond>
-1.0000

> <Gold.PLP.part.metal>
0.0000

> <Gold.PLP.part.buried>
-5.2908

> <Gold.PLP.part.nonpolar>
-35.8438

> <Gold.PLP.part.repulsive>
0.1079

> <Gold.PLP.ligand.clash>
0.0000

> <Gold.PLP.ligand.torsion>
0.4032

> <Gold.PLP.Chemscore.Hbond>
1.0000

> <Gold.PLP.Chemscore.CHOScore>
0.0000

> <Gold.PLP.Chemscore.Metal>
0.0000

> <Gold.Chemscore.Hbonds>
donor molecule, donor type, donor heavy atom, donor atom, acceptor molecule, acceptor atom, score
      P1  H  7997  8008       L1    11  0.90

> <Gold.PLP.Chemscore.Internal.Correction>
0.0439

> <Gold.Rescore>
     Score         DG    S(hbond)    S(metal)    S(lipo)     H(rot)  DE(clash)    DE(int)     intcor
     13.07     -14.32       1.00        0.00      91.69       2.04       0.01       1.24       ----

> <Gold.Chemscore.Fitness>
13.0650

> <Gold.Chemscore.DG>
-14.3223

> <Gold.Chemscore.ZeroCoef>
-5.4800

> <Gold.Chemscore.Hbond>
0.9995

> <Gold.Chemscore.Metal>
0.0000

> <Gold.Chemscore.Lipo>
91.6886

> <Gold.Chemscore.Internal_Hbond>
0.0000

> <Gold.Chemscore.DEClash>
0.0137

> <Gold.Chemscore.DEInternal>
1.2436

> <Gold.Chemscore.Rot>
2.0405

> <Gold.Chemscore.Internal.Correction>
   9.000000E+99

> <Gold.Chemscore.Hbonds>
donor molecule, donor type, donor heavy atom, donor atom, acceptor molecule, acceptor atom, score
      P1  H  7997  8008       L1    11  0.85

> <Gold.Chemscore.Hbond.Weighted>
-3.3385

> <Gold.Chemscore.Metal.Weighted>
-0.0000

> <Gold.Chemscore.Lipo.Weighted>
-10.7276

> <Gold.Chemscore.Internal_Hbond.Weighted>
0.0000

> <Gold.Chemscore.DEClash.Weighted>
0.0137

> <Gold.Chemscore.DEInternal.Weighted>
1.2436

> <Gold.Chemscore.Rot.Weighted>
5.2237

> <Gold.Chemscore.Internal.Correction.Weighted>
   9.000000E+99

> <Gold.Protein.RotatedTorsions>
[ 6907 6896 6895 6894 ] final  -30.82 input  -60.11 | X-H torsion
[ 7974 7965 7964 7962 ] final  -16.73 input  175.53 | X-H torsion
[ 8008 7997 7996 7995 ] final -110.21 input   59.86 | X-H torsion
[ 10167 10162 10161 10158 ] final   88.60 input  -65.29 | X-H torsion
[ 10718 10713 10712 10709 ] final  113.48 input   66.30 | X-H torsion
[ 10763 10752 10751 10750 ] final   -4.05 input  -60.55 | X-H torsion
[ 11005 11000 10999 10996 ] final  102.50 input  -57.11 | X-H torsion

> <Gold.Protein.ActiveResidues>
 VAL166  LYS551  ARG553  GLY616  TRP617  ASP618  TYR619  PRO620  LYS621  CYS622 
 ASP623  PHE694  ASN695  SER759  ASP760  ASP761  ALA762  ILE779  LEU786  VAL792 
 PHE793  MET794  SER795  GLU796  ALA797  LYS798  CYS799  TRP800  GLU811  SER814 

> <Gold.Protein.RotatedAtoms>
  151.1003  134.9968  159.8445 H   0  0  0  0  0  0  0  0  0  0  0  0  # atno 6907 bound_to 6896
  152.5436  134.1958  159.8702 H   0  0  0  0  0  0  0  0  0  0  0  0  # atno 6908 bound_to 6896
  151.2000  133.4572  159.2629 H   0  0  0  0  0  0  0  0  0  0  0  0  # atno 6909 bound_to 6896
  146.1974  140.3678  142.8435 H   0  0  0  0  0  0  0  0  0  0  0  0  # atno 7974 bound_to 7965
  154.9711  140.0397  157.2234 H   0  0  0  0  0  0  0  0  0  0  0  0  # atno 8008 bound_to 7997
  154.7801  140.2817  155.6048 H   0  0  0  0  0  0  0  0  0  0  0  0  # atno 8009 bound_to 7997
  156.2935  140.2593  156.2624 H   0  0  0  0  0  0  0  0  0  0  0  0  # atno 8010 bound_to 7997
  139.8656  144.6520  150.9008 H   0  0  0  0  0  0  0  0  0  0  0  0  # atno 10167 bound_to 10162
  157.6336  131.0984  150.7047 H   0  0  0  0  0  0  0  0  0  0  0  0  # atno 10718 bound_to 10713
  153.3797  135.6998  153.6575 H   0  0  0  0  0  0  0  0  0  0  0  0  # atno 10763 bound_to 10752
  153.5192  135.3615  155.2624 H   0  0  0  0  0  0  0  0  0  0  0  0  # atno 10764 bound_to 10752
  154.8691  135.4153  154.3092 H   0  0  0  0  0  0  0  0  0  0  0  0  # atno 10765 bound_to 10752
  139.8778  134.9226  156.5068 H   0  0  0  0  0  0  0  0  0  0  0  0  # atno 11005 bound_to 11000
  144.8610  140.7139  143.6107 LP  0  0  0  0  0  0  0  0  0  0  0  0  # atno 17320 bound_to 7965
  145.3598  139.1685  143.4390 LP  0  0  0  0  0  0  0  0  0  0  0  0  # atno 17321 bound_to 7965
  140.7768  143.3707  151.1655 LP  0  0  0  0  0  0  0  0  0  0  0  0  # atno 17342 bound_to 10162
  139.7332  143.9040  152.3026 LP  0  0  0  0  0  0  0  0  0  0  0  0  # atno 17343 bound_to 10162
  156.7382  130.4731  149.5483 LP  0  0  0  0  0  0  0  0  0  0  0  0  # atno 17370 bound_to 10713
  156.1557  130.6340  151.0654 LP  0  0  0  0  0  0  0  0  0  0  0  0  # atno 17371 bound_to 10713
  140.8549  133.8104  155.9206 LP  0  0  0  0  0  0  0  0  0  0  0  0  # atno 17394 bound_to 11000
  140.9107  134.2264  157.4987 LP  0  0  0  0  0  0  0  0  0  0  0  0  # atno 17395 bound_to 11000

$$$$
