AV-unprocessed.smi:639|AV-procd|sdf|3144|dock4
  -GOLD-   22720 0 73D 1   1.00000     0.00000
 Structure written by MMmdl.
 24 25  0  0  0  0  0  0  0  0  1 V2000
  144.0122  132.6889  148.9018 C   0  0  0  0  0  0  0  0  0  0  0  0
  144.2775  133.2769  150.1972 N   0  0  0  0  0  0  0  0  0  0  0  0
  144.7446  134.5398  150.4875 C   0  0  0  0  0  0  0  0  0  0  0  0
  144.8383  134.6479  151.8485 C   0  0  0  0  0  0  0  0  0  0  0  0
  145.3029  135.8330  152.6723 C   0  0  1  0  0  0  0  0  0  0  0  0
  145.6556  135.4375  154.1183 C   0  0  0  0  0  0  0  0  0  0  0  0
  146.4053  136.5511  152.0496 N   0  0  0  0  0  0  0  0  0  0  0  0
  146.0690  137.7907  151.6672 C   0  0  0  0  0  0  0  0  0  0  0  0
  146.8034  138.5964  151.1006 O   0  0  0  0  0  0  0  0  0  0  0  0
  144.7960  137.9973  152.0180 N   0  0  0  0  0  0  0  0  0  0  0  0
  144.2576  136.9405  152.6243 C   0  0  0  0  0  0  0  0  0  0  0  0
  143.1159  136.8527  153.0741 O   0  0  0  0  0  0  0  0  0  0  0  0
  144.3936  133.3702  152.3016 C   0  0  0  0  0  0  0  0  0  0  0  0
  144.0581  132.5560  151.3147 N   0  0  0  0  0  0  0  0  0  0  0  0
  144.5623  133.2267  148.1291 H   0  0  0  0  0  0  0  0  0  0  0  0
  142.9453  132.7465  148.6849 H   0  0  0  0  0  0  0  0  0  0  0  0
  144.3242  131.6438  148.8931 H   0  0  0  0  0  0  0  0  0  0  0  0
  144.9733  135.2529  149.7093 H   0  0  0  0  0  0  0  0  0  0  0  0
  144.8064  134.9791  154.6264 H   0  0  0  0  0  0  0  0  0  0  0  0
  145.9620  136.3022  154.7086 H   0  0  0  0  0  0  0  0  0  0  0  0
  146.4765  134.7199  154.1371 H   0  0  0  0  0  0  0  0  0  0  0  0
  147.3164  136.1393  151.9087 H   0  0  0  0  0  0  0  0  0  0  0  0
  144.3014  138.8617  151.8524 H   0  0  0  0  0  0  0  0  0  0  0  0
  144.3056  133.0111  153.3165 H   0  0  0  0  0  0  0  0  0  0  0  0
  1  2  1  0  0  0  0
  1 15  1  0  0  0  0
  1 16  1  0  0  0  0
  1 17  1  0  0  0  0
  2 14  1  0  0  0  0
  2  3  1  0  0  0  0
  3  4  2  0  0  0  0
  3 18  1  0  0  0  0
  4  5  1  0  0  0  0
  4 13  1  0  0  0  0
  5 11  1  0  0  0  0
  5  6  1  0  0  0  0
  5  7  1  0  0  0  0
  6 19  1  0  0  0  0
  6 20  1  0  0  0  0
  6 21  1  0  0  0  0
  7  8  1  0  0  0  0
  7 22  1  0  0  0  0
  8  9  2  0  0  0  0
  8 10  1  0  0  0  0
 10 11  1  0  0  0  0
 10 23  1  0  0  0  0
 11 12  2  0  0  0  0
 13 14  2  0  0  0  0
 13 24  1  0  0  0  0
M  END
> <s_m_source_file>
AV-unprocessed.smi

> <i_m_source_file_index>
639

> <i_lp_mmshare_version>
43012

> <i_f3d_flags>
0

> <s_epik_input>
W0NIM11uMVtjSF1jKFtjSF1uMSlbQ0BAXTIoW0NIM10pW05IXUMoPU8pW05IXUMyPU8=

> <s_epik_cmdline>
J2VwaWtfcHl0aG9uJywgJy1waCcsICc3LjAnLCAnLXRuJywgJzgnLCAnLW1hJywgJzIwMCcsICctbWV0YWxfYmluZGluZycsICctaW1hZScsICc8aW5maWxlLm1hZT4nLCAnLW9tYWUnLCAnPG91dGZpbGUubWFlPic=

> <r_lp_tautomer_probability>
1

> <r_epik_Ionization_Penalty>
0.0282779

> <r_epik_Ionization_Penalty_Charging>
0

> <r_epik_Ionization_Penalty_Neutral>
0.0282779

> <r_epik_State_Penalty>
0.022996

> <r_epik_Charging_Adjusted_Penalty>
0.022996

> <i_epik_Tot_Q>
0

> <i_epik_Tot_abs_Q>
0

> <r_epik_Metal_State_Penalty>
0.428533

> <b_epik_Metal_Only>
0

> <s_lp_Force_Field>
OPLS_2005

> <r_lp_Energy>
13.4697

> <b_lp_Chiralities_Consistent>
1

> <s_lp_Variant>
AV-unprocessed.smi:639-1

> <Gold.Version>
5.8.1

> <Gold.Id.Protein>
6NUR|6NUR_protein|mol2

> <Gold.PLP.Fitness>
36.6862

> <Gold.PLP.PLP>
-23.0640

> <Gold.PLP.part.hbond>
-3.7700

> <Gold.PLP.part.metal>
0.0000

> <Gold.PLP.part.buried>
-2.8245

> <Gold.PLP.part.nonpolar>
-17.5404

> <Gold.PLP.part.repulsive>
0.9779

> <Gold.PLP.ligand.clash>
0.0000

> <Gold.PLP.ligand.torsion>
0.6668

> <Gold.PLP.Chemscore.Hbond>
3.0000

> <Gold.PLP.Chemscore.CHOScore>
1.9430

> <Gold.PLP.Chemscore.Metal>
0.0000

> <Gold.Chemscore.Hbonds>
donor molecule, donor type, donor heavy atom, donor atom, acceptor molecule, acceptor atom, score
      L1  H     7    22       P1  7948  1.00
      L1  H    10    23       P1 10175  1.00
      P1  H  7954  7966       L1     9  1.00
      L1  C     3    18       P1  7921  0.95
      L1  C    13    24       P1 10957  1.00

> <Gold.PLP.Chemscore.Internal.Correction>
0.1268

> <Gold.Rescore>
     Score         DG    S(hbond)    S(metal)    S(lipo)     H(rot)  DE(clash)    DE(int)     intcor
     15.49     -16.32       2.85        0.00      33.21       1.00       0.25       0.58       ----

> <Gold.Chemscore.Fitness>
15.4858

> <Gold.Chemscore.DG>
-16.3150

> <Gold.Chemscore.ZeroCoef>
-5.4800

> <Gold.Chemscore.Hbond>
2.8472

> <Gold.Chemscore.Metal>
0.0000

> <Gold.Chemscore.Lipo>
33.2070

> <Gold.Chemscore.Internal_Hbond>
0.0000

> <Gold.Chemscore.DEClash>
0.2506

> <Gold.Chemscore.DEInternal>
0.5787

> <Gold.Chemscore.Rot>
1.0000

> <Gold.Chemscore.Internal.Correction>
   9.000000E+99

> <Gold.Chemscore.Hbonds>
donor molecule, donor type, donor heavy atom, donor atom, acceptor molecule, acceptor atom, score
      L1  H     7    22       P1  7948  0.96
      L1  H    10    23       P1 10175  0.95
      P1  H  7954  7966       L1     9  0.90

> <Gold.Chemscore.Hbond.Weighted>
-9.5098

> <Gold.Chemscore.Metal.Weighted>
-0.0000

> <Gold.Chemscore.Lipo.Weighted>
-3.8852

> <Gold.Chemscore.Internal_Hbond.Weighted>
0.0000

> <Gold.Chemscore.DEClash.Weighted>
0.2506

> <Gold.Chemscore.DEInternal.Weighted>
0.5787

> <Gold.Chemscore.Rot.Weighted>
2.5600

> <Gold.Chemscore.Internal.Correction.Weighted>
   9.000000E+99

> <Gold.Protein.RotatedTorsions>
[ 6907 6896 6895 6894 ] final  -44.22 input  -60.11 | X-H torsion
[ 7974 7965 7964 7962 ] final  -50.31 input  175.53 | X-H torsion
[ 8008 7997 7996 7995 ] final   76.32 input   59.86 | X-H torsion
[ 10167 10162 10161 10158 ] final  -58.66 input  -65.29 | X-H torsion
[ 10718 10713 10712 10709 ] final    9.60 input   66.30 | X-H torsion
[ 10763 10752 10751 10750 ] final  108.23 input  -60.55 | X-H torsion
[ 11005 11000 10999 10996 ] final  -38.18 input  -57.11 | X-H torsion

> <Gold.Protein.ActiveResidues>
 VAL166  LYS551  ARG553  GLY616  TRP617  ASP618  TYR619  PRO620  LYS621  CYS622 
 ASP623  PHE694  ASN695  SER759  ASP760  ASP761  ALA762  ILE779  LEU786  VAL792 
 PHE793  MET794  SER795  GLU796  ALA797  LYS798  CYS799  TRP800  GLU811  SER814 

> <Gold.Protein.RotatedAtoms>
  150.9352  134.8765  159.7576 H   0  0  0  0  0  0  0  0  0  0  0  0  # atno 6907 bound_to 6896
  152.5056  134.4021  159.9430 H   0  0  0  0  0  0  0  0  0  0  0  0  # atno 6908 bound_to 6896
  151.4045  133.3707  159.2771 H   0  0  0  0  0  0  0  0  0  0  0  0  # atno 6909 bound_to 6896
  145.9312  140.7747  142.9598 H   0  0  0  0  0  0  0  0  0  0  0  0  # atno 7974 bound_to 7965
  155.8257  140.3468  155.5541 H   0  0  0  0  0  0  0  0  0  0  0  0  # atno 8008 bound_to 7997
  155.8295  140.0925  157.1821 H   0  0  0  0  0  0  0  0  0  0  0  0  # atno 8009 bound_to 7997
  154.4004  140.1415  156.3584 H   0  0  0  0  0  0  0  0  0  0  0  0  # atno 8010 bound_to 7997
  140.6183  143.2410  151.5543 H   0  0  0  0  0  0  0  0  0  0  0  0  # atno 10167 bound_to 10162
  156.9687  130.5960  149.5667 H   0  0  0  0  0  0  0  0  0  0  0  0  # atno 10718 bound_to 10713
  153.4178  135.3818  155.2092 H   0  0  0  0  0  0  0  0  0  0  0  0  # atno 10763 bound_to 10752
  154.8742  135.3810  154.4421 H   0  0  0  0  0  0  0  0  0  0  0  0  # atno 10764 bound_to 10752
  153.4938  135.7088  153.5932 H   0  0  0  0  0  0  0  0  0  0  0  0  # atno 10765 bound_to 10752
  141.0008  133.6956  156.2019 H   0  0  0  0  0  0  0  0  0  0  0  0  # atno 11005 bound_to 11000
  144.6765  140.2130  143.7375 LP  0  0  0  0  0  0  0  0  0  0  0  0  # atno 17320 bound_to 7965
  145.8423  139.2136  143.1820 LP  0  0  0  0  0  0  0  0  0  0  0  0  # atno 17321 bound_to 7965
  139.5417  144.2629  152.1364 LP  0  0  0  0  0  0  0  0  0  0  0  0  # atno 17342 bound_to 10162
  140.1844  144.4813  150.6511 LP  0  0  0  0  0  0  0  0  0  0  0  0  # atno 17343 bound_to 10162
  156.0292  130.5384  150.8488 LP  0  0  0  0  0  0  0  0  0  0  0  0  # atno 17370 bound_to 10713
  157.5608  131.0946  150.9562 LP  0  0  0  0  0  0  0  0  0  0  0  0  # atno 17371 bound_to 10713
  140.6892  134.4685  157.5589 LP  0  0  0  0  0  0  0  0  0  0  0  0  # atno 17394 bound_to 11000
  139.9038  134.8495  156.1788 LP  0  0  0  0  0  0  0  0  0  0  0  0  # atno 17395 bound_to 11000

$$$$
