AV-unprocessed.smi:2092|AV-procd|sdf|8542|dock8
  -GOLD-   2272011263D 1   1.00000     0.00000
 Structure written by MMmdl.
 44 45  0  0  0  0  0  0  0  0  1 V2000
  145.0977  142.5079  157.1565 C   0  0  0  0  0  0  0  0  0  0  0  0
  145.5250  142.7134  155.6961 C   0  0  2  0  0  0  0  0  0  0  0  0
  144.3387  142.7444  154.9018 O   0  0  0  0  0  0  0  0  0  0  0  0
  143.2821  143.5701  155.3852 C   0  0  0  0  0  0  0  0  0  0  0  0
  143.4967  145.0136  154.9164 C   0  0  0  0  0  0  0  0  0  0  0  0
  144.0582  145.0020  153.7076 F   0  0  0  0  0  0  0  0  0  0  0  0
  142.3300  145.6532  154.8396 F   0  0  0  0  0  0  0  0  0  0  0  0
  144.3062  145.6556  155.7584 F   0  0  0  0  0  0  0  0  0  0  0  0
  146.4693  141.5943  155.2279 C   0  0  0  0  0  0  0  0  0  0  0  0
  146.1088  140.4178  155.2701 O   0  0  0  0  0  0  0  0  0  0  0  0
  147.6591  141.9834  154.7434 N   0  0  0  0  0  0  0  0  0  0  0  0
  148.6304  141.0977  154.1098 C   0  0  0  0  0  0  0  0  0  0  0  0
  149.9070  140.9242  154.9199 C   0  0  0  0  0  0  0  0  0  0  0  0
  150.8832  139.9919  154.5187 C   0  0  0  0  0  0  0  0  0  0  0  0
  152.0625  139.8889  155.2795 C   0  0  0  0  0  0  0  0  0  0  0  0
  152.3055  140.6390  156.3751 N   0  0  0  0  0  0  0  0  0  0  0  0
  151.3673  141.5302  156.7800 C   0  0  0  0  0  0  0  0  0  0  0  0
  151.6386  142.3225  157.9158 N   0  0  0  0  0  0  0  0  0  0  0  0
  151.5495  143.7749  157.7813 C   0  0  0  0  0  0  0  0  0  0  0  0
  151.5544  144.4396  159.1682 C   0  0  0  0  0  0  0  0  0  0  0  0
  152.7048  144.0227  159.8961 O   0  0  0  0  0  0  0  0  0  0  0  0
  152.7154  142.6151  160.1096 C   0  0  0  0  0  0  0  0  0  0  0  0
  152.7480  141.8820  158.7575 C   0  0  0  0  0  0  0  0  0  0  0  0
  150.1485  141.6915  156.0805 C   0  0  0  0  0  0  0  0  0  0  0  0
  145.9613  142.4730  157.8217 H   0  0  0  0  0  0  0  0  0  0  0  0
  144.5380  141.5805  157.2843 H   0  0  0  0  0  0  0  0  0  0  0  0
  144.4586  143.3255  157.4903 H   0  0  0  0  0  0  0  0  0  0  0  0
  146.0295  143.6784  155.6161 H   0  0  0  0  0  0  0  0  0  0  0  0
  142.3195  143.2055  155.0236 H   0  0  0  0  0  0  0  0  0  0  0  0
  143.2537  143.5504  156.4747 H   0  0  0  0  0  0  0  0  0  0  0  0
  147.8765  142.9693  154.7502 H   0  0  0  0  0  0  0  0  0  0  0  0
  148.1688  140.1186  153.9816 H   0  0  0  0  0  0  0  0  0  0  0  0
  148.8672  141.4633  153.1090 H   0  0  0  0  0  0  0  0  0  0  0  0
  150.7417  139.3774  153.6418 H   0  0  0  0  0  0  0  0  0  0  0  0
  152.8358  139.1901  154.9966 H   0  0  0  0  0  0  0  0  0  0  0  0
  152.3923  144.1356  157.1901 H   0  0  0  0  0  0  0  0  0  0  0  0
  150.6367  144.0512  157.2520 H   0  0  0  0  0  0  0  0  0  0  0  0
  151.5734  145.5245  159.0642 H   0  0  0  0  0  0  0  0  0  0  0  0
  150.6487  144.1881  159.7227 H   0  0  0  0  0  0  0  0  0  0  0  0
  153.5940  142.3532  160.6991 H   0  0  0  0  0  0  0  0  0  0  0  0
  151.8419  142.3179  160.6923 H   0  0  0  0  0  0  0  0  0  0  0  0
  152.7216  140.8081  158.9358 H   0  0  0  0  0  0  0  0  0  0  0  0
  153.6851  142.0941  158.2415 H   0  0  0  0  0  0  0  0  0  0  0  0
  149.4182  142.4162  156.4070 H   0  0  0  0  0  0  0  0  0  0  0  0
  1  2  1  0  0  0  0
  1 25  1  0  0  0  0
  1 26  1  0  0  0  0
  1 27  1  0  0  0  0
  2  3  1  0  0  0  0
  2  9  1  0  0  0  0
  2 28  1  0  0  0  0
  3  4  1  0  0  0  0
  4  5  1  0  0  0  0
  4 29  1  0  0  0  0
  4 30  1  0  0  0  0
  5  6  1  0  0  0  0
  5  7  1  0  0  0  0
  5  8  1  0  0  0  0
  9 10  2  0  0  0  0
  9 11  1  0  0  0  0
 11 12  1  0  0  0  0
 11 31  1  0  0  0  0
 12 13  1  0  0  0  0
 12 32  1  0  0  0  0
 12 33  1  0  0  0  0
 13 24  1  0  0  0  0
 13 14  2  0  0  0  0
 14 15  1  0  0  0  0
 14 34  1  0  0  0  0
 15 16  2  0  0  0  0
 15 35  1  0  0  0  0
 16 17  1  0  0  0  0
 17 18  1  0  0  0  0
 17 24  2  0  0  0  0
 18 23  1  0  0  0  0
 18 19  1  0  0  0  0
 19 20  1  0  0  0  0
 19 36  1  0  0  0  0
 19 37  1  0  0  0  0
 20 21  1  0  0  0  0
 20 38  1  0  0  0  0
 20 39  1  0  0  0  0
 21 22  1  0  0  0  0
 22 23  1  0  0  0  0
 22 40  1  0  0  0  0
 22 41  1  0  0  0  0
 23 42  1  0  0  0  0
 23 43  1  0  0  0  0
 24 44  1  0  0  0  0
M  END
> <s_m_source_file>
AV-unprocessed.smi

> <i_m_source_file_index>
2092

> <i_lp_mmshare_version>
43012

> <i_f3d_flags>
0

> <s_epik_input>
RkMoRikoRilbQ0gyXU9bQ0BASF0oW0NIM10pQyg9TylbTkhdW0NIMl1jMVtjSF1bY0hdbmMoW2NIXTEpTjJbQ0gyXVtDSDJdT1tDSDJdW0NIMl0y

> <s_epik_cmdline>
J2VwaWtfcHl0aG9uJywgJy1waCcsICc3LjAnLCAnLXRuJywgJzgnLCAnLW1hJywgJzIwMCcsICctbWV0YWxfYmluZGluZycsICctaW1hZScsICc8aW5maWxlLm1hZT4nLCAnLW9tYWUnLCAnPG91dGZpbGUubWFlPic=

> <r_lp_tautomer_probability>
1

> <r_epik_Ionization_Penalty>
0.00451782

> <r_epik_Ionization_Penalty_Charging>
0

> <r_epik_Ionization_Penalty_Neutral>
0.00451782

> <r_epik_State_Penalty>
0.00326147

> <r_epik_Charging_Adjusted_Penalty>
0.00326147

> <i_epik_Tot_Q>
0

> <i_epik_Tot_abs_Q>
0

> <r_epik_Metal_State_Penalty>
-0

> <b_epik_Metal_Only>
0

> <s_lp_Force_Field>
OPLS_2005

> <r_lp_Energy>
14.8319

> <b_lp_Chiralities_Consistent>
1

> <s_lp_Variant>
AV-unprocessed.smi:2092-1

> <Gold.Version>
5.8.1

> <Gold.Id.Protein>
6NUR|6NUR_protein|mol2

> <Gold.PLP.Fitness>
46.1451

> <Gold.PLP.PLP>
-43.4692

> <Gold.PLP.part.hbond>
-1.6653

> <Gold.PLP.part.metal>
0.0000

> <Gold.PLP.part.buried>
-2.5087

> <Gold.PLP.part.nonpolar>
-38.4941

> <Gold.PLP.part.repulsive>
0.4256

> <Gold.PLP.ligand.clash>
0.0001

> <Gold.PLP.ligand.torsion>
0.9555

> <Gold.PLP.Chemscore.Hbond>
1.3912

> <Gold.PLP.Chemscore.CHOScore>
0.0000

> <Gold.PLP.Chemscore.Metal>
0.0000

> <Gold.Chemscore.Hbonds>
donor molecule, donor type, donor heavy atom, donor atom, acceptor molecule, acceptor atom, score
      L1  H    11    31       P1  8028  0.62
      P1  H  7997  8010       L1    16  0.51

> <Gold.PLP.Chemscore.Internal.Correction>
0.4134

> <Gold.Rescore>
     Score         DG    S(hbond)    S(metal)    S(lipo)     H(rot)  DE(clash)    DE(int)     intcor
     11.43     -12.84       0.96        0.00      90.14       2.49       0.31       1.10       ----

> <Gold.Chemscore.Fitness>
11.4267

> <Gold.Chemscore.DG>
-12.8427

> <Gold.Chemscore.ZeroCoef>
-5.4800

> <Gold.Chemscore.Hbond>
0.9551

> <Gold.Chemscore.Metal>
0.0000

> <Gold.Chemscore.Lipo>
90.1434

> <Gold.Chemscore.Internal_Hbond>
0.0000

> <Gold.Chemscore.DEClash>
0.3130

> <Gold.Chemscore.DEInternal>
1.1031

> <Gold.Chemscore.Rot>
2.4899

> <Gold.Chemscore.Internal.Correction>
   9.000000E+99

> <Gold.Chemscore.Hbonds>
donor molecule, donor type, donor heavy atom, donor atom, acceptor molecule, acceptor atom, score
      L1  H    11    31       P1  8028  0.53
      P1  H  7997  8010       L1    16  0.07

> <Gold.Chemscore.Hbond.Weighted>
-3.1901

> <Gold.Chemscore.Metal.Weighted>
-0.0000

> <Gold.Chemscore.Lipo.Weighted>
-10.5468

> <Gold.Chemscore.Internal_Hbond.Weighted>
0.0000

> <Gold.Chemscore.DEClash.Weighted>
0.3130

> <Gold.Chemscore.DEInternal.Weighted>
1.1031

> <Gold.Chemscore.Rot.Weighted>
6.3741

> <Gold.Chemscore.Internal.Correction.Weighted>
   9.000000E+99

> <Gold.Protein.RotatedTorsions>
[ 6907 6896 6895 6894 ] final -172.54 input  -60.11 | X-H torsion
[ 7974 7965 7964 7962 ] final -142.06 input  175.53 | X-H torsion
[ 8008 7997 7996 7995 ] final   65.21 input   59.86 | X-H torsion
[ 10167 10162 10161 10158 ] final  -79.84 input  -65.29 | X-H torsion
[ 10718 10713 10712 10709 ] final  -55.90 input   66.30 | X-H torsion
[ 10763 10752 10751 10750 ] final  -88.11 input  -60.55 | X-H torsion
[ 11005 11000 10999 10996 ] final -107.79 input  -57.11 | X-H torsion

> <Gold.Protein.ActiveResidues>
 VAL166  LYS551  ARG553  GLY616  TRP617  ASP618  TYR619  PRO620  LYS621  CYS622 
 ASP623  PHE694  ASN695  SER759  ASP760  ASP761  ALA762  ILE779  LEU786  VAL792 
 PHE793  MET794  SER795  GLU796  ALA797  LYS798  CYS799  TRP800  GLU811  SER814 

> <Gold.Protein.RotatedAtoms>
  151.5416  133.3432  159.2936 H   0  0  0  0  0  0  0  0  0  0  0  0  # atno 6907 bound_to 6896
  150.8532  134.7866  159.7036 H   0  0  0  0  0  0  0  0  0  0  0  0  # atno 6908 bound_to 6896
  152.4573  134.5272  159.9852 H   0  0  0  0  0  0  0  0  0  0  0  0  # atno 6909 bound_to 6896
  144.8472  140.6004  143.5414 H   0  0  0  0  0  0  0  0  0  0  0  0  # atno 7974 bound_to 7965
  155.6582  140.3497  155.4773 H   0  0  0  0  0  0  0  0  0  0  0  0  # atno 8008 bound_to 7997
  155.9791  140.1171  157.0766 H   0  0  0  0  0  0  0  0  0  0  0  0  # atno 8009 bound_to 7997
  154.4186  140.1142  156.5396 H   0  0  0  0  0  0  0  0  0  0  0  0  # atno 8010 bound_to 7997
  140.4557  143.2469  151.8423 H   0  0  0  0  0  0  0  0  0  0  0  0  # atno 10167 bound_to 10162
  156.1331  130.4158  150.0232 H   0  0  0  0  0  0  0  0  0  0  0  0  # atno 10718 bound_to 10713
  154.6410  135.5389  153.7790 H   0  0  0  0  0  0  0  0  0  0  0  0  # atno 10763 bound_to 10752
  153.0334  135.6459  154.1159 H   0  0  0  0  0  0  0  0  0  0  0  0  # atno 10764 bound_to 10752
  154.1083  135.2928  155.3216 H   0  0  0  0  0  0  0  0  0  0  0  0  # atno 10765 bound_to 10752
  141.0935  133.9012  157.2018 H   0  0  0  0  0  0  0  0  0  0  0  0  # atno 11005 bound_to 11000
  145.4573  139.1516  143.3885 LP  0  0  0  0  0  0  0  0  0  0  0  0  # atno 17320 bound_to 7965
  146.2754  140.4702  142.8797 LP  0  0  0  0  0  0  0  0  0  0  0  0  # atno 17321 bound_to 7965
  139.4801  144.5067  151.8987 LP  0  0  0  0  0  0  0  0  0  0  0  0  # atno 17342 bound_to 10162
  140.4154  144.2314  150.5888 LP  0  0  0  0  0  0  0  0  0  0  0  0  # atno 17343 bound_to 10162
  156.8139  130.9334  151.3643 LP  0  0  0  0  0  0  0  0  0  0  0  0  # atno 17370 bound_to 10713
  157.6507  130.8882  149.9628 LP  0  0  0  0  0  0  0  0  0  0  0  0  # atno 17371 bound_to 10713
  139.9767  135.0111  156.9648 LP  0  0  0  0  0  0  0  0  0  0  0  0  # atno 17394 bound_to 11000
  140.5195  134.0922  155.7288 LP  0  0  0  0  0  0  0  0  0  0  0  0  # atno 17395 bound_to 11000

$$$$
