AV-unprocessed.smi:3303|AV-procd|sdf|12684|dock6
  -GOLD-   2272019 23D 1   1.00000     0.00000
 Structure written by MMmdl.
 44 45  0  0  0  0  0  0  0  0  2 V2000
  151.2895  138.2132  155.0901 C   0  0  0  0  0  0  0  0  0  0  0  0
  150.3801  139.2797  154.4546 C   0  0  1  0  0  0  0  0  0  0  0  0
  148.9827  138.7282  154.1109 C   0  0  0  0  0  0  0  0  0  0  0  0
  148.1665  139.7446  153.4015 N   0  3  1  0  0  0  0  0  0  0  0  0
  146.9157  139.1863  152.8394 C   0  0  0  0  0  0  0  0  0  0  0  0
  147.9791  141.0032  154.1780 C   0  0  1  0  0  0  0  0  0  0  0  0
  146.9972  140.8609  155.3618 C   0  0  0  0  0  0  0  0  0  0  0  0
  149.3461  141.5962  154.5905 C   0  0  0  0  0  0  0  0  0  0  0  0
  150.2960  140.5860  155.2778 C   0  0  1  0  0  0  0  0  0  0  0  0
  149.9186  140.3098  156.6618 N   0  0  0  0  0  0  0  0  0  0  0  0
  149.9997  141.4919  157.5081 C   0  0  0  0  0  0  0  0  0  0  0  0
  151.3640  141.5245  158.2092 C   0  0  0  0  0  0  0  0  0  0  0  0
  151.5825  142.8197  158.9675 C   0  0  0  0  0  0  0  0  0  0  0  0
  151.6956  144.0465  158.2792 C   0  0  0  0  0  0  0  0  0  0  0  0
  151.9077  145.2194  159.0294 C   0  0  0  0  0  0  0  0  0  0  0  0
  151.9993  145.1206  160.4312 C   0  0  0  0  0  0  0  0  0  0  0  0
  151.8749  143.8477  161.0230 C   0  0  0  0  0  0  0  0  0  0  0  0
  151.6718  142.7168  160.3129 N   0  0  0  0  0  0  0  0  0  0  0  0
  150.8710  137.8245  156.0190 H   0  0  0  0  0  0  0  0  0  0  0  0
  152.2763  138.6203  155.3122 H   0  0  0  0  0  0  0  0  0  0  0  0
  151.4283  137.3675  154.4160 H   0  0  0  0  0  0  0  0  0  0  0  0
  150.8495  139.5462  153.5061 H   0  0  0  0  0  0  0  0  0  0  0  0
  149.0923  137.8537  153.4682 H   0  0  0  0  0  0  0  0  0  0  0  0
  148.4674  138.3876  155.0095 H   0  0  0  0  0  0  0  0  0  0  0  0
  146.2806  138.7636  153.6185 H   0  0  0  0  0  0  0  0  0  0  0  0
  147.1419  138.3931  152.1262 H   0  0  0  0  0  0  0  0  0  0  0  0
  146.3506  139.9546  152.3106 H   0  0  0  0  0  0  0  0  0  0  0  0
  147.5279  141.7235  153.4942 H   0  0  0  0  0  0  0  0  0  0  0  0
  146.9346  141.7929  155.9243 H   0  0  0  0  0  0  0  0  0  0  0  0
  147.2921  140.0798  156.0608 H   0  0  0  0  0  0  0  0  0  0  0  0
  145.9879  140.6317  155.0208 H   0  0  0  0  0  0  0  0  0  0  0  0
  149.8427  141.9410  153.6825 H   0  0  0  0  0  0  0  0  0  0  0  0
  149.2058  142.4963  155.1879 H   0  0  0  0  0  0  0  0  0  0  0  0
  151.2982  141.0171  155.3007 H   0  0  0  0  0  0  0  0  0  0  0  0
  150.5420  139.6087  157.0373 H   0  0  0  0  0  0  0  0  0  0  0  0
  149.8728  142.3888  156.9007 H   0  0  0  0  0  0  0  0  0  0  0  0
  149.2072  141.4853  158.2554 H   0  0  0  0  0  0  0  0  0  0  0  0
  151.4491  140.6859  158.9018 H   0  0  0  0  0  0  0  0  0  0  0  0
  152.1660  141.4034  157.4794 H   0  0  0  0  0  0  0  0  0  0  0  0
  151.6236  144.0901  157.2024 H   0  0  0  0  0  0  0  0  0  0  0  0
  151.9992  146.1769  158.5384 H   0  0  0  0  0  0  0  0  0  0  0  0
  152.1614  145.9987  161.0384 H   0  0  0  0  0  0  0  0  0  0  0  0
  151.9412  143.7349  162.0950 H   0  0  0  0  0  0  0  0  0  0  0  0
  148.7188  140.0129  152.5995 H   0  0  0  0  0  0  0  0  0  0  0  0
  1  2  1  0  0  0  0
  1 19  1  0  0  0  0
  1 20  1  0  0  0  0
  1 21  1  0  0  0  0
  2  9  1  0  0  0  0
  2  3  1  0  0  0  0
  2 22  1  0  0  0  0
  3  4  1  0  0  0  0
  3 23  1  0  0  0  0
  3 24  1  0  0  0  0
  4  5  1  0  0  0  0
  4  6  1  0  0  0  0
  4 44  1  0  0  0  0
  5 25  1  0  0  0  0
  5 26  1  0  0  0  0
  5 27  1  0  0  0  0
  6  7  1  0  0  0  0
  6  8  1  0  0  0  0
  6 28  1  0  0  0  0
  7 29  1  0  0  0  0
  7 30  1  0  0  0  0
  7 31  1  0  0  0  0
  8  9  1  0  0  0  0
  8 32  1  0  0  0  0
  8 33  1  0  0  0  0
  9 10  1  0  0  0  0
  9 34  1  0  0  0  0
 10 11  1  0  0  0  0
 10 35  1  0  0  0  0
 11 12  1  0  0  0  0
 11 36  1  0  0  0  0
 11 37  1  0  0  0  0
 12 13  1  0  0  0  0
 12 38  1  0  0  0  0
 12 39  1  0  0  0  0
 13 18  1  0  0  0  0
 13 14  2  0  0  0  0
 14 15  1  0  0  0  0
 14 40  1  0  0  0  0
 15 16  2  0  0  0  0
 15 41  1  0  0  0  0
 16 17  1  0  0  0  0
 16 42  1  0  0  0  0
 17 18  2  0  0  0  0
 17 43  1  0  0  0  0
M  CHG  1   4   1
M  END
> <s_m_source_file>
AV-unprocessed.smi

> <i_m_source_file_index>
3303

> <i_lp_mmshare_version>
43012

> <i_f3d_flags>
0

> <s_epik_input>
W0NIM11bQ0BASF0xW0NIMl1OKFtDSDNdKVtDQEBIXShbQ0gzXSlbQ0gyXVtDQEhdMVtOSF1bQ0gyXVtDSDJdYzJbY0hdW2NIXVtjSF1bY0hdbjI=

> <s_epik_cmdline>
J2VwaWtfcHl0aG9uJywgJy1waCcsICc3LjAnLCAnLXRuJywgJzgnLCAnLW1hJywgJzIwMCcsICctbWV0YWxfYmluZGluZycsICctaW1hZScsICc8aW5maWxlLm1hZT4nLCAnLW9tYWUnLCAnPG91dGZpbGUubWFlPic=

> <r_epik_Ionization_Penalty>
2.31085

> <r_epik_Ionization_Penalty_Charging>
0.000313057

> <r_epik_Ionization_Penalty_Neutral>
2.31054

> <r_epik_State_Penalty>
2.4087

> <r_epik_Charging_Adjusted_Penalty>
2.40902

> <i_epik_Tot_Q>
1

> <i_epik_Tot_abs_Q>
1

> <r_epik_Metal_State_Penalty>
2.30979

> <b_epik_Metal_Only>
0

> <s_lp_Force_Field>
OPLS_2005

> <r_lp_Energy>
26.6876

> <b_lp_Chiralities_Consistent>
1

> <s_lp_Variant>
AV-unprocessed.smi:3303-28

> <Gold.Version>
5.8.1

> <Gold.Id.Protein>
6NUR|6NUR_protein|mol2

> <Gold.PLP.Fitness>
45.1499

> <Gold.PLP.PLP>
-42.7353

> <Gold.PLP.part.hbond>
-1.4579

> <Gold.PLP.part.metal>
0.0000

> <Gold.PLP.part.buried>
-2.3894

> <Gold.PLP.part.nonpolar>
-38.0433

> <Gold.PLP.part.repulsive>
0.1137

> <Gold.PLP.ligand.clash>
0.0000

> <Gold.PLP.ligand.torsion>
0.2986

> <Gold.PLP.Chemscore.Hbond>
1.0000

> <Gold.PLP.Chemscore.CHOScore>
0.0000

> <Gold.PLP.Chemscore.Metal>
0.0000

> <Gold.Chemscore.Hbonds>
donor molecule, donor type, donor heavy atom, donor atom, acceptor molecule, acceptor atom, score
      L1  H     4    44       P1  7957  1.00

> <Gold.PLP.Chemscore.Internal.Correction>
0.0117

> <Gold.Rescore>
     Score         DG    S(hbond)    S(metal)    S(lipo)     H(rot)  DE(clash)    DE(int)     intcor
     19.70     -20.04       1.00        0.00     125.00       1.33       0.06       0.28       ----

> <Gold.Chemscore.Fitness>
19.6966

> <Gold.Chemscore.DG>
-20.0356

> <Gold.Chemscore.ZeroCoef>
-5.4800

> <Gold.Chemscore.Hbond>
0.9966

> <Gold.Chemscore.Metal>
0.0000

> <Gold.Chemscore.Lipo>
124.9980

> <Gold.Chemscore.Internal_Hbond>
0.0000

> <Gold.Chemscore.DEClash>
0.0562

> <Gold.Chemscore.DEInternal>
0.2828

> <Gold.Chemscore.Rot>
1.3272

> <Gold.Chemscore.Internal.Correction>
   9.000000E+99

> <Gold.Chemscore.Hbonds>
donor molecule, donor type, donor heavy atom, donor atom, acceptor molecule, acceptor atom, score
      L1  H     4    44       P1  7957  1.00

> <Gold.Chemscore.Hbond.Weighted>
-3.3285

> <Gold.Chemscore.Metal.Weighted>
-0.0000

> <Gold.Chemscore.Lipo.Weighted>
-14.6248

> <Gold.Chemscore.Internal_Hbond.Weighted>
0.0000

> <Gold.Chemscore.DEClash.Weighted>
0.0562

> <Gold.Chemscore.DEInternal.Weighted>
0.2828

> <Gold.Chemscore.Rot.Weighted>
3.3976

> <Gold.Chemscore.Internal.Correction.Weighted>
   9.000000E+99

> <Gold.Protein.RotatedTorsions>
[ 6907 6896 6895 6894 ] final -161.85 input  -60.11 | X-H torsion
[ 7974 7965 7964 7962 ] final -141.56 input  175.53 | X-H torsion
[ 8008 7997 7996 7995 ] final    2.11 input   59.86 | X-H torsion
[ 10167 10162 10161 10158 ] final  178.83 input  -65.29 | X-H torsion
[ 10718 10713 10712 10709 ] final  151.81 input   66.30 | X-H torsion
[ 10763 10752 10751 10750 ] final   36.53 input  -60.55 | X-H torsion
[ 11005 11000 10999 10996 ] final -137.64 input  -57.11 | X-H torsion

> <Gold.Protein.ActiveResidues>
 VAL166  LYS551  ARG553  GLY616  TRP617  ASP618  TYR619  PRO620  LYS621  CYS622 
 ASP623  PHE694  ASN695  SER759  ASP760  ASP761  ALA762  ILE779  LEU786  VAL792 
 PHE793  MET794  SER795  GLU796  ALA797  LYS798  CYS799  TRP800  GLU811  SER814 

> <Gold.Protein.RotatedAtoms>
  151.3711  133.3854  159.2699 H   0  0  0  0  0  0  0  0  0  0  0  0  # atno 6907 bound_to 6896
  150.9650  134.9033  159.7764 H   0  0  0  0  0  0  0  0  0  0  0  0  # atno 6908 bound_to 6896
  152.5164  134.3671  159.9357 H   0  0  0  0  0  0  0  0  0  0  0  0  # atno 6909 bound_to 6896
  144.8510  140.6064  143.5390 H   0  0  0  0  0  0  0  0  0  0  0  0  # atno 7974 bound_to 7965
  154.6877  140.2646  155.6844 H   0  0  0  0  0  0  0  0  0  0  0  0  # atno 8008 bound_to 7997
  156.2720  140.2797  156.1367 H   0  0  0  0  0  0  0  0  0  0  0  0  # atno 8009 bound_to 7997
  155.0941  140.0374  157.2667 H   0  0  0  0  0  0  0  0  0  0  0  0  # atno 8010 bound_to 7997
  139.5310  144.2634  152.0688 H   0  0  0  0  0  0  0  0  0  0  0  0  # atno 10167 bound_to 10162
  157.2659  131.0807  151.1633 H   0  0  0  0  0  0  0  0  0  0  0  0  # atno 10718 bound_to 10713
  153.0073  135.6303  154.2000 H   0  0  0  0  0  0  0  0  0  0  0  0  # atno 10763 bound_to 10752
  154.1743  135.2816  155.3073 H   0  0  0  0  0  0  0  0  0  0  0  0  # atno 10764 bound_to 10752
  154.5884  135.5625  153.7314 H   0  0  0  0  0  0  0  0  0  0  0  0  # atno 10765 bound_to 10752
  140.8692  134.2072  157.4661 H   0  0  0  0  0  0  0  0  0  0  0  0  # atno 11005 bound_to 11000
  145.4501  139.1524  143.3923 LP  0  0  0  0  0  0  0  0  0  0  0  0  # atno 17320 bound_to 7965
  146.2784  140.4626  142.8786 LP  0  0  0  0  0  0  0  0  0  0  0  0  # atno 17321 bound_to 7965
  140.2097  144.4575  150.6391 LP  0  0  0  0  0  0  0  0  0  0  0  0  # atno 17342 bound_to 10162
  140.6488  143.2220  151.6124 LP  0  0  0  0  0  0  0  0  0  0  0  0  # atno 17343 bound_to 10162
  157.3125  130.6896  149.6223 LP  0  0  0  0  0  0  0  0  0  0  0  0  # atno 17370 bound_to 10713
  155.9663  130.4359  150.5113 LP  0  0  0  0  0  0  0  0  0  0  0  0  # atno 17371 bound_to 10713
  139.8711  134.9766  156.4928 LP  0  0  0  0  0  0  0  0  0  0  0  0  # atno 17394 bound_to 11000
  140.8593  133.8072  155.9248 LP  0  0  0  0  0  0  0  0  0  0  0  0  # atno 17395 bound_to 11000

$$$$
