AV-unprocessed.smi:2474|AV-procd|sdf|9754|dock6
  -GOLD-   2272013393D 1   1.00000     0.00000
 Structure written by MMmdl.
 40 41  0  0  0  0  0  0  0  0  1 V2000
  144.2847  145.3544  154.6672 C   0  0  0  0  0  0  0  0  0  0  0  0
  145.1476  144.1509  154.8387 C   0  0  0  0  0  0  0  0  0  0  0  0
  145.2717  143.3577  155.9522 C   0  0  0  0  0  0  0  0  0  0  0  0
  146.1537  142.2878  155.7877 N   0  0  0  0  0  0  0  0  0  0  0  0
  146.7010  142.2580  154.5691 C   0  0  0  0  0  0  0  0  0  0  0  0
  147.6217  141.1729  154.0949 C   0  0  1  0  0  0  0  0  0  0  0  0
  147.2428  140.6643  152.6965 C   0  0  0  0  0  0  0  0  0  0  0  0
  149.1170  141.5458  154.2165 C   0  0  0  0  0  0  0  0  0  0  0  0
  149.3684  142.4331  155.3506 N   0  0  0  0  0  0  0  0  0  0  0  0
  150.2548  142.2066  156.3306 C   0  0  0  0  0  0  0  0  0  0  0  0
  150.8828  141.1568  156.4676 O   0  0  0  0  0  0  0  0  0  0  0  0
  150.4210  143.2862  157.1062 N   0  0  0  0  0  0  0  0  0  0  0  0
  151.4377  143.4194  158.1448 C   0  0  1  0  0  0  0  0  0  0  0  0
  151.1436  144.6628  159.0123 C   0  0  0  0  0  0  0  0  0  0  0  0
  152.2033  144.8914  160.1008 C   0  0  0  0  0  0  0  0  0  0  0  0
  152.2979  143.7140  161.0810 C   0  0  0  0  0  0  0  0  0  0  0  0
  152.7934  142.1905  160.2315 S   0  0  0  0  0  0  0  0  0  0  0  0
  151.4752  142.1323  158.9866 C   0  0  0  0  0  0  0  0  0  0  0  0
  146.1605  143.5801  153.5391 S   0  0  0  0  0  0  0  0  0  0  0  0
  143.6997  145.5495  155.5664 H   0  0  0  0  0  0  0  0  0  0  0  0
  143.5900  145.2165  153.8384 H   0  0  0  0  0  0  0  0  0  0  0  0
  144.8894  146.2375  154.4602 H   0  0  0  0  0  0  0  0  0  0  0  0
  144.7648  143.4754  156.8985 H   0  0  0  0  0  0  0  0  0  0  0  0
  147.4623  140.3308  154.7699 H   0  0  0  0  0  0  0  0  0  0  0  0
  146.2089  140.3189  152.6714 H   0  0  0  0  0  0  0  0  0  0  0  0
  147.8773  139.8298  152.3975 H   0  0  0  0  0  0  0  0  0  0  0  0
  147.3510  141.4484  151.9466 H   0  0  0  0  0  0  0  0  0  0  0  0
  149.7129  140.6438  154.3578 H   0  0  0  0  0  0  0  0  0  0  0  0
  149.4690  141.9995  153.2883 H   0  0  0  0  0  0  0  0  0  0  0  0
  148.9003  143.3275  155.3357 H   0  0  0  0  0  0  0  0  0  0  0  0
  149.8573  144.1013  156.9145 H   0  0  0  0  0  0  0  0  0  0  0  0
  152.4118  143.5402  157.6666 H   0  0  0  0  0  0  0  0  0  0  0  0
  151.0979  145.5513  158.3811 H   0  0  0  0  0  0  0  0  0  0  0  0
  150.1597  144.5700  159.4742 H   0  0  0  0  0  0  0  0  0  0  0  0
  153.1755  145.0671  159.6386 H   0  0  0  0  0  0  0  0  0  0  0  0
  151.9591  145.7997  160.6522 H   0  0  0  0  0  0  0  0  0  0  0  0
  153.0268  143.9309  161.8620 H   0  0  0  0  0  0  0  0  0  0  0  0
  151.3390  143.5510  161.5741 H   0  0  0  0  0  0  0  0  0  0  0  0
  150.5209  141.9751  159.4910 H   0  0  0  0  0  0  0  0  0  0  0  0
  151.6470  141.2647  158.3488 H   0  0  0  0  0  0  0  0  0  0  0  0
  1  2  1  0  0  0  0
  1 20  1  0  0  0  0
  1 21  1  0  0  0  0
  1 22  1  0  0  0  0
  2 19  1  0  0  0  0
  2  3  2  0  0  0  0
  3  4  1  0  0  0  0
  3 23  1  0  0  0  0
  4  5  2  0  0  0  0
  5  6  1  0  0  0  0
  5 19  1  0  0  0  0
  6  7  1  0  0  0  0
  6  8  1  0  0  0  0
  6 24  1  0  0  0  0
  7 25  1  0  0  0  0
  7 26  1  0  0  0  0
  7 27  1  0  0  0  0
  8  9  1  0  0  0  0
  8 28  1  0  0  0  0
  8 29  1  0  0  0  0
  9 10  1  0  0  0  0
  9 30  1  0  0  0  0
 10 11  2  0  0  0  0
 10 12  1  0  0  0  0
 12 13  1  0  0  0  0
 12 31  1  0  0  0  0
 13 18  1  0  0  0  0
 13 14  1  0  0  0  0
 13 32  1  0  0  0  0
 14 15  1  0  0  0  0
 14 33  1  0  0  0  0
 14 34  1  0  0  0  0
 15 16  1  0  0  0  0
 15 35  1  0  0  0  0
 15 36  1  0  0  0  0
 16 17  1  0  0  0  0
 16 37  1  0  0  0  0
 16 38  1  0  0  0  0
 17 18  1  0  0  0  0
 18 39  1  0  0  0  0
 18 40  1  0  0  0  0
M  END
> <s_m_source_file>
AV-unprocessed.smi

> <i_m_source_file_index>
2474

> <i_lp_mmshare_version>
43012

> <i_f3d_flags>
0

> <s_epik_input>
W0NIM11jMVtjSF1uYyhzMSlbQ0BIXShbQ0gzXSlbQ0gyXVtOSF1DKD1PKVtOSF1bQ0BASF0yW0NIMl1bQ0gyXVtDSDJdU1tDSDJdMg==

> <s_epik_cmdline>
J2VwaWtfcHl0aG9uJywgJy1waCcsICc3LjAnLCAnLXRuJywgJzgnLCAnLW1hJywgJzIwMCcsICctbWV0YWxfYmluZGluZycsICctaW1hZScsICc8aW5maWxlLm1hZT4nLCAnLW9tYWUnLCAnPG91dGZpbGUubWFlPic=

> <r_epik_Ionization_Penalty>
0.000644338

> <r_epik_Ionization_Penalty_Charging>
0

> <r_epik_Ionization_Penalty_Neutral>
0.000644338

> <r_epik_State_Penalty>
0.000374131

> <r_epik_Charging_Adjusted_Penalty>
0.000374131

> <i_epik_Tot_Q>
0

> <i_epik_Tot_abs_Q>
0

> <r_epik_Metal_State_Penalty>
-0

> <b_epik_Metal_Only>
0

> <s_lp_Force_Field>
OPLS_2005

> <r_lp_Energy>
-6.83814

> <b_lp_Chiralities_Consistent>
1

> <s_lp_Variant>
AV-unprocessed.smi:2474-4

> <Gold.Version>
5.8.1

> <Gold.Id.Protein>
6NUR|6NUR_protein|mol2

> <Gold.PLP.Fitness>
46.9984

> <Gold.PLP.PLP>
-43.2133

> <Gold.PLP.part.hbond>
-2.0000

> <Gold.PLP.part.metal>
0.0000

> <Gold.PLP.part.buried>
-5.3371

> <Gold.PLP.part.nonpolar>
-36.1952

> <Gold.PLP.part.repulsive>
0.2958

> <Gold.PLP.ligand.clash>
0.0000

> <Gold.PLP.ligand.torsion>
0.9553

> <Gold.PLP.Chemscore.Hbond>
1.8560

> <Gold.PLP.Chemscore.CHOScore>
0.0000

> <Gold.PLP.Chemscore.Metal>
0.0000

> <Gold.Chemscore.Hbonds>
donor molecule, donor type, donor heavy atom, donor atom, acceptor molecule, acceptor atom, score
      L1  H     9    30       P1  8028  0.71
      L1  H    12    31       P1  8028  0.80

> <Gold.PLP.Chemscore.Internal.Correction>
0.1276

> <Gold.Rescore>
     Score         DG    S(hbond)    S(metal)    S(lipo)     H(rot)  DE(clash)    DE(int)     intcor
     17.22     -19.91       1.46        0.00     113.54       1.46       0.48       2.21       ----

> <Gold.Chemscore.Fitness>
17.2239

> <Gold.Chemscore.DG>
-19.9096

> <Gold.Chemscore.ZeroCoef>
-5.4800

> <Gold.Chemscore.Hbond>
1.4631

> <Gold.Chemscore.Metal>
0.0000

> <Gold.Chemscore.Lipo>
113.5423

> <Gold.Chemscore.Internal_Hbond>
0.0000

> <Gold.Chemscore.DEClash>
0.4765

> <Gold.Chemscore.DEInternal>
2.2092

> <Gold.Chemscore.Rot>
1.4616

> <Gold.Chemscore.Internal.Correction>
   9.000000E+99

> <Gold.Chemscore.Hbonds>
donor molecule, donor type, donor heavy atom, donor atom, acceptor molecule, acceptor atom, score
      L1  H     9    30       P1  8028  0.69
      L1  H    12    31       P1  8028  0.70

> <Gold.Chemscore.Hbond.Weighted>
-4.8868

> <Gold.Chemscore.Metal.Weighted>
-0.0000

> <Gold.Chemscore.Lipo.Weighted>
-13.2844

> <Gold.Chemscore.Internal_Hbond.Weighted>
0.0000

> <Gold.Chemscore.DEClash.Weighted>
0.4765

> <Gold.Chemscore.DEInternal.Weighted>
2.2092

> <Gold.Chemscore.Rot.Weighted>
3.7416

> <Gold.Chemscore.Internal.Correction.Weighted>
   9.000000E+99

> <Gold.Protein.RotatedTorsions>
[ 6907 6896 6895 6894 ] final   72.77 input  -60.11 | X-H torsion
[ 7974 7965 7964 7962 ] final   86.74 input  175.53 | X-H torsion
[ 8008 7997 7996 7995 ] final   -7.37 input   59.86 | X-H torsion
[ 10167 10162 10161 10158 ] final  -50.38 input  -65.29 | X-H torsion
[ 10718 10713 10712 10709 ] final  150.61 input   66.30 | X-H torsion
[ 10763 10752 10751 10750 ] final  -98.15 input  -60.55 | X-H torsion
[ 11005 11000 10999 10996 ] final -115.22 input  -57.11 | X-H torsion

> <Gold.Protein.ActiveResidues>
 VAL166  LYS551  ARG553  GLY616  TRP617  ASP618  TYR619  PRO620  LYS621  CYS622 
 ASP623  PHE694  ASN695  SER759  ASP760  ASP761  ALA762  ILE779  LEU786  VAL792 
 PHE793  MET794  SER795  GLU796  ALA797  LYS798  CYS799  TRP800  GLU811  SER814 

> <Gold.Protein.RotatedAtoms>
  152.4886  134.4522  159.9577 H   0  0  0  0  0  0  0  0  0  0  0  0  # atno 6907 bound_to 6896
  151.4513  133.3611  159.2803 H   0  0  0  0  0  0  0  0  0  0  0  0  # atno 6908 bound_to 6896
  150.9019  134.8456  159.7426 H   0  0  0  0  0  0  0  0  0  0  0  0  # atno 6909 bound_to 6896
  145.5683  139.2311  143.2420 H   0  0  0  0  0  0  0  0  0  0  0  0  # atno 7974 bound_to 7965
  154.5845  140.2409  155.8006 H   0  0  0  0  0  0  0  0  0  0  0  0  # atno 8008 bound_to 7997
  156.2203  140.2999  155.9893 H   0  0  0  0  0  0  0  0  0  0  0  0  # atno 8009 bound_to 7997
  155.2482  140.0409  157.2974 H   0  0  0  0  0  0  0  0  0  0  0  0  # atno 8010 bound_to 7997
  140.6640  143.2660  151.4351 H   0  0  0  0  0  0  0  0  0  0  0  0  # atno 10167 bound_to 10162
  157.2813  131.0836  151.1530 H   0  0  0  0  0  0  0  0  0  0  0  0  # atno 10718 bound_to 10713
  154.7389  135.5020  153.9089 H   0  0  0  0  0  0  0  0  0  0  0  0  # atno 10763 bound_to 10752
  153.1023  135.6688  153.9658 H   0  0  0  0  0  0  0  0  0  0  0  0  # atno 10764 bound_to 10752
  153.9440  135.3064  155.3420 H   0  0  0  0  0  0  0  0  0  0  0  0  # atno 10765 bound_to 10752
  141.0502  133.9699  157.2849 H   0  0  0  0  0  0  0  0  0  0  0  0  # atno 11005 bound_to 11000
  146.1802  140.6509  142.9192 LP  0  0  0  0  0  0  0  0  0  0  0  0  # atno 17320 bound_to 7965
  144.7450  140.5043  143.6842 LP  0  0  0  0  0  0  0  0  0  0  0  0  # atno 17321 bound_to 7965
  139.5883  144.1556  152.2056 LP  0  0  0  0  0  0  0  0  0  0  0  0  # atno 17342 bound_to 10162
  140.0902  144.5627  150.7060 LP  0  0  0  0  0  0  0  0  0  0  0  0  # atno 17343 bound_to 10162
  157.2962  130.6820  149.6140 LP  0  0  0  0  0  0  0  0  0  0  0  0  # atno 17370 bound_to 10713
  155.9664  130.4406  150.5305 LP  0  0  0  0  0  0  0  0  0  0  0  0  # atno 17371 bound_to 10713
  139.9344  135.0197  156.8507 LP  0  0  0  0  0  0  0  0  0  0  0  0  # atno 17394 bound_to 11000
  140.6070  134.0118  155.7561 LP  0  0  0  0  0  0  0  0  0  0  0  0  # atno 17395 bound_to 11000

$$$$
