AV-unprocessed.smi:224|AV-procd|sdf|1710|dock7
  -GOLD-   2262020173D 1   1.00000     0.00000
 Structure written by MMmdl.
 56 59  0  0  0  0  0  0  0  0  2 V2000
  146.0276  132.6100  150.2924 C   0  0  0  0  0  0  0  0  0  0  0  0
  144.8498  133.5865  150.4058 C   0  0  1  0  0  0  0  0  0  0  0  0
  144.2695  133.7276  149.1249 O   0  0  0  0  0  0  0  0  0  0  0  0
  143.7805  133.0870  151.3987 C   0  0  0  0  0  0  0  0  0  0  0  0
  144.0096  133.5290  152.8025 N   0  3  1  0  0  0  0  0  0  0  0  0
  145.4536  133.5304  153.1576 C   0  0  0  0  0  0  0  0  0  0  0  0
  145.6631  133.8312  154.6521 C   0  0  0  0  0  0  0  0  0  0  0  0
  144.9801  135.0617  155.0432 N   0  0  0  0  0  0  0  0  0  0  0  0
  145.6462  136.2470  154.9845 C   0  0  0  0  0  0  0  0  0  0  0  0
  145.0812  137.3040  154.3415 N   0  0  0  0  0  0  0  0  0  0  0  0
  145.7082  138.4823  154.2901 C   0  0  0  0  0  0  0  0  0  0  0  0
  146.8915  138.8189  154.8039 N   0  0  0  0  0  0  0  0  0  0  0  0
  147.4734  137.7627  155.4398 C   0  0  0  0  0  0  0  0  0  0  0  0
  146.9284  136.4534  155.5717 C   0  0  0  0  0  0  0  0  0  0  0  0
  147.8211  135.6420  156.2625 N   0  0  0  0  0  0  0  0  0  0  0  0
  148.8259  136.4284  156.5354 C   0  0  0  0  0  0  0  0  0  0  0  0
  148.6956  137.7233  156.0880 N   0  0  0  0  0  0  0  0  0  0  0  0
  149.6584  138.8020  156.2539 C   0  0  0  0  0  0  0  0  0  0  0  0
  150.8005  138.7768  155.2108 C   0  0  1  0  0  0  0  0  0  0  0  0
  150.4979  139.6962  154.1750 O   0  0  0  0  0  0  0  0  0  0  0  0
  152.1536  139.1500  155.8018 C   0  0  0  0  0  0  0  0  0  0  0  0
  153.1291  138.4105  154.8961 C   0  0  0  0  0  0  0  0  0  0  0  0
  152.4760  137.1738  154.6641 O   0  0  0  0  0  0  0  0  0  0  0  0
  151.0711  137.3969  154.5763 C   0  0  0  0  0  0  0  0  0  0  0  0
  143.5554  135.0773  154.7178 C   0  0  0  0  0  0  0  0  0  0  0  0
  143.2990  134.7780  153.2231 C   0  0  1  0  0  0  0  0  0  0  0  0
  143.6055  135.9957  152.3251 C   0  0  0  0  0  0  0  0  0  0  0  0
  146.5222  132.4816  151.2556 H   0  0  0  0  0  0  0  0  0  0  0  0
  146.7747  132.9739  149.5863 H   0  0  0  0  0  0  0  0  0  0  0  0
  145.7005  131.6263  149.9536 H   0  0  0  0  0  0  0  0  0  0  0  0
  145.2460  134.5522  150.7174 H   0  0  0  0  0  0  0  0  0  0  0  0
  144.9605  133.8079  148.4850 H   0  0  0  0  0  0  0  0  0  0  0  0
  142.8087  133.4599  151.0708 H   0  0  0  0  0  0  0  0  0  0  0  0
  143.7054  132.0000  151.3610 H   0  0  0  0  0  0  0  0  0  0  0  0
  145.8904  132.5580  152.9282 H   0  0  0  0  0  0  0  0  0  0  0  0
  145.9819  134.2601  152.5431 H   0  0  0  0  0  0  0  0  0  0  0  0
  145.2517  133.0156  155.2479 H   0  0  0  0  0  0  0  0  0  0  0  0
  146.7257  133.8721  154.8948 H   0  0  0  0  0  0  0  0  0  0  0  0
  145.1864  139.2682  153.7643 H   0  0  0  0  0  0  0  0  0  0  0  0
  149.6950  136.0845  157.0776 H   0  0  0  0  0  0  0  0  0  0  0  0
  149.1211  139.7499  156.2016 H   0  0  0  0  0  0  0  0  0  0  0  0
  150.0694  138.7411  157.2625 H   0  0  0  0  0  0  0  0  0  0  0  0
  149.6225  139.5199  153.8655 H   0  0  0  0  0  0  0  0  0  0  0  0
  152.3350  140.2249  155.8433 H   0  0  0  0  0  0  0  0  0  0  0  0
  152.2444  138.7584  156.8160 H   0  0  0  0  0  0  0  0  0  0  0  0
  153.2625  138.9370  153.9498 H   0  0  0  0  0  0  0  0  0  0  0  0
  154.1081  138.2689  155.3541 H   0  0  0  0  0  0  0  0  0  0  0  0
  150.5752  136.5910  155.1157 H   0  0  0  0  0  0  0  0  0  0  0  0
  150.7409  137.3448  153.5377 H   0  0  0  0  0  0  0  0  0  0  0  0
  143.0746  134.3098  155.3254 H   0  0  0  0  0  0  0  0  0  0  0  0
  143.0745  136.0145  154.9925 H   0  0  0  0  0  0  0  0  0  0  0  0
  142.2283  134.5940  153.1468 H   0  0  0  0  0  0  0  0  0  0  0  0
  143.1165  136.8910  152.7101 H   0  0  0  0  0  0  0  0  0  0  0  0
  143.2394  135.8510  151.3091 H   0  0  0  0  0  0  0  0  0  0  0  0
  144.6722  136.2088  152.2669 H   0  0  0  0  0  0  0  0  0  0  0  0
  143.6062  132.7989  153.3725 H   0  0  0  0  0  0  0  0  0  0  0  0
  1  2  1  0  0  0  0
  1 28  1  0  0  0  0
  1 29  1  0  0  0  0
  1 30  1  0  0  0  0
  2  3  1  0  0  0  0
  2  4  1  0  0  0  0
  2 31  1  0  0  0  0
  3 32  1  0  0  0  0
  4  5  1  0  0  0  0
  4 33  1  0  0  0  0
  4 34  1  0  0  0  0
  5 26  1  0  0  0  0
  5  6  1  0  0  0  0
  5 56  1  0  0  0  0
  6  7  1  0  0  0  0
  6 35  1  0  0  0  0
  6 36  1  0  0  0  0
  7  8  1  0  0  0  0
  7 37  1  0  0  0  0
  7 38  1  0  0  0  0
  8  9  1  0  0  0  0
  8 25  1  0  0  0  0
  9 14  1  0  0  0  0
  9 10  2  0  0  0  0
 10 11  1  0  0  0  0
 11 12  2  0  0  0  0
 11 39  1  0  0  0  0
 12 13  1  0  0  0  0
 13 17  1  0  0  0  0
 13 14  2  0  0  0  0
 14 15  1  0  0  0  0
 15 16  2  0  0  0  0
 16 17  1  0  0  0  0
 16 40  1  0  0  0  0
 17 18  1  0  0  0  0
 18 19  1  0  0  0  0
 18 41  1  0  0  0  0
 18 42  1  0  0  0  0
 19 24  1  0  0  0  0
 19 20  1  0  0  0  0
 19 21  1  0  0  0  0
 20 43  1  0  0  0  0
 21 22  1  0  0  0  0
 21 44  1  0  0  0  0
 21 45  1  0  0  0  0
 22 23  1  0  0  0  0
 22 46  1  0  0  0  0
 22 47  1  0  0  0  0
 23 24  1  0  0  0  0
 24 48  1  0  0  0  0
 24 49  1  0  0  0  0
 25 26  1  0  0  0  0
 25 50  1  0  0  0  0
 25 51  1  0  0  0  0
 26 27  1  0  0  0  0
 26 52  1  0  0  0  0
 27 53  1  0  0  0  0
 27 54  1  0  0  0  0
 27 55  1  0  0  0  0
M  CHG  1   5   1
M  END
> <s_m_source_file>
AV-unprocessed.smi

> <i_m_source_file_index>
224

> <i_lp_mmshare_version>
43012

> <i_f3d_flags>
0

> <s_epik_input>
W0NIM11bQ0BIXShbT0hdKVtDSDJdTjFbQ0gyXVtDSDJdTihbQ0gyXVtDQEhdMVtDSDNdKWMobltjSF1uMiljKGMyMyluW2NIXW4zW0NIMl1bQ0BAXTQoW09IXSlbQ0gyXVtDSDJdT1tDSDJdNA==

> <s_epik_cmdline>
J2VwaWtfcHl0aG9uJywgJy1waCcsICc3LjAnLCAnLXRuJywgJzgnLCAnLW1hJywgJzIwMCcsICctbWV0YWxfYmluZGluZycsICctaW1hZScsICc8aW5maWxlLm1hZT4nLCAnLW9tYWUnLCAnPG91dGZpbGUubWFlPic=

> <r_lp_tautomer_probability>
1

> <r_epik_Ionization_Penalty>
0.00516958

> <r_epik_Ionization_Penalty_Charging>
0.00509693

> <r_epik_Ionization_Penalty_Neutral>
7.26542e-05

> <r_epik_State_Penalty>
-0

> <r_epik_Charging_Adjusted_Penalty>
0.00509693

> <i_epik_Tot_Q>
1

> <i_epik_Tot_abs_Q>
1

> <r_epik_Metal_State_Penalty>
-0

> <b_epik_Metal_Only>
0

> <s_lp_Force_Field>
OPLS_2005

> <r_lp_Energy>
49.6762

> <b_lp_Chiralities_Consistent>
1

> <s_lp_Variant>
AV-unprocessed.smi:224-4

> <Gold.Version>
5.8.1

> <Gold.Id.Protein>
6NUR|6NUR_protein|mol2

> <Gold.PLP.Fitness>
48.0159

> <Gold.PLP.PLP>
-35.1809

> <Gold.PLP.part.hbond>
-5.6240

> <Gold.PLP.part.metal>
0.0000

> <Gold.PLP.part.buried>
-6.8028

> <Gold.PLP.part.nonpolar>
-23.3659

> <Gold.PLP.part.repulsive>
0.2809

> <Gold.PLP.ligand.clash>
0.0000

> <Gold.PLP.ligand.torsion>
2.3114

> <Gold.PLP.Chemscore.Hbond>
4.7040

> <Gold.PLP.Chemscore.CHOScore>
1.0000

> <Gold.PLP.Chemscore.Metal>
0.0000

> <Gold.Chemscore.Hbonds>
donor molecule, donor type, donor heavy atom, donor atom, acceptor molecule, acceptor atom, score
      L1  H     3    32       P1  7921  1.00
      L1  H     5    56       P1 10957  2.00
      P1  H  7989  7998       L1    20  1.00
      P1  H 10752 10765       L1    23  0.61
      L1  C    11    39       P1 10175  1.00

> <Gold.PLP.Chemscore.Internal.Correction>
0.3458

> <Gold.Rescore>
     Score         DG    S(hbond)    S(metal)    S(lipo)     H(rot)  DE(clash)    DE(int)     intcor
     14.51     -18.43       3.70        0.00      71.08       3.02       0.02       3.90       ----

> <Gold.Chemscore.Fitness>
14.5057

> <Gold.Chemscore.DG>
-18.4291

> <Gold.Chemscore.ZeroCoef>
-5.4800

> <Gold.Chemscore.Hbond>
3.7043

> <Gold.Chemscore.Metal>
0.0000

> <Gold.Chemscore.Lipo>
71.0760

> <Gold.Chemscore.Internal_Hbond>
0.0000

> <Gold.Chemscore.DEClash>
0.0189

> <Gold.Chemscore.DEInternal>
3.9045

> <Gold.Chemscore.Rot>
3.0231

> <Gold.Chemscore.Internal.Correction>
   9.000000E+99

> <Gold.Chemscore.Hbonds>
donor molecule, donor type, donor heavy atom, donor atom, acceptor molecule, acceptor atom, score
      L1  H     3    32       P1  7921  0.90
      L1  H     5    56       P1 10957  0.59
      P1  H  7989  7998       L1    20  0.99
      P1  H 10752 10765       L1    23  0.57

> <Gold.Chemscore.Hbond.Weighted>
-12.3723

> <Gold.Chemscore.Metal.Weighted>
-0.0000

> <Gold.Chemscore.Lipo.Weighted>
-8.3159

> <Gold.Chemscore.Internal_Hbond.Weighted>
0.0000

> <Gold.Chemscore.DEClash.Weighted>
0.0189

> <Gold.Chemscore.DEInternal.Weighted>
3.9045

> <Gold.Chemscore.Rot.Weighted>
7.7391

> <Gold.Chemscore.Internal.Correction.Weighted>
   9.000000E+99

> <Gold.Protein.RotatedTorsions>
[ 6907 6896 6895 6894 ] final  135.85 input  -60.11 | X-H torsion
[ 7974 7965 7964 7962 ] final   27.38 input  175.53 | X-H torsion
[ 8008 7997 7996 7995 ] final  -49.83 input   59.86 | X-H torsion
[ 10167 10162 10161 10158 ] final  -30.96 input  -65.29 | X-H torsion
[ 10718 10713 10712 10709 ] final   -9.14 input   66.30 | X-H torsion
[ 10763 10752 10751 10750 ] final  154.19 input  -60.55 | X-H torsion
[ 11005 11000 10999 10996 ] final -104.13 input  -57.11 | X-H torsion

> <Gold.Protein.ActiveResidues>
 VAL166  LYS551  ARG553  GLY616  TRP617  ASP618  TYR619  PRO620  LYS621  CYS622 
 ASP623  PHE694  ASN695  SER759  ASP760  ASP761  ALA762  ILE779  LEU786  VAL792 
 PHE793  MET794  SER795  GLU796  ALA797  LYS798  CYS799  TRP800  GLU811  SER814 

> <Gold.Protein.RotatedAtoms>
  152.2959  133.5607  159.5586 H   0  0  0  0  0  0  0  0  0  0  0  0  # atno 6907 bound_to 6896
  150.7256  134.0361  159.3759 H   0  0  0  0  0  0  0  0  0  0  0  0  # atno 6908 bound_to 6896
  151.8264  135.0636  160.0482 H   0  0  0  0  0  0  0  0  0  0  0  0  # atno 6909 bound_to 6896
  146.1787  139.7199  142.8916 H   0  0  0  0  0  0  0  0  0  0  0  0  # atno 7974 bound_to 7965
  154.4051  140.1287  156.4567 H   0  0  0  0  0  0  0  0  0  0  0  0  # atno 8008 bound_to 7997
  155.7313  140.3491  155.5041 H   0  0  0  0  0  0  0  0  0  0  0  0  # atno 8009 bound_to 7997
  155.9125  140.1038  157.1259 H   0  0  0  0  0  0  0  0  0  0  0  0  # atno 8010 bound_to 7997
  140.7242  143.3808  151.1605 H   0  0  0  0  0  0  0  0  0  0  0  0  # atno 10167 bound_to 10162
  156.6924  130.5069  149.5940 H   0  0  0  0  0  0  0  0  0  0  0  0  # atno 10718 bound_to 10713
  154.1484  135.2816  155.3142 H   0  0  0  0  0  0  0  0  0  0  0  0  # atno 10763 bound_to 10752
  154.6236  135.5459  153.7605 H   0  0  0  0  0  0  0  0  0  0  0  0  # atno 10764 bound_to 10752
  153.0229  135.6445  154.1629 H   0  0  0  0  0  0  0  0  0  0  0  0  # atno 10765 bound_to 10752
  141.1114  133.8697  157.1572 H   0  0  0  0  0  0  0  0  0  0  0  0  # atno 11005 bound_to 11000
  145.4138  141.0399  143.3002 LP  0  0  0  0  0  0  0  0  0  0  0  0  # atno 17320 bound_to 7965
  144.8279  139.5679  143.6957 LP  0  0  0  0  0  0  0  0  0  0  0  0  # atno 17321 bound_to 7965
  139.7396  143.8944  152.3046 LP  0  0  0  0  0  0  0  0  0  0  0  0  # atno 17342 bound_to 10162
  139.8761  144.7042  150.8931 LP  0  0  0  0  0  0  0  0  0  0  0  0  # atno 17343 bound_to 10162
  156.1788  130.6485  151.0926 LP  0  0  0  0  0  0  0  0  0  0  0  0  # atno 17370 bound_to 10713
  157.7004  131.0778  150.6839 LP  0  0  0  0  0  0  0  0  0  0  0  0  # atno 17371 bound_to 10713
  140.0011  135.0027  157.0191 LP  0  0  0  0  0  0  0  0  0  0  0  0  # atno 17394 bound_to 11000
  140.4763  134.1335  155.7210 LP  0  0  0  0  0  0  0  0  0  0  0  0  # atno 17395 bound_to 11000

$$$$
