AV-unprocessed.smi:1747|AV-procd|sdf|7035|dock3
  -GOLD-   22720 8253D 1   1.00000     0.00000
 Structure written by MMmdl.
 40 41  0  0  0  0  0  0  0  0  1 V2000
  145.9757  131.9854  148.8650 C   0  0  0  0  0  0  0  0  0  0  0  0
  144.7948  132.3774  149.7562 C   0  0  0  0  0  0  0  0  0  0  0  0
  143.6917  131.8969  149.4960 O   0  0  0  0  0  0  0  0  0  0  0  0
  144.9969  133.2319  150.7880 N   0  0  0  0  0  0  0  0  0  0  0  0
  146.2797  133.8648  151.1336 C   0  0  0  0  0  0  0  0  0  0  0  0
  146.1429  135.3925  150.9802 C   0  0  0  0  0  0  0  0  0  0  0  0
  145.0577  135.8658  151.8616 N   0  0  0  0  0  0  0  0  0  0  0  0
  145.1869  136.6862  152.9354 C   0  0  0  0  0  0  0  0  0  0  0  0
  144.2322  137.0762  153.6091 O   0  0  0  0  0  0  0  0  0  0  0  0
  146.4465  137.0590  153.2084 N   0  0  0  0  0  0  0  0  0  0  0  0
  146.8385  137.9727  154.2744 C   0  0  0  0  0  0  0  0  0  0  0  0
  147.6117  139.1876  153.7303 C   0  0  0  0  0  0  0  0  0  0  0  0
  148.9835  139.3409  154.3232 C   0  0  0  0  0  0  0  0  0  0  0  0
  150.0388  138.4738  154.1877 C   0  0  0  0  0  0  0  0  0  0  0  0
  151.4432  139.0159  155.0650 S   0  0  0  0  0  0  0  0  0  0  0  0
  150.5316  140.4245  155.5930 C   0  0  0  0  0  0  0  0  0  0  0  0
  151.1000  141.4795  156.4785 C   0  0  0  0  0  0  0  0  0  0  0  0
  149.2818  140.4486  155.1244 N   0  0  0  0  0  0  0  0  0  0  0  0
  143.7760  135.2368  151.5072 C   0  0  0  0  0  0  0  0  0  0  0  0
  143.9062  133.7072  151.6529 C   0  0  0  0  0  0  0  0  0  0  0  0
  146.4080  132.8652  148.3877 H   0  0  0  0  0  0  0  0  0  0  0  0
  145.6522  131.3055  148.0761 H   0  0  0  0  0  0  0  0  0  0  0  0
  146.7477  131.4784  149.4448 H   0  0  0  0  0  0  0  0  0  0  0  0
  146.5343  133.6128  152.1644 H   0  0  0  0  0  0  0  0  0  0  0  0
  147.1166  133.5163  150.5310 H   0  0  0  0  0  0  0  0  0  0  0  0
  147.1089  135.8601  151.1698 H   0  0  0  0  0  0  0  0  0  0  0  0
  145.8974  135.6448  149.9474 H   0  0  0  0  0  0  0  0  0  0  0  0
  147.1851  136.7066  152.6165 H   0  0  0  0  0  0  0  0  0  0  0  0
  145.9400  138.3142  154.7908 H   0  0  0  0  0  0  0  0  0  0  0  0
  147.4462  137.4423  155.0086 H   0  0  0  0  0  0  0  0  0  0  0  0
  147.6837  139.1050  152.6455 H   0  0  0  0  0  0  0  0  0  0  0  0
  147.0292  140.0911  153.9151 H   0  0  0  0  0  0  0  0  0  0  0  0
  150.0730  137.5482  153.6323 H   0  0  0  0  0  0  0  0  0  0  0  0
  150.3891  142.2961  156.6087 H   0  0  0  0  0  0  0  0  0  0  0  0
  152.0155  141.8793  156.0424 H   0  0  0  0  0  0  0  0  0  0  0  0
  151.3312  141.0584  157.4569 H   0  0  0  0  0  0  0  0  0  0  0  0
  142.9466  135.5902  152.1212 H   0  0  0  0  0  0  0  0  0  0  0  0
  143.5188  135.4982  150.4796 H   0  0  0  0  0  0  0  0  0  0  0  0
  142.9484  133.2392  151.4221 H   0  0  0  0  0  0  0  0  0  0  0  0
  144.1276  133.4434  152.6880 H   0  0  0  0  0  0  0  0  0  0  0  0
  1  2  1  0  0  0  0
  1 21  1  0  0  0  0
  1 22  1  0  0  0  0
  1 23  1  0  0  0  0
  2  3  2  0  0  0  0
  2  4  1  0  0  0  0
  4 20  1  0  0  0  0
  4  5  1  0  0  0  0
  5  6  1  0  0  0  0
  5 24  1  0  0  0  0
  5 25  1  0  0  0  0
  6  7  1  0  0  0  0
  6 26  1  0  0  0  0
  6 27  1  0  0  0  0
  7  8  1  0  0  0  0
  7 19  1  0  0  0  0
  8  9  2  0  0  0  0
  8 10  1  0  0  0  0
 10 11  1  0  0  0  0
 10 28  1  0  0  0  0
 11 12  1  0  0  0  0
 11 29  1  0  0  0  0
 11 30  1  0  0  0  0
 12 13  1  0  0  0  0
 12 31  1  0  0  0  0
 12 32  1  0  0  0  0
 13 18  1  0  0  0  0
 13 14  2  0  0  0  0
 14 15  1  0  0  0  0
 14 33  1  0  0  0  0
 15 16  1  0  0  0  0
 16 17  1  0  0  0  0
 16 18  2  0  0  0  0
 17 34  1  0  0  0  0
 17 35  1  0  0  0  0
 17 36  1  0  0  0  0
 19 20  1  0  0  0  0
 19 37  1  0  0  0  0
 19 38  1  0  0  0  0
 20 39  1  0  0  0  0
 20 40  1  0  0  0  0
M  END
> <s_m_source_file>
AV-unprocessed.smi

> <i_m_source_file_index>
1747

> <i_lp_mmshare_version>
43012

> <i_f3d_flags>
0

> <s_epik_input>
W0NIM11DKD1PKU4xW0NIMl1bQ0gyXU4oW0NIMl1bQ0gyXTEpQyg9TylbTkhdW0NIMl1bQ0gyXWMyW2NIXXNjKG4yKVtDSDNd

> <s_epik_cmdline>
J2VwaWtfcHl0aG9uJywgJy1waCcsICc3LjAnLCAnLXRuJywgJzgnLCAnLW1hJywgJzIwMCcsICctbWV0YWxfYmluZGluZycsICctaW1hZScsICc8aW5maWxlLm1hZT4nLCAnLW9tYWUnLCAnPG91dGZpbGUubWFlPic=

> <r_epik_Ionization_Penalty>
0.00199956

> <r_epik_Ionization_Penalty_Charging>
0

> <r_epik_Ionization_Penalty_Neutral>
0.00199956

> <r_epik_State_Penalty>
0.00133382

> <r_epik_Charging_Adjusted_Penalty>
0.00133382

> <i_epik_Tot_Q>
0

> <i_epik_Tot_abs_Q>
0

> <r_epik_Metal_State_Penalty>
-0

> <b_epik_Metal_Only>
0

> <s_lp_Force_Field>
OPLS_2005

> <r_lp_Energy>
44.3218

> <b_lp_Chiralities_Consistent>
1

> <s_lp_Variant>
AV-unprocessed.smi:1747-1

> <Gold.Version>
5.8.1

> <Gold.Id.Protein>
6NUR|6NUR_protein|mol2

> <Gold.PLP.Fitness>
44.6329

> <Gold.PLP.PLP>
-36.5951

> <Gold.PLP.part.hbond>
-2.0000

> <Gold.PLP.part.metal>
0.0000

> <Gold.PLP.part.buried>
-3.5201

> <Gold.PLP.part.nonpolar>
-31.6607

> <Gold.PLP.part.repulsive>
0.4832

> <Gold.PLP.ligand.clash>
0.0000

> <Gold.PLP.ligand.torsion>
0.4164

> <Gold.PLP.Chemscore.Hbond>
1.9440

> <Gold.PLP.Chemscore.CHOScore>
1.0013

> <Gold.PLP.Chemscore.Metal>
0.0000

> <Gold.Chemscore.Hbonds>
donor molecule, donor type, donor heavy atom, donor atom, acceptor molecule, acceptor atom, score
      L1  H    10    28       P1  7948  1.00
      P1  H 10785 10796       L1     3  0.90
      L1  C    14    33       P1  7948  1.00
      L1  C    14    33       P1  7949  0.03

> <Gold.PLP.Chemscore.Internal.Correction>
0.0349

> <Gold.Rescore>
     Score         DG    S(hbond)    S(metal)    S(lipo)     H(rot)  DE(clash)    DE(int)     intcor
     17.18     -17.69       1.89        0.00      80.64       1.38       0.11       0.41       ----

> <Gold.Chemscore.Fitness>
17.1773

> <Gold.Chemscore.DG>
-17.6884

> <Gold.Chemscore.ZeroCoef>
-5.4800

> <Gold.Chemscore.Hbond>
1.8872

> <Gold.Chemscore.Metal>
0.0000

> <Gold.Chemscore.Lipo>
80.6362

> <Gold.Chemscore.Internal_Hbond>
0.0000

> <Gold.Chemscore.DEClash>
0.1053

> <Gold.Chemscore.DEInternal>
0.4057

> <Gold.Chemscore.Rot>
1.3786

> <Gold.Chemscore.Internal.Correction>
   9.000000E+99

> <Gold.Chemscore.Hbonds>
donor molecule, donor type, donor heavy atom, donor atom, acceptor molecule, acceptor atom, score
      L1  H    10    28       P1  7948  0.98
      P1  H 10785 10796       L1     3  0.87

> <Gold.Chemscore.Hbond.Weighted>
-6.3031

> <Gold.Chemscore.Metal.Weighted>
-0.0000

> <Gold.Chemscore.Lipo.Weighted>
-9.4344

> <Gold.Chemscore.Internal_Hbond.Weighted>
0.0000

> <Gold.Chemscore.DEClash.Weighted>
0.1053

> <Gold.Chemscore.DEInternal.Weighted>
0.4057

> <Gold.Chemscore.Rot.Weighted>
3.5291

> <Gold.Chemscore.Internal.Correction.Weighted>
   9.000000E+99

> <Gold.Protein.RotatedTorsions>
[ 6907 6896 6895 6894 ] final  125.17 input  -60.11 | X-H torsion
[ 7974 7965 7964 7962 ] final -132.79 input  175.53 | X-H torsion
[ 8008 7997 7996 7995 ] final  -77.40 input   59.86 | X-H torsion
[ 10167 10162 10161 10158 ] final  -33.20 input  -65.29 | X-H torsion
[ 10718 10713 10712 10709 ] final  170.24 input   66.30 | X-H torsion
[ 10763 10752 10751 10750 ] final   12.80 input  -60.55 | X-H torsion
[ 11005 11000 10999 10996 ] final  130.17 input  -57.11 | X-H torsion

> <Gold.Protein.ActiveResidues>
 VAL166  LYS551  ARG553  GLY616  TRP617  ASP618  TYR619  PRO620  LYS621  CYS622 
 ASP623  PHE694  ASN695  SER759  ASP760  ASP761  ALA762  ILE779  LEU786  VAL792 
 PHE793  MET794  SER795  GLU796  ALA797  LYS798  CYS799  TRP800  GLU811  SER814 

> <Gold.Protein.RotatedAtoms>
  152.4015  133.6824  159.6319 H   0  0  0  0  0  0  0  0  0  0  0  0  # atno 6907 bound_to 6896
  150.7905  133.8783  159.3287 H   0  0  0  0  0  0  0  0  0  0  0  0  # atno 6908 bound_to 6896
  151.6548  135.0998  160.0219 H   0  0  0  0  0  0  0  0  0  0  0  0  # atno 6909 bound_to 6896
  144.9252  140.7063  143.4940 H   0  0  0  0  0  0  0  0  0  0  0  0  # atno 7974 bound_to 7965
  154.5593  140.0711  156.8793 H   0  0  0  0  0  0  0  0  0  0  0  0  # atno 8008 bound_to 7997
  155.2843  140.3374  155.4238 H   0  0  0  0  0  0  0  0  0  0  0  0  # atno 8009 bound_to 7997
  156.2028  140.1728  156.7848 H   0  0  0  0  0  0  0  0  0  0  0  0  # atno 8010 bound_to 7997
  140.7208  143.3638  151.1910 H   0  0  0  0  0  0  0  0  0  0  0  0  # atno 10167 bound_to 10162
  157.0110  131.0204  151.2803 H   0  0  0  0  0  0  0  0  0  0  0  0  # atno 10718 bound_to 10713
  153.1786  135.6824  153.8509 H   0  0  0  0  0  0  0  0  0  0  0  0  # atno 10763 bound_to 10752
  153.7849  135.3177  155.3372 H   0  0  0  0  0  0  0  0  0  0  0  0  # atno 10764 bound_to 10752
  154.8045  135.4757  154.0451 H   0  0  0  0  0  0  0  0  0  0  0  0  # atno 10765 bound_to 10752
  139.9657  134.9591  156.9255 H   0  0  0  0  0  0  0  0  0  0  0  0  # atno 11005 bound_to 11000
  145.3230  139.1782  143.4577 LP  0  0  0  0  0  0  0  0  0  0  0  0  # atno 17320 bound_to 7965
  146.3223  140.3250  142.8636 LP  0  0  0  0  0  0  0  0  0  0  0  0  # atno 17321 bound_to 7965
  139.7196  143.9245  152.2980 LP  0  0  0  0  0  0  0  0  0  0  0  0  # atno 17342 bound_to 10162
  139.8998  144.6918  150.8678 LP  0  0  0  0  0  0  0  0  0  0  0  0  # atno 17343 bound_to 10162
  157.5320  130.8065  149.7928 LP  0  0  0  0  0  0  0  0  0  0  0  0  # atno 17370 bound_to 10713
  156.0136  130.3823  150.2183 LP  0  0  0  0  0  0  0  0  0  0  0  0  # atno 17371 bound_to 10713
  140.5402  134.0727  155.7339 LP  0  0  0  0  0  0  0  0  0  0  0  0  # atno 17394 bound_to 11000
  141.1336  133.9260  157.2482 LP  0  0  0  0  0  0  0  0  0  0  0  0  # atno 17395 bound_to 11000

$$$$
