AV-unprocessed.smi:37|AV-procd|sdf|330|dock10
  -GOLD-   2262016163D 1   1.00000     0.00000
 Structure written by MMmdl.
 43 44  0  0  0  0  0  0  0  0  2 V2000
  146.5500  134.3564  161.4663 C   0  0  0  0  0  0  0  0  0  0  0  0
  147.7648  135.2936  161.5018 C   0  0  0  0  0  0  0  0  0  0  0  0
  147.6987  136.3618  160.4129 C   0  0  0  0  0  0  0  0  0  0  0  0
  147.6003  137.5573  160.6899 O   0  0  0  0  0  0  0  0  0  0  0  0
  147.7561  135.8419  159.1785 O   0  0  0  0  0  0  0  0  0  0  0  0
  147.8155  136.6999  158.0523 C   0  0  0  0  0  0  0  0  0  0  0  0
  149.2541  137.1814  157.8169 C   0  0  1  0  0  0  0  0  0  0  0  0
  150.1616  136.0820  157.9189 O   0  0  0  0  0  0  0  0  0  0  0  0
  151.1782  136.2064  156.9684 C   0  0  2  0  0  0  0  0  0  0  0  0
  152.3410  137.0111  157.5346 N   0  0  0  0  0  0  0  0  0  0  0  0
  152.1403  138.1901  158.2373 C   0  0  0  0  0  0  0  0  0  0  0  0
  153.1745  138.8950  158.7394 C   0  0  0  0  0  0  0  0  0  0  0  0
  152.9432  140.0359  159.4113 F   0  0  0  0  0  0  0  0  0  0  0  0
  154.5387  138.4064  158.5569 C   0  0  0  0  0  0  0  0  0  0  0  0
  155.4808  139.0721  158.9832 O   0  0  0  0  0  0  0  0  0  0  0  0
  154.7062  137.2140  157.9169 N   0  5  0  0  0  0  0  0  0  0  0  0
  153.6606  136.4886  157.4233 C   0  0  0  0  0  0  0  0  0  0  0  0
  153.8043  135.3902  156.8868 O   0  0  0  0  0  0  0  0  0  0  0  0
  150.5216  136.9238  155.7796 C   0  0  1  0  0  0  0  0  0  0  0  0
  149.5782  135.5879  154.6431 Br  0  0  0  0  0  0  0  0  0  0  0  0
  149.5039  137.8420  156.4497 C   0  0  2  0  0  0  0  0  0  0  0  0
  150.0804  139.1246  156.6714 O   0  0  0  0  0  0  0  0  0  0  0  0
  150.6692  139.7957  155.6652 C   0  0  0  0  0  0  0  0  0  0  0  0
  150.6336  139.4883  154.4738 O   0  0  0  0  0  0  0  0  0  0  0  0
  151.4286  141.0295  156.1472 C   0  0  0  0  0  0  0  0  0  0  0  0
  150.5269  141.9961  156.9289 C   0  0  0  0  0  0  0  0  0  0  0  0
  146.6263  133.6010  162.2483 H   0  0  0  0  0  0  0  0  0  0  0  0
  146.4780  133.8366  160.5104 H   0  0  0  0  0  0  0  0  0  0  0  0
  145.6179  134.9002  161.6243 H   0  0  0  0  0  0  0  0  0  0  0  0
  147.8274  135.7858  162.4725 H   0  0  0  0  0  0  0  0  0  0  0  0
  148.6824  134.7177  161.3789 H   0  0  0  0  0  0  0  0  0  0  0  0
  147.4558  136.1645  157.1726 H   0  0  0  0  0  0  0  0  0  0  0  0
  147.1583  137.5576  158.2031 H   0  0  0  0  0  0  0  0  0  0  0  0
  149.4892  137.8886  158.6127 H   0  0  0  0  0  0  0  0  0  0  0  0
  151.6115  135.2354  156.7235 H   0  0  0  0  0  0  0  0  0  0  0  0
  151.1451  138.5675  158.4088 H   0  0  0  0  0  0  0  0  0  0  0  0
  151.2328  137.4436  155.1390 H   0  0  0  0  0  0  0  0  0  0  0  0
  148.5883  137.9358  155.8638 H   0  0  0  0  0  0  0  0  0  0  0  0
  152.2543  140.7040  156.7806 H   0  0  0  0  0  0  0  0  0  0  0  0
  151.8685  141.5364  155.2883 H   0  0  0  0  0  0  0  0  0  0  0  0
  151.1133  142.8087  157.3569 H   0  0  0  0  0  0  0  0  0  0  0  0
  150.0135  141.4914  157.7484 H   0  0  0  0  0  0  0  0  0  0  0  0
  149.7699  142.4430  156.2840 H   0  0  0  0  0  0  0  0  0  0  0  0
  1  2  1  0  0  0  0
  1 27  1  0  0  0  0
  1 28  1  0  0  0  0
  1 29  1  0  0  0  0
  2  3  1  0  0  0  0
  2 30  1  0  0  0  0
  2 31  1  0  0  0  0
  3  4  2  0  0  0  0
  3  5  1  0  0  0  0
  5  6  1  0  0  0  0
  6  7  1  0  0  0  0
  6 32  1  0  0  0  0
  6 33  1  0  0  0  0
  7 21  1  0  0  0  0
  7  8  1  0  0  0  0
  7 34  1  0  0  0  0
  8  9  1  0  0  0  0
  9 10  1  0  0  0  0
  9 19  1  0  0  0  0
  9 35  1  0  0  0  0
 10 17  1  0  0  0  0
 10 11  1  0  0  0  0
 11 12  2  0  0  0  0
 11 36  1  0  0  0  0
 12 13  1  0  0  0  0
 12 14  1  0  0  0  0
 14 15  2  0  0  0  0
 14 16  1  0  0  0  0
 16 17  1  0  0  0  0
 17 18  2  0  0  0  0
 19 20  1  0  0  0  0
 19 21  1  0  0  0  0
 19 37  1  0  0  0  0
 21 22  1  0  0  0  0
 21 38  1  0  0  0  0
 22 23  1  0  0  0  0
 23 24  2  0  0  0  0
 23 25  1  0  0  0  0
 25 26  1  0  0  0  0
 25 39  1  0  0  0  0
 25 40  1  0  0  0  0
 26 41  1  0  0  0  0
 26 42  1  0  0  0  0
 26 43  1  0  0  0  0
M  CHG  1  16  -1
M  END
> <s_m_source_file>
AV-unprocessed.smi

> <i_m_source_file_index>
37

> <i_lp_mmshare_version>
43012

> <i_f3d_flags>
0

> <s_epik_input>
W0NIM11bQ0gyXUMoPU8pT1tDSDJdW0NAQEhdMU9bQ0BASF0objJbY0hdYyhGKWMoPU8pW25IXWMyPU8pW0NAQEhdKEJyKVtDQEhdMU9DKD1PKVtDSDJdW0NIM10=

> <s_epik_cmdline>
J2VwaWtfcHl0aG9uJywgJy1waCcsICc3LjAnLCAnLXRuJywgJzgnLCAnLW1hJywgJzIwMCcsICctbWV0YWxfYmluZGluZycsICctaW1hZScsICc8aW5maWxlLm1hZT4nLCAnLW9tYWUnLCAnPG91dGZpbGUubWFlPic=

> <r_epik_Ionization_Penalty>
1.08158

> <r_epik_Ionization_Penalty_Charging>
9.05154e-09

> <r_epik_Ionization_Penalty_Neutral>
1.08158

> <r_epik_State_Penalty>
1.13706

> <r_epik_Charging_Adjusted_Penalty>
1.13706

> <i_epik_Tot_Q>
-1

> <i_epik_Tot_abs_Q>
1

> <r_epik_Metal_State_Penalty>
0.00343535

> <b_epik_Metal_Only>
0

> <s_epik_Chemistry_Notes>
This compound has an ester and may undergo hydrolysis at high or low pH. This compound contains an acetal/aminal-like group ( X-CH(R)-Y where X, Y are N, S, or O) that may be acid/base labile, releasing an aldehyde.

> <s_lp_Force_Field>
OPLS_2005

> <r_lp_Energy>
28.0261

> <b_lp_Chiralities_Consistent>
1

> <s_lp_Variant>
AV-unprocessed.smi:37-28

> <Gold.Version>
5.8.1

> <Gold.Id.Protein>
6NUR|6NUR_protein|mol2

> <Gold.PLP.Fitness>
42.9910

> <Gold.PLP.PLP>
-29.8742

> <Gold.PLP.part.hbond>
-5.1545

> <Gold.PLP.part.metal>
0.0000

> <Gold.PLP.part.buried>
-2.8467

> <Gold.PLP.part.nonpolar>
-21.4508

> <Gold.PLP.part.repulsive>
0.1475

> <Gold.PLP.ligand.clash>
0.0000

> <Gold.PLP.ligand.torsion>
0.6278

> <Gold.PLP.Chemscore.Hbond>
4.7449

> <Gold.PLP.Chemscore.CHOScore>
0.0000

> <Gold.PLP.Chemscore.Metal>
0.0000

> <Gold.Chemscore.Hbonds>
donor molecule, donor type, donor heavy atom, donor atom, acceptor molecule, acceptor atom, score
      P1  H  6896  6907       L1     8  0.35
      P1  H  6931  6943       L1     4  0.62
      P1  H  6934  6947       L1     4  0.93
      P1  H  7989  7998       L1    24  1.00
      P1  H  7997  8008       L1    15  0.65
      P1  H 10752 10764       L1    18  0.86

> <Gold.PLP.Chemscore.Internal.Correction>
0.1379

> <Gold.Rescore>
     Score         DG    S(hbond)    S(metal)    S(lipo)     H(rot)  DE(clash)    DE(int)     intcor
     14.34     -17.30       4.16        0.00      53.77       3.27       0.17       2.78       ----

> <Gold.Chemscore.Fitness>
14.3449

> <Gold.Chemscore.DG>
-17.2974

> <Gold.Chemscore.ZeroCoef>
-5.4800

> <Gold.Chemscore.Hbond>
4.1586

> <Gold.Chemscore.Metal>
0.0000

> <Gold.Chemscore.Lipo>
53.7708

> <Gold.Chemscore.Internal_Hbond>
0.0000

> <Gold.Chemscore.DEClash>
0.1679

> <Gold.Chemscore.DEInternal>
2.7846

> <Gold.Chemscore.Rot>
3.2669

> <Gold.Chemscore.Internal.Correction>
   9.000000E+99

> <Gold.Chemscore.Hbonds>
donor molecule, donor type, donor heavy atom, donor atom, acceptor molecule, acceptor atom, score
      P1  H  6896  6907       L1     8  0.28
      P1  H  6931  6943       L1     4  0.54
      P1  H  6934  6947       L1     4  0.85
      P1  H  7989  7998       L1    24  0.60
      P1  H  7997  8008       L1    15  0.05
      P1  H 10752 10764       L1    18  0.81

> <Gold.Chemscore.Hbond.Weighted>
-13.8896

> <Gold.Chemscore.Metal.Weighted>
-0.0000

> <Gold.Chemscore.Lipo.Weighted>
-6.2912

> <Gold.Chemscore.Internal_Hbond.Weighted>
0.0000

> <Gold.Chemscore.DEClash.Weighted>
0.1679

> <Gold.Chemscore.DEInternal.Weighted>
2.7846

> <Gold.Chemscore.Rot.Weighted>
8.3634

> <Gold.Chemscore.Internal.Correction.Weighted>
   9.000000E+99

> <Gold.Protein.RotatedTorsions>
[ 6907 6896 6895 6894 ] final  -69.45 input  -60.11 | X-H torsion
[ 7974 7965 7964 7962 ] final  135.12 input  175.53 | X-H torsion
[ 8008 7997 7996 7995 ] final -154.73 input   59.86 | X-H torsion
[ 10167 10162 10161 10158 ] final  -82.06 input  -65.29 | X-H torsion
[ 10718 10713 10712 10709 ] final   56.30 input   66.30 | X-H torsion
[ 10763 10752 10751 10750 ] final   16.85 input  -60.55 | X-H torsion
[ 11005 11000 10999 10996 ] final  -57.57 input  -57.11 | X-H torsion

> <Gold.Protein.ActiveResidues>
 VAL166  LYS551  ARG553  GLY616  TRP617  ASP618  TYR619  PRO620  LYS621  CYS622 
 ASP623  PHE694  ASN695  SER759  ASP760  ASP761  ALA762  ILE779  LEU786  VAL792 
 PHE793  MET794  SER795  GLU796  ALA797  LYS798  CYS799  TRP800  GLU811  SER814 

> <Gold.Protein.RotatedAtoms>
  150.7305  134.5595  159.5834 H   0  0  0  0  0  0  0  0  0  0  0  0  # atno 6907 bound_to 6896
  152.3062  134.7550  160.0356 H   0  0  0  0  0  0  0  0  0  0  0  0  # atno 6908 bound_to 6896
  151.8113  133.3346  159.3593 H   0  0  0  0  0  0  0  0  0  0  0  0  # atno 6909 bound_to 6896
  144.9695  139.4621  143.5440 H   0  0  0  0  0  0  0  0  0  0  0  0  # atno 7974 bound_to 7965
  155.6909  140.0755  157.2448 H   0  0  0  0  0  0  0  0  0  0  0  0  # atno 8008 bound_to 7997
  154.4089  140.1665  156.2138 H   0  0  0  0  0  0  0  0  0  0  0  0  # atno 8009 bound_to 7997
  155.9452  140.3381  155.6364 H   0  0  0  0  0  0  0  0  0  0  0  0  # atno 8010 bound_to 7997
  140.4355  143.2533  151.8700 H   0  0  0  0  0  0  0  0  0  0  0  0  # atno 10167 bound_to 10162
  157.5419  130.8703  149.8835 H   0  0  0  0  0  0  0  0  0  0  0  0  # atno 10718 bound_to 10713
  153.1392  135.6756  153.9054 H   0  0  0  0  0  0  0  0  0  0  0  0  # atno 10763 bound_to 10752
  153.8516  135.3092  155.3434 H   0  0  0  0  0  0  0  0  0  0  0  0  # atno 10764 bound_to 10752
  154.7773  135.4907  153.9855 H   0  0  0  0  0  0  0  0  0  0  0  0  # atno 10765 bound_to 10752
  141.1170  133.6610  156.4789 H   0  0  0  0  0  0  0  0  0  0  0  0  # atno 11005 bound_to 11000
  146.3378  139.8897  142.8811 LP  0  0  0  0  0  0  0  0  0  0  0  0  # atno 17320 bound_to 7965
  145.2580  141.0067  143.3842 LP  0  0  0  0  0  0  0  0  0  0  0  0  # atno 17321 bound_to 7965
  139.4787  144.5288  151.8697 LP  0  0  0  0  0  0  0  0  0  0  0  0  # atno 17342 bound_to 10162
  140.4379  144.2027  150.5890 LP  0  0  0  0  0  0  0  0  0  0  0  0  # atno 17343 bound_to 10162
  156.0504  130.3719  150.1216 LP  0  0  0  0  0  0  0  0  0  0  0  0  # atno 17370 bound_to 10713
  156.9395  130.9740  151.3519 LP  0  0  0  0  0  0  0  0  0  0  0  0  # atno 17371 bound_to 10713
  140.4617  134.6835  157.5088 LP  0  0  0  0  0  0  0  0  0  0  0  0  # atno 17394 bound_to 11000
  140.0099  134.6706  155.9396 LP  0  0  0  0  0  0  0  0  0  0  0  0  # atno 17395 bound_to 11000

$$$$
