AV-unprocessed.smi:2098|AV-procd|sdf|8567|dock2
  -GOLD-   2272011293D 1   1.00000     0.00000
 Structure written by MMmdl.
 37 39  0  0  0  0  0  0  0  0  2 V2000
  152.7582  139.3945  157.1062 O   0  0  0  0  0  0  0  0  0  0  0  0
  153.2118  139.7492  158.3978 C   0  0  2  0  0  0  0  0  0  0  0  0
  153.7365  138.4832  159.0934 C   0  0  0  0  0  0  0  0  0  0  0  0
  153.8894  138.7500  160.4814 O   0  0  0  0  0  0  0  0  0  0  0  0
  154.2661  137.7131  161.3079 C   0  0  0  0  0  0  0  0  0  0  0  0
  154.4097  138.0083  162.6798 C   0  0  0  0  0  0  0  0  0  0  0  0
  154.7887  137.0091  163.5968 C   0  0  0  0  0  0  0  0  0  0  0  0
  155.0303  135.6978  163.1477 C   0  0  0  0  0  0  0  0  0  0  0  0
  155.3949  134.7356  164.0277 F   0  0  0  0  0  0  0  0  0  0  0  0
  154.8919  135.3889  161.7821 C   0  0  0  0  0  0  0  0  0  0  0  0
  154.5118  136.3883  160.8650 C   0  0  0  0  0  0  0  0  0  0  0  0
  152.0536  140.3949  159.1844 C   0  0  0  0  0  0  0  0  0  0  0  0
  151.6077  141.6704  158.6051 N   0  0  0  0  0  0  0  0  0  0  0  0
  150.9885  141.9136  157.4183 C   0  0  0  0  0  0  0  0  0  0  0  0
  150.7843  143.2567  157.3273 N   0  3  0  0  0  0  0  0  0  0  0  0
  151.2786  143.8823  158.4737 C   0  0  0  0  0  0  0  0  0  0  0  0
  151.3016  145.2245  158.8401 C   0  0  0  0  0  0  0  0  0  0  0  0
  151.8803  145.5296  160.0896 C   0  0  0  0  0  0  0  0  0  0  0  0
  152.4064  144.5200  160.9215 C   0  0  0  0  0  0  0  0  0  0  0  0
  152.3794  143.1627  160.5389 C   0  0  0  0  0  0  0  0  0  0  0  0
  151.8075  142.8688  159.3013 C   0  0  0  0  0  0  0  0  0  0  0  0
  152.8580  138.4603  157.0012 H   0  0  0  0  0  0  0  0  0  0  0  0
  154.0203  140.4751  158.3012 H   0  0  0  0  0  0  0  0  0  0  0  0
  153.0058  137.6812  158.9765 H   0  0  0  0  0  0  0  0  0  0  0  0
  154.6725  138.1510  158.6403 H   0  0  0  0  0  0  0  0  0  0  0  0
  154.2262  139.0123  163.0335 H   0  0  0  0  0  0  0  0  0  0  0  0
  154.8935  137.2490  164.6447 H   0  0  0  0  0  0  0  0  0  0  0  0
  155.0768  134.3827  161.4360 H   0  0  0  0  0  0  0  0  0  0  0  0
  154.4150  136.1115  159.8264 H   0  0  0  0  0  0  0  0  0  0  0  0
  151.2031  139.7179  159.2681 H   0  0  0  0  0  0  0  0  0  0  0  0
  152.3738  140.6072  160.2054 H   0  0  0  0  0  0  0  0  0  0  0  0
  150.7108  141.1745  156.6807 H   0  0  0  0  0  0  0  0  0  0  0  0
  150.8975  145.9996  158.2054 H   0  0  0  0  0  0  0  0  0  0  0  0
  151.9194  146.5583  160.4175 H   0  0  0  0  0  0  0  0  0  0  0  0
  152.8389  144.7915  161.8736 H   0  0  0  0  0  0  0  0  0  0  0  0
  152.7800  142.3975  161.1871 H   0  0  0  0  0  0  0  0  0  0  0  0
  150.3397  143.7102  156.5395 H   0  0  0  0  0  0  0  0  0  0  0  0
  1  2  1  0  0  0  0
  1 22  1  0  0  0  0
  2  3  1  0  0  0  0
  2 12  1  0  0  0  0
  2 23  1  0  0  0  0
  3  4  1  0  0  0  0
  3 24  1  0  0  0  0
  3 25  1  0  0  0  0
  4  5  1  0  0  0  0
  5 11  1  0  0  0  0
  5  6  2  0  0  0  0
  6  7  1  0  0  0  0
  6 26  1  0  0  0  0
  7  8  2  0  0  0  0
  7 27  1  0  0  0  0
  8  9  1  0  0  0  0
  8 10  1  0  0  0  0
 10 11  2  0  0  0  0
 10 28  1  0  0  0  0
 11 29  1  0  0  0  0
 12 13  1  0  0  0  0
 12 30  1  0  0  0  0
 12 31  1  0  0  0  0
 13 21  1  0  0  0  0
 13 14  1  0  0  0  0
 14 15  2  0  0  0  0
 14 32  1  0  0  0  0
 15 16  1  0  0  0  0
 15 37  1  0  0  0  0
 16 21  2  0  0  0  0
 16 17  1  0  0  0  0
 17 18  2  0  0  0  0
 17 33  1  0  0  0  0
 18 19  1  0  0  0  0
 18 34  1  0  0  0  0
 19 20  2  0  0  0  0
 19 35  1  0  0  0  0
 20 21  1  0  0  0  0
 20 36  1  0  0  0  0
M  CHG  1  15   1
M  END
> <s_m_source_file>
AV-unprocessed.smi

> <i_m_source_file_index>
2098

> <i_lp_mmshare_version>
43012

> <i_f3d_flags>
0

> <s_epik_input>
W2NIXTFbY0hdW2NIXVtjSF1jKGMxMiluKFtjSF1uMilbQ0gyXVtDQEhdKFtPSF0pW0NIMl1PYzNbY0hdW2NIXWMoRilbY0hdW2NIXTM=

> <s_epik_cmdline>
J2VwaWtfcHl0aG9uJywgJy1waCcsICc3LjAnLCAnLXRuJywgJzgnLCAnLW1hJywgJzIwMCcsICctbWV0YWxfYmluZGluZycsICctaW1hZScsICc8aW5maWxlLm1hZT4nLCAnLW9tYWUnLCAnPG91dGZpbGUubWFlPic=

> <r_lp_tautomer_probability>
1

> <r_epik_Ionization_Penalty>
1.3832

> <r_epik_Ionization_Penalty_Charging>
1.38319

> <r_epik_Ionization_Penalty_Neutral>
2.3993e-06

> <r_epik_State_Penalty>
1.46389

> <r_epik_Charging_Adjusted_Penalty>
2.84709

> <i_epik_Tot_Q>
1

> <i_epik_Tot_abs_Q>
1

> <r_epik_Metal_State_Penalty>
5.50438

> <b_epik_Metal_Only>
0

> <s_lp_Force_Field>
OPLS_2005

> <r_lp_Energy>
20.4389

> <b_lp_Chiralities_Consistent>
1

> <s_lp_Variant>
AV-unprocessed.smi:2098-3

> <Gold.Version>
5.8.1

> <Gold.Id.Protein>
6NUR|6NUR_protein|mol2

> <Gold.PLP.Fitness>
51.9971

> <Gold.PLP.PLP>
-45.7421

> <Gold.PLP.part.hbond>
-2.0000

> <Gold.PLP.part.metal>
0.0000

> <Gold.PLP.part.buried>
-4.9303

> <Gold.PLP.part.nonpolar>
-38.5412

> <Gold.PLP.part.repulsive>
0.0001

> <Gold.PLP.ligand.clash>
0.0000

> <Gold.PLP.ligand.torsion>
0.1664

> <Gold.PLP.Chemscore.Hbond>
2.1840

> <Gold.PLP.Chemscore.CHOScore>
0.0000

> <Gold.PLP.Chemscore.Metal>
0.0000

> <Gold.Chemscore.Hbonds>
donor molecule, donor type, donor heavy atom, donor atom, acceptor molecule, acceptor atom, score
      L1  H    15    37       P1  8028  2.00

> <Gold.PLP.Chemscore.Internal.Correction>
0.0356

> <Gold.Rescore>
     Score         DG    S(hbond)    S(metal)    S(lipo)     H(rot)  DE(clash)    DE(int)     intcor
     16.35     -16.95       0.98        0.00     123.71       2.46       0.08       0.53       ----

> <Gold.Chemscore.Fitness>
16.3470

> <Gold.Chemscore.DG>
-16.9496

> <Gold.Chemscore.ZeroCoef>
-5.4800

> <Gold.Chemscore.Hbond>
0.9849

> <Gold.Chemscore.Metal>
0.0000

> <Gold.Chemscore.Lipo>
123.7059

> <Gold.Chemscore.Internal_Hbond>
0.0000

> <Gold.Chemscore.DEClash>
0.0765

> <Gold.Chemscore.DEInternal>
0.5261

> <Gold.Chemscore.Rot>
2.4584

> <Gold.Chemscore.Internal.Correction>
   9.000000E+99

> <Gold.Chemscore.Hbonds>
donor molecule, donor type, donor heavy atom, donor atom, acceptor molecule, acceptor atom, score
      L1  H    15    37       P1  8028  0.96

> <Gold.Chemscore.Hbond.Weighted>
-3.2896

> <Gold.Chemscore.Metal.Weighted>
-0.0000

> <Gold.Chemscore.Lipo.Weighted>
-14.4736

> <Gold.Chemscore.Internal_Hbond.Weighted>
0.0000

> <Gold.Chemscore.DEClash.Weighted>
0.0765

> <Gold.Chemscore.DEInternal.Weighted>
0.5261

> <Gold.Chemscore.Rot.Weighted>
6.2936

> <Gold.Chemscore.Internal.Correction.Weighted>
   9.000000E+99

> <Gold.Protein.RotatedTorsions>
[ 6907 6896 6895 6894 ] final  164.76 input  -60.11 | X-H torsion
[ 7974 7965 7964 7962 ] final  145.67 input  175.53 | X-H torsion
[ 8008 7997 7996 7995 ] final   50.73 input   59.86 | X-H torsion
[ 10167 10162 10161 10158 ] final -132.71 input  -65.29 | X-H torsion
[ 10718 10713 10712 10709 ] final  -53.53 input   66.30 | X-H torsion
[ 10763 10752 10751 10750 ] final  115.28 input  -60.55 | X-H torsion
[ 11005 11000 10999 10996 ] final   -2.03 input  -57.11 | X-H torsion

> <Gold.Protein.ActiveResidues>
 VAL166  LYS551  ARG553  GLY616  TRP617  ASP618  TYR619  PRO620  LYS621  CYS622 
 ASP623  PHE694  ASN695  SER759  ASP760  ASP761  ALA762  ILE779  LEU786  VAL792 
 PHE793  MET794  SER795  GLU796  ALA797  LYS798  CYS799  TRP800  GLU811  SER814 

> <Gold.Protein.RotatedAtoms>
  151.9049  133.3547  159.3843 H   0  0  0  0  0  0  0  0  0  0  0  0  # atno 6907 bound_to 6896
  150.7071  134.4791  159.5471 H   0  0  0  0  0  0  0  0  0  0  0  0  # atno 6908 bound_to 6896
  152.2386  134.8251  160.0514 H   0  0  0  0  0  0  0  0  0  0  0  0  # atno 6909 bound_to 6896
  144.8733  139.5811  143.5876 H   0  0  0  0  0  0  0  0  0  0  0  0  # atno 7974 bound_to 7965
  155.4236  140.3447  155.4273 H   0  0  0  0  0  0  0  0  0  0  0  0  # atno 8008 bound_to 7997
  156.1378  140.1533  156.8998 H   0  0  0  0  0  0  0  0  0  0  0  0  # atno 8009 bound_to 7997
  154.4946  140.0831  156.7650 H   0  0  0  0  0  0  0  0  0  0  0  0  # atno 8010 bound_to 7997
  139.9058  143.6553  152.2586 H   0  0  0  0  0  0  0  0  0  0  0  0  # atno 10167 bound_to 10162
  156.1527  130.4151  149.9918 H   0  0  0  0  0  0  0  0  0  0  0  0  # atno 10718 bound_to 10713
  153.5198  135.3600  155.2626 H   0  0  0  0  0  0  0  0  0  0  0  0  # atno 10763 bound_to 10752
  154.8736  135.4043  154.3273 H   0  0  0  0  0  0  0  0  0  0  0  0  # atno 10764 bound_to 10752
  153.3941  135.7073  153.6540 H   0  0  0  0  0  0  0  0  0  0  0  0  # atno 10765 bound_to 10752
  140.6539  133.9380  155.8396 H   0  0  0  0  0  0  0  0  0  0  0  0  # atno 11005 bound_to 11000
  146.2945  139.7238  142.9136 LP  0  0  0  0  0  0  0  0  0  0  0  0  # atno 17320 bound_to 7965
  145.4089  141.0394  143.3028 LP  0  0  0  0  0  0  0  0  0  0  0  0  # atno 17321 bound_to 7965
  139.6985  144.7638  151.1314 LP  0  0  0  0  0  0  0  0  0  0  0  0  # atno 17342 bound_to 10162
  140.7697  143.5490  150.9226 LP  0  0  0  0  0  0  0  0  0  0  0  0  # atno 17343 bound_to 10162
  156.7771  130.9207  151.3645 LP  0  0  0  0  0  0  0  0  0  0  0  0  # atno 17370 bound_to 10713
  157.6670  130.9017  149.9955 LP  0  0  0  0  0  0  0  0  0  0  0  0  # atno 17371 bound_to 10713
  141.0516  134.0476  157.3776 LP  0  0  0  0  0  0  0  0  0  0  0  0  # atno 17394 bound_to 11000
  139.9036  135.0173  156.7384 LP  0  0  0  0  0  0  0  0  0  0  0  0  # atno 17395 bound_to 11000

$$$$
