AV-unprocessed.smi:148|AV-procd|sdf|1209|dock4
  -GOLD-   2262018383D 1   1.00000     0.00000
 Structure written by MMmdl.
 63 67  0  0  0  0  0  0  0  0  1 V2000
  149.5288  136.2425  154.7857 O   0  0  0  0  0  0  0  0  0  0  0  0
  149.3480  134.8441  154.8646 C   0  0  0  0  0  0  0  0  0  0  0  0
  150.4432  134.2007  155.7476 C   0  0  1  0  0  0  0  0  0  0  0  0
  150.1593  134.4749  157.2460 C   0  0  0  0  0  0  0  0  0  0  0  0
  150.3670  135.8605  157.6274 N   0  0  0  0  0  0  0  0  0  0  0  0
  149.4500  136.7018  158.2176 C   0  0  0  0  0  0  0  0  0  0  0  0
  149.8834  137.9062  158.4729 N   0  0  0  0  0  0  0  0  0  0  0  0
  151.1949  137.8928  158.0166 C   0  0  0  0  0  0  0  0  0  0  0  0
  152.2346  138.8573  157.9766 C   0  0  0  0  0  0  0  0  0  0  0  0
  152.0644  140.1077  158.4573 N   0  0  0  0  0  0  0  0  0  0  0  0
  153.1633  140.4606  159.3583 C   0  0  0  0  0  0  0  0  0  0  0  0
  152.8407  141.7242  160.1611 C   0  0  0  0  0  0  0  0  0  0  0  0
  152.5008  142.8709  159.2076 C   0  0  0  0  0  0  0  0  0  0  0  0
  151.3536  142.4561  158.2766 C   0  0  0  0  0  0  0  0  0  0  0  0
  151.6576  141.1502  157.4927 C   0  0  2  0  0  0  0  0  0  0  0  0
  150.4315  140.7436  156.6007 C   0  0  1  0  0  0  0  0  0  0  0  0
  149.8413  141.8728  155.7354 C   0  0  0  0  0  0  0  0  0  0  0  0
  148.9789  141.1912  154.6670 C   0  0  0  0  0  0  0  0  0  0  0  0
  149.4385  139.7298  154.6156 C   0  0  0  0  0  0  0  0  0  0  0  0
  150.6506  139.6313  155.5482 C   0  0  1  0  0  0  0  0  0  0  0  0
  151.8256  139.8620  154.7932 O   0  0  0  0  0  0  0  0  0  0  0  0
  153.4284  138.4897  157.4403 N   0  0  0  0  0  0  0  0  0  0  0  0
  153.5886  137.2522  156.9609 C   0  0  0  0  0  0  0  0  0  0  0  0
  152.7080  136.2488  156.9271 N   0  0  0  0  0  0  0  0  0  0  0  0
  151.5137  136.6183  157.4733 C   0  0  0  0  0  0  0  0  0  0  0  0
  150.6759  132.6929  155.4478 C   0  0  2  0  0  0  0  0  0  0  0  0
  149.4230  131.8147  155.4598 C   0  0  0  0  0  0  0  0  0  0  0  0
  149.7929  130.6484  156.3756 C   0  0  0  0  0  0  0  0  0  0  0  0
  151.2102  130.6181  156.3376 O   0  0  0  0  0  0  0  0  0  0  0  0
  151.6433  131.9668  156.3918 C   0  0  0  0  0  0  0  0  0  0  0  0
  149.3687  136.5178  153.8959 H   0  0  0  0  0  0  0  0  0  0  0  0
  148.3525  134.6419  155.2598 H   0  0  0  0  0  0  0  0  0  0  0  0
  149.3691  134.4549  153.8479 H   0  0  0  0  0  0  0  0  0  0  0  0
  151.3829  134.6979  155.5018 H   0  0  0  0  0  0  0  0  0  0  0  0
  149.1302  134.2136  157.4943 H   0  0  0  0  0  0  0  0  0  0  0  0
  150.7955  133.8470  157.8709 H   0  0  0  0  0  0  0  0  0  0  0  0
  148.4454  136.3899  158.4636 H   0  0  0  0  0  0  0  0  0  0  0  0
  153.3628  139.6363  160.0453 H   0  0  0  0  0  0  0  0  0  0  0  0
  154.0739  140.6190  158.7782 H   0  0  0  0  0  0  0  0  0  0  0  0
  151.9994  141.5334  160.8286 H   0  0  0  0  0  0  0  0  0  0  0  0
  153.6878  141.9955  160.7916 H   0  0  0  0  0  0  0  0  0  0  0  0
  152.2240  143.7607  159.7735 H   0  0  0  0  0  0  0  0  0  0  0  0
  153.3791  143.1342  158.6170 H   0  0  0  0  0  0  0  0  0  0  0  0
  150.4441  142.3252  158.8649 H   0  0  0  0  0  0  0  0  0  0  0  0
  151.1645  143.2839  157.5941 H   0  0  0  0  0  0  0  0  0  0  0  0
  152.5133  141.3543  156.8485 H   0  0  0  0  0  0  0  0  0  0  0  0
  149.6307  140.4168  157.2669 H   0  0  0  0  0  0  0  0  0  0  0  0
  149.2617  142.5885  156.3195 H   0  0  0  0  0  0  0  0  0  0  0  0
  150.6460  142.4231  155.2452 H   0  0  0  0  0  0  0  0  0  0  0  0
  147.9227  141.2411  154.9347 H   0  0  0  0  0  0  0  0  0  0  0  0
  149.0951  141.6833  153.7011 H   0  0  0  0  0  0  0  0  0  0  0  0
  148.6392  139.0922  154.9959 H   0  0  0  0  0  0  0  0  0  0  0  0
  149.6565  139.3942  153.6009 H   0  0  0  0  0  0  0  0  0  0  0  0
  150.7033  138.6332  155.9777 H   0  0  0  0  0  0  0  0  0  0  0  0
  152.5606  139.8968  155.3860 H   0  0  0  0  0  0  0  0  0  0  0  0
  154.5607  137.0359  156.5429 H   0  0  0  0  0  0  0  0  0  0  0  0
  151.0817  132.5954  154.4404 H   0  0  0  0  0  0  0  0  0  0  0  0
  148.5225  132.3247  155.8008 H   0  0  0  0  0  0  0  0  0  0  0  0
  149.2201  131.4511  154.4515 H   0  0  0  0  0  0  0  0  0  0  0  0
  149.4631  130.8414  157.3976 H   0  0  0  0  0  0  0  0  0  0  0  0
  149.3597  129.7027  156.0495 H   0  0  0  0  0  0  0  0  0  0  0  0
  152.6837  132.0641  156.0814 H   0  0  0  0  0  0  0  0  0  0  0  0
  151.5629  132.3182  157.4203 H   0  0  0  0  0  0  0  0  0  0  0  0
  1  2  1  0  0  0  0
  1 31  1  0  0  0  0
  2  3  1  0  0  0  0
  2 32  1  0  0  0  0
  2 33  1  0  0  0  0
  3  4  1  0  0  0  0
  3 26  1  0  0  0  0
  3 34  1  0  0  0  0
  4  5  1  0  0  0  0
  4 35  1  0  0  0  0
  4 36  1  0  0  0  0
  5 25  1  0  0  0  0
  5  6  1  0  0  0  0
  6  7  2  0  0  0  0
  6 37  1  0  0  0  0
  7  8  1  0  0  0  0
  8 25  2  0  0  0  0
  8  9  1  0  0  0  0
  9 10  1  0  0  0  0
  9 22  2  0  0  0  0
 10 15  1  0  0  0  0
 10 11  1  0  0  0  0
 11 12  1  0  0  0  0
 11 38  1  0  0  0  0
 11 39  1  0  0  0  0
 12 13  1  0  0  0  0
 12 40  1  0  0  0  0
 12 41  1  0  0  0  0
 13 14  1  0  0  0  0
 13 42  1  0  0  0  0
 13 43  1  0  0  0  0
 14 15  1  0  0  0  0
 14 44  1  0  0  0  0
 14 45  1  0  0  0  0
 15 16  1  0  0  0  0
 15 46  1  0  0  0  0
 16 20  1  0  0  0  0
 16 17  1  0  0  0  0
 16 47  1  0  0  0  0
 17 18  1  0  0  0  0
 17 48  1  0  0  0  0
 17 49  1  0  0  0  0
 18 19  1  0  0  0  0
 18 50  1  0  0  0  0
 18 51  1  0  0  0  0
 19 20  1  0  0  0  0
 19 52  1  0  0  0  0
 19 53  1  0  0  0  0
 20 21  1  0  0  0  0
 20 54  1  0  0  0  0
 21 55  1  0  0  0  0
 22 23  1  0  0  0  0
 23 24  2  0  0  0  0
 23 56  1  0  0  0  0
 24 25  1  0  0  0  0
 26 30  1  0  0  0  0
 26 27  1  0  0  0  0
 26 57  1  0  0  0  0
 27 28  1  0  0  0  0
 27 58  1  0  0  0  0
 27 59  1  0  0  0  0
 28 29  1  0  0  0  0
 28 60  1  0  0  0  0
 28 61  1  0  0  0  0
 29 30  1  0  0  0  0
 30 62  1  0  0  0  0
 30 63  1  0  0  0  0
M  END
> <s_m_source_file>
AV-unprocessed.smi

> <i_m_source_file_index>
148

> <i_lp_mmshare_version>
43012

> <i_f3d_flags>
0

> <s_epik_input>
W0NIMl0xT1tDSDJdW0NIMl1bQ0BIXTFbQ0BIXShbQ0gyXVtPSF0pW0NIMl1uKFtjSF1uMiljKGMyMyluW2NIXW5jM040W0NIMl1bQ0gyXVtDSDJdW0NIMl1bQ0BIXTRbQ0BASF01W0NIMl1bQ0gyXVtDSDJdW0NASF01W09IXQ==

> <s_epik_cmdline>
J2VwaWtfcHl0aG9uJywgJy1waCcsICc3LjAnLCAnLXRuJywgJzgnLCAnLW1hJywgJzIwMCcsICctbWV0YWxfYmluZGluZycsICctaW1hZScsICc8aW5maWxlLm1hZT4nLCAnLW9tYWUnLCAnPG91dGZpbGUubWFlPic=

> <r_lp_tautomer_probability>
1

> <r_epik_Ionization_Penalty>
0.00556303

> <r_epik_Ionization_Penalty_Charging>
0

> <r_epik_Ionization_Penalty_Neutral>
0.00556303

> <r_epik_State_Penalty>
0.00401767

> <r_epik_Charging_Adjusted_Penalty>
0.00401767

> <i_epik_Tot_Q>
0

> <i_epik_Tot_abs_Q>
0

> <r_epik_Metal_State_Penalty>
-0

> <b_epik_Metal_Only>
0

> <s_lp_Force_Field>
OPLS_2005

> <r_lp_Energy>
71.0858

> <b_lp_Chiralities_Consistent>
1

> <s_lp_Variant>
AV-unprocessed.smi:148-8

> <Gold.Version>
5.8.1

> <Gold.Id.Protein>
6NUR|6NUR_protein|mol2

> <Gold.PLP.Fitness>
52.6512

> <Gold.PLP.PLP>
-42.2408

> <Gold.PLP.part.hbond>
-3.9262

> <Gold.PLP.part.metal>
0.0000

> <Gold.PLP.part.buried>
-2.2038

> <Gold.PLP.part.nonpolar>
-36.0955

> <Gold.PLP.part.repulsive>
0.0000

> <Gold.PLP.ligand.clash>
0.0000

> <Gold.PLP.ligand.torsion>
0.9839

> <Gold.PLP.Chemscore.Hbond>
3.8480

> <Gold.PLP.Chemscore.CHOScore>
0.0000

> <Gold.PLP.Chemscore.Metal>
0.0000

> <Gold.Chemscore.Hbonds>
donor molecule, donor type, donor heavy atom, donor atom, acceptor molecule, acceptor atom, score
      L1  H     1    31       P1  7948  0.89
      P1  H  7989  7998       L1    21  0.99
      P1  H  7997  8009       L1    22  0.96
      P1  H 10752 10763       L1    24  0.90

> <Gold.PLP.Chemscore.Internal.Correction>
0.8342

> <Gold.Rescore>
     Score         DG    S(hbond)    S(metal)    S(lipo)     H(rot)  DE(clash)    DE(int)     intcor
     17.31     -19.79       2.93        0.00     111.28       3.32       0.25       2.22       ----

> <Gold.Chemscore.Fitness>
17.3148

> <Gold.Chemscore.DG>
-19.7888

> <Gold.Chemscore.ZeroCoef>
-5.4800

> <Gold.Chemscore.Hbond>
2.9309

> <Gold.Chemscore.Metal>
0.0000

> <Gold.Chemscore.Lipo>
111.2800

> <Gold.Chemscore.Internal_Hbond>
0.0000

> <Gold.Chemscore.DEClash>
0.2541

> <Gold.Chemscore.DEInternal>
2.2200

> <Gold.Chemscore.Rot>
3.3203

> <Gold.Chemscore.Internal.Correction>
   9.000000E+99

> <Gold.Chemscore.Hbonds>
donor molecule, donor type, donor heavy atom, donor atom, acceptor molecule, acceptor atom, score
      L1  H     1    31       P1  7948  0.77
      P1  H  7989  7998       L1    21  0.86
      P1  H  7997  8009       L1    22  0.80
      P1  H 10752 10763       L1    24  0.17

> <Gold.Chemscore.Hbond.Weighted>
-9.7891

> <Gold.Chemscore.Metal.Weighted>
-0.0000

> <Gold.Chemscore.Lipo.Weighted>
-13.0198

> <Gold.Chemscore.Internal_Hbond.Weighted>
0.0000

> <Gold.Chemscore.DEClash.Weighted>
0.2541

> <Gold.Chemscore.DEInternal.Weighted>
2.2200

> <Gold.Chemscore.Rot.Weighted>
8.5000

> <Gold.Chemscore.Internal.Correction.Weighted>
   9.000000E+99

> <Gold.Protein.RotatedTorsions>
[ 6907 6896 6895 6894 ] final -113.02 input  -60.11 | X-H torsion
[ 7974 7965 7964 7962 ] final  -61.99 input  175.53 | X-H torsion
[ 8008 7997 7996 7995 ] final  147.50 input   59.86 | X-H torsion
[ 10167 10162 10161 10158 ] final  -85.12 input  -65.29 | X-H torsion
[ 10718 10713 10712 10709 ] final  -94.50 input   66.30 | X-H torsion
[ 10763 10752 10751 10750 ] final   99.43 input  -60.55 | X-H torsion
[ 11005 11000 10999 10996 ] final   61.02 input  -57.11 | X-H torsion

> <Gold.Protein.ActiveResidues>
 VAL166  LYS551  ARG553  GLY616  TRP617  ASP618  TYR619  PRO620  LYS621  CYS622 
 ASP623  PHE694  ASN695  SER759  ASP760  ASP761  ALA762  ILE779  LEU786  VAL792 
 PHE793  MET794  SER795  GLU796  ALA797  LYS798  CYS799  TRP800  GLU811  SER814 

> <Gold.Protein.RotatedAtoms>
  150.7799  133.9005  159.3339 H   0  0  0  0  0  0  0  0  0  0  0  0  # atno 6907 bound_to 6896
  151.6870  135.0951  160.0236 H   0  0  0  0  0  0  0  0  0  0  0  0  # atno 6908 bound_to 6896
  152.3848  133.6557  159.6225 H   0  0  0  0  0  0  0  0  0  0  0  0  # atno 6909 bound_to 6896
  145.7967  140.8678  143.0252 H   0  0  0  0  0  0  0  0  0  0  0  0  # atno 7974 bound_to 7965
  156.2822  140.2154  156.5548 H   0  0  0  0  0  0  0  0  0  0  0  0  # atno 8008 bound_to 7997
  154.7261  140.0499  157.0707 H   0  0  0  0  0  0  0  0  0  0  0  0  # atno 8009 bound_to 7997
  155.0414  140.3146  155.4726 H   0  0  0  0  0  0  0  0  0  0  0  0  # atno 8010 bound_to 7997
  140.4068  143.2639  151.9071 H   0  0  0  0  0  0  0  0  0  0  0  0  # atno 10167 bound_to 10162
  156.0028  130.5070  150.5936 H   0  0  0  0  0  0  0  0  0  0  0  0  # atno 10718 bound_to 10713
  153.3013  135.4114  155.1255 H   0  0  0  0  0  0  0  0  0  0  0  0  # atno 10763 bound_to 10752
  154.8550  135.3542  154.5848 H   0  0  0  0  0  0  0  0  0  0  0  0  # atno 10764 bound_to 10752
  153.6274  135.7062  153.5346 H   0  0  0  0  0  0  0  0  0  0  0  0  # atno 10765 bound_to 10752
  140.0190  134.6181  155.9667 H   0  0  0  0  0  0  0  0  0  0  0  0  # atno 11005 bound_to 11000
  144.6774  140.0201  143.7484 LP  0  0  0  0  0  0  0  0  0  0  0  0  # atno 17320 bound_to 7965
  145.9920  139.3022  143.0979 LP  0  0  0  0  0  0  0  0  0  0  0  0  # atno 17321 bound_to 7965
  139.4783  144.5578  151.8286 LP  0  0  0  0  0  0  0  0  0  0  0  0  # atno 17342 bound_to 10162
  140.4681  144.1626  150.5914 LP  0  0  0  0  0  0  0  0  0  0  0  0  # atno 17343 bound_to 10162
  157.3796  131.0779  151.1488 LP  0  0  0  0  0  0  0  0  0  0  0  0  # atno 17370 bound_to 10713
  157.2214  130.6483  149.5813 LP  0  0  0  0  0  0  0  0  0  0  0  0  # atno 17371 bound_to 10713
  141.1762  133.6540  156.4837 LP  0  0  0  0  0  0  0  0  0  0  0  0  # atno 17394 bound_to 11000
  140.4420  134.7007  157.4996 LP  0  0  0  0  0  0  0  0  0  0  0  0  # atno 17395 bound_to 11000

$$$$
