AV-unprocessed.smi:3314|AV-procd|sdf|12738|dock7
  -GOLD-   2272019 83D 1   1.00000     0.00000
 Structure written by MMmdl.
 38 39  0  0  0  0  0  0  0  0  2 V2000
  151.8168  145.3223  159.0712 C   0  0  0  0  0  0  0  0  0  0  0  0
  152.0650  143.8355  158.9187 C   0  0  0  0  0  0  0  0  0  0  0  0
  152.9761  143.1461  159.8162 C   0  0  0  0  0  0  0  0  0  0  0  0
  153.1794  141.8264  159.6676 C   0  0  0  0  0  0  0  0  0  0  0  0
  154.1119  141.0254  160.5522 C   0  0  0  0  0  0  0  0  0  0  0  0
  152.5294  141.1130  158.6676 N   0  0  0  0  0  0  0  0  0  0  0  0
  151.6415  141.7081  157.7543 C   0  0  0  0  0  0  0  0  0  0  0  0
  151.0186  141.0904  156.7930 N   0  0  0  0  0  0  0  0  0  0  0  0
  151.1538  139.7240  156.5614 C   0  0  0  0  0  0  0  0  0  0  0  0
  151.4284  138.8234  157.3598 O   0  0  0  0  0  0  0  0  0  0  0  0
  150.9236  139.3748  155.0749 C   0  0  1  0  0  0  0  0  0  0  0  0
  149.9616  138.1880  154.8244 C   0  0  0  0  0  0  0  0  0  0  0  0
  148.5587  138.5577  155.1293 N   0  3  2  0  0  0  0  0  0  0  0  0
  147.6197  137.4302  154.9491 C   0  0  0  0  0  0  0  0  0  0  0  0
  148.1555  139.7632  154.3709 C   0  0  0  0  0  0  0  0  0  0  0  0
  149.1266  140.9209  154.6515 C   0  0  0  0  0  0  0  0  0  0  0  0
  150.4592  140.5142  154.3422 O   0  0  0  0  0  0  0  0  0  0  0  0
  151.4391  143.1366  157.9426 C   0  0  0  0  0  0  0  0  0  0  0  0
  152.3829  145.7337  159.9074 H   0  0  0  0  0  0  0  0  0  0  0  0
  150.7585  145.5137  159.2504 H   0  0  0  0  0  0  0  0  0  0  0  0
  152.1140  145.8514  158.1655 H   0  0  0  0  0  0  0  0  0  0  0  0
  153.4890  143.6895  160.5966 H   0  0  0  0  0  0  0  0  0  0  0  0
  155.1284  141.4123  160.4753 H   0  0  0  0  0  0  0  0  0  0  0  0
  154.1270  139.9718  160.2707 H   0  0  0  0  0  0  0  0  0  0  0  0
  153.7968  141.0953  161.5937 H   0  0  0  0  0  0  0  0  0  0  0  0
  151.8998  139.1081  154.6680 H   0  0  0  0  0  0  0  0  0  0  0  0
  150.0310  137.8795  153.7800 H   0  0  0  0  0  0  0  0  0  0  0  0
  150.2557  137.3224  155.4200 H   0  0  0  0  0  0  0  0  0  0  0  0
  147.5970  137.0999  153.9097 H   0  0  0  0  0  0  0  0  0  0  0  0
  146.6093  137.7216  155.2379 H   0  0  0  0  0  0  0  0  0  0  0  0
  147.9123  136.5839  155.5712 H   0  0  0  0  0  0  0  0  0  0  0  0
  148.1429  139.5372  153.3033 H   0  0  0  0  0  0  0  0  0  0  0  0
  147.1423  140.0543  154.6500 H   0  0  0  0  0  0  0  0  0  0  0  0
  148.8718  141.7801  154.0313 H   0  0  0  0  0  0  0  0  0  0  0  0
  149.0474  141.2529  155.6872 H   0  0  0  0  0  0  0  0  0  0  0  0
  150.7698  143.6830  157.2933 H   0  0  0  0  0  0  0  0  0  0  0  0
  152.7396  140.1263  158.6209 H   0  0  0  0  0  0  0  0  0  0  0  0
  148.5293  138.8056  156.1083 H   0  0  0  0  0  0  0  0  0  0  0  0
  1  2  1  0  0  0  0
  1 19  1  0  0  0  0
  1 20  1  0  0  0  0
  1 21  1  0  0  0  0
  2 18  2  0  0  0  0
  2  3  1  0  0  0  0
  3  4  2  0  0  0  0
  3 22  1  0  0  0  0
  4  5  1  0  0  0  0
  4  6  1  0  0  0  0
  5 23  1  0  0  0  0
  5 24  1  0  0  0  0
  5 25  1  0  0  0  0
  6  7  1  0  0  0  0
  6 37  1  0  0  0  0
  7  8  2  0  0  0  0
  7 18  1  0  0  0  0
  8  9  1  0  0  0  0
  9 10  2  0  0  0  0
  9 11  1  0  0  0  0
 11 17  1  0  0  0  0
 11 12  1  0  0  0  0
 11 26  1  0  0  0  0
 12 13  1  0  0  0  0
 12 27  1  0  0  0  0
 12 28  1  0  0  0  0
 13 14  1  0  0  0  0
 13 15  1  0  0  0  0
 13 38  1  0  0  0  0
 14 29  1  0  0  0  0
 14 30  1  0  0  0  0
 14 31  1  0  0  0  0
 15 16  1  0  0  0  0
 15 32  1  0  0  0  0
 15 33  1  0  0  0  0
 16 17  1  0  0  0  0
 16 34  1  0  0  0  0
 16 35  1  0  0  0  0
 18 36  1  0  0  0  0
M  CHG  1  13   1
M  END
> <s_m_source_file>
AV-unprocessed.smi

> <i_m_source_file_index>
3314

> <i_lp_mmshare_version>
43012

> <i_f3d_flags>
0

> <s_epik_input>
W0NIM11jMVtjSF1jKFtDSDNdKW5jKFtjSF0xKVtOSF1DKD1PKVtDQEBIXTJbQ0gyXU4oW0NIM10pW0NIMl1bQ0gyXU8y

> <s_epik_cmdline>
J2VwaWtfcHl0aG9uJywgJy1waCcsICc3LjAnLCAnLXRuJywgJzgnLCAnLW1hJywgJzIwMCcsICctbWV0YWxfYmluZGluZycsICctaW1hZScsICc8aW5maWxlLm1hZT4nLCAnLW9tYWUnLCAnPG91dGZpbGUubWFlPic=

> <r_epik_Ionization_Penalty>
0.519783

> <r_epik_Ionization_Penalty_Charging>
0.519783

> <r_epik_Ionization_Penalty_Neutral>
1.74183e-13

> <r_epik_State_Penalty>
2.39351

> <r_epik_Charging_Adjusted_Penalty>
2.91329

> <i_epik_Tot_Q>
1

> <i_epik_Tot_abs_Q>
1

> <r_epik_Metal_State_Penalty>
2.41924

> <b_epik_Metal_Only>
0

> <s_lp_Force_Field>
OPLS_2005

> <r_lp_Energy>
32.167

> <b_lp_Chiralities_Consistent>
1

> <s_lp_Variant>
AV-unprocessed.smi:3314-8

> <Gold.Version>
5.8.1

> <Gold.Id.Protein>
6NUR|6NUR_protein|mol2

> <Gold.PLP.Fitness>
38.0180

> <Gold.PLP.PLP>
-35.7015

> <Gold.PLP.part.hbond>
-0.7400

> <Gold.PLP.part.metal>
0.0000

> <Gold.PLP.part.buried>
-5.3845

> <Gold.PLP.part.nonpolar>
-31.0542

> <Gold.PLP.part.repulsive>
0.2569

> <Gold.PLP.ligand.clash>
0.0000

> <Gold.PLP.ligand.torsion>
0.3399

> <Gold.PLP.Chemscore.Hbond>
0.9920

> <Gold.PLP.Chemscore.CHOScore>
0.0000

> <Gold.PLP.Chemscore.Metal>
0.0000

> <Gold.Chemscore.Hbonds>
donor molecule, donor type, donor heavy atom, donor atom, acceptor molecule, acceptor atom, score
      P1  H  7989  7998       L1    17  0.84

> <Gold.PLP.Chemscore.Internal.Correction>
0.0203

> <Gold.Rescore>
     Score         DG    S(hbond)    S(metal)    S(lipo)     H(rot)  DE(clash)    DE(int)     intcor
     14.20     -17.14       0.95        0.00      94.53       1.00       0.01       2.93       ----

> <Gold.Chemscore.Fitness>
14.1981

> <Gold.Chemscore.DG>
-17.1389

> <Gold.Chemscore.ZeroCoef>
-5.4800

> <Gold.Chemscore.Hbond>
0.9458

> <Gold.Chemscore.Metal>
0.0000

> <Gold.Chemscore.Lipo>
94.5291

> <Gold.Chemscore.Internal_Hbond>
0.0000

> <Gold.Chemscore.DEClash>
0.0149

> <Gold.Chemscore.DEInternal>
2.9260

> <Gold.Chemscore.Rot>
1.0000

> <Gold.Chemscore.Internal.Correction>
   9.000000E+99

> <Gold.Chemscore.Hbonds>
donor molecule, donor type, donor heavy atom, donor atom, acceptor molecule, acceptor atom, score
      P1  H  7989  7998       L1    17  0.35

> <Gold.Chemscore.Hbond.Weighted>
-3.1590

> <Gold.Chemscore.Metal.Weighted>
-0.0000

> <Gold.Chemscore.Lipo.Weighted>
-11.0599

> <Gold.Chemscore.Internal_Hbond.Weighted>
0.0000

> <Gold.Chemscore.DEClash.Weighted>
0.0149

> <Gold.Chemscore.DEInternal.Weighted>
2.9260

> <Gold.Chemscore.Rot.Weighted>
2.5600

> <Gold.Chemscore.Internal.Correction.Weighted>
   9.000000E+99

> <Gold.Protein.RotatedTorsions>
[ 6907 6896 6895 6894 ] final  128.96 input  -60.11 | X-H torsion
[ 7974 7965 7964 7962 ] final  118.82 input  175.53 | X-H torsion
[ 8008 7997 7996 7995 ] final  175.20 input   59.86 | X-H torsion
[ 10167 10162 10161 10158 ] final  -94.22 input  -65.29 | X-H torsion
[ 10718 10713 10712 10709 ] final  -37.90 input   66.30 | X-H torsion
[ 10763 10752 10751 10750 ] final  149.62 input  -60.55 | X-H torsion
[ 11005 11000 10999 10996 ] final -124.66 input  -57.11 | X-H torsion

> <Gold.Protein.ActiveResidues>
 VAL166  LYS551  ARG553  GLY616  TRP617  ASP618  TYR619  PRO620  LYS621  CYS622 
 ASP623  PHE694  ASN695  SER759  ASP760  ASP761  ALA762  ILE779  LEU786  VAL792 
 PHE793  MET794  SER795  GLU796  ALA797  LYS798  CYS799  TRP800  GLU811  SER814 

> <Gold.Protein.RotatedAtoms>
  152.3670  133.6369  159.6057 H   0  0  0  0  0  0  0  0  0  0  0  0  # atno 6907 bound_to 6896
  150.7641  133.9332  159.3442 H   0  0  0  0  0  0  0  0  0  0  0  0  # atno 6908 bound_to 6896
  151.7161  135.0904  160.0327 H   0  0  0  0  0  0  0  0  0  0  0  0  # atno 6909 bound_to 6896
  145.1506  139.3213  143.4569 H   0  0  0  0  0  0  0  0  0  0  0  0  # atno 7974 bound_to 7965
  156.0895  140.1415  156.9610 H   0  0  0  0  0  0  0  0  0  0  0  0  # atno 8008 bound_to 7997
  154.4633  140.0935  156.7000 H   0  0  0  0  0  0  0  0  0  0  0  0  # atno 8009 bound_to 7997
  155.4943  140.3449  155.4362 H   0  0  0  0  0  0  0  0  0  0  0  0  # atno 8010 bound_to 7997
  140.3166  143.3073  152.0091 H   0  0  0  0  0  0  0  0  0  0  0  0  # atno 10167 bound_to 10162
  156.3099  130.4251  149.8060 H   0  0  0  0  0  0  0  0  0  0  0  0  # atno 10718 bound_to 10713
  154.0742  135.2864  155.3302 H   0  0  0  0  0  0  0  0  0  0  0  0  # atno 10763 bound_to 10752
  154.6727  135.5293  153.8162 H   0  0  0  0  0  0  0  0  0  0  0  0  # atno 10764 bound_to 10752
  153.0474  135.6561  154.0921 H   0  0  0  0  0  0  0  0  0  0  0  0  # atno 10765 bound_to 10752
  140.9823  134.0655  157.3750 H   0  0  0  0  0  0  0  0  0  0  0  0  # atno 11005 bound_to 11000
  146.3495  140.1578  142.8591 LP  0  0  0  0  0  0  0  0  0  0  0  0  # atno 17320 bound_to 7965
  145.0435  140.8963  143.5038 LP  0  0  0  0  0  0  0  0  0  0  0  0  # atno 17321 bound_to 7965
  139.4882  144.6343  151.7006 LP  0  0  0  0  0  0  0  0  0  0  0  0  # atno 17342 bound_to 10162
  140.5521  144.0409  150.6131 LP  0  0  0  0  0  0  0  0  0  0  0  0  # atno 17343 bound_to 10162
  156.5407  130.8298  151.3268 LP  0  0  0  0  0  0  0  0  0  0  0  0  # atno 17370 bound_to 10713
  157.7388  130.9821  150.2277 LP  0  0  0  0  0  0  0  0  0  0  0  0  # atno 17371 bound_to 10713
  139.8955  135.0141  156.7007 LP  0  0  0  0  0  0  0  0  0  0  0  0  # atno 17394 bound_to 11000
  140.7167  133.9176  155.8120 LP  0  0  0  0  0  0  0  0  0  0  0  0  # atno 17395 bound_to 11000

$$$$
