AV-unprocessed.smi:2018|AV-procd|sdf|8169|dock3
  -GOLD-   2272010413D 1   1.00000     0.00000
 Structure written by MMmdl.
 35 36  0  0  0  0  0  0  0  0  1 V2000
  152.2403  143.8790  162.3489 C   0  0  0  0  0  0  0  0  0  0  0  0
  152.1582  143.4177  160.9343 C   0  0  0  0  0  0  0  0  0  0  0  0
  151.8549  142.1657  160.5818 N   0  0  0  0  0  0  0  0  0  0  0  0
  151.8429  141.9850  159.1949 C   0  0  0  0  0  0  0  0  0  0  0  0
  151.5237  140.6397  158.6175 C   0  0  0  0  0  0  0  0  0  0  0  0
  151.5210  140.6518  157.0798 C   0  0  0  0  0  0  0  0  0  0  0  0
  150.3352  141.3158  156.5513 N   0  0  0  0  0  0  0  0  0  0  0  0
  149.8420  141.1486  155.3104 C   0  0  0  0  0  0  0  0  0  0  0  0
  150.3528  140.3916  154.4844 O   0  0  0  0  0  0  0  0  0  0  0  0
  148.6303  141.9446  154.9764 C   0  0  0  0  0  0  0  0  0  0  0  0
  147.8772  142.4091  155.9239 N   0  0  0  0  0  0  0  0  0  0  0  0
  146.7541  143.1676  155.6627 N   0  0  0  0  0  0  0  0  0  0  0  0
  146.1784  143.8336  156.8295 C   0  0  0  0  0  0  0  0  0  0  0  0
  146.1760  143.2950  154.4424 C   0  0  0  0  0  0  0  0  0  0  0  0
  145.1842  143.9906  154.2244 O   0  0  0  0  0  0  0  0  0  0  0  0
  146.8032  142.4879  153.3021 C   0  0  0  0  0  0  0  0  0  0  0  0
  148.3079  142.2353  153.5236 C   0  0  0  0  0  0  0  0  0  0  0  0
  152.1466  143.1275  158.4977 C   0  0  0  0  0  0  0  0  0  0  0  0
  152.4574  144.4735  159.5592 S   0  0  0  0  0  0  0  0  0  0  0  0
  151.7987  143.1412  163.0196 H   0  0  0  0  0  0  0  0  0  0  0  0
  151.7047  144.8212  162.4661 H   0  0  0  0  0  0  0  0  0  0  0  0
  153.2822  144.0298  162.6310 H   0  0  0  0  0  0  0  0  0  0  0  0
  152.2453  139.9032  158.9735 H   0  0  0  0  0  0  0  0  0  0  0  0
  150.5524  140.3049  158.9837 H   0  0  0  0  0  0  0  0  0  0  0  0
  152.4223  141.1354  156.6992 H   0  0  0  0  0  0  0  0  0  0  0  0
  151.5328  139.6300  156.6991 H   0  0  0  0  0  0  0  0  0  0  0  0
  149.8560  141.9560  157.1683 H   0  0  0  0  0  0  0  0  0  0  0  0
  145.1502  143.5068  156.9922 H   0  0  0  0  0  0  0  0  0  0  0  0
  146.1745  144.9155  156.6895 H   0  0  0  0  0  0  0  0  0  0  0  0
  146.7400  143.6220  157.7410 H   0  0  0  0  0  0  0  0  0  0  0  0
  146.2755  141.5350  153.2470 H   0  0  0  0  0  0  0  0  0  0  0  0
  146.6395  142.9935  152.3498 H   0  0  0  0  0  0  0  0  0  0  0  0
  148.8829  143.1020  153.1951 H   0  0  0  0  0  0  0  0  0  0  0  0
  148.6140  141.4044  152.8868 H   0  0  0  0  0  0  0  0  0  0  0  0
  152.2070  143.2576  157.4273 H   0  0  0  0  0  0  0  0  0  0  0  0
  1  2  1  0  0  0  0
  1 20  1  0  0  0  0
  1 21  1  0  0  0  0
  1 22  1  0  0  0  0
  2 19  1  0  0  0  0
  2  3  2  0  0  0  0
  3  4  1  0  0  0  0
  4  5  1  0  0  0  0
  4 18  2  0  0  0  0
  5  6  1  0  0  0  0
  5 23  1  0  0  0  0
  5 24  1  0  0  0  0
  6  7  1  0  0  0  0
  6 25  1  0  0  0  0
  6 26  1  0  0  0  0
  7  8  1  0  0  0  0
  7 27  1  0  0  0  0
  8  9  2  0  0  0  0
  8 10  1  0  0  0  0
 10 17  1  0  0  0  0
 10 11  2  0  0  0  0
 11 12  1  0  0  0  0
 12 13  1  0  0  0  0
 12 14  1  0  0  0  0
 13 28  1  0  0  0  0
 13 29  1  0  0  0  0
 13 30  1  0  0  0  0
 14 15  2  0  0  0  0
 14 16  1  0  0  0  0
 16 17  1  0  0  0  0
 16 31  1  0  0  0  0
 16 32  1  0  0  0  0
 17 33  1  0  0  0  0
 17 34  1  0  0  0  0
 18 19  1  0  0  0  0
 18 35  1  0  0  0  0
M  END
> <s_m_source_file>
AV-unprocessed.smi

> <i_m_source_file_index>
2018

> <i_lp_mmshare_version>
43012

> <i_f3d_flags>
0

> <s_epik_input>
W0NIM11jMW5jKFtjSF1zMSlbQ0gyXVtDSDJdW05IXUMoPU8pQzI9Tk4oW0NIM10pQyg9TylbQ0gyXVtDSDJdMg==

> <s_epik_cmdline>
J2VwaWtfcHl0aG9uJywgJy1waCcsICc3LjAnLCAnLXRuJywgJzgnLCAnLW1hJywgJzIwMCcsICctbWV0YWxfYmluZGluZycsICctaW1hZScsICc8aW5maWxlLm1hZT4nLCAnLW9tYWUnLCAnPG91dGZpbGUubWFlPic=

> <r_epik_Ionization_Penalty>
0.000694267

> <r_epik_Ionization_Penalty_Charging>
0

> <r_epik_Ionization_Penalty_Neutral>
0.000694267

> <r_epik_State_Penalty>
0.000389372

> <r_epik_Charging_Adjusted_Penalty>
0.000389372

> <i_epik_Tot_Q>
0

> <i_epik_Tot_abs_Q>
0

> <r_epik_Metal_State_Penalty>
0.0645979

> <b_epik_Metal_Only>
0

> <s_epik_Chemistry_Notes>
This compound has an imine and may undergo hydrolysis.

> <s_lp_Force_Field>
OPLS_2005

> <r_lp_Energy>
11.1599

> <b_lp_Chiralities_Consistent>
1

> <s_lp_Variant>
AV-unprocessed.smi:2018-1

> <Gold.Version>
5.8.1

> <Gold.Id.Protein>
6NUR|6NUR_protein|mol2

> <Gold.PLP.Fitness>
39.3909

> <Gold.PLP.PLP>
-37.2136

> <Gold.PLP.part.hbond>
-1.0000

> <Gold.PLP.part.metal>
0.0000

> <Gold.PLP.part.buried>
-4.7711

> <Gold.PLP.part.nonpolar>
-31.1591

> <Gold.PLP.part.repulsive>
0.7734

> <Gold.PLP.ligand.clash>
0.0000

> <Gold.PLP.ligand.torsion>
0.4083

> <Gold.PLP.Chemscore.Hbond>
0.9920

> <Gold.PLP.Chemscore.CHOScore>
0.0000

> <Gold.PLP.Chemscore.Metal>
0.0000

> <Gold.Chemscore.Hbonds>
donor molecule, donor type, donor heavy atom, donor atom, acceptor molecule, acceptor atom, score
      P1  H  7989  7998       L1     9  1.00

> <Gold.PLP.Chemscore.Internal.Correction>
0.0178

> <Gold.Rescore>
     Score         DG    S(hbond)    S(metal)    S(lipo)     H(rot)  DE(clash)    DE(int)     intcor
     15.39     -15.90       0.94        0.00      93.79       1.45       0.10       0.40       ----

> <Gold.Chemscore.Fitness>
15.3930

> <Gold.Chemscore.DG>
-15.9000

> <Gold.Chemscore.ZeroCoef>
-5.4800

> <Gold.Chemscore.Hbond>
0.9442

> <Gold.Chemscore.Metal>
0.0000

> <Gold.Chemscore.Lipo>
93.7883

> <Gold.Chemscore.Internal_Hbond>
0.0000

> <Gold.Chemscore.DEClash>
0.1038

> <Gold.Chemscore.DEInternal>
0.4032

> <Gold.Chemscore.Rot>
1.4480

> <Gold.Chemscore.Internal.Correction>
   9.000000E+99

> <Gold.Chemscore.Hbonds>
donor molecule, donor type, donor heavy atom, donor atom, acceptor molecule, acceptor atom, score
      P1  H  7989  7998       L1     9  0.94

> <Gold.Chemscore.Hbond.Weighted>
-3.1537

> <Gold.Chemscore.Metal.Weighted>
-0.0000

> <Gold.Chemscore.Lipo.Weighted>
-10.9732

> <Gold.Chemscore.Internal_Hbond.Weighted>
0.0000

> <Gold.Chemscore.DEClash.Weighted>
0.1038

> <Gold.Chemscore.DEInternal.Weighted>
0.4032

> <Gold.Chemscore.Rot.Weighted>
3.7070

> <Gold.Chemscore.Internal.Correction.Weighted>
   9.000000E+99

> <Gold.Protein.RotatedTorsions>
[ 6907 6896 6895 6894 ] final  170.21 input  -60.11 | X-H torsion
[ 7974 7965 7964 7962 ] final -168.53 input  175.53 | X-H torsion
[ 8008 7997 7996 7995 ] final   72.02 input   59.86 | X-H torsion
[ 10167 10162 10161 10158 ] final -169.74 input  -65.29 | X-H torsion
[ 10718 10713 10712 10709 ] final   74.89 input   66.30 | X-H torsion
[ 10763 10752 10751 10750 ] final   68.75 input  -60.55 | X-H torsion
[ 11005 11000 10999 10996 ] final   94.45 input  -57.11 | X-H torsion

> <Gold.Protein.ActiveResidues>
 VAL166  LYS551  ARG553  GLY616  TRP617  ASP618  TYR619  PRO620  LYS621  CYS622 
 ASP623  PHE694  ASN695  SER759  ASP760  ASP761  ALA762  ILE779  LEU786  VAL792 
 PHE793  MET794  SER795  GLU796  ALA797  LYS798  CYS799  TRP800  GLU811  SER814 

> <Gold.Protein.RotatedAtoms>
  151.8196  133.3393  159.3579 H   0  0  0  0  0  0  0  0  0  0  0  0  # atno 6907 bound_to 6896
  150.7299  134.5586  159.5840 H   0  0  0  0  0  0  0  0  0  0  0  0  # atno 6908 bound_to 6896
  152.3015  134.7606  160.0408 H   0  0  0  0  0  0  0  0  0  0  0  0  # atno 6909 bound_to 6896
  144.7201  140.2356  143.6298 H   0  0  0  0  0  0  0  0  0  0  0  0  # atno 7974 bound_to 7965
  155.7625  140.3486  155.5205 H   0  0  0  0  0  0  0  0  0  0  0  0  # atno 8008 bound_to 7997
  155.8900  140.1016  157.1446 H   0  0  0  0  0  0  0  0  0  0  0  0  # atno 8009 bound_to 7997
  154.4032  140.1306  156.4290 H   0  0  0  0  0  0  0  0  0  0  0  0  # atno 8010 bound_to 7997
  139.5904  144.1225  152.1627 H   0  0  0  0  0  0  0  0  0  0  0  0  # atno 10167 bound_to 10162
  157.6611  130.9700  150.1275 H   0  0  0  0  0  0  0  0  0  0  0  0  # atno 10718 bound_to 10713
  153.0251  135.5236  154.7182 H   0  0  0  0  0  0  0  0  0  0  0  0  # atno 10763 bound_to 10752
  154.6245  135.2893  155.0290 H   0  0  0  0  0  0  0  0  0  0  0  0  # atno 10764 bound_to 10752
  154.1265  135.6599  153.4966 H   0  0  0  0  0  0  0  0  0  0  0  0  # atno 10765 bound_to 10752
  139.8798  134.8846  156.3865 H   0  0  0  0  0  0  0  0  0  0  0  0  # atno 11005 bound_to 11000
  145.8369  139.2111  143.1850 LP  0  0  0  0  0  0  0  0  0  0  0  0  # atno 17320 bound_to 7965
  146.0381  140.8192  142.9842 LP  0  0  0  0  0  0  0  0  0  0  0  0  # atno 17321 bound_to 7965
  140.0798  144.5710  150.7130 LP  0  0  0  0  0  0  0  0  0  0  0  0  # atno 17342 bound_to 10162
  140.7168  143.2552  151.4408 LP  0  0  0  0  0  0  0  0  0  0  0  0  # atno 17343 bound_to 10162
  156.2130  130.3668  149.8647 LP  0  0  0  0  0  0  0  0  0  0  0  0  # atno 17370 bound_to 10713
  156.6520  130.8747  151.3533 LP  0  0  0  0  0  0  0  0  0  0  0  0  # atno 17371 bound_to 10713
  140.9362  133.7545  156.0088 LP  0  0  0  0  0  0  0  0  0  0  0  0  # atno 17394 bound_to 11000
  140.8273  134.3220  157.5361 LP  0  0  0  0  0  0  0  0  0  0  0  0  # atno 17395 bound_to 11000

$$$$
