AV-unprocessed.smi:220|AV-procd|sdf|1682|dock7
  -GOLD-   2262020113D 1   1.00000     0.00000
 Structure written by MMmdl.
 51 55  0  0  0  0  0  0  0  0  1 V2000
  149.7517  141.6183  155.7990 N   0  0  0  0  0  0  0  0  0  0  0  0
  150.9405  141.2842  156.3063 C   0  0  0  0  0  0  0  0  0  0  0  0
  151.7714  140.6479  155.6603 O   0  0  0  0  0  0  0  0  0  0  0  0
  151.2341  141.7495  157.7415 C   0  0  2  0  0  0  0  0  0  0  0  0
  151.8127  143.1795  157.7817 C   0  0  1  0  0  0  0  0  0  0  0  0
  150.8022  144.3078  158.0479 C   0  0  0  0  0  0  0  0  0  0  0  0
  151.5123  145.2383  159.0328 C   0  0  0  0  0  0  0  0  0  0  0  0
  152.3275  144.2930  159.9161 C   0  0  0  0  0  0  0  0  0  0  0  0
  152.7996  143.1924  158.9558 C   0  0  1  0  0  0  0  0  0  0  0  0
  152.7858  141.7620  159.5031 C   0  0  0  0  0  0  0  0  0  0  0  0
  152.2609  140.9539  158.4144 N   0  0  0  0  0  0  0  0  0  0  0  0
  151.9597  139.6808  158.7575 C   0  0  0  0  0  0  0  0  0  0  0  0
  152.9218  138.9858  159.4114 N   0  0  0  0  0  0  0  0  0  0  0  0
  152.6993  137.7217  159.7819 C   0  0  0  0  0  0  0  0  0  0  0  0
  151.6033  136.9809  159.6054 N   0  0  0  0  0  0  0  0  0  0  0  0
  150.6279  137.6821  158.9591 C   0  0  0  0  0  0  0  0  0  0  0  0
  150.7195  139.0277  158.5036 C   0  0  0  0  0  0  0  0  0  0  0  0
  149.5255  139.4023  157.8984 N   0  0  0  0  0  0  0  0  0  0  0  0
  148.7771  138.3367  157.9804 C   0  0  0  0  0  0  0  0  0  0  0  0
  149.3563  137.2591  158.6115 N   0  0  0  0  0  0  0  0  0  0  0  0
  148.7544  135.9545  158.8407 C   0  0  0  0  0  0  0  0  0  0  0  0
  147.5818  135.9764  159.8419 C   0  0  0  0  0  0  0  0  0  0  0  0
  146.4456  136.8744  159.3218 C   0  0  0  0  0  0  0  0  0  0  0  0
  145.7843  137.5342  160.3820 O   0  0  0  0  0  0  0  0  0  0  0  0
  147.1187  134.6089  160.3648 C   0  0  0  0  0  0  0  0  0  0  0  0
  147.2149  135.0372  161.7393 O   0  0  0  0  0  0  0  0  0  0  0  0
  147.9607  136.1969  161.3127 C   0  0  0  0  0  0  0  0  0  0  0  0
  149.5124  141.3385  154.8587 H   0  0  0  0  0  0  0  0  0  0  0  0
  149.0978  142.1508  156.3538 H   0  0  0  0  0  0  0  0  0  0  0  0
  150.3127  141.7113  158.3219 H   0  0  0  0  0  0  0  0  0  0  0  0
  152.3723  143.4003  156.8702 H   0  0  0  0  0  0  0  0  0  0  0  0
  150.5009  144.8203  157.1338 H   0  0  0  0  0  0  0  0  0  0  0  0
  149.8987  143.9173  158.5175 H   0  0  0  0  0  0  0  0  0  0  0  0
  152.1830  145.9067  158.4913 H   0  0  0  0  0  0  0  0  0  0  0  0
  150.8173  145.8533  159.6051 H   0  0  0  0  0  0  0  0  0  0  0  0
  153.1564  144.7957  160.4146 H   0  0  0  0  0  0  0  0  0  0  0  0
  151.6783  143.8804  160.6891 H   0  0  0  0  0  0  0  0  0  0  0  0
  153.7916  143.4350  158.5711 H   0  0  0  0  0  0  0  0  0  0  0  0
  153.7870  141.4355  159.7871 H   0  0  0  0  0  0  0  0  0  0  0  0
  152.1439  141.6762  160.3814 H   0  0  0  0  0  0  0  0  0  0  0  0
  153.5164  137.2341  160.2927 H   0  0  0  0  0  0  0  0  0  0  0  0
  147.7743  138.3108  157.5808 H   0  0  0  0  0  0  0  0  0  0  0  0
  148.4229  135.5723  157.8744 H   0  0  0  0  0  0  0  0  0  0  0  0
  149.5320  135.2655  159.1724 H   0  0  0  0  0  0  0  0  0  0  0  0
  146.8100  137.6167  158.6116 H   0  0  0  0  0  0  0  0  0  0  0  0
  145.7038  136.2821  158.7848 H   0  0  0  0  0  0  0  0  0  0  0  0
  145.1092  136.9638  160.7164 H   0  0  0  0  0  0  0  0  0  0  0  0
  146.1009  134.3428  160.0769 H   0  0  0  0  0  0  0  0  0  0  0  0
  147.8095  133.7915  160.1535 H   0  0  0  0  0  0  0  0  0  0  0  0
  149.0273  136.0897  161.5162 H   0  0  0  0  0  0  0  0  0  0  0  0
  147.5756  137.1237  161.7395 H   0  0  0  0  0  0  0  0  0  0  0  0
  1  2  1  0  0  0  0
  1 28  1  0  0  0  0
  1 29  1  0  0  0  0
  2  3  2  0  0  0  0
  2  4  1  0  0  0  0
  4 11  1  0  0  0  0
  4  5  1  0  0  0  0
  4 30  1  0  0  0  0
  5  9  1  0  0  0  0
  5  6  1  0  0  0  0
  5 31  1  0  0  0  0
  6  7  1  0  0  0  0
  6 32  1  0  0  0  0
  6 33  1  0  0  0  0
  7  8  1  0  0  0  0
  7 34  1  0  0  0  0
  7 35  1  0  0  0  0
  8  9  1  0  0  0  0
  8 36  1  0  0  0  0
  8 37  1  0  0  0  0
  9 10  1  0  0  0  0
  9 38  1  0  0  0  0
 10 11  1  0  0  0  0
 10 39  1  0  0  0  0
 10 40  1  0  0  0  0
 11 12  1  0  0  0  0
 12 17  1  0  0  0  0
 12 13  2  0  0  0  0
 13 14  1  0  0  0  0
 14 15  2  0  0  0  0
 14 41  1  0  0  0  0
 15 16  1  0  0  0  0
 16 20  1  0  0  0  0
 16 17  2  0  0  0  0
 17 18  1  0  0  0  0
 18 19  2  0  0  0  0
 19 20  1  0  0  0  0
 19 42  1  0  0  0  0
 20 21  1  0  0  0  0
 21 22  1  0  0  0  0
 21 43  1  0  0  0  0
 21 44  1  0  0  0  0
 22 27  1  0  0  0  0
 22 23  1  0  0  0  0
 22 25  1  0  0  0  0
 23 24  1  0  0  0  0
 23 45  1  0  0  0  0
 23 46  1  0  0  0  0
 24 47  1  0  0  0  0
 25 26  1  0  0  0  0
 25 48  1  0  0  0  0
 25 49  1  0  0  0  0
 26 27  1  0  0  0  0
 27 50  1  0  0  0  0
 27 51  1  0  0  0  0
M  END
> <s_m_source_file>
AV-unprocessed.smi

> <i_m_source_file_index>
220

> <i_lp_mmshare_version>
43012

> <i_f3d_flags>
0

> <s_epik_input>
W0NIMl0xW0NIMl1bQ0gyXVtDQEhdKFtDQEhdMTIpW0NIMl1OKFtDQEBIXTJDKD1PKVtOSDJdKWMobltjSF1uMyljKGMzNCluW2NIXW40W0NIMl1DNShbQ0gyXVtPSF0pW0NIMl1PW0NIMl01

> <s_epik_cmdline>
J2VwaWtfcHl0aG9uJywgJy1waCcsICc3LjAnLCAnLXRuJywgJzgnLCAnLW1hJywgJzIwMCcsICctbWV0YWxfYmluZGluZycsICctaW1hZScsICc8aW5maWxlLm1hZT4nLCAnLW9tYWUnLCAnPG91dGZpbGUubWFlPic=

> <r_lp_tautomer_probability>
1

> <r_epik_Ionization_Penalty>
0.00118987

> <r_epik_Ionization_Penalty_Charging>
0

> <r_epik_Ionization_Penalty_Neutral>
0.00118987

> <r_epik_State_Penalty>
0.000654261

> <r_epik_Charging_Adjusted_Penalty>
0.000654261

> <i_epik_Tot_Q>
0

> <i_epik_Tot_abs_Q>
0

> <r_epik_Metal_State_Penalty>
-0

> <b_epik_Metal_Only>
0

> <s_lp_Force_Field>
OPLS_2005

> <r_lp_Energy>
61.293

> <b_lp_Chiralities_Consistent>
1

> <s_lp_Variant>
AV-unprocessed.smi:220-1

> <Gold.Version>
5.8.1

> <Gold.Id.Protein>
6NUR|6NUR_protein|mol2

> <Gold.PLP.Fitness>
49.4480

> <Gold.PLP.PLP>
-45.7821

> <Gold.PLP.part.hbond>
-4.0000

> <Gold.PLP.part.metal>
0.0000

> <Gold.PLP.part.buried>
-6.6122

> <Gold.PLP.part.nonpolar>
-35.0963

> <Gold.PLP.part.repulsive>
0.1068

> <Gold.PLP.ligand.clash>
1.1300

> <Gold.PLP.ligand.torsion>
1.5695

> <Gold.PLP.Chemscore.Hbond>
2.5023

> <Gold.PLP.Chemscore.CHOScore>
0.0000

> <Gold.PLP.Chemscore.Metal>
0.0000

> <Gold.Chemscore.Hbonds>
donor molecule, donor type, donor heavy atom, donor atom, acceptor molecule, acceptor atom, score
      P1  H  6896  6908       L1    15  1.00
      P1  H  6934  6947       L1    24  0.84
      P1  H  7989  7998       L1     3  0.44

> <Gold.PLP.Chemscore.Internal.Correction>
0.4280

> <Gold.Rescore>
     Score         DG    S(hbond)    S(metal)    S(lipo)     H(rot)  DE(clash)    DE(int)     intcor
     11.11     -14.93       1.60        0.00     106.68       3.27       0.10       3.72       ----

> <Gold.Chemscore.Fitness>
11.1098

> <Gold.Chemscore.DG>
-14.9281

> <Gold.Chemscore.ZeroCoef>
-5.4800

> <Gold.Chemscore.Hbond>
1.5983

> <Gold.Chemscore.Metal>
0.0000

> <Gold.Chemscore.Lipo>
106.6816

> <Gold.Chemscore.Internal_Hbond>
0.0000

> <Gold.Chemscore.DEClash>
0.0957

> <Gold.Chemscore.DEInternal>
3.7227

> <Gold.Chemscore.Rot>
3.2703

> <Gold.Chemscore.Internal.Correction>
   9.000000E+99

> <Gold.Chemscore.Hbonds>
donor molecule, donor type, donor heavy atom, donor atom, acceptor molecule, acceptor atom, score
      P1  H  6896  6908       L1    15  0.99
      P1  H  6934  6947       L1    24  0.32
      P1  H  7989  7998       L1     3  0.40

> <Gold.Chemscore.Hbond.Weighted>
-5.3384

> <Gold.Chemscore.Metal.Weighted>
-0.0000

> <Gold.Chemscore.Lipo.Weighted>
-12.4817

> <Gold.Chemscore.Internal_Hbond.Weighted>
0.0000

> <Gold.Chemscore.DEClash.Weighted>
0.0957

> <Gold.Chemscore.DEInternal.Weighted>
3.7227

> <Gold.Chemscore.Rot.Weighted>
8.3721

> <Gold.Chemscore.Internal.Correction.Weighted>
   9.000000E+99

> <Gold.Protein.RotatedTorsions>
[ 6907 6896 6895 6894 ] final -127.95 input  -60.11 | X-H torsion
[ 7974 7965 7964 7962 ] final  -63.93 input  175.53 | X-H torsion
[ 8008 7997 7996 7995 ] final   -0.63 input   59.86 | X-H torsion
[ 10167 10162 10161 10158 ] final  -67.66 input  -65.29 | X-H torsion
[ 10718 10713 10712 10709 ] final   89.10 input   66.30 | X-H torsion
[ 10763 10752 10751 10750 ] final  -43.32 input  -60.55 | X-H torsion
[ 11005 11000 10999 10996 ] final   58.96 input  -57.11 | X-H torsion

> <Gold.Protein.ActiveResidues>
 VAL166  LYS551  ARG553  GLY616  TRP617  ASP618  TYR619  PRO620  LYS621  CYS622 
 ASP623  PHE694  ASN695  SER759  ASP760  ASP761  ALA762  ILE779  LEU786  VAL792 
 PHE793  MET794  SER795  GLU796  ALA797  LYS798  CYS799  TRP800  GLU811  SER814 

> <Gold.Protein.RotatedAtoms>
  150.9127  133.6977  159.2850 H   0  0  0  0  0  0  0  0  0  0  0  0  # atno 6907 bound_to 6896
  151.4459  135.1023  159.9693 H   0  0  0  0  0  0  0  0  0  0  0  0  # atno 6908 bound_to 6896
  152.4938  133.8524  159.7263 H   0  0  0  0  0  0  0  0  0  0  0  0  # atno 6909 bound_to 6896
  145.7730  140.8803  143.0370 H   0  0  0  0  0  0  0  0  0  0  0  0  # atno 7974 bound_to 7965
  154.6559  140.2579  155.7162 H   0  0  0  0  0  0  0  0  0  0  0  0  # atno 8008 bound_to 7997
  156.2596  140.2858  156.0932 H   0  0  0  0  0  0  0  0  0  0  0  0  # atno 8009 bound_to 7997
  155.1381  140.0380  157.2782 H   0  0  0  0  0  0  0  0  0  0  0  0  # atno 8010 bound_to 7997
  140.5566  143.2312  151.6809 H   0  0  0  0  0  0  0  0  0  0  0  0  # atno 10167 bound_to 10162
  157.6953  131.0320  150.3375 H   0  0  0  0  0  0  0  0  0  0  0  0  # atno 10718 bound_to 10713
  153.9936  135.6702  153.4755 H   0  0  0  0  0  0  0  0  0  0  0  0  # atno 10763 bound_to 10752
  153.0694  135.4983  154.8268 H   0  0  0  0  0  0  0  0  0  0  0  0  # atno 10764 bound_to 10752
  154.7095  135.3094  154.9182 H   0  0  0  0  0  0  0  0  0  0  0  0  # atno 10765 bound_to 10752
  140.0339  134.5972  155.9470 H   0  0  0  0  0  0  0  0  0  0  0  0  # atno 11005 bound_to 11000
  144.6809  139.9882  143.7484 LP  0  0  0  0  0  0  0  0  0  0  0  0  # atno 17320 bound_to 7965
  146.0151  139.3203  143.0847 LP  0  0  0  0  0  0  0  0  0  0  0  0  # atno 17321 bound_to 7965
  139.5051  144.3731  152.0451 LP  0  0  0  0  0  0  0  0  0  0  0  0  # atno 17342 bound_to 10162
  140.2853  144.3814  150.6106 LP  0  0  0  0  0  0  0  0  0  0  0  0  # atno 17343 bound_to 10162
  156.3840  130.3885  149.7080 LP  0  0  0  0  0  0  0  0  0  0  0  0  # atno 17370 bound_to 10713
  156.4452  130.7880  151.2902 LP  0  0  0  0  0  0  0  0  0  0  0  0  # atno 17371 bound_to 10713
  141.1846  133.6553  156.5164 LP  0  0  0  0  0  0  0  0  0  0  0  0  # atno 17394 bound_to 11000
  140.4180  134.7212  157.4874 LP  0  0  0  0  0  0  0  0  0  0  0  0  # atno 17395 bound_to 11000

$$$$
