AV-unprocessed.smi:2143|AV-procd|sdf|8726|dock2
  -GOLD-   2272011493D 1   1.00000     0.00000
 Structure written by MMmdl.
 44 45  0  0  0  0  0  0  0  0  1 V2000
  152.4537  144.8075  158.3937 C   0  0  0  0  0  0  0  0  0  0  0  0
  151.3677  144.0270  159.1628 C   0  0  2  0  0  0  0  0  0  0  0  0
  151.2981  144.4594  160.6416 C   0  0  0  0  0  0  0  0  0  0  0  0
  152.4963  143.9432  161.4538 C   0  0  0  0  0  0  0  0  0  0  0  0
  152.6216  142.4173  161.3457 C   0  0  0  0  0  0  0  0  0  0  0  0
  152.6957  141.9464  159.8802 C   0  0  1  0  0  0  0  0  0  0  0  0
  152.7232  140.4843  159.8608 N   0  0  0  0  0  0  0  0  0  0  0  0
  153.8005  139.7173  159.6325 C   0  0  0  0  0  0  0  0  0  0  0  0
  154.9182  140.1714  159.3833 O   0  0  0  0  0  0  0  0  0  0  0  0
  153.5610  138.2018  159.6724 C   0  0  0  0  0  0  0  0  0  0  0  0
  154.0000  137.5800  160.9285 N   0  0  0  0  0  0  0  0  0  0  0  0
  154.1874  138.3643  162.0519 C   0  0  0  0  0  0  0  0  0  0  0  0
  154.5697  137.8704  163.2498 C   0  0  0  0  0  0  0  0  0  0  0  0
  154.8155  136.4445  163.4277 C   0  0  0  0  0  0  0  0  0  0  0  0
  155.1421  135.9483  164.5068 O   0  0  0  0  0  0  0  0  0  0  0  0
  154.6343  135.6673  162.2588 N   0  0  0  0  0  0  0  0  0  0  0  0
  154.8382  134.2363  162.3517 C   0  0  0  0  0  0  0  0  0  0  0  0
  154.2160  136.1874  161.0131 C   0  0  0  0  0  0  0  0  0  0  0  0
  154.0343  135.4647  160.0300 O   0  0  0  0  0  0  0  0  0  0  0  0
  151.4969  142.4837  159.0546 C   0  0  2  0  0  0  0  0  0  0  0  0
  151.5060  141.9972  157.5917 C   0  0  0  0  0  0  0  0  0  0  0  0
  153.4592  144.5558  158.7292 H   0  0  0  0  0  0  0  0  0  0  0  0
  152.3252  145.8821  158.5249 H   0  0  0  0  0  0  0  0  0  0  0  0
  152.4044  144.6128  157.3228 H   0  0  0  0  0  0  0  0  0  0  0  0
  150.4153  144.3058  158.7095 H   0  0  0  0  0  0  0  0  0  0  0  0
  151.2370  145.5456  160.7161 H   0  0  0  0  0  0  0  0  0  0  0  0
  150.3778  144.0759  161.0844 H   0  0  0  0  0  0  0  0  0  0  0  0
  153.4163  144.4140  161.1062 H   0  0  0  0  0  0  0  0  0  0  0  0
  152.3841  144.2303  162.4998 H   0  0  0  0  0  0  0  0  0  0  0  0
  153.5066  142.0842  161.8893 H   0  0  0  0  0  0  0  0  0  0  0  0
  151.7659  141.9538  161.8390 H   0  0  0  0  0  0  0  0  0  0  0  0
  153.6159  142.3411  159.4474 H   0  0  0  0  0  0  0  0  0  0  0  0
  151.8477  140.0166  160.0459 H   0  0  0  0  0  0  0  0  0  0  0  0
  152.5035  137.9906  159.5021 H   0  0  0  0  0  0  0  0  0  0  0  0
  154.0900  137.7530  158.8305 H   0  0  0  0  0  0  0  0  0  0  0  0
  154.0127  139.4275  161.9730 H   0  0  0  0  0  0  0  0  0  0  0  0
  154.6911  138.5389  164.0895 H   0  0  0  0  0  0  0  0  0  0  0  0
  155.2583  133.8729  161.4127 H   0  0  0  0  0  0  0  0  0  0  0  0
  153.8631  133.7905  162.5531 H   0  0  0  0  0  0  0  0  0  0  0  0
  155.5502  134.0117  163.1467 H   0  0  0  0  0  0  0  0  0  0  0  0
  150.5921  142.0704  159.5039 H   0  0  0  0  0  0  0  0  0  0  0  0
  152.4393  142.2528  157.0896 H   0  0  0  0  0  0  0  0  0  0  0  0
  150.6870  142.4409  157.0253 H   0  0  0  0  0  0  0  0  0  0  0  0
  151.3890  140.9151  157.5301 H   0  0  0  0  0  0  0  0  0  0  0  0
  1  2  1  0  0  0  0
  1 22  1  0  0  0  0
  1 23  1  0  0  0  0
  1 24  1  0  0  0  0
  2 20  1  0  0  0  0
  2  3  1  0  0  0  0
  2 25  1  0  0  0  0
  3  4  1  0  0  0  0
  3 26  1  0  0  0  0
  3 27  1  0  0  0  0
  4  5  1  0  0  0  0
  4 28  1  0  0  0  0
  4 29  1  0  0  0  0
  5  6  1  0  0  0  0
  5 30  1  0  0  0  0
  5 31  1  0  0  0  0
  6  7  1  0  0  0  0
  6 20  1  0  0  0  0
  6 32  1  0  0  0  0
  7  8  1  0  0  0  0
  7 33  1  0  0  0  0
  8  9  2  0  0  0  0
  8 10  1  0  0  0  0
 10 11  1  0  0  0  0
 10 34  1  0  0  0  0
 10 35  1  0  0  0  0
 11 18  1  0  0  0  0
 11 12  1  0  0  0  0
 12 13  2  0  0  0  0
 12 36  1  0  0  0  0
 13 14  1  0  0  0  0
 13 37  1  0  0  0  0
 14 15  2  0  0  0  0
 14 16  1  0  0  0  0
 16 17  1  0  0  0  0
 16 18  1  0  0  0  0
 17 38  1  0  0  0  0
 17 39  1  0  0  0  0
 17 40  1  0  0  0  0
 18 19  2  0  0  0  0
 20 21  1  0  0  0  0
 20 41  1  0  0  0  0
 21 42  1  0  0  0  0
 21 43  1  0  0  0  0
 21 44  1  0  0  0  0
M  END
> <s_m_source_file>
AV-unprocessed.smi

> <i_m_source_file_index>
2143

> <i_lp_mmshare_version>
43012

> <i_f3d_flags>
0

> <s_epik_input>
W0NIM11bQ0BASF0xW0NIMl1bQ0gyXVtDSDJdW0NASF0oW0NASF0xW0NIM10pW05IXUMoPU8pW0NIMl1uMltjSF1bY0hdYyg9TyluKFtDSDNdKWMyPU8=

> <s_epik_cmdline>
J2VwaWtfcHl0aG9uJywgJy1waCcsICc3LjAnLCAnLXRuJywgJzgnLCAnLW1hJywgJzIwMCcsICctbWV0YWxfYmluZGluZycsICctaW1hZScsICc8aW5maWxlLm1hZT4nLCAnLW9tYWUnLCAnPG91dGZpbGUubWFlPic=

> <r_lp_tautomer_probability>
1

> <r_epik_Ionization_Penalty>
3.18445e-08

> <r_epik_Ionization_Penalty_Charging>
1.27977e-08

> <r_epik_Ionization_Penalty_Neutral>
1.90469e-08

> <r_epik_State_Penalty>
-0

> <r_epik_Charging_Adjusted_Penalty>
1.27977e-08

> <i_epik_Tot_Q>
0

> <i_epik_Tot_abs_Q>
0

> <r_epik_Metal_State_Penalty>
-0

> <b_epik_Metal_Only>
0

> <s_lp_Force_Field>
OPLS_2005

> <r_lp_Energy>
21.4841

> <b_lp_Chiralities_Consistent>
1

> <s_lp_Variant>
AV-unprocessed.smi:2143-5

> <Gold.Version>
5.8.1

> <Gold.Id.Protein>
6NUR|6NUR_protein|mol2

> <Gold.PLP.Fitness>
47.7088

> <Gold.PLP.PLP>
-43.2190

> <Gold.PLP.part.hbond>
-2.0000

> <Gold.PLP.part.metal>
0.0000

> <Gold.PLP.part.buried>
-5.4036

> <Gold.PLP.part.nonpolar>
-35.0367

> <Gold.PLP.part.repulsive>
0.2131

> <Gold.PLP.ligand.clash>
0.0000

> <Gold.PLP.ligand.torsion>
0.6987

> <Gold.PLP.Chemscore.Hbond>
1.9600

> <Gold.PLP.Chemscore.CHOScore>
0.0000

> <Gold.PLP.Chemscore.Metal>
0.0000

> <Gold.Chemscore.Hbonds>
donor molecule, donor type, donor heavy atom, donor atom, acceptor molecule, acceptor atom, score
      P1  H  6896  6907       L1    19  1.00
      P1  H  7997  8009       L1     9  0.84

> <Gold.PLP.Chemscore.Internal.Correction>
0.0071

> <Gold.Rescore>
     Score         DG    S(hbond)    S(metal)    S(lipo)     H(rot)  DE(clash)    DE(int)     intcor
     20.06     -20.71       1.92        0.00     108.49       1.51       0.02       0.62       ----

> <Gold.Chemscore.Fitness>
20.0648

> <Gold.Chemscore.DG>
-20.7074

> <Gold.Chemscore.ZeroCoef>
-5.4800

> <Gold.Chemscore.Hbond>
1.9186

> <Gold.Chemscore.Metal>
0.0000

> <Gold.Chemscore.Lipo>
108.4857

> <Gold.Chemscore.Internal_Hbond>
0.0000

> <Gold.Chemscore.DEClash>
0.0212

> <Gold.Chemscore.DEInternal>
0.6214

> <Gold.Chemscore.Rot>
1.5131

> <Gold.Chemscore.Internal.Correction>
   9.000000E+99

> <Gold.Chemscore.Hbonds>
donor molecule, donor type, donor heavy atom, donor atom, acceptor molecule, acceptor atom, score
      P1  H  6896  6907       L1    19  0.85
      P1  H  7997  8009       L1     9  0.62

> <Gold.Chemscore.Hbond.Weighted>
-6.4080

> <Gold.Chemscore.Metal.Weighted>
-0.0000

> <Gold.Chemscore.Lipo.Weighted>
-12.6928

> <Gold.Chemscore.Internal_Hbond.Weighted>
0.0000

> <Gold.Chemscore.DEClash.Weighted>
0.0212

> <Gold.Chemscore.DEInternal.Weighted>
0.6214

> <Gold.Chemscore.Rot.Weighted>
3.8734

> <Gold.Chemscore.Internal.Correction.Weighted>
   9.000000E+99

> <Gold.Protein.RotatedTorsions>
[ 6907 6896 6895 6894 ] final   56.89 input  -60.11 | X-H torsion
[ 7974 7965 7964 7962 ] final   -7.65 input  175.53 | X-H torsion
[ 8008 7997 7996 7995 ] final  105.68 input   59.86 | X-H torsion
[ 10167 10162 10161 10158 ] final  130.63 input  -65.29 | X-H torsion
[ 10718 10713 10712 10709 ] final -172.13 input   66.30 | X-H torsion
[ 10763 10752 10751 10750 ] final   87.51 input  -60.55 | X-H torsion
[ 11005 11000 10999 10996 ] final   26.15 input  -57.11 | X-H torsion

> <Gold.Protein.ActiveResidues>
 VAL166  LYS551  ARG553  GLY616  TRP617  ASP618  TYR619  PRO620  LYS621  CYS622 
 ASP623  PHE694  ASN695  SER759  ASP760  ASP761  ALA762  ILE779  LEU786  VAL792 
 PHE793  MET794  SER795  GLU796  ALA797  LYS798  CYS799  TRP800  GLU811  SER814 

> <Gold.Protein.RotatedAtoms>
  152.3679  134.6777  160.0185 H   0  0  0  0  0  0  0  0  0  0  0  0  # atno 6907 bound_to 6896
  151.7080  133.3306  159.3291 H   0  0  0  0  0  0  0  0  0  0  0  0  # atno 6908 bound_to 6896
  150.7652  134.6492  159.6323 H   0  0  0  0  0  0  0  0  0  0  0  0  # atno 6909 bound_to 6896
  146.2301  140.2350  142.8341 H   0  0  0  0  0  0  0  0  0  0  0  0  # atno 7974 bound_to 7965
  156.1680  140.3126  155.8923 H   0  0  0  0  0  0  0  0  0  0  0  0  # atno 8008 bound_to 7997
  155.3646  140.0478  157.3063 H   0  0  0  0  0  0  0  0  0  0  0  0  # atno 8009 bound_to 7997
  154.5212  140.2199  155.8984 H   0  0  0  0  0  0  0  0  0  0  0  0  # atno 8010 bound_to 7997
  139.5421  144.6740  151.4591 H   0  0  0  0  0  0  0  0  0  0  0  0  # atno 10167 bound_to 10162
  156.7511  130.9378  151.3114 H   0  0  0  0  0  0  0  0  0  0  0  0  # atno 10718 bound_to 10713
  153.1675  135.4541  154.9857 H   0  0  0  0  0  0  0  0  0  0  0  0  # atno 10763 bound_to 10752
  154.7942  135.3231  154.7708 H   0  0  0  0  0  0  0  0  0  0  0  0  # atno 10764 bound_to 10752
  153.8188  135.6948  153.4885 H   0  0  0  0  0  0  0  0  0  0  0  0  # atno 10765 bound_to 10752
  140.3401  134.2342  155.7691 H   0  0  0  0  0  0  0  0  0  0  0  0  # atno 11005 bound_to 11000
  144.9528  140.8196  143.5561 LP  0  0  0  0  0  0  0  0  0  0  0  0  # atno 17320 bound_to 7965
  145.2313  139.2114  143.5041 LP  0  0  0  0  0  0  0  0  0  0  0  0  # atno 17321 bound_to 7965
  140.6655  143.8407  150.6937 LP  0  0  0  0  0  0  0  0  0  0  0  0  # atno 17342 bound_to 10162
  140.1815  143.4111  152.1930 LP  0  0  0  0  0  0  0  0  0  0  0  0  # atno 17343 bound_to 10162
  157.6776  130.9109  150.0189 LP  0  0  0  0  0  0  0  0  0  0  0  0  # atno 17370 bound_to 10713
  156.1400  130.3642  149.9596 LP  0  0  0  0  0  0  0  0  0  0  0  0  # atno 17371 bound_to 10713
  141.2041  133.7896  157.0306 LP  0  0  0  0  0  0  0  0  0  0  0  0  # atno 17394 bound_to 11000
  140.0788  134.9660  157.1590 LP  0  0  0  0  0  0  0  0  0  0  0  0  # atno 17395 bound_to 11000

$$$$
