AV-unprocessed.smi:2063|AV-procd|sdf|8408|dock4
  -GOLD-   2272011 93D 1   1.00000     0.00000
 Structure written by MMmdl.
 39 40  0  0  0  0  0  0  0  0  1 V2000
  152.1996  140.1199  158.3867 C   0  0  0  0  0  0  0  0  0  0  0  0
  151.9263  140.7904  157.0325 C   0  0  0  0  0  0  0  0  0  0  0  0
  151.1337  142.0999  157.1565 C   0  0  0  0  0  0  0  0  0  0  0  0
  151.3054  139.8462  156.0505 C   0  0  0  0  0  0  0  0  0  0  0  0
  150.9861  140.2014  154.7986 N   0  0  0  0  0  0  0  0  0  0  0  0
  150.4286  139.1547  154.0784 N   0  0  0  0  0  0  0  0  0  0  0  0
  150.3408  138.0355  154.8098 C   0  0  0  0  0  0  0  0  0  0  0  0
  149.8138  136.8115  154.3189 N   0  0  0  0  0  0  0  0  0  0  0  0
  149.7299  135.6277  154.9509 C   0  0  0  0  0  0  0  0  0  0  0  0
  150.1296  135.4015  156.0932 O   0  0  0  0  0  0  0  0  0  0  0  0
  149.1430  134.7052  154.1734 N   0  0  0  0  0  0  0  0  0  0  0  0
  148.8914  133.3115  154.5382 C   0  0  2  0  0  0  0  0  0  0  0  0
  150.2097  132.6808  155.0105 C   0  0  0  0  0  0  0  0  0  0  0  0
  148.2815  132.5405  153.3486 C   0  0  2  0  0  0  0  0  0  0  0  0
  147.2135  133.3005  152.5597 C   0  0  0  0  0  0  0  0  0  0  0  0
  146.4562  132.1691  151.9046 C   0  0  0  0  0  0  0  0  0  0  0  0
  146.4550  131.1129  153.0060 C   0  0  0  0  0  0  0  0  0  0  0  0
  147.6118  131.3655  153.8005 O   0  0  0  0  0  0  0  0  0  0  0  0
  150.9384  138.1720  156.4544 S   0  0  0  0  0  0  0  0  0  0  0  0
  152.8352  139.2420  158.2681 H   0  0  0  0  0  0  0  0  0  0  0  0
  151.2735  139.7988  158.8650 H   0  0  0  0  0  0  0  0  0  0  0  0
  152.7054  140.8041  159.0685 H   0  0  0  0  0  0  0  0  0  0  0  0
  152.9005  141.0609  156.6233 H   0  0  0  0  0  0  0  0  0  0  0  0
  151.0307  142.5888  156.1873 H   0  0  0  0  0  0  0  0  0  0  0  0
  151.6329  142.7993  157.8277 H   0  0  0  0  0  0  0  0  0  0  0  0
  150.1318  141.9219  157.5484 H   0  0  0  0  0  0  0  0  0  0  0  0
  149.4502  136.8435  153.3781 H   0  0  0  0  0  0  0  0  0  0  0  0
  148.8454  134.9870  153.2510 H   0  0  0  0  0  0  0  0  0  0  0  0
  148.1904  133.2691  155.3738 H   0  0  0  0  0  0  0  0  0  0  0  0
  150.0600  131.6507  155.3347 H   0  0  0  0  0  0  0  0  0  0  0  0
  150.6278  133.2305  155.8543 H   0  0  0  0  0  0  0  0  0  0  0  0
  150.9554  132.6733  154.2146 H   0  0  0  0  0  0  0  0  0  0  0  0
  149.0702  132.2275  152.6619 H   0  0  0  0  0  0  0  0  0  0  0  0
  146.5535  133.8489  153.2336 H   0  0  0  0  0  0  0  0  0  0  0  0
  147.6329  134.0053  151.8413 H   0  0  0  0  0  0  0  0  0  0  0  0
  145.4535  132.4514  151.5823 H   0  0  0  0  0  0  0  0  0  0  0  0
  147.0064  131.8062  151.0353 H   0  0  0  0  0  0  0  0  0  0  0  0
  145.5725  131.2192  153.6375 H   0  0  0  0  0  0  0  0  0  0  0  0
  146.4631  130.0996  152.6039 H   0  0  0  0  0  0  0  0  0  0  0  0
  1  2  1  0  0  0  0
  1 20  1  0  0  0  0
  1 21  1  0  0  0  0
  1 22  1  0  0  0  0
  2  3  1  0  0  0  0
  2  4  1  0  0  0  0
  2 23  1  0  0  0  0
  3 24  1  0  0  0  0
  3 25  1  0  0  0  0
  3 26  1  0  0  0  0
  4 19  1  0  0  0  0
  4  5  2  0  0  0  0
  5  6  1  0  0  0  0
  6  7  2  0  0  0  0
  7  8  1  0  0  0  0
  7 19  1  0  0  0  0
  8  9  1  0  0  0  0
  8 27  1  0  0  0  0
  9 10  2  0  0  0  0
  9 11  1  0  0  0  0
 11 12  1  0  0  0  0
 11 28  1  0  0  0  0
 12 13  1  0  0  0  0
 12 14  1  0  0  0  0
 12 29  1  0  0  0  0
 13 30  1  0  0  0  0
 13 31  1  0  0  0  0
 13 32  1  0  0  0  0
 14 18  1  0  0  0  0
 14 15  1  0  0  0  0
 14 33  1  0  0  0  0
 15 16  1  0  0  0  0
 15 34  1  0  0  0  0
 15 35  1  0  0  0  0
 16 17  1  0  0  0  0
 16 36  1  0  0  0  0
 16 37  1  0  0  0  0
 17 18  1  0  0  0  0
 17 38  1  0  0  0  0
 17 39  1  0  0  0  0
M  END
> <s_m_source_file>
AV-unprocessed.smi

> <i_m_source_file_index>
2063

> <i_lp_mmshare_version>
43012

> <i_f3d_flags>
0

> <s_epik_input>
W0NIM11bQ0hdKFtDSDNdKWMxbm5jKHMxKVtOSF1DKD1PKVtOSF1bQ0BIXShbQ0gzXSlbQ0BASF0yW0NIMl1bQ0gyXVtDSDJdTzI=

> <s_epik_cmdline>
J2VwaWtfcHl0aG9uJywgJy1waCcsICc3LjAnLCAnLXRuJywgJzgnLCAnLW1hJywgJzIwMCcsICctbWV0YWxfYmluZGluZycsICctaW1hZScsICc8aW5maWxlLm1hZT4nLCAnLW9tYWUnLCAnPG91dGZpbGUubWFlPic=

> <r_lp_tautomer_probability>
1

> <r_epik_Ionization_Penalty>
0.00050567

> <r_epik_Ionization_Penalty_Charging>
0

> <r_epik_Ionization_Penalty_Neutral>
0.00050567

> <r_epik_State_Penalty>
-0

> <r_epik_Charging_Adjusted_Penalty>
0

> <i_epik_Tot_Q>
0

> <i_epik_Tot_abs_Q>
0

> <r_epik_Metal_State_Penalty>
0.219912

> <b_epik_Metal_Only>
0

> <s_lp_Force_Field>
OPLS_2005

> <r_lp_Energy>
10.8376

> <b_lp_Chiralities_Consistent>
1

> <s_lp_Variant>
AV-unprocessed.smi:2063-1

> <Gold.Version>
5.8.1

> <Gold.Id.Protein>
6NUR|6NUR_protein|mol2

> <Gold.PLP.Fitness>
36.7851

> <Gold.PLP.PLP>
-29.6640

> <Gold.PLP.part.hbond>
-3.8677

> <Gold.PLP.part.metal>
0.0000

> <Gold.PLP.part.buried>
-3.8107

> <Gold.PLP.part.nonpolar>
-22.2600

> <Gold.PLP.part.repulsive>
0.4128

> <Gold.PLP.ligand.clash>
0.0000

> <Gold.PLP.ligand.torsion>
0.4220

> <Gold.PLP.Chemscore.Hbond>
2.6260

> <Gold.PLP.Chemscore.CHOScore>
0.0000

> <Gold.PLP.Chemscore.Metal>
0.0000

> <Gold.Chemscore.Hbonds>
donor molecule, donor type, donor heavy atom, donor atom, acceptor molecule, acceptor atom, score
      L1  H     8    27       P1  7948  1.00
      L1  H    11    28       P1  7948  0.96
      P1  H  7989  7998       L1     5  0.65

> <Gold.PLP.Chemscore.Internal.Correction>
0.0869

> <Gold.Rescore>
     Score         DG    S(hbond)    S(metal)    S(lipo)     H(rot)  DE(clash)    DE(int)     intcor
     11.84     -14.79       1.77        0.00      59.88       1.42       0.02       2.93       ----

> <Gold.Chemscore.Fitness>
11.8380

> <Gold.Chemscore.DG>
-14.7892

> <Gold.Chemscore.ZeroCoef>
-5.4800

> <Gold.Chemscore.Hbond>
1.7744

> <Gold.Chemscore.Metal>
0.0000

> <Gold.Chemscore.Lipo>
59.8763

> <Gold.Chemscore.Internal_Hbond>
0.0000

> <Gold.Chemscore.DEClash>
0.0249

> <Gold.Chemscore.DEInternal>
2.9264

> <Gold.Chemscore.Rot>
1.4152

> <Gold.Chemscore.Internal.Correction>
   9.000000E+99

> <Gold.Chemscore.Hbonds>
donor molecule, donor type, donor heavy atom, donor atom, acceptor molecule, acceptor atom, score
      L1  H     8    27       P1  7948  0.84
      L1  H    11    28       P1  7948  0.37
      P1  H  7989  7998       L1     5  0.06

> <Gold.Chemscore.Hbond.Weighted>
-5.9266

> <Gold.Chemscore.Metal.Weighted>
-0.0000

> <Gold.Chemscore.Lipo.Weighted>
-7.0055

> <Gold.Chemscore.Internal_Hbond.Weighted>
0.0000

> <Gold.Chemscore.DEClash.Weighted>
0.0249

> <Gold.Chemscore.DEInternal.Weighted>
2.9264

> <Gold.Chemscore.Rot.Weighted>
3.6229

> <Gold.Chemscore.Internal.Correction.Weighted>
   9.000000E+99

> <Gold.Protein.RotatedTorsions>
[ 6907 6896 6895 6894 ] final   29.67 input  -60.11 | X-H torsion
[ 7974 7965 7964 7962 ] final -168.56 input  175.53 | X-H torsion
[ 8008 7997 7996 7995 ] final  106.07 input   59.86 | X-H torsion
[ 10167 10162 10161 10158 ] final -139.69 input  -65.29 | X-H torsion
[ 10718 10713 10712 10709 ] final -100.84 input   66.30 | X-H torsion
[ 10763 10752 10751 10750 ] final -167.88 input  -60.55 | X-H torsion
[ 11005 11000 10999 10996 ] final  113.46 input  -57.11 | X-H torsion

> <Gold.Protein.ActiveResidues>
 VAL166  LYS551  ARG553  GLY616  TRP617  ASP618  TYR619  PRO620  LYS621  CYS622 
 ASP623  PHE694  ASN695  SER759  ASP760  ASP761  ALA762  ILE779  LEU786  VAL792 
 PHE793  MET794  SER795  GLU796  ALA797  LYS798  CYS799  TRP800  GLU811  SER814 

> <Gold.Protein.RotatedAtoms>
  152.0349  134.9746  160.0572 H   0  0  0  0  0  0  0  0  0  0  0  0  # atno 6907 bound_to 6896
  152.1207  133.4347  159.4682 H   0  0  0  0  0  0  0  0  0  0  0  0  # atno 6908 bound_to 6896
  150.6849  134.2456  159.4533 H   0  0  0  0  0  0  0  0  0  0  0  0  # atno 6909 bound_to 6896
  144.7201  140.2352  143.6299 H   0  0  0  0  0  0  0  0  0  0  0  0  # atno 7974 bound_to 7965
  156.1712  140.3119  155.8977 H   0  0  0  0  0  0  0  0  0  0  0  0  # atno 8008 bound_to 7997
  155.3583  140.0475  157.3063 H   0  0  0  0  0  0  0  0  0  0  0  0  # atno 8009 bound_to 7997
  154.5243  140.2209  155.8929 H   0  0  0  0  0  0  0  0  0  0  0  0  # atno 8010 bound_to 7997
  139.8355  143.7391  152.2665 H   0  0  0  0  0  0  0  0  0  0  0  0  # atno 10167 bound_to 10162
  156.0175  130.5346  150.6875 H   0  0  0  0  0  0  0  0  0  0  0  0  # atno 10718 bound_to 10713
  154.6687  135.2936  154.9771 H   0  0  0  0  0  0  0  0  0  0  0  0  # atno 10763 bound_to 10752
  154.0806  135.6605  153.4841 H   0  0  0  0  0  0  0  0  0  0  0  0  # atno 10764 bound_to 10752
  153.0473  135.5196  154.7672 H   0  0  0  0  0  0  0  0  0  0  0  0  # atno 10765 bound_to 10752
  139.8953  134.9550  156.6742 H   0  0  0  0  0  0  0  0  0  0  0  0  # atno 11005 bound_to 11000
  145.8372  139.2113  143.1848 LP  0  0  0  0  0  0  0  0  0  0  0  0  # atno 17320 bound_to 7965
  146.0378  140.8194  142.9843 LP  0  0  0  0  0  0  0  0  0  0  0  0  # atno 17321 bound_to 7965
  139.7611  144.7506  151.0362 LP  0  0  0  0  0  0  0  0  0  0  0  0  # atno 17342 bound_to 10162
  140.7803  143.4749  151.0095 LP  0  0  0  0  0  0  0  0  0  0  0  0  # atno 17343 bound_to 10162
  157.4564  131.0878  151.0792 LP  0  0  0  0  0  0  0  0  0  0  0  0  # atno 17370 bound_to 10713
  157.1292  130.6095  149.5525 LP  0  0  0  0  0  0  0  0  0  0  0  0  # atno 17371 bound_to 10713
  140.7349  133.9027  155.8237 LP  0  0  0  0  0  0  0  0  0  0  0  0  # atno 17394 bound_to 11000
  141.0124  134.1003  157.4208 LP  0  0  0  0  0  0  0  0  0  0  0  0  # atno 17395 bound_to 11000

$$$$
