AV-unprocessed.smi:336|AV-procd|sdf|2371|dock3
  -GOLD-   2262022293D 1   1.00000     0.00000
 Structure written by MMmdl.
 34 36  0  0  0  0  0  0  0  0  1 V2000
  150.8268  141.0436  157.3711 O   0  0  0  0  0  0  0  0  0  0  0  0
  150.3116  142.0316  156.8486 C   0  0  0  0  0  0  0  0  0  0  0  0
  150.4045  143.2900  157.3122 N   0  0  0  0  0  0  0  0  0  0  0  0
  151.0645  143.7551  158.4820 C   0  0  0  0  0  0  0  0  0  0  0  0
  151.9211  142.9610  159.2827 C   0  0  0  0  0  0  0  0  0  0  0  0
  152.5031  143.5337  160.4301 C   0  0  0  0  0  0  0  0  0  0  0  0
  152.2025  144.8743  160.7394 C   0  0  0  0  0  0  0  0  0  0  0  0
  151.3764  145.6382  159.9940 N   0  0  0  0  0  0  0  0  0  0  0  0
  150.8212  145.0821  158.8959 C   0  0  0  0  0  0  0  0  0  0  0  0
  149.5927  141.9867  155.7162 N   0  0  0  0  0  0  0  0  0  0  0  0
  149.2870  140.7983  154.9206 C   0  0  0  0  0  0  0  0  0  0  0  0
  150.5188  140.0563  154.4231 C   0  0  0  0  0  0  0  0  0  0  0  0
  150.5323  138.5504  154.3068 C   0  0  0  0  0  0  0  0  0  0  0  0
  151.3712  139.2371  155.3615 C   0  0  0  0  0  0  0  0  0  0  0  0
  148.3133  141.0567  153.7802 C   0  0  0  0  0  0  0  0  0  0  0  0
  146.9284  141.5976  154.0424 C   0  0  0  0  0  0  0  0  0  0  0  0
  147.1066  140.1735  153.5658 C   0  0  0  0  0  0  0  0  0  0  0  0
  150.0013  144.0087  156.7292 H   0  0  0  0  0  0  0  0  0  0  0  0
  152.1311  141.9285  159.0513 H   0  0  0  0  0  0  0  0  0  0  0  0
  153.1618  142.9561  161.0618 H   0  0  0  0  0  0  0  0  0  0  0  0
  152.6324  145.3435  161.6121 H   0  0  0  0  0  0  0  0  0  0  0  0
  150.1638  145.7221  158.3255 H   0  0  0  0  0  0  0  0  0  0  0  0
  149.2200  142.8582  155.3690 H   0  0  0  0  0  0  0  0  0  0  0  0
  148.7811  140.1295  155.6184 H   0  0  0  0  0  0  0  0  0  0  0  0
  151.0582  140.5830  153.6381 H   0  0  0  0  0  0  0  0  0  0  0  0
  149.6558  138.0023  154.6459 H   0  0  0  0  0  0  0  0  0  0  0  0
  151.0500  138.1192  153.4525 H   0  0  0  0  0  0  0  0  0  0  0  0
  152.4485  139.2624  155.2109 H   0  0  0  0  0  0  0  0  0  0  0  0
  151.0467  139.1511  156.3967 H   0  0  0  0  0  0  0  0  0  0  0  0
  148.7921  141.4116  152.8694 H   0  0  0  0  0  0  0  0  0  0  0  0
  146.6300  141.7472  155.0780 H   0  0  0  0  0  0  0  0  0  0  0  0
  146.5300  142.3200  153.3330 H   0  0  0  0  0  0  0  0  0  0  0  0
  146.8277  139.9468  152.5386 H   0  0  0  0  0  0  0  0  0  0  0  0
  146.9203  139.3787  154.2853 H   0  0  0  0  0  0  0  0  0  0  0  0
  1  2  2  0  0  0  0
  2  3  1  0  0  0  0
  2 10  1  0  0  0  0
  3  4  1  0  0  0  0
  3 18  1  0  0  0  0
  4  9  1  0  0  0  0
  4  5  2  0  0  0  0
  5  6  1  0  0  0  0
  5 19  1  0  0  0  0
  6  7  2  0  0  0  0
  6 20  1  0  0  0  0
  7  8  1  0  0  0  0
  7 21  1  0  0  0  0
  8  9  2  0  0  0  0
  9 22  1  0  0  0  0
 10 11  1  0  0  0  0
 10 23  1  0  0  0  0
 11 12  1  0  0  0  0
 11 15  1  0  0  0  0
 11 24  1  0  0  0  0
 12 14  1  0  0  0  0
 12 13  1  0  0  0  0
 12 25  1  0  0  0  0
 13 14  1  0  0  0  0
 13 26  1  0  0  0  0
 13 27  1  0  0  0  0
 14 28  1  0  0  0  0
 14 29  1  0  0  0  0
 15 17  1  0  0  0  0
 15 16  1  0  0  0  0
 15 30  1  0  0  0  0
 16 17  1  0  0  0  0
 16 31  1  0  0  0  0
 16 32  1  0  0  0  0
 17 33  1  0  0  0  0
 17 34  1  0  0  0  0
M  END
> <s_m_source_file>
AV-unprocessed.smi

> <i_m_source_file_index>
336

> <i_lp_mmshare_version>
43012

> <i_f3d_flags>
0

> <s_epik_input>
W0NIMl0xW0NIMl1bQ0hdMVtDSF0oW0NIXTJbQ0gyXVtDSDJdMilbTkhdQyg9TylbTkhdYzNbY0hdW2NIXVtjSF1uW2NIXTM=

> <s_epik_cmdline>
J2VwaWtfcHl0aG9uJywgJy1waCcsICc3LjAnLCAnLXRuJywgJzgnLCAnLW1hJywgJzIwMCcsICctbWV0YWxfYmluZGluZycsICctaW1hZScsICc8aW5maWxlLm1hZT4nLCAnLW9tYWUnLCAnPG91dGZpbGUubWFlPic=

> <r_epik_Ionization_Penalty>
0.00498677

> <r_epik_Ionization_Penalty_Charging>
0

> <r_epik_Ionization_Penalty_Neutral>
0.00498677

> <r_epik_State_Penalty>
0.00359262

> <r_epik_Charging_Adjusted_Penalty>
0.00359262

> <i_epik_Tot_Q>
0

> <i_epik_Tot_abs_Q>
0

> <r_epik_Metal_State_Penalty>
-0

> <b_epik_Metal_Only>
0

> <s_lp_Force_Field>
OPLS_2005

> <r_lp_Energy>
27.0567

> <b_lp_Chiralities_Consistent>
1

> <s_lp_Variant>
AV-unprocessed.smi:336-1

> <Gold.Version>
5.8.1

> <Gold.Id.Protein>
6NUR|6NUR_protein|mol2

> <Gold.PLP.Fitness>
46.7603

> <Gold.PLP.PLP>
-38.0850

> <Gold.PLP.part.hbond>
-2.2688

> <Gold.PLP.part.metal>
0.0000

> <Gold.PLP.part.buried>
-1.8444

> <Gold.PLP.part.nonpolar>
-34.6862

> <Gold.PLP.part.repulsive>
0.3645

> <Gold.PLP.ligand.clash>
0.0000

> <Gold.PLP.ligand.torsion>
1.2327

> <Gold.PLP.Chemscore.Hbond>
1.9920

> <Gold.PLP.Chemscore.CHOScore>
1.0000

> <Gold.PLP.Chemscore.Metal>
0.0000

> <Gold.Chemscore.Hbonds>
donor molecule, donor type, donor heavy atom, donor atom, acceptor molecule, acceptor atom, score
      L1  H     3    18       P1  8028  1.00
      L1  H    10    23       P1  8028  0.99
      L1  C     9    22       P1  8029  1.00

> <Gold.PLP.Chemscore.Internal.Correction>
2.1647

> <Gold.Rescore>
     Score         DG    S(hbond)    S(metal)    S(lipo)     H(rot)  DE(clash)    DE(int)     intcor
     16.14     -21.44       1.93        0.00     110.19       1.33       1.61       3.69       ----

> <Gold.Chemscore.Fitness>
16.1446

> <Gold.Chemscore.DG>
-21.4399

> <Gold.Chemscore.ZeroCoef>
-5.4800

> <Gold.Chemscore.Hbond>
1.9344

> <Gold.Chemscore.Metal>
0.0000

> <Gold.Chemscore.Lipo>
110.1879

> <Gold.Chemscore.Internal_Hbond>
0.0000

> <Gold.Chemscore.DEClash>
1.6069

> <Gold.Chemscore.DEInternal>
3.6885

> <Gold.Chemscore.Rot>
1.3253

> <Gold.Chemscore.Internal.Correction>
   9.000000E+99

> <Gold.Chemscore.Hbonds>
donor molecule, donor type, donor heavy atom, donor atom, acceptor molecule, acceptor atom, score
      L1  H     3    18       P1  8028  0.98
      L1  H    10    23       P1  8028  0.93

> <Gold.Chemscore.Hbond.Weighted>
-6.4608

> <Gold.Chemscore.Metal.Weighted>
-0.0000

> <Gold.Chemscore.Lipo.Weighted>
-12.8920

> <Gold.Chemscore.Internal_Hbond.Weighted>
0.0000

> <Gold.Chemscore.DEClash.Weighted>
1.6069

> <Gold.Chemscore.DEInternal.Weighted>
3.6885

> <Gold.Chemscore.Rot.Weighted>
3.3928

> <Gold.Chemscore.Internal.Correction.Weighted>
   9.000000E+99

> <Gold.Protein.RotatedTorsions>
[ 6907 6896 6895 6894 ] final   81.26 input  -60.11 | X-H torsion
[ 7974 7965 7964 7962 ] final -179.64 input  175.53 | X-H torsion
[ 8008 7997 7996 7995 ] final   31.24 input   59.86 | X-H torsion
[ 10167 10162 10161 10158 ] final  112.54 input  -65.29 | X-H torsion
[ 10718 10713 10712 10709 ] final   18.50 input   66.30 | X-H torsion
[ 10763 10752 10751 10750 ] final   62.33 input  -60.55 | X-H torsion
[ 11005 11000 10999 10996 ] final -129.93 input  -57.11 | X-H torsion

> <Gold.Protein.ActiveResidues>
 VAL166  LYS551  ARG553  GLY616  TRP617  ASP618  TYR619  PRO620  LYS621  CYS622 
 ASP623  PHE694  ASN695  SER759  ASP760  ASP761  ALA762  ILE779  LEU786  VAL792 
 PHE793  MET794  SER795  GLU796  ALA797  LYS798  CYS799  TRP800  GLU811  SER814 

> <Gold.Protein.RotatedAtoms>
  152.5262  134.3231  159.9155 H   0  0  0  0  0  0  0  0  0  0  0  0  # atno 6907 bound_to 6896
  151.3180  133.4045  159.2660 H   0  0  0  0  0  0  0  0  0  0  0  0  # atno 6908 bound_to 6896
  150.9982  134.9318  159.7996 H   0  0  0  0  0  0  0  0  0  0  0  0  # atno 6909 bound_to 6896
  144.7138  140.0687  143.6430 H   0  0  0  0  0  0  0  0  0  0  0  0  # atno 7974 bound_to 7965
  155.1032  140.3231  155.4541 H   0  0  0  0  0  0  0  0  0  0  0  0  # atno 8008 bound_to 7997
  156.2711  140.2057  156.6105 H   0  0  0  0  0  0  0  0  0  0  0  0  # atno 8009 bound_to 7997
  154.6813  140.0526  157.0256 H   0  0  0  0  0  0  0  0  0  0  0  0  # atno 8010 bound_to 7997
  139.6528  144.7128  151.2015 H   0  0  0  0  0  0  0  0  0  0  0  0  # atno 10167 bound_to 10162
  157.0972  130.6452  149.5863 H   0  0  0  0  0  0  0  0  0  0  0  0  # atno 10718 bound_to 10713
  152.9979  135.5469  154.6176 H   0  0  0  0  0  0  0  0  0  0  0  0  # atno 10763 bound_to 10752
  154.5483  135.2825  155.1034 H   0  0  0  0  0  0  0  0  0  0  0  0  # atno 10764 bound_to 10752
  154.2284  135.6438  153.5220 H   0  0  0  0  0  0  0  0  0  0  0  0  # atno 10765 bound_to 10752
  140.9389  134.1220  157.4168 H   0  0  0  0  0  0  0  0  0  0  0  0  # atno 11005 bound_to 11000
  145.9802  139.2935  143.1046 LP  0  0  0  0  0  0  0  0  0  0  0  0  # atno 17320 bound_to 7965
  145.9019  140.9237  143.0498 LP  0  0  0  0  0  0  0  0  0  0  0  0  # atno 17321 bound_to 7965
  140.7545  143.6122  150.8595 LP  0  0  0  0  0  0  0  0  0  0  0  0  # atno 17342 bound_to 10162
  139.9772  143.5992  152.2955 LP  0  0  0  0  0  0  0  0  0  0  0  0  # atno 17343 bound_to 10162
  155.9883  130.4925  150.7163 LP  0  0  0  0  0  0  0  0  0  0  0  0  # atno 17370 bound_to 10713
  157.4672  131.0889  151.0682 LP  0  0  0  0  0  0  0  0  0  0  0  0  # atno 17371 bound_to 10713
  139.8815  135.0030  156.6160 LP  0  0  0  0  0  0  0  0  0  0  0  0  # atno 17394 bound_to 11000
  140.7761  133.8698  155.8530 LP  0  0  0  0  0  0  0  0  0  0  0  0  # atno 17395 bound_to 11000

$$$$
