AV-unprocessed.smi:3252|AV-procd|sdf|12440|dock9
  -GOLD-   2272018333D 1   1.00000     0.00000
 Structure written by MMmdl.
 37 38  0  0  0  0  0  0  0  0  2 V2000
  144.0831  133.1404  147.8456 C   0  0  0  0  0  0  0  0  0  0  0  0
  144.5571  134.3470  148.6673 C   0  0  0  0  0  0  0  0  0  0  0  0
  144.0519  134.3141  150.0656 N   0  3  2  0  0  0  0  0  0  0  0  0
  144.4281  135.5092  150.8589 C   0  0  0  0  0  0  0  0  0  0  0  0
  145.8884  135.4213  151.3346 C   0  0  0  0  0  0  0  0  0  0  0  0
  146.0642  134.2246  152.0809 O   0  0  0  0  0  0  0  0  0  0  0  0
  145.8360  133.0524  151.3050 C   0  0  1  0  0  0  0  0  0  0  0  0
  146.1184  131.8144  152.1747 C   0  0  0  0  0  0  0  0  0  0  0  0
  147.5370  131.4799  152.2291 N   0  0  0  0  0  0  0  0  0  0  0  0
  148.2989  131.6745  153.3909 C   0  0  0  0  0  0  0  0  0  0  0  0
  149.1757  130.6477  153.8001 C   0  0  0  0  0  0  0  0  0  0  0  0
  149.9447  130.8338  154.9658 C   0  0  0  0  0  0  0  0  0  0  0  0
  149.8101  132.0398  155.6814 C   0  0  0  0  0  0  0  0  0  0  0  0
  150.5822  132.2808  156.8881 C   0  0  0  0  0  0  0  0  0  0  0  0
  151.1971  132.4725  157.8492 N   0  0  0  0  0  0  0  0  0  0  0  0
  148.9066  133.0069  155.1969 C   0  0  0  0  0  0  0  0  0  0  0  0
  148.1662  132.8325  154.0809 N   0  0  0  0  0  0  0  0  0  0  0  0
  144.3701  133.0715  150.8162 C   0  0  0  0  0  0  0  0  0  0  0  0
  144.3861  133.2445  146.8034 H   0  0  0  0  0  0  0  0  0  0  0  0
  142.9963  133.0529  147.8650 H   0  0  0  0  0  0  0  0  0  0  0  0
  144.5037  132.2041  148.2112 H   0  0  0  0  0  0  0  0  0  0  0  0
  145.6441  134.4199  148.6447 H   0  0  0  0  0  0  0  0  0  0  0  0
  144.1818  135.2457  148.1763 H   0  0  0  0  0  0  0  0  0  0  0  0
  144.2583  136.4231  150.2888 H   0  0  0  0  0  0  0  0  0  0  0  0
  143.7707  135.5645  151.7275 H   0  0  0  0  0  0  0  0  0  0  0  0
  146.5849  135.4523  150.4955 H   0  0  0  0  0  0  0  0  0  0  0  0
  146.1252  136.2715  151.9744 H   0  0  0  0  0  0  0  0  0  0  0  0
  146.5136  133.0402  150.4498 H   0  0  0  0  0  0  0  0  0  0  0  0
  145.7005  131.9354  153.1746 H   0  0  0  0  0  0  0  0  0  0  0  0
  145.6114  130.9520  151.7413 H   0  0  0  0  0  0  0  0  0  0  0  0
  148.0062  131.2342  151.3692 H   0  0  0  0  0  0  0  0  0  0  0  0
  149.2618  129.7319  153.2336 H   0  0  0  0  0  0  0  0  0  0  0  0
  150.6238  130.0620  155.2988 H   0  0  0  0  0  0  0  0  0  0  0  0
  148.7701  133.9464  155.7130 H   0  0  0  0  0  0  0  0  0  0  0  0
  143.7039  133.0225  151.6790 H   0  0  0  0  0  0  0  0  0  0  0  0
  144.1514  132.1876  150.2184 H   0  0  0  0  0  0  0  0  0  0  0  0
  143.0460  134.3484  149.9802 H   0  0  0  0  0  0  0  0  0  0  0  0
  1  2  1  0  0  0  0
  1 19  1  0  0  0  0
  1 20  1  0  0  0  0
  1 21  1  0  0  0  0
  2  3  1  0  0  0  0
  2 22  1  0  0  0  0
  2 23  1  0  0  0  0
  3 18  1  0  0  0  0
  3  4  1  0  0  0  0
  3 37  1  0  0  0  0
  4  5  1  0  0  0  0
  4 24  1  0  0  0  0
  4 25  1  0  0  0  0
  5  6  1  0  0  0  0
  5 26  1  0  0  0  0
  5 27  1  0  0  0  0
  6  7  1  0  0  0  0
  7  8  1  0  0  0  0
  7 18  1  0  0  0  0
  7 28  1  0  0  0  0
  8  9  1  0  0  0  0
  8 29  1  0  0  0  0
  8 30  1  0  0  0  0
  9 10  1  0  0  0  0
  9 31  1  0  0  0  0
 10 17  1  0  0  0  0
 10 11  2  0  0  0  0
 11 12  1  0  0  0  0
 11 32  1  0  0  0  0
 12 13  2  0  0  0  0
 12 33  1  0  0  0  0
 13 14  1  0  0  0  0
 13 16  1  0  0  0  0
 14 15  3  0  0  0  0
 16 17  2  0  0  0  0
 16 34  1  0  0  0  0
 18 35  1  0  0  0  0
 18 36  1  0  0  0  0
M  CHG  1   3   1
M  END
> <s_m_source_file>
AV-unprocessed.smi

> <i_m_source_file_index>
3252

> <i_lp_mmshare_version>
43012

> <i_f3d_flags>
0

> <s_epik_input>
W0NIM11bQ0gyXU4xW0NIMl1bQ0gyXU9bQ0BIXShbQ0gyXTEpW0NIMl1bTkhdYzJbY0hdW2NIXWMoQyNOKVtjSF1uMg==

> <s_epik_cmdline>
J2VwaWtfcHl0aG9uJywgJy1waCcsICc3LjAnLCAnLXRuJywgJzgnLCAnLW1hJywgJzIwMCcsICctbWV0YWxfYmluZGluZycsICctaW1hZScsICc8aW5maWxlLm1hZT4nLCAnLW9tYWUnLCAnPG91dGZpbGUubWFlPic=

> <r_epik_Ionization_Penalty>
0.178512

> <r_epik_Ionization_Penalty_Charging>
0.178504

> <r_epik_Ionization_Penalty_Neutral>
8.15545e-06

> <r_epik_State_Penalty>
0.167974

> <r_epik_Charging_Adjusted_Penalty>
0.346478

> <i_epik_Tot_Q>
1

> <i_epik_Tot_abs_Q>
1

> <r_epik_Metal_State_Penalty>
0.167974

> <b_epik_Metal_Only>
0

> <s_lp_Force_Field>
OPLS_2005

> <r_lp_Energy>
19.5584

> <b_lp_Chiralities_Consistent>
1

> <s_lp_Variant>
AV-unprocessed.smi:3252-2

> <Gold.Version>
5.8.1

> <Gold.Id.Protein>
6NUR|6NUR_protein|mol2

> <Gold.PLP.Fitness>
42.0333

> <Gold.PLP.PLP>
-31.3669

> <Gold.PLP.part.hbond>
-3.0000

> <Gold.PLP.part.metal>
0.0000

> <Gold.PLP.part.buried>
-0.5908

> <Gold.PLP.part.nonpolar>
-29.3246

> <Gold.PLP.part.repulsive>
0.2148

> <Gold.PLP.ligand.clash>
0.0000

> <Gold.PLP.ligand.torsion>
0.6647

> <Gold.PLP.Chemscore.Hbond>
3.9920

> <Gold.PLP.Chemscore.CHOScore>
0.0000

> <Gold.PLP.Chemscore.Metal>
0.0000

> <Gold.Chemscore.Hbonds>
donor molecule, donor type, donor heavy atom, donor atom, acceptor molecule, acceptor atom, score
      L1  H     3    37       P1 10186  1.76
      L1  H     9    31       P1 10747  0.94
      P1  H  6896  6909       L1    15  1.00

> <Gold.PLP.Chemscore.Internal.Correction>
0.0198

> <Gold.Rescore>
     Score         DG    S(hbond)    S(metal)    S(lipo)     H(rot)  DE(clash)    DE(int)     intcor
     18.53     -20.60       2.91        0.00      78.33       1.47       1.62       0.44       ----

> <Gold.Chemscore.Fitness>
18.5345

> <Gold.Chemscore.DG>
-20.6038

> <Gold.Chemscore.ZeroCoef>
-5.4800

> <Gold.Chemscore.Hbond>
2.9093

> <Gold.Chemscore.Metal>
0.0000

> <Gold.Chemscore.Lipo>
78.3344

> <Gold.Chemscore.Internal_Hbond>
0.0000

> <Gold.Chemscore.DEClash>
1.6246

> <Gold.Chemscore.DEInternal>
0.4446

> <Gold.Chemscore.Rot>
1.4681

> <Gold.Chemscore.Internal.Correction>
   9.000000E+99

> <Gold.Chemscore.Hbonds>
donor molecule, donor type, donor heavy atom, donor atom, acceptor molecule, acceptor atom, score
      L1  H     3    37       P1 10186  0.81
      L1  H     9    31       P1 10747  0.90
      P1  H  6896  6909       L1    15  0.97

> <Gold.Chemscore.Hbond.Weighted>
-9.7171

> <Gold.Chemscore.Metal.Weighted>
-0.0000

> <Gold.Chemscore.Lipo.Weighted>
-9.1651

> <Gold.Chemscore.Internal_Hbond.Weighted>
0.0000

> <Gold.Chemscore.DEClash.Weighted>
1.6246

> <Gold.Chemscore.DEInternal.Weighted>
0.4446

> <Gold.Chemscore.Rot.Weighted>
3.7584

> <Gold.Chemscore.Internal.Correction.Weighted>
   9.000000E+99

> <Gold.Protein.RotatedTorsions>
[ 6907 6896 6895 6894 ] final  -57.23 input  -60.11 | X-H torsion
[ 7974 7965 7964 7962 ] final   19.78 input  175.53 | X-H torsion
[ 8008 7997 7996 7995 ] final -158.23 input   59.86 | X-H torsion
[ 10167 10162 10161 10158 ] final   35.68 input  -65.29 | X-H torsion
[ 10718 10713 10712 10709 ] final  -82.09 input   66.30 | X-H torsion
[ 10763 10752 10751 10750 ] final  -97.25 input  -60.55 | X-H torsion
[ 11005 11000 10999 10996 ] final -179.98 input  -57.11 | X-H torsion

> <Gold.Protein.ActiveResidues>
 VAL166  LYS551  ARG553  GLY616  TRP617  ASP618  TYR619  PRO620  LYS621  CYS622 
 ASP623  PHE694  ASN695  SER759  ASP760  ASP761  ALA762  ILE779  LEU786  VAL792 
 PHE793  MET794  SER795  GLU796  ALA797  LYS798  CYS799  TRP800  GLU811  SER814 

> <Gold.Protein.RotatedAtoms>
  150.8103  134.7253  159.6681 H   0  0  0  0  0  0  0  0  0  0  0  0  # atno 6907 bound_to 6896
  152.4222  134.5930  159.9989 H   0  0  0  0  0  0  0  0  0  0  0  0  # atno 6908 bound_to 6896
  151.6142  133.3307  159.3110 H   0  0  0  0  0  0  0  0  0  0  0  0  # atno 6909 bound_to 6896
  146.2136  139.8264  142.8669 H   0  0  0  0  0  0  0  0  0  0  0  0  # atno 7974 bound_to 7965
  155.7444  140.0818  157.2230 H   0  0  0  0  0  0  0  0  0  0  0  0  # atno 8008 bound_to 7997
  154.4018  140.1572  156.2708 H   0  0  0  0  0  0  0  0  0  0  0  0  # atno 8009 bound_to 7997
  155.8990  140.3411  155.6015 H   0  0  0  0  0  0  0  0  0  0  0  0  # atno 8010 bound_to 7997
  140.4199  144.1475  150.6147 H   0  0  0  0  0  0  0  0  0  0  0  0  # atno 10167 bound_to 10162
  156.0039  130.4623  150.4052 H   0  0  0  0  0  0  0  0  0  0  0  0  # atno 10718 bound_to 10713
  154.7311  135.5053  153.8965 H   0  0  0  0  0  0  0  0  0  0  0  0  # atno 10763 bound_to 10752
  153.0951  135.6670  153.9788 H   0  0  0  0  0  0  0  0  0  0  0  0  # atno 10764 bound_to 10752
  153.9589  135.3050  155.3414 H   0  0  0  0  0  0  0  0  0  0  0  0  # atno 10765 bound_to 10752
  140.4126  134.6678  157.4622 H   0  0  0  0  0  0  0  0  0  0  0  0  # atno 11005 bound_to 11000
  145.3043  141.0203  143.3591 LP  0  0  0  0  0  0  0  0  0  0  0  0  # atno 17320 bound_to 7965
  144.8983  139.4683  143.6645 LP  0  0  0  0  0  0  0  0  0  0  0  0  # atno 17321 bound_to 7965
  140.4545  143.2473  151.9303 LP  0  0  0  0  0  0  0  0  0  0  0  0  # atno 17342 bound_to 10162
  139.4782  144.5529  151.8358 LP  0  0  0  0  0  0  0  0  0  0  0  0  # atno 17343 bound_to 10162
  157.2118  131.0462  151.2595 LP  0  0  0  0  0  0  0  0  0  0  0  0  # atno 17370 bound_to 10713
  157.3881  130.7267  149.6678 LP  0  0  0  0  0  0  0  0  0  0  0  0  # atno 17371 bound_to 10713
  140.0257  134.6481  155.9177 LP  0  0  0  0  0  0  0  0  0  0  0  0  # atno 17394 bound_to 11000
  141.1815  133.6547  156.5040 LP  0  0  0  0  0  0  0  0  0  0  0  0  # atno 17395 bound_to 11000

$$$$
