AV-unprocessed.smi:3060|AV-procd|sdf|11678|dock1
  -GOLD-   2272017 83D 1   1.00000     0.00000
 Structure written by MMmdl.
 42 43  0  0  0  0  0  0  0  0  1 V2000
  146.3766  138.1562  155.0876 C   0  0  0  0  0  0  0  0  0  0  0  0
  147.7515  138.1203  154.4123 C   0  0  0  0  0  0  0  0  0  0  0  0
  148.3788  139.4750  154.3110 C   0  0  0  0  0  0  0  0  0  0  0  0
  147.8664  140.5050  153.6502 N   0  0  0  0  0  0  0  0  0  0  0  0
  148.7987  141.5092  153.8304 N   0  0  0  0  0  0  0  0  0  0  0  0
  149.8060  141.0980  154.5453 N   0  0  0  0  0  0  0  0  0  0  0  0
  149.5592  139.8016  154.8580 N   0  0  0  0  0  0  0  0  0  0  0  0
  150.5031  139.0351  155.6589 C   0  0  0  0  0  0  0  0  0  0  0  0
  151.5845  139.9149  156.2973 C   0  0  0  0  0  0  0  0  0  0  0  0
  152.7544  139.7968  155.9350 O   0  0  0  0  0  0  0  0  0  0  0  0
  151.1923  140.7715  157.2559 N   0  0  0  0  0  0  0  0  0  0  0  0
  152.0525  141.6936  157.9931 C   0  0  0  0  0  0  0  0  0  0  0  0
  152.0814  141.2537  159.4776 C   0  0  0  0  0  0  0  0  0  0  0  0
  153.1112  141.9850  160.3620 C   0  0  0  0  0  0  0  0  0  0  0  0
  152.5391  143.0862  161.2758 C   0  0  0  0  0  0  0  0  0  0  0  0
  151.5071  144.0427  160.6517 C   0  0  0  0  0  0  0  0  0  0  0  0
  152.0127  144.9530  159.5182 C   0  0  0  0  0  0  0  0  0  0  0  0
  152.4646  144.2609  158.2176 C   0  0  0  0  0  0  0  0  0  0  0  0
  151.5471  143.1288  157.7129 C   0  0  0  0  0  0  0  0  0  0  0  0
  145.9483  137.1556  155.1494 H   0  0  0  0  0  0  0  0  0  0  0  0
  145.6804  138.7830  154.5295 H   0  0  0  0  0  0  0  0  0  0  0  0
  146.4465  138.5521  156.1013 H   0  0  0  0  0  0  0  0  0  0  0  0
  148.4202  137.4707  154.9778 H   0  0  0  0  0  0  0  0  0  0  0  0
  147.6695  137.6803  153.4183 H   0  0  0  0  0  0  0  0  0  0  0  0
  149.9629  138.4990  156.4393 H   0  0  0  0  0  0  0  0  0  0  0  0
  150.9691  138.2801  155.0237 H   0  0  0  0  0  0  0  0  0  0  0  0
  150.2104  140.7946  157.4890 H   0  0  0  0  0  0  0  0  0  0  0  0
  153.0658  141.6204  157.5940 H   0  0  0  0  0  0  0  0  0  0  0  0
  151.0851  141.2967  159.9185 H   0  0  0  0  0  0  0  0  0  0  0  0
  152.3472  140.1955  159.4972 H   0  0  0  0  0  0  0  0  0  0  0  0
  153.5833  141.2477  161.0126 H   0  0  0  0  0  0  0  0  0  0  0  0
  153.9327  142.3678  159.7589 H   0  0  0  0  0  0  0  0  0  0  0  0
  152.0590  142.5993  162.1257 H   0  0  0  0  0  0  0  0  0  0  0  0
  153.3628  143.6629  161.6976 H   0  0  0  0  0  0  0  0  0  0  0  0
  150.6238  143.4922  160.3317 H   0  0  0  0  0  0  0  0  0  0  0  0
  151.1448  144.6917  161.4496 H   0  0  0  0  0  0  0  0  0  0  0  0
  151.2038  145.6403  159.2675 H   0  0  0  0  0  0  0  0  0  0  0  0
  152.8240  145.5807  159.8884 H   0  0  0  0  0  0  0  0  0  0  0  0
  152.5071  145.0317  157.4472 H   0  0  0  0  0  0  0  0  0  0  0  0
  153.4929  143.9138  158.2992 H   0  0  0  0  0  0  0  0  0  0  0  0
  151.4786  143.2394  156.6292 H   0  0  0  0  0  0  0  0  0  0  0  0
  150.5255  143.2625  158.0695 H   0  0  0  0  0  0  0  0  0  0  0  0
  1  2  1  0  0  0  0
  1 20  1  0  0  0  0
  1 21  1  0  0  0  0
  1 22  1  0  0  0  0
  2  3  1  0  0  0  0
  2 23  1  0  0  0  0
  2 24  1  0  0  0  0
  3  7  1  0  0  0  0
  3  4  2  0  0  0  0
  4  5  1  0  0  0  0
  5  6  2  0  0  0  0
  6  7  1  0  0  0  0
  7  8  1  0  0  0  0
  8  9  1  0  0  0  0
  8 25  1  0  0  0  0
  8 26  1  0  0  0  0
  9 10  2  0  0  0  0
  9 11  1  0  0  0  0
 11 12  1  0  0  0  0
 11 27  1  0  0  0  0
 12 19  1  0  0  0  0
 12 13  1  0  0  0  0
 12 28  1  0  0  0  0
 13 14  1  0  0  0  0
 13 29  1  0  0  0  0
 13 30  1  0  0  0  0
 14 15  1  0  0  0  0
 14 31  1  0  0  0  0
 14 32  1  0  0  0  0
 15 16  1  0  0  0  0
 15 33  1  0  0  0  0
 15 34  1  0  0  0  0
 16 17  1  0  0  0  0
 16 35  1  0  0  0  0
 16 36  1  0  0  0  0
 17 18  1  0  0  0  0
 17 37  1  0  0  0  0
 17 38  1  0  0  0  0
 18 19  1  0  0  0  0
 18 39  1  0  0  0  0
 18 40  1  0  0  0  0
 19 41  1  0  0  0  0
 19 42  1  0  0  0  0
M  END
> <s_m_source_file>
AV-unprocessed.smi

> <i_m_source_file_index>
3060

> <i_lp_mmshare_version>
43012

> <i_f3d_flags>
0

> <s_epik_input>
W0NIM11bQ0gyXWMxbm5ubjFbQ0gyXUMoPU8pW05IXVtDSF0yW0NIMl1bQ0gyXVtDSDJdW0NIMl1bQ0gyXVtDSDJdW0NIMl0y

> <s_epik_cmdline>
J2VwaWtfcHl0aG9uJywgJy1waCcsICc3LjAnLCAnLXRuJywgJzgnLCAnLW1hJywgJzIwMCcsICctbWV0YWxfYmluZGluZycsICctaW1hZScsICc8aW5maWxlLm1hZT4nLCAnLW9tYWUnLCAnPG91dGZpbGUubWFlPic=

> <r_lp_tautomer_probability>
1

> <r_epik_Ionization_Penalty>
4.54698e-07

> <r_epik_Ionization_Penalty_Charging>
0

> <r_epik_Ionization_Penalty_Neutral>
4.54698e-07

> <r_epik_State_Penalty>
-0

> <r_epik_Charging_Adjusted_Penalty>
0

> <i_epik_Tot_Q>
0

> <i_epik_Tot_abs_Q>
0

> <r_epik_Metal_State_Penalty>
-0

> <b_epik_Metal_Only>
0

> <s_lp_Force_Field>
OPLS_2005

> <r_lp_Energy>
19.51

> <b_lp_Chiralities_Consistent>
1

> <s_lp_Variant>
AV-unprocessed.smi:3060-1

> <Gold.Version>
5.8.1

> <Gold.Id.Protein>
6NUR|6NUR_protein|mol2

> <Gold.PLP.Fitness>
44.8122

> <Gold.PLP.PLP>
-38.5114

> <Gold.PLP.part.hbond>
-3.0283

> <Gold.PLP.part.metal>
0.0000

> <Gold.PLP.part.buried>
-6.2955

> <Gold.PLP.part.nonpolar>
-30.1311

> <Gold.PLP.part.repulsive>
1.2338

> <Gold.PLP.ligand.clash>
0.0000

> <Gold.PLP.ligand.torsion>
0.1944

> <Gold.PLP.Chemscore.Hbond>
2.2205

> <Gold.PLP.Chemscore.CHOScore>
0.0000

> <Gold.PLP.Chemscore.Metal>
0.0000

> <Gold.Chemscore.Hbonds>
donor molecule, donor type, donor heavy atom, donor atom, acceptor molecule, acceptor atom, score
      P1  H  7989  7998       L1     6  0.46
      P1  H  7997  8009       L1    10  1.00
      P1  H  8011  8017       L1     5  0.70

> <Gold.PLP.Chemscore.Internal.Correction>
0.0280

> <Gold.Rescore>
     Score         DG    S(hbond)    S(metal)    S(lipo)     H(rot)  DE(clash)    DE(int)     intcor
     17.58     -18.07       1.67        0.00      96.30       1.66       0.17       0.32       ----

> <Gold.Chemscore.Fitness>
17.5781

> <Gold.Chemscore.DG>
-18.0688

> <Gold.Chemscore.ZeroCoef>
-5.4800

> <Gold.Chemscore.Hbond>
1.6686

> <Gold.Chemscore.Metal>
0.0000

> <Gold.Chemscore.Lipo>
96.3035

> <Gold.Chemscore.Internal_Hbond>
0.0000

> <Gold.Chemscore.DEClash>
0.1683

> <Gold.Chemscore.DEInternal>
0.3224

> <Gold.Chemscore.Rot>
1.6609

> <Gold.Chemscore.Internal.Correction>
   9.000000E+99

> <Gold.Chemscore.Hbonds>
donor molecule, donor type, donor heavy atom, donor atom, acceptor molecule, acceptor atom, score
      P1  H  7989  7998       L1     6  0.12
      P1  H  7997  8009       L1    10  1.00
      P1  H  8011  8017       L1     5  0.17

> <Gold.Chemscore.Hbond.Weighted>
-5.5731

> <Gold.Chemscore.Metal.Weighted>
-0.0000

> <Gold.Chemscore.Lipo.Weighted>
-11.2675

> <Gold.Chemscore.Internal_Hbond.Weighted>
0.0000

> <Gold.Chemscore.DEClash.Weighted>
0.1683

> <Gold.Chemscore.DEInternal.Weighted>
0.3224

> <Gold.Chemscore.Rot.Weighted>
4.2518

> <Gold.Chemscore.Internal.Correction.Weighted>
   9.000000E+99

> <Gold.Protein.RotatedTorsions>
[ 6907 6896 6895 6894 ] final   65.98 input  -60.11 | X-H torsion
[ 7974 7965 7964 7962 ] final  -55.05 input  175.53 | X-H torsion
[ 8008 7997 7996 7995 ] final -145.44 input   59.86 | X-H torsion
[ 10167 10162 10161 10158 ] final  167.91 input  -65.29 | X-H torsion
[ 10718 10713 10712 10709 ] final  164.79 input   66.30 | X-H torsion
[ 10763 10752 10751 10750 ] final  -98.65 input  -60.55 | X-H torsion
[ 11005 11000 10999 10996 ] final -114.04 input  -57.11 | X-H torsion

> <Gold.Protein.ActiveResidues>
 VAL166  LYS551  ARG553  GLY616  TRP617  ASP618  TYR619  PRO620  LYS621  CYS622 
 ASP623  PHE694  ASN695  SER759  ASP760  ASP761  ALA762  ILE779  LEU786  VAL792 
 PHE793  MET794  SER795  GLU796  ALA797  LYS798  CYS799  TRP800  GLU811  SER814 

> <Gold.Protein.RotatedAtoms>
  152.4447  134.5519  159.9868 H   0  0  0  0  0  0  0  0  0  0  0  0  # atno 6907 bound_to 6896
  151.5607  133.3398  159.2978 H   0  0  0  0  0  0  0  0  0  0  0  0  # atno 6908 bound_to 6896
  150.8361  134.7667  159.6957 H   0  0  0  0  0  0  0  0  0  0  0  0  # atno 6909 bound_to 6896
  145.8786  140.8162  142.9851 H   0  0  0  0  0  0  0  0  0  0  0  0  # atno 7974 bound_to 7965
  155.5432  140.0610  157.2866 H   0  0  0  0  0  0  0  0  0  0  0  0  # atno 8008 bound_to 7997
  154.4445  140.1915  156.0655 H   0  0  0  0  0  0  0  0  0  0  0  0  # atno 8009 bound_to 7997
  156.0570  140.3277  155.7421 H   0  0  0  0  0  0  0  0  0  0  0  0  # atno 8010 bound_to 7997
  139.4956  144.3871  151.9558 H   0  0  0  0  0  0  0  0  0  0  0  0  # atno 10167 bound_to 10162
  157.0894  131.0413  151.2543 H   0  0  0  0  0  0  0  0  0  0  0  0  # atno 10718 bound_to 10713
  154.7432  135.5001  153.9158 H   0  0  0  0  0  0  0  0  0  0  0  0  # atno 10763 bound_to 10752
  153.1064  135.6698  153.9586 H   0  0  0  0  0  0  0  0  0  0  0  0  # atno 10764 bound_to 10752
  153.9357  135.3073  155.3423 H   0  0  0  0  0  0  0  0  0  0  0  0  # atno 10765 bound_to 10752
  141.0577  133.9586  157.2724 H   0  0  0  0  0  0  0  0  0  0  0  0  # atno 11005 bound_to 11000
  144.6727  140.1349  143.7441 LP  0  0  0  0  0  0  0  0  0  0  0  0  # atno 17320 bound_to 7965
  145.9050  139.2453  143.1471 LP  0  0  0  0  0  0  0  0  0  0  0  0  # atno 17321 bound_to 7965
  140.3308  144.3318  150.5988 LP  0  0  0  0  0  0  0  0  0  0  0  0  # atno 17342 bound_to 10162
  140.5646  143.2188  151.7705 LP  0  0  0  0  0  0  0  0  0  0  0  0  # atno 17343 bound_to 10162
  157.4734  130.7722  149.7345 LP  0  0  0  0  0  0  0  0  0  0  0  0  # atno 17370 bound_to 10713
  155.9902  130.3946  150.3038 LP  0  0  0  0  0  0  0  0  0  0  0  0  # atno 17371 bound_to 10713
  139.9404  135.0191  156.8691 LP  0  0  0  0  0  0  0  0  0  0  0  0  # atno 17394 bound_to 11000
  140.5932  134.0242  155.7507 LP  0  0  0  0  0  0  0  0  0  0  0  0  # atno 17395 bound_to 11000

$$$$
