AV-unprocessed.smi:1205|AV-procd|sdf|5042|dock5
  -GOLD-   22720 4 63D 1   1.00000     0.00000
 Structure written by MMmdl.
 49 50  0  0  0  0  0  0  0  0  2 V2000
  150.9011  142.4866  157.2247 C   0  0  0  0  0  0  0  0  0  0  0  0
  150.7351  141.3324  156.2809 C   0  0  0  0  0  0  0  0  0  0  0  0
  149.6415  141.0622  155.4078 C   0  0  0  0  0  0  0  0  0  0  0  0
  150.0231  139.8977  154.7993 C   0  0  0  0  0  0  0  0  0  0  0  0
  149.3600  139.1627  153.8676 N   0  0  0  0  0  0  0  0  0  0  0  0
  148.0485  139.1664  153.5727 C   0  0  0  0  0  0  0  0  0  0  0  0
  147.1930  139.8639  154.1182 O   0  0  0  0  0  0  0  0  0  0  0  0
  147.7723  138.3061  152.5825 N   0  0  0  0  0  0  0  0  0  0  0  0
  146.4438  138.0759  152.0238 C   0  0  0  0  0  0  0  0  0  0  0  0
  145.6485  136.9993  152.8065 C   0  0  1  0  0  0  0  0  0  0  0  0
  144.1260  137.2276  152.7515 C   0  0  0  0  0  0  0  0  0  0  0  0
  145.9866  135.6057  152.3955 N   0  3  2  0  0  0  0  0  0  0  0  0
  145.3180  135.1789  151.1384 C   0  0  0  0  0  0  0  0  0  0  0  0
  145.9175  133.8606  150.6231 C   0  0  0  0  0  0  0  0  0  0  0  0
  145.8456  132.7633  151.6955 C   0  0  0  0  0  0  0  0  0  0  0  0
  146.4737  133.2302  153.0228 C   0  0  1  0  0  0  0  0  0  0  0  0
  148.0108  133.2793  152.9724 C   0  0  0  0  0  0  0  0  0  0  0  0
  145.8623  134.5756  153.4643 C   0  0  0  0  0  0  0  0  0  0  0  0
  151.2532  139.5208  155.2908 N   0  0  0  0  0  0  0  0  0  0  0  0
  152.0620  138.3627  154.9632 C   0  0  0  0  0  0  0  0  0  0  0  0
  151.6902  140.4121  156.2066 N   0  0  0  0  0  0  0  0  0  0  0  0
  150.0573  143.1738  157.1596 H   0  0  0  0  0  0  0  0  0  0  0  0
  151.8063  143.0512  157.0000 H   0  0  0  0  0  0  0  0  0  0  0  0
  150.9693  142.1422  158.2570 H   0  0  0  0  0  0  0  0  0  0  0  0
  148.7384  141.6373  155.2705 H   0  0  0  0  0  0  0  0  0  0  0  0
  149.9386  138.5437  153.3191 H   0  0  0  0  0  0  0  0  0  0  0  0
  148.5327  137.7707  152.1890 H   0  0  0  0  0  0  0  0  0  0  0  0
  145.9202  139.0314  152.0480 H   0  0  0  0  0  0  0  0  0  0  0  0
  146.5410  137.8036  150.9719 H   0  0  0  0  0  0  0  0  0  0  0  0
  145.9177  137.0823  153.8603 H   0  0  0  0  0  0  0  0  0  0  0  0
  143.8503  138.1683  153.2290 H   0  0  0  0  0  0  0  0  0  0  0  0
  143.5913  136.4344  153.2747 H   0  0  0  0  0  0  0  0  0  0  0  0
  143.7542  137.2625  151.7278 H   0  0  0  0  0  0  0  0  0  0  0  0
  144.2468  135.0612  151.3067 H   0  0  0  0  0  0  0  0  0  0  0  0
  145.4361  135.9456  150.3717 H   0  0  0  0  0  0  0  0  0  0  0  0
  145.3866  133.5371  149.7272 H   0  0  0  0  0  0  0  0  0  0  0  0
  146.9533  134.0202  150.3221 H   0  0  0  0  0  0  0  0  0  0  0  0
  144.8001  132.5038  151.8669 H   0  0  0  0  0  0  0  0  0  0  0  0
  146.3303  131.8533  151.3400 H   0  0  0  0  0  0  0  0  0  0  0  0
  146.2157  132.4896  153.7809 H   0  0  0  0  0  0  0  0  0  0  0  0
  148.3725  134.0127  152.2518 H   0  0  0  0  0  0  0  0  0  0  0  0
  148.4248  132.3095  152.6949 H   0  0  0  0  0  0  0  0  0  0  0  0
  148.4243  133.5442  153.9459 H   0  0  0  0  0  0  0  0  0  0  0  0
  146.3471  134.9100  154.3810 H   0  0  0  0  0  0  0  0  0  0  0  0
  144.8089  134.4257  153.7048 H   0  0  0  0  0  0  0  0  0  0  0  0
  152.1337  138.2574  153.8804 H   0  0  0  0  0  0  0  0  0  0  0  0
  151.6014  137.4666  155.3797 H   0  0  0  0  0  0  0  0  0  0  0  0
  153.0675  138.4686  155.3729 H   0  0  0  0  0  0  0  0  0  0  0  0
  146.9694  135.6393  152.1653 H   0  0  0  0  0  0  0  0  0  0  0  0
  1  2  1  0  0  0  0
  1 22  1  0  0  0  0
  1 23  1  0  0  0  0
  1 24  1  0  0  0  0
  2 21  2  0  0  0  0
  2  3  1  0  0  0  0
  3  4  2  0  0  0  0
  3 25  1  0  0  0  0
  4  5  1  0  0  0  0
  4 19  1  0  0  0  0
  5  6  1  0  0  0  0
  5 26  1  0  0  0  0
  6  7  2  0  0  0  0
  6  8  1  0  0  0  0
  8  9  1  0  0  0  0
  8 27  1  0  0  0  0
  9 10  1  0  0  0  0
  9 28  1  0  0  0  0
  9 29  1  0  0  0  0
 10 11  1  0  0  0  0
 10 12  1  0  0  0  0
 10 30  1  0  0  0  0
 11 31  1  0  0  0  0
 11 32  1  0  0  0  0
 11 33  1  0  0  0  0
 12 18  1  0  0  0  0
 12 13  1  0  0  0  0
 12 49  1  0  0  0  0
 13 14  1  0  0  0  0
 13 34  1  0  0  0  0
 13 35  1  0  0  0  0
 14 15  1  0  0  0  0
 14 36  1  0  0  0  0
 14 37  1  0  0  0  0
 15 16  1  0  0  0  0
 15 38  1  0  0  0  0
 15 39  1  0  0  0  0
 16 17  1  0  0  0  0
 16 18  1  0  0  0  0
 16 40  1  0  0  0  0
 17 41  1  0  0  0  0
 17 42  1  0  0  0  0
 17 43  1  0  0  0  0
 18 44  1  0  0  0  0
 18 45  1  0  0  0  0
 19 20  1  0  0  0  0
 19 21  1  0  0  0  0
 20 46  1  0  0  0  0
 20 47  1  0  0  0  0
 20 48  1  0  0  0  0
M  CHG  1  12   1
M  END
> <s_m_source_file>
AV-unprocessed.smi

> <i_m_source_file_index>
1205

> <i_lp_mmshare_version>
43012

> <i_f3d_flags>
0

> <s_epik_input>
W0NIM11jMVtjSF1jKG4objEpW0NIM10pW05IXUMoPU8pW05IXVtDSDJdW0NASF0oW0NIM10pTjJbQ0gyXVtDSDJdW0NIMl1bQ0BASF0oW0NIM10pW0NIMl0y

> <s_epik_cmdline>
J2VwaWtfcHl0aG9uJywgJy1waCcsICc3LjAnLCAnLXRuJywgJzgnLCAnLW1hJywgJzIwMCcsICctbWV0YWxfYmluZGluZycsICctaW1hZScsICc8aW5maWxlLm1hZT4nLCAnLW9tYWUnLCAnPG91dGZpbGUubWFlPic=

> <r_lp_tautomer_probability>
1

> <r_epik_Ionization_Penalty>
0.0020309

> <r_epik_Ionization_Penalty_Charging>
0.00195276

> <r_epik_Ionization_Penalty_Neutral>
7.81448e-05

> <r_epik_State_Penalty>
0.00133177

> <r_epik_Charging_Adjusted_Penalty>
0.00328452

> <i_epik_Tot_Q>
1

> <i_epik_Tot_abs_Q>
1

> <r_epik_Metal_State_Penalty>
-0

> <b_epik_Metal_Only>
0

> <s_lp_Force_Field>
OPLS_2005

> <r_lp_Energy>
24.2005

> <b_lp_Chiralities_Consistent>
1

> <s_lp_Variant>
AV-unprocessed.smi:1205-4

> <Gold.Version>
5.8.1

> <Gold.Id.Protein>
6NUR|6NUR_protein|mol2

> <Gold.PLP.Fitness>
46.1099

> <Gold.PLP.PLP>
-39.6227

> <Gold.PLP.part.hbond>
-3.7869

> <Gold.PLP.part.metal>
0.0000

> <Gold.PLP.part.buried>
0.7464

> <Gold.PLP.part.nonpolar>
-36.3882

> <Gold.PLP.part.repulsive>
0.3077

> <Gold.PLP.ligand.clash>
0.0000

> <Gold.PLP.ligand.torsion>
1.0123

> <Gold.PLP.Chemscore.Hbond>
2.8000

> <Gold.PLP.Chemscore.CHOScore>
0.0000

> <Gold.PLP.Chemscore.Metal>
0.0000

> <Gold.Chemscore.Hbonds>
donor molecule, donor type, donor heavy atom, donor atom, acceptor molecule, acceptor atom, score
      L1  H     8    27       P1  7948  0.85
      L1  H    12    49       P1  7948  1.82

> <Gold.PLP.Chemscore.Internal.Correction>
0.1118

> <Gold.Rescore>
     Score         DG    S(hbond)    S(metal)    S(lipo)     H(rot)  DE(clash)    DE(int)     intcor
     14.32     -16.36       1.79        0.00      74.02       1.47       0.30       1.74       ----

> <Gold.Chemscore.Fitness>
14.3201

> <Gold.Chemscore.DG>
-16.3585

> <Gold.Chemscore.ZeroCoef>
-5.4800

> <Gold.Chemscore.Hbond>
1.7876

> <Gold.Chemscore.Metal>
0.0000

> <Gold.Chemscore.Lipo>
74.0207

> <Gold.Chemscore.Internal_Hbond>
0.0000

> <Gold.Chemscore.DEClash>
0.3027

> <Gold.Chemscore.DEInternal>
1.7356

> <Gold.Chemscore.Rot>
1.4658

> <Gold.Chemscore.Internal.Correction>
   9.000000E+99

> <Gold.Chemscore.Hbonds>
donor molecule, donor type, donor heavy atom, donor atom, acceptor molecule, acceptor atom, score
      L1  H     8    27       P1  7948  0.82
      L1  H    12    49       P1  7948  0.87

> <Gold.Chemscore.Hbond.Weighted>
-5.9706

> <Gold.Chemscore.Metal.Weighted>
-0.0000

> <Gold.Chemscore.Lipo.Weighted>
-8.6604

> <Gold.Chemscore.Internal_Hbond.Weighted>
0.0000

> <Gold.Chemscore.DEClash.Weighted>
0.3027

> <Gold.Chemscore.DEInternal.Weighted>
1.7356

> <Gold.Chemscore.Rot.Weighted>
3.7526

> <Gold.Chemscore.Internal.Correction.Weighted>
   9.000000E+99

> <Gold.Protein.RotatedTorsions>
[ 6907 6896 6895 6894 ] final  -88.16 input  -60.11 | X-H torsion
[ 7974 7965 7964 7962 ] final    0.51 input  175.53 | X-H torsion
[ 8008 7997 7996 7995 ] final  -36.61 input   59.86 | X-H torsion
[ 10167 10162 10161 10158 ] final  -69.79 input  -65.29 | X-H torsion
[ 10718 10713 10712 10709 ] final  -78.42 input   66.30 | X-H torsion
[ 10763 10752 10751 10750 ] final  -28.78 input  -60.55 | X-H torsion
[ 11005 11000 10999 10996 ] final  -51.00 input  -57.11 | X-H torsion

> <Gold.Protein.ActiveResidues>
 VAL166  LYS551  ARG553  GLY616  TRP617  ASP618  TYR619  PRO620  LYS621  CYS622 
 ASP623  PHE694  ASN695  SER759  ASP760  ASP761  ALA762  ILE779  LEU786  VAL792 
 PHE793  MET794  SER795  GLU796  ALA797  LYS798  CYS799  TRP800  GLU811  SER814 

> <Gold.Protein.RotatedAtoms>
  150.6868  134.2784  159.4616 H   0  0  0  0  0  0  0  0  0  0  0  0  # atno 6907 bound_to 6896
  152.0700  134.9537  160.0584 H   0  0  0  0  0  0  0  0  0  0  0  0  # atno 6908 bound_to 6896
  152.0930  133.4176  159.4589 H   0  0  0  0  0  0  0  0  0  0  0  0  # atno 6909 bound_to 6896
  146.2435  140.1127  142.8343 H   0  0  0  0  0  0  0  0  0  0  0  0  # atno 7974 bound_to 7965
  154.4069  140.1626  156.2402 H   0  0  0  0  0  0  0  0  0  0  0  0  # atno 8008 bound_to 7997
  155.9208  140.3421  155.6148 H   0  0  0  0  0  0  0  0  0  0  0  0  # atno 8009 bound_to 7997
  155.7224  140.0770  157.2315 H   0  0  0  0  0  0  0  0  0  0  0  0  # atno 8010 bound_to 7997
  140.5403  143.2315  151.7101 H   0  0  0  0  0  0  0  0  0  0  0  0  # atno 10167 bound_to 10162
  156.0118  130.4517  150.3494 H   0  0  0  0  0  0  0  0  0  0  0  0  # atno 10718 bound_to 10713
  153.7539  135.6924  153.4939 H   0  0  0  0  0  0  0  0  0  0  0  0  # atno 10763 bound_to 10752
  153.1984  135.4445  155.0235 H   0  0  0  0  0  0  0  0  0  0  0  0  # atno 10764 bound_to 10752
  154.8177  135.3407  154.7058 H   0  0  0  0  0  0  0  0  0  0  0  0  # atno 10765 bound_to 10752
  141.0847  133.6645  156.3813 H   0  0  0  0  0  0  0  0  0  0  0  0  # atno 11005 bound_to 11000
  145.0473  140.8991  143.5016 LP  0  0  0  0  0  0  0  0  0  0  0  0  # atno 17320 bound_to 7965
  145.1218  139.2688  143.5584 LP  0  0  0  0  0  0  0  0  0  0  0  0  # atno 17321 bound_to 7965
  139.4986  144.3979  152.0212 LP  0  0  0  0  0  0  0  0  0  0  0  0  # atno 17342 bound_to 10162
  140.3087  144.3563  150.6040 LP  0  0  0  0  0  0  0  0  0  0  0  0  # atno 17343 bound_to 10162
  157.1587  131.0339  151.2851 LP  0  0  0  0  0  0  0  0  0  0  0  0  # atno 17370 bound_to 10713
  157.4330  130.7501  149.7005 LP  0  0  0  0  0  0  0  0  0  0  0  0  # atno 17371 bound_to 10713
  140.5389  134.6139  157.5374 LP  0  0  0  0  0  0  0  0  0  0  0  0  # atno 17394 bound_to 11000
  139.9664  134.7366  156.0130 LP  0  0  0  0  0  0  0  0  0  0  0  0  # atno 17395 bound_to 11000

$$$$
