AV-unprocessed.smi:92|AV-procd|sdf|845|dock1
  -GOLD-   2262017283D 1   1.00000     0.00000
 Structure written by MMmdl.
 61 64  0  0  0  0  0  0  0  0  2 V2000
  151.4396  144.3758  159.0895 C   0  0  0  0  0  0  0  0  0  0  0  0
  150.1115  143.6226  159.2540 C   0  0  0  0  0  0  0  0  0  0  0  0
  149.6109  143.0598  157.9740 N   0  3  2  0  0  0  0  0  0  0  0  0
  148.2477  142.4888  158.1110 C   0  0  0  0  0  0  0  0  0  0  0  0
  147.6943  142.0585  156.7459 C   0  0  0  0  0  0  0  0  0  0  0  0
  148.6310  141.0448  156.0608 C   0  0  1  0  0  0  0  0  0  0  0  0
  148.0960  140.6117  154.7638 N   0  0  0  0  0  0  0  0  0  0  0  0
  147.5587  141.5852  153.8171 C   0  0  0  0  0  0  0  0  0  0  0  0
  147.5517  139.3700  154.7443 C   0  0  0  0  0  0  0  0  0  0  0  0
  147.6139  138.6409  155.8882 N   0  0  0  0  0  0  0  0  0  0  0  0
  147.0899  137.4131  155.9341 C   0  0  0  0  0  0  0  0  0  0  0  0
  146.4668  136.7361  154.9684 N   0  0  0  0  0  0  0  0  0  0  0  0
  146.3967  137.4642  153.8173 C   0  0  0  0  0  0  0  0  0  0  0  0
  146.9033  138.7804  153.6199 C   0  0  0  0  0  0  0  0  0  0  0  0
  146.6114  139.2061  152.3286 N   0  0  0  0  0  0  0  0  0  0  0  0
  145.9775  138.1989  151.7934 C   0  0  0  0  0  0  0  0  0  0  0  0
  145.8304  137.0999  152.6084 N   0  0  0  0  0  0  0  0  0  0  0  0
  145.1421  135.8831  152.2931 C   0  0  0  0  0  0  0  0  0  0  0  0
  145.8644  134.5350  152.3310 C   0  0  0  0  0  0  0  0  0  0  0  0
  144.9640  134.0293  151.1815 C   0  0  0  0  0  0  0  0  0  0  0  0
  145.6762  133.2011  150.0996 C   0  0  0  0  0  0  0  0  0  0  0  0
  144.8818  133.0879  148.9365 O   0  0  0  0  0  0  0  0  0  0  0  0
  143.6843  133.2915  151.6245 C   0  0  0  0  0  0  0  0  0  0  0  0
  142.9063  132.8950  150.5133 O   0  0  0  0  0  0  0  0  0  0  0  0
  144.7779  135.5266  150.8497 C   0  0  0  0  0  0  0  0  0  0  0  0
  150.0619  141.6261  155.9630 C   0  0  2  0  0  0  0  0  0  0  0  0
  151.0552  140.6169  155.3610 C   0  0  0  0  0  0  0  0  0  0  0  0
  150.5465  142.0832  157.3555 C   0  0  0  0  0  0  0  0  0  0  0  0
  151.7264  144.8539  160.0265 H   0  0  0  0  0  0  0  0  0  0  0  0
  151.3584  145.1573  158.3335 H   0  0  0  0  0  0  0  0  0  0  0  0
  152.2561  143.7134  158.8043 H   0  0  0  0  0  0  0  0  0  0  0  0
  150.2057  142.8324  160.0004 H   0  0  0  0  0  0  0  0  0  0  0  0
  149.3792  144.3302  159.6451 H   0  0  0  0  0  0  0  0  0  0  0  0
  148.2720  141.6386  158.7949 H   0  0  0  0  0  0  0  0  0  0  0  0
  147.5773  143.2297  158.5484 H   0  0  0  0  0  0  0  0  0  0  0  0
  146.7023  141.6242  156.8759 H   0  0  0  0  0  0  0  0  0  0  0  0
  147.5658  142.9415  156.1190 H   0  0  0  0  0  0  0  0  0  0  0  0
  148.6939  140.1748  156.7164 H   0  0  0  0  0  0  0  0  0  0  0  0
  147.2708  141.1026  152.8821 H   0  0  0  0  0  0  0  0  0  0  0  0
  148.3057  142.3393  153.5718 H   0  0  0  0  0  0  0  0  0  0  0  0
  146.6834  142.0917  154.2235 H   0  0  0  0  0  0  0  0  0  0  0  0
  147.1830  136.8993  156.8796 H   0  0  0  0  0  0  0  0  0  0  0  0
  145.6006  138.2310  150.7813 H   0  0  0  0  0  0  0  0  0  0  0  0
  144.2578  135.8641  152.9320 H   0  0  0  0  0  0  0  0  0  0  0  0
  146.9150  134.6196  152.0463 H   0  0  0  0  0  0  0  0  0  0  0  0
  145.7612  133.9968  153.2736 H   0  0  0  0  0  0  0  0  0  0  0  0
  146.6192  133.6682  149.8135 H   0  0  0  0  0  0  0  0  0  0  0  0
  145.9277  132.2026  150.4576 H   0  0  0  0  0  0  0  0  0  0  0  0
  145.2342  133.6642  148.2755 H   0  0  0  0  0  0  0  0  0  0  0  0
  143.9242  132.3960  152.1977 H   0  0  0  0  0  0  0  0  0  0  0  0
  143.0713  133.9121  152.2787 H   0  0  0  0  0  0  0  0  0  0  0  0
  142.0915  133.3732  150.5309 H   0  0  0  0  0  0  0  0  0  0  0  0
  143.7669  135.8088  150.5549 H   0  0  0  0  0  0  0  0  0  0  0  0
  145.5116  135.8956  150.1304 H   0  0  0  0  0  0  0  0  0  0  0  0
  150.0455  142.5069  155.3199 H   0  0  0  0  0  0  0  0  0  0  0  0
  151.1007  139.7037  155.9553 H   0  0  0  0  0  0  0  0  0  0  0  0
  152.0612  141.0347  155.3155 H   0  0  0  0  0  0  0  0  0  0  0  0
  150.7767  140.3368  154.3448 H   0  0  0  0  0  0  0  0  0  0  0  0
  151.5347  142.5303  157.2532 H   0  0  0  0  0  0  0  0  0  0  0  0
  150.6592  141.2226  158.0172 H   0  0  0  0  0  0  0  0  0  0  0  0
  149.5279  143.8365  157.3337 H   0  0  0  0  0  0  0  0  0  0  0  0
  1  2  1  0  0  0  0
  1 29  1  0  0  0  0
  1 30  1  0  0  0  0
  1 31  1  0  0  0  0
  2  3  1  0  0  0  0
  2 32  1  0  0  0  0
  2 33  1  0  0  0  0
  3 28  1  0  0  0  0
  3  4  1  0  0  0  0
  3 61  1  0  0  0  0
  4  5  1  0  0  0  0
  4 34  1  0  0  0  0
  4 35  1  0  0  0  0
  5  6  1  0  0  0  0
  5 36  1  0  0  0  0
  5 37  1  0  0  0  0
  6  7  1  0  0  0  0
  6 26  1  0  0  0  0
  6 38  1  0  0  0  0
  7  8  1  0  0  0  0
  7  9  1  0  0  0  0
  8 39  1  0  0  0  0
  8 40  1  0  0  0  0
  8 41  1  0  0  0  0
  9 14  1  0  0  0  0
  9 10  2  0  0  0  0
 10 11  1  0  0  0  0
 11 12  2  0  0  0  0
 11 42  1  0  0  0  0
 12 13  1  0  0  0  0
 13 17  1  0  0  0  0
 13 14  2  0  0  0  0
 14 15  1  0  0  0  0
 15 16  2  0  0  0  0
 16 17  1  0  0  0  0
 16 43  1  0  0  0  0
 17 18  1  0  0  0  0
 18 25  1  0  0  0  0
 18 19  1  0  0  0  0
 18 44  1  0  0  0  0
 19 20  1  0  0  0  0
 19 45  1  0  0  0  0
 19 46  1  0  0  0  0
 20 21  1  0  0  0  0
 20 23  1  0  0  0  0
 20 25  1  0  0  0  0
 21 22  1  0  0  0  0
 21 47  1  0  0  0  0
 21 48  1  0  0  0  0
 22 49  1  0  0  0  0
 23 24  1  0  0  0  0
 23 50  1  0  0  0  0
 23 51  1  0  0  0  0
 24 52  1  0  0  0  0
 25 53  1  0  0  0  0
 25 54  1  0  0  0  0
 26 27  1  0  0  0  0
 26 28  1  0  0  0  0
 26 55  1  0  0  0  0
 27 56  1  0  0  0  0
 27 57  1  0  0  0  0
 27 58  1  0  0  0  0
 28 59  1  0  0  0  0
 28 60  1  0  0  0  0
M  CHG  1   3   1
M  END
> <s_m_source_file>
AV-unprocessed.smi

> <i_m_source_file_index>
92

> <i_lp_mmshare_version>
43012

> <i_f3d_flags>
0

> <s_epik_input>
W0NIM11bQ0gyXU4xW0NIMl1bQ0gyXVtDQEhdKFtDQEBIXShbQ0gzXSlbQ0gyXTEpTihbQ0gzXSljKG5bY0hdbjIpYyhjMjMpbltjSF1uM1tDSF0oW0NIMl00KVtDSDJdQzQoW0NIMl1bT0hdKVtDSDJdW09IXQ==

> <s_epik_cmdline>
J2VwaWtfcHl0aG9uJywgJy1waCcsICc3LjAnLCAnLXRuJywgJzgnLCAnLW1hJywgJzIwMCcsICctbWV0YWxfYmluZGluZycsICctaW1hZScsICc8aW5maWxlLm1hZT4nLCAnLW9tYWUnLCAnPG91dGZpbGUubWFlPic=

> <r_lp_tautomer_probability>
1

> <r_epik_Ionization_Penalty>
0.00235514

> <r_epik_Ionization_Penalty_Charging>
0.00137877

> <r_epik_Ionization_Penalty_Neutral>
0.000976366

> <r_epik_State_Penalty>
-0

> <r_epik_Charging_Adjusted_Penalty>
0.00137877

> <i_epik_Tot_Q>
1

> <i_epik_Tot_abs_Q>
1

> <r_epik_Metal_State_Penalty>
-0

> <b_epik_Metal_Only>
0

> <s_lp_Force_Field>
OPLS_2005

> <r_lp_Energy>
48.9236

> <b_lp_Chiralities_Consistent>
1

> <s_lp_Variant>
AV-unprocessed.smi:92-5

> <Gold.Version>
5.8.1

> <Gold.Id.Protein>
6NUR|6NUR_protein|mol2

> <Gold.PLP.Fitness>
56.2996

> <Gold.PLP.PLP>
-41.6205

> <Gold.PLP.part.hbond>
-3.0000

> <Gold.PLP.part.metal>
0.0000

> <Gold.PLP.part.buried>
-1.8389

> <Gold.PLP.part.nonpolar>
-37.0307

> <Gold.PLP.part.repulsive>
0.7637

> <Gold.PLP.ligand.clash>
0.0000

> <Gold.PLP.ligand.torsion>
0.9060

> <Gold.PLP.Chemscore.Hbond>
4.0000

> <Gold.PLP.Chemscore.CHOScore>
0.9984

> <Gold.PLP.Chemscore.Metal>
0.0000

> <Gold.Chemscore.Hbonds>
donor molecule, donor type, donor heavy atom, donor atom, acceptor molecule, acceptor atom, score
      L1  H     3    61       P1  8028  2.00
      L1  H    22    49       P1  7921  1.00
      L1  H    24    52       P1 10186  0.90
      L1  C    16    43       P1 10171  0.93

> <Gold.PLP.Chemscore.Internal.Correction>
1.4957

> <Gold.Rescore>
     Score         DG    S(hbond)    S(metal)    S(lipo)     H(rot)  DE(clash)    DE(int)     intcor
     11.54     -15.22       2.03        0.00      95.79       3.22       1.36       2.31       ----

> <Gold.Chemscore.Fitness>
11.5432

> <Gold.Chemscore.DG>
-15.2157

> <Gold.Chemscore.ZeroCoef>
-5.4800

> <Gold.Chemscore.Hbond>
2.0290

> <Gold.Chemscore.Metal>
0.0000

> <Gold.Chemscore.Lipo>
95.7867

> <Gold.Chemscore.Internal_Hbond>
0.0000

> <Gold.Chemscore.DEClash>
1.3604

> <Gold.Chemscore.DEInternal>
2.3121

> <Gold.Chemscore.Rot>
3.2219

> <Gold.Chemscore.Internal.Correction>
   9.000000E+99

> <Gold.Chemscore.Hbonds>
donor molecule, donor type, donor heavy atom, donor atom, acceptor molecule, acceptor atom, score
      L1  H     3    61       P1  8028  0.53
      L1  H    22    49       P1  7921  0.63
      L1  H    24    52       P1 10186  0.85

> <Gold.Chemscore.Hbond.Weighted>
-6.7768

> <Gold.Chemscore.Metal.Weighted>
-0.0000

> <Gold.Chemscore.Lipo.Weighted>
-11.2070

> <Gold.Chemscore.Internal_Hbond.Weighted>
0.0000

> <Gold.Chemscore.DEClash.Weighted>
1.3604

> <Gold.Chemscore.DEInternal.Weighted>
2.3121

> <Gold.Chemscore.Rot.Weighted>
8.2482

> <Gold.Chemscore.Internal.Correction.Weighted>
   9.000000E+99

> <Gold.Protein.RotatedTorsions>
[ 6907 6896 6895 6894 ] final  119.24 input  -60.11 | X-H torsion
[ 7974 7965 7964 7962 ] final  121.11 input  175.53 | X-H torsion
[ 8008 7997 7996 7995 ] final  152.63 input   59.86 | X-H torsion
[ 10167 10162 10161 10158 ] final   65.40 input  -65.29 | X-H torsion
[ 10718 10713 10712 10709 ] final  -13.43 input   66.30 | X-H torsion
[ 10763 10752 10751 10750 ] final   36.02 input  -60.55 | X-H torsion
[ 11005 11000 10999 10996 ] final  177.15 input  -57.11 | X-H torsion

> <Gold.Protein.ActiveResidues>
 VAL166  LYS551  ARG553  GLY616  TRP617  ASP618  TYR619  PRO620  LYS621  CYS622 
 ASP623  PHE694  ASN695  SER759  ASP760  ASP761  ALA762  ILE779  LEU786  VAL792 
 PHE793  MET794  SER795  GLU796  ALA797  LYS798  CYS799  TRP800  GLU811  SER814 

> <Gold.Protein.RotatedAtoms>
  152.4486  133.7585  159.6733 H   0  0  0  0  0  0  0  0  0  0  0  0  # atno 6907 bound_to 6896
  150.8392  133.7953  159.3073 H   0  0  0  0  0  0  0  0  0  0  0  0  # atno 6908 bound_to 6896
  151.5583  135.1068  160.0018 H   0  0  0  0  0  0  0  0  0  0  0  0  # atno 6909 bound_to 6896
  145.1232  139.3375  143.4703 H   0  0  0  0  0  0  0  0  0  0  0  0  # atno 7974 bound_to 7965
  156.2620  140.2015  156.6364 H   0  0  0  0  0  0  0  0  0  0  0  0  # atno 8008 bound_to 7997
  154.6643  140.0557  157.0121 H   0  0  0  0  0  0  0  0  0  0  0  0  # atno 8009 bound_to 7997
  155.1230  140.3226  155.4495 H   0  0  0  0  0  0  0  0  0  0  0  0  # atno 8010 bound_to 7997
  140.1117  144.4812  150.6974 H   0  0  0  0  0  0  0  0  0  0  0  0  # atno 10167 bound_to 10162
  156.6303  130.4900  149.6131 H   0  0  0  0  0  0  0  0  0  0  0  0  # atno 10718 bound_to 10713
  153.0094  135.6317  154.1919 H   0  0  0  0  0  0  0  0  0  0  0  0  # atno 10763 bound_to 10752
  154.1661  135.2821  155.3096 H   0  0  0  0  0  0  0  0  0  0  0  0  # atno 10764 bound_to 10752
  154.5944  135.5607  153.7371 H   0  0  0  0  0  0  0  0  0  0  0  0  # atno 10765 bound_to 10752
  140.3809  134.6947  157.4450 H   0  0  0  0  0  0  0  0  0  0  0  0  # atno 11005 bound_to 11000
  146.3519  140.1200  142.8600 LP  0  0  0  0  0  0  0  0  0  0  0  0  # atno 17320 bound_to 7965
  145.0717  140.9160  143.4878 LP  0  0  0  0  0  0  0  0  0  0  0  0  # atno 17321 bound_to 7965
  140.6922  143.2382  151.5101 LP  0  0  0  0  0  0  0  0  0  0  0  0  # atno 17342 bound_to 10162
  139.5615  144.2144  152.1699 LP  0  0  0  0  0  0  0  0  0  0  0  0  # atno 17343 bound_to 10162
  156.2240  130.6754  151.1397 LP  0  0  0  0  0  0  0  0  0  0  0  0  # atno 17370 bound_to 10713
  157.7202  131.0686  150.6168 LP  0  0  0  0  0  0  0  0  0  0  0  0  # atno 17371 bound_to 10713
  140.0479  134.6173  155.8898 LP  0  0  0  0  0  0  0  0  0  0  0  0  # atno 17394 bound_to 11000
  141.1923  133.6575  156.5498 LP  0  0  0  0  0  0  0  0  0  0  0  0  # atno 17395 bound_to 11000

$$$$
