AV-unprocessed.smi:1596|AV-procd|sdf|6416|dock1
  -GOLD-   22720 7 53D 1   1.00000     0.00000
 Structure written by MMmdl.
 49 50  0  0  0  0  0  0  0  0  2 V2000
  151.9112  144.7929  159.9490 C   0  0  0  0  0  0  0  0  0  0  0  0
  152.4532  143.7801  158.9289 C   0  0  0  0  0  0  0  0  0  0  0  0
  152.4093  142.3967  159.4090 N   0  0  0  0  0  0  0  0  0  0  0  0
  153.2486  142.0024  160.5405 C   0  0  0  0  0  0  0  0  0  0  0  0
  152.8248  142.6518  161.8662 C   0  0  0  0  0  0  0  0  0  0  0  0
  151.7015  141.4161  158.6714 C   0  0  0  0  0  0  0  0  0  0  0  0
  151.9469  140.0239  158.7791 C   0  0  0  0  0  0  0  0  0  0  0  0
  151.1957  139.1132  158.0080 C   0  0  0  0  0  0  0  0  0  0  0  0
  150.1929  139.5883  157.1382 C   0  0  0  0  0  0  0  0  0  0  0  0
  149.4723  138.6347  156.3687 N   0  0  0  0  0  0  0  0  0  0  0  0
  149.6095  137.2975  156.3527 C   0  0  0  0  0  0  0  0  0  0  0  0
  150.4460  136.6617  156.9935 O   0  0  0  0  0  0  0  0  0  0  0  0
  148.7232  136.7280  155.5232 N   0  0  0  0  0  0  0  0  0  0  0  0
  148.6105  135.2952  155.2654 C   0  0  2  0  0  0  0  0  0  0  0  0
  149.9287  134.7431  154.6836 C   0  0  0  0  0  0  0  0  0  0  0  0
  149.8079  133.2505  154.3356 C   0  0  0  0  0  0  0  0  0  0  0  0
  148.6320  132.9975  153.3766 C   0  0  1  0  0  0  0  0  0  0  0  0
  148.5082  131.6117  153.1369 O   0  0  0  0  0  0  0  0  0  0  0  0
  147.3155  133.5386  153.9605 C   0  0  0  0  0  0  0  0  0  0  0  0
  147.4354  135.0322  154.3046 C   0  0  0  0  0  0  0  0  0  0  0  0
  149.9894  140.9858  157.0565 C   0  0  0  0  0  0  0  0  0  0  0  0
  150.7342  141.8212  157.8118 N   0  3  0  0  0  0  0  0  0  0  0  0
  151.9880  145.8070  159.5570 H   0  0  0  0  0  0  0  0  0  0  0  0
  152.4696  144.7600  160.8847 H   0  0  0  0  0  0  0  0  0  0  0  0
  150.8620  144.6129  160.1785 H   0  0  0  0  0  0  0  0  0  0  0  0
  151.8677  143.8544  158.0122 H   0  0  0  0  0  0  0  0  0  0  0  0
  153.4712  144.0446  158.6418 H   0  0  0  0  0  0  0  0  0  0  0  0
  153.2024  140.9185  160.6496 H   0  0  0  0  0  0  0  0  0  0  0  0
  154.2945  142.2198  160.3255 H   0  0  0  0  0  0  0  0  0  0  0  0
  153.5068  142.3637  162.6664 H   0  0  0  0  0  0  0  0  0  0  0  0
  151.8255  142.3391  162.1655 H   0  0  0  0  0  0  0  0  0  0  0  0
  152.8313  143.7399  161.8045 H   0  0  0  0  0  0  0  0  0  0  0  0
  152.7061  139.6299  159.4370 H   0  0  0  0  0  0  0  0  0  0  0  0
  151.3901  138.0538  158.0909 H   0  0  0  0  0  0  0  0  0  0  0  0
  148.7956  139.0181  155.7250 H   0  0  0  0  0  0  0  0  0  0  0  0
  148.0761  137.3277  155.0326 H   0  0  0  0  0  0  0  0  0  0  0  0
  148.3974  134.7800  156.2042 H   0  0  0  0  0  0  0  0  0  0  0  0
  150.1997  135.3015  153.7862 H   0  0  0  0  0  0  0  0  0  0  0  0
  150.7440  134.8862  155.3939 H   0  0  0  0  0  0  0  0  0  0  0  0
  150.7389  132.8997  153.8888 H   0  0  0  0  0  0  0  0  0  0  0  0
  149.6693  132.6771  155.2534 H   0  0  0  0  0  0  0  0  0  0  0  0
  148.8320  133.4859  152.4220 H   0  0  0  0  0  0  0  0  0  0  0  0
  148.6432  131.4527  152.2152 H   0  0  0  0  0  0  0  0  0  0  0  0
  146.5001  133.3877  153.2519 H   0  0  0  0  0  0  0  0  0  0  0  0
  147.0514  132.9814  154.8606 H   0  0  0  0  0  0  0  0  0  0  0  0
  146.5029  135.3810  154.7502 H   0  0  0  0  0  0  0  0  0  0  0  0
  147.5720  135.6041  153.3856 H   0  0  0  0  0  0  0  0  0  0  0  0
  149.2744  141.4754  156.4129 H   0  0  0  0  0  0  0  0  0  0  0  0
  150.5589  142.8225  157.7262 H   0  0  0  0  0  0  0  0  0  0  0  0
  1  2  1  0  0  0  0
  1 23  1  0  0  0  0
  1 24  1  0  0  0  0
  1 25  1  0  0  0  0
  2  3  1  0  0  0  0
  2 26  1  0  0  0  0
  2 27  1  0  0  0  0
  3  4  1  0  0  0  0
  3  6  1  0  0  0  0
  4  5  1  0  0  0  0
  4 28  1  0  0  0  0
  4 29  1  0  0  0  0
  5 30  1  0  0  0  0
  5 31  1  0  0  0  0
  5 32  1  0  0  0  0
  6 22  1  0  0  0  0
  6  7  2  0  0  0  0
  7  8  1  0  0  0  0
  7 33  1  0  0  0  0
  8  9  2  0  0  0  0
  8 34  1  0  0  0  0
  9 10  1  0  0  0  0
  9 21  1  0  0  0  0
 10 11  1  0  0  0  0
 10 35  1  0  0  0  0
 11 12  2  0  0  0  0
 11 13  1  0  0  0  0
 13 14  1  0  0  0  0
 13 36  1  0  0  0  0
 14 20  1  0  0  0  0
 14 15  1  0  0  0  0
 14 37  1  0  0  0  0
 15 16  1  0  0  0  0
 15 38  1  0  0  0  0
 15 39  1  0  0  0  0
 16 17  1  0  0  0  0
 16 40  1  0  0  0  0
 16 41  1  0  0  0  0
 17 18  1  0  0  0  0
 17 19  1  0  0  0  0
 17 42  1  0  0  0  0
 18 43  1  0  0  0  0
 19 20  1  0  0  0  0
 19 44  1  0  0  0  0
 19 45  1  0  0  0  0
 20 46  1  0  0  0  0
 20 47  1  0  0  0  0
 21 22  2  0  0  0  0
 21 48  1  0  0  0  0
 22 49  1  0  0  0  0
M  CHG  1  22   1
M  END
> <s_m_source_file>
AV-unprocessed.smi

> <i_m_source_file_index>
1596

> <i_lp_mmshare_version>
43012

> <i_f3d_flags>
0

> <s_epik_input>
W0NIM11bQ0gyXU4oW0NIMl1bQ0gzXSljMVtjSF1bY0hdYyhbY0hdbjEpW05IXUMoPU8pW05IXVtDQEBIXTJbQ0gyXVtDSDJdW0NAQEhdKFtPSF0pW0NIMl1bQ0gyXTI=

> <s_epik_cmdline>
J2VwaWtfcHl0aG9uJywgJy1waCcsICc3LjAnLCAnLXRuJywgJzgnLCAnLW1hJywgJzIwMCcsICctbWV0YWxfYmluZGluZycsICctaW1hZScsICc8aW5maWxlLm1hZT4nLCAnLW9tYWUnLCAnPG91dGZpbGUubWFlPic=

> <r_lp_tautomer_probability>
0.999994

> <r_epik_Ionization_Penalty>
0.224167

> <r_epik_Ionization_Penalty_Charging>
0.224146

> <r_epik_Ionization_Penalty_Neutral>
2.1696e-05

> <r_epik_State_Penalty>
0.0144855

> <r_epik_Charging_Adjusted_Penalty>
0.238631

> <i_epik_Tot_Q>
1

> <i_epik_Tot_abs_Q>
1

> <r_epik_Metal_State_Penalty>
0.0446449

> <b_epik_Metal_Only>
0

> <s_lp_Force_Field>
OPLS_2005

> <r_lp_Energy>
22.6617

> <b_lp_Chiralities_Consistent>
1

> <s_lp_Variant>
AV-unprocessed.smi:1596-1

> <Gold.Version>
5.8.1

> <Gold.Id.Protein>
6NUR|6NUR_protein|mol2

> <Gold.PLP.Fitness>
41.9270

> <Gold.PLP.PLP>
-39.2573

> <Gold.PLP.part.hbond>
-1.0000

> <Gold.PLP.part.metal>
0.0000

> <Gold.PLP.part.buried>
-4.1077

> <Gold.PLP.part.nonpolar>
-34.3253

> <Gold.PLP.part.repulsive>
0.0383

> <Gold.PLP.ligand.clash>
0.0000

> <Gold.PLP.ligand.torsion>
0.1933

> <Gold.PLP.Chemscore.Hbond>
0.9750

> <Gold.PLP.Chemscore.CHOScore>
0.0000

> <Gold.PLP.Chemscore.Metal>
0.0000

> <Gold.Chemscore.Hbonds>
donor molecule, donor type, donor heavy atom, donor atom, acceptor molecule, acceptor atom, score
      L1  H    18    43       P1 10747  0.98

> <Gold.PLP.Chemscore.Internal.Correction>
0.1313

> <Gold.Rescore>
     Score         DG    S(hbond)    S(metal)    S(lipo)     H(rot)  DE(clash)    DE(int)     intcor
     12.27     -14.74       0.98        0.00      91.34       1.83       0.03       2.43       ----

> <Gold.Chemscore.Fitness>
12.2749

> <Gold.Chemscore.DG>
-14.7361

> <Gold.Chemscore.ZeroCoef>
-5.4800

> <Gold.Chemscore.Hbond>
0.9756

> <Gold.Chemscore.Metal>
0.0000

> <Gold.Chemscore.Lipo>
91.3390

> <Gold.Chemscore.Internal_Hbond>
0.0000

> <Gold.Chemscore.DEClash>
0.0310

> <Gold.Chemscore.DEInternal>
2.4303

> <Gold.Chemscore.Rot>
1.8317

> <Gold.Chemscore.Internal.Correction>
   9.000000E+99

> <Gold.Chemscore.Hbonds>
donor molecule, donor type, donor heavy atom, donor atom, acceptor molecule, acceptor atom, score
      L1  H    18    43       P1 10747  0.88

> <Gold.Chemscore.Hbond.Weighted>
-3.2586

> <Gold.Chemscore.Metal.Weighted>
-0.0000

> <Gold.Chemscore.Lipo.Weighted>
-10.6867

> <Gold.Chemscore.Internal_Hbond.Weighted>
0.0000

> <Gold.Chemscore.DEClash.Weighted>
0.0310

> <Gold.Chemscore.DEInternal.Weighted>
2.4303

> <Gold.Chemscore.Rot.Weighted>
4.6892

> <Gold.Chemscore.Internal.Correction.Weighted>
   9.000000E+99

> <Gold.Protein.RotatedTorsions>
[ 6907 6896 6895 6894 ] final  122.32 input  -60.11 | X-H torsion
[ 7974 7965 7964 7962 ] final  -15.27 input  175.53 | X-H torsion
[ 8008 7997 7996 7995 ] final -133.90 input   59.86 | X-H torsion
[ 10167 10162 10161 10158 ] final   71.23 input  -65.29 | X-H torsion
[ 10718 10713 10712 10709 ] final   17.18 input   66.30 | X-H torsion
[ 10763 10752 10751 10750 ] final  -66.30 input  -60.55 | X-H torsion
[ 11005 11000 10999 10996 ] final  115.85 input  -57.11 | X-H torsion

> <Gold.Protein.ActiveResidues>
 VAL166  LYS551  ARG553  GLY616  TRP617  ASP618  TYR619  PRO620  LYS621  CYS622 
 ASP623  PHE694  ASN695  SER759  ASP760  ASP761  ALA762  ILE779  LEU786  VAL792 
 PHE793  MET794  SER795  GLU796  ALA797  LYS798  CYS799  TRP800  GLU811  SER814 

> <Gold.Protein.RotatedAtoms>
  152.4252  133.7183  159.6518 H   0  0  0  0  0  0  0  0  0  0  0  0  # atno 6907 bound_to 6896
  150.8129  133.8379  159.3180 H   0  0  0  0  0  0  0  0  0  0  0  0  # atno 6908 bound_to 6896
  151.6084  135.1044  160.0127 H   0  0  0  0  0  0  0  0  0  0  0  0  # atno 6909 bound_to 6896
  146.2039  140.3469  142.8414 H   0  0  0  0  0  0  0  0  0  0  0  0  # atno 7974 bound_to 7965
  155.3532  140.0478  157.3046 H   0  0  0  0  0  0  0  0  0  0  0  0  # atno 8008 bound_to 7997
  154.5216  140.2227  155.8929 H   0  0  0  0  0  0  0  0  0  0  0  0  # atno 8009 bound_to 7997
  156.1695  140.3099  155.8955 H   0  0  0  0  0  0  0  0  0  0  0  0  # atno 8010 bound_to 7997
  140.0483  144.5332  150.7382 H   0  0  0  0  0  0  0  0  0  0  0  0  # atno 10167 bound_to 10162
  157.0785  130.6378  149.5821 H   0  0  0  0  0  0  0  0  0  0  0  0  # atno 10718 bound_to 10713
  154.3577  135.6123  153.5675 H   0  0  0  0  0  0  0  0  0  0  0  0  # atno 10763 bound_to 10752
  152.9795  135.5807  154.4669 H   0  0  0  0  0  0  0  0  0  0  0  0  # atno 10764 bound_to 10752
  154.4401  135.2850  155.1831 H   0  0  0  0  0  0  0  0  0  0  0  0  # atno 10765 bound_to 10752
  139.9023  134.9590  156.7109 H   0  0  0  0  0  0  0  0  0  0  0  0  # atno 11005 bound_to 11000
  144.8746  140.7319  143.6025 LP  0  0  0  0  0  0  0  0  0  0  0  0  # atno 17320 bound_to 7965
  145.3389  139.1738  143.4497 LP  0  0  0  0  0  0  0  0  0  0  0  0  # atno 17321 bound_to 7965
  140.7228  143.2606  151.4221 LP  0  0  0  0  0  0  0  0  0  0  0  0  # atno 17342 bound_to 10162
  139.5969  144.1378  152.2154 LP  0  0  0  0  0  0  0  0  0  0  0  0  # atno 17343 bound_to 10162
  155.9930  130.4990  150.7364 LP  0  0  0  0  0  0  0  0  0  0  0  0  # atno 17370 bound_to 10713
  157.4820  131.0903  151.0525 LP  0  0  0  0  0  0  0  0  0  0  0  0  # atno 17371 bound_to 10713
  140.7076  133.9251  155.8064 LP  0  0  0  0  0  0  0  0  0  0  0  0  # atno 17394 bound_to 11000
  141.0324  134.0737  157.3998 LP  0  0  0  0  0  0  0  0  0  0  0  0  # atno 17395 bound_to 11000

$$$$
