AV-unprocessed.smi:1413|AV-procd|sdf|5752|dock6
  -GOLD-   22720 5393D 1   1.00000     0.00000
 Structure written by MMmdl.
 53 55  0  0  0  0  0  0  0  0  1 V2000
  153.3888  141.4039  160.2451 C   0  0  0  0  0  0  0  0  0  0  0  0
  152.2819  142.0466  159.4030 C   0  0  2  0  0  0  0  0  0  0  0  0
  151.7739  141.0979  158.3020 C   0  0  0  0  0  0  0  0  0  0  0  0
  150.8056  141.7848  157.4593 N   0  0  0  0  0  0  0  0  0  0  0  0
  150.1763  140.9375  156.5365 C   0  0  0  0  0  0  0  0  0  0  0  0
  150.9636  140.2617  155.5820 C   0  0  0  0  0  0  0  0  0  0  0  0
  150.3265  139.4106  154.6595 C   0  0  0  0  0  0  0  0  0  0  0  0
  148.9251  139.2699  154.7080 C   0  0  0  0  0  0  0  0  0  0  0  0
  148.3088  138.3872  153.7811 N   0  0  0  0  0  0  0  0  0  0  0  0
  147.0083  138.2972  153.4554 C   0  0  0  0  0  0  0  0  0  0  0  0
  146.1157  139.0212  153.8956 O   0  0  0  0  0  0  0  0  0  0  0  0
  146.8038  137.3235  152.5562 N   0  0  0  0  0  0  0  0  0  0  0  0
  145.5254  136.9882  151.9329 C   0  0  2  0  0  0  0  0  0  0  0  0
  144.4642  136.8296  153.0326 C   0  0  0  0  0  0  0  0  0  0  0  0
  145.6918  135.7107  151.0867 C   0  0  1  0  0  0  0  0  0  0  0  0
  146.2195  134.4946  151.8545 C   0  0  0  0  0  0  0  0  0  0  0  0
  145.5931  133.3016  151.1446 C   0  0  0  0  0  0  0  0  0  0  0  0
  144.6248  133.9289  150.1413 C   0  0  0  0  0  0  0  0  0  0  0  0
  144.4326  135.2504  150.6188 O   0  0  0  0  0  0  0  0  0  0  0  0
  148.2246  139.9859  155.7088 C   0  0  0  0  0  0  0  0  0  0  0  0
  148.8306  140.8003  156.5992 N   0  0  0  0  0  0  0  0  0  0  0  0
  151.3500  143.0017  156.8693 C   0  0  0  0  0  0  0  0  0  0  0  0
  151.8980  143.9404  157.9628 C   0  0  1  0  0  0  0  0  0  0  0  0
  150.7970  144.6516  158.7696 C   0  0  0  0  0  0  0  0  0  0  0  0
  152.8109  143.2317  158.8060 O   0  0  0  0  0  0  0  0  0  0  0  0
  153.0337  140.4958  160.7330 H   0  0  0  0  0  0  0  0  0  0  0  0
  153.7328  142.0861  161.0229 H   0  0  0  0  0  0  0  0  0  0  0  0
  154.2492  141.1391  159.6296 H   0  0  0  0  0  0  0  0  0  0  0  0
  151.4591  142.3078  160.0690 H   0  0  0  0  0  0  0  0  0  0  0  0
  152.6092  140.7514  157.6913 H   0  0  0  0  0  0  0  0  0  0  0  0
  151.3137  140.2160  158.7496 H   0  0  0  0  0  0  0  0  0  0  0  0
  152.0361  140.3885  155.5587 H   0  0  0  0  0  0  0  0  0  0  0  0
  150.9092  138.8768  153.9228 H   0  0  0  0  0  0  0  0  0  0  0  0
  148.9387  137.7914  153.2641 H   0  0  0  0  0  0  0  0  0  0  0  0
  147.6041  136.7883  152.2534 H   0  0  0  0  0  0  0  0  0  0  0  0
  145.2026  137.7971  151.2751 H   0  0  0  0  0  0  0  0  0  0  0  0
  143.4826  136.6164  152.6093 H   0  0  0  0  0  0  0  0  0  0  0  0
  144.3715  137.7425  153.6219 H   0  0  0  0  0  0  0  0  0  0  0  0
  144.7159  136.0169  153.7148 H   0  0  0  0  0  0  0  0  0  0  0  0
  146.3322  135.9070  150.2241 H   0  0  0  0  0  0  0  0  0  0  0  0
  147.3093  134.4543  151.8612 H   0  0  0  0  0  0  0  0  0  0  0  0
  145.8802  134.5180  152.8910 H   0  0  0  0  0  0  0  0  0  0  0  0
  146.3367  132.6818  150.6429 H   0  0  0  0  0  0  0  0  0  0  0  0
  145.0607  132.6743  151.8602 H   0  0  0  0  0  0  0  0  0  0  0  0
  145.0714  133.9681  149.1465 H   0  0  0  0  0  0  0  0  0  0  0  0
  143.6808  133.3882  150.0711 H   0  0  0  0  0  0  0  0  0  0  0  0
  147.1560  139.8996  155.8302 H   0  0  0  0  0  0  0  0  0  0  0  0
  152.1558  142.7392  156.1823 H   0  0  0  0  0  0  0  0  0  0  0  0
  150.5833  143.5088  156.2823 H   0  0  0  0  0  0  0  0  0  0  0  0
  152.4807  144.7194  157.4704 H   0  0  0  0  0  0  0  0  0  0  0  0
  150.1926  145.2858  158.1205 H   0  0  0  0  0  0  0  0  0  0  0  0
  151.2303  145.2876  159.5418 H   0  0  0  0  0  0  0  0  0  0  0  0
  150.1202  143.9489  159.2550 H   0  0  0  0  0  0  0  0  0  0  0  0
  1  2  1  0  0  0  0
  1 26  1  0  0  0  0
  1 27  1  0  0  0  0
  1 28  1  0  0  0  0
  2 25  1  0  0  0  0
  2  3  1  0  0  0  0
  2 29  1  0  0  0  0
  3  4  1  0  0  0  0
  3 30  1  0  0  0  0
  3 31  1  0  0  0  0
  4  5  1  0  0  0  0
  4 22  1  0  0  0  0
  5 21  1  0  0  0  0
  5  6  2  0  0  0  0
  6  7  1  0  0  0  0
  6 32  1  0  0  0  0
  7  8  2  0  0  0  0
  7 33  1  0  0  0  0
  8  9  1  0  0  0  0
  8 20  1  0  0  0  0
  9 10  1  0  0  0  0
  9 34  1  0  0  0  0
 10 11  2  0  0  0  0
 10 12  1  0  0  0  0
 12 13  1  0  0  0  0
 12 35  1  0  0  0  0
 13 14  1  0  0  0  0
 13 15  1  0  0  0  0
 13 36  1  0  0  0  0
 14 37  1  0  0  0  0
 14 38  1  0  0  0  0
 14 39  1  0  0  0  0
 15 19  1  0  0  0  0
 15 16  1  0  0  0  0
 15 40  1  0  0  0  0
 16 17  1  0  0  0  0
 16 41  1  0  0  0  0
 16 42  1  0  0  0  0
 17 18  1  0  0  0  0
 17 43  1  0  0  0  0
 17 44  1  0  0  0  0
 18 19  1  0  0  0  0
 18 45  1  0  0  0  0
 18 46  1  0  0  0  0
 20 21  2  0  0  0  0
 20 47  1  0  0  0  0
 22 23  1  0  0  0  0
 22 48  1  0  0  0  0
 22 49  1  0  0  0  0
 23 24  1  0  0  0  0
 23 25  1  0  0  0  0
 23 50  1  0  0  0  0
 24 51  1  0  0  0  0
 24 52  1  0  0  0  0
 24 53  1  0  0  0  0
M  END
> <s_m_source_file>
AV-unprocessed.smi

> <i_m_source_file_index>
1413

> <i_lp_mmshare_version>
43012

> <i_f3d_flags>
0

> <s_epik_input>
W0NIM11bQ0BASF0xW0NIMl1OKFtDSDJdW0NASF0oTzEpW0NIM10pYzJbY0hdW2NIXWMoW2NIXW4yKVtOSF1DKD1PKVtOSF1bQ0BIXShbQ0gzXSlbQ0BASF0zW0NIMl1bQ0gyXVtDSDJdTzM=

> <s_epik_cmdline>
J2VwaWtfcHl0aG9uJywgJy1waCcsICc3LjAnLCAnLXRuJywgJzgnLCAnLW1hJywgJzIwMCcsICctbWV0YWxfYmluZGluZycsICctaW1hZScsICc8aW5maWxlLm1hZT4nLCAnLW9tYWUnLCAnPG91dGZpbGUubWFlPic=

> <r_lp_tautomer_probability>
1

> <r_epik_Ionization_Penalty>
0.00271172

> <r_epik_Ionization_Penalty_Charging>
0

> <r_epik_Ionization_Penalty_Neutral>
0.00271172

> <r_epik_State_Penalty>
0.00186503

> <r_epik_Charging_Adjusted_Penalty>
0.00186503

> <i_epik_Tot_Q>
0

> <i_epik_Tot_abs_Q>
0

> <r_epik_Metal_State_Penalty>
-0

> <b_epik_Metal_Only>
0

> <s_lp_Force_Field>
OPLS_2005

> <r_lp_Energy>
38.8739

> <b_lp_Chiralities_Consistent>
1

> <s_lp_Variant>
AV-unprocessed.smi:1413-5

> <Gold.Version>
5.8.1

> <Gold.Id.Protein>
6NUR|6NUR_protein|mol2

> <Gold.PLP.Fitness>
46.7898

> <Gold.PLP.PLP>
-41.8972

> <Gold.PLP.part.hbond>
-2.0000

> <Gold.PLP.part.metal>
0.0000

> <Gold.PLP.part.buried>
-4.9376

> <Gold.PLP.part.nonpolar>
-35.6250

> <Gold.PLP.part.repulsive>
0.5532

> <Gold.PLP.ligand.clash>
0.0000

> <Gold.PLP.ligand.torsion>
0.2521

> <Gold.PLP.Chemscore.Hbond>
1.7579

> <Gold.PLP.Chemscore.CHOScore>
0.0000

> <Gold.PLP.Chemscore.Metal>
0.0000

> <Gold.Chemscore.Hbonds>
donor molecule, donor type, donor heavy atom, donor atom, acceptor molecule, acceptor atom, score
      L1  H     9    34       P1  7948  0.77
      L1  H    12    35       P1  7948  0.93

> <Gold.PLP.Chemscore.Internal.Correction>
0.1231

> <Gold.Rescore>
     Score         DG    S(hbond)    S(metal)    S(lipo)     H(rot)  DE(clash)    DE(int)     intcor
     18.62     -21.70       1.88        0.00     114.33       1.35       0.40       2.67       ----

> <Gold.Chemscore.Fitness>
18.6231

> <Gold.Chemscore.DG>
-21.6979

> <Gold.Chemscore.ZeroCoef>
-5.4800

> <Gold.Chemscore.Hbond>
1.8833

> <Gold.Chemscore.Metal>
0.0000

> <Gold.Chemscore.Lipo>
114.3255

> <Gold.Chemscore.Internal_Hbond>
0.0000

> <Gold.Chemscore.DEClash>
0.4025

> <Gold.Chemscore.DEInternal>
2.6723

> <Gold.Chemscore.Rot>
1.3471

> <Gold.Chemscore.Internal.Correction>
   9.000000E+99

> <Gold.Chemscore.Hbonds>
donor molecule, donor type, donor heavy atom, donor atom, acceptor molecule, acceptor atom, score
      L1  H     9    34       P1  7948  0.73
      L1  H    12    35       P1  7948  0.89

> <Gold.Chemscore.Hbond.Weighted>
-6.2903

> <Gold.Chemscore.Metal.Weighted>
-0.0000

> <Gold.Chemscore.Lipo.Weighted>
-13.3761

> <Gold.Chemscore.Internal_Hbond.Weighted>
0.0000

> <Gold.Chemscore.DEClash.Weighted>
0.4025

> <Gold.Chemscore.DEInternal.Weighted>
2.6723

> <Gold.Chemscore.Rot.Weighted>
3.4485

> <Gold.Chemscore.Internal.Correction.Weighted>
   9.000000E+99

> <Gold.Protein.RotatedTorsions>
[ 6907 6896 6895 6894 ] final  -44.88 input  -60.11 | X-H torsion
[ 7974 7965 7964 7962 ] final  109.38 input  175.53 | X-H torsion
[ 8008 7997 7996 7995 ] final  -17.72 input   59.86 | X-H torsion
[ 10167 10162 10161 10158 ] final   10.44 input  -65.29 | X-H torsion
[ 10718 10713 10712 10709 ] final  -30.87 input   66.30 | X-H torsion
[ 10763 10752 10751 10750 ] final -101.56 input  -60.55 | X-H torsion
[ 11005 11000 10999 10996 ] final -123.74 input  -57.11 | X-H torsion

> <Gold.Protein.ActiveResidues>
 VAL166  LYS551  ARG553  GLY616  TRP617  ASP618  TYR619  PRO620  LYS621  CYS622 
 ASP623  PHE694  ASN695  SER759  ASP760  ASP761  ALA762  ILE779  LEU786  VAL792 
 PHE793  MET794  SER795  GLU796  ALA797  LYS798  CYS799  TRP800  GLU811  SER814 

> <Gold.Protein.RotatedAtoms>
  150.9280  134.8696  159.7532 H   0  0  0  0  0  0  0  0  0  0  0  0  # atno 6907 bound_to 6896
  152.5024  134.4121  159.9462 H   0  0  0  0  0  0  0  0  0  0  0  0  # atno 6908 bound_to 6896
  151.4150  133.3676  159.2784 H   0  0  0  0  0  0  0  0  0  0  0  0  # atno 6909 bound_to 6896
  145.2685  139.2675  143.3979 H   0  0  0  0  0  0  0  0  0  0  0  0  # atno 7974 bound_to 7965
  154.4958  140.2135  155.9451 H   0  0  0  0  0  0  0  0  0  0  0  0  # atno 8008 bound_to 7997
  156.1368  140.3187  155.8401 H   0  0  0  0  0  0  0  0  0  0  0  0  # atno 8009 bound_to 7997
  155.4195  140.0496  157.3017 H   0  0  0  0  0  0  0  0  0  0  0  0  # atno 8010 bound_to 7997
  140.6194  143.8238  150.7156 H   0  0  0  0  0  0  0  0  0  0  0  0  # atno 10167 bound_to 10162
  156.3943  130.4378  149.7370 H   0  0  0  0  0  0  0  0  0  0  0  0  # atno 10718 bound_to 10713
  154.7667  135.4893  153.9568 H   0  0  0  0  0  0  0  0  0  0  0  0  # atno 10763 bound_to 10752
  153.1316  135.6754  153.9176 H   0  0  0  0  0  0  0  0  0  0  0  0  # atno 10764 bound_to 10752
  153.8878  135.3124  155.3425 H   0  0  0  0  0  0  0  0  0  0  0  0  # atno 10765 bound_to 10752
  140.9895  134.0559  157.3671 H   0  0  0  0  0  0  0  0  0  0  0  0  # atno 11005 bound_to 11000
  146.3254  140.3121  142.8627 LP  0  0  0  0  0  0  0  0  0  0  0  0  # atno 17320 bound_to 7965
  144.9356  140.8022  143.5662 LP  0  0  0  0  0  0  0  0  0  0  0  0  # atno 17321 bound_to 7965
  140.1825  143.4103  152.1923 LP  0  0  0  0  0  0  0  0  0  0  0  0  # atno 17342 bound_to 10162
  139.5425  144.7269  151.4687 LP  0  0  0  0  0  0  0  0  0  0  0  0  # atno 17343 bound_to 10162
  156.4411  130.7861  151.2883 LP  0  0  0  0  0  0  0  0  0  0  0  0  # atno 17370 bound_to 10713
  157.7501  131.0124  150.3385 LP  0  0  0  0  0  0  0  0  0  0  0  0  # atno 17371 bound_to 10713
  139.8986  135.0155  156.7155 LP  0  0  0  0  0  0  0  0  0  0  0  0  # atno 17394 bound_to 11000
  140.7062  133.9263  155.8055 LP  0  0  0  0  0  0  0  0  0  0  0  0  # atno 17395 bound_to 11000

$$$$
