AV-unprocessed.smi:1545|AV-procd|sdf|6216|dock1
  -GOLD-   22720 6383D 1   1.00000     0.00000
 Structure written by MMmdl.
 41 43  0  0  0  0  0  0  0  0  1 V2000
  147.9010  135.7097  154.3679 O   0  0  0  0  0  0  0  0  0  0  0  0
  147.2790  136.7195  155.1331 C   0  0  0  0  0  0  0  0  0  0  0  0
  145.9177  136.2342  155.6517 C   0  0  0  0  0  0  0  0  0  0  0  0
  145.0165  135.8788  154.5708 N   0  0  0  0  0  0  0  0  0  0  0  0
  145.0682  134.8843  153.6010 C   0  0  0  0  0  0  0  0  0  0  0  0
  146.0576  134.0001  153.4916 N   0  0  0  0  0  0  0  0  0  0  0  0
  145.6576  133.2454  152.4052 C   0  0  0  0  0  0  0  0  0  0  0  0
  146.2772  132.1409  151.7778 C   0  0  0  0  0  0  0  0  0  0  0  0
  145.6728  131.5204  150.6649 C   0  0  0  0  0  0  0  0  0  0  0  0
  144.4425  131.9936  150.1642 C   0  0  0  0  0  0  0  0  0  0  0  0
  143.8072  133.0925  150.7737 C   0  0  0  0  0  0  0  0  0  0  0  0
  144.4145  133.7097  151.8838 C   0  0  0  0  0  0  0  0  0  0  0  0
  144.0649  134.7835  152.6975 N   0  0  0  0  0  0  0  0  0  0  0  0
  142.8695  135.6093  152.5889 C   0  0  0  0  0  0  0  0  0  0  0  0
  141.9891  135.5432  153.8527 C   0  0  2  0  0  0  0  0  0  0  0  0
  141.4129  134.2569  153.9739 O   0  0  0  0  0  0  0  0  0  0  0  0
  140.9431  136.6465  153.8592 C   0  0  0  0  0  0  0  0  0  0  0  0
  139.5721  136.3168  153.7919 C   0  0  0  0  0  0  0  0  0  0  0  0
  138.5960  137.3320  153.8070 C   0  0  0  0  0  0  0  0  0  0  0  0
  138.9848  138.6825  153.8927 C   0  0  0  0  0  0  0  0  0  0  0  0
  140.3505  139.0177  153.9642 C   0  0  0  0  0  0  0  0  0  0  0  0
  140.7252  140.3158  154.0501 F   0  0  0  0  0  0  0  0  0  0  0  0
  141.3273  138.0030  153.9481 C   0  0  0  0  0  0  0  0  0  0  0  0
  148.4188  136.1194  153.6919 H   0  0  0  0  0  0  0  0  0  0  0  0
  147.9316  137.0433  155.9452 H   0  0  0  0  0  0  0  0  0  0  0  0
  147.1328  137.5784  154.4780 H   0  0  0  0  0  0  0  0  0  0  0  0
  146.0629  135.3348  156.2501 H   0  0  0  0  0  0  0  0  0  0  0  0
  145.4553  136.9739  156.3066 H   0  0  0  0  0  0  0  0  0  0  0  0
  144.1791  136.4420  154.5452 H   0  0  0  0  0  0  0  0  0  0  0  0
  147.2193  131.7708  152.1545 H   0  0  0  0  0  0  0  0  0  0  0  0
  146.1560  130.6771  150.1939 H   0  0  0  0  0  0  0  0  0  0  0  0
  143.9864  131.5122  149.3117 H   0  0  0  0  0  0  0  0  0  0  0  0
  142.8643  133.4551  150.3926 H   0  0  0  0  0  0  0  0  0  0  0  0
  143.1770  136.6380  152.3962 H   0  0  0  0  0  0  0  0  0  0  0  0
  142.3033  135.2947  151.7117 H   0  0  0  0  0  0  0  0  0  0  0  0
  142.6224  135.6774  154.7307 H   0  0  0  0  0  0  0  0  0  0  0  0
  142.1063  133.6152  153.9700 H   0  0  0  0  0  0  0  0  0  0  0  0
  139.2634  135.2835  153.7292 H   0  0  0  0  0  0  0  0  0  0  0  0
  137.5484  137.0746  153.7543 H   0  0  0  0  0  0  0  0  0  0  0  0
  138.2357  139.4603  153.9055 H   0  0  0  0  0  0  0  0  0  0  0  0
  142.3722  138.2703  154.0070 H   0  0  0  0  0  0  0  0  0  0  0  0
  1  2  1  0  0  0  0
  1 24  1  0  0  0  0
  2  3  1  0  0  0  0
  2 25  1  0  0  0  0
  2 26  1  0  0  0  0
  3  4  1  0  0  0  0
  3 27  1  0  0  0  0
  3 28  1  0  0  0  0
  4  5  1  0  0  0  0
  4 29  1  0  0  0  0
  5 13  1  0  0  0  0
  5  6  2  0  0  0  0
  6  7  1  0  0  0  0
  7 12  2  0  0  0  0
  7  8  1  0  0  0  0
  8  9  2  0  0  0  0
  8 30  1  0  0  0  0
  9 10  1  0  0  0  0
  9 31  1  0  0  0  0
 10 11  2  0  0  0  0
 10 32  1  0  0  0  0
 11 12  1  0  0  0  0
 11 33  1  0  0  0  0
 12 13  1  0  0  0  0
 13 14  1  0  0  0  0
 14 15  1  0  0  0  0
 14 34  1  0  0  0  0
 14 35  1  0  0  0  0
 15 16  1  0  0  0  0
 15 17  1  0  0  0  0
 15 36  1  0  0  0  0
 16 37  1  0  0  0  0
 17 23  1  0  0  0  0
 17 18  2  0  0  0  0
 18 19  1  0  0  0  0
 18 38  1  0  0  0  0
 19 20  2  0  0  0  0
 19 39  1  0  0  0  0
 20 21  1  0  0  0  0
 20 40  1  0  0  0  0
 21 22  1  0  0  0  0
 21 23  2  0  0  0  0
 23 41  1  0  0  0  0
M  END
> <s_m_source_file>
AV-unprocessed.smi

> <i_m_source_file_index>
1545

> <i_lp_mmshare_version>
43012

> <i_f3d_flags>
0

> <s_epik_input>
W09IXVtDSDJdW0NIMl1bTkhdYyhuMSluKGMoYzEyKVtjSF1bY0hdW2NIXVtjSF0yKVtDSDJdW0NASF0oW09IXSljM1tjSF1bY0hdW2NIXWMoRilbY0hdMw==

> <s_epik_cmdline>
J2VwaWtfcHl0aG9uJywgJy1waCcsICc3LjAnLCAnLXRuJywgJzgnLCAnLW1hJywgJzIwMCcsICctbWV0YWxfYmluZGluZycsICctaW1hZScsICc8aW5maWxlLm1hZT4nLCAnLW9tYWUnLCAnPG91dGZpbGUubWFlPic=

> <r_epik_Ionization_Penalty>
1.30972

> <r_epik_Ionization_Penalty_Charging>
0

> <r_epik_Ionization_Penalty_Neutral>
1.30972

> <r_epik_State_Penalty>
1.38438

> <r_epik_Charging_Adjusted_Penalty>
1.38438

> <i_epik_Tot_Q>
0

> <i_epik_Tot_abs_Q>
0

> <r_epik_Metal_State_Penalty>
0.00551145

> <b_epik_Metal_Only>
0

> <s_lp_Force_Field>
OPLS_2005

> <r_lp_Energy>
9.7293

> <b_lp_Chiralities_Consistent>
1

> <s_lp_Variant>
AV-unprocessed.smi:1545-3

> <Gold.Version>
5.8.1

> <Gold.Id.Protein>
6NUR|6NUR_protein|mol2

> <Gold.PLP.Fitness>
48.4423

> <Gold.PLP.PLP>
-40.2480

> <Gold.PLP.part.hbond>
-3.4317

> <Gold.PLP.part.metal>
0.0000

> <Gold.PLP.part.buried>
-6.4133

> <Gold.PLP.part.nonpolar>
-30.6710

> <Gold.PLP.part.repulsive>
0.0903

> <Gold.PLP.ligand.clash>
0.0000

> <Gold.PLP.ligand.torsion>
0.1847

> <Gold.PLP.Chemscore.Hbond>
2.8406

> <Gold.PLP.Chemscore.CHOScore>
0.0000

> <Gold.PLP.Chemscore.Metal>
0.0000

> <Gold.Chemscore.Hbonds>
donor molecule, donor type, donor heavy atom, donor atom, acceptor molecule, acceptor atom, score
      L1  H     1    24       P1  7948  0.99
      L1  H    16    37       P1 10957  0.73
      P1  H 11000 11005       L1    16  0.95

> <Gold.PLP.Chemscore.Internal.Correction>
0.0419

> <Gold.Rescore>
     Score         DG    S(hbond)    S(metal)    S(lipo)     H(rot)  DE(clash)    DE(int)     intcor
     15.78     -17.35       2.51        0.00      97.10       3.08       0.03       1.54       ----

> <Gold.Chemscore.Fitness>
15.7826

> <Gold.Chemscore.DG>
-17.3459

> <Gold.Chemscore.ZeroCoef>
-5.4800

> <Gold.Chemscore.Hbond>
2.5130

> <Gold.Chemscore.Metal>
0.0000

> <Gold.Chemscore.Lipo>
97.0960

> <Gold.Chemscore.Internal_Hbond>
0.0000

> <Gold.Chemscore.DEClash>
0.0264

> <Gold.Chemscore.DEInternal>
1.5369

> <Gold.Chemscore.Rot>
3.0812

> <Gold.Chemscore.Internal.Correction>
   9.000000E+99

> <Gold.Chemscore.Hbonds>
donor molecule, donor type, donor heavy atom, donor atom, acceptor molecule, acceptor atom, score
      L1  H     1    24       P1  7948  0.94
      L1  H    16    37       P1 10957  0.70
      P1  H 11000 11005       L1    16  0.17

> <Gold.Chemscore.Hbond.Weighted>
-8.3934

> <Gold.Chemscore.Metal.Weighted>
-0.0000

> <Gold.Chemscore.Lipo.Weighted>
-11.3602

> <Gold.Chemscore.Internal_Hbond.Weighted>
0.0000

> <Gold.Chemscore.DEClash.Weighted>
0.0264

> <Gold.Chemscore.DEInternal.Weighted>
1.5369

> <Gold.Chemscore.Rot.Weighted>
7.8878

> <Gold.Chemscore.Internal.Correction.Weighted>
   9.000000E+99

> <Gold.Protein.RotatedTorsions>
[ 6907 6896 6895 6894 ] final  -33.60 input  -60.11 | X-H torsion
[ 7974 7965 7964 7962 ] final  -18.25 input  175.53 | X-H torsion
[ 8008 7997 7996 7995 ] final   -7.13 input   59.86 | X-H torsion
[ 10167 10162 10161 10158 ] final -135.56 input  -65.29 | X-H torsion
[ 10718 10713 10712 10709 ] final   11.82 input   66.30 | X-H torsion
[ 10763 10752 10751 10750 ] final   56.20 input  -60.55 | X-H torsion
[ 11005 11000 10999 10996 ] final   -4.43 input  -57.11 | X-H torsion

> <Gold.Protein.ActiveResidues>
 VAL166  LYS551  ARG553  GLY616  TRP617  ASP618  TYR619  PRO620  LYS621  CYS622 
 ASP623  PHE694  ASN695  SER759  ASP760  ASP761  ALA762  ILE779  LEU786  VAL792 
 PHE793  MET794  SER795  GLU796  ALA797  LYS798  CYS799  TRP800  GLU811  SER814 

> <Gold.Protein.RotatedAtoms>
  151.0635  134.9752  159.8272 H   0  0  0  0  0  0  0  0  0  0  0  0  # atno 6907 bound_to 6896
  152.5399  134.2388  159.8864 H   0  0  0  0  0  0  0  0  0  0  0  0  # atno 6908 bound_to 6896
  151.2409  133.4357  159.2641 H   0  0  0  0  0  0  0  0  0  0  0  0  # atno 6909 bound_to 6896
  146.1901  140.3895  142.8461 H   0  0  0  0  0  0  0  0  0  0  0  0  # atno 7974 bound_to 7965
  154.5868  140.2415  155.7976 H   0  0  0  0  0  0  0  0  0  0  0  0  # atno 8008 bound_to 7997
  156.2219  140.2995  155.9928 H   0  0  0  0  0  0  0  0  0  0  0  0  # atno 8009 bound_to 7997
  155.2443  140.0408  157.2969 H   0  0  0  0  0  0  0  0  0  0  0  0  # atno 8010 bound_to 7997
  139.8766  143.6891  152.2633 H   0  0  0  0  0  0  0  0  0  0  0  0  # atno 10167 bound_to 10162
  157.0011  130.6080  149.5696 H   0  0  0  0  0  0  0  0  0  0  0  0  # atno 10718 bound_to 10713
  152.9828  135.5684  154.5190 H   0  0  0  0  0  0  0  0  0  0  0  0  # atno 10763 bound_to 10752
  154.4681  135.2784  155.1665 H   0  0  0  0  0  0  0  0  0  0  0  0  # atno 10764 bound_to 10752
  154.3225  135.6266  153.5567 H   0  0  0  0  0  0  0  0  0  0  0  0  # atno 10765 bound_to 10752
  140.6802  133.9160  155.8550 H   0  0  0  0  0  0  0  0  0  0  0  0  # atno 11005 bound_to 11000
  144.8471  140.6945  143.6192 LP  0  0  0  0  0  0  0  0  0  0  0  0  # atno 17320 bound_to 7965
  145.3818  139.1635  143.4276 LP  0  0  0  0  0  0  0  0  0  0  0  0  # atno 17321 bound_to 7965
  139.7234  144.7598  151.0918 LP  0  0  0  0  0  0  0  0  0  0  0  0  # atno 17342 bound_to 10162
  140.7752  143.5178  150.9573 LP  0  0  0  0  0  0  0  0  0  0  0  0  # atno 17343 bound_to 10162
  156.0171  130.5265  150.8166 LP  0  0  0  0  0  0  0  0  0  0  0  0  # atno 17370 bound_to 10713
  157.5389  131.0940  150.9854 LP  0  0  0  0  0  0  0  0  0  0  0  0  # atno 17371 bound_to 10713
  141.0324  134.0738  157.3999 LP  0  0  0  0  0  0  0  0  0  0  0  0  # atno 17394 bound_to 11000
  139.8954  135.0141  156.7001 LP  0  0  0  0  0  0  0  0  0  0  0  0  # atno 17395 bound_to 11000

$$$$
