AV-unprocessed.smi:36|AV-procd|sdf|293|dock3
  -GOLD-   2262016 83D 1   1.00000     0.00000
 Structure written by MMmdl.
 64 67  0  0  0  0  0  0  0  0  1 V2000
  146.7596  133.1519  161.6878 C   0  0  0  0  0  0  0  0  0  0  0  0
  146.3708  134.6337  161.5536 C   0  0  0  0  0  0  0  0  0  0  0  0
  145.1505  134.9360  162.4392 C   0  0  0  0  0  0  0  0  0  0  0  0
  147.5515  135.5239  161.9762 C   0  0  0  0  0  0  0  0  0  0  0  0
  145.9293  135.0111  159.7334 Si  0  0  0  0  0  0  0  0  0  0  0  0
  144.4028  134.0206  159.1835 C   0  0  0  0  0  0  0  0  0  0  0  0
  145.6061  136.8662  159.4782 C   0  0  0  0  0  0  0  0  0  0  0  0
  147.2499  134.5695  158.7689 O   0  0  0  0  0  0  0  0  0  0  0  0
  147.2570  134.6472  157.3571 C   0  0  0  0  0  0  0  0  0  0  0  0
  148.5009  133.9196  156.8071 C   0  0  2  0  0  0  0  0  0  0  0  0
  149.6533  134.6006  157.3100 O   0  0  0  0  0  0  0  0  0  0  0  0
  150.2979  135.3031  156.2874 C   0  0  2  0  0  0  0  0  0  0  0  0
  150.5578  136.7012  156.7417 N   0  0  0  0  0  0  0  0  0  0  0  0
  149.9181  137.8273  156.3702 C   0  0  0  0  0  0  0  0  0  0  0  0
  150.3706  138.9481  156.9283 N   0  0  0  0  0  0  0  0  0  0  0  0
  151.4049  138.4898  157.7380 C   0  0  0  0  0  0  0  0  0  0  0  0
  152.3243  139.2290  158.6307 C   0  0  0  0  0  0  0  0  0  0  0  0
  152.1832  140.5174  158.7107 N   0  0  0  0  0  0  0  0  0  0  0  0
  153.0146  141.2598  159.5400 C   0  0  0  0  0  0  0  0  0  0  0  0
  154.0632  140.9146  160.0921 O   0  0  0  0  0  0  0  0  0  0  0  0
  152.5710  142.6768  159.7090 C   0  0  0  0  0  0  0  0  0  0  0  0
  152.4507  143.5219  158.5851 C   0  0  0  0  0  0  0  0  0  0  0  0
  152.0337  144.8576  158.7466 C   0  0  0  0  0  0  0  0  0  0  0  0
  151.7351  145.3524  160.0308 C   0  0  0  0  0  0  0  0  0  0  0  0
  151.8558  144.5121  161.1546 C   0  0  0  0  0  0  0  0  0  0  0  0
  152.2744  143.1767  160.9948 C   0  0  0  0  0  0  0  0  0  0  0  0
  153.2123  138.3349  159.2436 N   0  0  0  0  0  0  0  0  0  0  0  0
  153.2436  136.9445  159.0541 C   0  0  0  0  0  0  0  0  0  0  0  0
  152.4378  136.2790  158.2704 N   0  0  0  0  0  0  0  0  0  0  0  0
  151.5344  137.1213  157.6378 C   0  0  0  0  0  0  0  0  0  0  0  0
  149.3609  135.3052  155.0844 C   0  0  0  0  0  0  0  0  0  0  0  0
  148.6716  133.9753  155.2798 C   0  0  2  0  0  0  0  0  0  0  0  0
  147.4668  133.8892  154.5460 O   0  0  0  0  0  0  0  0  0  0  0  0
  147.0155  132.9018  162.7179 H   0  0  0  0  0  0  0  0  0  0  0  0
  147.6227  132.9096  161.0675 H   0  0  0  0  0  0  0  0  0  0  0  0
  145.9423  132.4968  161.3846 H   0  0  0  0  0  0  0  0  0  0  0  0
  144.2963  134.3173  162.1637 H   0  0  0  0  0  0  0  0  0  0  0  0
  144.8444  135.9788  162.3490 H   0  0  0  0  0  0  0  0  0  0  0  0
  145.3668  134.7458  163.4911 H   0  0  0  0  0  0  0  0  0  0  0  0
  147.8234  135.3537  163.0185 H   0  0  0  0  0  0  0  0  0  0  0  0
  147.3088  136.5815  161.8669 H   0  0  0  0  0  0  0  0  0  0  0  0
  148.4364  135.3259  161.3708 H   0  0  0  0  0  0  0  0  0  0  0  0
  143.5253  134.2776  159.7764 H   0  0  0  0  0  0  0  0  0  0  0  0
  144.5610  132.9475  159.2864 H   0  0  0  0  0  0  0  0  0  0  0  0
  144.1559  134.2139  158.1398 H   0  0  0  0  0  0  0  0  0  0  0  0
  144.7729  137.2157  160.0873 H   0  0  0  0  0  0  0  0  0  0  0  0
  145.3634  137.0901  158.4396 H   0  0  0  0  0  0  0  0  0  0  0  0
  146.4773  137.4649  159.7428 H   0  0  0  0  0  0  0  0  0  0  0  0
  146.3408  134.1917  156.9810 H   0  0  0  0  0  0  0  0  0  0  0  0
  147.2384  135.6930  157.0504 H   0  0  0  0  0  0  0  0  0  0  0  0
  148.5025  132.8829  157.1428 H   0  0  0  0  0  0  0  0  0  0  0  0
  151.2776  134.8687  156.0843 H   0  0  0  0  0  0  0  0  0  0  0  0
  149.0974  137.8289  155.6682 H   0  0  0  0  0  0  0  0  0  0  0  0
  152.6782  143.1496  157.5966 H   0  0  0  0  0  0  0  0  0  0  0  0
  151.9431  145.5026  157.8852 H   0  0  0  0  0  0  0  0  0  0  0  0
  151.4150  146.3764  160.1537 H   0  0  0  0  0  0  0  0  0  0  0  0
  151.6267  144.8918  162.1394 H   0  0  0  0  0  0  0  0  0  0  0  0
  152.3650  142.5386  161.8622 H   0  0  0  0  0  0  0  0  0  0  0  0
  154.0183  136.4361  159.6296 H   0  0  0  0  0  0  0  0  0  0  0  0
  148.6541  136.1334  155.1631 H   0  0  0  0  0  0  0  0  0  0  0  0
  149.9148  135.3889  154.1489 H   0  0  0  0  0  0  0  0  0  0  0  0
  149.3381  133.1733  154.9586 H   0  0  0  0  0  0  0  0  0  0  0  0
  147.6254  133.3780  153.7671 H   0  0  0  0  0  0  0  0  0  0  0  0
  153.8918  138.7283  159.8787 H   0  0  0  0  0  0  0  0  0  0  0  0
  1  2  1  0  0  0  0
  1 34  1  0  0  0  0
  1 35  1  0  0  0  0
  1 36  1  0  0  0  0
  2  3  1  0  0  0  0
  2  4  1  0  0  0  0
  2  5  1  0  0  0  0
  3 37  1  0  0  0  0
  3 38  1  0  0  0  0
  3 39  1  0  0  0  0
  4 40  1  0  0  0  0
  4 41  1  0  0  0  0
  4 42  1  0  0  0  0
  5  6  1  0  0  0  0
  5  7  1  0  0  0  0
  5  8  1  0  0  0  0
  6 43  1  0  0  0  0
  6 44  1  0  0  0  0
  6 45  1  0  0  0  0
  7 46  1  0  0  0  0
  7 47  1  0  0  0  0
  7 48  1  0  0  0  0
  8  9  1  0  0  0  0
  9 10  1  0  0  0  0
  9 49  1  0  0  0  0
  9 50  1  0  0  0  0
 10 32  1  0  0  0  0
 10 11  1  0  0  0  0
 10 51  1  0  0  0  0
 11 12  1  0  0  0  0
 12 13  1  0  0  0  0
 12 31  1  0  0  0  0
 12 52  1  0  0  0  0
 13 30  1  0  0  0  0
 13 14  1  0  0  0  0
 14 15  2  0  0  0  0
 14 53  1  0  0  0  0
 15 16  1  0  0  0  0
 16 30  2  0  0  0  0
 16 17  1  0  0  0  0
 17 18  2  0  0  0  0
 17 27  1  0  0  0  0
 18 19  1  0  0  0  0
 19 20  2  0  0  0  0
 19 21  1  0  0  0  0
 21 26  1  0  0  0  0
 21 22  2  0  0  0  0
 22 23  1  0  0  0  0
 22 54  1  0  0  0  0
 23 24  2  0  0  0  0
 23 55  1  0  0  0  0
 24 25  1  0  0  0  0
 24 56  1  0  0  0  0
 25 26  2  0  0  0  0
 25 57  1  0  0  0  0
 26 58  1  0  0  0  0
 27 28  1  0  0  0  0
 27 64  1  0  0  0  0
 28 29  2  0  0  0  0
 28 59  1  0  0  0  0
 29 30  1  0  0  0  0
 31 32  1  0  0  0  0
 31 60  1  0  0  0  0
 31 61  1  0  0  0  0
 32 33  1  0  0  0  0
 32 62  1  0  0  0  0
 33 63  1  0  0  0  0
M  END
> <s_m_source_file>
AV-unprocessed.smi

> <i_m_source_file_index>
36

> <i_lp_mmshare_version>
43012

> <i_f3d_flags>
0

> <s_epik_input>
W0NIM11DKFtDSDNdKShbQ0gzXSlbU2ldKFtDSDNdKShbQ0gzXSlPW0NIMl1bQ0BASF0xT1tDQEhdKFtDSDJdW0NASF0xW09IXSluKFtjSF1uMiljKGMyMyluW2NIXW5jM1tOSF1DKD1PKWM0W2NIXVtjSF1bY0hdW2NIXVtjSF00

> <s_epik_cmdline>
J2VwaWtfcHl0aG9uJywgJy1waCcsICc3LjAnLCAnLXRuJywgJzgnLCAnLW1hJywgJzIwMCcsICctbWV0YWxfYmluZGluZycsICctaW1hZScsICc8aW5maWxlLm1hZT4nLCAnLW9tYWUnLCAnPG91dGZpbGUubWFlPic=

> <r_epik_Ionization_Penalty>
0.0850405

> <r_epik_Ionization_Penalty_Charging>
0.0850403

> <r_epik_Ionization_Penalty_Neutral>
1.47497e-07

> <r_epik_State_Penalty>
2.6133

> <r_epik_Charging_Adjusted_Penalty>
2.69834

> <i_epik_Tot_Q>
0

> <i_epik_Tot_abs_Q>
0

> <r_epik_Metal_State_Penalty>
2.92945

> <b_epik_Metal_Only>
0

> <s_epik_Chemistry_Notes>
This compound contains an acetal/aminal-like group ( X-CH(R)-Y where X, Y are N, S, or O) that may be acid/base labile, releasing an aldehyde.

> <s_lp_Force_Field>
OPLS_2005

> <r_lp_Energy>
48.5801

> <b_lp_Chiralities_Consistent>
1

> <s_lp_Variant>
AV-unprocessed.smi:36-15

> <Gold.Version>
5.8.1

> <Gold.Id.Protein>
6NUR|6NUR_protein|mol2

> <Gold.PLP.Fitness>
56.5330

> <Gold.PLP.PLP>
-54.3921

> <Gold.PLP.part.hbond>
-2.0000

> <Gold.PLP.part.metal>
0.0000

> <Gold.PLP.part.buried>
-7.0464

> <Gold.PLP.part.nonpolar>
-46.4747

> <Gold.PLP.part.repulsive>
0.0653

> <Gold.PLP.ligand.clash>
0.0000

> <Gold.PLP.ligand.torsion>
1.5665

> <Gold.PLP.Chemscore.Hbond>
1.6160

> <Gold.PLP.Chemscore.CHOScore>
0.0000

> <Gold.PLP.Chemscore.Metal>
0.0000

> <Gold.Chemscore.Hbonds>
donor molecule, donor type, donor heavy atom, donor atom, acceptor molecule, acceptor atom, score
      P1  H  6896  6908       L1    11  0.25
      P1  H  6896  6909       L1    29  0.08

> <Gold.PLP.Chemscore.Internal.Correction>
0.4259

> <Gold.Rescore>
     Score         DG    S(hbond)    S(metal)    S(lipo)     H(rot)  DE(clash)    DE(int)     intcor
     16.97     -18.14       1.51        0.00     124.34       2.70       0.04       1.14       ----

> <Gold.Chemscore.Fitness>
16.9682

> <Gold.Chemscore.DG>
-18.1395

> <Gold.Chemscore.ZeroCoef>
-5.4800

> <Gold.Chemscore.Hbond>
1.5072

> <Gold.Chemscore.Metal>
0.0000

> <Gold.Chemscore.Lipo>
124.3399

> <Gold.Chemscore.Internal_Hbond>
0.0000

> <Gold.Chemscore.DEClash>
0.0358

> <Gold.Chemscore.DEInternal>
1.1355

> <Gold.Chemscore.Rot>
2.7041

> <Gold.Chemscore.Internal.Correction>
   9.000000E+99

> <Gold.Chemscore.Hbonds>
donor molecule, donor type, donor heavy atom, donor atom, acceptor molecule, acceptor atom, score
      P1  H  6896  6908       L1    11  0.25

> <Gold.Chemscore.Hbond.Weighted>
-5.0342

> <Gold.Chemscore.Metal.Weighted>
-0.0000

> <Gold.Chemscore.Lipo.Weighted>
-14.5478

> <Gold.Chemscore.Internal_Hbond.Weighted>
0.0000

> <Gold.Chemscore.DEClash.Weighted>
0.0358

> <Gold.Chemscore.DEInternal.Weighted>
1.1355

> <Gold.Chemscore.Rot.Weighted>
6.9225

> <Gold.Chemscore.Internal.Correction.Weighted>
   9.000000E+99

> <Gold.Protein.RotatedTorsions>
[ 6907 6896 6895 6894 ] final  145.16 input  -60.11 | X-H torsion
[ 7974 7965 7964 7962 ] final  119.80 input  175.53 | X-H torsion
[ 8008 7997 7996 7995 ] final  -79.61 input   59.86 | X-H torsion
[ 10167 10162 10161 10158 ] final -168.79 input  -65.29 | X-H torsion
[ 10718 10713 10712 10709 ] final    1.83 input   66.30 | X-H torsion
[ 10763 10752 10751 10750 ] final   57.30 input  -60.55 | X-H torsion
[ 11005 11000 10999 10996 ] final -134.06 input  -57.11 | X-H torsion

> <Gold.Protein.ActiveResidues>
 VAL166  LYS551  ARG553  GLY616  TRP617  ASP618  TYR619  PRO620  LYS621  CYS622 
 ASP623  PHE694  ASN695  SER759  ASP760  ASP761  ALA762  ILE779  LEU786  VAL792 
 PHE793  MET794  SER795  GLU796  ALA797  LYS798  CYS799  TRP800  GLU811  SER814 

> <Gold.Protein.RotatedAtoms>
  152.1845  133.4730  159.4974 H   0  0  0  0  0  0  0  0  0  0  0  0  # atno 6907 bound_to 6896
  150.6940  134.1792  159.4251 H   0  0  0  0  0  0  0  0  0  0  0  0  # atno 6908 bound_to 6896
  151.9704  135.0079  160.0603 H   0  0  0  0  0  0  0  0  0  0  0  0  # atno 6909 bound_to 6896
  145.1387  139.3281  143.4627 H   0  0  0  0  0  0  0  0  0  0  0  0  # atno 7974 bound_to 7965
  154.5802  140.0676  156.9092 H   0  0  0  0  0  0  0  0  0  0  0  0  # atno 8008 bound_to 7997
  155.2477  140.3349  155.4267 H   0  0  0  0  0  0  0  0  0  0  0  0  # atno 8009 bound_to 7997
  156.2183  140.1788  156.7521 H   0  0  0  0  0  0  0  0  0  0  0  0  # atno 8010 bound_to 7997
  139.5963  144.1106  152.1692 H   0  0  0  0  0  0  0  0  0  0  0  0  # atno 10167 bound_to 10162
  156.8541  130.5564  149.5667 H   0  0  0  0  0  0  0  0  0  0  0  0  # atno 10718 bound_to 10713
  152.9847  135.5646  154.5369 H   0  0  0  0  0  0  0  0  0  0  0  0  # atno 10763 bound_to 10752
  154.4830  135.2789  155.1558 H   0  0  0  0  0  0  0  0  0  0  0  0  # atno 10764 bound_to 10752
  154.3058  135.6298  153.5497 H   0  0  0  0  0  0  0  0  0  0  0  0  # atno 10765 bound_to 10752
  140.9024  134.1673  157.4450 H   0  0  0  0  0  0  0  0  0  0  0  0  # atno 11005 bound_to 11000
  146.3507  140.1416  142.8594 LP  0  0  0  0  0  0  0  0  0  0  0  0  # atno 17320 bound_to 7965
  145.0555  140.9050  143.4969 LP  0  0  0  0  0  0  0  0  0  0  0  0  # atno 17321 bound_to 7965
  140.0691  144.5794  150.7205 LP  0  0  0  0  0  0  0  0  0  0  0  0  # atno 17342 bound_to 10162
  140.7214  143.2593  151.4265 LP  0  0  0  0  0  0  0  0  0  0  0  0  # atno 17343 bound_to 10162
  156.0812  130.5822  150.9567 LP  0  0  0  0  0  0  0  0  0  0  0  0  # atno 17370 bound_to 10713
  157.6287  131.0923  150.8483 LP  0  0  0  0  0  0  0  0  0  0  0  0  # atno 17371 bound_to 10713
  139.8744  134.9903  156.5498 LP  0  0  0  0  0  0  0  0  0  0  0  0  # atno 17394 bound_to 11000
  140.8213  133.8351  155.8898 LP  0  0  0  0  0  0  0  0  0  0  0  0  # atno 17395 bound_to 11000

$$$$
