AV-unprocessed.smi:247|AV-procd|sdf|1889|dock5
  -GOLD-   2262020553D 1   1.00000     0.00000
 Structure written by MMmdl.
 61 65  0  0  0  0  0  0  0  0  1 V2000
  149.9793  140.7200  153.5672 O   0  0  0  0  0  0  0  0  0  0  0  0
  149.7341  139.5576  154.3343 C   0  0  0  0  0  0  0  0  0  0  0  0
  150.1534  139.6997  155.8244 C   0  0  0  0  0  0  0  0  0  0  0  0
  149.4101  138.6083  156.6582 C   0  0  0  0  0  0  0  0  0  0  0  0
  149.2344  137.3288  155.9855 N   0  0  0  0  0  0  0  0  0  0  0  0
  150.2228  136.5379  155.4433 C   0  0  0  0  0  0  0  0  0  0  0  0
  149.8105  135.4290  154.8927 N   0  0  0  0  0  0  0  0  0  0  0  0
  148.4352  135.4435  155.0894 C   0  0  0  0  0  0  0  0  0  0  0  0
  147.3759  134.5600  154.7413 C   0  0  0  0  0  0  0  0  0  0  0  0
  147.5913  133.3982  154.0751 N   0  0  0  0  0  0  0  0  0  0  0  0
  148.8885  132.7845  154.3077 C   0  0  0  0  0  0  0  0  0  0  0  0
  148.7794  131.3924  153.6976 C   0  0  0  0  0  0  0  0  0  0  0  0
  147.3214  131.0166  153.9532 C   0  0  0  0  0  0  0  0  0  0  0  0
  146.5604  132.3569  153.9862 C   0  0  2  0  0  0  0  0  0  0  0  0
  145.5990  132.5534  152.7784 C   0  0  2  0  0  0  0  0  0  0  0  0
  146.2990  132.3524  151.4121 C   0  0  0  0  0  0  0  0  0  0  0  0
  145.3655  132.4675  150.3439 O   0  0  0  0  0  0  0  0  0  0  0  0
  144.7662  133.7547  150.2649 C   0  0  0  0  0  0  0  0  0  0  0  0
  143.9564  134.0209  151.5408 C   0  0  0  0  0  0  0  0  0  0  0  0
  144.8575  133.9097  152.7778 C   0  0  1  0  0  0  0  0  0  0  0  0
  144.0506  134.0433  153.9310 O   0  0  0  0  0  0  0  0  0  0  0  0
  146.1167  134.9194  155.1056 N   0  0  0  0  0  0  0  0  0  0  0  0
  145.9038  136.0624  155.7632 C   0  0  0  0  0  0  0  0  0  0  0  0
  146.7919  136.9800  156.1488 N   0  0  0  0  0  0  0  0  0  0  0  0
  148.0576  136.6279  155.7824 C   0  0  0  0  0  0  0  0  0  0  0  0
  151.6943  139.5770  155.9499 C   0  0  0  0  0  0  0  0  0  0  0  0
  152.1981  139.9388  157.3586 C   0  0  0  0  0  0  0  0  0  0  0  0
  151.7826  141.2566  157.6966 O   0  0  0  0  0  0  0  0  0  0  0  0
  150.3682  141.4010  157.7432 C   0  0  0  0  0  0  0  0  0  0  0  0
  149.7565  141.0992  156.3615 C   0  0  0  0  0  0  0  0  0  0  0  0
  149.7676  140.5345  152.6650 H   0  0  0  0  0  0  0  0  0  0  0  0
  148.6717  139.3237  154.2600 H   0  0  0  0  0  0  0  0  0  0  0  0
  150.2727  138.7394  153.8562 H   0  0  0  0  0  0  0  0  0  0  0  0
  149.9202  138.4082  157.5989 H   0  0  0  0  0  0  0  0  0  0  0  0
  148.4218  138.9732  156.9408 H   0  0  0  0  0  0  0  0  0  0  0  0
  151.2668  136.8150  155.4607 H   0  0  0  0  0  0  0  0  0  0  0  0
  149.6984  133.3523  153.8496 H   0  0  0  0  0  0  0  0  0  0  0  0
  149.0778  132.7205  155.3805 H   0  0  0  0  0  0  0  0  0  0  0  0
  148.9676  131.4439  152.6247 H   0  0  0  0  0  0  0  0  0  0  0  0
  149.4860  130.6836  154.1297 H   0  0  0  0  0  0  0  0  0  0  0  0
  146.9367  130.3113  153.2159 H   0  0  0  0  0  0  0  0  0  0  0  0
  147.2418  130.5354  154.9287 H   0  0  0  0  0  0  0  0  0  0  0  0
  145.9598  132.3390  154.8954 H   0  0  0  0  0  0  0  0  0  0  0  0
  144.8335  131.7793  152.8574 H   0  0  0  0  0  0  0  0  0  0  0  0
  147.1064  133.0728  151.2693 H   0  0  0  0  0  0  0  0  0  0  0  0
  146.7480  131.3615  151.3530 H   0  0  0  0  0  0  0  0  0  0  0  0
  145.5311  134.5194  150.1197 H   0  0  0  0  0  0  0  0  0  0  0  0
  144.1135  133.7866  149.3924 H   0  0  0  0  0  0  0  0  0  0  0  0
  143.4973  135.0091  151.4937 H   0  0  0  0  0  0  0  0  0  0  0  0
  143.1410  133.2988  151.6055 H   0  0  0  0  0  0  0  0  0  0  0  0
  145.5737  134.7312  152.7593 H   0  0  0  0  0  0  0  0  0  0  0  0
  143.5275  133.2611  154.0212 H   0  0  0  0  0  0  0  0  0  0  0  0
  144.8745  136.2730  156.0138 H   0  0  0  0  0  0  0  0  0  0  0  0
  152.0358  138.5816  155.6685 H   0  0  0  0  0  0  0  0  0  0  0  0
  152.1772  140.2571  155.2477 H   0  0  0  0  0  0  0  0  0  0  0  0
  151.8488  139.2277  158.1076 H   0  0  0  0  0  0  0  0  0  0  0  0
  153.2872  139.9034  157.3818 H   0  0  0  0  0  0  0  0  0  0  0  0
  149.9498  140.7615  158.5206 H   0  0  0  0  0  0  0  0  0  0  0  0
  150.1361  142.4262  158.0321 H   0  0  0  0  0  0  0  0  0  0  0  0
  150.1006  141.8769  155.6793 H   0  0  0  0  0  0  0  0  0  0  0  0
  148.6714  141.1984  156.4043 H   0  0  0  0  0  0  0  0  0  0  0  0
  1  2  1  0  0  0  0
  1 31  1  0  0  0  0
  2  3  1  0  0  0  0
  2 32  1  0  0  0  0
  2 33  1  0  0  0  0
  3 30  1  0  0  0  0
  3  4  1  0  0  0  0
  3 26  1  0  0  0  0
  4  5  1  0  0  0  0
  4 34  1  0  0  0  0
  4 35  1  0  0  0  0
  5 25  1  0  0  0  0
  5  6  1  0  0  0  0
  6  7  2  0  0  0  0
  6 36  1  0  0  0  0
  7  8  1  0  0  0  0
  8 25  2  0  0  0  0
  8  9  1  0  0  0  0
  9 10  1  0  0  0  0
  9 22  2  0  0  0  0
 10 14  1  0  0  0  0
 10 11  1  0  0  0  0
 11 12  1  0  0  0  0
 11 37  1  0  0  0  0
 11 38  1  0  0  0  0
 12 13  1  0  0  0  0
 12 39  1  0  0  0  0
 12 40  1  0  0  0  0
 13 14  1  0  0  0  0
 13 41  1  0  0  0  0
 13 42  1  0  0  0  0
 14 15  1  0  0  0  0
 14 43  1  0  0  0  0
 15 20  1  0  0  0  0
 15 16  1  0  0  0  0
 15 44  1  0  0  0  0
 16 17  1  0  0  0  0
 16 45  1  0  0  0  0
 16 46  1  0  0  0  0
 17 18  1  0  0  0  0
 18 19  1  0  0  0  0
 18 47  1  0  0  0  0
 18 48  1  0  0  0  0
 19 20  1  0  0  0  0
 19 49  1  0  0  0  0
 19 50  1  0  0  0  0
 20 21  1  0  0  0  0
 20 51  1  0  0  0  0
 21 52  1  0  0  0  0
 22 23  1  0  0  0  0
 23 24  2  0  0  0  0
 23 53  1  0  0  0  0
 24 25  1  0  0  0  0
 26 27  1  0  0  0  0
 26 54  1  0  0  0  0
 26 55  1  0  0  0  0
 27 28  1  0  0  0  0
 27 56  1  0  0  0  0
 27 57  1  0  0  0  0
 28 29  1  0  0  0  0
 29 30  1  0  0  0  0
 29 58  1  0  0  0  0
 29 59  1  0  0  0  0
 30 60  1  0  0  0  0
 30 61  1  0  0  0  0
M  END
> <s_m_source_file>
AV-unprocessed.smi

> <i_m_source_file_index>
247

> <i_lp_mmshare_version>
43012

> <i_f3d_flags>
0

> <s_epik_input>
W0NIMl0xW0NIMl1PW0NIMl1bQ0gyXUMxKFtDSDJdW09IXSlbQ0gyXW4oW2NIXW4yKWMoYzIzKW5bY0hdbmMzTjRbQ0gyXVtDSDJdW0NIMl1bQ0BIXTRbQ0BASF01W0NIMl1PW0NIMl1bQ0gyXVtDQEhdNVtPSF0=

> <s_epik_cmdline>
J2VwaWtfcHl0aG9uJywgJy1waCcsICc3LjAnLCAnLXRuJywgJzgnLCAnLW1hJywgJzIwMCcsICctbWV0YWxfYmluZGluZycsICctaW1hZScsICc8aW5maWxlLm1hZT4nLCAnLW9tYWUnLCAnPG91dGZpbGUubWFlPic=

> <r_lp_tautomer_probability>
1

> <r_epik_Ionization_Penalty>
0.00362597

> <r_epik_Ionization_Penalty_Charging>
0

> <r_epik_Ionization_Penalty_Neutral>
0.00362597

> <r_epik_State_Penalty>
0.00241433

> <r_epik_Charging_Adjusted_Penalty>
0.00241433

> <i_epik_Tot_Q>
0

> <i_epik_Tot_abs_Q>
0

> <r_epik_Metal_State_Penalty>
-0

> <b_epik_Metal_Only>
0

> <s_lp_Force_Field>
OPLS_2005

> <r_lp_Energy>
60.2507

> <b_lp_Chiralities_Consistent>
1

> <s_lp_Variant>
AV-unprocessed.smi:247-2

> <Gold.Version>
5.8.1

> <Gold.Id.Protein>
6NUR|6NUR_protein|mol2

> <Gold.PLP.Fitness>
40.1815

> <Gold.PLP.PLP>
-35.2130

> <Gold.PLP.part.hbond>
-3.6841

> <Gold.PLP.part.metal>
0.0000

> <Gold.PLP.part.buried>
-3.0261

> <Gold.PLP.part.nonpolar>
-27.1397

> <Gold.PLP.part.repulsive>
0.7737

> <Gold.PLP.ligand.clash>
0.0000

> <Gold.PLP.ligand.torsion>
1.2258

> <Gold.PLP.Chemscore.Hbond>
2.3680

> <Gold.PLP.Chemscore.CHOScore>
0.0000

> <Gold.PLP.Chemscore.Metal>
0.0000

> <Gold.Chemscore.Hbonds>
donor molecule, donor type, donor heavy atom, donor atom, acceptor molecule, acceptor atom, score
      L1  H     1    31       P1  7957  1.00
      L1  H    21    52       P1 10957  1.00
      P1  H  7989  7998       L1     1  0.43

> <Gold.PLP.Chemscore.Internal.Correction>
0.3160

> <Gold.Rescore>
     Score         DG    S(hbond)    S(metal)    S(lipo)     H(rot)  DE(clash)    DE(int)     intcor
      8.38     -13.93       1.98        0.00      86.22       3.23       0.02       5.53       ----

> <Gold.Chemscore.Fitness>
8.3763

> <Gold.Chemscore.DG>
-13.9332

> <Gold.Chemscore.ZeroCoef>
-5.4800

> <Gold.Chemscore.Hbond>
1.9846

> <Gold.Chemscore.Metal>
0.0000

> <Gold.Chemscore.Lipo>
86.2205

> <Gold.Chemscore.Internal_Hbond>
0.0000

> <Gold.Chemscore.DEClash>
0.0223

> <Gold.Chemscore.DEInternal>
5.5346

> <Gold.Chemscore.Rot>
3.2278

> <Gold.Chemscore.Internal.Correction>
   9.000000E+99

> <Gold.Chemscore.Hbonds>
donor molecule, donor type, donor heavy atom, donor atom, acceptor molecule, acceptor atom, score
      L1  H     1    31       P1  7957  0.98
      L1  H    21    52       P1 10957  1.00
      P1  H  7989  7998       L1     1  0.06

> <Gold.Chemscore.Hbond.Weighted>
-6.6287

> <Gold.Chemscore.Metal.Weighted>
-0.0000

> <Gold.Chemscore.Lipo.Weighted>
-10.0878

> <Gold.Chemscore.Internal_Hbond.Weighted>
0.0000

> <Gold.Chemscore.DEClash.Weighted>
0.0223

> <Gold.Chemscore.DEInternal.Weighted>
5.5346

> <Gold.Chemscore.Rot.Weighted>
8.2633

> <Gold.Chemscore.Internal.Correction.Weighted>
   9.000000E+99

> <Gold.Protein.RotatedTorsions>
[ 6907 6896 6895 6894 ] final  160.18 input  -60.11 | X-H torsion
[ 7974 7965 7964 7962 ] final   63.54 input  175.53 | X-H torsion
[ 8008 7997 7996 7995 ] final  175.00 input   59.86 | X-H torsion
[ 10167 10162 10161 10158 ] final    2.63 input  -65.29 | X-H torsion
[ 10718 10713 10712 10709 ] final  114.58 input   66.30 | X-H torsion
[ 10763 10752 10751 10750 ] final   -7.81 input  -60.55 | X-H torsion
[ 11005 11000 10999 10996 ] final -104.46 input  -57.11 | X-H torsion

> <Gold.Protein.ActiveResidues>
 VAL166  LYS551  ARG553  GLY616  TRP617  ASP618  TYR619  PRO620  LYS621  CYS622 
 ASP623  PHE694  ASN695  SER759  ASP760  ASP761  ALA762  ILE779  LEU786  VAL792 
 PHE793  MET794  SER795  GLU796  ALA797  LYS798  CYS799  TRP800  GLU811  SER814 

> <Gold.Protein.RotatedAtoms>
  151.9745  133.3737  159.4083 H   0  0  0  0  0  0  0  0  0  0  0  0  # atno 6907 bound_to 6896
  150.6944  134.4104  159.5168 H   0  0  0  0  0  0  0  0  0  0  0  0  # atno 6908 bound_to 6896
  152.1813  134.8751  160.0577 H   0  0  0  0  0  0  0  0  0  0  0  0  # atno 6909 bound_to 6896
  145.8606  139.3312  143.0821 H   0  0  0  0  0  0  0  0  0  0  0  0  # atno 7974 bound_to 7965
  156.0916  140.1420  156.9585 H   0  0  0  0  0  0  0  0  0  0  0  0  # atno 8008 bound_to 7997
  154.4645  140.0931  156.7030 H   0  0  0  0  0  0  0  0  0  0  0  0  # atno 8009 bound_to 7997
  155.4911  140.3448  155.4357 H   0  0  0  0  0  0  0  0  0  0  0  0  # atno 8010 bound_to 7997
  140.6626  143.7265  150.7766 H   0  0  0  0  0  0  0  0  0  0  0  0  # atno 10167 bound_to 10162
  157.6273  131.1000  150.7207 H   0  0  0  0  0  0  0  0  0  0  0  0  # atno 10718 bound_to 10713
  153.4316  135.7012  153.6227 H   0  0  0  0  0  0  0  0  0  0  0  0  # atno 10763 bound_to 10752
  153.4639  135.3730  155.2354 H   0  0  0  0  0  0  0  0  0  0  0  0  # atno 10764 bound_to 10752
  154.8725  135.4026  154.3700 H   0  0  0  0  0  0  0  0  0  0  0  0  # atno 10765 bound_to 10752
  141.1099  133.8725  157.1614 H   0  0  0  0  0  0  0  0  0  0  0  0  # atno 11005 bound_to 11000
  145.9252  140.9087  143.0384 LP  0  0  0  0  0  0  0  0  0  0  0  0  # atno 17320 bound_to 7965
  144.6726  140.1343  143.7441 LP  0  0  0  0  0  0  0  0  0  0  0  0  # atno 17321 bound_to 7965
  140.0936  143.4854  152.2465 LP  0  0  0  0  0  0  0  0  0  0  0  0  # atno 17342 bound_to 10162
  139.5864  144.7532  151.3510 LP  0  0  0  0  0  0  0  0  0  0  0  0  # atno 17343 bound_to 10162
  156.7553  130.4781  149.5448 LP  0  0  0  0  0  0  0  0  0  0  0  0  # atno 17370 bound_to 10713
  156.1452  130.6272  151.0522 LP  0  0  0  0  0  0  0  0  0  0  0  0  # atno 17371 bound_to 10713
  139.9988  135.0036  157.0143 LP  0  0  0  0  0  0  0  0  0  0  0  0  # atno 17394 bound_to 11000
  140.4802  134.1297  155.7216 LP  0  0  0  0  0  0  0  0  0  0  0  0  # atno 17395 bound_to 11000

$$$$
