AV-unprocessed.smi:1918|AV-procd|sdf|7770|dock1
  -GOLD-   22720 9513D 1   1.00000     0.00000
 Structure written by MMmdl.
 35 37  0  0  0  0  0  0  0  0  1 V2000
  152.9392  139.6850  157.6347 C   0  0  0  0  0  0  0  0  0  0  0  0
  152.5260  141.0308  158.1405 C   0  0  0  0  0  0  0  0  0  0  0  0
  153.0847  141.5890  159.2143 N   0  0  0  0  0  0  0  0  0  0  0  0
  152.4184  142.7955  159.3092 C   0  0  0  0  0  0  0  0  0  0  0  0
  152.5531  143.8473  160.2436 C   0  0  0  0  0  0  0  0  0  0  0  0
  151.7505  145.0022  160.1387 C   0  0  0  0  0  0  0  0  0  0  0  0
  150.8034  145.1217  159.1010 C   0  0  0  0  0  0  0  0  0  0  0  0
  150.6531  144.0853  158.1595 C   0  0  0  0  0  0  0  0  0  0  0  0
  151.4570  142.9347  158.2679 C   0  0  0  0  0  0  0  0  0  0  0  0
  151.5601  141.7596  157.5290 N   0  0  0  0  0  0  0  0  0  0  0  0
  150.7853  141.4042  156.3476 C   0  0  0  0  0  0  0  0  0  0  0  0
  149.4706  140.6755  156.6912 C   0  0  1  0  0  0  0  0  0  0  0  0
  148.5338  141.5936  157.2230 O   0  0  0  0  0  0  0  0  0  0  0  0
  148.9291  139.9203  155.4842 C   0  0  0  0  0  0  0  0  0  0  0  0
  148.3369  140.6160  154.4056 C   0  0  0  0  0  0  0  0  0  0  0  0
  147.8411  139.9128  153.2908 C   0  0  0  0  0  0  0  0  0  0  0  0
  147.9384  138.5094  153.2432 C   0  0  0  0  0  0  0  0  0  0  0  0
  147.4607  137.8330  152.1720 F   0  0  0  0  0  0  0  0  0  0  0  0
  148.5362  137.8102  154.3087 C   0  0  0  0  0  0  0  0  0  0  0  0
  149.0327  138.5117  155.4248 C   0  0  0  0  0  0  0  0  0  0  0  0
  149.6133  137.8237  156.4375 F   0  0  0  0  0  0  0  0  0  0  0  0
  153.6760  139.2361  158.3016 H   0  0  0  0  0  0  0  0  0  0  0  0
  153.3840  139.7757  156.6437 H   0  0  0  0  0  0  0  0  0  0  0  0
  152.0796  139.0180  157.5765 H   0  0  0  0  0  0  0  0  0  0  0  0
  153.2749  143.7648  161.0426 H   0  0  0  0  0  0  0  0  0  0  0  0
  151.8613  145.7997  160.8586 H   0  0  0  0  0  0  0  0  0  0  0  0
  150.1917  146.0090  159.0285 H   0  0  0  0  0  0  0  0  0  0  0  0
  149.9261  144.1717  157.3658 H   0  0  0  0  0  0  0  0  0  0  0  0
  150.5782  142.3126  155.7806 H   0  0  0  0  0  0  0  0  0  0  0  0
  151.4042  140.7812  155.7011 H   0  0  0  0  0  0  0  0  0  0  0  0
  149.6619  139.9535  157.4850 H   0  0  0  0  0  0  0  0  0  0  0  0
  148.5286  142.3657  156.6782 H   0  0  0  0  0  0  0  0  0  0  0  0
  148.2611  141.6934  154.4259 H   0  0  0  0  0  0  0  0  0  0  0  0
  147.3870  140.4508  152.4718 H   0  0  0  0  0  0  0  0  0  0  0  0
  148.6158  136.7337  154.2697 H   0  0  0  0  0  0  0  0  0  0  0  0
  1  2  1  0  0  0  0
  1 22  1  0  0  0  0
  1 23  1  0  0  0  0
  1 24  1  0  0  0  0
  2 10  1  0  0  0  0
  2  3  2  0  0  0  0
  3  4  1  0  0  0  0
  4  9  2  0  0  0  0
  4  5  1  0  0  0  0
  5  6  2  0  0  0  0
  5 25  1  0  0  0  0
  6  7  1  0  0  0  0
  6 26  1  0  0  0  0
  7  8  2  0  0  0  0
  7 27  1  0  0  0  0
  8  9  1  0  0  0  0
  8 28  1  0  0  0  0
  9 10  1  0  0  0  0
 10 11  1  0  0  0  0
 11 12  1  0  0  0  0
 11 29  1  0  0  0  0
 11 30  1  0  0  0  0
 12 13  1  0  0  0  0
 12 14  1  0  0  0  0
 12 31  1  0  0  0  0
 13 32  1  0  0  0  0
 14 20  1  0  0  0  0
 14 15  2  0  0  0  0
 15 16  1  0  0  0  0
 15 33  1  0  0  0  0
 16 17  2  0  0  0  0
 16 34  1  0  0  0  0
 17 18  1  0  0  0  0
 17 19  1  0  0  0  0
 19 20  2  0  0  0  0
 19 35  1  0  0  0  0
 20 21  1  0  0  0  0
M  END
> <s_m_source_file>
AV-unprocessed.smi

> <i_m_source_file_index>
1918

> <i_lp_mmshare_version>
43012

> <i_f3d_flags>
0

> <s_epik_input>
W2NIXTFbY0hdW2NIXVtjSF1jKGMxMiluKGMobjIpW0NIM10pW0NIMl1bQ0BIXShbT0hdKWMzW2NIXVtjSF1jKEYpW2NIXWMzRg==

> <s_epik_cmdline>
J2VwaWtfcHl0aG9uJywgJy1waCcsICc3LjAnLCAnLXRuJywgJzgnLCAnLW1hJywgJzIwMCcsICctbWV0YWxfYmluZGluZycsICctaW1hZScsICc8aW5maWxlLm1hZT4nLCAnLW9tYWUnLCAnPG91dGZpbGUubWFlPic=

> <r_epik_Ionization_Penalty>
0.129663

> <r_epik_Ionization_Penalty_Charging>
0

> <r_epik_Ionization_Penalty_Neutral>
0.129663

> <r_epik_State_Penalty>
0.119073

> <r_epik_Charging_Adjusted_Penalty>
0.119073

> <i_epik_Tot_Q>
0

> <i_epik_Tot_abs_Q>
0

> <r_epik_Metal_State_Penalty>
0.000131867

> <b_epik_Metal_Only>
0

> <s_lp_Force_Field>
OPLS_2005

> <r_lp_Energy>
11.52

> <b_lp_Chiralities_Consistent>
1

> <s_lp_Variant>
AV-unprocessed.smi:1918-2

> <Gold.Version>
5.8.1

> <Gold.Id.Protein>
6NUR|6NUR_protein|mol2

> <Gold.PLP.Fitness>
44.3730

> <Gold.PLP.PLP>
-42.8651

> <Gold.PLP.part.hbond>
-1.0000

> <Gold.PLP.part.metal>
0.0000

> <Gold.PLP.part.buried>
-3.0253

> <Gold.PLP.part.nonpolar>
-38.6263

> <Gold.PLP.part.repulsive>
0.0000

> <Gold.PLP.ligand.clash>
0.0000

> <Gold.PLP.ligand.torsion>
0.7631

> <Gold.PLP.Chemscore.Hbond>
1.0000

> <Gold.PLP.Chemscore.CHOScore>
0.0000

> <Gold.PLP.Chemscore.Metal>
0.0000

> <Gold.PLP.Chemscore.Internal.Correction>
0.0342

> <Gold.Rescore>
     Score         DG    S(hbond)    S(metal)    S(lipo)     H(rot)  DE(clash)    DE(int)     intcor
     16.34     -17.26       0.81        0.00     118.63       1.88       0.32       0.60       ----

> <Gold.Chemscore.Fitness>
16.3377

> <Gold.Chemscore.DG>
-17.2571

> <Gold.Chemscore.ZeroCoef>
-5.4800

> <Gold.Chemscore.Hbond>
0.8144

> <Gold.Chemscore.Metal>
0.0000

> <Gold.Chemscore.Lipo>
118.6305

> <Gold.Chemscore.Internal_Hbond>
0.0000

> <Gold.Chemscore.DEClash>
0.3172

> <Gold.Chemscore.DEInternal>
0.6022

> <Gold.Chemscore.Rot>
1.8839

> <Gold.Chemscore.Internal.Correction>
   9.000000E+99

> <Gold.Chemscore.Hbond.Weighted>
-2.7201

> <Gold.Chemscore.Metal.Weighted>
-0.0000

> <Gold.Chemscore.Lipo.Weighted>
-13.8798

> <Gold.Chemscore.Internal_Hbond.Weighted>
0.0000

> <Gold.Chemscore.DEClash.Weighted>
0.3172

> <Gold.Chemscore.DEInternal.Weighted>
0.6022

> <Gold.Chemscore.Rot.Weighted>
4.8227

> <Gold.Chemscore.Internal.Correction.Weighted>
   9.000000E+99

> <Gold.Protein.RotatedTorsions>
[ 6907 6896 6895 6894 ] final  -57.25 input  -60.11 | X-H torsion
[ 7974 7965 7964 7962 ] final  -15.84 input  175.53 | X-H torsion
[ 8008 7997 7996 7995 ] final    7.72 input   59.86 | X-H torsion
[ 10167 10162 10161 10158 ] final  111.05 input  -65.29 | X-H torsion
[ 10718 10713 10712 10709 ] final  163.29 input   66.30 | X-H torsion
[ 10763 10752 10751 10750 ] final   14.75 input  -60.55 | X-H torsion
[ 11005 11000 10999 10996 ] final  -75.06 input  -57.11 | X-H torsion

> <Gold.Protein.ActiveResidues>
 VAL166  LYS551  ARG553  GLY616  TRP617  ASP618  TYR619  PRO620  LYS621  CYS622 
 ASP623  PHE694  ASN695  SER759  ASP760  ASP761  ALA762  ILE779  LEU786  VAL792 
 PHE793  MET794  SER795  GLU796  ALA797  LYS798  CYS799  TRP800  GLU811  SER814 

> <Gold.Protein.RotatedAtoms>
  150.8101  134.7251  159.6679 H   0  0  0  0  0  0  0  0  0  0  0  0  # atno 6907 bound_to 6896
  152.4221  134.5933  159.9990 H   0  0  0  0  0  0  0  0  0  0  0  0  # atno 6908 bound_to 6896
  151.6145  133.3307  159.3110 H   0  0  0  0  0  0  0  0  0  0  0  0  # atno 6909 bound_to 6896
  146.2014  140.3550  142.8422 H   0  0  0  0  0  0  0  0  0  0  0  0  # atno 7974 bound_to 7965
  154.7575  140.2778  155.6241 H   0  0  0  0  0  0  0  0  0  0  0  0  # atno 8008 bound_to 7997
  156.2909  140.2666  156.2272 H   0  0  0  0  0  0  0  0  0  0  0  0  # atno 8009 bound_to 7997
  155.0059  140.0372  157.2369 H   0  0  0  0  0  0  0  0  0  0  0  0  # atno 8010 bound_to 7997
  139.6641  144.7128  151.1810 H   0  0  0  0  0  0  0  0  0  0  0  0  # atno 10167 bound_to 10162
  157.1105  131.0466  151.2459 H   0  0  0  0  0  0  0  0  0  0  0  0  # atno 10718 bound_to 10713
  153.1592  135.6793  153.8767 H   0  0  0  0  0  0  0  0  0  0  0  0  # atno 10763 bound_to 10752
  153.8168  135.3135  155.3407 H   0  0  0  0  0  0  0  0  0  0  0  0  # atno 10764 bound_to 10752
  154.7920  135.4829  154.0162 H   0  0  0  0  0  0  0  0  0  0  0  0  # atno 10765 bound_to 10752
  141.1642  133.6933  156.7460 H   0  0  0  0  0  0  0  0  0  0  0  0  # atno 11005 bound_to 11000
  144.8693  140.7250  143.6057 LP  0  0  0  0  0  0  0  0  0  0  0  0  # atno 17320 bound_to 7965
  145.3469  139.1716  143.4455 LP  0  0  0  0  0  0  0  0  0  0  0  0  # atno 17321 bound_to 7965
  140.7592  143.5947  150.8760 LP  0  0  0  0  0  0  0  0  0  0  0  0  # atno 17342 bound_to 10162
  139.9607  143.6167  152.3003 LP  0  0  0  0  0  0  0  0  0  0  0  0  # atno 17343 bound_to 10162
  157.4563  130.7627  149.7196 LP  0  0  0  0  0  0  0  0  0  0  0  0  # atno 17370 bound_to 10713
  155.9851  130.3985  150.3276 LP  0  0  0  0  0  0  0  0  0  0  0  0  # atno 17371 bound_to 10713
  140.2639  134.8445  157.3785 LP  0  0  0  0  0  0  0  0  0  0  0  0  # atno 17394 bound_to 11000
  140.1585  134.4759  155.7911 LP  0  0  0  0  0  0  0  0  0  0  0  0  # atno 17395 bound_to 11000

$$$$
