AV-unprocessed.smi:3149|AV-procd|sdf|12004|dock2
  -GOLD-   2272017413D 1   1.00000     0.00000
 Structure written by MMmdl.
 37 38  0  0  0  0  0  0  0  0  1 V2000
  151.3222  138.8897  154.5564 C   0  0  0  0  0  0  0  0  0  0  0  0
  150.8381  139.6854  155.7884 C   0  0  1  0  0  0  0  0  0  0  0  0
  151.9901  140.0413  156.6130 N   0  0  0  0  0  0  0  0  0  0  0  0
  151.7356  139.9118  158.0530 C   0  0  0  0  0  0  0  0  0  0  0  0
  152.8895  140.4930  158.8739 C   0  0  0  0  0  0  0  0  0  0  0  0
  154.0043  139.9732  158.8258 O   0  0  0  0  0  0  0  0  0  0  0  0
  152.6540  141.6688  159.5918 N   0  0  0  0  0  0  0  0  0  0  0  0
  153.7380  142.5864  159.9078 C   0  0  0  0  0  0  0  0  0  0  0  0
  152.6705  143.6852  159.8732 C   0  0  0  0  0  0  0  0  0  0  0  0
  151.7832  142.7179  159.0826 C   0  0  0  0  0  0  0  0  0  0  0  0
  150.0886  140.9942  155.4152 C   0  0  2  0  0  0  0  0  0  0  0  0
  149.7049  141.8302  156.6525 C   0  0  0  0  0  0  0  0  0  0  0  0
  148.9065  140.7393  154.6003 N   0  0  0  0  0  0  0  0  0  0  0  0
  148.0342  141.6579  154.0532 C   0  0  0  0  0  0  0  0  0  0  0  0
  147.0823  140.9598  153.3668 C   0  0  0  0  0  0  0  0  0  0  0  0
  147.4588  139.6008  153.5543 C   0  0  0  0  0  0  0  0  0  0  0  0
  148.5490  139.4712  154.2924 N   0  0  0  0  0  0  0  0  0  0  0  0
  150.4882  138.5678  153.9330 H   0  0  0  0  0  0  0  0  0  0  0  0
  151.8591  137.9845  154.8380 H   0  0  0  0  0  0  0  0  0  0  0  0
  151.9867  139.4899  153.9341 H   0  0  0  0  0  0  0  0  0  0  0  0
  150.1556  139.0586  156.3650 H   0  0  0  0  0  0  0  0  0  0  0  0
  152.7965  139.5056  156.3246 H   0  0  0  0  0  0  0  0  0  0  0  0
  150.8031  140.4112  158.3200 H   0  0  0  0  0  0  0  0  0  0  0  0
  151.6212  138.8622  158.3221 H   0  0  0  0  0  0  0  0  0  0  0  0
  154.1895  142.4191  160.8861 H   0  0  0  0  0  0  0  0  0  0  0  0
  154.4780  142.6807  159.1103 H   0  0  0  0  0  0  0  0  0  0  0  0
  152.2712  143.9315  160.8588 H   0  0  0  0  0  0  0  0  0  0  0  0
  152.9640  144.5778  159.3201 H   0  0  0  0  0  0  0  0  0  0  0  0
  151.8527  142.8607  158.0028 H   0  0  0  0  0  0  0  0  0  0  0  0
  150.7535  142.6533  159.4353 H   0  0  0  0  0  0  0  0  0  0  0  0
  150.7564  141.6034  154.8031 H   0  0  0  0  0  0  0  0  0  0  0  0
  150.5867  142.1598  157.2017 H   0  0  0  0  0  0  0  0  0  0  0  0
  149.0803  141.2617  157.3423 H   0  0  0  0  0  0  0  0  0  0  0  0
  149.1521  142.7248  156.3638 H   0  0  0  0  0  0  0  0  0  0  0  0
  148.1628  142.7208  154.1949 H   0  0  0  0  0  0  0  0  0  0  0  0
  146.2445  141.3592  152.8148 H   0  0  0  0  0  0  0  0  0  0  0  0
  146.9757  138.7107  153.1786 H   0  0  0  0  0  0  0  0  0  0  0  0
  1  2  1  0  0  0  0
  1 18  1  0  0  0  0
  1 19  1  0  0  0  0
  1 20  1  0  0  0  0
  2  3  1  0  0  0  0
  2 11  1  0  0  0  0
  2 21  1  0  0  0  0
  3  4  1  0  0  0  0
  3 22  1  0  0  0  0
  4  5  1  0  0  0  0
  4 23  1  0  0  0  0
  4 24  1  0  0  0  0
  5  6  2  0  0  0  0
  5  7  1  0  0  0  0
  7 10  1  0  0  0  0
  7  8  1  0  0  0  0
  8  9  1  0  0  0  0
  8 25  1  0  0  0  0
  8 26  1  0  0  0  0
  9 10  1  0  0  0  0
  9 27  1  0  0  0  0
  9 28  1  0  0  0  0
 10 29  1  0  0  0  0
 10 30  1  0  0  0  0
 11 12  1  0  0  0  0
 11 13  1  0  0  0  0
 11 31  1  0  0  0  0
 12 32  1  0  0  0  0
 12 33  1  0  0  0  0
 12 34  1  0  0  0  0
 13 17  1  0  0  0  0
 13 14  1  0  0  0  0
 14 15  2  0  0  0  0
 14 35  1  0  0  0  0
 15 16  1  0  0  0  0
 15 36  1  0  0  0  0
 16 17  2  0  0  0  0
 16 37  1  0  0  0  0
M  END
> <s_m_source_file>
AV-unprocessed.smi

> <i_m_source_file_index>
3149

> <i_lp_mmshare_version>
43012

> <i_f3d_flags>
0

> <s_epik_input>
bjFbY0hdW2NIXVtjSF1uMVtDQEBIXShbQ0gzXSlbQ0BIXShbQ0gzXSlbTkhdW0NIMl1DKD1PKU4yW0NIMl1bQ0gyXVtDSDJdMg==

> <s_epik_cmdline>
J2VwaWtfcHl0aG9uJywgJy1waCcsICc3LjAnLCAnLXRuJywgJzgnLCAnLW1hJywgJzIwMCcsICctbWV0YWxfYmluZGluZycsICctaW1hZScsICc8aW5maWxlLm1hZT4nLCAnLW9tYWUnLCAnPG91dGZpbGUubWFlPic=

> <r_lp_tautomer_probability>
1

> <r_epik_Ionization_Penalty>
0.918674

> <r_epik_Ionization_Penalty_Charging>
0

> <r_epik_Ionization_Penalty_Neutral>
0.918674

> <r_epik_State_Penalty>
0.958258

> <r_epik_Charging_Adjusted_Penalty>
0.958258

> <i_epik_Tot_Q>
0

> <i_epik_Tot_abs_Q>
0

> <r_epik_Metal_State_Penalty>
0.956881

> <b_epik_Metal_Only>
0

> <s_lp_Force_Field>
OPLS_2005

> <r_lp_Energy>
23.4298

> <b_lp_Chiralities_Consistent>
1

> <s_lp_Variant>
AV-unprocessed.smi:3149-6

> <Gold.Version>
5.8.1

> <Gold.Id.Protein>
6NUR|6NUR_protein|mol2

> <Gold.PLP.Fitness>
42.0815

> <Gold.PLP.PLP>
-37.2541

> <Gold.PLP.part.hbond>
-1.0830

> <Gold.PLP.part.metal>
0.0000

> <Gold.PLP.part.buried>
-2.7386

> <Gold.PLP.part.nonpolar>
-32.7814

> <Gold.PLP.part.repulsive>
0.1408

> <Gold.PLP.ligand.clash>
0.0000

> <Gold.PLP.ligand.torsion>
1.0529

> <Gold.PLP.Chemscore.Hbond>
1.0000

> <Gold.PLP.Chemscore.CHOScore>
1.0000

> <Gold.PLP.Chemscore.Metal>
0.0000

> <Gold.Chemscore.Hbonds>
donor molecule, donor type, donor heavy atom, donor atom, acceptor molecule, acceptor atom, score
      P1  H  7997  8008       L1     6  1.00
      L1  C    14    35       P1  8028  0.96

> <Gold.PLP.Chemscore.Internal.Correction>
0.9331

> <Gold.Rescore>
     Score         DG    S(hbond)    S(metal)    S(lipo)     H(rot)  DE(clash)    DE(int)     intcor
     12.00     -14.42       0.96        0.00      88.15       1.79       0.05       2.36       ----

> <Gold.Chemscore.Fitness>
12.0006

> <Gold.Chemscore.DG>
-14.4158

> <Gold.Chemscore.ZeroCoef>
-5.4800

> <Gold.Chemscore.Hbond>
0.9576

> <Gold.Chemscore.Metal>
0.0000

> <Gold.Chemscore.Lipo>
88.1474

> <Gold.Chemscore.Internal_Hbond>
0.0000

> <Gold.Chemscore.DEClash>
0.0547

> <Gold.Chemscore.DEInternal>
2.3604

> <Gold.Chemscore.Rot>
1.7874

> <Gold.Chemscore.Internal.Correction>
   9.000000E+99

> <Gold.Chemscore.Hbonds>
donor molecule, donor type, donor heavy atom, donor atom, acceptor molecule, acceptor atom, score
      P1  H  7997  8008       L1     6  0.94

> <Gold.Chemscore.Hbond.Weighted>
-3.1984

> <Gold.Chemscore.Metal.Weighted>
-0.0000

> <Gold.Chemscore.Lipo.Weighted>
-10.3132

> <Gold.Chemscore.Internal_Hbond.Weighted>
0.0000

> <Gold.Chemscore.DEClash.Weighted>
0.0547

> <Gold.Chemscore.DEInternal.Weighted>
2.3604

> <Gold.Chemscore.Rot.Weighted>
4.5758

> <Gold.Chemscore.Internal.Correction.Weighted>
   9.000000E+99

> <Gold.Protein.RotatedTorsions>
[ 6907 6896 6895 6894 ] final -124.56 input  -60.11 | X-H torsion
[ 7974 7965 7964 7962 ] final  110.10 input  175.53 | X-H torsion
[ 8008 7997 7996 7995 ] final -111.19 input   59.86 | X-H torsion
[ 10167 10162 10161 10158 ] final   -8.76 input  -65.29 | X-H torsion
[ 10718 10713 10712 10709 ] final   36.83 input   66.30 | X-H torsion
[ 10763 10752 10751 10750 ] final  -22.54 input  -60.55 | X-H torsion
[ 11005 11000 10999 10996 ] final -125.98 input  -57.11 | X-H torsion

> <Gold.Protein.ActiveResidues>
 VAL166  LYS551  ARG553  GLY616  TRP617  ASP618  TYR619  PRO620  LYS621  CYS622 
 ASP623  PHE694  ASN695  SER759  ASP760  ASP761  ALA762  ILE779  LEU786  VAL792 
 PHE793  MET794  SER795  GLU796  ALA797  LYS798  CYS799  TRP800  GLU811  SER814 

> <Gold.Protein.RotatedAtoms>
  150.8780  133.7411  159.2940 H   0  0  0  0  0  0  0  0  0  0  0  0  # atno 6907 bound_to 6896
  151.5001  135.1060  159.9836 H   0  0  0  0  0  0  0  0  0  0  0  0  # atno 6908 bound_to 6896
  152.4741  133.8051  159.7029 H   0  0  0  0  0  0  0  0  0  0  0  0  # atno 6909 bound_to 6896
  145.2593  139.2709  143.4025 H   0  0  0  0  0  0  0  0  0  0  0  0  # atno 7974 bound_to 7965
  154.9860  140.0395  157.2298 H   0  0  0  0  0  0  0  0  0  0  0  0  # atno 8008 bound_to 7997
  154.7671  140.2795  155.6144 H   0  0  0  0  0  0  0  0  0  0  0  0  # atno 8009 bound_to 7997
  156.2914  140.2617  156.2465 H   0  0  0  0  0  0  0  0  0  0  0  0  # atno 8010 bound_to 7997
  140.7068  143.5933  150.8871 H   0  0  0  0  0  0  0  0  0  0  0  0  # atno 10167 bound_to 10162
  157.3396  130.7541  149.6902 H   0  0  0  0  0  0  0  0  0  0  0  0  # atno 10718 bound_to 10713
  153.6536  135.6979  153.5200 H   0  0  0  0  0  0  0  0  0  0  0  0  # atno 10763 bound_to 10752
  153.2687  135.4222  155.0965 H   0  0  0  0  0  0  0  0  0  0  0  0  # atno 10764 bound_to 10752
  154.8470  135.3573  154.6081 H   0  0  0  0  0  0  0  0  0  0  0  0  # atno 10765 bound_to 10752
  140.9718  134.0794  157.3861 H   0  0  0  0  0  0  0  0  0  0  0  0  # atno 11005 bound_to 11000
  146.3280  140.3005  142.8620 LP  0  0  0  0  0  0  0  0  0  0  0  0  # atno 17320 bound_to 7965
  144.9433  140.8101  143.5617 LP  0  0  0  0  0  0  0  0  0  0  0  0  # atno 17321 bound_to 7965
  139.9659  143.6112  152.2988 LP  0  0  0  0  0  0  0  0  0  0  0  0  # atno 17342 bound_to 10162
  139.6681  144.7661  151.1835 LP  0  0  0  0  0  0  0  0  0  0  0  0  # atno 17343 bound_to 10162
  155.9706  130.4171  150.4265 LP  0  0  0  0  0  0  0  0  0  0  0  0  # atno 17370 bound_to 10713
  157.2311  131.0504  151.2492 LP  0  0  0  0  0  0  0  0  0  0  0  0  # atno 17371 bound_to 10713
  139.8915  135.0119  156.6796 LP  0  0  0  0  0  0  0  0  0  0  0  0  # atno 17394 bound_to 11000
  140.7317  133.9053  155.8216 LP  0  0  0  0  0  0  0  0  0  0  0  0  # atno 17395 bound_to 11000

$$$$
