AV-unprocessed.smi:1943|AV-procd|sdf|7852|dock5
  -GOLD-   22720 9593D 1   1.00000     0.00000
 Structure written by MMmdl.
 47 48  0  0  0  0  0  0  0  0  3 V2000
  147.0472  134.2132  153.5544 C   0  0  0  0  0  0  0  0  0  0  0  0
  148.3647  134.6414  154.1107 N   0  3  0  0  0  0  0  0  0  0  0  0
  149.3860  133.6026  153.8130 C   0  0  0  0  0  0  0  0  0  0  0  0
  148.3540  135.1849  155.5260 C   0  0  0  0  0  0  0  0  0  0  0  0
  147.2199  136.2386  155.6926 C   0  0  0  0  0  0  0  0  0  0  0  0
  148.0790  134.0506  156.5657 C   0  0  0  0  0  0  0  0  0  0  0  0
  149.7732  135.7985  155.8115 C   0  0  0  0  0  0  0  0  0  0  0  0
  149.8886  137.1670  155.3141 N   0  5  0  0  0  0  0  0  0  0  0  0
  151.0632  137.8531  155.2474 C   0  0  0  0  0  0  0  0  0  0  0  0
  152.1696  137.4930  154.8302 O   0  0  0  0  0  0  0  0  0  0  0  0
  150.9097  139.2782  155.6977 C   0  0  0  0  0  0  0  0  0  0  0  0
  151.5713  139.6241  156.8263 N   0  0  0  0  0  0  0  0  0  0  0  0
  151.4732  140.8841  157.2661 C   0  0  0  0  0  0  0  0  0  0  0  0
  152.1779  141.2201  158.4298 N   0  0  0  0  0  0  0  0  0  0  0  0
  151.8915  142.4452  159.1812 C   0  0  0  0  0  0  0  0  0  0  0  0
  153.1596  142.9730  159.8729 C   0  0  0  0  0  0  0  0  0  0  0  0
  153.7234  141.9541  160.6896 O   0  0  0  0  0  0  0  0  0  0  0  0
  154.1116  140.8235  159.9191 C   0  0  0  0  0  0  0  0  0  0  0  0
  152.8797  140.2133  159.2296 C   0  0  0  0  0  0  0  0  0  0  0  0
  150.7517  141.8457  156.6763 N   0  0  0  0  0  0  0  0  0  0  0  0
  150.0694  141.5212  155.5585 C   0  0  0  0  0  0  0  0  0  0  0  0
  150.1047  140.2250  155.0110 C   0  0  0  0  0  0  0  0  0  0  0  0
  149.1697  139.8584  153.6007 Cl  0  0  0  0  0  0  0  0  0  0  0  0
  146.7121  133.2775  154.0036 H   0  0  0  0  0  0  0  0  0  0  0  0
  147.1293  134.0479  152.4797 H   0  0  0  0  0  0  0  0  0  0  0  0
  146.2630  134.9564  153.6947 H   0  0  0  0  0  0  0  0  0  0  0  0
  149.2631  132.7341  154.4611 H   0  0  0  0  0  0  0  0  0  0  0  0
  150.4013  133.9841  153.9194 H   0  0  0  0  0  0  0  0  0  0  0  0
  149.2997  133.2607  152.7811 H   0  0  0  0  0  0  0  0  0  0  0  0
  147.1073  136.5599  156.7299 H   0  0  0  0  0  0  0  0  0  0  0  0
  146.2566  135.8217  155.3975 H   0  0  0  0  0  0  0  0  0  0  0  0
  147.3750  137.1422  155.0998 H   0  0  0  0  0  0  0  0  0  0  0  0
  148.0940  134.4080  157.5975 H   0  0  0  0  0  0  0  0  0  0  0  0
  148.7997  133.2325  156.5008 H   0  0  0  0  0  0  0  0  0  0  0  0
  147.0859  133.6188  156.4394 H   0  0  0  0  0  0  0  0  0  0  0  0
  149.9614  135.7473  156.8850 H   0  0  0  0  0  0  0  0  0  0  0  0
  150.5347  135.1633  155.3586 H   0  0  0  0  0  0  0  0  0  0  0  0
  151.4977  143.2370  158.5445 H   0  0  0  0  0  0  0  0  0  0  0  0
  151.1232  142.2268  159.9236 H   0  0  0  0  0  0  0  0  0  0  0  0
  153.8904  143.3129  159.1373 H   0  0  0  0  0  0  0  0  0  0  0  0
  152.9144  143.8325  160.4971 H   0  0  0  0  0  0  0  0  0  0  0  0
  154.8659  141.1107  159.1845 H   0  0  0  0  0  0  0  0  0  0  0  0
  154.5745  140.0885  160.5778 H   0  0  0  0  0  0  0  0  0  0  0  0
  152.1894  139.8189  159.9760 H   0  0  0  0  0  0  0  0  0  0  0  0
  153.2108  139.3677  158.6274 H   0  0  0  0  0  0  0  0  0  0  0  0
  149.4808  142.3037  155.1025 H   0  0  0  0  0  0  0  0  0  0  0  0
  148.6426  135.4346  153.5498 H   0  0  0  0  0  0  0  0  0  0  0  0
  1  2  1  0  0  0  0
  1 24  1  0  0  0  0
  1 25  1  0  0  0  0
  1 26  1  0  0  0  0
  2  3  1  0  0  0  0
  2  4  1  0  0  0  0
  2 47  1  0  0  0  0
  3 27  1  0  0  0  0
  3 28  1  0  0  0  0
  3 29  1  0  0  0  0
  4  5  1  0  0  0  0
  4  6  1  0  0  0  0
  4  7  1  0  0  0  0
  5 30  1  0  0  0  0
  5 31  1  0  0  0  0
  5 32  1  0  0  0  0
  6 33  1  0  0  0  0
  6 34  1  0  0  0  0
  6 35  1  0  0  0  0
  7  8  1  0  0  0  0
  7 36  1  0  0  0  0
  7 37  1  0  0  0  0
  8  9  1  0  0  0  0
  9 10  2  0  0  0  0
  9 11  1  0  0  0  0
 11 22  1  0  0  0  0
 11 12  2  0  0  0  0
 12 13  1  0  0  0  0
 13 14  1  0  0  0  0
 13 20  2  0  0  0  0
 14 19  1  0  0  0  0
 14 15  1  0  0  0  0
 15 16  1  0  0  0  0
 15 38  1  0  0  0  0
 15 39  1  0  0  0  0
 16 17  1  0  0  0  0
 16 40  1  0  0  0  0
 16 41  1  0  0  0  0
 17 18  1  0  0  0  0
 18 19  1  0  0  0  0
 18 42  1  0  0  0  0
 18 43  1  0  0  0  0
 19 44  1  0  0  0  0
 19 45  1  0  0  0  0
 20 21  1  0  0  0  0
 21 22  2  0  0  0  0
 21 46  1  0  0  0  0
 22 23  1  0  0  0  0
M  CHG  1   2   1
M  CHG  1   8  -1
M  END
> <s_m_source_file>
AV-unprocessed.smi

> <i_m_source_file_index>
1943

> <i_lp_mmshare_version>
43012

> <i_f3d_flags>
0

> <s_epik_input>
W0NIM11OKFtDSDNdKUMoW0NIM10pKFtDSDNdKVtDSDJdW05IXUMoPU8pYzFuYyhuW2NIXWMxQ2wpTjJbQ0gyXVtDSDJdT1tDSDJdW0NIMl0y

> <s_epik_cmdline>
J2VwaWtfcHl0aG9uJywgJy1waCcsICc3LjAnLCAnLXRuJywgJzgnLCAnLW1hJywgJzIwMCcsICctbWV0YWxfYmluZGluZycsICctaW1hZScsICc8aW5maWxlLm1hZT4nLCAnLW9tYWUnLCAnPG91dGZpbGUubWFlPic=

> <r_lp_tautomer_probability>
1

> <r_epik_Ionization_Penalty>
4.9942

> <r_epik_Ionization_Penalty_Charging>
4.9942

> <r_epik_Ionization_Penalty_Neutral>
6.27513e-06

> <r_epik_State_Penalty>
4.99795

> <r_epik_Charging_Adjusted_Penalty>
9.99215

> <i_epik_Tot_Q>
0

> <i_epik_Tot_abs_Q>
2

> <r_epik_Metal_State_Penalty>
1.11486

> <b_epik_Metal_Only>
1

> <s_lp_Force_Field>
OPLS_2005

> <r_lp_Energy>
33.8194

> <b_lp_Chiralities_Consistent>
1

> <s_lp_Variant>
AV-unprocessed.smi:1943-2

> <Gold.Version>
5.8.1

> <Gold.Id.Protein>
6NUR|6NUR_protein|mol2

> <Gold.PLP.Fitness>
40.5679

> <Gold.PLP.PLP>
-33.6025

> <Gold.PLP.part.hbond>
-2.0000

> <Gold.PLP.part.metal>
0.0000

> <Gold.PLP.part.buried>
-0.8125

> <Gold.PLP.part.nonpolar>
-30.1386

> <Gold.PLP.part.repulsive>
0.2748

> <Gold.PLP.ligand.clash>
0.0000

> <Gold.PLP.ligand.torsion>
2.2032

> <Gold.PLP.Chemscore.Hbond>
2.7454

> <Gold.PLP.Chemscore.CHOScore>
0.9516

> <Gold.PLP.Chemscore.Metal>
0.0000

> <Gold.Chemscore.Hbonds>
donor molecule, donor type, donor heavy atom, donor atom, acceptor molecule, acceptor atom, score
      L1  H     2    47       P1  7948  1.98
      P1  H 10752 10765       L1    10  0.76
      L1  C    21    46       P1  8028  0.97

> <Gold.PLP.Chemscore.Internal.Correction>
0.2807

> <Gold.Rescore>
     Score         DG    S(hbond)    S(metal)    S(lipo)     H(rot)  DE(clash)    DE(int)     intcor
     14.10     -17.87       1.82        0.00      84.59       1.41       1.62       2.15       ----

> <Gold.Chemscore.Fitness>
14.0992

> <Gold.Chemscore.DG>
-17.8678

> <Gold.Chemscore.ZeroCoef>
-5.4800

> <Gold.Chemscore.Hbond>
1.8233

> <Gold.Chemscore.Metal>
0.0000

> <Gold.Chemscore.Lipo>
84.5937

> <Gold.Chemscore.Internal_Hbond>
0.0000

> <Gold.Chemscore.DEClash>
1.6211

> <Gold.Chemscore.DEInternal>
2.1475

> <Gold.Chemscore.Rot>
1.4060

> <Gold.Chemscore.Internal.Correction>
   9.000000E+99

> <Gold.Chemscore.Hbonds>
donor molecule, donor type, donor heavy atom, donor atom, acceptor molecule, acceptor atom, score
      L1  H     2    47       P1  7948  0.89
      P1  H 10752 10765       L1    10  0.70

> <Gold.Chemscore.Hbond.Weighted>
-6.0898

> <Gold.Chemscore.Metal.Weighted>
-0.0000

> <Gold.Chemscore.Lipo.Weighted>
-9.8975

> <Gold.Chemscore.Internal_Hbond.Weighted>
0.0000

> <Gold.Chemscore.DEClash.Weighted>
1.6211

> <Gold.Chemscore.DEInternal.Weighted>
2.1475

> <Gold.Chemscore.Rot.Weighted>
3.5994

> <Gold.Chemscore.Internal.Correction.Weighted>
   9.000000E+99

> <Gold.Protein.RotatedTorsions>
[ 6907 6896 6895 6894 ] final   -9.51 input  -60.11 | X-H torsion
[ 7974 7965 7964 7962 ] final -109.32 input  175.53 | X-H torsion
[ 8008 7997 7996 7995 ] final   20.96 input   59.86 | X-H torsion
[ 10167 10162 10161 10158 ] final   86.76 input  -65.29 | X-H torsion
[ 10718 10713 10712 10709 ] final  -67.83 input   66.30 | X-H torsion
[ 10763 10752 10751 10750 ] final  166.66 input  -60.55 | X-H torsion
[ 11005 11000 10999 10996 ] final  126.47 input  -57.11 | X-H torsion

> <Gold.Protein.ActiveResidues>
 VAL166  LYS551  ARG553  GLY616  TRP617  ASP618  TYR619  PRO620  LYS621  CYS622 
 ASP623  PHE694  ASN695  SER759  ASP760  ASP761  ALA762  ILE779  LEU786  VAL792 
 PHE793  MET794  SER795  GLU796  ALA797  LYS798  CYS799  TRP800  GLU811  SER814 

> <Gold.Protein.RotatedAtoms>
  151.4167  135.0992  159.9601 H   0  0  0  0  0  0  0  0  0  0  0  0  # atno 6907 bound_to 6896
  152.5002  133.8746  159.7326 H   0  0  0  0  0  0  0  0  0  0  0  0  # atno 6908 bound_to 6896
  150.9253  133.6774  159.2851 H   0  0  0  0  0  0  0  0  0  0  0  0  # atno 6909 bound_to 6896
  145.1819  140.8975  143.3475 H   0  0  0  0  0  0  0  0  0  0  0  0  # atno 7974 bound_to 7965
  154.9434  140.3056  155.5109 H   0  0  0  0  0  0  0  0  0  0  0  0  # atno 8008 bound_to 7997
  156.2994  140.2332  156.4443 H   0  0  0  0  0  0  0  0  0  0  0  0  # atno 8009 bound_to 7997
  154.8123  140.0428  157.1340 H   0  0  0  0  0  0  0  0  0  0  0  0  # atno 8010 bound_to 7997
  139.8842  144.6422  150.8809 H   0  0  0  0  0  0  0  0  0  0  0  0  # atno 10167 bound_to 10162
  156.0537  130.4284  150.1911 H   0  0  0  0  0  0  0  0  0  0  0  0  # atno 10718 bound_to 10713
  154.3423  135.2754  155.2416 H   0  0  0  0  0  0  0  0  0  0  0  0  # atno 10763 bound_to 10752
  154.4681  135.5890  153.6306 H   0  0  0  0  0  0  0  0  0  0  0  0  # atno 10764 bound_to 10752
  152.9856  135.6081  154.3625 H   0  0  0  0  0  0  0  0  0  0  0  0  # atno 10765 bound_to 10752
  139.9458  134.9630  156.8712 H   0  0  0  0  0  0  0  0  0  0  0  0  # atno 11005 bound_to 11000
  145.0127  139.3495  143.6112 LP  0  0  0  0  0  0  0  0  0  0  0  0  # atno 17320 bound_to 7965
  146.3451  139.9396  142.8742 LP  0  0  0  0  0  0  0  0  0  0  0  0  # atno 17321 bound_to 7965
  140.7739  143.3561  151.1918 LP  0  0  0  0  0  0  0  0  0  0  0  0  # atno 17342 bound_to 10162
  139.7168  143.9287  152.2970 LP  0  0  0  0  0  0  0  0  0  0  0  0  # atno 17343 bound_to 10162
  156.9991  130.9917  151.3395 LP  0  0  0  0  0  0  0  0  0  0  0  0  # atno 17370 bound_to 10713
  157.5487  130.8168  149.8118 LP  0  0  0  0  0  0  0  0  0  0  0  0  # atno 17371 bound_to 10713
  140.5839  134.0326  155.7474 LP  0  0  0  0  0  0  0  0  0  0  0  0  # atno 17394 bound_to 11000
  141.1107  133.9620  157.2914 LP  0  0  0  0  0  0  0  0  0  0  0  0  # atno 17395 bound_to 11000

$$$$
