AV-unprocessed.smi:3166|AV-procd|sdf|12094|dock7
  -GOLD-   2272017523D 1   1.00000     0.00000
 Structure written by MMmdl.
 41 42  0  0  0  0  0  0  0  0  2 V2000
  143.8706  136.4470  152.4171 C   0  0  0  0  0  0  0  0  0  0  0  0
  145.3387  136.0768  152.1483 C   0  0  1  0  0  0  0  0  0  0  0  0
  145.5065  135.5320  150.7151 C   0  0  0  0  0  0  0  0  0  0  0  0
  145.2759  134.1002  150.6204 N   0  0  0  0  0  0  0  0  0  0  0  0
  144.0750  133.4223  150.6525 C   0  0  0  0  0  0  0  0  0  0  0  0
  144.3570  132.0901  150.5516 C   0  0  0  0  0  0  0  0  0  0  0  0
  145.7768  132.0498  150.4707 C   0  0  0  0  0  0  0  0  0  0  0  0
  146.3237  133.2540  150.5164 N   0  0  0  0  0  0  0  0  0  0  0  0
  146.2309  137.2401  152.3565 N   0  3  0  0  0  0  0  0  0  0  0  0
  146.3479  137.7126  153.7536 C   0  0  0  0  0  0  0  0  0  0  0  0
  147.3527  138.8775  153.8923 C   0  0  0  0  0  0  0  0  0  0  0  0
  148.5428  138.4831  153.2324 O   0  0  0  0  0  0  0  0  0  0  0  0
  146.8190  140.1848  153.2544 C   0  0  0  0  0  0  0  0  0  0  0  0
  147.7456  141.3898  153.4961 C   0  0  0  0  0  0  0  0  0  0  0  0
  148.0221  141.5923  154.9920 C   0  0  0  0  0  0  0  0  0  0  0  0
  148.6063  140.3193  155.6195 C   0  0  0  0  0  0  0  0  0  0  0  0
  147.6876  139.1066  155.3855 C   0  0  0  0  0  0  0  0  0  0  0  0
  143.2145  135.5965  152.2296 H   0  0  0  0  0  0  0  0  0  0  0  0
  143.5431  137.2648  151.7742 H   0  0  0  0  0  0  0  0  0  0  0  0
  143.7105  136.7496  153.4516 H   0  0  0  0  0  0  0  0  0  0  0  0
  145.6275  135.2920  152.8493 H   0  0  0  0  0  0  0  0  0  0  0  0
  144.8082  136.0278  150.0395 H   0  0  0  0  0  0  0  0  0  0  0  0
  146.5086  135.7493  150.3418 H   0  0  0  0  0  0  0  0  0  0  0  0
  143.1297  133.9368  150.7437 H   0  0  0  0  0  0  0  0  0  0  0  0
  143.6563  131.2683  150.5424 H   0  0  0  0  0  0  0  0  0  0  0  0
  146.4213  131.1875  150.3836 H   0  0  0  0  0  0  0  0  0  0  0  0
  147.1590  136.9651  152.0658 H   0  0  0  0  0  0  0  0  0  0  0  0
  145.3683  138.0297  154.1113 H   0  0  0  0  0  0  0  0  0  0  0  0
  146.6593  136.8783  154.3843 H   0  0  0  0  0  0  0  0  0  0  0  0
  148.6239  138.9859  152.4357 H   0  0  0  0  0  0  0  0  0  0  0  0
  146.6710  140.0580  152.1814 H   0  0  0  0  0  0  0  0  0  0  0  0
  145.8360  140.4119  153.6698 H   0  0  0  0  0  0  0  0  0  0  0  0
  148.6877  141.2447  152.9658 H   0  0  0  0  0  0  0  0  0  0  0  0
  147.2961  142.2912  153.0784 H   0  0  0  0  0  0  0  0  0  0  0  0
  148.7096  142.4267  155.1338 H   0  0  0  0  0  0  0  0  0  0  0  0
  147.0971  141.8628  155.5029 H   0  0  0  0  0  0  0  0  0  0  0  0
  149.5940  140.1234  155.2007 H   0  0  0  0  0  0  0  0  0  0  0  0
  148.7529  140.4696  156.6895 H   0  0  0  0  0  0  0  0  0  0  0  0
  146.7615  139.2629  155.9408 H   0  0  0  0  0  0  0  0  0  0  0  0
  148.1458  138.2137  155.8132 H   0  0  0  0  0  0  0  0  0  0  0  0
  145.9261  138.0031  151.7698 H   0  0  0  0  0  0  0  0  0  0  0  0
  1  2  1  0  0  0  0
  1 18  1  0  0  0  0
  1 19  1  0  0  0  0
  1 20  1  0  0  0  0
  2  3  1  0  0  0  0
  2  9  1  0  0  0  0
  2 21  1  0  0  0  0
  3  4  1  0  0  0  0
  3 22  1  0  0  0  0
  3 23  1  0  0  0  0
  4  8  1  0  0  0  0
  4  5  1  0  0  0  0
  5  6  2  0  0  0  0
  5 24  1  0  0  0  0
  6  7  1  0  0  0  0
  6 25  1  0  0  0  0
  7  8  2  0  0  0  0
  7 26  1  0  0  0  0
  9 10  1  0  0  0  0
  9 27  1  0  0  0  0
  9 41  1  0  0  0  0
 10 11  1  0  0  0  0
 10 28  1  0  0  0  0
 10 29  1  0  0  0  0
 11 17  1  0  0  0  0
 11 12  1  0  0  0  0
 11 13  1  0  0  0  0
 12 30  1  0  0  0  0
 13 14  1  0  0  0  0
 13 31  1  0  0  0  0
 13 32  1  0  0  0  0
 14 15  1  0  0  0  0
 14 33  1  0  0  0  0
 14 34  1  0  0  0  0
 15 16  1  0  0  0  0
 15 35  1  0  0  0  0
 15 36  1  0  0  0  0
 16 17  1  0  0  0  0
 16 37  1  0  0  0  0
 16 38  1  0  0  0  0
 17 39  1  0  0  0  0
 17 40  1  0  0  0  0
M  CHG  1   9   1
M  END
> <s_m_source_file>
AV-unprocessed.smi

> <i_m_source_file_index>
3166

> <i_lp_mmshare_version>
43012

> <i_f3d_flags>
0

> <s_epik_input>
bjFbY0hdW2NIXVtjSF1uMVtDSDJdW0NAQEhdKFtDSDNdKVtOSF1bQ0gyXUMyKFtPSF0pW0NIMl1bQ0gyXVtDSDJdW0NIMl1bQ0gyXTI=

> <s_epik_cmdline>
J2VwaWtfcHl0aG9uJywgJy1waCcsICc3LjAnLCAnLXRuJywgJzgnLCAnLW1hJywgJzIwMCcsICctbWV0YWxfYmluZGluZycsICctaW1hZScsICc8aW5maWxlLm1hZT4nLCAnLW9tYWUnLCAnPG91dGZpbGUubWFlPic=

> <r_lp_tautomer_probability>
1

> <r_epik_Ionization_Penalty>
0.0111521

> <r_epik_Ionization_Penalty_Charging>
0.0111472

> <r_epik_Ionization_Penalty_Neutral>
4.96355e-06

> <r_epik_State_Penalty>
0.00856328

> <r_epik_Charging_Adjusted_Penalty>
0.0197104

> <i_epik_Tot_Q>
1

> <i_epik_Tot_abs_Q>
1

> <r_epik_Metal_State_Penalty>
0.00856387

> <b_epik_Metal_Only>
0

> <s_lp_Force_Field>
OPLS_2005

> <r_lp_Energy>
16.9358

> <b_lp_Chiralities_Consistent>
1

> <s_lp_Variant>
AV-unprocessed.smi:3166-2

> <Gold.Version>
5.8.1

> <Gold.Id.Protein>
6NUR|6NUR_protein|mol2

> <Gold.PLP.Fitness>
44.0184

> <Gold.PLP.PLP>
-30.3715

> <Gold.PLP.part.hbond>
-3.0000

> <Gold.PLP.part.metal>
0.0000

> <Gold.PLP.part.buried>
-4.7389

> <Gold.PLP.part.nonpolar>
-23.1442

> <Gold.PLP.part.repulsive>
0.2572

> <Gold.PLP.ligand.clash>
0.0000

> <Gold.PLP.ligand.torsion>
0.6997

> <Gold.PLP.Chemscore.Hbond>
3.0000

> <Gold.PLP.Chemscore.CHOScore>
2.0000

> <Gold.PLP.Chemscore.Metal>
0.0000

> <Gold.Chemscore.Hbonds>
donor molecule, donor type, donor heavy atom, donor atom, acceptor molecule, acceptor atom, score
      L1  H     9    27       P1  7948  2.00
      L1  H    12    30       P1  7957  1.00
      L1  C     5    24       P1 10186  1.00
      L1  C     7    26       P1 10747  0.90

> <Gold.PLP.Chemscore.Internal.Correction>
0.0462

> <Gold.Rescore>
     Score         DG    S(hbond)    S(metal)    S(lipo)     H(rot)  DE(clash)    DE(int)     intcor
     14.79     -15.56       1.99        0.00      77.45       2.20       0.13       0.64       ----

> <Gold.Chemscore.Fitness>
14.7887

> <Gold.Chemscore.DG>
-15.5581

> <Gold.Chemscore.ZeroCoef>
-5.4800

> <Gold.Chemscore.Hbond>
1.9900

> <Gold.Chemscore.Metal>
0.0000

> <Gold.Chemscore.Lipo>
77.4459

> <Gold.Chemscore.Internal_Hbond>
0.0000

> <Gold.Chemscore.DEClash>
0.1264

> <Gold.Chemscore.DEInternal>
0.6430

> <Gold.Chemscore.Rot>
2.1991

> <Gold.Chemscore.Internal.Correction>
   9.000000E+99

> <Gold.Chemscore.Hbonds>
donor molecule, donor type, donor heavy atom, donor atom, acceptor molecule, acceptor atom, score
      L1  H     9    27       P1  7948  0.99
      L1  H    12    30       P1  7957  0.97

> <Gold.Chemscore.Hbond.Weighted>
-6.6467

> <Gold.Chemscore.Metal.Weighted>
-0.0000

> <Gold.Chemscore.Lipo.Weighted>
-9.0612

> <Gold.Chemscore.Internal_Hbond.Weighted>
0.0000

> <Gold.Chemscore.DEClash.Weighted>
0.1264

> <Gold.Chemscore.DEInternal.Weighted>
0.6430

> <Gold.Chemscore.Rot.Weighted>
5.6298

> <Gold.Chemscore.Internal.Correction.Weighted>
   9.000000E+99

> <Gold.Protein.RotatedTorsions>
[ 6907 6896 6895 6894 ] final  -72.92 input  -60.11 | X-H torsion
[ 7974 7965 7964 7962 ] final  146.41 input  175.53 | X-H torsion
[ 8008 7997 7996 7995 ] final  -94.62 input   59.86 | X-H torsion
[ 10167 10162 10161 10158 ] final   84.63 input  -65.29 | X-H torsion
[ 10718 10713 10712 10709 ] final  -41.79 input   66.30 | X-H torsion
[ 10763 10752 10751 10750 ] final   88.40 input  -60.55 | X-H torsion
[ 11005 11000 10999 10996 ] final    8.58 input  -57.11 | X-H torsion

> <Gold.Protein.ActiveResidues>
 VAL166  LYS551  ARG553  GLY616  TRP617  ASP618  TYR619  PRO620  LYS621  CYS622 
 ASP623  PHE694  ASN695  SER759  ASP760  ASP761  ALA762  ILE779  LEU786  VAL792 
 PHE793  MET794  SER795  GLU796  ALA797  LYS798  CYS799  TRP800  GLU811  SER814 

> <Gold.Protein.RotatedAtoms>
  150.7150  134.5092  159.5598 H   0  0  0  0  0  0  0  0  0  0  0  0  # atno 6907 bound_to 6896
  152.2673  134.7968  160.0429 H   0  0  0  0  0  0  0  0  0  0  0  0  # atno 6908 bound_to 6896
  151.8660  133.3431  159.3756 H   0  0  0  0  0  0  0  0  0  0  0  0  # atno 6909 bound_to 6896
  144.8673  139.5902  143.5903 H   0  0  0  0  0  0  0  0  0  0  0  0  # atno 7974 bound_to 7965
  154.7508  140.0487  157.0891 H   0  0  0  0  0  0  0  0  0  0  0  0  # atno 8008 bound_to 7997
  155.0060  140.3130  155.4829 H   0  0  0  0  0  0  0  0  0  0  0  0  # atno 8009 bound_to 7997
  156.2884  140.2193  156.5172 H   0  0  0  0  0  0  0  0  0  0  0  0  # atno 8010 bound_to 7997
  139.9060  144.6300  150.8586 H   0  0  0  0  0  0  0  0  0  0  0  0  # atno 10167 bound_to 10162
  156.2665  130.4202  149.8484 H   0  0  0  0  0  0  0  0  0  0  0  0  # atno 10718 bound_to 10713
  153.1765  135.4508  154.9972 H   0  0  0  0  0  0  0  0  0  0  0  0  # atno 10763 bound_to 10752
  154.8001  135.3252  154.7572 H   0  0  0  0  0  0  0  0  0  0  0  0  # atno 10764 bound_to 10752
  153.8042  135.6960  153.4906 H   0  0  0  0  0  0  0  0  0  0  0  0  # atno 10765 bound_to 10752
  140.5354  134.0426  155.7886 H   0  0  0  0  0  0  0  0  0  0  0  0  # atno 11005 bound_to 11000
  146.2905  139.7125  142.9164 LP  0  0  0  0  0  0  0  0  0  0  0  0  # atno 17320 bound_to 7965
  145.4197  141.0405  143.2971 LP  0  0  0  0  0  0  0  0  0  0  0  0  # atno 17321 bound_to 7965
  140.7696  143.3401  151.2227 LP  0  0  0  0  0  0  0  0  0  0  0  0  # atno 17342 bound_to 10162
  139.6983  143.9575  152.2893 LP  0  0  0  0  0  0  0  0  0  0  0  0  # atno 17343 bound_to 10162
  156.5981  130.8535  151.3425 LP  0  0  0  0  0  0  0  0  0  0  0  0  # atno 17370 bound_to 10713
  157.7269  130.9636  150.1676 LP  0  0  0  0  0  0  0  0  0  0  0  0  # atno 17371 bound_to 10713
  141.1258  133.9386  157.2638 LP  0  0  0  0  0  0  0  0  0  0  0  0  # atno 17394 bound_to 11000
  139.9532  135.0171  156.9054 LP  0  0  0  0  0  0  0  0  0  0  0  0  # atno 17395 bound_to 11000

$$$$
