AV-unprocessed.smi:48|AV-procd|sdf|456|dock5
  -GOLD-   2262016323D 1   1.00000     0.00000
 Structure written by MMmdl.
 30 32  0  0  0  0  0  0  0  0  1 V2000
  149.5705  140.6756  153.1309 O   0  0  0  0  0  0  0  0  0  0  0  0
  149.0324  140.4978  154.4237 C   0  0  0  0  0  0  0  0  0  0  0  0
  149.8064  139.4028  155.1731 C   0  0  2  0  0  0  0  0  0  0  0  0
  151.1924  139.7122  155.1755 O   0  0  0  0  0  0  0  0  0  0  0  0
  151.9332  138.5503  155.3696 C   0  0  1  0  0  0  0  0  0  0  0  0
  152.2397  138.4234  156.8382 N   0  0  0  0  0  0  0  0  0  0  0  0
  152.0620  139.3953  157.7572 C   0  0  0  0  0  0  0  0  0  0  0  0
  152.3495  139.1123  159.0256 N   0  0  0  0  0  0  0  0  0  0  0  0
  152.7444  137.7902  158.9281 C   0  0  0  0  0  0  0  0  0  0  0  0
  153.1791  136.8520  159.8959 C   0  0  0  0  0  0  0  0  0  0  0  0
  153.3006  137.2856  161.5619 Cl  0  0  0  0  0  0  0  0  0  0  0  0
  153.4978  135.6019  159.4865 N   0  0  0  0  0  0  0  0  0  0  0  0
  153.3927  135.2927  158.1894 C   0  0  0  0  0  0  0  0  0  0  0  0
  153.0031  136.0676  157.1715 N   0  0  0  0  0  0  0  0  0  0  0  0
  152.6803  137.3311  157.5799 C   0  0  0  0  0  0  0  0  0  0  0  0
  151.1048  137.3815  154.8083 C   0  0  2  0  0  0  0  0  0  0  0  0
  151.6952  136.8542  153.6377 O   0  0  0  0  0  0  0  0  0  0  0  0
  149.7616  138.0364  154.4714 C   0  0  1  0  0  0  0  0  0  0  0  0
  148.6893  137.2633  154.9713 O   0  0  0  0  0  0  0  0  0  0  0  0
  149.4512  139.3196  156.2005 H   0  0  0  0  0  0  0  0  0  0  0  0
  152.9152  138.6476  154.9043 H   0  0  0  0  0  0  0  0  0  0  0  0
  151.0246  136.5766  155.5381 H   0  0  0  0  0  0  0  0  0  0  0  0
  149.6527  138.1699  153.3935 H   0  0  0  0  0  0  0  0  0  0  0  0
  149.0646  140.1601  152.5215 H   0  0  0  0  0  0  0  0  0  0  0  0
  149.1272  141.4485  154.9491 H   0  0  0  0  0  0  0  0  0  0  0  0
  147.9690  140.2640  154.3653 H   0  0  0  0  0  0  0  0  0  0  0  0
  151.6973  140.3731  157.4781 H   0  0  0  0  0  0  0  0  0  0  0  0
  153.6621  134.2803  157.9278 H   0  0  0  0  0  0  0  0  0  0  0  0
  151.0091  136.6551  153.0191 H   0  0  0  0  0  0  0  0  0  0  0  0
  148.2674  136.8328  154.2434 H   0  0  0  0  0  0  0  0  0  0  0  0
  1  2  1  0  0  0  0
  1 24  1  0  0  0  0
  2  3  1  0  0  0  0
  2 25  1  0  0  0  0
  2 26  1  0  0  0  0
  3 20  1  0  0  0  0
  3 18  1  0  0  0  0
  3  4  1  0  0  0  0
  4  5  1  0  0  0  0
  5 21  1  0  0  0  0
  5  6  1  0  0  0  0
  5 16  1  0  0  0  0
  6 15  1  0  0  0  0
  6  7  1  0  0  0  0
  7  8  2  0  0  0  0
  7 27  1  0  0  0  0
  8  9  1  0  0  0  0
  9 15  2  0  0  0  0
  9 10  1  0  0  0  0
 10 11  1  0  0  0  0
 10 12  2  0  0  0  0
 12 13  1  0  0  0  0
 13 14  2  0  0  0  0
 13 28  1  0  0  0  0
 14 15  1  0  0  0  0
 16 22  1  0  0  0  0
 16 17  1  0  0  0  0
 16 18  1  0  0  0  0
 17 29  1  0  0  0  0
 18 23  1  0  0  0  0
 18 19  1  0  0  0  0
 19 30  1  0  0  0  0
M  END
> <s_m_source_file>
AV-unprocessed.smi

> <i_m_source_file_index>
48

> <i_lp_mmshare_version>
43012

> <i_f3d_flags>
0

> <s_epik_input>
W09IXVtDSDJdW0NASF0xT1tDQEhdKFtDQEhdKFtPSF0pW0NAQEhdMVtPSF0pbihbY0hdbjIpYyhjMjMpbltjSF1uYzNDbA==

> <s_epik_cmdline>
J2VwaWtfcHl0aG9uJywgJy1waCcsICc3LjAnLCAnLXRuJywgJzgnLCAnLW1hJywgJzIwMCcsICctbWV0YWxfYmluZGluZycsICctaW1hZScsICc8aW5maWxlLm1hZT4nLCAnLW9tYWUnLCAnPG91dGZpbGUubWFlPic=

> <r_lp_tautomer_probability>
1

> <r_epik_Ionization_Penalty>
3.45505e-06

> <r_epik_Ionization_Penalty_Charging>
0

> <r_epik_Ionization_Penalty_Neutral>
3.45505e-06

> <r_epik_State_Penalty>
-0

> <r_epik_Charging_Adjusted_Penalty>
0

> <i_epik_Tot_Q>
0

> <i_epik_Tot_abs_Q>
0

> <r_epik_Metal_State_Penalty>
-0

> <b_epik_Metal_Only>
0

> <s_epik_Chemistry_Notes>
This compound contains an acetal/aminal-like group ( X-CH(R)-Y where X, Y are N, S, or O) that may be acid/base labile, releasing an aldehyde.

> <s_lp_Force_Field>
OPLS_2005

> <r_lp_Energy>
32.3387

> <b_lp_Chiralities_Consistent>
1

> <s_lp_Variant>
AV-unprocessed.smi:48-10

> <Gold.Version>
5.8.1

> <Gold.Id.Protein>
6NUR|6NUR_protein|mol2

> <Gold.PLP.Fitness>
49.3485

> <Gold.PLP.PLP>
-28.5919

> <Gold.PLP.part.hbond>
-7.5069

> <Gold.PLP.part.metal>
0.0000

> <Gold.PLP.part.buried>
-2.2067

> <Gold.PLP.part.nonpolar>
-19.7999

> <Gold.PLP.part.repulsive>
0.0287

> <Gold.PLP.ligand.clash>
0.0000

> <Gold.PLP.ligand.torsion>
0.3292

> <Gold.PLP.Chemscore.Hbond>
7.1304

> <Gold.PLP.Chemscore.CHOScore>
0.0000

> <Gold.PLP.Chemscore.Metal>
0.0000

> <Gold.Chemscore.Hbonds>
donor molecule, donor type, donor heavy atom, donor atom, acceptor molecule, acceptor atom, score
      L1  H     1    24       P1  7957  0.28
      L1  H    17    29       P1  7949  0.56
      P1  H  6896  6909       L1    12  0.67
      P1  H  7989  7998       L1     4  0.88
      P1  H  8011  8017       L1     1  1.00
      P1  H 10752 10763       L1    17  1.00
      P1  H 10752 10764       L1    14  0.94

> <Gold.PLP.Chemscore.Internal.Correction>
0.0239

> <Gold.Rescore>
     Score         DG    S(hbond)    S(metal)    S(lipo)     H(rot)  DE(clash)    DE(int)     intcor
     15.42     -16.14       4.53        0.00      45.06       3.80       0.11       0.60       ----

> <Gold.Chemscore.Fitness>
15.4171

> <Gold.Chemscore.DG>
-16.1355

> <Gold.Chemscore.ZeroCoef>
-5.4800

> <Gold.Chemscore.Hbond>
4.5258

> <Gold.Chemscore.Metal>
0.0000

> <Gold.Chemscore.Lipo>
45.0573

> <Gold.Chemscore.Internal_Hbond>
0.0000

> <Gold.Chemscore.DEClash>
0.1135

> <Gold.Chemscore.DEInternal>
0.6049

> <Gold.Chemscore.Rot>
3.8017

> <Gold.Chemscore.Internal.Correction>
   9.000000E+99

> <Gold.Chemscore.Hbonds>
donor molecule, donor type, donor heavy atom, donor atom, acceptor molecule, acceptor atom, score
      L1  H     1    24       P1  7957  0.28
      L1  H    17    29       P1  7949  0.14
      P1  H  6896  6909       L1    12  0.06
      P1  H  7989  7998       L1     4  0.55
      P1  H  8011  8017       L1     1  0.55
      P1  H 10752 10763       L1    17  0.92
      P1  H 10752 10764       L1    14  0.70

> <Gold.Chemscore.Hbond.Weighted>
-15.1162

> <Gold.Chemscore.Metal.Weighted>
-0.0000

> <Gold.Chemscore.Lipo.Weighted>
-5.2717

> <Gold.Chemscore.Internal_Hbond.Weighted>
0.0000

> <Gold.Chemscore.DEClash.Weighted>
0.1135

> <Gold.Chemscore.DEInternal.Weighted>
0.6049

> <Gold.Chemscore.Rot.Weighted>
9.7324

> <Gold.Chemscore.Internal.Correction.Weighted>
   9.000000E+99

> <Gold.Protein.RotatedTorsions>
[ 6907 6896 6895 6894 ] final -168.23 input  -60.11 | X-H torsion
[ 7974 7965 7964 7962 ] final  114.22 input  175.53 | X-H torsion
[ 8008 7997 7996 7995 ] final -151.05 input   59.86 | X-H torsion
[ 10167 10162 10161 10158 ] final -119.65 input  -65.29 | X-H torsion
[ 10718 10713 10712 10709 ] final -138.70 input   66.30 | X-H torsion
[ 10763 10752 10751 10750 ] final   11.03 input  -60.55 | X-H torsion
[ 11005 11000 10999 10996 ] final -151.28 input  -57.11 | X-H torsion

> <Gold.Protein.ActiveResidues>
 VAL166  LYS551  ARG553  GLY616  TRP617  ASP618  TYR619  PRO620  LYS621  CYS622 
 ASP623  PHE694  ASN695  SER759  ASP760  ASP761  ALA762  ILE779  LEU786  VAL792 
 PHE793  MET794  SER795  GLU796  ALA797  LYS798  CYS799  TRP800  GLU811  SER814 

> <Gold.Protein.RotatedAtoms>
  151.4723  133.3566  159.2825 H   0  0  0  0  0  0  0  0  0  0  0  0  # atno 6907 bound_to 6896
  150.8953  134.8362  159.7333 H   0  0  0  0  0  0  0  0  0  0  0  0  # atno 6908 bound_to 6896
  152.4847  134.4637  159.9665 H   0  0  0  0  0  0  0  0  0  0  0  0  # atno 6909 bound_to 6896
  145.2072  139.2924  143.4287 H   0  0  0  0  0  0  0  0  0  0  0  0  # atno 7974 bound_to 7965
  155.6333  140.0694  157.2642 H   0  0  0  0  0  0  0  0  0  0  0  0  # atno 8008 bound_to 7997
  154.4201  140.1763  156.1544 H   0  0  0  0  0  0  0  0  0  0  0  0  # atno 8009 bound_to 7997
  155.9915  140.3344  155.6761 H   0  0  0  0  0  0  0  0  0  0  0  0  # atno 8010 bound_to 7997
  140.0444  143.5122  152.2114 H   0  0  0  0  0  0  0  0  0  0  0  0  # atno 10167 bound_to 10162
  156.3023  130.7436  151.1490 H   0  0  0  0  0  0  0  0  0  0  0  0  # atno 10718 bound_to 10713
  153.1969  135.6850  153.8280 H   0  0  0  0  0  0  0  0  0  0  0  0  # atno 10763 bound_to 10752
  153.7560  135.3217  155.3330 H   0  0  0  0  0  0  0  0  0  0  0  0  # atno 10764 bound_to 10752
  154.8150  135.4692  154.0718 H   0  0  0  0  0  0  0  0  0  0  0  0  # atno 10765 bound_to 10752
  140.7313  134.3618  157.5166 H   0  0  0  0  0  0  0  0  0  0  0  0  # atno 11005 bound_to 11000
  146.3405  140.2335  142.8594 LP  0  0  0  0  0  0  0  0  0  0  0  0  # atno 17320 bound_to 7965
  144.9891  140.8530  143.5350 LP  0  0  0  0  0  0  0  0  0  0  0  0  # atno 17321 bound_to 7965
  139.5993  144.7577  151.3210 LP  0  0  0  0  0  0  0  0  0  0  0  0  # atno 17342 bound_to 10162
  140.7245  143.7041  150.7821 LP  0  0  0  0  0  0  0  0  0  0  0  0  # atno 17343 bound_to 10162
  157.7371  131.0555  150.5375 LP  0  0  0  0  0  0  0  0  0  0  0  0  # atno 17370 bound_to 10713
  156.5504  130.4230  149.6110 LP  0  0  0  0  0  0  0  0  0  0  0  0  # atno 17371 bound_to 10713
  139.8826  134.9020  156.2823 LP  0  0  0  0  0  0  0  0  0  0  0  0  # atno 17394 bound_to 11000
  140.9918  133.7204  156.0826 LP  0  0  0  0  0  0  0  0  0  0  0  0  # atno 17395 bound_to 11000

$$$$
