AV-unprocessed.smi:2014|AV-procd|sdf|8161|dock5
  -GOLD-   2272010403D 1   1.00000     0.00000
 Structure written by MMmdl.
 46 48  0  0  0  0  0  0  0  0  1 V2000
  162.0057  142.8470  158.7313 C   0  0  0  0  0  0  0  0  0  0  0  0
  160.5172  142.5515  158.9640 C   0  0  2  0  0  0  0  0  0  0  0  0
  160.3219  141.4139  159.9844 C   0  0  0  0  0  0  0  0  0  0  0  0
  158.8334  141.1108  160.2188 C   0  0  0  0  0  0  0  0  0  0  0  0
  158.1078  140.7853  158.8975 C   0  0  1  0  0  0  0  0  0  0  0  0
  156.6823  140.5793  159.1335 N   0  0  0  0  0  0  0  0  0  0  0  0
  156.1593  139.7622  160.0602 C   0  0  0  0  0  0  0  0  0  0  0  0
  156.8456  139.0713  160.8151 O   0  0  0  0  0  0  0  0  0  0  0  0
  154.6250  139.7303  160.1322 C   0  0  0  0  0  0  0  0  0  0  0  0
  154.0361  140.9586  160.7099 N   0  0  0  0  0  0  0  0  0  0  0  0
  154.4268  141.3453  162.0175 C   0  0  0  0  0  0  0  0  0  0  0  0
  155.2585  140.6924  162.6504 O   0  0  0  0  0  0  0  0  0  0  0  0
  153.7692  142.5392  162.5434 C   0  0  0  0  0  0  0  0  0  0  0  0
  154.1082  142.9385  163.8689 C   0  0  0  0  0  0  0  0  0  0  0  0
  154.4033  143.2747  164.9364 N   0  0  0  0  0  0  0  0  0  0  0  0
  152.8752  143.2240  161.8008 C   0  0  0  0  0  0  0  0  0  0  0  0
  152.5404  142.8545  160.5164 N   0  0  0  0  0  0  0  0  0  0  0  0
  151.4780  143.5062  159.8036 C   0  0  0  0  0  0  0  0  0  0  0  0
  151.6512  143.8810  158.3443 C   0  0  0  0  0  0  0  0  0  0  0  0
  151.6454  144.9559  159.4036 C   0  0  0  0  0  0  0  0  0  0  0  0
  153.0742  141.6734  159.9558 C   0  0  0  0  0  0  0  0  0  0  0  0
  152.7078  141.2701  158.8492 O   0  0  0  0  0  0  0  0  0  0  0  0
  158.3042  141.9208  157.8763 C   0  0  0  0  0  0  0  0  0  0  0  0
  159.7948  142.2178  157.6447 C   0  0  0  0  0  0  0  0  0  0  0  0
  162.5235  141.9790  158.3213 H   0  0  0  0  0  0  0  0  0  0  0  0
  162.5015  143.1207  159.6631 H   0  0  0  0  0  0  0  0  0  0  0  0
  162.1372  143.6746  158.0333 H   0  0  0  0  0  0  0  0  0  0  0  0
  160.0641  143.4546  159.3760 H   0  0  0  0  0  0  0  0  0  0  0  0
  160.8229  140.5114  159.6313 H   0  0  0  0  0  0  0  0  0  0  0  0
  160.7933  141.6770  160.9320 H   0  0  0  0  0  0  0  0  0  0  0  0
  158.7382  140.2779  160.9165 H   0  0  0  0  0  0  0  0  0  0  0  0
  158.3614  141.9697  160.6987 H   0  0  0  0  0  0  0  0  0  0  0  0
  158.5345  139.8733  158.4753 H   0  0  0  0  0  0  0  0  0  0  0  0
  156.0451  141.1067  158.5544 H   0  0  0  0  0  0  0  0  0  0  0  0
  154.2297  139.5516  159.1308 H   0  0  0  0  0  0  0  0  0  0  0  0
  154.3273  138.8442  160.6946 H   0  0  0  0  0  0  0  0  0  0  0  0
  152.4050  144.0994  162.2254 H   0  0  0  0  0  0  0  0  0  0  0  0
  150.4728  143.2108  160.0994 H   0  0  0  0  0  0  0  0  0  0  0  0
  152.6037  143.6628  157.8647 H   0  0  0  0  0  0  0  0  0  0  0  0
  150.7777  143.8032  157.7005 H   0  0  0  0  0  0  0  0  0  0  0  0
  150.7685  145.5973  159.4636 H   0  0  0  0  0  0  0  0  0  0  0  0
  152.5938  145.4425  159.6229 H   0  0  0  0  0  0  0  0  0  0  0  0
  157.8315  141.6578  156.9290 H   0  0  0  0  0  0  0  0  0  0  0  0
  157.8073  142.8261  158.2286 H   0  0  0  0  0  0  0  0  0  0  0  0
  159.8958  143.0466  156.9432 H   0  0  0  0  0  0  0  0  0  0  0  0
  160.2671  141.3551  157.1725 H   0  0  0  0  0  0  0  0  0  0  0  0
  1  2  1  0  0  0  0
  1 25  1  0  0  0  0
  1 26  1  0  0  0  0
  1 27  1  0  0  0  0
  2 24  1  0  0  0  0
  2  3  1  0  0  0  0
  2 28  1  0  0  0  0
  3  4  1  0  0  0  0
  3 29  1  0  0  0  0
  3 30  1  0  0  0  0
  4  5  1  0  0  0  0
  4 31  1  0  0  0  0
  4 32  1  0  0  0  0
  5  6  1  0  0  0  0
  5 23  1  0  0  0  0
  5 33  1  0  0  0  0
  6  7  1  0  0  0  0
  6 34  1  0  0  0  0
  7  8  2  0  0  0  0
  7  9  1  0  0  0  0
  9 10  1  0  0  0  0
  9 35  1  0  0  0  0
  9 36  1  0  0  0  0
 10 21  1  0  0  0  0
 10 11  1  0  0  0  0
 11 12  2  0  0  0  0
 11 13  1  0  0  0  0
 13 14  1  0  0  0  0
 13 16  2  0  0  0  0
 14 15  3  0  0  0  0
 16 17  1  0  0  0  0
 16 37  1  0  0  0  0
 17 18  1  0  0  0  0
 17 21  1  0  0  0  0
 18 20  1  0  0  0  0
 18 19  1  0  0  0  0
 18 38  1  0  0  0  0
 19 20  1  0  0  0  0
 19 39  1  0  0  0  0
 19 40  1  0  0  0  0
 20 41  1  0  0  0  0
 20 42  1  0  0  0  0
 21 22  2  0  0  0  0
 23 24  1  0  0  0  0
 23 43  1  0  0  0  0
 23 44  1  0  0  0  0
 24 45  1  0  0  0  0
 24 46  1  0  0  0  0
M  END
> <s_m_source_file>
AV-unprocessed.smi

> <i_m_source_file_index>
2014

> <i_lp_mmshare_version>
43012

> <i_f3d_flags>
0

> <s_epik_input>
W0NIM11bQ0BASF0xW0NIMl1bQ0gyXVtDQEhdKFtDSDJdW0NIMl0xKVtOSF1DKD1PKVtDSDJdbjJjKD1PKWMoQyNOKVtjSF1uKGMyPU8pW0NIXTNbQ0gyXVtDSDJdMw==

> <s_epik_cmdline>
J2VwaWtfcHl0aG9uJywgJy1waCcsICc3LjAnLCAnLXRuJywgJzgnLCAnLW1hJywgJzIwMCcsICctbWV0YWxfYmluZGluZycsICctaW1hZScsICc8aW5maWxlLm1hZT4nLCAnLW9tYWUnLCAnPG91dGZpbGUubWFlPic=

> <r_lp_tautomer_probability>
1

> <r_epik_Ionization_Penalty>
1.91358e-08

> <r_epik_Ionization_Penalty_Charging>
8.89021e-11

> <r_epik_Ionization_Penalty_Neutral>
1.90469e-08

> <r_epik_State_Penalty>
-0

> <r_epik_Charging_Adjusted_Penalty>
8.89021e-11

> <i_epik_Tot_Q>
0

> <i_epik_Tot_abs_Q>
0

> <r_epik_Metal_State_Penalty>
-0

> <b_epik_Metal_Only>
0

> <s_lp_Force_Field>
OPLS_2005

> <r_lp_Energy>
34.0792

> <b_lp_Chiralities_Consistent>
1

> <s_lp_Variant>
AV-unprocessed.smi:2014-1

> <Gold.Version>
5.8.1

> <Gold.Id.Protein>
6NUR|6NUR_protein|mol2

> <Gold.PLP.Fitness>
54.4680

> <Gold.PLP.PLP>
-54.9980

> <Gold.PLP.part.hbond>
-1.7244

> <Gold.PLP.part.metal>
0.0000

> <Gold.PLP.part.buried>
-1.1761

> <Gold.PLP.part.nonpolar>
-51.4149

> <Gold.PLP.part.repulsive>
0.7143

> <Gold.PLP.ligand.clash>
0.0000

> <Gold.PLP.ligand.torsion>
0.3697

> <Gold.PLP.Chemscore.Hbond>
0.0000

> <Gold.PLP.Chemscore.CHOScore>
0.0000

> <Gold.PLP.Chemscore.Metal>
0.0000

> <Gold.PLP.Chemscore.Internal.Correction>
0.2093

> <Gold.Rescore>
     Score         DG    S(hbond)    S(metal)    S(lipo)     H(rot)  DE(clash)    DE(int)     intcor
      8.11     -15.86       0.54        0.00     110.46       1.70       1.53       6.22       ----

> <Gold.Chemscore.Fitness>
8.1111

> <Gold.Chemscore.DG>
-15.8602

> <Gold.Chemscore.ZeroCoef>
-5.4800

> <Gold.Chemscore.Hbond>
0.5445

> <Gold.Chemscore.Metal>
0.0000

> <Gold.Chemscore.Lipo>
110.4567

> <Gold.Chemscore.Internal_Hbond>
0.0000

> <Gold.Chemscore.DEClash>
1.5278

> <Gold.Chemscore.DEInternal>
6.2212

> <Gold.Chemscore.Rot>
1.7038

> <Gold.Chemscore.Internal.Correction>
   9.000000E+99

> <Gold.Chemscore.Hbond.Weighted>
-1.8185

> <Gold.Chemscore.Metal.Weighted>
-0.0000

> <Gold.Chemscore.Lipo.Weighted>
-12.9234

> <Gold.Chemscore.Internal_Hbond.Weighted>
0.0000

> <Gold.Chemscore.DEClash.Weighted>
1.5278

> <Gold.Chemscore.DEInternal.Weighted>
6.2212

> <Gold.Chemscore.Rot.Weighted>
4.3618

> <Gold.Chemscore.Internal.Correction.Weighted>
   9.000000E+99

> <Gold.Protein.RotatedTorsions>
[ 6907 6896 6895 6894 ] final -104.81 input  -60.11 | X-H torsion
[ 7974 7965 7964 7962 ] final  -16.78 input  175.53 | X-H torsion
[ 8008 7997 7996 7995 ] final  -97.32 input   59.86 | X-H torsion
[ 10167 10162 10161 10158 ] final  171.45 input  -65.29 | X-H torsion
[ 10718 10713 10712 10709 ] final  -64.20 input   66.30 | X-H torsion
[ 10763 10752 10751 10750 ] final   68.93 input  -60.55 | X-H torsion
[ 11005 11000 10999 10996 ] final -131.84 input  -57.11 | X-H torsion

> <Gold.Protein.ActiveResidues>
 VAL166  LYS551  ARG553  GLY616  TRP617  ASP618  TYR619  PRO620  LYS621  CYS622 
 ASP623  PHE694  ASN695  SER759  ASP760  ASP761  ALA762  ILE779  LEU786  VAL792 
 PHE793  MET794  SER795  GLU796  ALA797  LYS798  CYS799  TRP800  GLU811  SER814 

> <Gold.Protein.RotatedAtoms>
  150.7305  134.0222  159.3704 H   0  0  0  0  0  0  0  0  0  0  0  0  # atno 6907 bound_to 6896
  151.8187  135.0656  160.0431 H   0  0  0  0  0  0  0  0  0  0  0  0  # atno 6908 bound_to 6896
  152.3019  133.5628  159.5660 H   0  0  0  0  0  0  0  0  0  0  0  0  # atno 6909 bound_to 6896
  146.1971  140.3686  142.8436 H   0  0  0  0  0  0  0  0  0  0  0  0  # atno 7974 bound_to 7965
  154.7862  140.0464  157.1166 H   0  0  0  0  0  0  0  0  0  0  0  0  # atno 8008 bound_to 7997
  154.9645  140.3081  155.4996 H   0  0  0  0  0  0  0  0  0  0  0  0  # atno 8009 bound_to 7997
  156.2943  140.2264  156.4733 H   0  0  0  0  0  0  0  0  0  0  0  0  # atno 8010 bound_to 7997
  139.5047  144.3484  151.9947 H   0  0  0  0  0  0  0  0  0  0  0  0  # atno 10167 bound_to 10162
  156.0744  130.4230  150.1385 H   0  0  0  0  0  0  0  0  0  0  0  0  # atno 10718 bound_to 10713
  153.0261  135.5229  154.7210 H   0  0  0  0  0  0  0  0  0  0  0  0  # atno 10763 bound_to 10752
  154.6266  135.2895  155.0268 H   0  0  0  0  0  0  0  0  0  0  0  0  # atno 10764 bound_to 10752
  154.1235  135.6604  153.4960 H   0  0  0  0  0  0  0  0  0  0  0  0  # atno 10765 bound_to 10752
  140.9223  134.1428  157.4304 H   0  0  0  0  0  0  0  0  0  0  0  0  # atno 11005 bound_to 11000
  144.8604  140.7131  143.6111 LP  0  0  0  0  0  0  0  0  0  0  0  0  # atno 17320 bound_to 7965
  145.3606  139.1683  143.4385 LP  0  0  0  0  0  0  0  0  0  0  0  0  # atno 17321 bound_to 7965
  140.2921  144.3742  150.6085 LP  0  0  0  0  0  0  0  0  0  0  0  0  # atno 17342 bound_to 10162
  140.5938  143.2167  151.7202 LP  0  0  0  0  0  0  0  0  0  0  0  0  # atno 17343 bound_to 10162
  156.9430  130.9750  151.3512 LP  0  0  0  0  0  0  0  0  0  0  0  0  # atno 17370 bound_to 10713
  157.5832  130.8391  149.8551 LP  0  0  0  0  0  0  0  0  0  0  0  0  # atno 17371 bound_to 10713
  139.8778  134.9976  156.5853 LP  0  0  0  0  0  0  0  0  0  0  0  0  # atno 17394 bound_to 11000
  140.7972  133.8534  155.8696 LP  0  0  0  0  0  0  0  0  0  0  0  0  # atno 17395 bound_to 11000

$$$$
