AV-unprocessed.smi:2900|AV-procd|sdf|11148|dock9
  -GOLD-   2272016 23D 1   1.00000     0.00000
 Structure written by MMmdl.
 35 36  0  0  0  0  0  0  0  0  1 V2000
  147.3256  138.7364  154.2490 O   0  0  0  0  0  0  0  0  0  0  0  0
  146.5954  139.6916  154.5107 C   0  0  0  0  0  0  0  0  0  0  0  0
  145.2156  139.5437  154.9669 C   0  0  0  0  0  0  0  0  0  0  0  0
  144.4389  140.6139  155.2392 C   0  0  0  0  0  0  0  0  0  0  0  0
  144.9808  141.9521  155.0737 C   0  0  0  0  0  0  0  0  0  0  0  0
  144.1954  143.2101  155.3514 C   0  0  0  0  0  0  0  0  0  0  0  0
  142.9166  142.9316  155.6057 F   0  0  0  0  0  0  0  0  0  0  0  0
  144.7081  143.8455  156.4056 F   0  0  0  0  0  0  0  0  0  0  0  0
  144.2497  144.0264  154.2984 F   0  0  0  0  0  0  0  0  0  0  0  0
  146.2020  142.0895  154.6685 N   0  0  0  0  0  0  0  0  0  0  0  0
  147.0012  140.9904  154.4029 N   0  0  0  0  0  0  0  0  0  0  0  0
  148.3638  141.3285  153.9711 C   0  0  0  0  0  0  0  0  0  0  0  0
  149.4545  140.6919  154.8621 C   0  0  1  0  0  0  0  0  0  0  0  0
  150.3684  140.0428  154.0019 O   0  0  0  0  0  0  0  0  0  0  0  0
  150.2329  141.7158  155.7076 C   0  0  0  0  0  0  0  0  0  0  0  0
  150.8170  141.0451  156.8161 O   0  0  0  0  0  0  0  0  0  0  0  0
  151.2812  141.8055  157.8679 C   0  0  0  0  0  0  0  0  0  0  0  0
  151.8474  141.1115  158.9573 C   0  0  0  0  0  0  0  0  0  0  0  0
  152.3468  141.8074  160.0751 C   0  0  0  0  0  0  0  0  0  0  0  0
  152.2833  143.2123  160.1151 C   0  0  0  0  0  0  0  0  0  0  0  0
  151.7202  143.9178  159.0357 C   0  0  0  0  0  0  0  0  0  0  0  0
  151.2216  143.2218  157.9170 C   0  0  0  0  0  0  0  0  0  0  0  0
  144.8084  138.5509  155.0907 H   0  0  0  0  0  0  0  0  0  0  0  0
  143.4218  140.4799  155.5760 H   0  0  0  0  0  0  0  0  0  0  0  0
  148.4971  141.0086  152.9358 H   0  0  0  0  0  0  0  0  0  0  0  0
  148.4939  142.4127  153.9536 H   0  0  0  0  0  0  0  0  0  0  0  0
  149.0041  139.9419  155.5130 H   0  0  0  0  0  0  0  0  0  0  0  0
  149.9618  139.9464  153.1541 H   0  0  0  0  0  0  0  0  0  0  0  0
  150.9848  142.2268  155.1034 H   0  0  0  0  0  0  0  0  0  0  0  0
  149.5487  142.4699  156.0965 H   0  0  0  0  0  0  0  0  0  0  0  0
  151.9004  140.0330  158.9351 H   0  0  0  0  0  0  0  0  0  0  0  0
  152.7786  141.2624  160.9017 H   0  0  0  0  0  0  0  0  0  0  0  0
  152.6652  143.7475  160.9719 H   0  0  0  0  0  0  0  0  0  0  0  0
  151.6700  144.9962  159.0650 H   0  0  0  0  0  0  0  0  0  0  0  0
  150.7974  143.7990  157.1097 H   0  0  0  0  0  0  0  0  0  0  0  0
  1  2  2  0  0  0  0
  2 11  1  0  0  0  0
  2  3  1  0  0  0  0
  3  4  2  0  0  0  0
  3 23  1  0  0  0  0
  4  5  1  0  0  0  0
  4 24  1  0  0  0  0
  5  6  1  0  0  0  0
  5 10  2  0  0  0  0
  6  7  1  0  0  0  0
  6  8  1  0  0  0  0
  6  9  1  0  0  0  0
 10 11  1  0  0  0  0
 11 12  1  0  0  0  0
 12 13  1  0  0  0  0
 12 25  1  0  0  0  0
 12 26  1  0  0  0  0
 13 14  1  0  0  0  0
 13 15  1  0  0  0  0
 13 27  1  0  0  0  0
 14 28  1  0  0  0  0
 15 16  1  0  0  0  0
 15 29  1  0  0  0  0
 15 30  1  0  0  0  0
 16 17  1  0  0  0  0
 17 22  1  0  0  0  0
 17 18  2  0  0  0  0
 18 19  1  0  0  0  0
 18 31  1  0  0  0  0
 19 20  2  0  0  0  0
 19 32  1  0  0  0  0
 20 21  1  0  0  0  0
 20 33  1  0  0  0  0
 21 22  2  0  0  0  0
 21 34  1  0  0  0  0
 22 35  1  0  0  0  0
M  END
> <s_m_source_file>
AV-unprocessed.smi

> <i_m_source_file_index>
2900

> <i_lp_mmshare_version>
43012

> <i_f3d_flags>
0

> <s_epik_input>
Tz1jMVtjSF1bY0hdYyhDKEYpKEYpRilubjFbQ0gyXVtDQEhdKFtPSF0pW0NIMl1PYzJbY0hdW2NIXVtjSF1bY0hdW2NIXTI=

> <s_epik_cmdline>
J2VwaWtfcHl0aG9uJywgJy1waCcsICc3LjAnLCAnLXRuJywgJzgnLCAnLW1hJywgJzIwMCcsICctbWV0YWxfYmluZGluZycsICctaW1hZScsICc8aW5maWxlLm1hZT4nLCAnLW9tYWUnLCAnPG91dGZpbGUubWFlPic=

> <r_lp_tautomer_probability>
1

> <r_epik_Ionization_Penalty>
1.22578e-07

> <r_epik_Ionization_Penalty_Charging>
5.40425e-09

> <r_epik_Ionization_Penalty_Neutral>
1.17174e-07

> <r_epik_State_Penalty>
-0

> <r_epik_Charging_Adjusted_Penalty>
5.40425e-09

> <i_epik_Tot_Q>
0

> <i_epik_Tot_abs_Q>
0

> <r_epik_Metal_State_Penalty>
-0

> <b_epik_Metal_Only>
0

> <s_lp_Force_Field>
OPLS_2005

> <r_lp_Energy>
32.4131

> <b_lp_Chiralities_Consistent>
1

> <s_lp_Variant>
AV-unprocessed.smi:2900-2

> <Gold.Version>
5.8.1

> <Gold.Id.Protein>
6NUR|6NUR_protein|mol2

> <Gold.PLP.Fitness>
43.0783

> <Gold.PLP.PLP>
-39.3828

> <Gold.PLP.part.hbond>
-2.0000

> <Gold.PLP.part.metal>
0.0000

> <Gold.PLP.part.buried>
-5.2255

> <Gold.PLP.part.nonpolar>
-31.7876

> <Gold.PLP.part.repulsive>
0.3149

> <Gold.PLP.ligand.clash>
0.0000

> <Gold.PLP.ligand.torsion>
1.1713

> <Gold.PLP.Chemscore.Hbond>
2.0000

> <Gold.PLP.Chemscore.CHOScore>
0.0000

> <Gold.PLP.Chemscore.Metal>
0.0000

> <Gold.Chemscore.Hbonds>
donor molecule, donor type, donor heavy atom, donor atom, acceptor molecule, acceptor atom, score
      L1  H    14    28       P1  7957  1.00
      P1  H  7989  7998       L1    14  0.75

> <Gold.PLP.Chemscore.Internal.Correction>
0.0382

> <Gold.Rescore>
     Score         DG    S(hbond)    S(metal)    S(lipo)     H(rot)  DE(clash)    DE(int)     intcor
     12.72     -14.17       1.46        0.00      90.28       2.63       0.35       1.10       ----

> <Gold.Chemscore.Fitness>
12.7218

> <Gold.Chemscore.DG>
-14.1710

> <Gold.Chemscore.ZeroCoef>
-5.4800

> <Gold.Chemscore.Hbond>
1.4583

> <Gold.Chemscore.Metal>
0.0000

> <Gold.Chemscore.Lipo>
90.2755

> <Gold.Chemscore.Internal_Hbond>
0.0000

> <Gold.Chemscore.DEClash>
0.3531

> <Gold.Chemscore.DEInternal>
1.0961

> <Gold.Chemscore.Rot>
2.6336

> <Gold.Chemscore.Internal.Correction>
   9.000000E+99

> <Gold.Chemscore.Hbonds>
donor molecule, donor type, donor heavy atom, donor atom, acceptor molecule, acceptor atom, score
      L1  H    14    28       P1  7957  0.94
      P1  H  7989  7998       L1    14  0.08

> <Gold.Chemscore.Hbond.Weighted>
-4.8707

> <Gold.Chemscore.Metal.Weighted>
-0.0000

> <Gold.Chemscore.Lipo.Weighted>
-10.5622

> <Gold.Chemscore.Internal_Hbond.Weighted>
0.0000

> <Gold.Chemscore.DEClash.Weighted>
0.3531

> <Gold.Chemscore.DEInternal.Weighted>
1.0961

> <Gold.Chemscore.Rot.Weighted>
6.7420

> <Gold.Chemscore.Internal.Correction.Weighted>
   9.000000E+99

> <Gold.Protein.RotatedTorsions>
[ 6907 6896 6895 6894 ] final  104.01 input  -60.11 | X-H torsion
[ 7974 7965 7964 7962 ] final  -51.89 input  175.53 | X-H torsion
[ 8008 7997 7996 7995 ] final  133.44 input   59.86 | X-H torsion
[ 10167 10162 10161 10158 ] final   50.99 input  -65.29 | X-H torsion
[ 10718 10713 10712 10709 ] final  -72.07 input   66.30 | X-H torsion
[ 10763 10752 10751 10750 ] final  159.14 input  -60.55 | X-H torsion
[ 11005 11000 10999 10996 ] final   93.85 input  -57.11 | X-H torsion

> <Gold.Protein.ActiveResidues>
 VAL166  LYS551  ARG553  GLY616  TRP617  ASP618  TYR619  PRO620  LYS621  CYS622 
 ASP623  PHE694  ASN695  SER759  ASP760  ASP761  ALA762  ILE779  LEU786  VAL792 
 PHE793  MET794  SER795  GLU796  ALA797  LYS798  CYS799  TRP800  GLU811  SER814 

> <Gold.Protein.RotatedAtoms>
  152.5278  133.9740  159.7775 H   0  0  0  0  0  0  0  0  0  0  0  0  # atno 6907 bound_to 6896
  151.0006  133.6051  159.2702 H   0  0  0  0  0  0  0  0  0  0  0  0  # atno 6908 bound_to 6896
  151.3162  135.0813  159.9343 H   0  0  0  0  0  0  0  0  0  0  0  0  # atno 6909 bound_to 6896
  145.9140  140.7891  142.9681 H   0  0  0  0  0  0  0  0  0  0  0  0  # atno 7974 bound_to 7965
  156.2992  140.2521  156.3253 H   0  0  0  0  0  0  0  0  0  0  0  0  # atno 8008 bound_to 7997
  154.9196  140.0401  157.2010 H   0  0  0  0  0  0  0  0  0  0  0  0  # atno 8009 bound_to 7997
  154.8324  140.2878  155.5718 H   0  0  0  0  0  0  0  0  0  0  0  0  # atno 8010 bound_to 7997
  140.2666  144.3313  150.6302 H   0  0  0  0  0  0  0  0  0  0  0  0  # atno 10167 bound_to 10162
  156.0335  130.4364  150.2538 H   0  0  0  0  0  0  0  0  0  0  0  0  # atno 10718 bound_to 10713
  154.2271  135.2780  155.2903 H   0  0  0  0  0  0  0  0  0  0  0  0  # atno 10763 bound_to 10752
  154.5654  135.5634  153.7049 H   0  0  0  0  0  0  0  0  0  0  0  0  # atno 10764 bound_to 10752
  153.0028  135.6308  154.2412 H   0  0  0  0  0  0  0  0  0  0  0  0  # atno 10765 bound_to 10752
  139.8805  134.8813  156.3778 H   0  0  0  0  0  0  0  0  0  0  0  0  # atno 11005 bound_to 11000
  144.6746  140.1871  143.7400 LP  0  0  0  0  0  0  0  0  0  0  0  0  # atno 17320 bound_to 7965
  145.8635  139.2235  143.1703 LP  0  0  0  0  0  0  0  0  0  0  0  0  # atno 17321 bound_to 7965
  140.5923  143.2167  151.7229 LP  0  0  0  0  0  0  0  0  0  0  0  0  # atno 17342 bound_to 10162
  139.5001  144.3920  152.0270 LP  0  0  0  0  0  0  0  0  0  0  0  0  # atno 17343 bound_to 10162
  157.0639  131.0098  151.3213 LP  0  0  0  0  0  0  0  0  0  0  0  0  # atno 17370 bound_to 10713
  157.5050  130.7903  149.7644 LP  0  0  0  0  0  0  0  0  0  0  0  0  # atno 17371 bound_to 10713
  140.9420  133.7508  156.0158 LP  0  0  0  0  0  0  0  0  0  0  0  0  # atno 17394 bound_to 11000
  140.8208  134.3291  157.5382 LP  0  0  0  0  0  0  0  0  0  0  0  0  # atno 17395 bound_to 11000

$$$$
