AV-unprocessed.smi:1880|AV-procd|sdf|7636|dock7
  -GOLD-   22720 9363D 1   1.00000     0.00000
 Structure written by MMmdl.
 36 38  0  0  0  0  0  0  0  0  1 V2000
  151.1059  140.4936  155.0762 O   0  0  0  0  0  0  0  0  0  0  0  0
  150.7066  141.3062  156.1627 C   0  0  1  0  0  0  0  0  0  0  0  0
  149.2705  140.9231  156.5521 C   0  0  0  0  0  0  0  0  0  0  0  0
  148.3666  141.5437  155.6530 O   0  0  0  0  0  0  0  0  0  0  0  0
  147.0113  141.2849  155.9760 C   0  0  0  0  0  0  0  0  0  0  0  0
  146.1994  142.3091  155.2588 C   0  0  0  0  0  0  0  0  0  0  0  0
  146.1525  142.7312  153.9588 C   0  0  0  0  0  0  0  0  0  0  0  0
  145.1576  143.7461  153.9025 C   0  0  0  0  0  0  0  0  0  0  0  0
  144.6715  143.8673  155.1732 C   0  0  0  0  0  0  0  0  0  0  0  0
  145.2964  142.9973  156.0130 O   0  0  0  0  0  0  0  0  0  0  0  0
  151.6919  141.1048  157.3305 C   0  0  0  0  0  0  0  0  0  0  0  0
  151.6067  142.1641  158.3206 N   0  0  0  0  0  0  0  0  0  0  0  0
  150.8518  143.2771  158.2509 C   0  0  0  0  0  0  0  0  0  0  0  0
  150.9201  144.1253  159.2729 N   0  0  0  0  0  0  0  0  0  0  0  0
  151.8265  143.4891  160.1038 C   0  0  0  0  0  0  0  0  0  0  0  0
  152.3381  143.8698  161.3648 C   0  0  0  0  0  0  0  0  0  0  0  0
  153.2686  143.0495  162.0363 C   0  0  0  0  0  0  0  0  0  0  0  0
  153.7489  143.4292  163.2442 F   0  0  0  0  0  0  0  0  0  0  0  0
  153.7009  141.8376  161.4575 C   0  0  0  0  0  0  0  0  0  0  0  0
  154.5947  141.0563  162.1087 F   0  0  0  0  0  0  0  0  0  0  0  0
  153.2042  141.4371  160.2023 C   0  0  0  0  0  0  0  0  0  0  0  0
  152.2757  142.2585  159.5364 C   0  0  0  0  0  0  0  0  0  0  0  0
  151.2606  139.6189  155.3998 H   0  0  0  0  0  0  0  0  0  0  0  0
  150.7345  142.3517  155.8519 H   0  0  0  0  0  0  0  0  0  0  0  0
  149.1402  139.8394  156.5658 H   0  0  0  0  0  0  0  0  0  0  0  0
  149.0542  141.2867  157.5580 H   0  0  0  0  0  0  0  0  0  0  0  0
  146.7243  140.2809  155.6597 H   0  0  0  0  0  0  0  0  0  0  0  0
  146.8496  141.3597  157.0522 H   0  0  0  0  0  0  0  0  0  0  0  0
  146.7587  142.3545  153.1485 H   0  0  0  0  0  0  0  0  0  0  0  0
  144.8378  144.3146  153.0417 H   0  0  0  0  0  0  0  0  0  0  0  0
  143.9180  144.4906  155.6317 H   0  0  0  0  0  0  0  0  0  0  0  0
  151.4914  140.1574  157.8324 H   0  0  0  0  0  0  0  0  0  0  0  0
  152.7173  141.0496  156.9625 H   0  0  0  0  0  0  0  0  0  0  0  0
  150.2161  143.4759  157.4003 H   0  0  0  0  0  0  0  0  0  0  0  0
  152.0147  144.7955  161.8172 H   0  0  0  0  0  0  0  0  0  0  0  0
  153.5350  140.5114  159.7555 H   0  0  0  0  0  0  0  0  0  0  0  0
  1  2  1  0  0  0  0
  1 23  1  0  0  0  0
  2  3  1  0  0  0  0
  2 11  1  0  0  0  0
  2 24  1  0  0  0  0
  3  4  1  0  0  0  0
  3 25  1  0  0  0  0
  3 26  1  0  0  0  0
  4  5  1  0  0  0  0
  5  6  1  0  0  0  0
  5 27  1  0  0  0  0
  5 28  1  0  0  0  0
  6 10  1  0  0  0  0
  6  7  2  0  0  0  0
  7  8  1  0  0  0  0
  7 29  1  0  0  0  0
  8  9  2  0  0  0  0
  8 30  1  0  0  0  0
  9 10  1  0  0  0  0
  9 31  1  0  0  0  0
 11 12  1  0  0  0  0
 11 32  1  0  0  0  0
 11 33  1  0  0  0  0
 12 22  1  0  0  0  0
 12 13  1  0  0  0  0
 13 14  2  0  0  0  0
 13 34  1  0  0  0  0
 14 15  1  0  0  0  0
 15 22  2  0  0  0  0
 15 16  1  0  0  0  0
 16 17  2  0  0  0  0
 16 35  1  0  0  0  0
 17 18  1  0  0  0  0
 17 19  1  0  0  0  0
 19 20  1  0  0  0  0
 19 21  2  0  0  0  0
 21 22  1  0  0  0  0
 21 36  1  0  0  0  0
M  END
> <s_m_source_file>
AV-unprocessed.smi

> <i_m_source_file_index>
1880

> <i_lp_mmshare_version>
43012

> <i_f3d_flags>
0

> <s_epik_input>
W2NIXTFjKEYpYyhGKVtjSF1jKGMxMiluKFtjSF1uMilbQ0gyXVtDQEhdKFtPSF0pW0NIMl1PW0NIMl1jM1tjSF1bY0hdW2NIXW8z

> <s_epik_cmdline>
J2VwaWtfcHl0aG9uJywgJy1waCcsICc3LjAnLCAnLXRuJywgJzgnLCAnLW1hJywgJzIwMCcsICctbWV0YWxfYmluZGluZycsICctaW1hZScsICc8aW5maWxlLm1hZT4nLCAnLW9tYWUnLCAnPG91dGZpbGUubWFlPic=

> <r_epik_Ionization_Penalty>
0.0152348

> <r_epik_Ionization_Penalty_Charging>
0

> <r_epik_Ionization_Penalty_Neutral>
0.0152348

> <r_epik_State_Penalty>
0.0119607

> <r_epik_Charging_Adjusted_Penalty>
0.0119607

> <i_epik_Tot_Q>
0

> <i_epik_Tot_abs_Q>
0

> <r_epik_Metal_State_Penalty>
1.20821e-05

> <b_epik_Metal_Only>
0

> <s_lp_Force_Field>
OPLS_2005

> <r_lp_Energy>
7.94545

> <b_lp_Chiralities_Consistent>
1

> <s_lp_Variant>
AV-unprocessed.smi:1880-2

> <Gold.Version>
5.8.1

> <Gold.Id.Protein>
6NUR|6NUR_protein|mol2

> <Gold.PLP.Fitness>
55.8853

> <Gold.PLP.PLP>
-50.8775

> <Gold.PLP.part.hbond>
-1.0000

> <Gold.PLP.part.metal>
0.0000

> <Gold.PLP.part.buried>
-7.7459

> <Gold.PLP.part.nonpolar>
-42.3095

> <Gold.PLP.part.repulsive>
0.3801

> <Gold.PLP.ligand.clash>
0.0000

> <Gold.PLP.ligand.torsion>
0.5064

> <Gold.PLP.Chemscore.Hbond>
0.9920

> <Gold.PLP.Chemscore.CHOScore>
1.0000

> <Gold.PLP.Chemscore.Metal>
0.0000

> <Gold.Chemscore.Hbonds>
donor molecule, donor type, donor heavy atom, donor atom, acceptor molecule, acceptor atom, score
      P1  H  7989  7998       L1     1  0.99
      L1  C    13    34       P1  8028  1.00

> <Gold.PLP.Chemscore.Internal.Correction>
0.0446

> <Gold.Rescore>
     Score         DG    S(hbond)    S(metal)    S(lipo)     H(rot)  DE(clash)    DE(int)     intcor
     13.73     -14.15       0.96        0.00     109.07       2.85       0.09       0.33       ----

> <Gold.Chemscore.Fitness>
13.7339

> <Gold.Chemscore.DG>
-14.1541

> <Gold.Chemscore.ZeroCoef>
-5.4800

> <Gold.Chemscore.Hbond>
0.9620

> <Gold.Chemscore.Metal>
0.0000

> <Gold.Chemscore.Lipo>
109.0734

> <Gold.Chemscore.Internal_Hbond>
0.0000

> <Gold.Chemscore.DEClash>
0.0928

> <Gold.Chemscore.DEInternal>
0.3274

> <Gold.Chemscore.Rot>
2.8518

> <Gold.Chemscore.Internal.Correction>
   9.000000E+99

> <Gold.Chemscore.Hbonds>
donor molecule, donor type, donor heavy atom, donor atom, acceptor molecule, acceptor atom, score
      P1  H  7989  7998       L1     1  0.91

> <Gold.Chemscore.Hbond.Weighted>
-3.2130

> <Gold.Chemscore.Metal.Weighted>
-0.0000

> <Gold.Chemscore.Lipo.Weighted>
-12.7616

> <Gold.Chemscore.Internal_Hbond.Weighted>
0.0000

> <Gold.Chemscore.DEClash.Weighted>
0.0928

> <Gold.Chemscore.DEInternal.Weighted>
0.3274

> <Gold.Chemscore.Rot.Weighted>
7.3005

> <Gold.Chemscore.Internal.Correction.Weighted>
   9.000000E+99

> <Gold.Protein.RotatedTorsions>
[ 6907 6896 6895 6894 ] final   85.52 input  -60.11 | X-H torsion
[ 7974 7965 7964 7962 ] final   40.67 input  175.53 | X-H torsion
[ 8008 7997 7996 7995 ] final  170.88 input   59.86 | X-H torsion
[ 10167 10162 10161 10158 ] final  -78.75 input  -65.29 | X-H torsion
[ 10718 10713 10712 10709 ] final -108.26 input   66.30 | X-H torsion
[ 10763 10752 10751 10750 ] final  114.29 input  -60.55 | X-H torsion
[ 11005 11000 10999 10996 ] final  -14.64 input  -57.11 | X-H torsion

> <Gold.Protein.ActiveResidues>
 VAL166  LYS551  ARG553  GLY616  TRP617  ASP618  TYR619  PRO620  LYS621  CYS622 
 ASP623  PHE694  ASN695  SER759  ASP760  ASP761  ALA762  ILE779  LEU786  VAL792 
 PHE793  MET794  SER795  GLU796  ALA797  LYS798  CYS799  TRP800  GLU811  SER814 

> <Gold.Protein.RotatedAtoms>
  152.5376  134.2574  159.8921 H   0  0  0  0  0  0  0  0  0  0  0  0  # atno 6907 bound_to 6896
  151.2535  133.4331  159.2620 H   0  0  0  0  0  0  0  0  0  0  0  0  # atno 6908 bound_to 6896
  151.0518  134.9692  159.8271 H   0  0  0  0  0  0  0  0  0  0  0  0  # atno 6909 bound_to 6896
  146.0886  139.5506  142.9490 H   0  0  0  0  0  0  0  0  0  0  0  0  # atno 7974 bound_to 7965
  156.1323  140.1526  156.9046 H   0  0  0  0  0  0  0  0  0  0  0  0  # atno 8008 bound_to 7997
  154.4919  140.0849  156.7653 H   0  0  0  0  0  0  0  0  0  0  0  0  # atno 8009 bound_to 7997
  155.4232  140.3424  155.4275 H   0  0  0  0  0  0  0  0  0  0  0  0  # atno 8010 bound_to 7997
  140.4654  143.2441  151.8285 H   0  0  0  0  0  0  0  0  0  0  0  0  # atno 10167 bound_to 10162
  156.0477  130.5704  150.7936 H   0  0  0  0  0  0  0  0  0  0  0  0  # atno 10718 bound_to 10713
  153.5051  135.3630  155.2559 H   0  0  0  0  0  0  0  0  0  0  0  0  # atno 10763 bound_to 10752
  154.8745  135.4009  154.3434 H   0  0  0  0  0  0  0  0  0  0  0  0  # atno 10764 bound_to 10752
  153.4077  135.7077  153.6448 H   0  0  0  0  0  0  0  0  0  0  0  0  # atno 10765 bound_to 10752
  140.7884  133.8307  155.9357 H   0  0  0  0  0  0  0  0  0  0  0  0  # atno 11005 bound_to 11000
  145.6082  141.0344  143.1981 LP  0  0  0  0  0  0  0  0  0  0  0  0  # atno 17320 bound_to 7965
  144.7344  139.7630  143.7335 LP  0  0  0  0  0  0  0  0  0  0  0  0  # atno 17321 bound_to 7965
  139.4811  144.4957  151.9127 LP  0  0  0  0  0  0  0  0  0  0  0  0  # atno 17342 bound_to 10162
  140.4042  144.2453  150.5891 LP  0  0  0  0  0  0  0  0  0  0  0  0  # atno 17343 bound_to 10162
  157.5369  131.0939  150.9880 LP  0  0  0  0  0  0  0  0  0  0  0  0  # atno 17370 bound_to 10713
  157.0172  130.5659  149.5327 LP  0  0  0  0  0  0  0  0  0  0  0  0  # atno 17371 bound_to 10713
  140.9413  134.1897  157.4795 LP  0  0  0  0  0  0  0  0  0  0  0  0  # atno 17394 bound_to 11000
  139.8734  134.9873  156.5362 LP  0  0  0  0  0  0  0  0  0  0  0  0  # atno 17395 bound_to 11000

$$$$
