AV-unprocessed.smi:2545|AV-procd|sdf|9996|dock3
  -GOLD-   2272014 43D 1   1.00000     0.00000
 Structure written by MMmdl.
 26 27  0  0  0  0  0  0  0  0  1 V2000
  143.5389  137.8975  152.4533 N   0  0  0  0  0  0  0  0  0  0  0  0
  142.5754  137.0227  152.9589 C   0  0  0  0  0  0  0  0  0  0  0  0
  141.3599  137.5356  153.4532 C   0  0  0  0  0  0  0  0  0  0  0  0
  140.4035  136.6332  153.9582 C   0  0  0  0  0  0  0  0  0  0  0  0
  140.5911  135.2976  153.9938 N   0  0  0  0  0  0  0  0  0  0  0  0
  141.7574  134.8116  153.5190 C   0  0  0  0  0  0  0  0  0  0  0  0
  142.7887  135.6233  152.9886 C   0  0  0  0  0  0  0  0  0  0  0  0
  143.9860  135.0672  152.5082 N   0  0  0  0  0  0  0  0  0  0  0  0
  144.8468  134.5427  153.5606 C   0  0  0  0  0  0  0  0  0  0  0  0
  146.1852  134.0774  152.9607 C   0  0  0  0  0  0  0  0  0  0  0  0
  145.9411  133.1234  151.9305 O   0  0  0  0  0  0  0  0  0  0  0  0
  145.1611  133.6689  150.8698 C   0  0  0  0  0  0  0  0  0  0  0  0
  143.7954  134.1227  151.4147 C   0  0  0  0  0  0  0  0  0  0  0  0
  144.4212  137.5659  152.0910 H   0  0  0  0  0  0  0  0  0  0  0  0
  143.3754  138.8939  152.4285 H   0  0  0  0  0  0  0  0  0  0  0  0
  141.1596  138.5971  153.4479 H   0  0  0  0  0  0  0  0  0  0  0  0
  139.4620  136.9950  154.3445 H   0  0  0  0  0  0  0  0  0  0  0  0
  141.8694  133.7381  153.5661 H   0  0  0  0  0  0  0  0  0  0  0  0
  145.0211  135.3123  154.3138 H   0  0  0  0  0  0  0  0  0  0  0  0
  144.3561  133.7059  154.0596 H   0  0  0  0  0  0  0  0  0  0  0  0
  146.7474  134.9233  152.5618 H   0  0  0  0  0  0  0  0  0  0  0  0
  146.8041  133.6188  153.7319 H   0  0  0  0  0  0  0  0  0  0  0  0
  145.6911  134.5025  150.4060 H   0  0  0  0  0  0  0  0  0  0  0  0
  145.0258  132.9095  150.0997 H   0  0  0  0  0  0  0  0  0  0  0  0
  143.2329  133.2562  151.7646 H   0  0  0  0  0  0  0  0  0  0  0  0
  143.2113  134.5892  150.6203 H   0  0  0  0  0  0  0  0  0  0  0  0
  1  2  1  0  0  0  0
  1 14  1  0  0  0  0
  1 15  1  0  0  0  0
  2  7  1  0  0  0  0
  2  3  2  0  0  0  0
  3  4  1  0  0  0  0
  3 16  1  0  0  0  0
  4  5  2  0  0  0  0
  4 17  1  0  0  0  0
  5  6  1  0  0  0  0
  6  7  2  0  0  0  0
  6 18  1  0  0  0  0
  7  8  1  0  0  0  0
  8 13  1  0  0  0  0
  8  9  1  0  0  0  0
  9 10  1  0  0  0  0
  9 19  1  0  0  0  0
  9 20  1  0  0  0  0
 10 11  1  0  0  0  0
 10 21  1  0  0  0  0
 10 22  1  0  0  0  0
 11 12  1  0  0  0  0
 12 13  1  0  0  0  0
 12 23  1  0  0  0  0
 12 24  1  0  0  0  0
 13 25  1  0  0  0  0
 13 26  1  0  0  0  0
M  END
> <s_m_source_file>
AV-unprocessed.smi

> <i_m_source_file_index>
2545

> <i_lp_mmshare_version>
43012

> <i_f3d_flags>
0

> <s_epik_input>
W05IMl1jMVtjSF1bY0hdbltjSF1jMU4yW0NIMl1bQ0gyXU9bQ0gyXVtDSDJdMg==

> <s_epik_cmdline>
J2VwaWtfcHl0aG9uJywgJy1waCcsICc3LjAnLCAnLXRuJywgJzgnLCAnLW1hJywgJzIwMCcsICctbWV0YWxfYmluZGluZycsICctaW1hZScsICc8aW5maWxlLm1hZT4nLCAnLW9tYWUnLCAnPG91dGZpbGUubWFlPic=

> <r_lp_tautomer_probability>
0.999999

> <r_epik_Ionization_Penalty>
2.28846

> <r_epik_Ionization_Penalty_Charging>
0

> <r_epik_Ionization_Penalty_Neutral>
2.28846

> <r_epik_State_Penalty>
2.43827

> <r_epik_Charging_Adjusted_Penalty>
2.43827

> <i_epik_Tot_Q>
0

> <i_epik_Tot_abs_Q>
0

> <r_epik_Metal_State_Penalty>
0.0346758

> <b_epik_Metal_Only>
0

> <s_lp_Force_Field>
OPLS_2005

> <r_lp_Energy>
24.1362

> <b_lp_Chiralities_Consistent>
1

> <s_lp_Variant>
AV-unprocessed.smi:2545-2

> <Gold.Version>
5.8.1

> <Gold.Id.Protein>
6NUR|6NUR_protein|mol2

> <Gold.PLP.Fitness>
32.5912

> <Gold.PLP.PLP>
-23.7005

> <Gold.PLP.part.hbond>
-3.4875

> <Gold.PLP.part.metal>
0.0000

> <Gold.PLP.part.buried>
-6.2182

> <Gold.PLP.part.nonpolar>
-14.6152

> <Gold.PLP.part.repulsive>
0.4368

> <Gold.PLP.ligand.clash>
0.0000

> <Gold.PLP.ligand.torsion>
0.1106

> <Gold.PLP.Chemscore.Hbond>
2.0000

> <Gold.PLP.Chemscore.CHOScore>
1.0000

> <Gold.PLP.Chemscore.Metal>
0.0000

> <Gold.Chemscore.Hbonds>
donor molecule, donor type, donor heavy atom, donor atom, acceptor molecule, acceptor atom, score
      L1  H     1    15       P1 10175  1.00
      P1  H 11000 11005       L1     5  1.00
      L1  C     6    18       P1 10957  1.00

> <Gold.PLP.Chemscore.Internal.Correction>
0.1119

> <Gold.Rescore>
     Score         DG    S(hbond)    S(metal)    S(lipo)     H(rot)  DE(clash)    DE(int)     intcor
     14.11     -14.16       1.86        0.00      43.04       1.00       0.00       0.06       ----

> <Gold.Chemscore.Fitness>
14.1054

> <Gold.Chemscore.DG>
-14.1616

> <Gold.Chemscore.ZeroCoef>
-5.4800

> <Gold.Chemscore.Hbond>
1.8582

> <Gold.Chemscore.Metal>
0.0000

> <Gold.Chemscore.Lipo>
43.0362

> <Gold.Chemscore.Internal_Hbond>
0.0000

> <Gold.Chemscore.DEClash>
0.0000

> <Gold.Chemscore.DEInternal>
0.0561

> <Gold.Chemscore.Rot>
1.0000

> <Gold.Chemscore.Internal.Correction>
   9.000000E+99

> <Gold.Chemscore.Hbonds>
donor molecule, donor type, donor heavy atom, donor atom, acceptor molecule, acceptor atom, score
      L1  H     1    15       P1 10175  0.96
      P1  H 11000 11005       L1     5  0.57

> <Gold.Chemscore.Hbond.Weighted>
-6.2063

> <Gold.Chemscore.Metal.Weighted>
-0.0000

> <Gold.Chemscore.Lipo.Weighted>
-5.0352

> <Gold.Chemscore.Internal_Hbond.Weighted>
0.0000

> <Gold.Chemscore.DEClash.Weighted>
0.0000

> <Gold.Chemscore.DEInternal.Weighted>
0.0561

> <Gold.Chemscore.Rot.Weighted>
2.5600

> <Gold.Chemscore.Internal.Correction.Weighted>
   9.000000E+99

> <Gold.Protein.RotatedTorsions>
[ 6907 6896 6895 6894 ] final   26.49 input  -60.11 | X-H torsion
[ 7974 7965 7964 7962 ] final  154.48 input  175.53 | X-H torsion
[ 8008 7997 7996 7995 ] final   57.10 input   59.86 | X-H torsion
[ 10167 10162 10161 10158 ] final  143.68 input  -65.29 | X-H torsion
[ 10718 10713 10712 10709 ] final  154.64 input   66.30 | X-H torsion
[ 10763 10752 10751 10750 ] final   82.29 input  -60.55 | X-H torsion
[ 11005 11000 10999 10996 ] final   40.09 input  -57.11 | X-H torsion

> <Gold.Protein.ActiveResidues>
 VAL166  LYS551  ARG553  GLY616  TRP617  ASP618  TYR619  PRO620  LYS621  CYS622 
 ASP623  PHE694  ASN695  SER759  ASP760  ASP761  ALA762  ILE779  LEU786  VAL792 
 PHE793  MET794  SER795  GLU796  ALA797  LYS798  CYS799  TRP800  GLU811  SER814 

> <Gold.Protein.RotatedAtoms>
  151.9882  134.9993  160.0560 H   0  0  0  0  0  0  0  0  0  0  0  0  # atno 6907 bound_to 6896
  152.1633  133.4591  159.4880 H   0  0  0  0  0  0  0  0  0  0  0  0  # atno 6908 bound_to 6896
  150.6891  134.1962  159.4347 H   0  0  0  0  0  0  0  0  0  0  0  0  # atno 6909 bound_to 6896
  144.8086  139.6939  143.6151 H   0  0  0  0  0  0  0  0  0  0  0  0  # atno 7974 bound_to 7965
  155.5282  140.3481  155.4421 H   0  0  0  0  0  0  0  0  0  0  0  0  # atno 8008 bound_to 7997
  156.0737  140.1369  156.9824 H   0  0  0  0  0  0  0  0  0  0  0  0  # atno 8009 bound_to 7997
  154.4542  140.0960  156.6682 H   0  0  0  0  0  0  0  0  0  0  0  0  # atno 8010 bound_to 7997
  139.4964  144.6024  151.6453 H   0  0  0  0  0  0  0  0  0  0  0  0  # atno 10167 bound_to 10162
  157.2289  131.0735  151.1865 H   0  0  0  0  0  0  0  0  0  0  0  0  # atno 10718 bound_to 10713
  153.1190  135.4734  154.9163 H   0  0  0  0  0  0  0  0  0  0  0  0  # atno 10763 bound_to 10752
  154.7556  135.3117  154.8478 H   0  0  0  0  0  0  0  0  0  0  0  0  # atno 10764 bound_to 10752
  153.9047  135.6871  153.4807 H   0  0  0  0  0  0  0  0  0  0  0  0  # atno 10765 bound_to 10752
  140.1965  134.3923  155.8119 H   0  0  0  0  0  0  0  0  0  0  0  0  # atno 11005 bound_to 11000
  146.2381  139.5947  142.9510 LP  0  0  0  0  0  0  0  0  0  0  0  0  # atno 17320 bound_to 7965
  145.5378  141.0423  143.2347 LP  0  0  0  0  0  0  0  0  0  0  0  0  # atno 17321 bound_to 7965
  140.5677  144.0162  150.6200 LP  0  0  0  0  0  0  0  0  0  0  0  0  # atno 17342 bound_to 10162
  140.3269  143.3102  152.0727 LP  0  0  0  0  0  0  0  0  0  0  0  0  # atno 17343 bound_to 10162
  157.3498  130.7076  149.6434 LP  0  0  0  0  0  0  0  0  0  0  0  0  # atno 17370 bound_to 10713
  155.9677  130.4256  150.4659 LP  0  0  0  0  0  0  0  0  0  0  0  0  # atno 17371 bound_to 10713
  141.2227  133.7072  156.8184 LP  0  0  0  0  0  0  0  0  0  0  0  0  # atno 17394 bound_to 11000
  140.2102  134.8833  157.3266 LP  0  0  0  0  0  0  0  0  0  0  0  0  # atno 17395 bound_to 11000

$$$$
