AV-unprocessed.smi:932|AV-procd|sdf|4199|dock7
  -GOLD-   22720 2103D 1   1.00000     0.00000
 Structure written by MMmdl.
 44 45  0  0  0  0  0  0  0  0  2 V2000
  151.3095  141.0521  156.2547 O   0  0  0  0  0  0  0  0  0  0  0  0
  150.5076  141.9656  156.0685 C   0  0  0  0  0  0  0  0  0  0  0  0
  149.4741  141.8784  155.2135 N   0  0  0  0  0  0  0  0  0  0  0  0
  149.1626  140.7233  154.3773 C   0  0  0  0  0  0  0  0  0  0  0  0
  148.0228  141.0179  153.3837 C   0  0  0  0  0  0  0  0  0  0  0  0
  147.0155  139.9539  153.3367 N   0  0  0  0  0  0  0  0  0  0  0  0
  147.0809  138.7762  152.6367 C   0  0  0  0  0  0  0  0  0  0  0  0
  145.9211  138.0969  152.9066 C   0  0  0  0  0  0  0  0  0  0  0  0
  145.1949  138.8903  153.7540 N   0  3  0  0  0  0  0  0  0  0  0  0
  145.8606  140.0208  154.0114 C   0  0  0  0  0  0  0  0  0  0  0  0
  150.6081  143.1396  156.7175 N   0  0  0  0  0  0  0  0  0  0  0  0
  151.6057  143.5606  157.7063 C   0  0  0  0  0  0  0  0  0  0  0  0
  151.7263  142.4298  158.7554 C   0  0  0  0  0  0  0  0  0  0  0  0
  152.9006  142.5707  159.7451 C   0  0  0  0  0  0  0  0  0  0  0  0
  152.5274  143.0733  161.1533 C   0  0  0  0  0  0  0  0  0  0  0  0
  151.5279  144.2411  161.2348 C   0  0  0  0  0  0  0  0  0  0  0  0
  151.9982  145.5881  160.6576 C   0  0  0  0  0  0  0  0  0  0  0  0
  152.2699  145.6397  159.1417 C   0  0  0  0  0  0  0  0  0  0  0  0
  151.2106  144.9559  158.2536 C   0  0  0  0  0  0  0  0  0  0  0  0
  148.8589  142.6755  155.1359 H   0  0  0  0  0  0  0  0  0  0  0  0
  150.0516  140.3651  153.8552 H   0  0  0  0  0  0  0  0  0  0  0  0
  148.8573  139.9141  155.0411 H   0  0  0  0  0  0  0  0  0  0  0  0
  147.5125  141.9416  153.6592 H   0  0  0  0  0  0  0  0  0  0  0  0
  148.4155  141.1616  152.3762 H   0  0  0  0  0  0  0  0  0  0  0  0
  147.9291  138.5129  152.0216 H   0  0  0  0  0  0  0  0  0  0  0  0
  145.5678  137.1335  152.5685 H   0  0  0  0  0  0  0  0  0  0  0  0
  145.5343  140.8244  154.6472 H   0  0  0  0  0  0  0  0  0  0  0  0
  149.8829  143.8156  156.5245 H   0  0  0  0  0  0  0  0  0  0  0  0
  152.5770  143.6415  157.2157 H   0  0  0  0  0  0  0  0  0  0  0  0
  150.7840  142.2808  159.2827 H   0  0  0  0  0  0  0  0  0  0  0  0
  151.8876  141.4991  158.2086 H   0  0  0  0  0  0  0  0  0  0  0  0
  153.3577  141.5885  159.8714 H   0  0  0  0  0  0  0  0  0  0  0  0
  153.6960  143.1766  159.3149 H   0  0  0  0  0  0  0  0  0  0  0  0
  152.0940  142.2362  161.7022 H   0  0  0  0  0  0  0  0  0  0  0  0
  153.4389  143.3342  161.6920 H   0  0  0  0  0  0  0  0  0  0  0  0
  150.5720  143.9546  160.7991 H   0  0  0  0  0  0  0  0  0  0  0  0
  151.3051  144.4024  162.2901 H   0  0  0  0  0  0  0  0  0  0  0  0
  151.2279  146.3262  160.8849 H   0  0  0  0  0  0  0  0  0  0  0  0
  152.8889  145.9220  161.1912 H   0  0  0  0  0  0  0  0  0  0  0  0
  152.3150  146.6938  158.8652 H   0  0  0  0  0  0  0  0  0  0  0  0
  153.2653  145.2645  158.9120 H   0  0  0  0  0  0  0  0  0  0  0  0
  151.0505  145.6132  157.3978 H   0  0  0  0  0  0  0  0  0  0  0  0
  150.2436  144.9188  158.7557 H   0  0  0  0  0  0  0  0  0  0  0  0
  144.2866  138.6562  154.1349 H   0  0  0  0  0  0  0  0  0  0  0  0
  1  2  2  0  0  0  0
  2  3  1  0  0  0  0
  2 11  1  0  0  0  0
  3  4  1  0  0  0  0
  3 20  1  0  0  0  0
  4  5  1  0  0  0  0
  4 21  1  0  0  0  0
  4 22  1  0  0  0  0
  5  6  1  0  0  0  0
  5 23  1  0  0  0  0
  5 24  1  0  0  0  0
  6 10  1  0  0  0  0
  6  7  1  0  0  0  0
  7  8  2  0  0  0  0
  7 25  1  0  0  0  0
  8  9  1  0  0  0  0
  8 26  1  0  0  0  0
  9 10  2  0  0  0  0
  9 44  1  0  0  0  0
 10 27  1  0  0  0  0
 11 12  1  0  0  0  0
 11 28  1  0  0  0  0
 12 19  1  0  0  0  0
 12 13  1  0  0  0  0
 12 29  1  0  0  0  0
 13 14  1  0  0  0  0
 13 30  1  0  0  0  0
 13 31  1  0  0  0  0
 14 15  1  0  0  0  0
 14 32  1  0  0  0  0
 14 33  1  0  0  0  0
 15 16  1  0  0  0  0
 15 34  1  0  0  0  0
 15 35  1  0  0  0  0
 16 17  1  0  0  0  0
 16 36  1  0  0  0  0
 16 37  1  0  0  0  0
 17 18  1  0  0  0  0
 17 38  1  0  0  0  0
 17 39  1  0  0  0  0
 18 19  1  0  0  0  0
 18 40  1  0  0  0  0
 18 41  1  0  0  0  0
 19 42  1  0  0  0  0
 19 43  1  0  0  0  0
M  CHG  1   9   1
M  END
> <s_m_source_file>
AV-unprocessed.smi

> <i_m_source_file_index>
932

> <i_lp_mmshare_version>
43012

> <i_f3d_flags>
0

> <s_epik_input>
W2NIXTFuW2NIXVtjSF1uMVtDSDJdW0NIMl1bTkhdQyg9TylbTkhdW0NIXTJbQ0gyXVtDSDJdW0NIMl1bQ0gyXVtDSDJdW0NIMl1bQ0gyXTI=

> <s_epik_cmdline>
J2VwaWtfcHl0aG9uJywgJy1waCcsICc3LjAnLCAnLXRuJywgJzgnLCAnLW1hJywgJzIwMCcsICctbWV0YWxfYmluZGluZycsICctaW1hZScsICc8aW5maWxlLm1hZT4nLCAnLW9tYWUnLCAnPG91dGZpbGUubWFlPic=

> <r_lp_tautomer_probability>
1

> <r_epik_Ionization_Penalty>
0.254654

> <r_epik_Ionization_Penalty_Charging>
0

> <r_epik_Ionization_Penalty_Neutral>
0.254654

> <r_epik_State_Penalty>
0.246077

> <r_epik_Charging_Adjusted_Penalty>
0.246077

> <i_epik_Tot_Q>
1

> <i_epik_Tot_abs_Q>
1

> <r_epik_Metal_State_Penalty>
0.536041

> <b_epik_Metal_Only>
0

> <s_lp_Force_Field>
OPLS_2005

> <r_lp_Energy>
30.2565

> <b_lp_Chiralities_Consistent>
1

> <s_lp_Variant>
AV-unprocessed.smi:932-1

> <Gold.Version>
5.8.1

> <Gold.Id.Protein>
6NUR|6NUR_protein|mol2

> <Gold.PLP.Fitness>
49.4437

> <Gold.PLP.PLP>
-41.3697

> <Gold.PLP.part.hbond>
-3.0000

> <Gold.PLP.part.metal>
0.0000

> <Gold.PLP.part.buried>
-0.3718

> <Gold.PLP.part.nonpolar>
-38.1198

> <Gold.PLP.part.repulsive>
0.2364

> <Gold.PLP.ligand.clash>
0.0000

> <Gold.PLP.ligand.torsion>
0.7341

> <Gold.PLP.Chemscore.Hbond>
1.3430

> <Gold.PLP.Chemscore.CHOScore>
1.8264

> <Gold.PLP.Chemscore.Metal>
0.0000

> <Gold.Chemscore.Hbonds>
donor molecule, donor type, donor heavy atom, donor atom, acceptor molecule, acceptor atom, score
      L1  H     3    20       P1  8028  0.64
      L1  H    11    28       P1  8028  1.00
      L1  C     7    25       P1  7948  0.93
      L1  C     7    25       P1  7957  0.94

> <Gold.PLP.Chemscore.Internal.Correction>
0.0340

> <Gold.Rescore>
     Score         DG    S(hbond)    S(metal)    S(lipo)     H(rot)  DE(clash)    DE(int)     intcor
     16.55     -19.72       1.38        0.00     123.82       1.90       1.43       1.75       ----

> <Gold.Chemscore.Fitness>
16.5466

> <Gold.Chemscore.DG>
-19.7224

> <Gold.Chemscore.ZeroCoef>
-5.4800

> <Gold.Chemscore.Hbond>
1.3818

> <Gold.Chemscore.Metal>
0.0000

> <Gold.Chemscore.Lipo>
123.8162

> <Gold.Chemscore.Internal_Hbond>
0.0000

> <Gold.Chemscore.DEClash>
1.4260

> <Gold.Chemscore.DEInternal>
1.7497

> <Gold.Chemscore.Rot>
1.8982

> <Gold.Chemscore.Internal.Correction>
   9.000000E+99

> <Gold.Chemscore.Hbonds>
donor molecule, donor type, donor heavy atom, donor atom, acceptor molecule, acceptor atom, score
      L1  H     3    20       P1  8028  0.62
      L1  H    11    28       P1  8028  0.98

> <Gold.Chemscore.Hbond.Weighted>
-4.6153

> <Gold.Chemscore.Metal.Weighted>
-0.0000

> <Gold.Chemscore.Lipo.Weighted>
-14.4865

> <Gold.Chemscore.Internal_Hbond.Weighted>
0.0000

> <Gold.Chemscore.DEClash.Weighted>
1.4260

> <Gold.Chemscore.DEInternal.Weighted>
1.7497

> <Gold.Chemscore.Rot.Weighted>
4.8594

> <Gold.Chemscore.Internal.Correction.Weighted>
   9.000000E+99

> <Gold.Protein.RotatedTorsions>
[ 6907 6896 6895 6894 ] final  132.85 input  -60.11 | X-H torsion
[ 7974 7965 7964 7962 ] final  170.63 input  175.53 | X-H torsion
[ 8008 7997 7996 7995 ] final  -48.17 input   59.86 | X-H torsion
[ 10167 10162 10161 10158 ] final   32.61 input  -65.29 | X-H torsion
[ 10718 10713 10712 10709 ] final  -78.52 input   66.30 | X-H torsion
[ 10763 10752 10751 10750 ] final  174.35 input  -60.55 | X-H torsion
[ 11005 11000 10999 10996 ] final   75.27 input  -57.11 | X-H torsion

> <Gold.Protein.ActiveResidues>
 VAL166  LYS551  ARG553  GLY616  TRP617  ASP618  TYR619  PRO620  LYS621  CYS622 
 ASP623  PHE694  ASN695  SER759  ASP760  ASP761  ALA762  ILE779  LEU786  VAL792 
 PHE793  MET794  SER795  GLU796  ALA797  LYS798  CYS799  TRP800  GLU811  SER814 

> <Gold.Protein.RotatedAtoms>
  152.3281  133.5927  159.5790 H   0  0  0  0  0  0  0  0  0  0  0  0  # atno 6907 bound_to 6896
  150.7408  133.9910  159.3616 H   0  0  0  0  0  0  0  0  0  0  0  0  # atno 6908 bound_to 6896
  151.7788  135.0768  160.0421 H   0  0  0  0  0  0  0  0  0  0  0  0  # atno 6909 bound_to 6896
  144.7318  139.9231  143.6421 H   0  0  0  0  0  0  0  0  0  0  0  0  # atno 7974 bound_to 7965
  154.4025  140.1328  156.4296 H   0  0  0  0  0  0  0  0  0  0  0  0  # atno 8008 bound_to 7997
  155.7564  140.3487  155.5156 H   0  0  0  0  0  0  0  0  0  0  0  0  # atno 8009 bound_to 7997
  155.8901  140.1002  157.1415 H   0  0  0  0  0  0  0  0  0  0  0  0  # atno 8010 bound_to 7997
  140.4483  144.1086  150.6186 H   0  0  0  0  0  0  0  0  0  0  0  0  # atno 10167 bound_to 10162
  156.0115  130.4520  150.3509 H   0  0  0  0  0  0  0  0  0  0  0  0  # atno 10718 bound_to 10713
  154.4527  135.2765  155.1770 H   0  0  0  0  0  0  0  0  0  0  0  0  # atno 10763 bound_to 10752
  154.3590  135.6133  153.5685 H   0  0  0  0  0  0  0  0  0  0  0  0  # atno 10764 bound_to 10752
  152.9848  135.5830  154.4874 H   0  0  0  0  0  0  0  0  0  0  0  0  # atno 10765 bound_to 10752
  139.9351  134.7504  156.1251 H   0  0  0  0  0  0  0  0  0  0  0  0  # atno 11005 bound_to 11000
  146.0914  139.3904  143.0403 LP  0  0  0  0  0  0  0  0  0  0  0  0  # atno 17320 bound_to 7965
  145.7705  140.9898  143.1152 LP  0  0  0  0  0  0  0  0  0  0  0  0  # atno 17321 bound_to 7965
  140.4237  143.2599  151.9683 LP  0  0  0  0  0  0  0  0  0  0  0  0  # atno 17342 bound_to 10162
  139.4794  144.5807  151.7937 LP  0  0  0  0  0  0  0  0  0  0  0  0  # atno 17343 bound_to 10162
  157.1601  131.0343  151.2845 LP  0  0  0  0  0  0  0  0  0  0  0  0  # atno 17370 bound_to 10713
  157.4318  130.7495  149.6996 LP  0  0  0  0  0  0  0  0  0  0  0  0  # atno 17371 bound_to 10713
  141.0961  133.6695  156.2648 LP  0  0  0  0  0  0  0  0  0  0  0  0  # atno 17394 bound_to 11000
  140.6097  134.5471  157.5531 LP  0  0  0  0  0  0  0  0  0  0  0  0  # atno 17395 bound_to 11000

$$$$
