AV-unprocessed.smi:2784|AV-procd|sdf|10731|dock9
  -GOLD-   2272015173D 1   1.00000     0.00000
 Structure written by MMmdl.
 32 33  0  0  0  0  0  0  0  0  2 V2000
  149.5861  145.2936  160.3803 C   0  0  0  0  0  0  0  0  0  0  0  0
  150.0461  144.6392  159.2087 O   0  0  0  0  0  0  0  0  0  0  0  0
  151.4566  144.7184  159.0178 C   0  0  1  0  0  0  0  0  0  0  0  0
  152.1669  144.3143  160.3151 C   0  0  0  0  0  0  0  0  0  0  0  0
  152.1739  142.7890  160.2776 C   0  0  0  0  0  0  0  0  0  0  0  0
  152.3923  142.4390  158.8040 C   0  0  0  0  0  0  0  0  0  0  0  0
  151.9108  143.6558  157.9893 C   0  0  1  0  0  0  0  0  0  0  0  0
  150.8540  143.2782  157.0528 N   0  0  0  0  0  0  0  0  0  0  0  0
  150.8357  142.1440  156.3379 C   0  0  0  0  0  0  0  0  0  0  0  0
  151.7072  141.2770  156.4101 O   0  0  0  0  0  0  0  0  0  0  0  0
  149.7611  142.0822  155.5376 N   0  0  0  0  0  0  0  0  0  0  0  0
  149.4384  141.0126  154.6712 C   0  0  0  0  0  0  0  0  0  0  0  0
  148.2621  140.8765  154.0606 N   0  3  0  0  0  0  0  0  0  0  0  0
  148.2891  139.7319  153.3029 C   0  0  0  0  0  0  0  0  0  0  0  0
  149.5376  139.1889  153.4907 C   0  0  0  0  0  0  0  0  0  0  0  0
  150.2722  139.9833  154.3482 O   0  0  0  0  0  0  0  0  0  0  0  0
  148.5038  145.1893  160.4529 H   0  0  0  0  0  0  0  0  0  0  0  0
  149.8171  146.3591  160.3507 H   0  0  0  0  0  0  0  0  0  0  0  0
  150.0236  144.8668  161.2825 H   0  0  0  0  0  0  0  0  0  0  0  0
  151.7432  145.7179  158.6854 H   0  0  0  0  0  0  0  0  0  0  0  0
  153.1942  144.6807  160.2958 H   0  0  0  0  0  0  0  0  0  0  0  0
  151.6977  144.7083  161.2165 H   0  0  0  0  0  0  0  0  0  0  0  0
  152.9350  142.3567  160.9277 H   0  0  0  0  0  0  0  0  0  0  0  0
  151.2043  142.4118  160.6056 H   0  0  0  0  0  0  0  0  0  0  0  0
  153.4546  142.2752  158.6185 H   0  0  0  0  0  0  0  0  0  0  0  0
  151.8770  141.5144  158.5397 H   0  0  0  0  0  0  0  0  0  0  0  0
  152.7653  144.0425  157.4302 H   0  0  0  0  0  0  0  0  0  0  0  0
  150.1027  143.9407  156.9275 H   0  0  0  0  0  0  0  0  0  0  0  0
  147.4587  141.4897  154.1183 H   0  0  0  0  0  0  0  0  0  0  0  0
  147.4343  139.4230  152.7182 H   0  0  0  0  0  0  0  0  0  0  0  0
  150.0310  138.3039  153.1158 H   0  0  0  0  0  0  0  0  0  0  0  0
  149.1195  142.8610  155.5535 H   0  0  0  0  0  0  0  0  0  0  0  0
  1  2  1  0  0  0  0
  1 17  1  0  0  0  0
  1 18  1  0  0  0  0
  1 19  1  0  0  0  0
  2  3  1  0  0  0  0
  3  7  1  0  0  0  0
  3  4  1  0  0  0  0
  3 20  1  0  0  0  0
  4  5  1  0  0  0  0
  4 21  1  0  0  0  0
  4 22  1  0  0  0  0
  5  6  1  0  0  0  0
  5 23  1  0  0  0  0
  5 24  1  0  0  0  0
  6  7  1  0  0  0  0
  6 25  1  0  0  0  0
  6 26  1  0  0  0  0
  7  8  1  0  0  0  0
  7 27  1  0  0  0  0
  8 28  1  0  0  0  0
  8  9  1  0  0  0  0
  9 11  1  0  0  0  0
  9 10  2  0  0  0  0
 11 12  1  0  0  0  0
 11 32  1  0  0  0  0
 12 16  1  0  0  0  0
 12 13  2  0  0  0  0
 13 29  1  0  0  0  0
 13 14  1  0  0  0  0
 14 30  1  0  0  0  0
 14 15  2  0  0  0  0
 15 31  1  0  0  0  0
 15 16  1  0  0  0  0
M  CHG  1  13   1
M  END
> <s_m_source_file>
AV-unprocessed.smi

> <i_m_source_file_index>
2784

> <i_lp_mmshare_version>
43012

> <i_f3d_flags>
0

> <s_epik_input>
W0NIM11PW0NAQEhdMVtDSDJdW0NIMl1bQ0gyXVtDQEhdMVtOSF1DKD1PKVtOSF1jMm5bY0hdW2NIXW8y

> <s_epik_cmdline>
J2VwaWtfcHl0aG9uJywgJy1waCcsICc3LjAnLCAnLXRuJywgJzgnLCAnLW1hJywgJzIwMCcsICctbWV0YWxfYmluZGluZycsICctaW1hZScsICc8aW5maWxlLm1hZT4nLCAnLW9tYWUnLCAnPG91dGZpbGUubWFlPic=

> <r_epik_Ionization_Penalty>
6.73843

> <r_epik_Ionization_Penalty_Charging>
6.66704

> <r_epik_Ionization_Penalty_Neutral>
0.0713889

> <r_epik_State_Penalty>
1.94951

> <r_epik_Charging_Adjusted_Penalty>
8.61656

> <i_epik_Tot_Q>
1

> <i_epik_Tot_abs_Q>
1

> <r_epik_Metal_State_Penalty>
1.97013

> <b_epik_Metal_Only>
0

> <s_lp_Force_Field>
OPLS_2005

> <r_lp_Energy>
28.3285

> <b_lp_Chiralities_Consistent>
1

> <s_lp_Variant>
AV-unprocessed.smi:2784-6

> <Gold.Version>
5.8.1

> <Gold.Id.Protein>
6NUR|6NUR_protein|mol2

> <Gold.PLP.Fitness>
38.7523

> <Gold.PLP.PLP>
-28.3207

> <Gold.PLP.part.hbond>
-3.0000

> <Gold.PLP.part.metal>
0.0000

> <Gold.PLP.part.buried>
2.7338

> <Gold.PLP.part.nonpolar>
-28.7893

> <Gold.PLP.part.repulsive>
0.5742

> <Gold.PLP.ligand.clash>
0.0797

> <Gold.PLP.ligand.torsion>
0.4092

> <Gold.PLP.Chemscore.Hbond>
2.7833

> <Gold.PLP.Chemscore.CHOScore>
0.9898

> <Gold.PLP.Chemscore.Metal>
0.0000

> <Gold.Chemscore.Hbonds>
donor molecule, donor type, donor heavy atom, donor atom, acceptor molecule, acceptor atom, score
      L1  H     8    28       P1  8028  0.91
      L1  H    11    32       P1  8028  0.96
      P1  H  7989  7998       L1    16  1.00
      L1  C    15    31       P1  7948  0.81

> <Gold.PLP.Chemscore.Internal.Correction>
0.0107

> <Gold.Rescore>
     Score         DG    S(hbond)    S(metal)    S(lipo)     H(rot)  DE(clash)    DE(int)     intcor
     13.74     -17.63       1.81        0.00      81.24       1.34       0.61       3.28       ----

> <Gold.Chemscore.Fitness>
13.7427

> <Gold.Chemscore.DG>
-17.6257

> <Gold.Chemscore.ZeroCoef>
-5.4800

> <Gold.Chemscore.Hbond>
1.8139

> <Gold.Chemscore.Metal>
0.0000

> <Gold.Chemscore.Lipo>
81.2385

> <Gold.Chemscore.Internal_Hbond>
0.0000

> <Gold.Chemscore.DEClash>
0.6051

> <Gold.Chemscore.DEInternal>
3.2779

> <Gold.Chemscore.Rot>
1.3351

> <Gold.Chemscore.Internal.Correction>
   9.000000E+99

> <Gold.Chemscore.Hbonds>
donor molecule, donor type, donor heavy atom, donor atom, acceptor molecule, acceptor atom, score
      L1  H     8    28       P1  8028  0.87
      L1  H    11    32       P1  8028  0.92
      P1  H  7989  7998       L1    16  0.24

> <Gold.Chemscore.Hbond.Weighted>
-6.0585

> <Gold.Chemscore.Metal.Weighted>
-0.0000

> <Gold.Chemscore.Lipo.Weighted>
-9.5049

> <Gold.Chemscore.Internal_Hbond.Weighted>
0.0000

> <Gold.Chemscore.DEClash.Weighted>
0.6051

> <Gold.Chemscore.DEInternal.Weighted>
3.2779

> <Gold.Chemscore.Rot.Weighted>
3.4177

> <Gold.Chemscore.Internal.Correction.Weighted>
   9.000000E+99

> <Gold.Protein.RotatedTorsions>
[ 6907 6896 6895 6894 ] final  142.54 input  -60.11 | X-H torsion
[ 7974 7965 7964 7962 ] final  166.03 input  175.53 | X-H torsion
[ 8008 7997 7996 7995 ] final  120.35 input   59.86 | X-H torsion
[ 10167 10162 10161 10158 ] final  159.44 input  -65.29 | X-H torsion
[ 10718 10713 10712 10709 ] final   17.49 input   66.30 | X-H torsion
[ 10763 10752 10751 10750 ] final  -73.09 input  -60.55 | X-H torsion
[ 11005 11000 10999 10996 ] final -106.45 input  -57.11 | X-H torsion

> <Gold.Protein.ActiveResidues>
 VAL166  LYS551  ARG553  GLY616  TRP617  ASP618  TYR619  PRO620  LYS621  CYS622 
 ASP623  PHE694  ASN695  SER759  ASP760  ASP761  ALA762  ILE779  LEU786  VAL792 
 PHE793  MET794  SER795  GLU796  ALA797  LYS798  CYS799  TRP800  GLU811  SER814 

> <Gold.Protein.RotatedAtoms>
  152.2174  133.4957  159.5143 H   0  0  0  0  0  0  0  0  0  0  0  0  # atno 6907 bound_to 6896
  150.7004  134.1387  159.4106 H   0  0  0  0  0  0  0  0  0  0  0  0  # atno 6908 bound_to 6896
  151.9307  135.0257  160.0579 H   0  0  0  0  0  0  0  0  0  0  0  0  # atno 6909 bound_to 6896
  144.7478  139.8556  143.6376 H   0  0  0  0  0  0  0  0  0  0  0  0  # atno 7974 bound_to 7965
  156.2638  140.2832  156.1136 H   0  0  0  0  0  0  0  0  0  0  0  0  # atno 8008 bound_to 7997
  155.1231  140.0392  157.2772 H   0  0  0  0  0  0  0  0  0  0  0  0  # atno 8009 bound_to 7997
  154.6656  140.2576  155.7068 H   0  0  0  0  0  0  0  0  0  0  0  0  # atno 8010 bound_to 7997
  139.4832  144.4730  151.8550 H   0  0  0  0  0  0  0  0  0  0  0  0  # atno 10167 bound_to 10162
  157.0828  130.6395  149.5830 H   0  0  0  0  0  0  0  0  0  0  0  0  # atno 10718 bound_to 10713
  154.4546  135.5909  153.6215 H   0  0  0  0  0  0  0  0  0  0  0  0  # atno 10763 bound_to 10752
  152.9817  135.6029  154.3562 H   0  0  0  0  0  0  0  0  0  0  0  0  # atno 10764 bound_to 10752
  154.3427  135.2841  155.2393 H   0  0  0  0  0  0  0  0  0  0  0  0  # atno 10765 bound_to 10752
  141.1004  133.8894  157.1857 H   0  0  0  0  0  0  0  0  0  0  0  0  # atno 11005 bound_to 11000
  146.1385  139.4436  143.0124 LP  0  0  0  0  0  0  0  0  0  0  0  0  # atno 17320 bound_to 7965
  145.7055  141.0122  143.1481 LP  0  0  0  0  0  0  0  0  0  0  0  0  # atno 17321 bound_to 7965
  140.4200  144.2256  150.5887 LP  0  0  0  0  0  0  0  0  0  0  0  0  # atno 17342 bound_to 10162
  140.4883  143.2356  151.8856 LP  0  0  0  0  0  0  0  0  0  0  0  0  # atno 17343 bound_to 10162
  155.9919  130.4975  150.7318 LP  0  0  0  0  0  0  0  0  0  0  0  0  # atno 17370 bound_to 10713
  157.4786  131.0900  151.0562 LP  0  0  0  0  0  0  0  0  0  0  0  0  # atno 17371 bound_to 10713
  139.9854  135.0084  156.9849 LP  0  0  0  0  0  0  0  0  0  0  0  0  # atno 17394 bound_to 11000
  140.5036  134.1072  155.7255 LP  0  0  0  0  0  0  0  0  0  0  0  0  # atno 17395 bound_to 11000

$$$$
