AV-unprocessed.smi:3263|AV-procd|sdf|12491|dock1
  -GOLD-   2272018393D 1   1.00000     0.00000
 Structure written by MMmdl.
 42 44  0  0  0  0  0  0  0  0  2 V2000
  148.9104  140.0705  158.0752 O   0  0  0  0  0  0  0  0  0  0  0  0
  149.2664  141.1947  157.7210 C   0  0  0  0  0  0  0  0  0  0  0  0
  150.7370  141.6229  157.8109 C   0  0  0  0  0  0  0  0  0  0  0  0
  151.0023  142.7646  158.8200 C   0  0  1  0  0  0  0  0  0  0  0  0
  152.5008  143.0791  159.0530 C   0  0  0  0  0  0  0  0  0  0  0  0
  152.5962  144.5840  158.7451 C   0  0  2  0  0  0  0  0  0  0  0  0
  151.8695  145.3813  159.8438 C   0  0  0  0  0  0  0  0  0  0  0  0
  150.3861  145.0909  159.5481 C   0  0  0  0  0  0  0  0  0  0  0  0
  150.4616  144.1332  158.3434 C   0  0  1  0  0  0  0  0  0  0  0  0
  151.6390  144.7168  157.5680 C   0  0  0  0  0  0  0  0  0  0  0  0
  148.4127  142.1126  157.2419 N   0  0  0  0  0  0  0  0  0  0  0  0
  146.9768  141.9150  157.0802 C   0  0  0  0  0  0  0  0  0  0  0  0
  146.1938  143.2189  157.3120 C   0  0  0  0  0  0  0  0  0  0  0  0
  146.1211  143.5925  158.7796 C   0  0  0  0  0  0  0  0  0  0  0  0
  145.4134  142.8108  159.7186 C   0  0  0  0  0  0  0  0  0  0  0  0
  145.3808  143.2177  161.0688 C   0  0  0  0  0  0  0  0  0  0  0  0
  146.0543  144.3964  161.4511 C   0  0  0  0  0  0  0  0  0  0  0  0
  146.7441  145.1396  160.4716 C   0  0  0  0  0  0  0  0  0  0  0  0
  146.7516  144.7174  159.1879 N   0  3  0  0  0  0  0  0  0  0  0  0
  151.3392  140.7473  158.0548 H   0  0  0  0  0  0  0  0  0  0  0  0
  151.0585  141.9478  156.8202 H   0  0  0  0  0  0  0  0  0  0  0  0
  150.5258  142.5007  159.7658 H   0  0  0  0  0  0  0  0  0  0  0  0
  152.8210  142.8420  160.0682 H   0  0  0  0  0  0  0  0  0  0  0  0
  153.1365  142.5173  158.3675 H   0  0  0  0  0  0  0  0  0  0  0  0
  153.6133  144.9274  158.5537 H   0  0  0  0  0  0  0  0  0  0  0  0
  152.1639  145.0647  160.8451 H   0  0  0  0  0  0  0  0  0  0  0  0
  152.0768  146.4483  159.7545 H   0  0  0  0  0  0  0  0  0  0  0  0
  149.8676  144.6518  160.4012 H   0  0  0  0  0  0  0  0  0  0  0  0
  149.8632  146.0095  159.2790 H   0  0  0  0  0  0  0  0  0  0  0  0
  149.5271  144.0724  157.7848 H   0  0  0  0  0  0  0  0  0  0  0  0
  151.4812  145.7501  157.2534 H   0  0  0  0  0  0  0  0  0  0  0  0
  151.9309  144.1214  156.7016 H   0  0  0  0  0  0  0  0  0  0  0  0
  148.7862  143.0106  156.9691 H   0  0  0  0  0  0  0  0  0  0  0  0
  146.7988  141.5457  156.0699 H   0  0  0  0  0  0  0  0  0  0  0  0
  146.6311  141.1355  157.7616 H   0  0  0  0  0  0  0  0  0  0  0  0
  146.6559  144.0414  156.7644 H   0  0  0  0  0  0  0  0  0  0  0  0
  145.1802  143.1217  156.9205 H   0  0  0  0  0  0  0  0  0  0  0  0
  144.9007  141.9112  159.4098 H   0  0  0  0  0  0  0  0  0  0  0  0
  144.8452  142.6330  161.8024 H   0  0  0  0  0  0  0  0  0  0  0  0
  146.0417  144.7251  162.4800 H   0  0  0  0  0  0  0  0  0  0  0  0
  147.2859  146.0519  160.6745 H   0  0  0  0  0  0  0  0  0  0  0  0
  147.2570  145.2713  158.4961 H   0  0  0  0  0  0  0  0  0  0  0  0
  1  2  2  0  0  0  0
  2  3  1  0  0  0  0
  2 11  1  0  0  0  0
  3  4  1  0  0  0  0
  3 20  1  0  0  0  0
  3 21  1  0  0  0  0
  4  9  1  0  0  0  0
  4  5  1  0  0  0  0
  4 22  1  0  0  0  0
  5  6  1  0  0  0  0
  5 23  1  0  0  0  0
  5 24  1  0  0  0  0
  6 10  1  0  0  0  0
  6  7  1  0  0  0  0
  6 25  1  0  0  0  0
  7  8  1  0  0  0  0
  7 26  1  0  0  0  0
  7 27  1  0  0  0  0
  8  9  1  0  0  0  0
  8 28  1  0  0  0  0
  8 29  1  0  0  0  0
  9 10  1  0  0  0  0
  9 30  1  0  0  0  0
 10 31  1  0  0  0  0
 10 32  1  0  0  0  0
 11 12  1  0  0  0  0
 11 33  1  0  0  0  0
 12 13  1  0  0  0  0
 12 34  1  0  0  0  0
 12 35  1  0  0  0  0
 13 14  1  0  0  0  0
 13 36  1  0  0  0  0
 13 37  1  0  0  0  0
 14 19  1  0  0  0  0
 14 15  2  0  0  0  0
 15 16  1  0  0  0  0
 15 38  1  0  0  0  0
 16 17  2  0  0  0  0
 16 39  1  0  0  0  0
 17 18  1  0  0  0  0
 17 40  1  0  0  0  0
 18 19  2  0  0  0  0
 18 41  1  0  0  0  0
 19 42  1  0  0  0  0
M  CHG  1  19   1
M  END
> <s_m_source_file>
AV-unprocessed.smi

> <i_m_source_file_index>
3263

> <i_lp_mmshare_version>
43012

> <i_f3d_flags>
0

> <s_epik_input>
W0NIMl0xW0NIMl1bQ0BASF0oW0NIMl0yKVtDQEBIXShbQ0gyXVtDQEhdMTIpW0NIMl1DKD1PKVtOSF1bQ0gyXVtDSDJdYzNbY0hdW2NIXVtjSF1bY0hdbjM=

> <s_epik_cmdline>
J2VwaWtfcHl0aG9uJywgJy1waCcsICc3LjAnLCAnLXRuJywgJzgnLCAnLW1hJywgJzIwMCcsICctbWV0YWxfYmluZGluZycsICctaW1hZScsICc8aW5maWxlLm1hZT4nLCAnLW9tYWUnLCAnPG91dGZpbGUubWFlPic=

> <r_epik_Ionization_Penalty>
1.83579

> <r_epik_Ionization_Penalty_Charging>
1.83579

> <r_epik_Ionization_Penalty_Neutral>
2.47288e-08

> <r_epik_State_Penalty>
1.95213

> <r_epik_Charging_Adjusted_Penalty>
3.78793

> <i_epik_Tot_Q>
1

> <i_epik_Tot_abs_Q>
1

> <r_epik_Metal_State_Penalty>
1.97847

> <b_epik_Metal_Only>
0

> <s_lp_Force_Field>
OPLS_2005

> <r_lp_Energy>
52.562

> <b_lp_Chiralities_Consistent>
1

> <s_lp_Variant>
AV-unprocessed.smi:3263-6

> <Gold.Version>
5.8.1

> <Gold.Id.Protein>
6NUR|6NUR_protein|mol2

> <Gold.PLP.Fitness>
48.5445

> <Gold.PLP.PLP>
-41.5578

> <Gold.PLP.part.hbond>
-1.8315

> <Gold.PLP.part.metal>
0.0000

> <Gold.PLP.part.buried>
-6.8831

> <Gold.PLP.part.nonpolar>
-32.5291

> <Gold.PLP.part.repulsive>
0.1105

> <Gold.PLP.ligand.clash>
0.0000

> <Gold.PLP.ligand.torsion>
0.3470

> <Gold.PLP.Chemscore.Hbond>
2.5369

> <Gold.PLP.Chemscore.CHOScore>
0.0000

> <Gold.PLP.Chemscore.Metal>
0.0000

> <Gold.Chemscore.Hbonds>
donor molecule, donor type, donor heavy atom, donor atom, acceptor molecule, acceptor atom, score
      L1  H    11    33       P1  8028  0.71
      L1  H    19    42       P1  8029  1.92

> <Gold.PLP.Chemscore.Internal.Correction>
0.0700

> <Gold.Rescore>
     Score         DG    S(hbond)    S(metal)    S(lipo)     H(rot)  DE(clash)    DE(int)     intcor
     18.62     -19.17       1.46        0.00     109.56       1.56       0.16       0.38       ----

> <Gold.Chemscore.Fitness>
18.6208

> <Gold.Chemscore.DG>
-19.1685

> <Gold.Chemscore.ZeroCoef>
-5.4800

> <Gold.Chemscore.Hbond>
1.4591

> <Gold.Chemscore.Metal>
0.0000

> <Gold.Chemscore.Lipo>
109.5641

> <Gold.Chemscore.Internal_Hbond>
0.0000

> <Gold.Chemscore.DEClash>
0.1641

> <Gold.Chemscore.DEInternal>
0.3837

> <Gold.Chemscore.Rot>
1.5640

> <Gold.Chemscore.Internal.Correction>
   9.000000E+99

> <Gold.Chemscore.Hbonds>
donor molecule, donor type, donor heavy atom, donor atom, acceptor molecule, acceptor atom, score
      L1  H    11    33       P1  8028  0.53
      L1  H    19    42       P1  8029  0.91

> <Gold.Chemscore.Hbond.Weighted>
-4.8733

> <Gold.Chemscore.Metal.Weighted>
-0.0000

> <Gold.Chemscore.Lipo.Weighted>
-12.8190

> <Gold.Chemscore.Internal_Hbond.Weighted>
0.0000

> <Gold.Chemscore.DEClash.Weighted>
0.1641

> <Gold.Chemscore.DEInternal.Weighted>
0.3837

> <Gold.Chemscore.Rot.Weighted>
4.0038

> <Gold.Chemscore.Internal.Correction.Weighted>
   9.000000E+99

> <Gold.Protein.RotatedTorsions>
[ 6907 6896 6895 6894 ] final  163.63 input  -60.11 | X-H torsion
[ 7974 7965 7964 7962 ] final  -40.50 input  175.53 | X-H torsion
[ 8008 7997 7996 7995 ] final  -79.00 input   59.86 | X-H torsion
[ 10167 10162 10161 10158 ] final   58.19 input  -65.29 | X-H torsion
[ 10718 10713 10712 10709 ] final  -92.07 input   66.30 | X-H torsion
[ 10763 10752 10751 10750 ] final  -63.59 input  -60.55 | X-H torsion
[ 11005 11000 10999 10996 ] final  157.15 input  -57.11 | X-H torsion

> <Gold.Protein.ActiveResidues>
 VAL166  LYS551  ARG553  GLY616  TRP617  ASP618  TYR619  PRO620  LYS621  CYS622 
 ASP623  PHE694  ASN695  SER759  ASP760  ASP761  ALA762  ILE779  LEU786  VAL792 
 PHE793  MET794  SER795  GLU796  ALA797  LYS798  CYS799  TRP800  GLU811  SER814 

> <Gold.Protein.RotatedAtoms>
  151.9222  133.3588  159.3900 H   0  0  0  0  0  0  0  0  0  0  0  0  # atno 6907 bound_to 6896
  150.7034  134.4623  159.5396 H   0  0  0  0  0  0  0  0  0  0  0  0  # atno 6908 bound_to 6896
  152.2249  134.8378  160.0532 H   0  0  0  0  0  0  0  0  0  0  0  0  # atno 6909 bound_to 6896
  146.0298  140.6745  142.9138 H   0  0  0  0  0  0  0  0  0  0  0  0  # atno 7974 bound_to 7965
  154.5743  140.0685  156.9011 H   0  0  0  0  0  0  0  0  0  0  0  0  # atno 8008 bound_to 7997
  155.2577  140.3356  155.4258 H   0  0  0  0  0  0  0  0  0  0  0  0  # atno 8009 bound_to 7997
  156.2142  140.1771  156.7612 H   0  0  0  0  0  0  0  0  0  0  0  0  # atno 8010 bound_to 7997
  140.1898  144.4097  150.6576 H   0  0  0  0  0  0  0  0  0  0  0  0  # atno 10167 bound_to 10162
  155.9999  130.4972  150.5569 H   0  0  0  0  0  0  0  0  0  0  0  0  # atno 10718 bound_to 10713
  154.3174  135.6203  153.5492 H   0  0  0  0  0  0  0  0  0  0  0  0  # atno 10763 bound_to 10752
  152.9823  135.5715  154.5109 H   0  0  0  0  0  0  0  0  0  0  0  0  # atno 10764 bound_to 10752
  154.4770  135.2861  155.1576 H   0  0  0  0  0  0  0  0  0  0  0  0  # atno 10765 bound_to 10752
  140.1742  134.8522  157.2726 H   0  0  0  0  0  0  0  0  0  0  0  0  # atno 11005 bound_to 11000
  144.7025  140.3716  143.7144 LP  0  0  0  0  0  0  0  0  0  0  0  0  # atno 17320 bound_to 7965
  145.7058  139.1672  143.2566 LP  0  0  0  0  0  0  0  0  0  0  0  0  # atno 17321 bound_to 7965
  140.6463  143.2214  151.6178 LP  0  0  0  0  0  0  0  0  0  0  0  0  # atno 17342 bound_to 10162
  139.5260  144.3057  152.1036 LP  0  0  0  0  0  0  0  0  0  0  0  0  # atno 17343 bound_to 10162
  157.3484  131.0729  151.1732 LP  0  0  0  0  0  0  0  0  0  0  0  0  # atno 17370 bound_to 10713
  157.2557  130.6635  149.5951 LP  0  0  0  0  0  0  0  0  0  0  0  0  # atno 17371 bound_to 10713
  140.2342  134.3872  155.7508 LP  0  0  0  0  0  0  0  0  0  0  0  0  # atno 17394 bound_to 11000
  141.2219  133.7231  156.8688 LP  0  0  0  0  0  0  0  0  0  0  0  0  # atno 17395 bound_to 11000

$$$$
