AV-unprocessed.smi:1703|AV-procd|sdf|6868|dock2
  -GOLD-   22720 8 63D 1   1.00000     0.00000
 Structure written by MMmdl.
 49 51  0  0  0  0  0  0  0  0  2 V2000
  146.9826  136.7643  154.5405 C   0  0  0  0  0  0  0  0  0  0  0  0
  148.3083  136.2725  155.1307 C   0  0  2  0  0  0  0  0  0  0  0  0
  149.4589  137.2693  154.8916 C   0  0  0  0  0  0  0  0  0  0  0  0
  150.7341  136.7697  155.3983 N   0  0  0  0  0  0  0  0  0  0  0  0
  151.8066  137.7431  155.1712 C   0  0  0  0  0  0  0  0  0  0  0  0
  151.4571  139.2211  155.4567 C   0  0  2  0  0  0  0  0  0  0  0  0
  152.4322  140.0031  154.7946 O   0  0  0  0  0  0  0  0  0  0  0  0
  151.4300  139.6249  156.9479 C   0  0  0  0  0  0  0  0  0  0  0  0
  150.9493  140.9982  157.1704 N   0  0  0  0  0  0  0  0  0  0  0  0
  149.9463  141.6945  156.5616 C   0  0  0  0  0  0  0  0  0  0  0  0
  149.0502  141.1943  155.4732 C   0  0  0  0  0  0  0  0  0  0  0  0
  149.0877  141.9916  154.3083 O   0  0  0  0  0  0  0  0  0  0  0  0
  149.9134  142.9319  157.1349 N   0  3  0  0  0  0  0  0  0  0  0  0
  150.9026  143.0282  158.1143 C   0  0  0  0  0  0  0  0  0  0  0  0
  151.2535  144.0779  158.9575 C   0  0  0  0  0  0  0  0  0  0  0  0
  152.3214  143.8437  159.8490 C   0  0  0  0  0  0  0  0  0  0  0  0
  152.9959  142.6056  159.8780 C   0  0  0  0  0  0  0  0  0  0  0  0
  152.6315  141.5488  159.0177 C   0  0  0  0  0  0  0  0  0  0  0  0
  151.5738  141.7890  158.1410 C   0  0  0  0  0  0  0  0  0  0  0  0
  150.9975  135.4816  154.7575 C   0  0  0  0  0  0  0  0  0  0  0  0
  149.8581  134.4724  154.9962 C   0  0  2  0  0  0  0  0  0  0  0  0
  150.0984  133.1452  154.2691 C   0  0  0  0  0  0  0  0  0  0  0  0
  148.6366  135.0286  154.5193 O   0  0  0  0  0  0  0  0  0  0  0  0
  146.6831  137.7131  154.9861 H   0  0  0  0  0  0  0  0  0  0  0  0
  146.1844  136.0445  154.7233 H   0  0  0  0  0  0  0  0  0  0  0  0
  147.0603  136.9094  153.4627 H   0  0  0  0  0  0  0  0  0  0  0  0
  148.1776  136.1156  156.2030 H   0  0  0  0  0  0  0  0  0  0  0  0
  149.5428  137.4808  153.8241 H   0  0  0  0  0  0  0  0  0  0  0  0
  149.2143  138.2150  155.3773 H   0  0  0  0  0  0  0  0  0  0  0  0
  152.7084  137.4493  155.7106 H   0  0  0  0  0  0  0  0  0  0  0  0
  152.0823  137.7001  154.1159 H   0  0  0  0  0  0  0  0  0  0  0  0
  150.4967  139.4540  154.9962 H   0  0  0  0  0  0  0  0  0  0  0  0
  152.7156  140.6871  155.3818 H   0  0  0  0  0  0  0  0  0  0  0  0
  150.7842  138.9652  157.5242 H   0  0  0  0  0  0  0  0  0  0  0  0
  152.4282  139.5482  157.3802 H   0  0  0  0  0  0  0  0  0  0  0  0
  149.3383  140.1754  155.2133 H   0  0  0  0  0  0  0  0  0  0  0  0
  148.0249  141.1580  155.8419 H   0  0  0  0  0  0  0  0  0  0  0  0
  148.8792  142.8822  154.5476 H   0  0  0  0  0  0  0  0  0  0  0  0
  150.7391  145.0276  158.9367 H   0  0  0  0  0  0  0  0  0  0  0  0
  152.6296  144.6293  160.5236 H   0  0  0  0  0  0  0  0  0  0  0  0
  153.8098  142.4632  160.5743 H   0  0  0  0  0  0  0  0  0  0  0  0
  153.1540  140.6042  159.0476 H   0  0  0  0  0  0  0  0  0  0  0  0
  151.1306  135.6261  153.6842 H   0  0  0  0  0  0  0  0  0  0  0  0
  151.9224  135.0458  155.1208 H   0  0  0  0  0  0  0  0  0  0  0  0
  149.7640  134.2744  156.0654 H   0  0  0  0  0  0  0  0  0  0  0  0
  151.0235  132.6756  154.6046 H   0  0  0  0  0  0  0  0  0  0  0  0
  150.1691  133.2930  153.1911 H   0  0  0  0  0  0  0  0  0  0  0  0
  149.2835  132.4457  154.4565 H   0  0  0  0  0  0  0  0  0  0  0  0
  149.2569  143.6548  156.8686 H   0  0  0  0  0  0  0  0  0  0  0  0
  1  2  1  0  0  0  0
  1 24  1  0  0  0  0
  1 25  1  0  0  0  0
  1 26  1  0  0  0  0
  2 23  1  0  0  0  0
  2  3  1  0  0  0  0
  2 27  1  0  0  0  0
  3  4  1  0  0  0  0
  3 28  1  0  0  0  0
  3 29  1  0  0  0  0
  4  5  1  0  0  0  0
  4 20  1  0  0  0  0
  5  6  1  0  0  0  0
  5 30  1  0  0  0  0
  5 31  1  0  0  0  0
  6  7  1  0  0  0  0
  6  8  1  0  0  0  0
  6 32  1  0  0  0  0
  7 33  1  0  0  0  0
  8  9  1  0  0  0  0
  8 34  1  0  0  0  0
  8 35  1  0  0  0  0
  9 19  1  0  0  0  0
  9 10  1  0  0  0  0
 10 11  1  0  0  0  0
 10 13  2  0  0  0  0
 11 12  1  0  0  0  0
 11 36  1  0  0  0  0
 11 37  1  0  0  0  0
 12 38  1  0  0  0  0
 13 14  1  0  0  0  0
 13 49  1  0  0  0  0
 14 19  2  0  0  0  0
 14 15  1  0  0  0  0
 15 16  2  0  0  0  0
 15 39  1  0  0  0  0
 16 17  1  0  0  0  0
 16 40  1  0  0  0  0
 17 18  2  0  0  0  0
 17 41  1  0  0  0  0
 18 19  1  0  0  0  0
 18 42  1  0  0  0  0
 20 21  1  0  0  0  0
 20 43  1  0  0  0  0
 20 44  1  0  0  0  0
 21 22  1  0  0  0  0
 21 23  1  0  0  0  0
 21 45  1  0  0  0  0
 22 46  1  0  0  0  0
 22 47  1  0  0  0  0
 22 48  1  0  0  0  0
M  CHG  1  13   1
M  END
> <s_m_source_file>
AV-unprocessed.smi

> <i_m_source_file_index>
1703

> <i_lp_mmshare_version>
43012

> <i_f3d_flags>
0

> <s_epik_input>
W0NIM11bQ0BASF0xW0NIMl1OKFtDSDJdW0NASF0oTzEpW0NIM10pW0NIMl1bQ0BIXShbT0hdKVtDSDJdbihjKG4yKVtDSDJdW09IXSljKGMyMylbY0hdW2NIXVtjSF1bY0hdMw==

> <s_epik_cmdline>
J2VwaWtfcHl0aG9uJywgJy1waCcsICc3LjAnLCAnLXRuJywgJzgnLCAnLW1hJywgJzIwMCcsICctbWV0YWxfYmluZGluZycsICctaW1hZScsICc8aW5maWxlLm1hZT4nLCAnLW9tYWUnLCAnPG91dGZpbGUubWFlPic=

> <r_epik_Ionization_Penalty>
1.7682

> <r_epik_Ionization_Penalty_Charging>
1.55298

> <r_epik_Ionization_Penalty_Neutral>
0.215215

> <r_epik_State_Penalty>
1.83821

> <r_epik_Charging_Adjusted_Penalty>
3.39119

> <i_epik_Tot_Q>
1

> <i_epik_Tot_abs_Q>
1

> <r_epik_Metal_State_Penalty>
5.89206

> <b_epik_Metal_Only>
0

> <s_lp_Force_Field>
OPLS_2005

> <r_lp_Energy>
30.4523

> <b_lp_Chiralities_Consistent>
1

> <s_lp_Variant>
AV-unprocessed.smi:1703-16

> <Gold.Version>
5.8.1

> <Gold.Id.Protein>
6NUR|6NUR_protein|mol2

> <Gold.PLP.Fitness>
53.6093

> <Gold.PLP.PLP>
-43.1772

> <Gold.PLP.part.hbond>
-4.3360

> <Gold.PLP.part.metal>
0.0000

> <Gold.PLP.part.buried>
-4.8112

> <Gold.PLP.part.nonpolar>
-34.3080

> <Gold.PLP.part.repulsive>
0.5088

> <Gold.PLP.ligand.clash>
0.0000

> <Gold.PLP.ligand.torsion>
0.6080

> <Gold.PLP.Chemscore.Hbond>
3.8583

> <Gold.PLP.Chemscore.CHOScore>
0.0000

> <Gold.PLP.Chemscore.Metal>
0.0000

> <Gold.Chemscore.Hbonds>
donor molecule, donor type, donor heavy atom, donor atom, acceptor molecule, acceptor atom, score
      L1  H    12    38       P1  8028  0.76
      L1  H    13    49       P1  8028  1.76
      P1  H  7989  7998       L1     7  0.58
      P1  H  8011  8017       L1    12  0.23

> <Gold.PLP.Chemscore.Internal.Correction>
0.0731

> <Gold.Rescore>
     Score         DG    S(hbond)    S(metal)    S(lipo)     H(rot)  DE(clash)    DE(int)     intcor
     17.05     -17.58       2.11        0.00     107.94       2.96       0.01       0.52       ----

> <Gold.Chemscore.Fitness>
17.0501

> <Gold.Chemscore.DG>
-17.5800

> <Gold.Chemscore.ZeroCoef>
-5.4800

> <Gold.Chemscore.Hbond>
2.1069

> <Gold.Chemscore.Metal>
0.0000

> <Gold.Chemscore.Lipo>
107.9393

> <Gold.Chemscore.Internal_Hbond>
0.0000

> <Gold.Chemscore.DEClash>
0.0147

> <Gold.Chemscore.DEInternal>
0.5152

> <Gold.Chemscore.Rot>
2.9555

> <Gold.Chemscore.Internal.Correction>
   9.000000E+99

> <Gold.Chemscore.Hbonds>
donor molecule, donor type, donor heavy atom, donor atom, acceptor molecule, acceptor atom, score
      L1  H    12    38       P1  8028  0.75
      L1  H    13    49       P1  8028  0.74
      P1  H  7989  7998       L1     7  0.17
      P1  H  8011  8017       L1    12  0.03

> <Gold.Chemscore.Hbond.Weighted>
-7.0371

> <Gold.Chemscore.Metal.Weighted>
-0.0000

> <Gold.Chemscore.Lipo.Weighted>
-12.6289

> <Gold.Chemscore.Internal_Hbond.Weighted>
0.0000

> <Gold.Chemscore.DEClash.Weighted>
0.0147

> <Gold.Chemscore.DEInternal.Weighted>
0.5152

> <Gold.Chemscore.Rot.Weighted>
7.5660

> <Gold.Chemscore.Internal.Correction.Weighted>
   9.000000E+99

> <Gold.Protein.RotatedTorsions>
[ 6907 6896 6895 6894 ] final  -41.59 input  -60.11 | X-H torsion
[ 7974 7965 7964 7962 ] final -176.98 input  175.53 | X-H torsion
[ 8008 7997 7996 7995 ] final   83.29 input   59.86 | X-H torsion
[ 10167 10162 10161 10158 ] final   10.63 input  -65.29 | X-H torsion
[ 10718 10713 10712 10709 ] final   32.12 input   66.30 | X-H torsion
[ 10763 10752 10751 10750 ] final   42.99 input  -60.55 | X-H torsion
[ 11005 11000 10999 10996 ] final   22.10 input  -57.11 | X-H torsion

> <Gold.Protein.ActiveResidues>
 VAL166  LYS551  ARG553  GLY616  TRP617  ASP618  TYR619  PRO620  LYS621  CYS622 
 ASP623  PHE694  ASN695  SER759  ASP760  ASP761  ALA762  ILE779  LEU786  VAL792 
 PHE793  MET794  SER795  GLU796  ALA797  LYS798  CYS799  TRP800  GLU811  SER814 

> <Gold.Protein.RotatedAtoms>
  150.9650  134.9032  159.7753 H   0  0  0  0  0  0  0  0  0  0  0  0  # atno 6907 bound_to 6896
  152.5170  134.3620  159.9298 H   0  0  0  0  0  0  0  0  0  0  0  0  # atno 6908 bound_to 6896
  151.3631  133.3841  159.2726 H   0  0  0  0  0  0  0  0  0  0  0  0  # atno 6909 bound_to 6896
  144.7127  140.1089  143.6412 H   0  0  0  0  0  0  0  0  0  0  0  0  # atno 7974 bound_to 7965
  155.9219  140.3420  155.6180 H   0  0  0  0  0  0  0  0  0  0  0  0  # atno 8008 bound_to 7997
  155.7263  140.0790  157.2327 H   0  0  0  0  0  0  0  0  0  0  0  0  # atno 8009 bound_to 7997
  154.4071  140.1596  156.2446 H   0  0  0  0  0  0  0  0  0  0  0  0  # atno 8010 bound_to 7997
  140.6182  143.8261  150.7144 H   0  0  0  0  0  0  0  0  0  0  0  0  # atno 10167 bound_to 10162
  157.2811  130.7255  149.6557 H   0  0  0  0  0  0  0  0  0  0  0  0  # atno 10718 bound_to 10713
  152.9870  135.6115  154.3039 H   0  0  0  0  0  0  0  0  0  0  0  0  # atno 10763 bound_to 10752
  154.2758  135.2778  155.2720 H   0  0  0  0  0  0  0  0  0  0  0  0  # atno 10764 bound_to 10752
  154.5082  135.5848  153.6640 H   0  0  0  0  0  0  0  0  0  0  0  0  # atno 10765 bound_to 10752
  140.3843  134.1887  155.7663 H   0  0  0  0  0  0  0  0  0  0  0  0  # atno 11005 bound_to 11000
  145.9472  139.2709  143.1233 LP  0  0  0  0  0  0  0  0  0  0  0  0  # atno 17320 bound_to 7965
  145.9361  140.9013  143.0331 LP  0  0  0  0  0  0  0  0  0  0  0  0  # atno 17321 bound_to 7965
  140.1845  143.4087  152.1908 LP  0  0  0  0  0  0  0  0  0  0  0  0  # atno 17342 bound_to 10162
  139.5416  144.7262  151.4714 LP  0  0  0  0  0  0  0  0  0  0  0  0  # atno 17343 bound_to 10162
  155.9664  130.4338  150.5020 LP  0  0  0  0  0  0  0  0  0  0  0  0  # atno 17370 bound_to 10713
  157.2964  131.0636  151.2098 LP  0  0  0  0  0  0  0  0  0  0  0  0  # atno 17371 bound_to 10713
  141.1913  133.8198  157.0885 LP  0  0  0  0  0  0  0  0  0  0  0  0  # atno 17394 bound_to 11000
  140.0455  134.9832  157.1040 LP  0  0  0  0  0  0  0  0  0  0  0  0  # atno 17395 bound_to 11000

$$$$
