AV-unprocessed.smi:2553|AV-procd|sdf|10018|dock5
  -GOLD-   2272014 63D 1   1.00000     0.00000
 Structure written by MMmdl.
 28 29  0  0  0  0  0  0  0  0  2 V2000
  150.8338  135.1804  155.2113 O   0  0  0  0  0  0  0  0  0  0  0  0
  150.9003  136.3749  155.4984 C   0  0  0  0  0  0  0  0  0  0  0  0
  151.8657  137.2002  154.9972 N   0  5  0  0  0  0  0  0  0  0  0  0
  151.9550  138.5314  155.3030 C   0  0  0  0  0  0  0  0  0  0  0  0
  152.8442  139.2528  154.8501 O   0  0  0  0  0  0  0  0  0  0  0  0
  151.0263  139.0764  156.1431 N   0  0  0  0  0  0  0  0  0  0  0  0
  151.0541  140.4913  156.5389 C   0  0  0  0  0  0  0  0  0  0  0  0
  151.6500  140.6696  157.9437 C   0  0  0  0  0  0  0  0  0  0  0  0
  151.2051  141.9134  158.4679 O   0  0  0  0  0  0  0  0  0  0  0  0
  151.6722  142.3177  159.6996 C   0  0  0  0  0  0  0  0  0  0  0  0
  152.6704  141.6266  160.4321 C   0  0  0  0  0  0  0  0  0  0  0  0
  153.0978  142.1079  161.6848 C   0  0  0  0  0  0  0  0  0  0  0  0
  152.5358  143.2812  162.2201 C   0  0  0  0  0  0  0  0  0  0  0  0
  152.9481  143.7429  163.4244 F   0  0  0  0  0  0  0  0  0  0  0  0
  151.5452  143.9743  161.5008 C   0  0  0  0  0  0  0  0  0  0  0  0
  151.1159  143.4950  160.2477 C   0  0  0  0  0  0  0  0  0  0  0  0
  149.8952  144.3607  159.3845 Cl  0  0  0  0  0  0  0  0  0  0  0  0
  150.0164  138.2690  156.6932 C   0  0  0  0  0  0  0  0  0  0  0  0
  149.9175  136.9557  156.4112 C   0  0  0  0  0  0  0  0  0  0  0  0
  148.6721  135.9858  157.1132 Cl  0  0  0  0  0  0  0  0  0  0  0  0
  151.6285  141.0757  155.8186 H   0  0  0  0  0  0  0  0  0  0  0  0
  150.0489  140.9141  156.5087 H   0  0  0  0  0  0  0  0  0  0  0  0
  151.3469  139.8436  158.5892 H   0  0  0  0  0  0  0  0  0  0  0  0
  152.7387  140.6647  157.8781 H   0  0  0  0  0  0  0  0  0  0  0  0
  153.1267  140.7252  160.0525 H   0  0  0  0  0  0  0  0  0  0  0  0
  153.8594  141.5755  162.2351 H   0  0  0  0  0  0  0  0  0  0  0  0
  151.1137  144.8751  161.9116 H   0  0  0  0  0  0  0  0  0  0  0  0
  149.3391  138.7784  157.3633 H   0  0  0  0  0  0  0  0  0  0  0  0
  1  2  2  0  0  0  0
  2 19  1  0  0  0  0
  2  3  1  0  0  0  0
  3  4  1  0  0  0  0
  4  5  2  0  0  0  0
  4  6  1  0  0  0  0
  6  7  1  0  0  0  0
  6 18  1  0  0  0  0
  7  8  1  0  0  0  0
  7 21  1  0  0  0  0
  7 22  1  0  0  0  0
  8  9  1  0  0  0  0
  8 23  1  0  0  0  0
  8 24  1  0  0  0  0
  9 10  1  0  0  0  0
 10 16  1  0  0  0  0
 10 11  2  0  0  0  0
 11 12  1  0  0  0  0
 11 25  1  0  0  0  0
 12 13  2  0  0  0  0
 12 26  1  0  0  0  0
 13 14  1  0  0  0  0
 13 15  1  0  0  0  0
 15 16  2  0  0  0  0
 15 27  1  0  0  0  0
 16 17  1  0  0  0  0
 18 19  2  0  0  0  0
 18 28  1  0  0  0  0
 19 20  1  0  0  0  0
M  CHG  1   3  -1
M  END
> <s_m_source_file>
AV-unprocessed.smi

> <i_m_source_file_index>
2553

> <i_lp_mmshare_version>
43012

> <i_f3d_flags>
0

> <s_epik_input>
Tz1jMVtuSF1jKD1PKW4oW2NIXWMxQ2wpW0NIMl1bQ0gyXU9jMltjSF1bY0hdYyhGKVtjSF1jMkNs

> <s_epik_cmdline>
J2VwaWtfcHl0aG9uJywgJy1waCcsICc3LjAnLCAnLXRuJywgJzgnLCAnLW1hJywgJzIwMCcsICctbWV0YWxfYmluZGluZycsICctaW1hZScsICc8aW5maWxlLm1hZT4nLCAnLW9tYWUnLCAnPG91dGZpbGUubWFlPic=

> <r_lp_tautomer_probability>
1

> <r_epik_Ionization_Penalty>
1.51646

> <r_epik_Ionization_Penalty_Charging>
6.90068e-09

> <r_epik_Ionization_Penalty_Neutral>
1.51646

> <r_epik_State_Penalty>
1.60792

> <r_epik_Charging_Adjusted_Penalty>
1.60792

> <i_epik_Tot_Q>
-1

> <i_epik_Tot_abs_Q>
1

> <r_epik_Metal_State_Penalty>
0.00828827

> <b_epik_Metal_Only>
0

> <s_lp_Force_Field>
OPLS_2005

> <r_lp_Energy>
21.8883

> <b_lp_Chiralities_Consistent>
1

> <s_lp_Variant>
AV-unprocessed.smi:2553-2

> <Gold.Version>
5.8.1

> <Gold.Id.Protein>
6NUR|6NUR_protein|mol2

> <Gold.PLP.Fitness>
52.0349

> <Gold.PLP.PLP>
-43.9542

> <Gold.PLP.part.hbond>
-2.0000

> <Gold.PLP.part.metal>
0.0000

> <Gold.PLP.part.buried>
-6.6050

> <Gold.PLP.part.nonpolar>
-35.9039

> <Gold.PLP.part.repulsive>
0.3231

> <Gold.PLP.ligand.clash>
0.0000

> <Gold.PLP.ligand.torsion>
0.3950

> <Gold.PLP.Chemscore.Hbond>
2.9520

> <Gold.PLP.Chemscore.CHOScore>
0.0000

> <Gold.PLP.Chemscore.Metal>
0.0000

> <Gold.Chemscore.Hbonds>
donor molecule, donor type, donor heavy atom, donor atom, acceptor molecule, acceptor atom, score
      P1  H  7989  7998       L1     5  0.04
      P1  H  7997  8008       L1     5  0.73
      P1  H 10752 10765       L1     3  1.07

> <Gold.PLP.Chemscore.Internal.Correction>
0.0147

> <Gold.Rescore>
     Score         DG    S(hbond)    S(metal)    S(lipo)     H(rot)  DE(clash)    DE(int)     intcor
     16.99     -17.87       1.73        0.00      97.58       1.88       0.27       0.61       ----

> <Gold.Chemscore.Fitness>
16.9889

> <Gold.Chemscore.DG>
-17.8681

> <Gold.Chemscore.ZeroCoef>
-5.4800

> <Gold.Chemscore.Hbond>
1.7329

> <Gold.Chemscore.Metal>
0.0000

> <Gold.Chemscore.Lipo>
97.5782

> <Gold.Chemscore.Internal_Hbond>
0.0000

> <Gold.Chemscore.DEClash>
0.2740

> <Gold.Chemscore.DEInternal>
0.6052

> <Gold.Chemscore.Rot>
1.8814

> <Gold.Chemscore.Internal.Correction>
   9.000000E+99

> <Gold.Chemscore.Hbonds>
donor molecule, donor type, donor heavy atom, donor atom, acceptor molecule, acceptor atom, score
      P1  H  7989  7998       L1     5  0.03
      P1  H  7997  8008       L1     5  0.73
      P1  H 10752 10765       L1     3  0.03

> <Gold.Chemscore.Hbond.Weighted>
-5.7878

> <Gold.Chemscore.Metal.Weighted>
-0.0000

> <Gold.Chemscore.Lipo.Weighted>
-11.4167

> <Gold.Chemscore.Internal_Hbond.Weighted>
0.0000

> <Gold.Chemscore.DEClash.Weighted>
0.2740

> <Gold.Chemscore.DEInternal.Weighted>
0.6052

> <Gold.Chemscore.Rot.Weighted>
4.8163

> <Gold.Chemscore.Internal.Correction.Weighted>
   9.000000E+99

> <Gold.Protein.RotatedTorsions>
[ 6907 6896 6895 6894 ] final   12.31 input  -60.11 | X-H torsion
[ 7974 7965 7964 7962 ] final  -25.28 input  175.53 | X-H torsion
[ 8008 7997 7996 7995 ] final  -11.14 input   59.86 | X-H torsion
[ 10167 10162 10161 10158 ] final   44.96 input  -65.29 | X-H torsion
[ 10718 10713 10712 10709 ] final  -19.80 input   66.30 | X-H torsion
[ 10763 10752 10751 10750 ] final  171.61 input  -60.55 | X-H torsion
[ 11005 11000 10999 10996 ] final  -36.07 input  -57.11 | X-H torsion

> <Gold.Protein.ActiveResidues>
 VAL166  LYS551  ARG553  GLY616  TRP617  ASP618  TYR619  PRO620  LYS621  CYS622 
 ASP623  PHE694  ASN695  SER759  ASP760  ASP761  ALA762  ILE779  LEU786  VAL792 
 PHE793  MET794  SER795  GLU796  ALA797  LYS798  CYS799  TRP800  GLU811  SER814 

> <Gold.Protein.RotatedAtoms>
  151.7683  135.0793  160.0355 H   0  0  0  0  0  0  0  0  0  0  0  0  # atno 6907 bound_to 6896
  152.3306  133.5949  159.5815 H   0  0  0  0  0  0  0  0  0  0  0  0  # atno 6908 bound_to 6896
  150.7420  133.9790  159.3612 H   0  0  0  0  0  0  0  0  0  0  0  0  # atno 6909 bound_to 6896
  146.1501  140.4866  142.8615 H   0  0  0  0  0  0  0  0  0  0  0  0  # atno 7974 bound_to 7965
  154.5491  140.2310  155.8513 H   0  0  0  0  0  0  0  0  0  0  0  0  # atno 8008 bound_to 7997
  156.1931  140.3072  155.9333 H   0  0  0  0  0  0  0  0  0  0  0  0  # atno 8009 bound_to 7997
  155.3105  140.0435  157.3025 H   0  0  0  0  0  0  0  0  0  0  0  0  # atno 8010 bound_to 7997
  140.3290  144.2612  150.6171 H   0  0  0  0  0  0  0  0  0  0  0  0  # atno 10167 bound_to 10162
  156.5406  130.4677  149.6501 H   0  0  0  0  0  0  0  0  0  0  0  0  # atno 10718 bound_to 10713
  154.4143  135.2757  155.2016 H   0  0  0  0  0  0  0  0  0  0  0  0  # atno 10763 bound_to 10752
  154.3989  135.6049  153.5889 H   0  0  0  0  0  0  0  0  0  0  0  0  # atno 10764 bound_to 10752
  152.9832  135.5921  154.4430 H   0  0  0  0  0  0  0  0  0  0  0  0  # atno 10765 bound_to 10752
  140.9846  133.7037  156.1743 H   0  0  0  0  0  0  0  0  0  0  0  0  # atno 11005 bound_to 11000
  144.7893  140.6000  143.6552 LP  0  0  0  0  0  0  0  0  0  0  0  0  # atno 17320 bound_to 7965
  145.4844  139.1493  143.3744 LP  0  0  0  0  0  0  0  0  0  0  0  0  # atno 17321 bound_to 7965
  140.5414  143.2223  151.8078 LP  0  0  0  0  0  0  0  0  0  0  0  0  # atno 17342 bound_to 10162
  139.4860  144.4595  151.9558 LP  0  0  0  0  0  0  0  0  0  0  0  0  # atno 17343 bound_to 10162
  156.2975  130.7158  151.2022 LP  0  0  0  0  0  0  0  0  0  0  0  0  # atno 17370 bound_to 10713
  157.7406  131.0515  150.5156 LP  0  0  0  0  0  0  0  0  0  0  0  0  # atno 17371 bound_to 10713
  140.7134  134.4437  157.5580 LP  0  0  0  0  0  0  0  0  0  0  0  0  # atno 17394 bound_to 11000
  139.8965  134.8658  156.2085 LP  0  0  0  0  0  0  0  0  0  0  0  0  # atno 17395 bound_to 11000

$$$$
