AV-unprocessed.smi:1886|AV-procd|sdf|7654|dock8
  -GOLD-   22720 9383D 1   1.00000     0.00000
 Structure written by MMmdl.
 39 40  0  0  0  0  0  0  0  0  1 V2000
  146.4365  135.6739  154.9673 O   0  0  0  0  0  0  0  0  0  0  0  0
  147.2853  135.8603  154.0955 C   0  0  0  0  0  0  0  0  0  0  0  0
  148.3109  136.7146  154.2130 N   0  0  0  0  0  0  0  0  0  0  0  0
  148.5971  137.5223  155.3938 C   0  0  0  0  0  0  0  0  0  0  0  0
  148.7449  139.0010  155.0639 C   0  0  0  0  0  0  0  0  0  0  0  0
  147.7400  139.6539  154.3188 C   0  0  0  0  0  0  0  0  0  0  0  0
  147.8821  141.0225  154.0258 C   0  0  0  0  0  0  0  0  0  0  0  0
  149.0297  141.6894  154.4930 C   0  0  0  0  0  0  0  0  0  0  0  0
  149.9990  141.0801  155.2066 N   0  0  0  0  0  0  0  0  0  0  0  0
  149.8640  139.7620  155.4913 C   0  0  0  0  0  0  0  0  0  0  0  0
  150.8878  139.1551  156.2354 N   0  0  0  0  0  0  0  0  0  0  0  0
  152.1672  139.1127  155.5400 C   0  0  0  0  0  0  0  0  0  0  0  0
  153.1739  138.2824  156.3532 C   0  0  0  0  0  0  0  0  0  0  0  0
  153.2868  138.8205  157.6678 O   0  0  0  0  0  0  0  0  0  0  0  0
  152.0443  138.7938  158.3655 C   0  0  0  0  0  0  0  0  0  0  0  0
  151.0076  139.6384  157.6047 C   0  0  0  0  0  0  0  0  0  0  0  0
  147.2936  135.2350  152.9109 N   0  0  0  0  0  0  0  0  0  0  0  0
  146.2976  134.2651  152.4657 C   0  0  0  0  0  0  0  0  0  0  0  0
  145.4745  134.7743  151.2698 C   0  0  0  0  0  0  0  0  0  0  0  0
  144.6691  133.7995  150.8503 F   0  0  0  0  0  0  0  0  0  0  0  0
  144.7278  135.8181  151.6321 F   0  0  0  0  0  0  0  0  0  0  0  0
  146.2672  135.1296  150.2591 F   0  0  0  0  0  0  0  0  0  0  0  0
  148.9520  136.8005  153.4379 H   0  0  0  0  0  0  0  0  0  0  0  0
  147.7902  137.3784  156.1131 H   0  0  0  0  0  0  0  0  0  0  0  0
  149.5121  137.1908  155.8877 H   0  0  0  0  0  0  0  0  0  0  0  0
  146.8694  139.1153  153.9744 H   0  0  0  0  0  0  0  0  0  0  0  0
  147.1292  141.5490  153.4584 H   0  0  0  0  0  0  0  0  0  0  0  0
  149.1731  142.7403  154.2889 H   0  0  0  0  0  0  0  0  0  0  0  0
  152.0370  138.6776  154.5484 H   0  0  0  0  0  0  0  0  0  0  0  0
  152.5458  140.1266  155.4020 H   0  0  0  0  0  0  0  0  0  0  0  0
  152.8596  137.2397  156.4044 H   0  0  0  0  0  0  0  0  0  0  0  0
  154.1525  138.2987  155.8736 H   0  0  0  0  0  0  0  0  0  0  0  0
  151.7002  137.7641  158.4776 H   0  0  0  0  0  0  0  0  0  0  0  0
  152.1910  139.1929  159.3691 H   0  0  0  0  0  0  0  0  0  0  0  0
  151.3134  140.6857  157.6027 H   0  0  0  0  0  0  0  0  0  0  0  0
  150.0387  139.5838  158.1026 H   0  0  0  0  0  0  0  0  0  0  0  0
  148.0374  135.4507  152.2634 H   0  0  0  0  0  0  0  0  0  0  0  0
  146.7739  133.3136  152.2227 H   0  0  0  0  0  0  0  0  0  0  0  0
  145.6329  134.0683  153.3072 H   0  0  0  0  0  0  0  0  0  0  0  0
  1  2  2  0  0  0  0
  2  3  1  0  0  0  0
  2 17  1  0  0  0  0
  3  4  1  0  0  0  0
  3 23  1  0  0  0  0
  4  5  1  0  0  0  0
  4 24  1  0  0  0  0
  4 25  1  0  0  0  0
  5 10  1  0  0  0  0
  5  6  2  0  0  0  0
  6  7  1  0  0  0  0
  6 26  1  0  0  0  0
  7  8  2  0  0  0  0
  7 27  1  0  0  0  0
  8  9  1  0  0  0  0
  8 28  1  0  0  0  0
  9 10  2  0  0  0  0
 10 11  1  0  0  0  0
 11 16  1  0  0  0  0
 11 12  1  0  0  0  0
 12 13  1  0  0  0  0
 12 29  1  0  0  0  0
 12 30  1  0  0  0  0
 13 14  1  0  0  0  0
 13 31  1  0  0  0  0
 13 32  1  0  0  0  0
 14 15  1  0  0  0  0
 15 16  1  0  0  0  0
 15 33  1  0  0  0  0
 15 34  1  0  0  0  0
 16 35  1  0  0  0  0
 16 36  1  0  0  0  0
 17 18  1  0  0  0  0
 17 37  1  0  0  0  0
 18 19  1  0  0  0  0
 18 38  1  0  0  0  0
 18 39  1  0  0  0  0
 19 20  1  0  0  0  0
 19 21  1  0  0  0  0
 19 22  1  0  0  0  0
M  END
> <s_m_source_file>
AV-unprocessed.smi

> <i_m_source_file_index>
1886

> <i_lp_mmshare_version>
43012

> <i_f3d_flags>
0

> <s_epik_input>
RkMoRikoRilbQ0gyXVtOSF1DKD1PKVtOSF1bQ0gyXWMxW2NIXVtjSF1bY0hdbmMxTjJbQ0gyXVtDSDJdT1tDSDJdW0NIMl0y

> <s_epik_cmdline>
J2VwaWtfcHl0aG9uJywgJy1waCcsICc3LjAnLCAnLXRuJywgJzgnLCAnLW1hJywgJzIwMCcsICctbWV0YWxfYmluZGluZycsICctaW1hZScsICc8aW5maWxlLm1hZT4nLCAnLW9tYWUnLCAnPG91dGZpbGUubWFlPic=

> <r_lp_tautomer_probability>
1

> <r_epik_Ionization_Penalty>
0.00288023

> <r_epik_Ionization_Penalty_Charging>
0

> <r_epik_Ionization_Penalty_Neutral>
0.00288023

> <r_epik_State_Penalty>
0.00199456

> <r_epik_Charging_Adjusted_Penalty>
0.00199456

> <i_epik_Tot_Q>
0

> <i_epik_Tot_abs_Q>
0

> <r_epik_Metal_State_Penalty>
-0

> <b_epik_Metal_Only>
0

> <s_lp_Force_Field>
OPLS_2005

> <r_lp_Energy>
16.0982

> <b_lp_Chiralities_Consistent>
1

> <s_lp_Variant>
AV-unprocessed.smi:1886-1

> <Gold.Version>
5.8.1

> <Gold.Id.Protein>
6NUR|6NUR_protein|mol2

> <Gold.PLP.Fitness>
42.9008

> <Gold.PLP.PLP>
-30.2115

> <Gold.PLP.part.hbond>
-4.0000

> <Gold.PLP.part.metal>
0.0000

> <Gold.PLP.part.buried>
-3.1455

> <Gold.PLP.part.nonpolar>
-24.6704

> <Gold.PLP.part.repulsive>
0.1371

> <Gold.PLP.ligand.clash>
0.0000

> <Gold.PLP.ligand.torsion>
0.2003

> <Gold.PLP.Chemscore.Hbond>
3.4056

> <Gold.PLP.Chemscore.CHOScore>
0.9081

> <Gold.PLP.Chemscore.Metal>
0.0000

> <Gold.Chemscore.Hbonds>
donor molecule, donor type, donor heavy atom, donor atom, acceptor molecule, acceptor atom, score
      L1  H     3    23       P1  7948  0.70
      L1  H    17    37       P1  7948  0.28
      P1  H  7989  7998       L1     9  0.10
      L1  C     8    28       P1  8028  1.00

> <Gold.PLP.Chemscore.Internal.Correction>
0.1487

> <Gold.Rescore>
     Score         DG    S(hbond)    S(metal)    S(lipo)     H(rot)  DE(clash)    DE(int)     intcor
     16.04     -16.39       2.96        0.00      54.64       2.09       0.11       0.24       ----

> <Gold.Chemscore.Fitness>
16.0391

> <Gold.Chemscore.DG>
-16.3939

> <Gold.Chemscore.ZeroCoef>
-5.4800

> <Gold.Chemscore.Hbond>
2.9554

> <Gold.Chemscore.Metal>
0.0000

> <Gold.Chemscore.Lipo>
54.6412

> <Gold.Chemscore.Internal_Hbond>
0.0000

> <Gold.Chemscore.DEClash>
0.1120

> <Gold.Chemscore.DEInternal>
0.2428

> <Gold.Chemscore.Rot>
2.0899

> <Gold.Chemscore.Internal.Correction>
   9.000000E+99

> <Gold.Chemscore.Hbonds>
donor molecule, donor type, donor heavy atom, donor atom, acceptor molecule, acceptor atom, score
      L1  H     3    23       P1  7948  0.70
      L1  H    17    37       P1  7948  0.26
      P1  H  7989  7998       L1     9  0.01

> <Gold.Chemscore.Hbond.Weighted>
-9.8711

> <Gold.Chemscore.Metal.Weighted>
-0.0000

> <Gold.Chemscore.Lipo.Weighted>
-6.3930

> <Gold.Chemscore.Internal_Hbond.Weighted>
0.0000

> <Gold.Chemscore.DEClash.Weighted>
0.1120

> <Gold.Chemscore.DEInternal.Weighted>
0.2428

> <Gold.Chemscore.Rot.Weighted>
5.3502

> <Gold.Chemscore.Internal.Correction.Weighted>
   9.000000E+99

> <Gold.Protein.RotatedTorsions>
[ 6907 6896 6895 6894 ] final  110.12 input  -60.11 | X-H torsion
[ 7974 7965 7964 7962 ] final -116.04 input  175.53 | X-H torsion
[ 8008 7997 7996 7995 ] final  -63.95 input   59.86 | X-H torsion
[ 10167 10162 10161 10158 ] final    6.52 input  -65.29 | X-H torsion
[ 10718 10713 10712 10709 ] final  173.40 input   66.30 | X-H torsion
[ 10763 10752 10751 10750 ] final   60.60 input  -60.55 | X-H torsion
[ 11005 11000 10999 10996 ] final   95.14 input  -57.11 | X-H torsion

> <Gold.Protein.ActiveResidues>
 VAL166  LYS551  ARG553  GLY616  TRP617  ASP618  TYR619  PRO620  LYS621  CYS622 
 ASP623  PHE694  ASN695  SER759  ASP760  ASP761  ALA762  ILE779  LEU786  VAL792 
 PHE793  MET794  SER795  GLU796  ALA797  LYS798  CYS799  TRP800  GLU811  SER814 

> <Gold.Protein.RotatedAtoms>
  152.5035  133.8845  159.7362 H   0  0  0  0  0  0  0  0  0  0  0  0  # atno 6907 bound_to 6896
  150.9299  133.6770  159.2820 H   0  0  0  0  0  0  0  0  0  0  0  0  # atno 6908 bound_to 6896
  151.4118  135.0990  159.9640 H   0  0  0  0  0  0  0  0  0  0  0  0  # atno 6909 bound_to 6896
  145.1013  140.8554  143.3924 H   0  0  0  0  0  0  0  0  0  0  0  0  # atno 7974 bound_to 7965
  154.4583  140.0964  156.6822 H   0  0  0  0  0  0  0  0  0  0  0  0  # atno 8008 bound_to 7997
  155.5070  140.3475  155.4363 H   0  0  0  0  0  0  0  0  0  0  0  0  # atno 8009 bound_to 7997
  156.0822  140.1376  156.9687 H   0  0  0  0  0  0  0  0  0  0  0  0  # atno 8010 bound_to 7997
  140.6423  143.7744  150.7447 H   0  0  0  0  0  0  0  0  0  0  0  0  # atno 10167 bound_to 10162
  156.9649  131.0072  151.2919 H   0  0  0  0  0  0  0  0  0  0  0  0  # atno 10718 bound_to 10713
  152.9926  135.5530  154.5900 H   0  0  0  0  0  0  0  0  0  0  0  0  # atno 10763 bound_to 10752
  154.5264  135.2811  155.1221 H   0  0  0  0  0  0  0  0  0  0  0  0  # atno 10764 bound_to 10752
  154.2553  135.6391  153.5308 H   0  0  0  0  0  0  0  0  0  0  0  0  # atno 10765 bound_to 10752
  139.8792  134.8883  156.3967 H   0  0  0  0  0  0  0  0  0  0  0  0  # atno 11005 bound_to 11000
  145.0952  139.2861  143.5714 LP  0  0  0  0  0  0  0  0  0  0  0  0  # atno 17320 bound_to 7965
  146.3529  140.0502  142.8636 LP  0  0  0  0  0  0  0  0  0  0  0  0  # atno 17321 bound_to 7965
  140.1378  143.4468  152.2213 LP  0  0  0  0  0  0  0  0  0  0  0  0  # atno 17342 bound_to 10162
  139.5633  144.7419  151.4094 LP  0  0  0  0  0  0  0  0  0  0  0  0  # atno 17343 bound_to 10162
  157.5633  130.8260  149.8294 LP  0  0  0  0  0  0  0  0  0  0  0  0  # atno 17370 bound_to 10713
  156.0307  130.3765  150.1696 LP  0  0  0  0  0  0  0  0  0  0  0  0  # atno 17371 bound_to 10713
  140.9295  133.7589  156.0007 LP  0  0  0  0  0  0  0  0  0  0  0  0  # atno 17394 bound_to 11000
  140.8347  134.3137  157.5336 LP  0  0  0  0  0  0  0  0  0  0  0  0  # atno 17395 bound_to 11000

$$$$
