AV-unprocessed.smi:760|AV-procd|sdf|3628|dock10
  -GOLD-   22720 1 23D 1   1.00000     0.00000
 Structure written by MMmdl.
 44 45  0  0  0  0  0  0  0  0  2 V2000
  149.7527  133.5605  153.6648 C   0  0  0  0  0  0  0  0  0  0  0  0
  149.8991  133.9663  154.9370 C   0  0  0  0  0  0  0  0  0  0  0  0
  150.8064  133.2356  155.9113 C   0  0  0  0  0  0  0  0  0  0  0  0
  149.1882  135.2021  155.4674 C   0  0  0  0  0  0  0  0  0  0  0  0
  149.6157  136.4517  154.7847 N   0  3  2  0  0  0  0  0  0  0  0  0
  151.0925  136.6134  154.8177 C   0  0  0  0  0  0  0  0  0  0  0  0
  151.5445  137.8220  153.9804 C   0  0  0  0  0  0  0  0  0  0  0  0
  150.8564  139.1233  154.4329 C   0  0  2  0  0  0  0  0  0  0  0  0
  151.3376  139.5656  155.7417 N   0  0  0  0  0  0  0  0  0  0  0  0
  151.2435  140.8167  156.2155 C   0  0  0  0  0  0  0  0  0  0  0  0
  150.7345  141.7442  155.5866 O   0  0  0  0  0  0  0  0  0  0  0  0
  151.7764  140.9171  157.4441 N   0  0  0  0  0  0  0  0  0  0  0  0
  151.8556  142.0807  158.2501 C   0  0  0  0  0  0  0  0  0  0  0  0
  152.6546  142.3274  159.4028 C   0  0  0  0  0  0  0  0  0  0  0  0
  152.4436  143.5470  159.8751 N   0  0  0  0  0  0  0  0  0  0  0  0
  151.5194  144.0907  159.0466 N   0  0  0  0  0  0  0  0  0  0  0  0
  151.0594  145.4422  159.2851 C   0  0  0  0  0  0  0  0  0  0  0  0
  151.1415  143.2223  158.0419 C   0  0  0  0  0  0  0  0  0  0  0  0
  149.3330  138.9181  154.4543 C   0  0  0  0  0  0  0  0  0  0  0  0
  148.9183  137.6753  155.2640 C   0  0  0  0  0  0  0  0  0  0  0  0
  150.2690  132.6886  153.2898 H   0  0  0  0  0  0  0  0  0  0  0  0
  149.1134  134.0950  152.9774 H   0  0  0  0  0  0  0  0  0  0  0  0
  151.6230  133.8880  156.2215 H   0  0  0  0  0  0  0  0  0  0  0  0
  151.2436  132.3472  155.4540 H   0  0  0  0  0  0  0  0  0  0  0  0
  150.2692  132.9223  156.8050 H   0  0  0  0  0  0  0  0  0  0  0  0
  148.1061  135.0787  155.3993 H   0  0  0  0  0  0  0  0  0  0  0  0
  149.4225  135.2799  156.5301 H   0  0  0  0  0  0  0  0  0  0  0  0
  151.4260  136.7216  155.8510 H   0  0  0  0  0  0  0  0  0  0  0  0
  151.5695  135.7139  154.4265 H   0  0  0  0  0  0  0  0  0  0  0  0
  152.6295  137.9247  154.0261 H   0  0  0  0  0  0  0  0  0  0  0  0
  151.3051  137.6375  152.9323 H   0  0  0  0  0  0  0  0  0  0  0  0
  151.0788  139.9092  153.7086 H   0  0  0  0  0  0  0  0  0  0  0  0
  151.7662  138.8675  156.3318 H   0  0  0  0  0  0  0  0  0  0  0  0
  152.1679  140.0772  157.8439 H   0  0  0  0  0  0  0  0  0  0  0  0
  153.3645  141.6888  159.9070 H   0  0  0  0  0  0  0  0  0  0  0  0
  150.1172  145.6126  158.7636 H   0  0  0  0  0  0  0  0  0  0  0  0
  151.8020  146.1519  158.9198 H   0  0  0  0  0  0  0  0  0  0  0  0
  150.9051  145.6024  160.3529 H   0  0  0  0  0  0  0  0  0  0  0  0
  150.4153  143.4873  157.2874 H   0  0  0  0  0  0  0  0  0  0  0  0
  148.8367  139.8055  154.8493 H   0  0  0  0  0  0  0  0  0  0  0  0
  148.9763  138.8055  153.4294 H   0  0  0  0  0  0  0  0  0  0  0  0
  147.8411  137.5566  155.1610 H   0  0  0  0  0  0  0  0  0  0  0  0
  149.1249  137.8235  156.3250 H   0  0  0  0  0  0  0  0  0  0  0  0
  149.3665  136.3400  153.8122 H   0  0  0  0  0  0  0  0  0  0  0  0
  1  2  2  0  0  0  0
  1 21  1  0  0  0  0
  1 22  1  0  0  0  0
  2  3  1  0  0  0  0
  2  4  1  0  0  0  0
  3 23  1  0  0  0  0
  3 24  1  0  0  0  0
  3 25  1  0  0  0  0
  4  5  1  0  0  0  0
  4 26  1  0  0  0  0
  4 27  1  0  0  0  0
  5 20  1  0  0  0  0
  5  6  1  0  0  0  0
  5 44  1  0  0  0  0
  6  7  1  0  0  0  0
  6 28  1  0  0  0  0
  6 29  1  0  0  0  0
  7  8  1  0  0  0  0
  7 30  1  0  0  0  0
  7 31  1  0  0  0  0
  8  9  1  0  0  0  0
  8 19  1  0  0  0  0
  8 32  1  0  0  0  0
  9 10  1  0  0  0  0
  9 33  1  0  0  0  0
 10 11  2  0  0  0  0
 10 12  1  0  0  0  0
 12 13  1  0  0  0  0
 12 34  1  0  0  0  0
 13 18  2  0  0  0  0
 13 14  1  0  0  0  0
 14 15  2  0  0  0  0
 14 35  1  0  0  0  0
 15 16  1  0  0  0  0
 16 17  1  0  0  0  0
 16 18  1  0  0  0  0
 17 36  1  0  0  0  0
 17 37  1  0  0  0  0
 17 38  1  0  0  0  0
 18 39  1  0  0  0  0
 19 20  1  0  0  0  0
 19 40  1  0  0  0  0
 19 41  1  0  0  0  0
 20 42  1  0  0  0  0
 20 43  1  0  0  0  0
M  CHG  1   5   1
M  END
> <s_m_source_file>
AV-unprocessed.smi

> <i_m_source_file_index>
760

> <i_lp_mmshare_version>
43012

> <i_f3d_flags>
0

> <s_epik_input>
W0NIMl09QyhbQ0gzXSlbQ0gyXU4xW0NIMl1bQ0gyXVtDSF0oW0NIMl1bQ0gyXTEpW05IXUMoPU8pW05IXWMyW2NIXW5uKFtDSDNdKVtjSF0y

> <s_epik_cmdline>
J2VwaWtfcHl0aG9uJywgJy1waCcsICc3LjAnLCAnLXRuJywgJzgnLCAnLW1hJywgJzIwMCcsICctbWV0YWxfYmluZGluZycsICctaW1hZScsICc8aW5maWxlLm1hZT4nLCAnLW9tYWUnLCAnPG91dGZpbGUubWFlPic=

> <r_lp_tautomer_probability>
1

> <r_epik_Ionization_Penalty>
0.0194996

> <r_epik_Ionization_Penalty_Charging>
0.0193505

> <r_epik_Ionization_Penalty_Neutral>
0.000149098

> <r_epik_State_Penalty>
0.0154499

> <r_epik_Charging_Adjusted_Penalty>
0.0348004

> <i_epik_Tot_Q>
1

> <i_epik_Tot_abs_Q>
1

> <r_epik_Metal_State_Penalty>
0.0154507

> <b_epik_Metal_Only>
0

> <s_lp_Force_Field>
OPLS_2005

> <r_lp_Energy>
20.0822

> <b_lp_Chiralities_Consistent>
1

> <s_lp_Variant>
AV-unprocessed.smi:760-2

> <Gold.Version>
5.8.1

> <Gold.Id.Protein>
6NUR|6NUR_protein|mol2

> <Gold.PLP.Fitness>
44.6163

> <Gold.PLP.PLP>
-36.1899

> <Gold.PLP.part.hbond>
-2.0000

> <Gold.PLP.part.metal>
0.0000

> <Gold.PLP.part.buried>
-0.5309

> <Gold.PLP.part.nonpolar>
-32.9183

> <Gold.PLP.part.repulsive>
0.3103

> <Gold.PLP.ligand.clash>
0.0000

> <Gold.PLP.ligand.torsion>
0.3567

> <Gold.PLP.Chemscore.Hbond>
2.1030

> <Gold.PLP.Chemscore.CHOScore>
0.9343

> <Gold.PLP.Chemscore.Metal>
0.0000

> <Gold.Chemscore.Hbonds>
donor molecule, donor type, donor heavy atom, donor atom, acceptor molecule, acceptor atom, score
      L1  H     5    44       P1  7948  2.00
      P1  H  7989  7998       L1    11  0.01
      L1  C    18    39       P1  8028  0.98

> <Gold.PLP.Chemscore.Internal.Correction>
0.0278

> <Gold.Rescore>
     Score         DG    S(hbond)    S(metal)    S(lipo)     H(rot)  DE(clash)    DE(int)     intcor
     13.90     -15.63       0.96        0.00      89.39       1.38       0.17       1.56       ----

> <Gold.Chemscore.Fitness>
13.9005

> <Gold.Chemscore.DG>
-15.6319

> <Gold.Chemscore.ZeroCoef>
-5.4800

> <Gold.Chemscore.Hbond>
0.9622

> <Gold.Chemscore.Metal>
0.0000

> <Gold.Chemscore.Lipo>
89.3890

> <Gold.Chemscore.Internal_Hbond>
0.0000

> <Gold.Chemscore.DEClash>
0.1748

> <Gold.Chemscore.DEInternal>
1.5567

> <Gold.Chemscore.Rot>
1.3752

> <Gold.Chemscore.Internal.Correction>
   9.000000E+99

> <Gold.Chemscore.Hbonds>
donor molecule, donor type, donor heavy atom, donor atom, acceptor molecule, acceptor atom, score
      L1  H     5    44       P1  7948  0.84

> <Gold.Chemscore.Hbond.Weighted>
-3.2138

> <Gold.Chemscore.Metal.Weighted>
-0.0000

> <Gold.Chemscore.Lipo.Weighted>
-10.4585

> <Gold.Chemscore.Internal_Hbond.Weighted>
0.0000

> <Gold.Chemscore.DEClash.Weighted>
0.1748

> <Gold.Chemscore.DEInternal.Weighted>
1.5567

> <Gold.Chemscore.Rot.Weighted>
3.5204

> <Gold.Chemscore.Internal.Correction.Weighted>
   9.000000E+99

> <Gold.Protein.RotatedTorsions>
[ 6907 6896 6895 6894 ] final -171.18 input  -60.11 | X-H torsion
[ 7974 7965 7964 7962 ] final  -46.08 input  175.53 | X-H torsion
[ 8008 7997 7996 7995 ] final   17.35 input   59.86 | X-H torsion
[ 10167 10162 10161 10158 ] final   83.10 input  -65.29 | X-H torsion
[ 10718 10713 10712 10709 ] final  133.17 input   66.30 | X-H torsion
[ 10763 10752 10751 10750 ] final  126.30 input  -60.55 | X-H torsion
[ 11005 11000 10999 10996 ] final  158.54 input  -57.11 | X-H torsion

> <Gold.Protein.ActiveResidues>
 VAL166  LYS551  ARG553  GLY616  TRP617  ASP618  TYR619  PRO620  LYS621  CYS622 
 ASP623  PHE694  ASN695  SER759  ASP760  ASP761  ALA762  ILE779  LEU786  VAL792 
 PHE793  MET794  SER795  GLU796  ALA797  LYS798  CYS799  TRP800  GLU811  SER814 

> <Gold.Protein.RotatedAtoms>
  151.5196  133.3469  159.2898 H   0  0  0  0  0  0  0  0  0  0  0  0  # atno 6907 bound_to 6896
  150.8661  134.8026  159.7130 H   0  0  0  0  0  0  0  0  0  0  0  0  # atno 6908 bound_to 6896
  152.4665  134.5073  159.9795 H   0  0  0  0  0  0  0  0  0  0  0  0  # atno 6909 bound_to 6896
  145.9756  140.7338  142.9389 H   0  0  0  0  0  0  0  0  0  0  0  0  # atno 7974 bound_to 7965
  154.8902  140.2986  155.5375 H   0  0  0  0  0  0  0  0  0  0  0  0  # atno 8008 bound_to 7997
  156.3021  140.2426  156.3851 H   0  0  0  0  0  0  0  0  0  0  0  0  # atno 8009 bound_to 7997
  154.8626  140.0404  157.1664 H   0  0  0  0  0  0  0  0  0  0  0  0  # atno 8010 bound_to 7997
  139.9218  144.6207  150.8432 H   0  0  0  0  0  0  0  0  0  0  0  0  # atno 10167 bound_to 10162
  157.4799  131.1085  150.9694 H   0  0  0  0  0  0  0  0  0  0  0  0  # atno 10718 bound_to 10713
  153.6912  135.3298  155.3202 H   0  0  0  0  0  0  0  0  0  0  0  0  # atno 10763 bound_to 10752
  154.8439  135.4432  154.1507 H   0  0  0  0  0  0  0  0  0  0  0  0  # atno 10764 bound_to 10752
  153.2549  135.6985  153.7717 H   0  0  0  0  0  0  0  0  0  0  0  0  # atno 10765 bound_to 10752
  140.1875  134.8431  157.2874 H   0  0  0  0  0  0  0  0  0  0  0  0  # atno 11005 bound_to 11000
  144.6848  140.2822  143.7290 LP  0  0  0  0  0  0  0  0  0  0  0  0  # atno 17320 bound_to 7965
  145.7844  139.1903  143.2139 LP  0  0  0  0  0  0  0  0  0  0  0  0  # atno 17321 bound_to 7965
  140.7660  143.3291  151.2449 LP  0  0  0  0  0  0  0  0  0  0  0  0  # atno 17342 bound_to 10162
  139.6855  143.9781  152.2831 LP  0  0  0  0  0  0  0  0  0  0  0  0  # atno 17343 bound_to 10162
  157.0431  130.5757  149.5359 LP  0  0  0  0  0  0  0  0  0  0  0  0  # atno 17370 bound_to 10713
  156.0116  130.5208  150.8007 LP  0  0  0  0  0  0  0  0  0  0  0  0  # atno 17371 bound_to 10713
  140.2197  134.4038  155.7572 LP  0  0  0  0  0  0  0  0  0  0  0  0  # atno 17394 bound_to 11000
  141.2225  133.7159  156.8470 LP  0  0  0  0  0  0  0  0  0  0  0  0  # atno 17395 bound_to 11000

$$$$
