AV-unprocessed.smi:1453|AV-procd|sdf|5911|dock7
  -GOLD-   22720 5593D 1   1.00000     0.00000
 Structure written by MMmdl.
 43 44  0  0  0  0  0  0  0  0  1 V2000
  147.4309  133.7124  160.4684 C   0  0  0  0  0  0  0  0  0  0  0  0
  146.9781  134.9820  159.7299 C   0  0  2  0  0  0  0  0  0  0  0  0
  147.9956  135.4074  158.6635 C   0  0  0  0  0  0  0  0  0  0  0  0
  149.0231  134.7531  158.4846 O   0  0  0  0  0  0  0  0  0  0  0  0
  147.6990  136.5119  157.9605 N   0  0  0  0  0  0  0  0  0  0  0  0
  148.5495  137.0948  156.9288 C   0  0  0  0  0  0  0  0  0  0  0  0
  149.1579  138.4239  157.3422 C   0  0  0  0  0  0  0  0  0  0  0  0
  148.5535  139.6458  156.9864 C   0  0  0  0  0  0  0  0  0  0  0  0
  149.1515  140.8502  157.4027 C   0  0  0  0  0  0  0  0  0  0  0  0
  150.3443  140.8024  158.1635 C   0  0  0  0  0  0  0  0  0  0  0  0
  150.9589  141.9975  158.5970 N   0  0  0  0  0  0  0  0  0  0  0  0
  151.9953  141.8427  159.6150 C   0  0  0  0  0  0  0  0  0  0  0  0
  152.3647  143.2097  160.2167 C   0  0  0  0  0  0  0  0  0  0  0  0
  152.7394  144.1090  159.1786 O   0  0  0  0  0  0  0  0  0  0  0  0
  151.6738  144.3315  158.2611 C   0  0  0  0  0  0  0  0  0  0  0  0
  151.2848  143.0045  157.5883 C   0  0  0  0  0  0  0  0  0  0  0  0
  150.9292  139.6229  158.4903 N   0  0  0  0  0  0  0  0  0  0  0  0
  150.3502  138.4709  158.0917 C   0  0  0  0  0  0  0  0  0  0  0  0
  146.7133  136.3568  160.9464 S   0  0  0  0  0  0  0  0  0  0  0  0
  145.4350  135.6716  162.0822 C   0  0  0  0  0  0  0  0  0  0  0  0
  147.9587  136.5310  161.7095 O   0  0  0  0  0  0  0  0  0  0  0  0
  146.1305  137.5124  160.2472 O   0  0  0  0  0  0  0  0  0  0  0  0
  147.6053  132.8902  159.7732 H   0  0  0  0  0  0  0  0  0  0  0  0
  146.6712  133.3855  161.1786 H   0  0  0  0  0  0  0  0  0  0  0  0
  148.3525  133.8803  161.0276 H   0  0  0  0  0  0  0  0  0  0  0  0
  146.0158  134.7864  159.2552 H   0  0  0  0  0  0  0  0  0  0  0  0
  146.8313  136.9881  158.1601 H   0  0  0  0  0  0  0  0  0  0  0  0
  149.3324  136.3899  156.6432 H   0  0  0  0  0  0  0  0  0  0  0  0
  147.9427  137.2572  156.0377 H   0  0  0  0  0  0  0  0  0  0  0  0
  147.6436  139.6630  156.4046 H   0  0  0  0  0  0  0  0  0  0  0  0
  148.6990  141.7899  157.1233 H   0  0  0  0  0  0  0  0  0  0  0  0
  151.6790  141.1779  160.4174 H   0  0  0  0  0  0  0  0  0  0  0  0
  152.8742  141.3886  159.1553 H   0  0  0  0  0  0  0  0  0  0  0  0
  151.5299  143.6215  160.7863 H   0  0  0  0  0  0  0  0  0  0  0  0
  153.1993  143.1012  160.9094 H   0  0  0  0  0  0  0  0  0  0  0  0
  150.8192  144.7708  158.7785 H   0  0  0  0  0  0  0  0  0  0  0  0
  151.9966  145.0525  157.5098 H   0  0  0  0  0  0  0  0  0  0  0  0
  152.1089  142.6434  156.9711 H   0  0  0  0  0  0  0  0  0  0  0  0
  150.4312  143.1708  156.9298 H   0  0  0  0  0  0  0  0  0  0  0  0
  150.8531  137.5614  158.3858 H   0  0  0  0  0  0  0  0  0  0  0  0
  145.2844  136.3620  162.9117 H   0  0  0  0  0  0  0  0  0  0  0  0
  145.7648  134.7080  162.4698 H   0  0  0  0  0  0  0  0  0  0  0  0
  144.4935  135.5515  161.5477 H   0  0  0  0  0  0  0  0  0  0  0  0
  1  2  1  0  0  0  0
  1 23  1  0  0  0  0
  1 24  1  0  0  0  0
  1 25  1  0  0  0  0
  2  3  1  0  0  0  0
  2 19  1  0  0  0  0
  2 26  1  0  0  0  0
  3  4  2  0  0  0  0
  3  5  1  0  0  0  0
  5  6  1  0  0  0  0
  5 27  1  0  0  0  0
  6  7  1  0  0  0  0
  6 28  1  0  0  0  0
  6 29  1  0  0  0  0
  7 18  1  0  0  0  0
  7  8  2  0  0  0  0
  8  9  1  0  0  0  0
  8 30  1  0  0  0  0
  9 10  2  0  0  0  0
  9 31  1  0  0  0  0
 10 11  1  0  0  0  0
 10 17  1  0  0  0  0
 11 16  1  0  0  0  0
 11 12  1  0  0  0  0
 12 13  1  0  0  0  0
 12 32  1  0  0  0  0
 12 33  1  0  0  0  0
 13 14  1  0  0  0  0
 13 34  1  0  0  0  0
 13 35  1  0  0  0  0
 14 15  1  0  0  0  0
 15 16  1  0  0  0  0
 15 36  1  0  0  0  0
 15 37  1  0  0  0  0
 16 38  1  0  0  0  0
 16 39  1  0  0  0  0
 17 18  2  0  0  0  0
 18 40  1  0  0  0  0
 19 20  1  0  0  0  0
 19 21  2  0  0  0  0
 19 22  2  0  0  0  0
 20 41  1  0  0  0  0
 20 42  1  0  0  0  0
 20 43  1  0  0  0  0
M  END
> <s_m_source_file>
AV-unprocessed.smi

> <i_m_source_file_index>
1453

> <i_lp_mmshare_version>
43012

> <i_f3d_flags>
0

> <s_epik_input>
W0NIM11TKD1PKSg9TylbQ0BIXShbQ0gzXSlDKD1PKVtOSF1bQ0gyXWMxW2NIXVtjSF1jKG5bY0hdMSlOMltDSDJdW0NIMl1PW0NIMl1bQ0gyXTI=

> <s_epik_cmdline>
J2VwaWtfcHl0aG9uJywgJy1waCcsICc3LjAnLCAnLXRuJywgJzgnLCAnLW1hJywgJzIwMCcsICctbWV0YWxfYmluZGluZycsICctaW1hZScsICc8aW5maWxlLm1hZT4nLCAnLW9tYWUnLCAnPG91dGZpbGUubWFlPic=

> <r_lp_tautomer_probability>
1

> <r_epik_Ionization_Penalty>
0.00349781

> <r_epik_Ionization_Penalty_Charging>
0

> <r_epik_Ionization_Penalty_Neutral>
0.00349781

> <r_epik_State_Penalty>
0.00248024

> <r_epik_Charging_Adjusted_Penalty>
0.00248024

> <i_epik_Tot_Q>
0

> <i_epik_Tot_abs_Q>
0

> <r_epik_Metal_State_Penalty>
-0

> <b_epik_Metal_Only>
0

> <s_lp_Force_Field>
OPLS_2005

> <r_lp_Energy>
14.1024

> <b_lp_Chiralities_Consistent>
1

> <s_lp_Variant>
AV-unprocessed.smi:1453-1

> <Gold.Version>
5.8.1

> <Gold.Id.Protein>
6NUR|6NUR_protein|mol2

> <Gold.PLP.Fitness>
39.4398

> <Gold.PLP.PLP>
-31.2433

> <Gold.PLP.part.hbond>
-3.0000

> <Gold.PLP.part.metal>
0.0000

> <Gold.PLP.part.buried>
-5.5025

> <Gold.PLP.part.nonpolar>
-22.9241

> <Gold.PLP.part.repulsive>
0.0800

> <Gold.PLP.ligand.clash>
0.0000

> <Gold.PLP.ligand.torsion>
0.6504

> <Gold.PLP.Chemscore.Hbond>
3.0000

> <Gold.PLP.Chemscore.CHOScore>
0.0000

> <Gold.PLP.Chemscore.Metal>
0.0000

> <Gold.Chemscore.Hbonds>
donor molecule, donor type, donor heavy atom, donor atom, acceptor molecule, acceptor atom, score
      P1  H  6896  6909       L1     4  1.00
      P1  H  6931  6943       L1    21  0.99
      P1  H  6934  6947       L1    22  1.00

> <Gold.PLP.Chemscore.Internal.Correction>
0.4973

> <Gold.Rescore>
     Score         DG    S(hbond)    S(metal)    S(lipo)     H(rot)  DE(clash)    DE(int)     intcor
     17.32     -18.21       2.86        0.00      72.46       2.08       0.01       0.88       ----

> <Gold.Chemscore.Fitness>
17.3181

> <Gold.Chemscore.DG>
-18.2091

> <Gold.Chemscore.ZeroCoef>
-5.4800

> <Gold.Chemscore.Hbond>
2.8642

> <Gold.Chemscore.Metal>
0.0000

> <Gold.Chemscore.Lipo>
72.4641

> <Gold.Chemscore.Internal_Hbond>
0.0000

> <Gold.Chemscore.DEClash>
0.0137

> <Gold.Chemscore.DEInternal>
0.8773

> <Gold.Chemscore.Rot>
2.0764

> <Gold.Chemscore.Internal.Correction>
   9.000000E+99

> <Gold.Chemscore.Hbonds>
donor molecule, donor type, donor heavy atom, donor atom, acceptor molecule, acceptor atom, score
      P1  H  6896  6909       L1     4  1.00
      P1  H  6931  6943       L1    21  0.92
      P1  H  6934  6947       L1    22  0.44

> <Gold.Chemscore.Hbond.Weighted>
-9.5663

> <Gold.Chemscore.Metal.Weighted>
-0.0000

> <Gold.Chemscore.Lipo.Weighted>
-8.4783

> <Gold.Chemscore.Internal_Hbond.Weighted>
0.0000

> <Gold.Chemscore.DEClash.Weighted>
0.0137

> <Gold.Chemscore.DEInternal.Weighted>
0.8773

> <Gold.Chemscore.Rot.Weighted>
5.3155

> <Gold.Chemscore.Internal.Correction.Weighted>
   9.000000E+99

> <Gold.Protein.RotatedTorsions>
[ 6907 6896 6895 6894 ] final   33.72 input  -60.11 | X-H torsion
[ 7974 7965 7964 7962 ] final  -26.20 input  175.53 | X-H torsion
[ 8008 7997 7996 7995 ] final -160.64 input   59.86 | X-H torsion
[ 10167 10162 10161 10158 ] final  -71.31 input  -65.29 | X-H torsion
[ 10718 10713 10712 10709 ] final  -63.19 input   66.30 | X-H torsion
[ 10763 10752 10751 10750 ] final  101.87 input  -60.55 | X-H torsion
[ 11005 11000 10999 10996 ] final  176.10 input  -57.11 | X-H torsion

> <Gold.Protein.ActiveResidues>
 VAL166  LYS551  ARG553  GLY616  TRP617  ASP618  TYR619  PRO620  LYS621  CYS622 
 ASP623  PHE694  ASN695  SER759  ASP760  ASP761  ALA762  ILE779  LEU786  VAL792 
 PHE793  MET794  SER795  GLU796  ALA797  LYS798  CYS799  TRP800  GLU811  SER814 

> <Gold.Protein.RotatedAtoms>
  152.0925  134.9397  160.0571 H   0  0  0  0  0  0  0  0  0  0  0  0  # atno 6907 bound_to 6896
  152.0644  133.4072  159.4440 H   0  0  0  0  0  0  0  0  0  0  0  0  # atno 6908 bound_to 6896
  150.6837  134.3084  159.4779 H   0  0  0  0  0  0  0  0  0  0  0  0  # atno 6909 bound_to 6896
  146.1441  140.4988  142.8639 H   0  0  0  0  0  0  0  0  0  0  0  0  # atno 7974 bound_to 7965
  155.7805  140.0864  157.2062 H   0  0  0  0  0  0  0  0  0  0  0  0  # atno 8008 bound_to 7997
  154.3990  140.1508  156.3104 H   0  0  0  0  0  0  0  0  0  0  0  0  # atno 8009 bound_to 7997
  155.8658  140.3428  155.5790 H   0  0  0  0  0  0  0  0  0  0  0  0  # atno 8010 bound_to 7997
  140.5283  143.2324  151.7308 H   0  0  0  0  0  0  0  0  0  0  0  0  # atno 10167 bound_to 10162
  156.0807  130.4218  150.1241 H   0  0  0  0  0  0  0  0  0  0  0  0  # atno 10718 bound_to 10713
  153.3323  135.4030  155.1505 H   0  0  0  0  0  0  0  0  0  0  0  0  # atno 10763 bound_to 10752
  154.8625  135.3613  154.5455 H   0  0  0  0  0  0  0  0  0  0  0  0  # atno 10764 bound_to 10752
  153.5894  135.7074  153.5489 H   0  0  0  0  0  0  0  0  0  0  0  0  # atno 10765 bound_to 10752
  140.3694  134.7043  157.4382 H   0  0  0  0  0  0  0  0  0  0  0  0  # atno 11005 bound_to 11000
  144.7826  140.5871  143.6595 LP  0  0  0  0  0  0  0  0  0  0  0  0  # atno 17320 bound_to 7965
  145.4979  139.1485  143.3674 LP  0  0  0  0  0  0  0  0  0  0  0  0  # atno 17321 bound_to 7965
  139.4945  144.4153  152.0037 LP  0  0  0  0  0  0  0  0  0  0  0  0  # atno 17342 bound_to 10162
  140.3253  144.3379  150.6000 LP  0  0  0  0  0  0  0  0  0  0  0  0  # atno 17343 bound_to 10162
  156.9273  130.9702  151.3539 LP  0  0  0  0  0  0  0  0  0  0  0  0  # atno 17370 bound_to 10713
  157.5922  130.8452  149.8676 LP  0  0  0  0  0  0  0  0  0  0  0  0  # atno 17371 bound_to 10713
  140.0563  134.6058  155.8801 LP  0  0  0  0  0  0  0  0  0  0  0  0  # atno 17394 bound_to 11000
  141.1959  133.6589  156.5666 LP  0  0  0  0  0  0  0  0  0  0  0  0  # atno 17395 bound_to 11000

$$$$
