AV-unprocessed.smi:2562|AV-procd|sdf|10052|dock2
  -GOLD-   2272014 93D 1   1.00000     0.00000
 Structure written by MMmdl.
 30 31  0  0  0  0  0  0  0  0  3 V2000
  152.8688  142.8441  162.4972 C   0  0  0  0  0  0  0  0  0  0  0  0
  152.7741  142.4718  161.0137 C   0  0  0  0  0  0  0  0  0  0  0  0
  153.3386  141.0749  160.7195 C   0  0  0  0  0  0  0  0  0  0  0  0
  153.1822  140.6902  159.2640 C   0  0  0  0  0  0  0  0  0  0  0  0
  153.8018  139.6545  158.6777 N   0  0  0  0  0  0  0  0  0  0  0  0
  153.3755  139.6514  157.4311 N   0  5  0  0  0  0  0  0  0  0  0  0
  152.4919  140.6484  157.2501 C   0  0  0  0  0  0  0  0  0  0  0  0
  151.8081  140.9957  155.9447 C   0  0  2  0  0  0  0  0  0  0  0  0
  151.0073  142.3063  156.0725 C   0  0  0  0  0  0  0  0  0  0  0  0
  150.3313  142.6195  154.7989 N   0  3  0  0  0  0  0  0  0  0  0  0
  149.4942  141.4951  154.3378 C   0  0  0  0  0  0  0  0  0  0  0  0
  150.3365  140.2110  154.2591 C   0  0  0  0  0  0  0  0  0  0  0  0
  150.9298  139.9526  155.5260 O   0  0  0  0  0  0  0  0  0  0  0  0
  152.3703  141.3107  158.3964 N   0  0  0  0  0  0  0  0  0  0  0  0
  152.4737  143.8449  162.6721 H   0  0  0  0  0  0  0  0  0  0  0  0
  153.9036  142.8297  162.8406 H   0  0  0  0  0  0  0  0  0  0  0  0
  152.2999  142.1483  163.1145 H   0  0  0  0  0  0  0  0  0  0  0  0
  151.7320  142.5199  160.6955 H   0  0  0  0  0  0  0  0  0  0  0  0
  153.3122  143.2135  160.4219 H   0  0  0  0  0  0  0  0  0  0  0  0
  154.3970  141.0353  160.9791 H   0  0  0  0  0  0  0  0  0  0  0  0
  152.8361  140.3283  161.3359 H   0  0  0  0  0  0  0  0  0  0  0  0
  152.5903  141.1156  155.1928 H   0  0  0  0  0  0  0  0  0  0  0  0
  150.2603  142.2190  156.8630 H   0  0  0  0  0  0  0  0  0  0  0  0
  151.6649  143.1336  156.3414 H   0  0  0  0  0  0  0  0  0  0  0  0
  149.7570  143.4419  154.9178 H   0  0  0  0  0  0  0  0  0  0  0  0
  148.6629  141.3583  155.0306 H   0  0  0  0  0  0  0  0  0  0  0  0
  149.0671  141.7362  153.3643 H   0  0  0  0  0  0  0  0  0  0  0  0
  149.7069  139.3645  153.9841 H   0  0  0  0  0  0  0  0  0  0  0  0
  151.1087  140.2958  153.4928 H   0  0  0  0  0  0  0  0  0  0  0  0
  151.0360  142.8062  154.0999 H   0  0  0  0  0  0  0  0  0  0  0  0
  1  2  1  0  0  0  0
  1 15  1  0  0  0  0
  1 16  1  0  0  0  0
  1 17  1  0  0  0  0
  2  3  1  0  0  0  0
  2 18  1  0  0  0  0
  2 19  1  0  0  0  0
  3  4  1  0  0  0  0
  3 20  1  0  0  0  0
  3 21  1  0  0  0  0
  4 14  1  0  0  0  0
  4  5  2  0  0  0  0
  5  6  1  0  0  0  0
  6  7  1  0  0  0  0
  7  8  1  0  0  0  0
  7 14  2  0  0  0  0
  8 13  1  0  0  0  0
  8  9  1  0  0  0  0
  8 22  1  0  0  0  0
  9 10  1  0  0  0  0
  9 23  1  0  0  0  0
  9 24  1  0  0  0  0
 10 11  1  0  0  0  0
 10 25  1  0  0  0  0
 10 30  1  0  0  0  0
 11 12  1  0  0  0  0
 11 26  1  0  0  0  0
 11 27  1  0  0  0  0
 12 13  1  0  0  0  0
 12 28  1  0  0  0  0
 12 29  1  0  0  0  0
M  CHG  1   6  -1
M  CHG  1  10   1
M  END
> <s_m_source_file>
AV-unprocessed.smi

> <i_m_source_file_index>
2562

> <i_lp_mmshare_version>
43012

> <i_f3d_flags>
0

> <s_epik_input>
W0NIM11bQ0gyXVtDSDJdYzFuW25IXWMobjEpW0NAQEhdMltDSDJdW05IXVtDSDJdW0NIMl1PMg==

> <s_epik_cmdline>
J2VwaWtfcHl0aG9uJywgJy1waCcsICc3LjAnLCAnLXRuJywgJzgnLCAnLW1hJywgJzIwMCcsICctbWV0YWxfYmluZGluZycsICctaW1hZScsICc8aW5maWxlLm1hZT4nLCAnLW9tYWUnLCAnPG91dGZpbGUubWFlPic=

> <r_epik_Ionization_Penalty>
3.5188

> <r_epik_Ionization_Penalty_Charging>
3.5188

> <r_epik_Ionization_Penalty_Neutral>
2.11677e-13

> <r_epik_State_Penalty>
2.51144

> <r_epik_Charging_Adjusted_Penalty>
6.03025

> <i_epik_Tot_Q>
0

> <i_epik_Tot_abs_Q>
2

> <r_epik_Metal_State_Penalty>
0.975833

> <b_epik_Metal_Only>
0

> <s_lp_Force_Field>
OPLS_2005

> <r_lp_Energy>
5.22198

> <b_lp_Chiralities_Consistent>
1

> <s_lp_Variant>
AV-unprocessed.smi:2562-11

> <Gold.Version>
5.8.1

> <Gold.Id.Protein>
6NUR|6NUR_protein|mol2

> <Gold.PLP.Fitness>
41.0013

> <Gold.PLP.PLP>
-29.4496

> <Gold.PLP.part.hbond>
-3.0000

> <Gold.PLP.part.metal>
0.0000

> <Gold.PLP.part.buried>
-2.0631

> <Gold.PLP.part.nonpolar>
-22.9871

> <Gold.PLP.part.repulsive>
0.2335

> <Gold.PLP.ligand.clash>
0.0000

> <Gold.PLP.ligand.torsion>
0.2331

> <Gold.PLP.Chemscore.Hbond>
4.0000

> <Gold.PLP.Chemscore.CHOScore>
0.0000

> <Gold.PLP.Chemscore.Metal>
0.0000

> <Gold.Chemscore.Hbonds>
donor molecule, donor type, donor heavy atom, donor atom, acceptor molecule, acceptor atom, score
      L1  H    10    25       P1  8028  2.00
      P1  H  7997  8008       L1     6  1.14

> <Gold.PLP.Chemscore.Internal.Correction>
0.0180

> <Gold.Rescore>
     Score         DG    S(hbond)    S(metal)    S(lipo)     H(rot)  DE(clash)    DE(int)     intcor
     12.75     -13.47       1.47        0.00      58.61       1.48       0.02       0.70       ----

> <Gold.Chemscore.Fitness>
12.7471

> <Gold.Chemscore.DG>
-13.4729

> <Gold.Chemscore.ZeroCoef>
-5.4800

> <Gold.Chemscore.Hbond>
1.4748

> <Gold.Chemscore.Metal>
0.0000

> <Gold.Chemscore.Lipo>
58.6054

> <Gold.Chemscore.Internal_Hbond>
0.0000

> <Gold.Chemscore.DEClash>
0.0247

> <Gold.Chemscore.DEInternal>
0.7011

> <Gold.Chemscore.Rot>
1.4804

> <Gold.Chemscore.Internal.Correction>
   9.000000E+99

> <Gold.Chemscore.Hbonds>
donor molecule, donor type, donor heavy atom, donor atom, acceptor molecule, acceptor atom, score
      L1  H    10    25       P1  8028  1.00
      P1  H  7997  8008       L1     6  0.09

> <Gold.Chemscore.Hbond.Weighted>
-4.9260

> <Gold.Chemscore.Metal.Weighted>
-0.0000

> <Gold.Chemscore.Lipo.Weighted>
-6.8568

> <Gold.Chemscore.Internal_Hbond.Weighted>
0.0000

> <Gold.Chemscore.DEClash.Weighted>
0.0247

> <Gold.Chemscore.DEInternal.Weighted>
0.7011

> <Gold.Chemscore.Rot.Weighted>
3.7899

> <Gold.Chemscore.Internal.Correction.Weighted>
   9.000000E+99

> <Gold.Protein.RotatedTorsions>
[ 6907 6896 6895 6894 ] final -135.28 input  -60.11 | X-H torsion
[ 7974 7965 7964 7962 ] final   39.04 input  175.53 | X-H torsion
[ 8008 7997 7996 7995 ] final  -56.01 input   59.86 | X-H torsion
[ 10167 10162 10161 10158 ] final -133.55 input  -65.29 | X-H torsion
[ 10718 10713 10712 10709 ] final   -2.93 input   66.30 | X-H torsion
[ 10763 10752 10751 10750 ] final  -83.81 input  -60.55 | X-H torsion
[ 11005 11000 10999 10996 ] final  -18.94 input  -57.11 | X-H torsion

> <Gold.Protein.ActiveResidues>
 VAL166  LYS551  ARG553  GLY616  TRP617  ASP618  TYR619  PRO620  LYS621  CYS622 
 ASP623  PHE694  ASN695  SER759  ASP760  ASP761  ALA762  ILE779  LEU786  VAL792 
 PHE793  MET794  SER795  GLU796  ALA797  LYS798  CYS799  TRP800  GLU811  SER814 

> <Gold.Protein.RotatedAtoms>
  150.9960  133.6103  159.2701 H   0  0  0  0  0  0  0  0  0  0  0  0  # atno 6907 bound_to 6896
  151.3307  135.0840  159.9347 H   0  0  0  0  0  0  0  0  0  0  0  0  # atno 6908 bound_to 6896
  152.5260  133.9590  159.7762 H   0  0  0  0  0  0  0  0  0  0  0  0  # atno 6909 bound_to 6896
  146.1015  139.5700  142.9411 H   0  0  0  0  0  0  0  0  0  0  0  0  # atno 7974 bound_to 7965
  154.4215  140.1139  156.5568 H   0  0  0  0  0  0  0  0  0  0  0  0  # atno 8008 bound_to 7997
  155.6352  140.3496  155.4677 H   0  0  0  0  0  0  0  0  0  0  0  0  # atno 8009 bound_to 7997
  155.9915  140.1180  157.0623 H   0  0  0  0  0  0  0  0  0  0  0  0  # atno 8010 bound_to 7997
  139.8971  143.6652  152.2602 H   0  0  0  0  0  0  0  0  0  0  0  0  # atno 10167 bound_to 10162
  156.7835  130.5338  149.5747 H   0  0  0  0  0  0  0  0  0  0  0  0  # atno 10718 bound_to 10713
  154.5922  135.5543  153.7290 H   0  0  0  0  0  0  0  0  0  0  0  0  # atno 10763 bound_to 10752
  153.0121  135.6346  154.1833 H   0  0  0  0  0  0  0  0  0  0  0  0  # atno 10764 bound_to 10752
  154.1774  135.2889  155.3042 H   0  0  0  0  0  0  0  0  0  0  0  0  # atno 10765 bound_to 10752
  140.8317  133.7992  155.9766 H   0  0  0  0  0  0  0  0  0  0  0  0  # atno 11005 bound_to 11000
  145.5844  141.0378  143.2104 LP  0  0  0  0  0  0  0  0  0  0  0  0  # atno 17320 bound_to 7965
  144.7437  139.7379  143.7301 LP  0  0  0  0  0  0  0  0  0  0  0  0  # atno 17321 bound_to 7965
  139.7058  144.7628  151.1196 LP  0  0  0  0  0  0  0  0  0  0  0  0  # atno 17342 bound_to 10162
  140.7714  143.5397  150.9327 LP  0  0  0  0  0  0  0  0  0  0  0  0  # atno 17343 bound_to 10162
  156.1203  130.6105  151.0183 LP  0  0  0  0  0  0  0  0  0  0  0  0  # atno 17370 bound_to 10713
  157.6635  131.0876  150.7784 LP  0  0  0  0  0  0  0  0  0  0  0  0  # atno 17371 bound_to 10713
  140.8991  134.2401  157.5052 LP  0  0  0  0  0  0  0  0  0  0  0  0  # atno 17394 bound_to 11000
  139.8705  134.9698  156.4678 LP  0  0  0  0  0  0  0  0  0  0  0  0  # atno 17395 bound_to 11000

$$$$
