AV-unprocessed.smi:2713|AV-procd|sdf|10479|dock3
  -GOLD-   2272014523D 1   1.00000     0.00000
 Structure written by MMmdl.
 52 53  0  0  0  0  0  0  0  0  1 V2000
  145.1461  134.9441  160.7362 C   0  0  0  0  0  0  0  0  0  0  0  0
  146.5264  134.7477  161.4015 C   0  0  0  0  0  0  0  0  0  0  0  0
  146.6672  135.8515  162.4712 C   0  0  0  0  0  0  0  0  0  0  0  0
  146.5621  133.3892  162.1308 C   0  0  0  0  0  0  0  0  0  0  0  0
  147.7042  134.9375  160.3873 C   0  0  0  0  0  0  0  0  0  0  0  0
  147.5698  135.8322  159.1128 C   0  0  0  0  0  0  0  0  0  0  0  0
  146.7695  135.1621  157.9749 C   0  0  0  0  0  0  0  0  0  0  0  0
  146.8513  137.1341  159.5340 C   0  0  0  0  0  0  0  0  0  0  0  0
  148.9285  136.1910  158.6911 N   0  0  0  0  0  0  0  0  0  0  0  0
  149.0636  136.9741  157.4679 C   0  0  0  0  0  0  0  0  0  0  0  0
  149.7099  138.3209  157.7221 C   0  0  0  0  0  0  0  0  0  0  0  0
  150.9692  138.4429  158.3443 C   0  0  0  0  0  0  0  0  0  0  0  0
  151.5403  139.6477  158.5579 N   0  0  0  0  0  0  0  0  0  0  0  0
  150.8736  140.7378  158.1525 C   0  0  0  0  0  0  0  0  0  0  0  0
  151.4698  141.9853  158.3762 N   0  0  0  0  0  0  0  0  0  0  0  0
  152.8091  142.1159  158.9544 C   0  0  0  0  0  0  0  0  0  0  0  0
  152.9218  143.4076  159.7822 C   0  0  0  0  0  0  0  0  0  0  0  0
  152.5646  144.5271  158.9809 O   0  0  0  0  0  0  0  0  0  0  0  0
  151.2180  144.4406  158.5317 C   0  0  0  0  0  0  0  0  0  0  0  0
  151.0407  143.1876  157.6574 C   0  0  0  0  0  0  0  0  0  0  0  0
  149.6770  140.7237  157.5485 N   0  0  0  0  0  0  0  0  0  0  0  0
  149.0936  139.5259  157.3308 C   0  0  0  0  0  0  0  0  0  0  0  0
  144.3543  134.9902  161.4850 H   0  0  0  0  0  0  0  0  0  0  0  0
  144.8776  134.1325  160.0647 H   0  0  0  0  0  0  0  0  0  0  0  0
  145.1050  135.8734  160.1672 H   0  0  0  0  0  0  0  0  0  0  0  0
  146.6452  136.8458  162.0232 H   0  0  0  0  0  0  0  0  0  0  0  0
  147.6055  135.7604  163.0197 H   0  0  0  0  0  0  0  0  0  0  0  0
  145.8610  135.8069  163.2046 H   0  0  0  0  0  0  0  0  0  0  0  0
  145.7918  133.3346  162.9008 H   0  0  0  0  0  0  0  0  0  0  0  0
  147.5229  133.2254  162.6200 H   0  0  0  0  0  0  0  0  0  0  0  0
  146.3876  132.5557  161.4514 H   0  0  0  0  0  0  0  0  0  0  0  0
  148.5582  135.2993  160.9622 H   0  0  0  0  0  0  0  0  0  0  0  0
  148.0160  133.9484  160.0462 H   0  0  0  0  0  0  0  0  0  0  0  0
  145.8358  134.7406  158.3481 H   0  0  0  0  0  0  0  0  0  0  0  0
  147.3340  134.3675  157.4889 H   0  0  0  0  0  0  0  0  0  0  0  0
  146.4990  135.8768  157.1969 H   0  0  0  0  0  0  0  0  0  0  0  0
  145.8683  136.9197  159.9553 H   0  0  0  0  0  0  0  0  0  0  0  0
  146.6883  137.8113  158.6958 H   0  0  0  0  0  0  0  0  0  0  0  0
  147.4170  137.6780  160.2919 H   0  0  0  0  0  0  0  0  0  0  0  0
  149.4104  136.6513  159.4502 H   0  0  0  0  0  0  0  0  0  0  0  0
  149.6803  136.4417  156.7441 H   0  0  0  0  0  0  0  0  0  0  0  0
  148.0887  137.1365  157.0100 H   0  0  0  0  0  0  0  0  0  0  0  0
  151.5212  137.5741  158.6725 H   0  0  0  0  0  0  0  0  0  0  0  0
  153.0567  141.2740  159.6007 H   0  0  0  0  0  0  0  0  0  0  0  0
  153.5407  142.1227  158.1457 H   0  0  0  0  0  0  0  0  0  0  0  0
  152.2835  143.3598  160.6661 H   0  0  0  0  0  0  0  0  0  0  0  0
  153.9445  143.5377  160.1360 H   0  0  0  0  0  0  0  0  0  0  0  0
  150.5371  144.4200  159.3843 H   0  0  0  0  0  0  0  0  0  0  0  0
  150.9793  145.3351  157.9562 H   0  0  0  0  0  0  0  0  0  0  0  0
  151.6382  143.2792  156.7497 H   0  0  0  0  0  0  0  0  0  0  0  0
  149.9992  143.1333  157.3425 H   0  0  0  0  0  0  0  0  0  0  0  0
  148.1304  139.5333  156.8417 H   0  0  0  0  0  0  0  0  0  0  0  0
  1  2  1  0  0  0  0
  1 23  1  0  0  0  0
  1 24  1  0  0  0  0
  1 25  1  0  0  0  0
  2  3  1  0  0  0  0
  2  4  1  0  0  0  0
  2  5  1  0  0  0  0
  3 26  1  0  0  0  0
  3 27  1  0  0  0  0
  3 28  1  0  0  0  0
  4 29  1  0  0  0  0
  4 30  1  0  0  0  0
  4 31  1  0  0  0  0
  5  6  1  0  0  0  0
  5 32  1  0  0  0  0
  5 33  1  0  0  0  0
  6  7  1  0  0  0  0
  6  8  1  0  0  0  0
  6  9  1  0  0  0  0
  7 34  1  0  0  0  0
  7 35  1  0  0  0  0
  7 36  1  0  0  0  0
  8 37  1  0  0  0  0
  8 38  1  0  0  0  0
  8 39  1  0  0  0  0
  9 10  1  0  0  0  0
  9 40  1  0  0  0  0
 10 11  1  0  0  0  0
 10 41  1  0  0  0  0
 10 42  1  0  0  0  0
 11 22  1  0  0  0  0
 11 12  2  0  0  0  0
 12 13  1  0  0  0  0
 12 43  1  0  0  0  0
 13 14  2  0  0  0  0
 14 15  1  0  0  0  0
 14 21  1  0  0  0  0
 15 20  1  0  0  0  0
 15 16  1  0  0  0  0
 16 17  1  0  0  0  0
 16 44  1  0  0  0  0
 16 45  1  0  0  0  0
 17 18  1  0  0  0  0
 17 46  1  0  0  0  0
 17 47  1  0  0  0  0
 18 19  1  0  0  0  0
 19 20  1  0  0  0  0
 19 48  1  0  0  0  0
 19 49  1  0  0  0  0
 20 50  1  0  0  0  0
 20 51  1  0  0  0  0
 21 22  2  0  0  0  0
 22 52  1  0  0  0  0
M  END
> <s_m_source_file>
AV-unprocessed.smi

> <i_m_source_file_index>
2713

> <i_lp_mmshare_version>
43012

> <i_f3d_flags>
0

> <s_epik_input>
W0NIM11DKFtDSDNdKShbQ0gzXSlbQ0gyXUMoW0NIM10pKFtDSDNdKVtOSF1bQ0gyXWMxW2NIXW5jKG5bY0hdMSlOMltDSDJdW0NIMl1PW0NIMl1bQ0gyXTI=

> <s_epik_cmdline>
J2VwaWtfcHl0aG9uJywgJy1waCcsICc3LjAnLCAnLXRuJywgJzgnLCAnLW1hJywgJzIwMCcsICctbWV0YWxfYmluZGluZycsICctaW1hZScsICc8aW5maWxlLm1hZT4nLCAnLW9tYWUnLCAnPG91dGZpbGUubWFlPic=

> <r_lp_tautomer_probability>
1

> <r_epik_Ionization_Penalty>
1.66691

> <r_epik_Ionization_Penalty_Charging>
0

> <r_epik_Ionization_Penalty_Neutral>
1.66691

> <r_epik_State_Penalty>
1.77023

> <r_epik_Charging_Adjusted_Penalty>
1.77023

> <i_epik_Tot_Q>
0

> <i_epik_Tot_abs_Q>
0

> <r_epik_Metal_State_Penalty>
1.77023

> <b_epik_Metal_Only>
0

> <s_lp_Force_Field>
OPLS_2005

> <r_lp_Energy>
27.9038

> <b_lp_Chiralities_Consistent>
1

> <s_lp_Variant>
AV-unprocessed.smi:2713-2

> <Gold.Version>
5.8.1

> <Gold.Id.Protein>
6NUR|6NUR_protein|mol2

> <Gold.PLP.Fitness>
37.1593

> <Gold.PLP.PLP>
-36.6544

> <Gold.PLP.part.hbond>
-1.0000

> <Gold.PLP.part.metal>
0.0000

> <Gold.PLP.part.buried>
-6.7254

> <Gold.PLP.part.nonpolar>
-29.7590

> <Gold.PLP.part.repulsive>
0.0172

> <Gold.PLP.ligand.clash>
0.0000

> <Gold.PLP.ligand.torsion>
1.3257

> <Gold.PLP.Chemscore.Hbond>
1.0000

> <Gold.PLP.Chemscore.CHOScore>
0.0000

> <Gold.PLP.Chemscore.Metal>
0.0000

> <Gold.PLP.Chemscore.Internal.Correction>
0.1563

> <Gold.Rescore>
     Score         DG    S(hbond)    S(metal)    S(lipo)     H(rot)  DE(clash)    DE(int)     intcor
     13.20     -14.32       0.16        0.00     103.36       1.48       0.03       1.08       ----

> <Gold.Chemscore.Fitness>
13.2046

> <Gold.Chemscore.DG>
-14.3171

> <Gold.Chemscore.ZeroCoef>
-5.4800

> <Gold.Chemscore.Hbond>
0.1597

> <Gold.Chemscore.Metal>
0.0000

> <Gold.Chemscore.Lipo>
103.3643

> <Gold.Chemscore.Internal_Hbond>
0.0000

> <Gold.Chemscore.DEClash>
0.0285

> <Gold.Chemscore.DEInternal>
1.0841

> <Gold.Chemscore.Rot>
1.4805

> <Gold.Chemscore.Internal.Correction>
   9.000000E+99

> <Gold.Chemscore.Hbond.Weighted>
-0.5336

> <Gold.Chemscore.Metal.Weighted>
-0.0000

> <Gold.Chemscore.Lipo.Weighted>
-12.0936

> <Gold.Chemscore.Internal_Hbond.Weighted>
0.0000

> <Gold.Chemscore.DEClash.Weighted>
0.0285

> <Gold.Chemscore.DEInternal.Weighted>
1.0841

> <Gold.Chemscore.Rot.Weighted>
3.7900

> <Gold.Chemscore.Internal.Correction.Weighted>
   9.000000E+99

> <Gold.Protein.RotatedTorsions>
[ 6907 6896 6895 6894 ] final   47.04 input  -60.11 | X-H torsion
[ 7974 7965 7964 7962 ] final  117.98 input  175.53 | X-H torsion
[ 8008 7997 7996 7995 ] final   32.88 input   59.86 | X-H torsion
[ 10167 10162 10161 10158 ] final  114.96 input  -65.29 | X-H torsion
[ 10718 10713 10712 10709 ] final  139.54 input   66.30 | X-H torsion
[ 10763 10752 10751 10750 ] final   90.96 input  -60.55 | X-H torsion
[ 11005 11000 10999 10996 ] final  173.26 input  -57.11 | X-H torsion

> <Gold.Protein.ActiveResidues>
 VAL166  LYS551  ARG553  GLY616  TRP617  ASP618  TYR619  PRO620  LYS621  CYS622 
 ASP623  PHE694  ASN695  SER759  ASP760  ASP761  ALA762  ILE779  LEU786  VAL792 
 PHE793  MET794  SER795  GLU796  ALA797  LYS798  CYS799  TRP800  GLU811  SER814 

> <Gold.Protein.RotatedAtoms>
  152.2634  134.8010  160.0426 H   0  0  0  0  0  0  0  0  0  0  0  0  # atno 6907 bound_to 6896
  151.8648  133.3459  159.3724 H   0  0  0  0  0  0  0  0  0  0  0  0  # atno 6908 bound_to 6896
  150.7125  134.5098  159.5646 H   0  0  0  0  0  0  0  0  0  0  0  0  # atno 6909 bound_to 6896
  145.1608  139.3156  143.4518 H   0  0  0  0  0  0  0  0  0  0  0  0  # atno 7974 bound_to 7965
  155.1296  140.3256  155.4477 H   0  0  0  0  0  0  0  0  0  0  0  0  # atno 8008 bound_to 7997
  156.2638  140.2013  156.6364 H   0  0  0  0  0  0  0  0  0  0  0  0  # atno 8009 bound_to 7997
  154.6622  140.0546  157.0062 H   0  0  0  0  0  0  0  0  0  0  0  0  # atno 8010 bound_to 7997
  139.6351  144.7119  151.2352 H   0  0  0  0  0  0  0  0  0  0  0  0  # atno 10167 bound_to 10162
  157.4132  131.1030  151.0432 H   0  0  0  0  0  0  0  0  0  0  0  0  # atno 10718 bound_to 10713
  153.2032  135.4415  155.0291 H   0  0  0  0  0  0  0  0  0  0  0  0  # atno 10763 bound_to 10752
  154.8158  135.3315  154.7181 H   0  0  0  0  0  0  0  0  0  0  0  0  # atno 10764 bound_to 10752
  153.7625  135.6990  153.4978 H   0  0  0  0  0  0  0  0  0  0  0  0  # atno 10765 bound_to 10752
  140.3385  134.7296  157.4185 H   0  0  0  0  0  0  0  0  0  0  0  0  # atno 11005 bound_to 11000
  146.3482  140.1717  142.8589 LP  0  0  0  0  0  0  0  0  0  0  0  0  # atno 17320 bound_to 7965
  145.0333  140.8888  143.5096 LP  0  0  0  0  0  0  0  0  0  0  0  0  # atno 17321 bound_to 7965
  140.7461  143.6411  150.8334 LP  0  0  0  0  0  0  0  0  0  0  0  0  # atno 17342 bound_to 10162
  140.0041  143.5713  152.2864 LP  0  0  0  0  0  0  0  0  0  0  0  0  # atno 17343 bound_to 10162
  157.1389  130.6134  149.5550 LP  0  0  0  0  0  0  0  0  0  0  0  0  # atno 17370 bound_to 10713
  155.9857  130.4888  150.7044 LP  0  0  0  0  0  0  0  0  0  0  0  0  # atno 17371 bound_to 10713
  140.0801  134.5743  155.8550 LP  0  0  0  0  0  0  0  0  0  0  0  0  # atno 17394 bound_to 11000
  141.2045  133.6639  156.6123 LP  0  0  0  0  0  0  0  0  0  0  0  0  # atno 17395 bound_to 11000

$$$$
