AV-unprocessed.smi:2921|AV-procd|sdf|11197|dock2
  -GOLD-   2272016 83D 1   1.00000     0.00000
 Structure written by MMmdl.
 41 42  0  0  0  0  0  0  0  0  1 V2000
  150.5286  137.1185  155.4786 C   0  0  0  0  0  0  0  0  0  0  0  0
  150.9569  138.1704  154.4437 C   0  0  0  0  0  0  0  0  0  0  0  0
  152.3933  138.6624  154.6867 C   0  0  0  0  0  0  0  0  0  0  0  0
  150.0123  139.2828  154.4087 N   0  0  0  0  0  0  0  0  0  0  0  0
  150.3939  140.5106  154.8328 N   0  0  0  0  0  0  0  0  0  0  0  0
  149.3232  141.2793  154.6869 C   0  0  0  0  0  0  0  0  0  0  0  0
  148.2000  140.5757  154.1684 C   0  0  0  0  0  0  0  0  0  0  0  0
  148.6903  139.3081  154.0092 C   0  0  0  0  0  0  0  0  0  0  0  0
  148.0445  138.2016  153.5538 N   0  0  0  0  0  0  0  0  0  0  0  0
  146.8071  137.7676  153.8506 C   0  0  0  0  0  0  0  0  0  0  0  0
  146.0198  138.3216  154.6180 O   0  0  0  0  0  0  0  0  0  0  0  0
  146.5197  136.6402  153.1850 N   0  0  0  0  0  0  0  0  0  0  0  0
  145.2439  135.9342  153.2384 C   0  0  0  0  0  0  0  0  0  0  0  0
  144.5882  135.7697  151.8530 C   0  0  0  0  0  0  0  0  0  0  0  0
  144.9551  134.4795  151.1383 C   0  0  0  0  0  0  0  0  0  0  0  0
  146.1884  134.0504  150.8725 C   0  0  0  0  0  0  0  0  0  0  0  0
  146.2044  132.7145  150.1819 C   0  0  0  0  0  0  0  0  0  0  0  0
  144.7159  132.3071  150.1249 C   0  0  0  0  0  0  0  0  0  0  0  0
  143.9044  133.4979  150.6814 C   0  0  0  0  0  0  0  0  0  0  0  0
  151.1974  136.2576  155.4611 H   0  0  0  0  0  0  0  0  0  0  0  0
  149.5202  136.7566  155.2749 H   0  0  0  0  0  0  0  0  0  0  0  0
  150.5387  137.5251  156.4903 H   0  0  0  0  0  0  0  0  0  0  0  0
  150.9432  137.6904  153.4650 H   0  0  0  0  0  0  0  0  0  0  0  0
  153.1034  137.8371  154.6298 H   0  0  0  0  0  0  0  0  0  0  0  0
  152.5012  139.1219  155.6699 H   0  0  0  0  0  0  0  0  0  0  0  0
  152.6860  139.4004  153.9394 H   0  0  0  0  0  0  0  0  0  0  0  0
  149.3915  142.3207  154.9648 H   0  0  0  0  0  0  0  0  0  0  0  0
  147.2108  140.9550  153.9614 H   0  0  0  0  0  0  0  0  0  0  0  0
  148.5591  137.6493  152.8841 H   0  0  0  0  0  0  0  0  0  0  0  0
  147.2266  136.2524  152.5776 H   0  0  0  0  0  0  0  0  0  0  0  0
  145.4075  134.9557  153.6910 H   0  0  0  0  0  0  0  0  0  0  0  0
  144.5658  136.4679  153.9062 H   0  0  0  0  0  0  0  0  0  0  0  0
  143.5053  135.7877  151.9803 H   0  0  0  0  0  0  0  0  0  0  0  0
  144.8283  136.6142  151.2061 H   0  0  0  0  0  0  0  0  0  0  0  0
  147.0978  134.5801  151.1154 H   0  0  0  0  0  0  0  0  0  0  0  0
  146.6342  132.8168  149.1851 H   0  0  0  0  0  0  0  0  0  0  0  0
  146.7997  131.9965  150.7470 H   0  0  0  0  0  0  0  0  0  0  0  0
  144.4116  132.0627  149.1066 H   0  0  0  0  0  0  0  0  0  0  0  0
  144.5452  131.4193  150.7350 H   0  0  0  0  0  0  0  0  0  0  0  0
  143.2671  133.1993  151.5143 H   0  0  0  0  0  0  0  0  0  0  0  0
  143.2792  133.9367  149.9047 H   0  0  0  0  0  0  0  0  0  0  0  0
  1  2  1  0  0  0  0
  1 20  1  0  0  0  0
  1 21  1  0  0  0  0
  1 22  1  0  0  0  0
  2  3  1  0  0  0  0
  2  4  1  0  0  0  0
  2 23  1  0  0  0  0
  3 24  1  0  0  0  0
  3 25  1  0  0  0  0
  3 26  1  0  0  0  0
  4  8  1  0  0  0  0
  4  5  1  0  0  0  0
  5  6  2  0  0  0  0
  6  7  1  0  0  0  0
  6 27  1  0  0  0  0
  7  8  2  0  0  0  0
  7 28  1  0  0  0  0
  8  9  1  0  0  0  0
  9 10  1  0  0  0  0
  9 29  1  0  0  0  0
 10 11  2  0  0  0  0
 10 12  1  0  0  0  0
 12 13  1  0  0  0  0
 12 30  1  0  0  0  0
 13 14  1  0  0  0  0
 13 31  1  0  0  0  0
 13 32  1  0  0  0  0
 14 15  1  0  0  0  0
 14 33  1  0  0  0  0
 14 34  1  0  0  0  0
 15 19  1  0  0  0  0
 15 16  2  0  0  0  0
 16 17  1  0  0  0  0
 16 35  1  0  0  0  0
 17 18  1  0  0  0  0
 17 36  1  0  0  0  0
 17 37  1  0  0  0  0
 18 19  1  0  0  0  0
 18 38  1  0  0  0  0
 18 39  1  0  0  0  0
 19 40  1  0  0  0  0
 19 41  1  0  0  0  0
M  END
> <s_m_source_file>
AV-unprocessed.smi

> <i_m_source_file_index>
2921

> <i_lp_mmshare_version>
43012

> <i_f3d_flags>
0

> <s_epik_input>
W0NIM11bQ0hdKFtDSDNdKW4xbltjSF1bY0hdYzFbTkhdQyg9TylbTkhdW0NIMl1bQ0gyXUMyPVtDSF1bQ0gyXVtDSDJdW0NIMl0y

> <s_epik_cmdline>
J2VwaWtfcHl0aG9uJywgJy1waCcsICc3LjAnLCAnLXRuJywgJzgnLCAnLW1hJywgJzIwMCcsICctbWV0YWxfYmluZGluZycsICctaW1hZScsICc8aW5maWxlLm1hZT4nLCAnLW9tYWUnLCAnPG91dGZpbGUubWFlPic=

> <r_lp_tautomer_probability>
1

> <r_epik_Ionization_Penalty>
4.14613e-05

> <r_epik_Ionization_Penalty_Charging>
0

> <r_epik_Ionization_Penalty_Neutral>
4.14613e-05

> <r_epik_State_Penalty>
-0

> <r_epik_Charging_Adjusted_Penalty>
0

> <i_epik_Tot_Q>
0

> <i_epik_Tot_abs_Q>
0

> <r_epik_Metal_State_Penalty>
-0

> <b_epik_Metal_Only>
0

> <s_lp_Force_Field>
OPLS_2005

> <r_lp_Energy>
26.255

> <b_lp_Chiralities_Consistent>
1

> <s_lp_Variant>
AV-unprocessed.smi:2921-1

> <Gold.Version>
5.8.1

> <Gold.Id.Protein>
6NUR|6NUR_protein|mol2

> <Gold.PLP.Fitness>
48.4525

> <Gold.PLP.PLP>
-38.1122

> <Gold.PLP.part.hbond>
-3.0000

> <Gold.PLP.part.metal>
0.0000

> <Gold.PLP.part.buried>
-5.1480

> <Gold.PLP.part.nonpolar>
-30.5511

> <Gold.PLP.part.repulsive>
0.1938

> <Gold.PLP.ligand.clash>
0.0000

> <Gold.PLP.ligand.torsion>
0.7561

> <Gold.PLP.Chemscore.Hbond>
2.9424

> <Gold.PLP.Chemscore.CHOScore>
0.9746

> <Gold.PLP.Chemscore.Metal>
0.0000

> <Gold.Chemscore.Hbonds>
donor molecule, donor type, donor heavy atom, donor atom, acceptor molecule, acceptor atom, score
      L1  H     9    29       P1  7948  1.00
      L1  H    12    30       P1  7948  1.00
      P1  H  7989  7998       L1     5  0.89
      L1  C     6    27       P1  8028  0.98

> <Gold.PLP.Chemscore.Internal.Correction>
0.1014

> <Gold.Rescore>
     Score         DG    S(hbond)    S(metal)    S(lipo)     H(rot)  DE(clash)    DE(int)     intcor
     17.84     -19.06       2.37        0.00      81.38       1.50       0.56       0.66       ----

> <Gold.Chemscore.Fitness>
17.8388

> <Gold.Chemscore.DG>
-19.0574

> <Gold.Chemscore.ZeroCoef>
-5.4800

> <Gold.Chemscore.Hbond>
2.3654

> <Gold.Chemscore.Metal>
0.0000

> <Gold.Chemscore.Lipo>
81.3795

> <Gold.Chemscore.Internal_Hbond>
0.0000

> <Gold.Chemscore.DEClash>
0.5576

> <Gold.Chemscore.DEInternal>
0.6611

> <Gold.Chemscore.Rot>
1.5018

> <Gold.Chemscore.Internal.Correction>
   9.000000E+99

> <Gold.Chemscore.Hbonds>
donor molecule, donor type, donor heavy atom, donor atom, acceptor molecule, acceptor atom, score
      L1  H     9    29       P1  7948  0.99
      L1  H    12    30       P1  7948  0.97
      P1  H  7989  7998       L1     5  0.12

> <Gold.Chemscore.Hbond.Weighted>
-7.9006

> <Gold.Chemscore.Metal.Weighted>
-0.0000

> <Gold.Chemscore.Lipo.Weighted>
-9.5214

> <Gold.Chemscore.Internal_Hbond.Weighted>
0.0000

> <Gold.Chemscore.DEClash.Weighted>
0.5576

> <Gold.Chemscore.DEInternal.Weighted>
0.6611

> <Gold.Chemscore.Rot.Weighted>
3.8446

> <Gold.Chemscore.Internal.Correction.Weighted>
   9.000000E+99

> <Gold.Protein.RotatedTorsions>
[ 6907 6896 6895 6894 ] final  -59.57 input  -60.11 | X-H torsion
[ 7974 7965 7964 7962 ] final  -57.96 input  175.53 | X-H torsion
[ 8008 7997 7996 7995 ] final  138.86 input   59.86 | X-H torsion
[ 10167 10162 10161 10158 ] final   10.91 input  -65.29 | X-H torsion
[ 10718 10713 10712 10709 ] final  -34.78 input   66.30 | X-H torsion
[ 10763 10752 10751 10750 ] final -123.88 input  -60.55 | X-H torsion
[ 11005 11000 10999 10996 ] final  -83.62 input  -57.11 | X-H torsion

> <Gold.Protein.ActiveResidues>
 VAL166  LYS551  ARG553  GLY616  TRP617  ASP618  TYR619  PRO620  LYS621  CYS622 
 ASP623  PHE694  ASN695  SER759  ASP760  ASP761  ALA762  ILE779  LEU786  VAL792 
 PHE793  MET794  SER795  GLU796  ALA797  LYS798  CYS799  TRP800  GLU811  SER814 

> <Gold.Protein.RotatedAtoms>
  150.7920  134.6951  159.6518 H   0  0  0  0  0  0  0  0  0  0  0  0  # atno 6907 bound_to 6896
  152.4027  134.6256  160.0072 H   0  0  0  0  0  0  0  0  0  0  0  0  # atno 6908 bound_to 6896
  151.6522  133.3283  159.3191 H   0  0  0  0  0  0  0  0  0  0  0  0  # atno 6909 bound_to 6896
  145.8449  140.8392  143.0015 H   0  0  0  0  0  0  0  0  0  0  0  0  # atno 7974 bound_to 7965
  156.2994  140.2382  156.4142 H   0  0  0  0  0  0  0  0  0  0  0  0  # atno 8008 bound_to 7997
  154.8413  140.0428  157.1563 H   0  0  0  0  0  0  0  0  0  0  0  0  # atno 8009 bound_to 7997
  154.9099  140.2989  155.5275 H   0  0  0  0  0  0  0  0  0  0  0  0  # atno 8010 bound_to 7997
  140.6165  143.8297  150.7124 H   0  0  0  0  0  0  0  0  0  0  0  0  # atno 10167 bound_to 10162
  156.3465  130.4301  149.7741 H   0  0  0  0  0  0  0  0  0  0  0  0  # atno 10718 bound_to 10713
  154.8715  135.4083  154.3015 H   0  0  0  0  0  0  0  0  0  0  0  0  # atno 10763 bound_to 10752
  153.3874  135.7013  153.6525 H   0  0  0  0  0  0  0  0  0  0  0  0  # atno 10764 bound_to 10752
  153.5322  135.3665  155.2652 H   0  0  0  0  0  0  0  0  0  0  0  0  # atno 10765 bound_to 10752
  141.1656  133.7303  156.8746 H   0  0  0  0  0  0  0  0  0  0  0  0  # atno 11005 bound_to 11000
  144.6731  140.0868  143.7467 LP  0  0  0  0  0  0  0  0  0  0  0  0  # atno 17320 bound_to 7965
  145.9423  139.2677  143.1261 LP  0  0  0  0  0  0  0  0  0  0  0  0  # atno 17321 bound_to 7965
  140.1877  143.4062  152.1886 LP  0  0  0  0  0  0  0  0  0  0  0  0  # atno 17342 bound_to 10162
  139.5403  144.7249  151.4757 LP  0  0  0  0  0  0  0  0  0  0  0  0  # atno 17343 bound_to 10162
  156.4958  130.8106  151.3113 LP  0  0  0  0  0  0  0  0  0  0  0  0  # atno 17370 bound_to 10713
  157.7455  130.9961  150.2766 LP  0  0  0  0  0  0  0  0  0  0  0  0  # atno 17371 bound_to 10713
  140.1757  134.9068  157.2888 LP  0  0  0  0  0  0  0  0  0  0  0  0  # atno 17394 bound_to 11000
  140.2451  134.3749  155.7464 LP  0  0  0  0  0  0  0  0  0  0  0  0  # atno 17395 bound_to 11000

$$$$
