AV-unprocessed.smi:2465|AV-procd|sdf|9723|dock10
  -GOLD-   2272013363D 1   1.00000     0.00000
 Structure written by MMmdl.
 41 42  0  0  0  0  0  0  0  0  2 V2000
  147.4118  133.3386  152.0221 C   0  0  0  0  0  0  0  0  0  0  0  0
  146.0234  133.5703  151.4505 C   0  0  0  0  0  0  0  0  0  0  0  0
  145.2547  132.4643  151.0244 C   0  0  0  0  0  0  0  0  0  0  0  0
  143.9692  132.6788  150.4918 C   0  0  0  0  0  0  0  0  0  0  0  0
  143.4885  133.9350  150.3898 N   0  3  0  0  0  0  0  0  0  0  0  0
  144.1854  135.0223  150.7837 C   0  0  0  0  0  0  0  0  0  0  0  0
  145.4823  134.8774  151.3399 C   0  0  0  0  0  0  0  0  0  0  0  0
  146.2786  135.9798  151.7660 N   0  0  0  0  0  0  0  0  0  0  0  0
  145.8946  137.1367  152.3334 C   0  0  0  0  0  0  0  0  0  0  0  0
  144.7341  137.4555  152.5903 O   0  0  0  0  0  0  0  0  0  0  0  0
  146.9513  137.9162  152.6041 N   0  0  0  0  0  0  0  0  0  0  0  0
  146.8843  139.2393  153.2142 C   0  0  0  0  0  0  0  0  0  0  0  0
  148.2305  139.6549  153.8292 C   0  0  0  0  0  0  0  0  0  0  0  0
  148.9439  138.4795  154.5172 C   0  0  0  0  0  0  0  0  0  0  0  0
  150.3292  138.8055  154.8453 N   0  0  0  0  0  0  0  0  0  0  0  0
  150.6900  140.1428  155.2856 C   0  0  0  0  0  0  0  0  0  0  0  0
  152.1627  140.0405  155.7084 C   0  0  0  0  0  0  0  0  0  0  0  0
  152.6630  138.7006  155.1579 C   0  0  0  0  0  0  0  0  0  0  0  0
  151.3856  137.9903  154.7430 C   0  0  0  0  0  0  0  0  0  0  0  0
  151.3654  136.8194  154.3660 O   0  0  0  0  0  0  0  0  0  0  0  0
  147.6703  132.2792  152.0244 H   0  0  0  0  0  0  0  0  0  0  0  0
  147.4662  133.7009  153.0493 H   0  0  0  0  0  0  0  0  0  0  0  0
  148.1604  133.8653  151.4297 H   0  0  0  0  0  0  0  0  0  0  0  0
  145.6438  131.4593  151.1022 H   0  0  0  0  0  0  0  0  0  0  0  0
  143.3179  131.8909  150.1423 H   0  0  0  0  0  0  0  0  0  0  0  0
  143.6743  135.9590  150.6241 H   0  0  0  0  0  0  0  0  0  0  0  0
  147.2753  135.8504  151.6705 H   0  0  0  0  0  0  0  0  0  0  0  0
  147.8709  137.5750  152.3647 H   0  0  0  0  0  0  0  0  0  0  0  0
  146.5947  139.9516  152.4410 H   0  0  0  0  0  0  0  0  0  0  0  0
  146.0961  139.2623  153.9688 H   0  0  0  0  0  0  0  0  0  0  0  0
  148.8786  140.0630  153.0523 H   0  0  0  0  0  0  0  0  0  0  0  0
  148.0675  140.4586  154.5487 H   0  0  0  0  0  0  0  0  0  0  0  0
  148.4133  138.1975  155.4280 H   0  0  0  0  0  0  0  0  0  0  0  0
  148.9255  137.6029  153.8681 H   0  0  0  0  0  0  0  0  0  0  0  0
  150.5685  140.8410  154.4563 H   0  0  0  0  0  0  0  0  0  0  0  0
  150.0553  140.4744  156.1085 H   0  0  0  0  0  0  0  0  0  0  0  0
  152.7486  140.8804  155.3336 H   0  0  0  0  0  0  0  0  0  0  0  0
  152.2408  140.0464  156.7964 H   0  0  0  0  0  0  0  0  0  0  0  0
  153.3007  138.8411  154.2846 H   0  0  0  0  0  0  0  0  0  0  0  0
  153.2125  138.1277  155.9054 H   0  0  0  0  0  0  0  0  0  0  0  0
  142.5575  134.0707  149.9949 H   0  0  0  0  0  0  0  0  0  0  0  0
  1  2  1  0  0  0  0
  1 21  1  0  0  0  0
  1 22  1  0  0  0  0
  1 23  1  0  0  0  0
  2  7  1  0  0  0  0
  2  3  2  0  0  0  0
  3  4  1  0  0  0  0
  3 24  1  0  0  0  0
  4  5  2  0  0  0  0
  4 25  1  0  0  0  0
  5  6  1  0  0  0  0
  5 41  1  0  0  0  0
  6  7  2  0  0  0  0
  6 26  1  0  0  0  0
  7  8  1  0  0  0  0
  8  9  1  0  0  0  0
  8 27  1  0  0  0  0
  9 10  2  0  0  0  0
  9 11  1  0  0  0  0
 11 12  1  0  0  0  0
 11 28  1  0  0  0  0
 12 13  1  0  0  0  0
 12 29  1  0  0  0  0
 12 30  1  0  0  0  0
 13 14  1  0  0  0  0
 13 31  1  0  0  0  0
 13 32  1  0  0  0  0
 14 15  1  0  0  0  0
 14 33  1  0  0  0  0
 14 34  1  0  0  0  0
 15 19  1  0  0  0  0
 15 16  1  0  0  0  0
 16 17  1  0  0  0  0
 16 35  1  0  0  0  0
 16 36  1  0  0  0  0
 17 18  1  0  0  0  0
 17 37  1  0  0  0  0
 17 38  1  0  0  0  0
 18 19  1  0  0  0  0
 18 39  1  0  0  0  0
 18 40  1  0  0  0  0
 19 20  2  0  0  0  0
M  CHG  1   5   1
M  END
> <s_m_source_file>
AV-unprocessed.smi

> <i_m_source_file_index>
2465

> <i_lp_mmshare_version>
43012

> <i_f3d_flags>
0

> <s_epik_input>
W0NIM11jMVtjSF1bY0hdbltjSF1jMVtOSF1DKD1PKVtOSF1bQ0gyXVtDSDJdW0NIMl1OMltDSDJdW0NIMl1bQ0gyXUMyPU8=

> <s_epik_cmdline>
J2VwaWtfcHl0aG9uJywgJy1waCcsICc3LjAnLCAnLXRuJywgJzgnLCAnLW1hJywgJzIwMCcsICctbWV0YWxfYmluZGluZycsICctaW1hZScsICc8aW5maWxlLm1hZT4nLCAnLW9tYWUnLCAnPG91dGZpbGUubWFlPic=

> <r_epik_Ionization_Penalty>
1.98477

> <r_epik_Ionization_Penalty_Charging>
1.98474

> <r_epik_Ionization_Penalty_Neutral>
2.19328e-05

> <r_epik_State_Penalty>
2.1123

> <r_epik_Charging_Adjusted_Penalty>
4.09705

> <i_epik_Tot_Q>
1

> <i_epik_Tot_abs_Q>
1

> <r_epik_Metal_State_Penalty>
2.13405

> <b_epik_Metal_Only>
0

> <s_lp_Force_Field>
OPLS_2005

> <r_lp_Energy>
26.0932

> <b_lp_Chiralities_Consistent>
1

> <s_lp_Variant>
AV-unprocessed.smi:2465-2

> <Gold.Version>
5.8.1

> <Gold.Id.Protein>
6NUR|6NUR_protein|mol2

> <Gold.PLP.Fitness>
53.3513

> <Gold.PLP.PLP>
-39.9451

> <Gold.PLP.part.hbond>
-4.0000

> <Gold.PLP.part.metal>
0.0000

> <Gold.PLP.part.buried>
-3.3041

> <Gold.PLP.part.nonpolar>
-33.0544

> <Gold.PLP.part.repulsive>
1.3136

> <Gold.PLP.ligand.clash>
0.0000

> <Gold.PLP.ligand.torsion>
0.8303

> <Gold.PLP.Chemscore.Hbond>
5.0000

> <Gold.PLP.Chemscore.CHOScore>
0.0000

> <Gold.PLP.Chemscore.Metal>
0.0000

> <Gold.Chemscore.Hbonds>
donor molecule, donor type, donor heavy atom, donor atom, acceptor molecule, acceptor atom, score
      L1  H     5    41       P1 10186  2.00
      L1  H     8    27       P1  7948  1.00
      L1  H    11    28       P1  7948  1.00
      P1  H 10752 10765       L1    20  1.00

> <Gold.PLP.Chemscore.Internal.Correction>
0.0668

> <Gold.Rescore>
     Score         DG    S(hbond)    S(metal)    S(lipo)     H(rot)  DE(clash)    DE(int)     intcor
     22.20     -23.12       3.91        0.00      78.20       1.78       0.03       0.88       ----

> <Gold.Chemscore.Fitness>
22.2036

> <Gold.Chemscore.DG>
-23.1175

> <Gold.Chemscore.ZeroCoef>
-5.4800

> <Gold.Chemscore.Hbond>
3.9088

> <Gold.Chemscore.Metal>
0.0000

> <Gold.Chemscore.Lipo>
78.2005

> <Gold.Chemscore.Internal_Hbond>
0.0000

> <Gold.Chemscore.DEClash>
0.0338

> <Gold.Chemscore.DEInternal>
0.8801

> <Gold.Chemscore.Rot>
1.7841

> <Gold.Chemscore.Internal.Correction>
   9.000000E+99

> <Gold.Chemscore.Hbonds>
donor molecule, donor type, donor heavy atom, donor atom, acceptor molecule, acceptor atom, score
      L1  H     5    41       P1 10186  0.99
      L1  H     8    27       P1  7948  0.99
      L1  H    11    28       P1  7948  0.95
      P1  H 10752 10765       L1    20  0.97

> <Gold.Chemscore.Hbond.Weighted>
-13.0553

> <Gold.Chemscore.Metal.Weighted>
-0.0000

> <Gold.Chemscore.Lipo.Weighted>
-9.1495

> <Gold.Chemscore.Internal_Hbond.Weighted>
0.0000

> <Gold.Chemscore.DEClash.Weighted>
0.0338

> <Gold.Chemscore.DEInternal.Weighted>
0.8801

> <Gold.Chemscore.Rot.Weighted>
4.5673

> <Gold.Chemscore.Internal.Correction.Weighted>
   9.000000E+99

> <Gold.Protein.RotatedTorsions>
[ 6907 6896 6895 6894 ] final  -29.94 input  -60.11 | X-H torsion
[ 7974 7965 7964 7962 ] final -107.04 input  175.53 | X-H torsion
[ 8008 7997 7996 7995 ] final -122.80 input   59.86 | X-H torsion
[ 10167 10162 10161 10158 ] final -170.61 input  -65.29 | X-H torsion
[ 10718 10713 10712 10709 ] final   -5.27 input   66.30 | X-H torsion
[ 10763 10752 10751 10750 ] final  173.03 input  -60.55 | X-H torsion
[ 11005 11000 10999 10996 ] final -155.40 input  -57.11 | X-H torsion

> <Gold.Protein.ActiveResidues>
 VAL166  LYS551  ARG553  GLY616  TRP617  ASP618  TYR619  PRO620  LYS621  CYS622 
 ASP623  PHE694  ASN695  SER759  ASP760  ASP761  ALA762  ILE779  LEU786  VAL792 
 PHE793  MET794  SER795  GLU796  ALA797  LYS798  CYS799  TRP800  GLU811  SER814 

> <Gold.Protein.RotatedAtoms>
  151.1124  135.0034  159.8499 H   0  0  0  0  0  0  0  0  0  0  0  0  # atno 6907 bound_to 6896
  152.5444  134.1820  159.8649 H   0  0  0  0  0  0  0  0  0  0  0  0  # atno 6908 bound_to 6896
  151.1872  133.4644  159.2627 H   0  0  0  0  0  0  0  0  0  0  0  0  # atno 6909 bound_to 6896
  145.2103  140.9093  143.3318 H   0  0  0  0  0  0  0  0  0  0  0  0  # atno 7974 bound_to 7965
  155.1702  140.0408  157.2861 H   0  0  0  0  0  0  0  0  0  0  0  0  # atno 8008 bound_to 7997
  154.6275  140.2516  155.7447 H   0  0  0  0  0  0  0  0  0  0  0  0  # atno 8009 bound_to 7997
  156.2467  140.2882  156.0611 H   0  0  0  0  0  0  0  0  0  0  0  0  # atno 8010 bound_to 7997
  139.5851  144.1336  152.1565 H   0  0  0  0  0  0  0  0  0  0  0  0  # atno 10167 bound_to 10162
  156.7490  130.5233  149.5808 H   0  0  0  0  0  0  0  0  0  0  0  0  # atno 10718 bound_to 10713
  154.4344  135.2760  155.1890 H   0  0  0  0  0  0  0  0  0  0  0  0  # atno 10763 bound_to 10752
  154.3783  135.6093  153.5780 H   0  0  0  0  0  0  0  0  0  0  0  0  # atno 10764 bound_to 10752
  152.9837  135.5874  154.4661 H   0  0  0  0  0  0  0  0  0  0  0  0  # atno 10765 bound_to 10752
  140.6869  134.4083  157.5222 H   0  0  0  0  0  0  0  0  0  0  0  0  # atno 11005 bound_to 11000
  144.9862  139.3734  143.6237 LP  0  0  0  0  0  0  0  0  0  0  0  0  # atno 17320 bound_to 7965
  146.3399  139.9025  142.8792 LP  0  0  0  0  0  0  0  0  0  0  0  0  # atno 17321 bound_to 7965
  140.0897  144.5631  150.7063 LP  0  0  0  0  0  0  0  0  0  0  0  0  # atno 17342 bound_to 10162
  140.7124  143.2516  151.4539 LP  0  0  0  0  0  0  0  0  0  0  0  0  # atno 17343 bound_to 10162
  156.1414  130.6247  151.0472 LP  0  0  0  0  0  0  0  0  0  0  0  0  # atno 17370 bound_to 10713
  157.6785  131.0844  150.7431 LP  0  0  0  0  0  0  0  0  0  0  0  0  # atno 17371 bound_to 10713
  139.8935  134.8730  156.2221 LP  0  0  0  0  0  0  0  0  0  0  0  0  # atno 17394 bound_to 11000
  141.0272  133.7008  156.1369 LP  0  0  0  0  0  0  0  0  0  0  0  0  # atno 17395 bound_to 11000

$$$$
