AV-unprocessed.smi:683|AV-procd|sdf|3331|dock2
  -GOLD-   22720 0303D 1   1.00000     0.00000
 Structure written by MMmdl.
 29 30  0  0  0  0  0  0  0  0  2 V2000
  154.3919  141.2604  161.8259 N   0  0  0  0  0  0  0  0  0  0  0  0
  153.6398  141.8364  161.1615 C   0  0  0  0  0  0  0  0  0  0  0  0
  152.6953  142.5600  160.3270 C   0  0  0  0  0  0  0  0  0  0  0  0
  152.2593  143.8448  160.7070 C   0  0  0  0  0  0  0  0  0  0  0  0
  151.3449  144.5426  159.8966 C   0  0  0  0  0  0  0  0  0  0  0  0
  150.8680  143.9581  158.7080 C   0  0  0  0  0  0  0  0  0  0  0  0
  151.2953  142.6739  158.3128 C   0  0  0  0  0  0  0  0  0  0  0  0
  150.7793  142.1789  157.1342 O   0  0  0  0  0  0  0  0  0  0  0  0
  151.4340  141.0737  156.5270 C   0  0  0  0  0  0  0  0  0  0  0  0
  150.5868  140.5879  155.3425 C   0  0  0  0  0  0  0  0  0  0  0  0
  150.5986  139.1226  155.2440 N   0  0  0  0  0  0  0  0  0  0  0  0
  149.3595  138.4604  155.2384 C   0  0  0  0  0  0  0  0  0  0  0  0
  149.2662  137.1188  155.1603 C   0  0  0  0  0  0  0  0  0  0  0  0
  147.7282  136.3317  155.1564 Cl  0  0  0  0  0  0  0  0  0  0  0  0
  150.5059  136.3484  155.0823 C   0  0  0  0  0  0  0  0  0  0  0  0
  150.4570  135.1215  155.0060 O   0  0  0  0  0  0  0  0  0  0  0  0
  151.6836  137.0391  155.0997 N   0  5  0  0  0  0  0  0  0  0  0  0
  151.7581  138.4031  155.1828 C   0  0  0  0  0  0  0  0  0  0  0  0
  152.8328  139.0035  155.2073 O   0  0  0  0  0  0  0  0  0  0  0  0
  152.2159  141.9761  159.1359 C   0  0  0  0  0  0  0  0  0  0  0  0
  152.6221  144.3004  161.6175 H   0  0  0  0  0  0  0  0  0  0  0  0
  151.0094  145.5273  160.1864 H   0  0  0  0  0  0  0  0  0  0  0  0
  150.1672  144.5020  158.0916 H   0  0  0  0  0  0  0  0  0  0  0  0
  152.4246  141.3699  156.1783 H   0  0  0  0  0  0  0  0  0  0  0  0
  151.5538  140.2652  157.2501 H   0  0  0  0  0  0  0  0  0  0  0  0
  149.5632  140.9487  155.4546 H   0  0  0  0  0  0  0  0  0  0  0  0
  150.9474  141.0367  154.4155 H   0  0  0  0  0  0  0  0  0  0  0  0
  148.4955  139.1054  155.3053 H   0  0  0  0  0  0  0  0  0  0  0  0
  152.5669  140.9900  158.8688 H   0  0  0  0  0  0  0  0  0  0  0  0
  1  2  3  0  0  0  0
  2  3  1  0  0  0  0
  3 20  1  0  0  0  0
  3  4  2  0  0  0  0
  4  5  1  0  0  0  0
  4 21  1  0  0  0  0
  5  6  2  0  0  0  0
  5 22  1  0  0  0  0
  6  7  1  0  0  0  0
  6 23  1  0  0  0  0
  7  8  1  0  0  0  0
  7 20  2  0  0  0  0
  8  9  1  0  0  0  0
  9 10  1  0  0  0  0
  9 24  1  0  0  0  0
  9 25  1  0  0  0  0
 10 11  1  0  0  0  0
 10 26  1  0  0  0  0
 10 27  1  0  0  0  0
 11 18  1  0  0  0  0
 11 12  1  0  0  0  0
 12 13  2  0  0  0  0
 12 28  1  0  0  0  0
 13 14  1  0  0  0  0
 13 15  1  0  0  0  0
 15 16  2  0  0  0  0
 15 17  1  0  0  0  0
 17 18  1  0  0  0  0
 18 19  2  0  0  0  0
 20 29  1  0  0  0  0
M  CHG  1  17  -1
M  END
> <s_m_source_file>
AV-unprocessed.smi

> <i_m_source_file_index>
683

> <i_lp_mmshare_version>
43012

> <i_f3d_flags>
0

> <s_epik_input>
TiNDYzFbY0hdW2NIXVtjSF1jKFtjSF0xKU9bQ0gyXVtDSDJdbjJbY0hdYyhDbCljKD1PKVtuSF1jMj1P

> <s_epik_cmdline>
J2VwaWtfcHl0aG9uJywgJy1waCcsICc3LjAnLCAnLXRuJywgJzgnLCAnLW1hJywgJzIwMCcsICctbWV0YWxfYmluZGluZycsICctaW1hZScsICc8aW5maWxlLm1hZT4nLCAnLW9tYWUnLCAnPG91dGZpbGUubWFlPic=

> <r_epik_Ionization_Penalty>
1.49102

> <r_epik_Ionization_Penalty_Charging>
6.47896e-09

> <r_epik_Ionization_Penalty_Neutral>
1.49102

> <r_epik_State_Penalty>
1.58045

> <r_epik_Charging_Adjusted_Penalty>
1.58045

> <i_epik_Tot_Q>
-1

> <i_epik_Tot_abs_Q>
1

> <r_epik_Metal_State_Penalty>
0.00788874

> <b_epik_Metal_Only>
0

> <s_lp_Force_Field>
OPLS_2005

> <r_lp_Energy>
20.1006

> <b_lp_Chiralities_Consistent>
1

> <s_lp_Variant>
AV-unprocessed.smi:683-2

> <Gold.Version>
5.8.1

> <Gold.Id.Protein>
6NUR|6NUR_protein|mol2

> <Gold.PLP.Fitness>
45.6263

> <Gold.PLP.PLP>
-38.4543

> <Gold.PLP.part.hbond>
-2.8130

> <Gold.PLP.part.metal>
0.0000

> <Gold.PLP.part.buried>
-6.2758

> <Gold.PLP.part.nonpolar>
-30.9828

> <Gold.PLP.part.repulsive>
0.3421

> <Gold.PLP.ligand.clash>
0.0000

> <Gold.PLP.ligand.torsion>
0.5209

> <Gold.PLP.Chemscore.Hbond>
2.7288

> <Gold.PLP.Chemscore.CHOScore>
0.0000

> <Gold.PLP.Chemscore.Metal>
0.0000

> <Gold.Chemscore.Hbonds>
donor molecule, donor type, donor heavy atom, donor atom, acceptor molecule, acceptor atom, score
      P1  H  7997  8010       L1    19  0.80
      P1  H 10752 10765       L1    17  2.00

> <Gold.PLP.Chemscore.Internal.Correction>
0.0276

> <Gold.Rescore>
     Score         DG    S(hbond)    S(metal)    S(lipo)     H(rot)  DE(clash)    DE(int)     intcor
     12.67     -14.76       1.34        0.00      84.19       1.97       0.06       2.03       ----

> <Gold.Chemscore.Fitness>
12.6685

> <Gold.Chemscore.DG>
-14.7569

> <Gold.Chemscore.ZeroCoef>
-5.4800

> <Gold.Chemscore.Hbond>
1.3396

> <Gold.Chemscore.Metal>
0.0000

> <Gold.Chemscore.Lipo>
84.1905

> <Gold.Chemscore.Internal_Hbond>
0.0000

> <Gold.Chemscore.DEClash>
0.0576

> <Gold.Chemscore.DEInternal>
2.0308

> <Gold.Chemscore.Rot>
1.9717

> <Gold.Chemscore.Internal.Correction>
   9.000000E+99

> <Gold.Chemscore.Hbonds>
donor molecule, donor type, donor heavy atom, donor atom, acceptor molecule, acceptor atom, score
      P1  H  7997  8010       L1    19  0.79
      P1  H 10752 10765       L1    17  0.27

> <Gold.Chemscore.Hbond.Weighted>
-4.4741

> <Gold.Chemscore.Metal.Weighted>
-0.0000

> <Gold.Chemscore.Lipo.Weighted>
-9.8503

> <Gold.Chemscore.Internal_Hbond.Weighted>
0.0000

> <Gold.Chemscore.DEClash.Weighted>
0.0576

> <Gold.Chemscore.DEInternal.Weighted>
2.0308

> <Gold.Chemscore.Rot.Weighted>
5.0475

> <Gold.Chemscore.Internal.Correction.Weighted>
   9.000000E+99

> <Gold.Protein.RotatedTorsions>
[ 6907 6896 6895 6894 ] final   87.22 input  -60.11 | X-H torsion
[ 7974 7965 7964 7962 ] final   48.51 input  175.53 | X-H torsion
[ 8008 7997 7996 7995 ] final   93.01 input   59.86 | X-H torsion
[ 10167 10162 10161 10158 ] final   79.66 input  -65.29 | X-H torsion
[ 10718 10713 10712 10709 ] final -134.82 input   66.30 | X-H torsion
[ 10763 10752 10751 10750 ] final  167.13 input  -60.55 | X-H torsion
[ 11005 11000 10999 10996 ] final  115.61 input  -57.11 | X-H torsion

> <Gold.Protein.ActiveResidues>
 VAL166  LYS551  ARG553  GLY616  TRP617  ASP618  TYR619  PRO620  LYS621  CYS622 
 ASP623  PHE694  ASN695  SER759  ASP760  ASP761  ALA762  ILE779  LEU786  VAL792 
 PHE793  MET794  SER795  GLU796  ALA797  LYS798  CYS799  TRP800  GLU811  SER814 

> <Gold.Protein.RotatedAtoms>
  152.5407  134.2309  159.8824 H   0  0  0  0  0  0  0  0  0  0  0  0  # atno 6907 bound_to 6896
  151.2281  133.4458  159.2610 H   0  0  0  0  0  0  0  0  0  0  0  0  # atno 6908 bound_to 6896
  151.0741  134.9830  159.8379 H   0  0  0  0  0  0  0  0  0  0  0  0  # atno 6909 bound_to 6896
  146.0197  139.4637  142.9905 H   0  0  0  0  0  0  0  0  0  0  0  0  # atno 7974 bound_to 7965
  156.0419  140.3318  155.7253 H   0  0  0  0  0  0  0  0  0  0  0  0  # atno 8008 bound_to 7997
  155.5731  140.0630  157.2819 H   0  0  0  0  0  0  0  0  0  0  0  0  # atno 8009 bound_to 7997
  154.4397  140.1857  156.0888 H   0  0  0  0  0  0  0  0  0  0  0  0  # atno 8010 bound_to 7997
  139.9580  144.5981  150.8099 H   0  0  0  0  0  0  0  0  0  0  0  0  # atno 10167 bound_to 10162
  156.2595  130.7201  151.1130 H   0  0  0  0  0  0  0  0  0  0  0  0  # atno 10718 bound_to 10713
  154.3493  135.2753  155.2381 H   0  0  0  0  0  0  0  0  0  0  0  0  # atno 10763 bound_to 10752
  154.4617  135.5905  153.6264 H   0  0  0  0  0  0  0  0  0  0  0  0  # atno 10764 bound_to 10752
  152.9851  135.6066  154.3702 H   0  0  0  0  0  0  0  0  0  0  0  0  # atno 10765 bound_to 10752
  139.9015  134.9586  156.7072 H   0  0  0  0  0  0  0  0  0  0  0  0  # atno 11005 bound_to 11000
  145.7213  141.0074  143.1401 LP  0  0  0  0  0  0  0  0  0  0  0  0  # atno 17320 bound_to 7965
  144.6985  139.8873  143.7451 LP  0  0  0  0  0  0  0  0  0  0  0  0  # atno 17321 bound_to 7965
  140.7562  143.3062  151.2958 LP  0  0  0  0  0  0  0  0  0  0  0  0  # atno 17342 bound_to 10162
  139.6576  144.0247  152.2670 LP  0  0  0  0  0  0  0  0  0  0  0  0  # atno 17343 bound_to 10162
  157.7245  131.0659  150.5992 LP  0  0  0  0  0  0  0  0  0  0  0  0  # atno 17370 bound_to 10713
  156.6078  130.4372  149.5871 LP  0  0  0  0  0  0  0  0  0  0  0  0  # atno 17371 bound_to 10713
  140.7104  133.9228  155.8081 LP  0  0  0  0  0  0  0  0  0  0  0  0  # atno 17394 bound_to 11000
  141.0304  134.0764  157.4020 LP  0  0  0  0  0  0  0  0  0  0  0  0  # atno 17395 bound_to 11000

$$$$
