AV-unprocessed.smi:1697|AV-procd|sdf|6804|dock8
  -GOLD-   22720 7573D 1   1.00000     0.00000
 Structure written by MMmdl.
 54 56  0  0  0  0  0  0  0  0  2 V2000
  143.7636  132.9000  150.9265 C   0  0  0  0  0  0  0  0  0  0  0  0
  143.9366  134.2950  151.5432 C   0  0  0  0  0  0  0  0  0  0  0  0
  145.0471  134.3566  152.4300 O   0  0  0  0  0  0  0  0  0  0  0  0
  145.2998  135.6339  153.0023 C   0  0  2  0  0  0  0  0  0  0  0  0
  145.5846  136.6278  151.8676 C   0  0  0  0  0  0  0  0  0  0  0  0
  146.0027  137.9983  152.4267 C   0  0  0  0  0  0  0  0  0  0  0  0
  147.1839  137.8760  153.3198 N   0  3  1  0  0  0  0  0  0  0  0  0
  147.6960  139.1968  153.7672 C   0  0  0  0  0  0  0  0  0  0  0  0
  149.0982  139.0972  154.3985 C   0  0  1  0  0  0  0  0  0  0  0  0
  149.9544  138.4113  153.5048 O   0  0  0  0  0  0  0  0  0  0  0  0
  149.6927  140.4842  154.7088 C   0  0  0  0  0  0  0  0  0  0  0  0
  150.8147  140.4074  155.6266 N   0  0  0  0  0  0  0  0  0  0  0  0
  151.8687  139.5711  155.5626 C   0  0  0  0  0  0  0  0  0  0  0  0
  152.7845  139.6720  156.5218 N   0  0  0  0  0  0  0  0  0  0  0  0
  152.2657  140.6948  157.2973 C   0  0  0  0  0  0  0  0  0  0  0  0
  152.7571  141.2906  158.4794 C   0  0  0  0  0  0  0  0  0  0  0  0
  152.0486  142.3369  159.1124 C   0  0  0  0  0  0  0  0  0  0  0  0
  152.6122  142.9468  160.3837 C   0  0  0  0  0  0  0  0  0  0  0  0
  150.8281  142.8041  158.5616 C   0  0  0  0  0  0  0  0  0  0  0  0
  150.0496  143.9266  159.2245 C   0  0  0  0  0  0  0  0  0  0  0  0
  150.3233  142.2206  157.3808 C   0  0  0  0  0  0  0  0  0  0  0  0
  151.0363  141.1785  156.7622 C   0  0  0  0  0  0  0  0  0  0  0  0
  146.9248  136.9350  154.4431 C   0  0  0  0  0  0  0  0  0  0  0  0
  146.5290  135.5452  153.9198 C   0  0  0  0  0  0  0  0  0  0  0  0
  142.9645  132.9033  150.1850 H   0  0  0  0  0  0  0  0  0  0  0  0
  143.5066  132.1549  151.6790 H   0  0  0  0  0  0  0  0  0  0  0  0
  144.6777  132.5762  150.4284 H   0  0  0  0  0  0  0  0  0  0  0  0
  144.1163  135.0145  150.7442 H   0  0  0  0  0  0  0  0  0  0  0  0
  143.0245  134.6162  152.0482 H   0  0  0  0  0  0  0  0  0  0  0  0
  144.4424  135.9955  153.5737 H   0  0  0  0  0  0  0  0  0  0  0  0
  146.3769  136.2391  151.2261 H   0  0  0  0  0  0  0  0  0  0  0  0
  144.7012  136.7355  151.2372 H   0  0  0  0  0  0  0  0  0  0  0  0
  146.2366  138.6647  151.5955 H   0  0  0  0  0  0  0  0  0  0  0  0
  145.1750  138.4514  152.9750 H   0  0  0  0  0  0  0  0  0  0  0  0
  147.7448  139.8862  152.9224 H   0  0  0  0  0  0  0  0  0  0  0  0
  146.9870  139.6338  154.4721 H   0  0  0  0  0  0  0  0  0  0  0  0
  149.0537  138.5263  155.3252 H   0  0  0  0  0  0  0  0  0  0  0  0
  149.4268  137.9687  152.8572 H   0  0  0  0  0  0  0  0  0  0  0  0
  150.0179  140.9795  153.7927 H   0  0  0  0  0  0  0  0  0  0  0  0
  148.9345  141.1262  155.1589 H   0  0  0  0  0  0  0  0  0  0  0  0
  151.9672  138.8431  154.7705 H   0  0  0  0  0  0  0  0  0  0  0  0
  153.6865  140.9345  158.8991 H   0  0  0  0  0  0  0  0  0  0  0  0
  151.9208  142.8035  161.2143 H   0  0  0  0  0  0  0  0  0  0  0  0
  152.7816  144.0157  160.2535 H   0  0  0  0  0  0  0  0  0  0  0  0
  153.5634  142.4896  160.6576 H   0  0  0  0  0  0  0  0  0  0  0  0
  149.1362  144.1557  158.6751 H   0  0  0  0  0  0  0  0  0  0  0  0
  150.6505  144.8351  159.2674 H   0  0  0  0  0  0  0  0  0  0  0  0
  149.7683  143.6487  160.2402 H   0  0  0  0  0  0  0  0  0  0  0  0
  149.3953  142.5665  156.9505 H   0  0  0  0  0  0  0  0  0  0  0  0
  147.8096  136.8347  155.0703 H   0  0  0  0  0  0  0  0  0  0  0  0
  146.1331  137.3339  155.0793 H   0  0  0  0  0  0  0  0  0  0  0  0
  146.3291  134.8780  154.7581 H   0  0  0  0  0  0  0  0  0  0  0  0
  147.3670  135.1098  153.3736 H   0  0  0  0  0  0  0  0  0  0  0  0
  147.9178  137.4682  152.7573 H   0  0  0  0  0  0  0  0  0  0  0  0
  1  2  1  0  0  0  0
  1 25  1  0  0  0  0
  1 26  1  0  0  0  0
  1 27  1  0  0  0  0
  2  3  1  0  0  0  0
  2 28  1  0  0  0  0
  2 29  1  0  0  0  0
  3  4  1  0  0  0  0
  4 24  1  0  0  0  0
  4  5  1  0  0  0  0
  4 30  1  0  0  0  0
  5  6  1  0  0  0  0
  5 31  1  0  0  0  0
  5 32  1  0  0  0  0
  6  7  1  0  0  0  0
  6 33  1  0  0  0  0
  6 34  1  0  0  0  0
  7  8  1  0  0  0  0
  7 23  1  0  0  0  0
  7 54  1  0  0  0  0
  8  9  1  0  0  0  0
  8 35  1  0  0  0  0
  8 36  1  0  0  0  0
  9 10  1  0  0  0  0
  9 11  1  0  0  0  0
  9 37  1  0  0  0  0
 10 38  1  0  0  0  0
 11 12  1  0  0  0  0
 11 39  1  0  0  0  0
 11 40  1  0  0  0  0
 12 22  1  0  0  0  0
 12 13  1  0  0  0  0
 13 14  2  0  0  0  0
 13 41  1  0  0  0  0
 14 15  1  0  0  0  0
 15 22  2  0  0  0  0
 15 16  1  0  0  0  0
 16 17  2  0  0  0  0
 16 42  1  0  0  0  0
 17 18  1  0  0  0  0
 17 19  1  0  0  0  0
 18 43  1  0  0  0  0
 18 44  1  0  0  0  0
 18 45  1  0  0  0  0
 19 20  1  0  0  0  0
 19 21  2  0  0  0  0
 20 46  1  0  0  0  0
 20 47  1  0  0  0  0
 20 48  1  0  0  0  0
 21 22  1  0  0  0  0
 21 49  1  0  0  0  0
 23 24  1  0  0  0  0
 23 50  1  0  0  0  0
 23 51  1  0  0  0  0
 24 52  1  0  0  0  0
 24 53  1  0  0  0  0
M  CHG  1   7   1
M  END
> <s_m_source_file>
AV-unprocessed.smi

> <i_m_source_file_index>
1697

> <i_lp_mmshare_version>
43012

> <i_f3d_flags>
0

> <s_epik_input>
W0NIM11bQ0gyXU9bQ0hdMVtDSDJdW0NIMl1OKFtDSDJdW0NIMl0xKVtDSDJdW0NASF0oW09IXSlbQ0gyXW4oW2NIXW4yKWMoYzIzKVtjSF1jKFtDSDNdKWMoW2NIXTMpW0NIM10=

> <s_epik_cmdline>
J2VwaWtfcHl0aG9uJywgJy1waCcsICc3LjAnLCAnLXRuJywgJzgnLCAnLW1hJywgJzIwMCcsICctbWV0YWxfYmluZGluZycsICctaW1hZScsICc8aW5maWxlLm1hZT4nLCAnLW9tYWUnLCAnPG91dGZpbGUubWFlPic=

> <r_epik_Ionization_Penalty>
0.112476

> <r_epik_Ionization_Penalty_Charging>
0.0244612

> <r_epik_Ionization_Penalty_Neutral>
0.0880147

> <r_epik_State_Penalty>
0.0961447

> <r_epik_Charging_Adjusted_Penalty>
0.120606

> <i_epik_Tot_Q>
1

> <i_epik_Tot_abs_Q>
1

> <r_epik_Metal_State_Penalty>
0.0206204

> <b_epik_Metal_Only>
0

> <s_lp_Force_Field>
OPLS_2005

> <r_lp_Energy>
24.3812

> <b_lp_Chiralities_Consistent>
1

> <s_lp_Variant>
AV-unprocessed.smi:1697-2

> <Gold.Version>
5.8.1

> <Gold.Id.Protein>
6NUR|6NUR_protein|mol2

> <Gold.PLP.Fitness>
55.9733

> <Gold.PLP.PLP>
-44.4899

> <Gold.PLP.part.hbond>
-4.0632

> <Gold.PLP.part.metal>
0.0000

> <Gold.PLP.part.buried>
-3.1808

> <Gold.PLP.part.nonpolar>
-37.2998

> <Gold.PLP.part.repulsive>
0.1088

> <Gold.PLP.ligand.clash>
0.0000

> <Gold.PLP.ligand.torsion>
0.3472

> <Gold.PLP.Chemscore.Hbond>
4.0000

> <Gold.PLP.Chemscore.CHOScore>
0.0000

> <Gold.PLP.Chemscore.Metal>
0.0000

> <Gold.Chemscore.Hbonds>
donor molecule, donor type, donor heavy atom, donor atom, acceptor molecule, acceptor atom, score
      L1  H     7    54       P1  7948  2.00
      L1  H    10    38       P1  7948  0.98
      P1  H  7997  8008       L1    14  1.00

> <Gold.PLP.Chemscore.Internal.Correction>
0.1778

> <Gold.Rescore>
     Score         DG    S(hbond)    S(metal)    S(lipo)     H(rot)  DE(clash)    DE(int)     intcor
     20.15     -20.38       2.56        0.00     104.04       2.27       0.02       0.20       ----

> <Gold.Chemscore.Fitness>
20.1549

> <Gold.Chemscore.DG>
-20.3789

> <Gold.Chemscore.ZeroCoef>
-5.4800

> <Gold.Chemscore.Hbond>
2.5570

> <Gold.Chemscore.Metal>
0.0000

> <Gold.Chemscore.Lipo>
104.0375

> <Gold.Chemscore.Internal_Hbond>
0.0000

> <Gold.Chemscore.DEClash>
0.0217

> <Gold.Chemscore.DEInternal>
0.2023

> <Gold.Chemscore.Rot>
2.2710

> <Gold.Chemscore.Internal.Correction>
   9.000000E+99

> <Gold.Chemscore.Hbonds>
donor molecule, donor type, donor heavy atom, donor atom, acceptor molecule, acceptor atom, score
      L1  H     7    54       P1  7948  1.00
      L1  H    10    38       P1  7948  0.77
      P1  H  7997  8008       L1    14  0.34

> <Gold.Chemscore.Hbond.Weighted>
-8.5403

> <Gold.Chemscore.Metal.Weighted>
-0.0000

> <Gold.Chemscore.Lipo.Weighted>
-12.1724

> <Gold.Chemscore.Internal_Hbond.Weighted>
0.0000

> <Gold.Chemscore.DEClash.Weighted>
0.0217

> <Gold.Chemscore.DEInternal.Weighted>
0.2023

> <Gold.Chemscore.Rot.Weighted>
5.8137

> <Gold.Chemscore.Internal.Correction.Weighted>
   9.000000E+99

> <Gold.Protein.RotatedTorsions>
[ 6907 6896 6895 6894 ] final  139.73 input  -60.11 | X-H torsion
[ 7974 7965 7964 7962 ] final   12.34 input  175.53 | X-H torsion
[ 8008 7997 7996 7995 ] final  -44.60 input   59.86 | X-H torsion
[ 10167 10162 10161 10158 ] final  -80.37 input  -65.29 | X-H torsion
[ 10718 10713 10712 10709 ] final  170.66 input   66.30 | X-H torsion
[ 10763 10752 10751 10750 ] final  -56.55 input  -60.55 | X-H torsion
[ 11005 11000 10999 10996 ] final  -92.88 input  -57.11 | X-H torsion

> <Gold.Protein.ActiveResidues>
 VAL166  LYS551  ARG553  GLY616  TRP617  ASP618  TYR619  PRO620  LYS621  CYS622 
 ASP623  PHE694  ASN695  SER759  ASP760  ASP761  ALA762  ILE779  LEU786  VAL792 
 PHE793  MET794  SER795  GLU796  ALA797  LYS798  CYS799  TRP800  GLU811  SER814 

> <Gold.Protein.RotatedAtoms>
  152.2514  133.5218  159.5327 H   0  0  0  0  0  0  0  0  0  0  0  0  # atno 6907 bound_to 6896
  150.7095  134.0954  159.3956 H   0  0  0  0  0  0  0  0  0  0  0  0  # atno 6908 bound_to 6896
  151.8874  135.0430  160.0545 H   0  0  0  0  0  0  0  0  0  0  0  0  # atno 6909 bound_to 6896
  146.2353  139.9350  142.8491 H   0  0  0  0  0  0  0  0  0  0  0  0  # atno 7974 bound_to 7965
  154.3998  140.1418  156.3709 H   0  0  0  0  0  0  0  0  0  0  0  0  # atno 8008 bound_to 7997
  155.8093  140.3473  155.5427 H   0  0  0  0  0  0  0  0  0  0  0  0  # atno 8009 bound_to 7997
  155.8403  140.0925  157.1729 H   0  0  0  0  0  0  0  0  0  0  0  0  # atno 8010 bound_to 7997
  140.4509  143.2483  151.8489 H   0  0  0  0  0  0  0  0  0  0  0  0  # atno 10167 bound_to 10162
  157.0048  131.0187  151.2820 H   0  0  0  0  0  0  0  0  0  0  0  0  # atno 10718 bound_to 10713
  154.2085  135.6398  153.5108 H   0  0  0  0  0  0  0  0  0  0  0  0  # atno 10763 bound_to 10752
  152.9995  135.5468  154.6240 H   0  0  0  0  0  0  0  0  0  0  0  0  # atno 10764 bound_to 10752
  154.5671  135.2913  155.0837 H   0  0  0  0  0  0  0  0  0  0  0  0  # atno 10765 bound_to 10752
  141.1511  133.7850  157.0081 H   0  0  0  0  0  0  0  0  0  0  0  0  # atno 11005 bound_to 11000
  145.2007  140.9853  143.4157 LP  0  0  0  0  0  0  0  0  0  0  0  0  # atno 17320 bound_to 7965
  144.9776  139.3816  143.6278 LP  0  0  0  0  0  0  0  0  0  0  0  0  # atno 17321 bound_to 7965
  139.4796  144.5120  151.8919 LP  0  0  0  0  0  0  0  0  0  0  0  0  # atno 17342 bound_to 10162
  140.4208  144.2246  150.5887 LP  0  0  0  0  0  0  0  0  0  0  0  0  # atno 17343 bound_to 10162
  157.5364  130.8091  149.7976 LP  0  0  0  0  0  0  0  0  0  0  0  0  # atno 17370 bound_to 10713
  156.0157  130.3814  150.2117 LP  0  0  0  0  0  0  0  0  0  0  0  0  # atno 17371 bound_to 10713
  140.0896  134.9600  157.1754 LP  0  0  0  0  0  0  0  0  0  0  0  0  # atno 17394 bound_to 11000
  140.3465  134.2646  155.7204 LP  0  0  0  0  0  0  0  0  0  0  0  0  # atno 17395 bound_to 11000

$$$$
