AV-unprocessed.smi:1593|AV-procd|sdf|6411|dock6
  -GOLD-   22720 7 43D 1   1.00000     0.00000
 Structure written by MMmdl.
 35 36  0  0  0  0  0  0  0  0  2 V2000
  151.2906  140.8598  156.3197 C   0  0  0  0  0  0  0  0  0  0  0  0
  151.1337  139.5794  155.5729 C   0  0  0  0  0  0  0  0  0  0  0  0
  151.4969  138.2925  155.8519 C   0  0  0  0  0  0  0  0  0  0  0  0
  151.0523  137.5741  154.7083 C   0  0  0  0  0  0  0  0  0  0  0  0
  151.1680  136.2520  154.5101 N   0  5  0  0  0  0  0  0  0  0  0  0
  150.2441  135.4026  155.0164 C   0  0  0  0  0  0  0  0  0  0  0  0
  150.2811  134.8538  156.1202 O   0  0  0  0  0  0  0  0  0  0  0  0
  149.2130  135.1730  154.1928 N   0  0  0  0  0  0  0  0  0  0  0  0
  148.0916  134.2854  154.4748 C   0  0  0  0  0  0  0  0  0  0  0  0
  147.8211  133.3437  153.2879 C   0  0  0  0  0  0  0  0  0  0  0  0
  146.4849  133.4416  152.6983 N   0  0  0  0  0  0  0  0  0  0  0  0
  146.2066  134.7651  152.1453 C   0  0  0  0  0  0  0  0  0  0  0  0
  144.8058  134.8386  151.5126 C   0  0  0  0  0  0  0  0  0  0  0  0
  144.6750  133.8298  150.5159 O   0  0  0  0  0  0  0  0  0  0  0  0
  144.8918  132.5202  151.0311 C   0  0  0  0  0  0  0  0  0  0  0  0
  146.2955  132.4398  151.6553 C   0  0  0  0  0  0  0  0  0  0  0  0
  150.4560  138.3540  153.8220 N   0  0  0  0  0  0  0  0  0  0  0  0
  150.5099  139.6429  154.3658 O   0  0  0  0  0  0  0  0  0  0  0  0
  150.8692  140.7758  157.3215 H   0  0  0  0  0  0  0  0  0  0  0  0
  150.7841  141.6786  155.8082 H   0  0  0  0  0  0  0  0  0  0  0  0
  152.3443  141.1218  156.4160 H   0  0  0  0  0  0  0  0  0  0  0  0
  152.0038  137.9231  156.7306 H   0  0  0  0  0  0  0  0  0  0  0  0
  149.2192  135.6327  153.2941 H   0  0  0  0  0  0  0  0  0  0  0  0
  148.2816  133.7182  155.3867 H   0  0  0  0  0  0  0  0  0  0  0  0
  147.2050  134.8910  154.6667 H   0  0  0  0  0  0  0  0  0  0  0  0
  148.5740  133.5145  152.5172 H   0  0  0  0  0  0  0  0  0  0  0  0
  147.9788  132.3219  153.6354 H   0  0  0  0  0  0  0  0  0  0  0  0
  146.2743  135.5231  152.9253 H   0  0  0  0  0  0  0  0  0  0  0  0
  146.9568  135.0182  151.3946 H   0  0  0  0  0  0  0  0  0  0  0  0
  144.0330  134.7116  152.2721 H   0  0  0  0  0  0  0  0  0  0  0  0
  144.6473  135.8152  151.0550 H   0  0  0  0  0  0  0  0  0  0  0  0
  144.1260  132.2803  151.7705 H   0  0  0  0  0  0  0  0  0  0  0  0
  144.7940  131.7972  150.2213 H   0  0  0  0  0  0  0  0  0  0  0  0
  147.0454  132.5734  150.8742 H   0  0  0  0  0  0  0  0  0  0  0  0
  146.4486  131.4421  152.0683 H   0  0  0  0  0  0  0  0  0  0  0  0
  1  2  1  0  0  0  0
  1 19  1  0  0  0  0
  1 20  1  0  0  0  0
  1 21  1  0  0  0  0
  2 18  1  0  0  0  0
  2  3  2  0  0  0  0
  3  4  1  0  0  0  0
  3 22  1  0  0  0  0
  4  5  1  0  0  0  0
  4 17  2  0  0  0  0
  5  6  1  0  0  0  0
  6  7  2  0  0  0  0
  6  8  1  0  0  0  0
  8  9  1  0  0  0  0
  8 23  1  0  0  0  0
  9 10  1  0  0  0  0
  9 24  1  0  0  0  0
  9 25  1  0  0  0  0
 10 11  1  0  0  0  0
 10 26  1  0  0  0  0
 10 27  1  0  0  0  0
 11 16  1  0  0  0  0
 11 12  1  0  0  0  0
 12 13  1  0  0  0  0
 12 28  1  0  0  0  0
 12 29  1  0  0  0  0
 13 14  1  0  0  0  0
 13 30  1  0  0  0  0
 13 31  1  0  0  0  0
 14 15  1  0  0  0  0
 15 16  1  0  0  0  0
 15 32  1  0  0  0  0
 15 33  1  0  0  0  0
 16 34  1  0  0  0  0
 16 35  1  0  0  0  0
 17 18  1  0  0  0  0
M  CHG  1   5  -1
M  END
> <s_m_source_file>
AV-unprocessed.smi

> <i_m_source_file_index>
1593

> <i_lp_mmshare_version>
43012

> <i_f3d_flags>
0

> <s_epik_input>
W0NIM11jMVtjSF1jKG5vMSlbTkhdQyg9TylbTkhdW0NIMl1bQ0gyXU4yW0NIMl1bQ0gyXU9bQ0gyXVtDSDJdMg==

> <s_epik_cmdline>
J2VwaWtfcHl0aG9uJywgJy1waCcsICc3LjAnLCAnLXRuJywgJzgnLCAnLW1hJywgJzIwMCcsICctbWV0YWxfYmluZGluZycsICctaW1hZScsICc8aW5maWxlLm1hZT4nLCAnLW9tYWUnLCAnPG91dGZpbGUubWFlPic=

> <r_epik_Ionization_Penalty>
6.88366

> <r_epik_Ionization_Penalty_Charging>
6.57198

> <r_epik_Ionization_Penalty_Neutral>
0.311678

> <r_epik_State_Penalty>
6.77619

> <r_epik_Charging_Adjusted_Penalty>
13.3482

> <i_epik_Tot_Q>
-1

> <i_epik_Tot_abs_Q>
1

> <r_epik_Metal_State_Penalty>
2.70533

> <b_epik_Metal_Only>
1

> <s_lp_Force_Field>
OPLS_2005

> <r_lp_Energy>
18.6523

> <b_lp_Chiralities_Consistent>
1

> <s_lp_Variant>
AV-unprocessed.smi:1593-3

> <Gold.Version>
5.8.1

> <Gold.Id.Protein>
6NUR|6NUR_protein|mol2

> <Gold.PLP.Fitness>
33.7535

> <Gold.PLP.PLP>
-25.5980

> <Gold.PLP.part.hbond>
-3.0000

> <Gold.PLP.part.metal>
0.0000

> <Gold.PLP.part.buried>
-4.3349

> <Gold.PLP.part.nonpolar>
-20.2011

> <Gold.PLP.part.repulsive>
1.4966

> <Gold.PLP.ligand.clash>
0.0000

> <Gold.PLP.ligand.torsion>
1.9369

> <Gold.PLP.Chemscore.Hbond>
4.0000

> <Gold.PLP.Chemscore.CHOScore>
0.0000

> <Gold.PLP.Chemscore.Metal>
0.0000

> <Gold.Chemscore.Hbonds>
donor molecule, donor type, donor heavy atom, donor atom, acceptor molecule, acceptor atom, score
      L1  H     8    23       P1  7948  1.00
      P1  H  7989  7998       L1    18  1.00
      P1  H 10752 10765       L1     5  2.00

> <Gold.PLP.Chemscore.Internal.Correction>
0.0292

> <Gold.Rescore>
     Score         DG    S(hbond)    S(metal)    S(lipo)     H(rot)  DE(clash)    DE(int)     intcor
     12.80     -14.78       2.37        0.00      46.13       1.57       0.12       1.85       ----

> <Gold.Chemscore.Fitness>
12.8016

> <Gold.Chemscore.DG>
-14.7790

> <Gold.Chemscore.ZeroCoef>
-5.4800

> <Gold.Chemscore.Hbond>
2.3738

> <Gold.Chemscore.Metal>
0.0000

> <Gold.Chemscore.Lipo>
46.1336

> <Gold.Chemscore.Internal_Hbond>
0.0000

> <Gold.Chemscore.DEClash>
0.1229

> <Gold.Chemscore.DEInternal>
1.8545

> <Gold.Chemscore.Rot>
1.5731

> <Gold.Chemscore.Internal.Correction>
   9.000000E+99

> <Gold.Chemscore.Hbonds>
donor molecule, donor type, donor heavy atom, donor atom, acceptor molecule, acceptor atom, score
      L1  H     8    23       P1  7948  0.42
      P1  H  7989  7998       L1    18  0.24
      P1  H 10752 10765       L1     5  0.84

> <Gold.Chemscore.Hbond.Weighted>
-7.9284

> <Gold.Chemscore.Metal.Weighted>
-0.0000

> <Gold.Chemscore.Lipo.Weighted>
-5.3976

> <Gold.Chemscore.Internal_Hbond.Weighted>
0.0000

> <Gold.Chemscore.DEClash.Weighted>
0.1229

> <Gold.Chemscore.DEInternal.Weighted>
1.8545

> <Gold.Chemscore.Rot.Weighted>
4.0271

> <Gold.Chemscore.Internal.Correction.Weighted>
   9.000000E+99

> <Gold.Protein.RotatedTorsions>
[ 6907 6896 6895 6894 ] final -124.57 input  -60.11 | X-H torsion
[ 7974 7965 7964 7962 ] final   89.21 input  175.53 | X-H torsion
[ 8008 7997 7996 7995 ] final  165.95 input   59.86 | X-H torsion
[ 10167 10162 10161 10158 ] final  119.58 input  -65.29 | X-H torsion
[ 10718 10713 10712 10709 ] final -169.67 input   66.30 | X-H torsion
[ 10763 10752 10751 10750 ] final  171.87 input  -60.55 | X-H torsion
[ 11005 11000 10999 10996 ] final   -2.95 input  -57.11 | X-H torsion

> <Gold.Protein.ActiveResidues>
 VAL166  LYS551  ARG553  GLY616  TRP617  ASP618  TYR619  PRO620  LYS621  CYS622 
 ASP623  PHE694  ASN695  SER759  ASP760  ASP761  ALA762  ILE779  LEU786  VAL792 
 PHE793  MET794  SER795  GLU796  ALA797  LYS798  CYS799  TRP800  GLU811  SER814 

> <Gold.Protein.RotatedAtoms>
  150.8781  133.7410  159.2940 H   0  0  0  0  0  0  0  0  0  0  0  0  # atno 6907 bound_to 6896
  151.5001  135.1060  159.9836 H   0  0  0  0  0  0  0  0  0  0  0  0  # atno 6908 bound_to 6896
  152.4741  133.8052  159.7030 H   0  0  0  0  0  0  0  0  0  0  0  0  # atno 6909 bound_to 6896
  145.5354  139.2285  143.2595 H   0  0  0  0  0  0  0  0  0  0  0  0  # atno 7974 bound_to 7965
  156.1759  140.1656  156.8364 H   0  0  0  0  0  0  0  0  0  0  0  0  # atno 8008 bound_to 7997
  154.5306  140.0757  156.8372 H   0  0  0  0  0  0  0  0  0  0  0  0  # atno 8009 bound_to 7997
  155.3414  140.3385  155.4241 H   0  0  0  0  0  0  0  0  0  0  0  0  # atno 8010 bound_to 7997
  139.6037  144.7064  151.3003 H   0  0  0  0  0  0  0  0  0  0  0  0  # atno 10167 bound_to 10162
  156.7149  130.9248  151.3092 H   0  0  0  0  0  0  0  0  0  0  0  0  # atno 10718 bound_to 10713
  154.4180  135.2757  155.1994 H   0  0  0  0  0  0  0  0  0  0  0  0  # atno 10763 bound_to 10752
  154.3951  135.6057  153.5869 H   0  0  0  0  0  0  0  0  0  0  0  0  # atno 10764 bound_to 10752
  152.9832  135.5913  154.4472 H   0  0  0  0  0  0  0  0  0  0  0  0  # atno 10765 bound_to 10752
  140.6640  133.9295  155.8453 H   0  0  0  0  0  0  0  0  0  0  0  0  # atno 11005 bound_to 11000
  146.2016  140.6172  142.9099 LP  0  0  0  0  0  0  0  0  0  0  0  0  # atno 17320 bound_to 7965
  144.7604  140.5408  143.6739 LP  0  0  0  0  0  0  0  0  0  0  0  0  # atno 17321 bound_to 7965
  140.7269  143.6978  150.7869 LP  0  0  0  0  0  0  0  0  0  0  0  0  # atno 17342 bound_to 10162
  140.0560  143.5202  152.2651 LP  0  0  0  0  0  0  0  0  0  0  0  0  # atno 17343 bound_to 10162
  157.6921  130.9244  150.0543 LP  0  0  0  0  0  0  0  0  0  0  0  0  # atno 17370 bound_to 10713
  156.1635  130.3644  149.9266 LP  0  0  0  0  0  0  0  0  0  0  0  0  # atno 17371 bound_to 10713
  141.0443  134.0576  157.3863 LP  0  0  0  0  0  0  0  0  0  0  0  0  # atno 17394 bound_to 11000
  139.9003  135.0162  156.7237 LP  0  0  0  0  0  0  0  0  0  0  0  0  # atno 17395 bound_to 11000

$$$$
