AV-unprocessed.smi:902|AV-procd|sdf|4094|dock3
  -GOLD-   22720 1583D 1   1.00000     0.00000
 Structure written by MMmdl.
 42 44  0  0  0  0  0  0  0  0  1 V2000
  152.6217  138.6913  154.6972 C   0  0  0  0  0  0  0  0  0  0  0  0
  151.7858  139.3170  155.7031 N   0  0  0  0  0  0  0  0  0  0  0  0
  152.3341  140.1461  156.6165 N   0  0  0  0  0  0  0  0  0  0  0  0
  151.3211  140.5486  157.3778 C   0  0  0  0  0  0  0  0  0  0  0  0
  151.5719  141.4992  158.5174 C   0  0  0  0  0  0  0  0  0  0  0  0
  151.2511  142.9934  158.3687 C   0  0  0  0  0  0  0  0  0  0  0  0
  152.4799  143.2992  159.2315 C   0  0  0  0  0  0  0  0  0  0  0  0
  153.0051  141.8993  158.8960 C   0  0  0  0  0  0  0  0  0  0  0  0
  150.0756  139.9856  156.9731 C   0  0  0  0  0  0  0  0  0  0  0  0
  150.4277  139.2103  155.9025 C   0  0  0  0  0  0  0  0  0  0  0  0
  149.6390  138.4373  155.1099 N   0  0  0  0  0  0  0  0  0  0  0  0
  148.3171  138.2114  155.2028 C   0  0  0  0  0  0  0  0  0  0  0  0
  147.5716  138.6741  156.0665 O   0  0  0  0  0  0  0  0  0  0  0  0
  147.8971  137.4034  154.2192 N   0  0  0  0  0  0  0  0  0  0  0  0
  146.5136  136.9937  154.0050 C   0  0  0  0  0  0  0  0  0  0  0  0
  145.9021  137.3336  152.6465 C   0  0  0  0  0  0  0  0  0  0  0  0
  146.5370  138.5663  152.0096 C   0  0  0  0  0  0  0  0  0  0  0  0
  146.4945  138.5055  150.5989 O   0  0  0  0  0  0  0  0  0  0  0  0
  145.5440  136.1751  151.7358 C   0  0  0  0  0  0  0  0  0  0  0  0
  144.4516  137.0034  152.3582 C   0  0  0  0  0  0  0  0  0  0  0  0
  152.4048  137.6238  154.6502 H   0  0  0  0  0  0  0  0  0  0  0  0
  153.6771  138.8248  154.9385 H   0  0  0  0  0  0  0  0  0  0  0  0
  152.4196  139.1406  153.7249 H   0  0  0  0  0  0  0  0  0  0  0  0
  151.0693  141.1250  159.4114 H   0  0  0  0  0  0  0  0  0  0  0  0
  151.3591  143.3557  157.3450 H   0  0  0  0  0  0  0  0  0  0  0  0
  150.2994  143.2993  158.8041 H   0  0  0  0  0  0  0  0  0  0  0  0
  153.1008  144.1176  158.8661 H   0  0  0  0  0  0  0  0  0  0  0  0
  152.2356  143.4154  160.2885 H   0  0  0  0  0  0  0  0  0  0  0  0
  153.4212  141.3527  159.7425 H   0  0  0  0  0  0  0  0  0  0  0  0
  153.6881  141.9027  158.0451 H   0  0  0  0  0  0  0  0  0  0  0  0
  149.1001  140.1403  157.4086 H   0  0  0  0  0  0  0  0  0  0  0  0
  150.1145  137.9794  154.3465 H   0  0  0  0  0  0  0  0  0  0  0  0
  148.5780  137.0701  153.5527 H   0  0  0  0  0  0  0  0  0  0  0  0
  146.4695  135.9123  154.1364 H   0  0  0  0  0  0  0  0  0  0  0  0
  145.8897  137.4115  154.7972 H   0  0  0  0  0  0  0  0  0  0  0  0
  146.0326  139.4687  152.3564 H   0  0  0  0  0  0  0  0  0  0  0  0
  147.5812  138.6440  152.3137 H   0  0  0  0  0  0  0  0  0  0  0  0
  145.5904  138.4671  150.3262 H   0  0  0  0  0  0  0  0  0  0  0  0
  145.7092  136.2906  150.6664 H   0  0  0  0  0  0  0  0  0  0  0  0
  145.6814  135.1650  152.1171 H   0  0  0  0  0  0  0  0  0  0  0  0
  143.8667  136.5459  153.1534 H   0  0  0  0  0  0  0  0  0  0  0  0
  143.9003  137.6796  151.7077 H   0  0  0  0  0  0  0  0  0  0  0  0
  1  2  1  0  0  0  0
  1 21  1  0  0  0  0
  1 22  1  0  0  0  0
  1 23  1  0  0  0  0
  2 10  1  0  0  0  0
  2  3  1  0  0  0  0
  3  4  2  0  0  0  0
  4  5  1  0  0  0  0
  4  9  1  0  0  0  0
  5  8  1  0  0  0  0
  5  6  1  0  0  0  0
  5 24  1  0  0  0  0
  6  7  1  0  0  0  0
  6 25  1  0  0  0  0
  6 26  1  0  0  0  0
  7  8  1  0  0  0  0
  7 27  1  0  0  0  0
  7 28  1  0  0  0  0
  8 29  1  0  0  0  0
  8 30  1  0  0  0  0
  9 10  2  0  0  0  0
  9 31  1  0  0  0  0
 10 11  1  0  0  0  0
 11 12  1  0  0  0  0
 11 32  1  0  0  0  0
 12 13  2  0  0  0  0
 12 14  1  0  0  0  0
 14 15  1  0  0  0  0
 14 33  1  0  0  0  0
 15 16  1  0  0  0  0
 15 34  1  0  0  0  0
 15 35  1  0  0  0  0
 16 20  1  0  0  0  0
 16 17  1  0  0  0  0
 16 19  1  0  0  0  0
 17 18  1  0  0  0  0
 17 36  1  0  0  0  0
 17 37  1  0  0  0  0
 18 38  1  0  0  0  0
 19 20  1  0  0  0  0
 19 39  1  0  0  0  0
 19 40  1  0  0  0  0
 20 41  1  0  0  0  0
 20 42  1  0  0  0  0
M  END
> <s_m_source_file>
AV-unprocessed.smi

> <i_m_source_file_index>
902

> <i_lp_mmshare_version>
43012

> <i_f3d_flags>
0

> <s_epik_input>
W0NIMl0xW0NIMl1bQ0gyXVtDSF0xYyhubjJbQ0gzXSlbY0hdYzJbTkhdQyg9TylbTkhdW0NIMl1DMyhbQ0gyXVtPSF0pW0NIMl1bQ0gyXTM=

> <s_epik_cmdline>
J2VwaWtfcHl0aG9uJywgJy1waCcsICc3LjAnLCAnLXRuJywgJzgnLCAnLW1hJywgJzIwMCcsICctbWV0YWxfYmluZGluZycsICctaW1hZScsICc8aW5maWxlLm1hZT4nLCAnLW9tYWUnLCAnPG91dGZpbGUubWFlPic=

> <r_lp_tautomer_probability>
1

> <r_epik_Ionization_Penalty>
9.68756e-05

> <r_epik_Ionization_Penalty_Charging>
0

> <r_epik_Ionization_Penalty_Neutral>
9.68756e-05

> <r_epik_State_Penalty>
-0

> <r_epik_Charging_Adjusted_Penalty>
0

> <i_epik_Tot_Q>
0

> <i_epik_Tot_abs_Q>
0

> <r_epik_Metal_State_Penalty>
-0

> <b_epik_Metal_Only>
0

> <s_lp_Force_Field>
OPLS_2005

> <r_lp_Energy>
26.4992

> <b_lp_Chiralities_Consistent>
1

> <s_lp_Variant>
AV-unprocessed.smi:902-1

> <Gold.Version>
5.8.1

> <Gold.Id.Protein>
6NUR|6NUR_protein|mol2

> <Gold.PLP.Fitness>
44.5522

> <Gold.PLP.PLP>
-34.5201

> <Gold.PLP.part.hbond>
-4.0000

> <Gold.PLP.part.metal>
0.0000

> <Gold.PLP.part.buried>
-2.9917

> <Gold.PLP.part.nonpolar>
-27.3383

> <Gold.PLP.part.repulsive>
0.0226

> <Gold.PLP.ligand.clash>
0.0000

> <Gold.PLP.ligand.torsion>
1.4104

> <Gold.PLP.Chemscore.Hbond>
3.8400

> <Gold.PLP.Chemscore.CHOScore>
0.0000

> <Gold.PLP.Chemscore.Metal>
0.0000

> <Gold.Chemscore.Hbonds>
donor molecule, donor type, donor heavy atom, donor atom, acceptor molecule, acceptor atom, score
      L1  H    14    33       P1  7948  0.99
      L1  H    18    38       P1 10171  1.00
      P1  H  7954  7966       L1    18  0.85
      P1  H  7997  8010       L1     3  1.00

> <Gold.PLP.Chemscore.Internal.Correction>
1.3329

> <Gold.Rescore>
     Score         DG    S(hbond)    S(metal)    S(lipo)     H(rot)  DE(clash)    DE(int)     intcor
     19.02     -21.80       3.61        0.00      85.88       2.26       0.10       2.68       ----

> <Gold.Chemscore.Fitness>
19.0199

> <Gold.Chemscore.DG>
-21.8008

> <Gold.Chemscore.ZeroCoef>
-5.4800

> <Gold.Chemscore.Hbond>
3.6122

> <Gold.Chemscore.Metal>
0.0000

> <Gold.Chemscore.Lipo>
85.8820

> <Gold.Chemscore.Internal_Hbond>
0.0000

> <Gold.Chemscore.DEClash>
0.0983

> <Gold.Chemscore.DEInternal>
2.6826

> <Gold.Chemscore.Rot>
2.2626

> <Gold.Chemscore.Internal.Correction>
   9.000000E+99

> <Gold.Chemscore.Hbonds>
donor molecule, donor type, donor heavy atom, donor atom, acceptor molecule, acceptor atom, score
      L1  H    14    33       P1  7948  0.94
      L1  H    18    38       P1 10171  1.00
      P1  H  7954  7966       L1    18  0.68
      P1  H  7997  8010       L1     3  0.73

> <Gold.Chemscore.Hbond.Weighted>
-12.0647

> <Gold.Chemscore.Metal.Weighted>
-0.0000

> <Gold.Chemscore.Lipo.Weighted>
-10.0482

> <Gold.Chemscore.Internal_Hbond.Weighted>
0.0000

> <Gold.Chemscore.DEClash.Weighted>
0.0983

> <Gold.Chemscore.DEInternal.Weighted>
2.6826

> <Gold.Chemscore.Rot.Weighted>
5.7922

> <Gold.Chemscore.Internal.Correction.Weighted>
   9.000000E+99

> <Gold.Protein.RotatedTorsions>
[ 6907 6896 6895 6894 ] final   57.04 input  -60.11 | X-H torsion
[ 7974 7965 7964 7962 ] final  -64.31 input  175.53 | X-H torsion
[ 8008 7997 7996 7995 ] final   67.44 input   59.86 | X-H torsion
[ 10167 10162 10161 10158 ] final  114.06 input  -65.29 | X-H torsion
[ 10718 10713 10712 10709 ] final -147.25 input   66.30 | X-H torsion
[ 10763 10752 10751 10750 ] final   88.57 input  -60.55 | X-H torsion
[ 11005 11000 10999 10996 ] final -124.21 input  -57.11 | X-H torsion

> <Gold.Protein.ActiveResidues>
 VAL166  LYS551  ARG553  GLY616  TRP617  ASP618  TYR619  PRO620  LYS621  CYS622 
 ASP623  PHE694  ASN695  SER759  ASP760  ASP761  ALA762  ILE779  LEU786  VAL792 
 PHE793  MET794  SER795  GLU796  ALA797  LYS798  CYS799  TRP800  GLU811  SER814 

> <Gold.Protein.RotatedAtoms>
  152.3693  134.6757  160.0181 H   0  0  0  0  0  0  0  0  0  0  0  0  # atno 6907 bound_to 6896
  151.7055  133.3306  159.3285 H   0  0  0  0  0  0  0  0  0  0  0  0  # atno 6908 bound_to 6896
  150.7662  134.6513  159.6334 H   0  0  0  0  0  0  0  0  0  0  0  0  # atno 6909 bound_to 6896
  145.7683  140.8826  143.0393 H   0  0  0  0  0  0  0  0  0  0  0  0  # atno 7974 bound_to 7965
  155.6930  140.3496  155.4901 H   0  0  0  0  0  0  0  0  0  0  0  0  # atno 8008 bound_to 7997
  155.9508  140.1119  157.1001 H   0  0  0  0  0  0  0  0  0  0  0  0  # atno 8009 bound_to 7997
  154.4121  140.1194  156.5036 H   0  0  0  0  0  0  0  0  0  0  0  0  # atno 8010 bound_to 7997
  139.6416  144.7124  151.2226 H   0  0  0  0  0  0  0  0  0  0  0  0  # atno 10167 bound_to 10162
  156.4051  130.7953  151.2167 H   0  0  0  0  0  0  0  0  0  0  0  0  # atno 10718 bound_to 10713
  153.1782  135.4502  154.9993 H   0  0  0  0  0  0  0  0  0  0  0  0  # atno 10763 bound_to 10752
  154.8012  135.3256  154.7547 H   0  0  0  0  0  0  0  0  0  0  0  0  # atno 10764 bound_to 10752
  153.8015  135.6962  153.4910 H   0  0  0  0  0  0  0  0  0  0  0  0  # atno 10765 bound_to 10752
  140.9859  134.0608  157.3711 H   0  0  0  0  0  0  0  0  0  0  0  0  # atno 11005 bound_to 11000
  144.6817  139.9820  143.7483 LP  0  0  0  0  0  0  0  0  0  0  0  0  # atno 17320 bound_to 7965
  146.0195  139.3238  143.0821 LP  0  0  0  0  0  0  0  0  0  0  0  0  # atno 17321 bound_to 7965
  140.7493  143.6303  150.8430 LP  0  0  0  0  0  0  0  0  0  0  0  0  # atno 17342 bound_to 10162
  139.9941  143.5815  152.2900 LP  0  0  0  0  0  0  0  0  0  0  0  0  # atno 17343 bound_to 10162
  157.7505  131.0275  150.4006 LP  0  0  0  0  0  0  0  0  0  0  0  0  # atno 17370 bound_to 10713
  156.4294  130.3969  149.6771 LP  0  0  0  0  0  0  0  0  0  0  0  0  # atno 17371 bound_to 10713
  139.8970  135.0148  156.7080 LP  0  0  0  0  0  0  0  0  0  0  0  0  # atno 17394 bound_to 11000
  140.7115  133.9219  155.8087 LP  0  0  0  0  0  0  0  0  0  0  0  0  # atno 17395 bound_to 11000

$$$$
