AV-unprocessed.smi:1|AV-procd|sdf|1|dock1
  -GOLD-   2262015 83D 1   1.00000     0.00000
 Structure written by MMmdl.
 57 62  0  0  0  0  0  0  0  0  1 V2000
  153.4508  139.1324  158.2435 O   0  0  0  0  0  0  0  0  0  0  0  0
  152.5417  139.8554  158.6519 C   0  0  0  0  0  0  0  0  0  0  0  0
  151.2833  139.9916  157.9392 N   0  0  0  0  0  0  0  0  0  0  0  0
  150.8732  139.3295  156.8319 C   0  0  0  0  0  0  0  0  0  0  0  0
  150.7686  139.9326  155.6186 N   0  0  0  0  0  0  0  0  0  0  0  0
  150.3622  139.2352  154.5541 C   0  0  0  0  0  0  0  0  0  0  0  0
  150.0197  137.9478  154.4830 N   0  0  0  0  0  0  0  0  0  0  0  0
  150.1224  137.3328  155.6964 C   0  0  0  0  0  0  0  0  0  0  0  0
  150.5393  137.9520  156.9079 C   0  0  0  0  0  0  0  0  0  0  0  0
  150.5229  137.0239  157.9404 N   0  0  0  0  0  0  0  0  0  0  0  0
  150.1127  135.9236  157.3695 C   0  0  0  0  0  0  0  0  0  0  0  0
  149.8442  136.0193  156.0220 N   0  0  0  0  0  0  0  0  0  0  0  0
  149.3558  134.9309  155.1166 C   0  0  2  0  0  0  0  0  0  0  0  0
  148.1310  134.4558  155.5894 O   0  0  0  0  0  0  0  0  0  0  0  0
  148.2047  133.0593  155.8601 C   0  0  1  0  0  0  0  0  0  0  0  0
  146.8674  132.3721  155.5548 C   0  0  0  0  0  0  0  0  0  0  0  0
  146.6858  132.2600  154.1515 O   0  0  0  0  0  0  0  0  0  0  0  0
  145.9655  133.1818  153.4847 C   0  0  0  0  0  0  0  0  0  0  0  0
  145.5944  134.2476  153.9804 O   0  0  0  0  0  0  0  0  0  0  0  0
  145.6589  132.7739  152.0833 C   0  0  0  0  0  0  0  0  0  0  0  0
  146.4081  131.7344  151.4842 C   0  0  0  0  0  0  0  0  0  0  0  0
  146.1415  131.3279  150.1623 C   0  0  0  0  0  0  0  0  0  0  0  0
  145.1208  131.9543  149.4240 C   0  0  0  0  0  0  0  0  0  0  0  0
  144.3678  132.9892  150.0086 C   0  0  0  0  0  0  0  0  0  0  0  0
  144.6341  133.3986  151.3299 C   0  0  0  0  0  0  0  0  0  0  0  0
  149.4052  132.5331  155.0665 C   0  0  2  0  0  0  0  0  0  0  0  0
  150.0658  131.4767  155.7430 O   0  0  0  0  0  0  0  0  0  0  0  0
  151.2833  132.1202  156.6915 S   0  0  0  0  0  0  0  0  0  0  0  0
  150.8421  132.0932  158.0943 O   0  0  0  0  0  0  0  0  0  0  0  0
  152.5616  131.5407  156.2520 O   0  0  0  0  0  0  0  0  0  0  0  0
  151.2099  133.6974  156.1508 O   0  0  0  0  0  0  0  0  0  0  0  0
  150.3357  133.7487  155.0350 C   0  0  2  0  0  0  0  0  0  0  0  0
  152.7060  140.7179  159.8694 C   0  0  0  0  0  0  0  0  0  0  0  0
  151.9545  141.9077  159.9997 C   0  0  0  0  0  0  0  0  0  0  0  0
  152.1145  142.7319  161.1304 C   0  0  0  0  0  0  0  0  0  0  0  0
  153.0322  142.3778  162.1371 C   0  0  0  0  0  0  0  0  0  0  0  0
  153.7935  141.2007  162.0101 C   0  0  0  0  0  0  0  0  0  0  0  0
  153.6345  140.3752  160.8798 C   0  0  0  0  0  0  0  0  0  0  0  0
  150.6264  140.6528  158.3269 H   0  0  0  0  0  0  0  0  0  0  0  0
  150.3032  139.7870  153.6277 H   0  0  0  0  0  0  0  0  0  0  0  0
  149.9886  135.0041  157.9227 H   0  0  0  0  0  0  0  0  0  0  0  0
  149.1990  135.4169  154.1529 H   0  0  0  0  0  0  0  0  0  0  0  0
  148.4096  132.9548  156.9254 H   0  0  0  0  0  0  0  0  0  0  0  0
  146.8564  131.3810  156.0109 H   0  0  0  0  0  0  0  0  0  0  0  0
  146.0430  132.9405  155.9873 H   0  0  0  0  0  0  0  0  0  0  0  0
  147.1970  131.2385  152.0313 H   0  0  0  0  0  0  0  0  0  0  0  0
  146.7215  130.5343  149.7147 H   0  0  0  0  0  0  0  0  0  0  0  0
  144.9158  131.6416  148.4106 H   0  0  0  0  0  0  0  0  0  0  0  0
  143.5838  133.4701  149.4424 H   0  0  0  0  0  0  0  0  0  0  0  0
  144.0366  134.1952  151.7484 H   0  0  0  0  0  0  0  0  0  0  0  0
  149.1302  132.2428  154.0521 H   0  0  0  0  0  0  0  0  0  0  0  0
  150.9235  133.8038  154.1184 H   0  0  0  0  0  0  0  0  0  0  0  0
  151.2468  142.1944  159.2350 H   0  0  0  0  0  0  0  0  0  0  0  0
  151.5330  143.6371  161.2244 H   0  0  0  0  0  0  0  0  0  0  0  0
  153.1556  143.0106  163.0036 H   0  0  0  0  0  0  0  0  0  0  0  0
  154.5030  140.9319  162.7786 H   0  0  0  0  0  0  0  0  0  0  0  0
  154.2361  139.4815  160.7981 H   0  0  0  0  0  0  0  0  0  0  0  0
  1  2  2  0  0  0  0
  2  3  1  0  0  0  0
  2 33  1  0  0  0  0
  3  4  1  0  0  0  0
  3 39  1  0  0  0  0
  4  9  1  0  0  0  0
  4  5  2  0  0  0  0
  5  6  1  0  0  0  0
  6  7  2  0  0  0  0
  6 40  1  0  0  0  0
  7  8  1  0  0  0  0
  8 12  1  0  0  0  0
  8  9  2  0  0  0  0
  9 10  1  0  0  0  0
 10 11  2  0  0  0  0
 11 12  1  0  0  0  0
 11 41  1  0  0  0  0
 12 13  1  0  0  0  0
 13 32  1  0  0  0  0
 13 14  1  0  0  0  0
 13 42  1  0  0  0  0
 14 15  1  0  0  0  0
 15 16  1  0  0  0  0
 15 26  1  0  0  0  0
 15 43  1  0  0  0  0
 16 17  1  0  0  0  0
 16 44  1  0  0  0  0
 16 45  1  0  0  0  0
 17 18  1  0  0  0  0
 18 19  2  0  0  0  0
 18 20  1  0  0  0  0
 20 25  1  0  0  0  0
 20 21  2  0  0  0  0
 21 22  1  0  0  0  0
 21 46  1  0  0  0  0
 22 23  2  0  0  0  0
 22 47  1  0  0  0  0
 23 24  1  0  0  0  0
 23 48  1  0  0  0  0
 24 25  2  0  0  0  0
 24 49  1  0  0  0  0
 25 50  1  0  0  0  0
 26 32  1  0  0  0  0
 26 27  1  0  0  0  0
 26 51  1  0  0  0  0
 27 28  1  0  0  0  0
 28 29  2  0  0  0  0
 28 30  2  0  0  0  0
 28 31  1  0  0  0  0
 31 32  1  0  0  0  0
 32 52  1  0  0  0  0
 33 38  1  0  0  0  0
 33 34  2  0  0  0  0
 34 35  1  0  0  0  0
 34 53  1  0  0  0  0
 35 36  2  0  0  0  0
 35 54  1  0  0  0  0
 36 37  1  0  0  0  0
 36 55  1  0  0  0  0
 37 38  2  0  0  0  0
 37 56  1  0  0  0  0
 38 57  1  0  0  0  0
M  END
> <s_m_source_file>
AV-unprocessed.smi

> <i_m_source_file_index>
1

> <i_lp_mmshare_version>
43012

> <i_f3d_flags>
0

> <s_epik_input>
W2NIXTFbY0hdW2NIXVtjSF1bY0hdYzFDKD1PKVtOSF1jKG5bY0hdbjIpYyhjMjMpbltjSF1uM1tDQEBIXShbQ0BIXShbQ0BIXTQ1KU9TKE81KSg9Tyk9TylPW0NASF00W0NIMl1PQyg9TyljNltjSF1bY0hdW2NIXVtjSF1bY0hdNg==

> <s_epik_cmdline>
J2VwaWtfcHl0aG9uJywgJy1waCcsICc3LjAnLCAnLXRuJywgJzgnLCAnLW1hJywgJzIwMCcsICctbWV0YWxfYmluZGluZycsICctaW1hZScsICc8aW5maWxlLm1hZT4nLCAnLW9tYWUnLCAnPG91dGZpbGUubWFlPic=

> <r_lp_tautomer_probability>
1

> <r_epik_Ionization_Penalty>
0.00195722

> <r_epik_Ionization_Penalty_Charging>
0

> <r_epik_Ionization_Penalty_Neutral>
0.00195722

> <r_epik_State_Penalty>
0.00633741

> <r_epik_Charging_Adjusted_Penalty>
0.00633741

> <i_epik_Tot_Q>
0

> <i_epik_Tot_abs_Q>
0

> <r_epik_Metal_State_Penalty>
0.341185

> <b_epik_Metal_Only>
0

> <s_epik_Chemistry_Notes>
This compound has an ester and may undergo hydrolysis at high or low pH. This compound contains an acetal/aminal-like group ( X-CH(R)-Y where X, Y are N, S, or O) that may be acid/base labile, releasing an aldehyde.

> <s_lp_Force_Field>
OPLS_2005

> <r_lp_Energy>
46.2159

> <b_lp_Chiralities_Consistent>
1

> <s_lp_Variant>
AV-unprocessed.smi:1-1

> <Gold.Version>
5.8.1

> <Gold.Id.Protein>
6NUR|6NUR_protein|mol2

> <Gold.PLP.Fitness>
60.3183

> <Gold.PLP.PLP>
-53.9223

> <Gold.PLP.part.hbond>
-2.5694

> <Gold.PLP.part.metal>
0.0000

> <Gold.PLP.part.buried>
-7.0663

> <Gold.PLP.part.nonpolar>
-44.3201

> <Gold.PLP.part.repulsive>
0.5347

> <Gold.PLP.ligand.clash>
0.0000

> <Gold.PLP.ligand.torsion>
1.5123

> <Gold.PLP.Chemscore.Hbond>
2.0000

> <Gold.PLP.Chemscore.CHOScore>
1.0000

> <Gold.PLP.Chemscore.Metal>
0.0000

> <Gold.Chemscore.Hbonds>
donor molecule, donor type, donor heavy atom, donor atom, acceptor molecule, acceptor atom, score
      P1  H  6896  6907       L1    29  1.00
      P1  H  7997  8010       L1     1  1.00
      L1  C     6    40       P1  7957  0.91

> <Gold.PLP.Chemscore.Internal.Correction>
0.4206

> <Gold.Rescore>
     Score         DG    S(hbond)    S(metal)    S(lipo)     H(rot)  DE(clash)    DE(int)     intcor
     17.72     -21.93       1.98        0.00     130.82       2.13       0.28       3.93       ----

> <Gold.Chemscore.Fitness>
17.7243

> <Gold.Chemscore.DG>
-21.9305

> <Gold.Chemscore.ZeroCoef>
-5.4800

> <Gold.Chemscore.Hbond>
1.9779

> <Gold.Chemscore.Metal>
0.0000

> <Gold.Chemscore.Lipo>
130.8173

> <Gold.Chemscore.Internal_Hbond>
0.0000

> <Gold.Chemscore.DEClash>
0.2783

> <Gold.Chemscore.DEInternal>
3.9279

> <Gold.Chemscore.Rot>
2.1333

> <Gold.Chemscore.Internal.Correction>
   9.000000E+99

> <Gold.Chemscore.Hbonds>
donor molecule, donor type, donor heavy atom, donor atom, acceptor molecule, acceptor atom, score
      P1  H  6896  6907       L1    29  0.99
      P1  H  7997  8010       L1     1  0.82

> <Gold.Chemscore.Hbond.Weighted>
-6.6063

> <Gold.Chemscore.Metal.Weighted>
-0.0000

> <Gold.Chemscore.Lipo.Weighted>
-15.3056

> <Gold.Chemscore.Internal_Hbond.Weighted>
0.0000

> <Gold.Chemscore.DEClash.Weighted>
0.2783

> <Gold.Chemscore.DEInternal.Weighted>
3.9279

> <Gold.Chemscore.Rot.Weighted>
5.4614

> <Gold.Chemscore.Internal.Correction.Weighted>
   9.000000E+99

> <Gold.Protein.RotatedTorsions>
[ 6907 6896 6895 6894 ] final -156.10 input  -60.11 | X-H torsion
[ 7974 7965 7964 7962 ] final   -2.24 input  175.53 | X-H torsion
[ 8008 7997 7996 7995 ] final   38.24 input   59.86 | X-H torsion
[ 10167 10162 10161 10158 ] final   21.80 input  -65.29 | X-H torsion
[ 10718 10713 10712 10709 ] final    3.66 input   66.30 | X-H torsion
[ 10763 10752 10751 10750 ] final   15.95 input  -60.55 | X-H torsion
[ 11005 11000 10999 10996 ] final -116.09 input  -57.11 | X-H torsion

> <Gold.Protein.ActiveResidues>
 VAL166  LYS551  ARG553  GLY616  TRP617  ASP618  TYR619  PRO620  LYS621  CYS622 
 ASP623  PHE694  ASN695  SER759  ASP760  ASP761  ALA762  ILE779  LEU786  VAL792 
 PHE793  MET794  SER795  GLU796  ALA797  LYS798  CYS799  TRP800  GLU811  SER814 

> <Gold.Protein.RotatedAtoms>
  151.2825  133.4203  159.2627 H   0  0  0  0  0  0  0  0  0  0  0  0  # atno 6907 bound_to 6896
  151.0348  134.9566  159.8141 H   0  0  0  0  0  0  0  0  0  0  0  0  # atno 6908 bound_to 6896
  152.5353  134.2784  159.9051 H   0  0  0  0  0  0  0  0  0  0  0  0  # atno 6909 bound_to 6896
  146.2407  140.1540  142.8333 H   0  0  0  0  0  0  0  0  0  0  0  0  # atno 7974 bound_to 7965
  155.2169  140.3328  155.4321 H   0  0  0  0  0  0  0  0  0  0  0  0  # atno 8008 bound_to 7997
  156.2348  140.1867  156.7195 H   0  0  0  0  0  0  0  0  0  0  0  0  # atno 8009 bound_to 7997
  154.6041  140.0618  156.9393 H   0  0  0  0  0  0  0  0  0  0  0  0  # atno 8010 bound_to 7997
  140.5399  143.9696  150.6513 H   0  0  0  0  0  0  0  0  0  0  0  0  # atno 10167 bound_to 10162
  156.8811  130.5654  149.5653 H   0  0  0  0  0  0  0  0  0  0  0  0  # atno 10718 bound_to 10713
  153.1476  135.6772  153.8930 H   0  0  0  0  0  0  0  0  0  0  0  0  # atno 10763 bound_to 10752
  153.8367  135.3110  155.3424 H   0  0  0  0  0  0  0  0  0  0  0  0  # atno 10764 bound_to 10752
  154.7837  135.4874  153.9986 H   0  0  0  0  0  0  0  0  0  0  0  0  # atno 10765 bound_to 10752
  141.0445  133.9785  157.2941 H   0  0  0  0  0  0  0  0  0  0  0  0  # atno 11005 bound_to 11000
  145.0144  140.8741  143.5205 LP  0  0  0  0  0  0  0  0  0  0  0  0  # atno 17320 bound_to 7965
  145.1579  139.2476  143.5407 LP  0  0  0  0  0  0  0  0  0  0  0  0  # atno 17321 bound_to 7965
  140.3094  143.3208  152.0894 LP  0  0  0  0  0  0  0  0  0  0  0  0  # atno 17342 bound_to 10162
  139.4985  144.6646  151.6386 LP  0  0  0  0  0  0  0  0  0  0  0  0  # atno 17343 bound_to 10162
  156.0677  130.5716  150.9321 LP  0  0  0  0  0  0  0  0  0  0  0  0  # atno 17370 bound_to 10713
  157.6140  131.0934  150.8744 LP  0  0  0  0  0  0  0  0  0  0  0  0  # atno 17371 bound_to 10713
  139.9301  135.0200  156.8370 LP  0  0  0  0  0  0  0  0  0  0  0  0  # atno 17394 bound_to 11000
  140.6173  134.0026  155.7603 LP  0  0  0  0  0  0  0  0  0  0  0  0  # atno 17395 bound_to 11000

$$$$
