AV-unprocessed.smi:109|AV-procd|sdf|1038|dock5
  -GOLD-   2262018 63D 1   1.00000     0.00000
 Structure written by MMmdl.
 58 61  0  0  0  0  0  0  0  0  1 V2000
  148.9245  137.2949  159.8862 O   0  0  0  0  0  0  0  0  0  0  0  0
  148.5593  137.3570  158.5247 C   0  0  0  0  0  0  0  0  0  0  0  0
  149.0430  136.0917  157.7948 C   0  0  0  0  0  0  0  0  0  0  0  0
  148.6314  136.0277  156.3035 C   0  0  1  0  0  0  0  0  0  0  0  0
  147.1880  136.2504  156.1899 N   0  0  0  0  0  0  0  0  0  0  0  0
  146.5577  136.2981  154.9946 C   0  0  0  0  0  0  0  0  0  0  0  0
  145.7550  137.3403  154.6552 N   0  0  0  0  0  0  0  0  0  0  0  0
  145.1505  137.3611  153.4634 C   0  0  0  0  0  0  0  0  0  0  0  0
  145.2118  136.4601  152.4802 N   0  0  0  0  0  0  0  0  0  0  0  0
  146.0167  135.4117  152.8185 C   0  0  0  0  0  0  0  0  0  0  0  0
  146.7190  135.2565  154.0451 C   0  0  0  0  0  0  0  0  0  0  0  0
  147.4406  134.0698  154.0254 N   0  0  0  0  0  0  0  0  0  0  0  0
  147.1784  133.5593  152.8514 C   0  0  0  0  0  0  0  0  0  0  0  0
  146.3199  134.2995  152.0659 N   0  0  0  0  0  0  0  0  0  0  0  0
  145.8162  134.0240  150.6838 C   0  0  1  0  0  0  0  0  0  0  0  0
  146.3717  132.8204  150.2300 O   0  0  0  0  0  0  0  0  0  0  0  0
  145.3620  131.8610  149.9111 C   0  0  1  0  0  0  0  0  0  0  0  0
  145.2004  130.8801  151.0931 C   0  0  0  0  0  0  0  0  0  0  0  0
  146.4259  130.2254  151.3417 O   0  0  0  0  0  0  0  0  0  0  0  0
  144.1439  132.7483  149.6206 C   0  0  1  0  0  0  0  0  0  0  0  0
  142.8894  132.0927  149.6578 O   0  0  0  0  0  0  0  0  0  0  0  0
  144.2815  133.8861  150.6190 C   0  0  1  0  0  0  0  0  0  0  0  0
  143.6747  133.5917  151.8681 O   0  0  0  0  0  0  0  0  0  0  0  0
  149.3843  137.0456  155.4000 C   0  0  0  0  0  0  0  0  0  0  0  0
  150.9119  136.7811  155.4209 C   0  0  0  0  0  0  0  0  0  0  0  0
  151.6938  137.7684  154.5409 C   0  0  0  0  0  0  0  0  0  0  0  0
  151.4169  139.2187  154.9541 C   0  0  0  0  0  0  0  0  0  0  0  0
  149.9122  139.5107  154.9169 C   0  0  0  0  0  0  0  0  0  0  0  0
  149.1234  138.5218  155.7913 C   0  0  0  0  0  0  0  0  0  0  0  0
  146.1987  134.8487  150.0808 H   0  0  0  0  0  0  0  0  0  0  0  0
  145.6372  131.3085  149.0114 H   0  0  0  0  0  0  0  0  0  0  0  0
  144.2634  133.1629  148.6183 H   0  0  0  0  0  0  0  0  0  0  0  0
  143.8473  134.8111  150.2383 H   0  0  0  0  0  0  0  0  0  0  0  0
  149.5524  136.5976  159.9975 H   0  0  0  0  0  0  0  0  0  0  0  0
  147.4754  137.4518  158.4522 H   0  0  0  0  0  0  0  0  0  0  0  0
  148.9968  138.2567  158.0919 H   0  0  0  0  0  0  0  0  0  0  0  0
  150.1272  136.0075  157.8816 H   0  0  0  0  0  0  0  0  0  0  0  0
  148.6237  135.2419  158.3308 H   0  0  0  0  0  0  0  0  0  0  0  0
  148.9007  135.0374  155.9379 H   0  0  0  0  0  0  0  0  0  0  0  0
  146.6844  136.2633  157.0653 H   0  0  0  0  0  0  0  0  0  0  0  0
  144.5293  138.2232  153.2705 H   0  0  0  0  0  0  0  0  0  0  0  0
  147.6120  132.6241  152.5289 H   0  0  0  0  0  0  0  0  0  0  0  0
  144.8512  131.3752  151.9979 H   0  0  0  0  0  0  0  0  0  0  0  0
  144.4731  130.1049  150.8541 H   0  0  0  0  0  0  0  0  0  0  0  0
  147.1090  130.6781  150.8710 H   0  0  0  0  0  0  0  0  0  0  0  0
  142.2090  132.7422  149.5660 H   0  0  0  0  0  0  0  0  0  0  0  0
  144.3536  133.5483  152.5243 H   0  0  0  0  0  0  0  0  0  0  0  0
  149.0337  136.9103  154.3754 H   0  0  0  0  0  0  0  0  0  0  0  0
  151.2789  136.8418  156.4465 H   0  0  0  0  0  0  0  0  0  0  0  0
  151.1336  135.7700  155.0793 H   0  0  0  0  0  0  0  0  0  0  0  0
  152.7621  137.5610  154.6098 H   0  0  0  0  0  0  0  0  0  0  0  0
  151.4171  137.6249  153.4958 H   0  0  0  0  0  0  0  0  0  0  0  0
  151.8022  139.3960  155.9590 H   0  0  0  0  0  0  0  0  0  0  0  0
  151.9467  139.9038  154.2917 H   0  0  0  0  0  0  0  0  0  0  0  0
  149.7248  140.5318  155.2509 H   0  0  0  0  0  0  0  0  0  0  0  0
  149.5547  139.4523  153.8880 H   0  0  0  0  0  0  0  0  0  0  0  0
  148.0681  138.7693  155.6893 H   0  0  0  0  0  0  0  0  0  0  0  0
  149.3804  138.6761  156.8403 H   0  0  0  0  0  0  0  0  0  0  0  0
  1  2  1  0  0  0  0
  1 34  1  0  0  0  0
  2  3  1  0  0  0  0
  2 35  1  0  0  0  0
  2 36  1  0  0  0  0
  3  4  1  0  0  0  0
  3 37  1  0  0  0  0
  3 38  1  0  0  0  0
  4  5  1  0  0  0  0
  4 24  1  0  0  0  0
  4 39  1  0  0  0  0
  5  6  1  0  0  0  0
  5 40  1  0  0  0  0
  6 11  1  0  0  0  0
  6  7  2  0  0  0  0
  7  8  1  0  0  0  0
  8  9  2  0  0  0  0
  8 41  1  0  0  0  0
  9 10  1  0  0  0  0
 10 14  1  0  0  0  0
 10 11  2  0  0  0  0
 11 12  1  0  0  0  0
 12 13  2  0  0  0  0
 13 14  1  0  0  0  0
 13 42  1  0  0  0  0
 14 15  1  0  0  0  0
 15 30  1  0  0  0  0
 15 22  1  0  0  0  0
 15 16  1  0  0  0  0
 16 17  1  0  0  0  0
 17 31  1  0  0  0  0
 17 18  1  0  0  0  0
 17 20  1  0  0  0  0
 18 19  1  0  0  0  0
 18 43  1  0  0  0  0
 18 44  1  0  0  0  0
 19 45  1  0  0  0  0
 20 32  1  0  0  0  0
 20 21  1  0  0  0  0
 20 22  1  0  0  0  0
 21 46  1  0  0  0  0
 22 33  1  0  0  0  0
 22 23  1  0  0  0  0
 23 47  1  0  0  0  0
 24 29  1  0  0  0  0
 24 25  1  0  0  0  0
 24 48  1  0  0  0  0
 25 26  1  0  0  0  0
 25 49  1  0  0  0  0
 25 50  1  0  0  0  0
 26 27  1  0  0  0  0
 26 51  1  0  0  0  0
 26 52  1  0  0  0  0
 27 28  1  0  0  0  0
 27 53  1  0  0  0  0
 27 54  1  0  0  0  0
 28 29  1  0  0  0  0
 28 55  1  0  0  0  0
 28 56  1  0  0  0  0
 29 57  1  0  0  0  0
 29 58  1  0  0  0  0
M  END
> <s_m_source_file>
AV-unprocessed.smi

> <i_m_source_file_index>
109

> <i_lp_mmshare_version>
43012

> <i_f3d_flags>
0

> <s_epik_input>
W0NIMl0xW0NIMl1bQ0gyXVtDSDJdW0NIMl1bQ0hdMVtDQEhdKFtDSDJdW0NIMl1bT0hdKVtOSF1jKG5bY0hdbjIpYyhjMjMpbltjSF1uM1tDQEBIXTRPW0NASF0oW0NIMl1bT0hdKVtDQEBIXShbT0hdKVtDQEhdNFtPSF0=

> <s_epik_cmdline>
J2VwaWtfcHl0aG9uJywgJy1waCcsICc3LjAnLCAnLXRuJywgJzgnLCAnLW1hJywgJzIwMCcsICctbWV0YWxfYmluZGluZycsICctaW1hZScsICc8aW5maWxlLm1hZT4nLCAnLW9tYWUnLCAnPG91dGZpbGUubWFlPic=

> <r_lp_tautomer_probability>
1

> <r_epik_Ionization_Penalty>
0.000793976

> <r_epik_Ionization_Penalty_Charging>
0

> <r_epik_Ionization_Penalty_Neutral>
0.000793976

> <r_epik_State_Penalty>
-0

> <r_epik_Charging_Adjusted_Penalty>
0

> <i_epik_Tot_Q>
0

> <i_epik_Tot_abs_Q>
0

> <r_epik_Metal_State_Penalty>
-0

> <b_epik_Metal_Only>
0

> <s_epik_Chemistry_Notes>
This compound contains an acetal/aminal-like group ( X-CH(R)-Y where X, Y are N, S, or O) that may be acid/base labile, releasing an aldehyde.

> <s_lp_Force_Field>
OPLS_2005

> <r_lp_Energy>
62.3675

> <b_lp_Chiralities_Consistent>
1

> <s_lp_Variant>
AV-unprocessed.smi:109-8

> <Gold.Version>
5.8.1

> <Gold.Id.Protein>
6NUR|6NUR_protein|mol2

> <Gold.PLP.Fitness>
49.7907

> <Gold.PLP.PLP>
-39.2920

> <Gold.PLP.part.hbond>
-5.1547

> <Gold.PLP.part.metal>
0.0000

> <Gold.PLP.part.buried>
-6.9727

> <Gold.PLP.part.nonpolar>
-28.1544

> <Gold.PLP.part.repulsive>
0.5305

> <Gold.PLP.ligand.clash>
0.0000

> <Gold.PLP.ligand.torsion>
0.5693

> <Gold.PLP.Chemscore.Hbond>
2.8389

> <Gold.PLP.Chemscore.CHOScore>
1.0000

> <Gold.PLP.Chemscore.Metal>
0.0000

> <Gold.Chemscore.Hbonds>
donor molecule, donor type, donor heavy atom, donor atom, acceptor molecule, acceptor atom, score
      L1  H    19    45       P1 10747  1.00
      L1  H    21    46       P1 10186  0.94
      P1  H  6931  6943       L1     1  0.23
      P1  H 10785 10796       L1    21  0.63
      L1  C     8    41       P1 10175  1.00

> <Gold.PLP.Chemscore.Internal.Correction>
0.1206

> <Gold.Rescore>
     Score         DG    S(hbond)    S(metal)    S(lipo)     H(rot)  DE(clash)    DE(int)     intcor
      8.25      -8.84       2.53        0.00      76.08       5.47       0.03       0.55       ----

> <Gold.Chemscore.Fitness>
8.2508

> <Gold.Chemscore.DG>
-8.8357

> <Gold.Chemscore.ZeroCoef>
-5.4800

> <Gold.Chemscore.Hbond>
2.5292

> <Gold.Chemscore.Metal>
0.0000

> <Gold.Chemscore.Lipo>
76.0843

> <Gold.Chemscore.Internal_Hbond>
0.0000

> <Gold.Chemscore.DEClash>
0.0344

> <Gold.Chemscore.DEInternal>
0.5505

> <Gold.Chemscore.Rot>
5.4662

> <Gold.Chemscore.Internal.Correction>
   9.000000E+99

> <Gold.Chemscore.Hbonds>
donor molecule, donor type, donor heavy atom, donor atom, acceptor molecule, acceptor atom, score
      L1  H    19    45       P1 10747  0.94
      L1  H    21    46       P1 10186  0.90
      P1  H  6931  6943       L1     1  0.06
      P1  H 10785 10796       L1    21  0.35

> <Gold.Chemscore.Hbond.Weighted>
-8.4474

> <Gold.Chemscore.Metal.Weighted>
-0.0000

> <Gold.Chemscore.Lipo.Weighted>
-8.9019

> <Gold.Chemscore.Internal_Hbond.Weighted>
0.0000

> <Gold.Chemscore.DEClash.Weighted>
0.0344

> <Gold.Chemscore.DEInternal.Weighted>
0.5505

> <Gold.Chemscore.Rot.Weighted>
13.9935

> <Gold.Chemscore.Internal.Correction.Weighted>
   9.000000E+99

> <Gold.Protein.RotatedTorsions>
[ 6907 6896 6895 6894 ] final  162.87 input  -60.11 | X-H torsion
[ 7974 7965 7964 7962 ] final -166.85 input  175.53 | X-H torsion
[ 8008 7997 7996 7995 ] final -142.46 input   59.86 | X-H torsion
[ 10167 10162 10161 10158 ] final  -78.44 input  -65.29 | X-H torsion
[ 10718 10713 10712 10709 ] final  -29.42 input   66.30 | X-H torsion
[ 10763 10752 10751 10750 ] final   80.83 input  -60.55 | X-H torsion
[ 11005 11000 10999 10996 ] final  113.03 input  -57.11 | X-H torsion

> <Gold.Protein.ActiveResidues>
 VAL166  LYS551  ARG553  GLY616  TRP617  ASP618  TYR619  PRO620  LYS621  CYS622 
 ASP623  PHE694  ASN695  SER759  ASP760  ASP761  ALA762  ILE779  LEU786  VAL792 
 PHE793  MET794  SER795  GLU796  ALA797  LYS798  CYS799  TRP800  GLU811  SER814 

> <Gold.Protein.RotatedAtoms>
  151.9338  133.3618  159.3940 H   0  0  0  0  0  0  0  0  0  0  0  0  # atno 6907 bound_to 6896
  150.7012  134.4510  159.5345 H   0  0  0  0  0  0  0  0  0  0  0  0  # atno 6908 bound_to 6896
  152.2155  134.8462  160.0543 H   0  0  0  0  0  0  0  0  0  0  0  0  # atno 6909 bound_to 6896
  144.7236  140.2606  143.6265 H   0  0  0  0  0  0  0  0  0  0  0  0  # atno 7974 bound_to 7965
  155.4946  140.0570  157.2948 H   0  0  0  0  0  0  0  0  0  0  0  0  # atno 8008 bound_to 7997
  154.4610  140.1996  156.0195 H   0  0  0  0  0  0  0  0  0  0  0  0  # atno 8009 bound_to 7997
  156.0890  140.3236  155.7795 H   0  0  0  0  0  0  0  0  0  0  0  0  # atno 8010 bound_to 7997
  140.4682  143.2434  151.8246 H   0  0  0  0  0  0  0  0  0  0  0  0  # atno 10167 bound_to 10162
  156.4126  130.4411  149.7241 H   0  0  0  0  0  0  0  0  0  0  0  0  # atno 10718 bound_to 10713
  153.1066  135.4788  154.8962 H   0  0  0  0  0  0  0  0  0  0  0  0  # atno 10763 bound_to 10752
  154.7437  135.3088  154.8686 H   0  0  0  0  0  0  0  0  0  0  0  0  # atno 10764 bound_to 10752
  153.9286  135.6847  153.4799 H   0  0  0  0  0  0  0  0  0  0  0  0  # atno 10765 bound_to 10752
  139.8942  134.9542  156.6677 H   0  0  0  0  0  0  0  0  0  0  0  0  # atno 11005 bound_to 11000
  145.8140  139.2015  143.1976 LP  0  0  0  0  0  0  0  0  0  0  0  0  # atno 17320 bound_to 7965
  146.0572  140.8009  142.9753 LP  0  0  0  0  0  0  0  0  0  0  0  0  # atno 17321 bound_to 7965
  139.4815  144.4925  151.9167 LP  0  0  0  0  0  0  0  0  0  0  0  0  # atno 17342 bound_to 10162
  140.4010  144.2493  150.5893 LP  0  0  0  0  0  0  0  0  0  0  0  0  # atno 17343 bound_to 10162
  156.4213  130.7770  151.2787 LP  0  0  0  0  0  0  0  0  0  0  0  0  # atno 17370 bound_to 10713
  157.7507  131.0182  150.3615 LP  0  0  0  0  0  0  0  0  0  0  0  0  # atno 17371 bound_to 10713
  140.7398  133.8988  155.8269 LP  0  0  0  0  0  0  0  0  0  0  0  0  # atno 17394 bound_to 11000
  141.0087  134.1050  157.4244 LP  0  0  0  0  0  0  0  0  0  0  0  0  # atno 17395 bound_to 11000

$$$$
