AV-unprocessed.smi:1060|AV-procd|sdf|4658|dock3
  -GOLD-   22720 3163D 1   1.00000     0.00000
 Structure written by MMmdl.
 36 37  0  0  0  0  0  0  0  0  2 V2000
  154.4381  141.8927  162.8653 O   0  0  0  0  0  0  0  0  0  0  0  0
  154.8380  140.7804  162.5224 C   0  0  0  0  0  0  0  0  0  0  0  0
  155.7234  139.9679  163.4692 C   0  0  0  0  0  0  0  0  0  0  0  0
  156.7260  140.8071  164.0220 O   0  0  0  0  0  0  0  0  0  0  0  0
  156.5516  141.0319  165.4102 C   0  0  0  0  0  0  0  0  0  0  0  0
  156.4462  142.5419  165.6559 C   0  0  2  0  0  0  0  0  0  0  0  0
  155.7302  142.9083  166.9526 C   0  0  0  0  0  0  0  0  0  0  0  0
  155.2690  144.3319  166.6938 C   0  0  0  0  0  0  0  0  0  0  0  0
  155.2339  144.4353  165.1654 C   0  0  0  0  0  0  0  0  0  0  0  0
  155.6135  143.1522  164.6825 O   0  0  0  0  0  0  0  0  0  0  0  0
  154.5669  140.1771  161.3481 N   0  0  0  0  0  0  0  0  0  0  0  0
  153.8077  140.6215  160.2503 C   0  0  0  0  0  0  0  0  0  0  0  0
  153.2952  141.8753  160.1016 C   0  0  0  0  0  0  0  0  0  0  0  0
  152.5189  142.2682  158.9322 C   0  0  0  0  0  0  0  0  0  0  0  0
  151.8585  143.6266  158.7752 C   0  0  0  0  0  0  0  0  0  0  0  0
  150.5355  143.4838  158.7126 F   0  0  0  0  0  0  0  0  0  0  0  0
  152.1420  144.4187  159.8095 F   0  0  0  0  0  0  0  0  0  0  0  0
  152.2651  144.2314  157.6590 F   0  0  0  0  0  0  0  0  0  0  0  0
  152.3624  141.2314  158.0335 C   0  0  0  0  0  0  0  0  0  0  0  0
  152.8504  139.9734  158.0936 N   0  5  0  0  0  0  0  0  0  0  0  0
  153.5778  139.6176  159.1897 C   0  0  0  0  0  0  0  0  0  0  0  0
  154.0446  138.4843  159.3110 O   0  0  0  0  0  0  0  0  0  0  0  0
  155.1116  139.5387  164.2646 H   0  0  0  0  0  0  0  0  0  0  0  0
  156.1785  139.1469  162.9130 H   0  0  0  0  0  0  0  0  0  0  0  0
  155.6639  140.5180  165.7823 H   0  0  0  0  0  0  0  0  0  0  0  0
  157.4137  140.6319  165.9460 H   0  0  0  0  0  0  0  0  0  0  0  0
  157.4345  143.0055  165.6368 H   0  0  0  0  0  0  0  0  0  0  0  0
  154.8632  142.2625  167.0993 H   0  0  0  0  0  0  0  0  0  0  0  0
  156.3707  142.8209  167.8307 H   0  0  0  0  0  0  0  0  0  0  0  0
  154.2963  144.5289  167.1456 H   0  0  0  0  0  0  0  0  0  0  0  0
  155.9815  145.0491  167.1027 H   0  0  0  0  0  0  0  0  0  0  0  0
  154.2465  144.7049  164.7907 H   0  0  0  0  0  0  0  0  0  0  0  0
  155.9464  145.1824  164.8142 H   0  0  0  0  0  0  0  0  0  0  0  0
  154.9613  139.2557  161.2251 H   0  0  0  0  0  0  0  0  0  0  0  0
  153.4503  142.6355  160.8472 H   0  0  0  0  0  0  0  0  0  0  0  0
  151.7489  141.4443  157.1320 H   0  0  0  0  0  0  0  0  0  0  0  0
  1  2  2  0  0  0  0
  2  3  1  0  0  0  0
  2 11  1  0  0  0  0
  3  4  1  0  0  0  0
  3 23  1  0  0  0  0
  3 24  1  0  0  0  0
  4  5  1  0  0  0  0
  5  6  1  0  0  0  0
  5 25  1  0  0  0  0
  5 26  1  0  0  0  0
  6 10  1  0  0  0  0
  6  7  1  0  0  0  0
  6 27  1  0  0  0  0
  7  8  1  0  0  0  0
  7 28  1  0  0  0  0
  7 29  1  0  0  0  0
  8  9  1  0  0  0  0
  8 30  1  0  0  0  0
  8 31  1  0  0  0  0
  9 10  1  0  0  0  0
  9 32  1  0  0  0  0
  9 33  1  0  0  0  0
 11 12  1  0  0  0  0
 11 34  1  0  0  0  0
 12 21  1  0  0  0  0
 12 13  2  0  0  0  0
 13 14  1  0  0  0  0
 13 35  1  0  0  0  0
 14 15  1  0  0  0  0
 14 19  2  0  0  0  0
 15 16  1  0  0  0  0
 15 17  1  0  0  0  0
 15 18  1  0  0  0  0
 19 20  1  0  0  0  0
 19 36  1  0  0  0  0
 20 21  1  0  0  0  0
 21 22  2  0  0  0  0
M  CHG  1  20  -1
M  END
> <s_m_source_file>
AV-unprocessed.smi

> <i_m_source_file_index>
1060

> <i_lp_mmshare_version>
43012

> <i_f3d_flags>
0

> <s_epik_input>
Tz1jMVtuSF1bY0hdYyhDKEYpKEYpRilbY0hdYzFbTkhdQyg9TylbQ0gyXU9bQ0gyXVtDQEBIXTJbQ0gyXVtDSDJdW0NIMl1PMg==

> <s_epik_cmdline>
J2VwaWtfcHl0aG9uJywgJy1waCcsICc3LjAnLCAnLXRuJywgJzgnLCAnLW1hJywgJzIwMCcsICctbWV0YWxfYmluZGluZycsICctaW1hZScsICc8aW5maWxlLm1hZT4nLCAnLW9tYWUnLCAnPG91dGZpbGUubWFlPic=

> <r_epik_Ionization_Penalty>
2.50578

> <r_epik_Ionization_Penalty_Charging>
0.0523173

> <r_epik_Ionization_Penalty_Neutral>
2.45346

> <r_epik_State_Penalty>
2.61512

> <r_epik_Charging_Adjusted_Penalty>
2.66744

> <i_epik_Tot_Q>
-1

> <i_epik_Tot_abs_Q>
1

> <r_epik_Metal_State_Penalty>
0.513209

> <b_epik_Metal_Only>
0

> <s_lp_Force_Field>
OPLS_2005

> <r_lp_Energy>
34.3401

> <b_lp_Chiralities_Consistent>
1

> <s_lp_Variant>
AV-unprocessed.smi:1060-3

> <Gold.Version>
5.8.1

> <Gold.Id.Protein>
6NUR|6NUR_protein|mol2

> <Gold.PLP.Fitness>
48.8031

> <Gold.PLP.PLP>
-45.5273

> <Gold.PLP.part.hbond>
-4.0000

> <Gold.PLP.part.metal>
0.0000

> <Gold.PLP.part.buried>
-4.1480

> <Gold.PLP.part.nonpolar>
-35.6286

> <Gold.PLP.part.repulsive>
0.0068

> <Gold.PLP.ligand.clash>
0.0000

> <Gold.PLP.ligand.torsion>
1.1461

> <Gold.PLP.Chemscore.Hbond>
1.7936

> <Gold.PLP.Chemscore.CHOScore>
0.0000

> <Gold.PLP.Chemscore.Metal>
0.0000

> <Gold.Chemscore.Hbonds>
donor molecule, donor type, donor heavy atom, donor atom, acceptor molecule, acceptor atom, score
      P1  H  7997  8009       L1    20  1.52

> <Gold.PLP.Chemscore.Internal.Correction>
0.1871

> <Gold.Rescore>
     Score         DG    S(hbond)    S(metal)    S(lipo)     H(rot)  DE(clash)    DE(int)     intcor
      7.51     -11.31       0.00        0.00      91.71       1.92       0.06       3.74       ----

> <Gold.Chemscore.Fitness>
7.5067

> <Gold.Chemscore.DG>
-11.3075

> <Gold.Chemscore.ZeroCoef>
-5.4800

> <Gold.Chemscore.Hbond>
0.0029

> <Gold.Chemscore.Metal>
0.0000

> <Gold.Chemscore.Lipo>
91.7140

> <Gold.Chemscore.Internal_Hbond>
0.0000

> <Gold.Chemscore.DEClash>
0.0619

> <Gold.Chemscore.DEInternal>
3.7389

> <Gold.Chemscore.Rot>
1.9190

> <Gold.Chemscore.Internal.Correction>
   9.000000E+99

> <Gold.Chemscore.Hbonds>
donor molecule, donor type, donor heavy atom, donor atom, acceptor molecule, acceptor atom, score
      P1  H  7997  8009       L1    20  0.04

> <Gold.Chemscore.Hbond.Weighted>
-0.0096

> <Gold.Chemscore.Metal.Weighted>
-0.0000

> <Gold.Chemscore.Lipo.Weighted>
-10.7305

> <Gold.Chemscore.Internal_Hbond.Weighted>
0.0000

> <Gold.Chemscore.DEClash.Weighted>
0.0619

> <Gold.Chemscore.DEInternal.Weighted>
3.7389

> <Gold.Chemscore.Rot.Weighted>
4.9126

> <Gold.Chemscore.Internal.Correction.Weighted>
   9.000000E+99

> <Gold.Protein.RotatedTorsions>
[ 6907 6896 6895 6894 ] final   96.32 input  -60.11 | X-H torsion
[ 7974 7965 7964 7962 ] final  141.19 input  175.53 | X-H torsion
[ 8008 7997 7996 7995 ] final  176.70 input   59.86 | X-H torsion
[ 10167 10162 10161 10158 ] final -106.73 input  -65.29 | X-H torsion
[ 10718 10713 10712 10709 ] final   50.80 input   66.30 | X-H torsion
[ 10763 10752 10751 10750 ] final   27.38 input  -60.55 | X-H torsion
[ 11005 11000 10999 10996 ] final  -37.74 input  -57.11 | X-H torsion

> <Gold.Protein.ActiveResidues>
 VAL166  LYS551  ARG553  GLY616  TRP617  ASP618  TYR619  PRO620  LYS621  CYS622 
 ASP623  PHE694  ASN695  SER759  ASP760  ASP761  ALA762  ILE779  LEU786  VAL792 
 PHE793  MET794  SER795  GLU796  ALA797  LYS798  CYS799  TRP800  GLU811  SER814 

> <Gold.Protein.RotatedAtoms>
  152.5436  134.0905  159.8274 H   0  0  0  0  0  0  0  0  0  0  0  0  # atno 6907 bound_to 6896
  151.0995  133.5247  159.2618 H   0  0  0  0  0  0  0  0  0  0  0  0  # atno 6908 bound_to 6896
  151.2007  135.0450  159.8925 H   0  0  0  0  0  0  0  0  0  0  0  0  # atno 6909 bound_to 6896
  144.9118  139.5283  143.5705 H   0  0  0  0  0  0  0  0  0  0  0  0  # atno 7974 bound_to 7965
  156.0736  140.1377  156.9798 H   0  0  0  0  0  0  0  0  0  0  0  0  # atno 8008 bound_to 7997
  154.4545  140.0966  156.6768 H   0  0  0  0  0  0  0  0  0  0  0  0  # atno 8009 bound_to 7997
  155.5189  140.3455  155.4405 H   0  0  0  0  0  0  0  0  0  0  0  0  # atno 8010 bound_to 7997
  140.1846  143.3940  152.1254 H   0  0  0  0  0  0  0  0  0  0  0  0  # atno 10167 bound_to 10162
  157.4920  130.8382  149.8214 H   0  0  0  0  0  0  0  0  0  0  0  0  # atno 10718 bound_to 10713
  153.0560  135.6538  154.0577 H   0  0  0  0  0  0  0  0  0  0  0  0  # atno 10763 bound_to 10752
  154.0255  135.2916  155.3377 H   0  0  0  0  0  0  0  0  0  0  0  0  # atno 10764 bound_to 10752
  154.6875  135.5296  153.8413 H   0  0  0  0  0  0  0  0  0  0  0  0  # atno 10765 bound_to 10752
  140.9975  133.6972  156.1961 H   0  0  0  0  0  0  0  0  0  0  0  0  # atno 11005 bound_to 11000
  146.3162  139.7930  142.8981 LP  0  0  0  0  0  0  0  0  0  0  0  0  # atno 17320 bound_to 7965
  145.3441  141.0294  143.3375 LP  0  0  0  0  0  0  0  0  0  0  0  0  # atno 17321 bound_to 7965
  139.5281  144.7127  151.5153 LP  0  0  0  0  0  0  0  0  0  0  0  0  # atno 17342 bound_to 10162
  140.6497  143.8722  150.6773 LP  0  0  0  0  0  0  0  0  0  0  0  0  # atno 17343 bound_to 10162
  156.0179  130.3806  150.2054 LP  0  0  0  0  0  0  0  0  0  0  0  0  # atno 17370 bound_to 10713
  157.0242  130.9988  151.3331 LP  0  0  0  0  0  0  0  0  0  0  0  0  # atno 17371 bound_to 10713
  140.6943  134.4633  157.5588 LP  0  0  0  0  0  0  0  0  0  0  0  0  # atno 17394 bound_to 11000
  139.9022  134.8530  156.1850 LP  0  0  0  0  0  0  0  0  0  0  0  0  # atno 17395 bound_to 11000

$$$$
