AV-unprocessed.smi:1286|AV-procd|sdf|5378|dock1
  -GOLD-   22720 4523D 1   1.00000     0.00000
 Structure written by MMmdl.
 36 37  0  0  0  0  0  0  0  0  1 V2000
  146.5984  141.7164  154.8018 C   0  0  0  0  0  0  0  0  0  0  0  0
  147.8813  141.0449  155.3255 C   0  0  1  0  0  0  0  0  0  0  0  0
  148.8298  140.5797  154.2028 C   0  0  0  0  0  0  0  0  0  0  0  0
  149.8135  139.6148  154.6611 N   0  0  0  0  0  0  0  0  0  0  0  0
  149.7659  138.2396  154.5752 C   0  0  0  0  0  0  0  0  0  0  0  0
  150.9132  137.7577  155.1371 C   0  0  0  0  0  0  0  0  0  0  0  0
  151.6069  138.9303  155.5477 C   0  0  0  0  0  0  0  0  0  0  0  0
  150.9452  140.0403  155.2635 N   0  0  0  0  0  0  0  0  0  0  0  0
  148.6010  141.9596  156.2071 N   0  0  0  0  0  0  0  0  0  0  0  0
  149.3841  141.5987  157.2355 C   0  0  0  0  0  0  0  0  0  0  0  0
  149.5789  140.4272  157.5598 O   0  0  0  0  0  0  0  0  0  0  0  0
  150.0430  142.7375  158.0217 C   0  0  0  0  0  0  0  0  0  0  0  0
  151.5851  142.6592  158.0586 C   0  0  1  0  0  0  0  0  0  0  0  0
  152.2454  143.9117  158.5834 C   0  0  0  0  0  0  0  0  0  0  0  0
  153.0806  143.6698  159.5909 C   0  0  0  0  0  0  0  0  0  0  0  0
  153.1464  142.2108  159.9469 C   0  0  0  0  0  0  0  0  0  0  0  0
  152.1143  141.5510  159.0049 C   0  0  0  0  0  0  0  0  0  0  0  0
  146.0048  141.0289  154.1988 H   0  0  0  0  0  0  0  0  0  0  0  0
  146.8307  142.5850  154.1848 H   0  0  0  0  0  0  0  0  0  0  0  0
  145.9641  142.0513  155.6231 H   0  0  0  0  0  0  0  0  0  0  0  0
  147.5912  140.1618  155.8979 H   0  0  0  0  0  0  0  0  0  0  0  0
  148.2594  140.1409  153.3822 H   0  0  0  0  0  0  0  0  0  0  0  0
  149.3658  141.4337  153.7865 H   0  0  0  0  0  0  0  0  0  0  0  0
  148.9302  137.7255  154.1232 H   0  0  0  0  0  0  0  0  0  0  0  0
  151.2115  136.7251  155.2394 H   0  0  0  0  0  0  0  0  0  0  0  0
  152.5645  139.0075  156.0409 H   0  0  0  0  0  0  0  0  0  0  0  0
  148.4974  142.9462  156.0186 H   0  0  0  0  0  0  0  0  0  0  0  0
  149.7351  143.6961  157.6002 H   0  0  0  0  0  0  0  0  0  0  0  0
  149.6525  142.7105  159.0396 H   0  0  0  0  0  0  0  0  0  0  0  0
  151.9687  142.4845  157.0521 H   0  0  0  0  0  0  0  0  0  0  0  0
  152.0573  144.8864  158.1574 H   0  0  0  0  0  0  0  0  0  0  0  0
  153.6677  144.4155  160.1061 H   0  0  0  0  0  0  0  0  0  0  0  0
  154.1533  141.8306  159.7729 H   0  0  0  0  0  0  0  0  0  0  0  0
  152.8925  142.0605  160.9966 H   0  0  0  0  0  0  0  0  0  0  0  0
  151.3033  141.1198  159.5936 H   0  0  0  0  0  0  0  0  0  0  0  0
  152.5636  140.7340  158.4392 H   0  0  0  0  0  0  0  0  0  0  0  0
  1  2  1  0  0  0  0
  1 18  1  0  0  0  0
  1 19  1  0  0  0  0
  1 20  1  0  0  0  0
  2  3  1  0  0  0  0
  2  9  1  0  0  0  0
  2 21  1  0  0  0  0
  3  4  1  0  0  0  0
  3 22  1  0  0  0  0
  3 23  1  0  0  0  0
  4  8  1  0  0  0  0
  4  5  1  0  0  0  0
  5  6  2  0  0  0  0
  5 24  1  0  0  0  0
  6  7  1  0  0  0  0
  6 25  1  0  0  0  0
  7  8  2  0  0  0  0
  7 26  1  0  0  0  0
  9 10  1  0  0  0  0
  9 27  1  0  0  0  0
 10 11  2  0  0  0  0
 10 12  1  0  0  0  0
 12 13  1  0  0  0  0
 12 28  1  0  0  0  0
 12 29  1  0  0  0  0
 13 17  1  0  0  0  0
 13 14  1  0  0  0  0
 13 30  1  0  0  0  0
 14 15  2  0  0  0  0
 14 31  1  0  0  0  0
 15 16  1  0  0  0  0
 15 32  1  0  0  0  0
 16 17  1  0  0  0  0
 16 33  1  0  0  0  0
 16 34  1  0  0  0  0
 17 35  1  0  0  0  0
 17 36  1  0  0  0  0
M  END
> <s_m_source_file>
AV-unprocessed.smi

> <i_m_source_file_index>
1286

> <i_lp_mmshare_version>
43012

> <i_f3d_flags>
0

> <s_epik_input>
bjFbY0hdW2NIXVtjSF1uMVtDSDJdW0NAQEhdKFtDSDNdKVtOSF1DKD1PKVtDSDJdW0NAQEhdMltDSF09W0NIXVtDSDJdW0NIMl0y

> <s_epik_cmdline>
J2VwaWtfcHl0aG9uJywgJy1waCcsICc3LjAnLCAnLXRuJywgJzgnLCAnLW1hJywgJzIwMCcsICctbWV0YWxfYmluZGluZycsICctaW1hZScsICc8aW5maWxlLm1hZT4nLCAnLW9tYWUnLCAnPG91dGZpbGUubWFlPic=

> <r_lp_tautomer_probability>
1

> <r_epik_Ionization_Penalty>
0.000301761

> <r_epik_Ionization_Penalty_Charging>
0

> <r_epik_Ionization_Penalty_Neutral>
0.000301761

> <r_epik_State_Penalty>
-0

> <r_epik_Charging_Adjusted_Penalty>
0

> <i_epik_Tot_Q>
0

> <i_epik_Tot_abs_Q>
0

> <r_epik_Metal_State_Penalty>
-0

> <b_epik_Metal_Only>
0

> <s_lp_Force_Field>
OPLS_2005

> <r_lp_Energy>
16.9784

> <b_lp_Chiralities_Consistent>
1

> <s_lp_Variant>
AV-unprocessed.smi:1286-4

> <Gold.Version>
5.8.1

> <Gold.Id.Protein>
6NUR|6NUR_protein|mol2

> <Gold.PLP.Fitness>
44.8338

> <Gold.PLP.PLP>
-38.7788

> <Gold.PLP.part.hbond>
-2.0000

> <Gold.PLP.part.metal>
0.0000

> <Gold.PLP.part.buried>
-3.0040

> <Gold.PLP.part.nonpolar>
-34.2814

> <Gold.PLP.part.repulsive>
0.0958

> <Gold.PLP.ligand.clash>
0.0000

> <Gold.PLP.ligand.torsion>
0.8995

> <Gold.PLP.Chemscore.Hbond>
1.6175

> <Gold.PLP.Chemscore.CHOScore>
0.9879

> <Gold.PLP.Chemscore.Metal>
0.0000

> <Gold.Chemscore.Hbonds>
donor molecule, donor type, donor heavy atom, donor atom, acceptor molecule, acceptor atom, score
      L1  H     9    27       P1  8028  1.00
      P1  H  7989  7998       L1     8  0.55
      L1  C     5    24       P1  7948  0.55

> <Gold.PLP.Chemscore.Internal.Correction>
0.0376

> <Gold.Rescore>
     Score         DG    S(hbond)    S(metal)    S(lipo)     H(rot)  DE(clash)    DE(int)     intcor
     18.45     -19.37       1.91        0.00     100.17       1.64       0.00       0.92       ----

> <Gold.Chemscore.Fitness>
18.4465

> <Gold.Chemscore.DG>
-19.3695

> <Gold.Chemscore.ZeroCoef>
-5.4800

> <Gold.Chemscore.Hbond>
1.9061

> <Gold.Chemscore.Metal>
0.0000

> <Gold.Chemscore.Lipo>
100.1712

> <Gold.Chemscore.Internal_Hbond>
0.0000

> <Gold.Chemscore.DEClash>
0.0000

> <Gold.Chemscore.DEInternal>
0.9230

> <Gold.Chemscore.Rot>
1.6394

> <Gold.Chemscore.Internal.Correction>
   9.000000E+99

> <Gold.Chemscore.Hbonds>
donor molecule, donor type, donor heavy atom, donor atom, acceptor molecule, acceptor atom, score
      L1  H     9    27       P1  8028  0.97
      P1  H  7989  7998       L1     8  0.03

> <Gold.Chemscore.Hbond.Weighted>
-6.3664

> <Gold.Chemscore.Metal.Weighted>
-0.0000

> <Gold.Chemscore.Lipo.Weighted>
-11.7200

> <Gold.Chemscore.Internal_Hbond.Weighted>
0.0000

> <Gold.Chemscore.DEClash.Weighted>
0.0000

> <Gold.Chemscore.DEInternal.Weighted>
0.9230

> <Gold.Chemscore.Rot.Weighted>
4.1969

> <Gold.Chemscore.Internal.Correction.Weighted>
   9.000000E+99

> <Gold.Protein.RotatedTorsions>
[ 6907 6896 6895 6894 ] final   12.28 input  -60.11 | X-H torsion
[ 7974 7965 7964 7962 ] final  135.41 input  175.53 | X-H torsion
[ 8008 7997 7996 7995 ] final  -75.55 input   59.86 | X-H torsion
[ 10167 10162 10161 10158 ] final -156.90 input  -65.29 | X-H torsion
[ 10718 10713 10712 10709 ] final  101.45 input   66.30 | X-H torsion
[ 10763 10752 10751 10750 ] final    7.58 input  -60.55 | X-H torsion
[ 11005 11000 10999 10996 ] final  119.98 input  -57.11 | X-H torsion

> <Gold.Protein.ActiveResidues>
 VAL166  LYS551  ARG553  GLY616  TRP617  ASP618  TYR619  PRO620  LYS621  CYS622 
 ASP623  PHE694  ASN695  SER759  ASP760  ASP761  ALA762  ILE779  LEU786  VAL792 
 PHE793  MET794  SER795  GLU796  ALA797  LYS798  CYS799  TRP800  GLU811  SER814 

> <Gold.Protein.RotatedAtoms>
  151.7678  135.0794  160.0355 H   0  0  0  0  0  0  0  0  0  0  0  0  # atno 6907 bound_to 6896
  152.3309  133.5953  159.5817 H   0  0  0  0  0  0  0  0  0  0  0  0  # atno 6908 bound_to 6896
  150.7422  133.9785  159.3610 H   0  0  0  0  0  0  0  0  0  0  0  0  # atno 6909 bound_to 6896
  144.9666  139.4651  143.5453 H   0  0  0  0  0  0  0  0  0  0  0  0  # atno 7974 bound_to 7965
  154.5427  140.0742  156.8537 H   0  0  0  0  0  0  0  0  0  0  0  0  # atno 8008 bound_to 7997
  155.3149  140.3392  155.4224 H   0  0  0  0  0  0  0  0  0  0  0  0  # atno 8009 bound_to 7997
  156.1889  140.1679  156.8117 H   0  0  0  0  0  0  0  0  0  0  0  0  # atno 8010 bound_to 7997
  139.6813  143.9576  152.2338 H   0  0  0  0  0  0  0  0  0  0  0  0  # atno 10167 bound_to 10162
  157.6829  131.0726  150.5254 H   0  0  0  0  0  0  0  0  0  0  0  0  # atno 10718 bound_to 10713
  153.2347  135.6896  153.7850 H   0  0  0  0  0  0  0  0  0  0  0  0  # atno 10763 bound_to 10752
  153.7001  135.3299  155.3223 H   0  0  0  0  0  0  0  0  0  0  0  0  # atno 10764 bound_to 10752
  154.8329  135.4566  154.1246 H   0  0  0  0  0  0  0  0  0  0  0  0  # atno 10765 bound_to 10752
  139.9167  134.9632  156.7737 H   0  0  0  0  0  0  0  0  0  0  0  0  # atno 11005 bound_to 11000
  146.3369  139.8851  142.8818 LP  0  0  0  0  0  0  0  0  0  0  0  0  # atno 17320 bound_to 7965
  145.2620  141.0080  143.3821 LP  0  0  0  0  0  0  0  0  0  0  0  0  # atno 17321 bound_to 7965
  139.9366  144.6708  150.8308 LP  0  0  0  0  0  0  0  0  0  0  0  0  # atno 17342 bound_to 10162
  140.7653  143.3272  151.2489 LP  0  0  0  0  0  0  0  0  0  0  0  0  # atno 17343 bound_to 10162
  156.5566  130.4245  149.6082 LP  0  0  0  0  0  0  0  0  0  0  0  0  # atno 17370 bound_to 10713
  156.2857  130.7096  151.1932 LP  0  0  0  0  0  0  0  0  0  0  0  0  # atno 17371 bound_to 10713
  140.6600  133.9654  155.7800 LP  0  0  0  0  0  0  0  0  0  0  0  0  # atno 17394 bound_to 11000
  141.0650  134.0290  157.3606 LP  0  0  0  0  0  0  0  0  0  0  0  0  # atno 17395 bound_to 11000

$$$$
