AV-unprocessed.smi:1033|AV-procd|sdf|4491|dock8
  -GOLD-   22720 2473D 1   1.00000     0.00000
 Structure written by MMmdl.
 56 58  0  0  0  0  0  0  0  0  2 V2000
  152.0879  143.2593  160.9199 C   0  0  0  0  0  0  0  0  0  0  0  0
  151.8155  142.4958  159.6357 C   0  0  0  0  0  0  0  0  0  0  0  0
  152.5611  141.3277  159.3598 C   0  0  0  0  0  0  0  0  0  0  0  0
  152.3386  140.5886  158.1776 C   0  0  0  0  0  0  0  0  0  0  0  0
  152.9468  139.4365  157.7098 N   0  0  0  0  0  0  0  0  0  0  0  0
  152.3080  139.2434  156.5599 C   0  0  0  0  0  0  0  0  0  0  0  0
  151.3622  140.1408  156.2219 N   0  0  0  0  0  0  0  0  0  0  0  0
  150.5523  140.1397  155.0174 C   0  0  0  0  0  0  0  0  0  0  0  0
  149.7467  138.8363  154.8521 C   0  0  1  0  0  0  0  0  0  0  0  0
  148.9160  138.9823  153.7180 O   0  0  0  0  0  0  0  0  0  0  0  0
  150.6310  137.5834  154.6651 C   0  0  0  0  0  0  0  0  0  0  0  0
  149.8354  136.3369  154.5338 N   0  3  0  0  0  0  0  0  0  0  0  0
  148.5700  136.3540  155.3168 C   0  0  0  0  0  0  0  0  0  0  0  0
  147.7841  135.0485  155.0834 C   0  0  0  0  0  0  0  0  0  0  0  0
  148.5462  133.8488  155.4304 N   0  0  0  0  0  0  0  0  0  0  0  0
  148.7878  133.6557  156.8664 C   0  0  0  0  0  0  0  0  0  0  0  0
  149.6503  132.4314  157.2472 C   0  0  2  0  0  0  0  0  0  0  0  0
  149.3537  131.8857  158.6546 C   0  0  0  0  0  0  0  0  0  0  0  0
  151.0053  132.8312  157.2558 O   0  0  0  0  0  0  0  0  0  0  0  0
  149.7826  133.8485  154.6480 C   0  0  0  0  0  0  0  0  0  0  0  0
  150.6316  135.1222  154.8486 C   0  0  0  0  0  0  0  0  0  0  0  0
  151.3410  141.0537  157.2714 C   0  0  0  0  0  0  0  0  0  0  0  0
  150.5923  142.2146  157.5348 C   0  0  0  0  0  0  0  0  0  0  0  0
  150.8275  142.9408  158.7210 C   0  0  0  0  0  0  0  0  0  0  0  0
  150.0128  144.1920  158.9983 C   0  0  0  0  0  0  0  0  0  0  0  0
  152.9032  142.8086  161.4864 H   0  0  0  0  0  0  0  0  0  0  0  0
  151.2018  143.2648  161.5552 H   0  0  0  0  0  0  0  0  0  0  0  0
  152.3643  144.2909  160.7015 H   0  0  0  0  0  0  0  0  0  0  0  0
  153.3132  140.9881  160.0570 H   0  0  0  0  0  0  0  0  0  0  0  0
  152.5456  138.4047  155.9218 H   0  0  0  0  0  0  0  0  0  0  0  0
  149.8793  140.9973  155.0611 H   0  0  0  0  0  0  0  0  0  0  0  0
  151.2045  140.3003  154.1578 H   0  0  0  0  0  0  0  0  0  0  0  0
  149.1035  138.7211  155.7238 H   0  0  0  0  0  0  0  0  0  0  0  0
  149.3763  139.4899  153.0666 H   0  0  0  0  0  0  0  0  0  0  0  0
  151.2474  137.7251  153.7758 H   0  0  0  0  0  0  0  0  0  0  0  0
  151.3258  137.4613  155.4967 H   0  0  0  0  0  0  0  0  0  0  0  0
  148.7863  136.4926  156.3768 H   0  0  0  0  0  0  0  0  0  0  0  0
  147.9492  137.1960  155.0137 H   0  0  0  0  0  0  0  0  0  0  0  0
  146.8376  135.0672  155.6204 H   0  0  0  0  0  0  0  0  0  0  0  0
  147.5070  134.9953  154.0296 H   0  0  0  0  0  0  0  0  0  0  0  0
  149.3037  134.5482  157.2248 H   0  0  0  0  0  0  0  0  0  0  0  0
  147.8516  133.6305  157.4237 H   0  0  0  0  0  0  0  0  0  0  0  0
  149.5456  131.6417  156.5020 H   0  0  0  0  0  0  0  0  0  0  0  0
  148.3305  131.5284  158.7533 H   0  0  0  0  0  0  0  0  0  0  0  0
  149.5059  132.6513  159.4163 H   0  0  0  0  0  0  0  0  0  0  0  0
  150.0101  131.0483  158.8944 H   0  0  0  0  0  0  0  0  0  0  0  0
  151.1700  133.3557  156.4869 H   0  0  0  0  0  0  0  0  0  0  0  0
  150.3757  132.9659  154.8903 H   0  0  0  0  0  0  0  0  0  0  0  0
  149.5333  133.7549  153.5902 H   0  0  0  0  0  0  0  0  0  0  0  0
  151.5013  135.0785  154.1920 H   0  0  0  0  0  0  0  0  0  0  0  0
  151.0129  135.1819  155.8688 H   0  0  0  0  0  0  0  0  0  0  0  0
  149.8426  142.5441  156.8308 H   0  0  0  0  0  0  0  0  0  0  0  0
  149.2749  144.3686  158.2153 H   0  0  0  0  0  0  0  0  0  0  0  0
  150.6620  145.0664  159.0508 H   0  0  0  0  0  0  0  0  0  0  0  0
  149.4791  144.0991  159.9444 H   0  0  0  0  0  0  0  0  0  0  0  0
  149.5789  136.2609  153.5596 H   0  0  0  0  0  0  0  0  0  0  0  0
  1  2  1  0  0  0  0
  1 26  1  0  0  0  0
  1 27  1  0  0  0  0
  1 28  1  0  0  0  0
  2 24  1  0  0  0  0
  2  3  2  0  0  0  0
  3  4  1  0  0  0  0
  3 29  1  0  0  0  0
  4 22  2  0  0  0  0
  4  5  1  0  0  0  0
  5  6  2  0  0  0  0
  6  7  1  0  0  0  0
  6 30  1  0  0  0  0
  7  8  1  0  0  0  0
  7 22  1  0  0  0  0
  8  9  1  0  0  0  0
  8 31  1  0  0  0  0
  8 32  1  0  0  0  0
  9 10  1  0  0  0  0
  9 11  1  0  0  0  0
  9 33  1  0  0  0  0
 10 34  1  0  0  0  0
 11 12  1  0  0  0  0
 11 35  1  0  0  0  0
 11 36  1  0  0  0  0
 12 21  1  0  0  0  0
 12 13  1  0  0  0  0
 12 56  1  0  0  0  0
 13 14  1  0  0  0  0
 13 37  1  0  0  0  0
 13 38  1  0  0  0  0
 14 15  1  0  0  0  0
 14 39  1  0  0  0  0
 14 40  1  0  0  0  0
 15 16  1  0  0  0  0
 15 20  1  0  0  0  0
 16 17  1  0  0  0  0
 16 41  1  0  0  0  0
 16 42  1  0  0  0  0
 17 18  1  0  0  0  0
 17 19  1  0  0  0  0
 17 43  1  0  0  0  0
 18 44  1  0  0  0  0
 18 45  1  0  0  0  0
 18 46  1  0  0  0  0
 19 47  1  0  0  0  0
 20 21  1  0  0  0  0
 20 48  1  0  0  0  0
 20 49  1  0  0  0  0
 21 50  1  0  0  0  0
 21 51  1  0  0  0  0
 22 23  1  0  0  0  0
 23 24  2  0  0  0  0
 23 52  1  0  0  0  0
 24 25  1  0  0  0  0
 25 53  1  0  0  0  0
 25 54  1  0  0  0  0
 25 55  1  0  0  0  0
M  CHG  1  12   1
M  END
> <s_m_source_file>
AV-unprocessed.smi

> <i_m_source_file_index>
1033

> <i_lp_mmshare_version>
43012

> <i_f3d_flags>
0

> <s_epik_input>
W0NIM11jKFtjSF0xKWMoW0NIM10pW2NIXWMoYzEyKW4oW2NIXW4yKVtDSDJdW0NASF0oW09IXSlbQ0gyXU4zW0NIMl1bQ0gyXU4oW0NIMl1bQ0gyXTMpW0NIMl1bQ0BIXShbQ0gzXSlbT0hd

> <s_epik_cmdline>
J2VwaWtfcHl0aG9uJywgJy1waCcsICc3LjAnLCAnLXRuJywgJzgnLCAnLW1hJywgJzIwMCcsICctbWV0YWxfYmluZGluZycsICctaW1hZScsICc8aW5maWxlLm1hZT4nLCAnLW9tYWUnLCAnPG91dGZpbGUubWFlPic=

> <r_epik_Ionization_Penalty>
0.131893

> <r_epik_Ionization_Penalty_Charging>
0.00208556

> <r_epik_Ionization_Penalty_Neutral>
0.129808

> <r_epik_State_Penalty>
0.452125

> <r_epik_Charging_Adjusted_Penalty>
0.454211

> <i_epik_Tot_Q>
1

> <i_epik_Tot_abs_Q>
1

> <r_epik_Metal_State_Penalty>
0.376389

> <b_epik_Metal_Only>
0

> <s_lp_Force_Field>
OPLS_2005

> <r_lp_Energy>
35.7629

> <b_lp_Chiralities_Consistent>
1

> <s_lp_Variant>
AV-unprocessed.smi:1033-2

> <Gold.Version>
5.8.1

> <Gold.Id.Protein>
6NUR|6NUR_protein|mol2

> <Gold.PLP.Fitness>
53.4237

> <Gold.PLP.PLP>
-40.6002

> <Gold.PLP.part.hbond>
-4.4298

> <Gold.PLP.part.metal>
0.0000

> <Gold.PLP.part.buried>
-2.5066

> <Gold.PLP.part.nonpolar>
-33.9415

> <Gold.PLP.part.repulsive>
0.0693

> <Gold.PLP.ligand.clash>
0.0000

> <Gold.PLP.ligand.torsion>
0.6349

> <Gold.PLP.Chemscore.Hbond>
4.6780

> <Gold.PLP.Chemscore.CHOScore>
0.0000

> <Gold.PLP.Chemscore.Metal>
0.0000

> <Gold.Chemscore.Hbonds>
donor molecule, donor type, donor heavy atom, donor atom, acceptor molecule, acceptor atom, score
      L1  H    10    34       P1  7957  0.99
      L1  H    12    56       P1  7948  2.00
      P1  H  6896  6908       L1    19  0.91
      P1  H  7997  8010       L1     5  0.96

> <Gold.PLP.Chemscore.Internal.Correction>
0.0592

> <Gold.Rescore>
     Score         DG    S(hbond)    S(metal)    S(lipo)     H(rot)  DE(clash)    DE(int)     intcor
     18.47     -19.87       2.88        0.00     107.92       3.07       0.68       0.72       ----

> <Gold.Chemscore.Fitness>
18.4715

> <Gold.Chemscore.DG>
-19.8712

> <Gold.Chemscore.ZeroCoef>
-5.4800

> <Gold.Chemscore.Hbond>
2.8774

> <Gold.Chemscore.Metal>
0.0000

> <Gold.Chemscore.Lipo>
107.9232

> <Gold.Chemscore.Internal_Hbond>
0.0000

> <Gold.Chemscore.DEClash>
0.6785

> <Gold.Chemscore.DEInternal>
0.7211

> <Gold.Chemscore.Rot>
3.0650

> <Gold.Chemscore.Internal.Correction>
   9.000000E+99

> <Gold.Chemscore.Hbonds>
donor molecule, donor type, donor heavy atom, donor atom, acceptor molecule, acceptor atom, score
      L1  H    10    34       P1  7957  0.90
      L1  H    12    56       P1  7948  0.50
      P1  H  6896  6908       L1    19  0.19
      P1  H  7997  8010       L1     5  0.16

> <Gold.Chemscore.Hbond.Weighted>
-9.6106

> <Gold.Chemscore.Metal.Weighted>
-0.0000

> <Gold.Chemscore.Lipo.Weighted>
-12.6270

> <Gold.Chemscore.Internal_Hbond.Weighted>
0.0000

> <Gold.Chemscore.DEClash.Weighted>
0.6785

> <Gold.Chemscore.DEInternal.Weighted>
0.7211

> <Gold.Chemscore.Rot.Weighted>
7.8465

> <Gold.Chemscore.Internal.Correction.Weighted>
   9.000000E+99

> <Gold.Protein.RotatedTorsions>
[ 6907 6896 6895 6894 ] final   91.92 input  -60.11 | X-H torsion
[ 7974 7965 7964 7962 ] final  100.78 input  175.53 | X-H torsion
[ 8008 7997 7996 7995 ] final   23.98 input   59.86 | X-H torsion
[ 10167 10162 10161 10158 ] final -142.95 input  -65.29 | X-H torsion
[ 10718 10713 10712 10709 ] final  -83.82 input   66.30 | X-H torsion
[ 10763 10752 10751 10750 ] final -129.57 input  -60.55 | X-H torsion
[ 11005 11000 10999 10996 ] final  -80.03 input  -57.11 | X-H torsion

> <Gold.Protein.ActiveResidues>
 VAL166  LYS551  ARG553  GLY616  TRP617  ASP618  TYR619  PRO620  LYS621  CYS622 
 ASP623  PHE694  ASN695  SER759  ASP760  ASP761  ALA762  ILE779  LEU786  VAL792 
 PHE793  MET794  SER795  GLU796  ALA797  LYS798  CYS799  TRP800  GLU811  SER814 

> <Gold.Protein.RotatedAtoms>
  152.5451  134.1582  159.8546 H   0  0  0  0  0  0  0  0  0  0  0  0  # atno 6907 bound_to 6896
  151.1603  133.4842  159.2602 H   0  0  0  0  0  0  0  0  0  0  0  0  # atno 6908 bound_to 6896
  151.1380  135.0176  159.8668 H   0  0  0  0  0  0  0  0  0  0  0  0  # atno 6909 bound_to 6896
  145.3811  139.2379  143.3403 H   0  0  0  0  0  0  0  0  0  0  0  0  # atno 7974 bound_to 7965
  154.9893  140.3111  155.4913 H   0  0  0  0  0  0  0  0  0  0  0  0  # atno 8008 bound_to 7997
  156.2942  140.2252  156.4936 H   0  0  0  0  0  0  0  0  0  0  0  0  # atno 8009 bound_to 7997
  154.7718  140.0452  157.1046 H   0  0  0  0  0  0  0  0  0  0  0  0  # atno 8010 bound_to 7997
  139.8039  143.7795  152.2660 H   0  0  0  0  0  0  0  0  0  0  0  0  # atno 10167 bound_to 10162
  156.0013  130.4678  150.4315 H   0  0  0  0  0  0  0  0  0  0  0  0  # atno 10718 bound_to 10713
  154.8757  135.3891  154.3941 H   0  0  0  0  0  0  0  0  0  0  0  0  # atno 10763 bound_to 10752
  153.4673  135.7029  153.6019 H   0  0  0  0  0  0  0  0  0  0  0  0  # atno 10764 bound_to 10752
  153.4492  135.3838  155.2242 H   0  0  0  0  0  0  0  0  0  0  0  0  # atno 10765 bound_to 10752
  141.1668  133.7132  156.8211 H   0  0  0  0  0  0  0  0  0  0  0  0  # atno 11005 bound_to 11000
  146.2842  140.4478  142.8764 LP  0  0  0  0  0  0  0  0  0  0  0  0  # atno 17320 bound_to 7965
  144.8507  140.6997  143.6170 LP  0  0  0  0  0  0  0  0  0  0  0  0  # atno 17321 bound_to 7965
  139.7923  144.7405  150.9938 LP  0  0  0  0  0  0  0  0  0  0  0  0  # atno 17342 bound_to 10162
  140.7819  143.4429  151.0525 LP  0  0  0  0  0  0  0  0  0  0  0  0  # atno 17343 bound_to 10162
  157.2363  131.0515  151.2462 LP  0  0  0  0  0  0  0  0  0  0  0  0  # atno 17370 bound_to 10713
  157.3663  130.7157  149.6535 LP  0  0  0  0  0  0  0  0  0  0  0  0  # atno 17371 bound_to 10713
  140.2118  134.8822  157.3283 LP  0  0  0  0  0  0  0  0  0  0  0  0  # atno 17394 bound_to 11000
  140.2078  134.4175  155.7628 LP  0  0  0  0  0  0  0  0  0  0  0  0  # atno 17395 bound_to 11000

$$$$
