AV-unprocessed.smi:34|AV-procd|sdf|246|dock3
  -GOLD-   2262016 03D 1   1.00000     0.00000
 Structure written by MMmdl.
 54 58  0  0  0  0  0  0  0  0  2 V2000
  153.0511  132.0040  158.7760 O   0  0  0  0  0  0  0  0  0  0  0  0
  153.4984  130.8625  158.9070 C   0  0  0  0  0  0  0  0  0  0  0  0
  153.8462  130.2313  160.0571 N   0  5  0  0  0  0  0  0  0  0  0  0
  153.9866  130.9362  161.1899 C   0  0  0  0  0  0  0  0  0  0  0  0
  153.6828  130.3751  162.3878 N   0  0  0  0  0  0  0  0  0  0  0  0
  153.8203  131.0783  163.5170 C   0  0  0  0  0  0  0  0  0  0  0  0
  154.2353  132.3384  163.6758 N   0  0  0  0  0  0  0  0  0  0  0  0
  154.5342  132.9205  162.4781 C   0  0  0  0  0  0  0  0  0  0  0  0
  154.4314  132.2869  161.2049 C   0  0  0  0  0  0  0  0  0  0  0  0
  154.8062  133.1550  160.1908 N   0  0  0  0  0  0  0  0  0  0  0  0
  155.1138  134.2525  160.8776 C   0  0  0  0  0  0  0  0  0  0  0  0
  154.9926  134.2043  162.2196 N   0  0  0  0  0  0  0  0  0  0  0  0
  155.2721  135.3168  163.1816 C   0  0  1  0  0  0  0  0  0  0  0  0
  155.6829  136.4370  162.4497 O   0  0  0  0  0  0  0  0  0  0  0  0
  154.7474  137.5003  162.6160 C   0  0  2  0  0  0  0  0  0  0  0  0
  155.4353  138.8618  162.4549 C   0  0  0  0  0  0  0  0  0  0  0  0
  154.4773  139.8331  162.0655 O   0  0  0  0  0  0  0  0  0  0  0  0
  154.6893  140.5848  160.9676 C   0  0  0  0  0  0  0  0  0  0  0  0
  155.5848  140.3608  160.1505 O   0  0  0  0  0  0  0  0  0  0  0  0
  153.7322  141.7222  160.8477 C   0  0  0  0  0  0  0  0  0  0  0  0
  153.4053  142.4759  161.9993 C   0  0  0  0  0  0  0  0  0  0  0  0
  152.5006  143.5522  161.9195 C   0  0  0  0  0  0  0  0  0  0  0  0
  151.9139  143.8903  160.6863 C   0  0  0  0  0  0  0  0  0  0  0  0
  152.2328  143.1503  159.5328 C   0  0  0  0  0  0  0  0  0  0  0  0
  153.1358  142.0718  159.6111 C   0  0  0  0  0  0  0  0  0  0  0  0
  154.1461  137.2300  163.9947 C   0  0  2  0  0  0  0  0  0  0  0  0
  155.0163  137.6179  164.9324 F   0  0  0  0  0  0  0  0  0  0  0  0
  154.0143  135.7155  163.9695 C   0  0  2  0  0  0  0  0  0  0  0  0
  153.9781  135.1944  165.2829 O   0  0  0  0  0  0  0  0  0  0  0  0
  153.7739  130.0458  157.6729 C   0  0  0  0  0  0  0  0  0  0  0  0
  153.8360  130.6821  156.4119 C   0  0  0  0  0  0  0  0  0  0  0  0
  154.0677  129.9330  155.2418 C   0  0  0  0  0  0  0  0  0  0  0  0
  154.2306  128.5371  155.3189 C   0  0  0  0  0  0  0  0  0  0  0  0
  154.1568  127.8906  156.5668 C   0  0  0  0  0  0  0  0  0  0  0  0
  153.9251  128.6389  157.7374 C   0  0  0  0  0  0  0  0  0  0  0  0
  153.5607  130.5555  164.4255 H   0  0  0  0  0  0  0  0  0  0  0  0
  155.4504  135.1461  160.3726 H   0  0  0  0  0  0  0  0  0  0  0  0
  156.0933  134.9647  163.8079 H   0  0  0  0  0  0  0  0  0  0  0  0
  153.9710  137.4037  161.8581 H   0  0  0  0  0  0  0  0  0  0  0  0
  155.9216  139.1567  163.3859 H   0  0  0  0  0  0  0  0  0  0  0  0
  156.2101  138.7968  161.6899 H   0  0  0  0  0  0  0  0  0  0  0  0
  153.8422  142.2345  162.9576 H   0  0  0  0  0  0  0  0  0  0  0  0
  152.2569  144.1183  162.8065 H   0  0  0  0  0  0  0  0  0  0  0  0
  151.2205  144.7160  160.6254 H   0  0  0  0  0  0  0  0  0  0  0  0
  151.7842  143.4098  158.5853 H   0  0  0  0  0  0  0  0  0  0  0  0
  153.3589  141.5247  158.7069 H   0  0  0  0  0  0  0  0  0  0  0  0
  153.2036  137.7491  164.1706 H   0  0  0  0  0  0  0  0  0  0  0  0
  153.1138  135.4277  163.4262 H   0  0  0  0  0  0  0  0  0  0  0  0
  154.8635  135.0057  165.5543 H   0  0  0  0  0  0  0  0  0  0  0  0
  153.7106  131.7526  156.3351 H   0  0  0  0  0  0  0  0  0  0  0  0
  154.1186  130.4305  154.2846 H   0  0  0  0  0  0  0  0  0  0  0  0
  154.4078  127.9626  154.4220 H   0  0  0  0  0  0  0  0  0  0  0  0
  154.2752  126.8188  156.6275 H   0  0  0  0  0  0  0  0  0  0  0  0
  153.8618  128.1210  158.6838 H   0  0  0  0  0  0  0  0  0  0  0  0
  1  2  2  0  0  0  0
  2  3  1  0  0  0  0
  2 30  1  0  0  0  0
  3  4  1  0  0  0  0
  4  9  1  0  0  0  0
  4  5  2  0  0  0  0
  5  6  1  0  0  0  0
  6  7  2  0  0  0  0
  6 36  1  0  0  0  0
  7  8  1  0  0  0  0
  8 12  1  0  0  0  0
  8  9  2  0  0  0  0
  9 10  1  0  0  0  0
 10 11  2  0  0  0  0
 11 12  1  0  0  0  0
 11 37  1  0  0  0  0
 12 13  1  0  0  0  0
 13 28  1  0  0  0  0
 13 14  1  0  0  0  0
 13 38  1  0  0  0  0
 14 15  1  0  0  0  0
 15 16  1  0  0  0  0
 15 26  1  0  0  0  0
 15 39  1  0  0  0  0
 16 17  1  0  0  0  0
 16 40  1  0  0  0  0
 16 41  1  0  0  0  0
 17 18  1  0  0  0  0
 18 19  2  0  0  0  0
 18 20  1  0  0  0  0
 20 25  1  0  0  0  0
 20 21  2  0  0  0  0
 21 22  1  0  0  0  0
 21 42  1  0  0  0  0
 22 23  2  0  0  0  0
 22 43  1  0  0  0  0
 23 24  1  0  0  0  0
 23 44  1  0  0  0  0
 24 25  2  0  0  0  0
 24 45  1  0  0  0  0
 25 46  1  0  0  0  0
 26 27  1  0  0  0  0
 26 28  1  0  0  0  0
 26 47  1  0  0  0  0
 28 29  1  0  0  0  0
 28 48  1  0  0  0  0
 29 49  1  0  0  0  0
 30 35  1  0  0  0  0
 30 31  2  0  0  0  0
 31 32  1  0  0  0  0
 31 50  1  0  0  0  0
 32 33  2  0  0  0  0
 32 51  1  0  0  0  0
 33 34  1  0  0  0  0
 33 52  1  0  0  0  0
 34 35  2  0  0  0  0
 34 53  1  0  0  0  0
 35 54  1  0  0  0  0
M  CHG  1   3  -1
M  END
> <s_m_source_file>
AV-unprocessed.smi

> <i_m_source_file_index>
34

> <i_lp_mmshare_version>
43012

> <i_f3d_flags>
0

> <s_epik_input>
W2NIXTFbY0hdW2NIXVtjSF1bY0hdYzFDKD1PKVtOSF1jKG5bY0hdbjIpYyhjMjMpbltjSF1uM1tDQEBIXTRPW0NASF0oW0NAQEhdKEYpW0NASF00W09IXSlbQ0gyXU9DKD1PKWM1W2NIXVtjSF1bY0hdW2NIXVtjSF01

> <s_epik_cmdline>
J2VwaWtfcHl0aG9uJywgJy1waCcsICc3LjAnLCAnLXRuJywgJzgnLCAnLW1hJywgJzIwMCcsICctbWV0YWxfYmluZGluZycsICctaW1hZScsICc8aW5maWxlLm1hZT4nLCAnLW9tYWUnLCAnPG91dGZpbGUubWFlPic=

> <r_lp_tautomer_probability>
1

> <r_epik_Ionization_Penalty>
4.33227

> <r_epik_Ionization_Penalty_Charging>
3.41027

> <r_epik_Ionization_Penalty_Neutral>
0.922001

> <r_epik_State_Penalty>
3.41358

> <r_epik_Charging_Adjusted_Penalty>
6.82385

> <i_epik_Tot_Q>
-1

> <i_epik_Tot_abs_Q>
1

> <r_epik_Metal_State_Penalty>
0.496292

> <b_epik_Metal_Only>
1

> <s_epik_Chemistry_Notes>
This compound has an ester and may undergo hydrolysis at high or low pH. This compound contains an acetal/aminal-like group ( X-CH(R)-Y where X, Y are N, S, or O) that may be acid/base labile, releasing an aldehyde.

> <s_lp_Force_Field>
OPLS_2005

> <r_lp_Energy>
46.0199

> <b_lp_Chiralities_Consistent>
1

> <s_lp_Variant>
AV-unprocessed.smi:34-32

> <Gold.Version>
5.8.1

> <Gold.Id.Protein>
6NUR|6NUR_protein|mol2

> <Gold.PLP.Fitness>
56.7548

> <Gold.PLP.PLP>
-56.9977

> <Gold.PLP.part.hbond>
-2.1680

> <Gold.PLP.part.metal>
0.0000

> <Gold.PLP.part.buried>
-7.5094

> <Gold.PLP.part.nonpolar>
-48.1793

> <Gold.PLP.part.repulsive>
0.0000

> <Gold.PLP.ligand.clash>
0.0000

> <Gold.PLP.ligand.torsion>
1.8663

> <Gold.PLP.Chemscore.Hbond>
1.0000

> <Gold.PLP.Chemscore.CHOScore>
0.0000

> <Gold.PLP.Chemscore.Metal>
0.0000

> <Gold.Chemscore.Hbonds>
donor molecule, donor type, donor heavy atom, donor atom, acceptor molecule, acceptor atom, score
      P1  H  6896  6908       L1     1  1.00

> <Gold.PLP.Chemscore.Internal.Correction>
0.4897

> <Gold.Rescore>
     Score         DG    S(hbond)    S(metal)    S(lipo)     H(rot)  DE(clash)    DE(int)     intcor
     11.25     -16.51       0.93        0.00     126.66       2.69       1.57       3.69       ----

> <Gold.Chemscore.Fitness>
11.2454

> <Gold.Chemscore.DG>
-16.5057

> <Gold.Chemscore.ZeroCoef>
-5.4800

> <Gold.Chemscore.Hbond>
0.9294

> <Gold.Chemscore.Metal>
0.0000

> <Gold.Chemscore.Lipo>
126.6597

> <Gold.Chemscore.Internal_Hbond>
0.0000

> <Gold.Chemscore.DEClash>
1.5692

> <Gold.Chemscore.DEInternal>
3.6911

> <Gold.Chemscore.Rot>
2.6944

> <Gold.Chemscore.Internal.Correction>
   9.000000E+99

> <Gold.Chemscore.Hbonds>
donor molecule, donor type, donor heavy atom, donor atom, acceptor molecule, acceptor atom, score
      P1  H  6896  6908       L1     1  0.98

> <Gold.Chemscore.Hbond.Weighted>
-3.1041

> <Gold.Chemscore.Metal.Weighted>
-0.0000

> <Gold.Chemscore.Lipo.Weighted>
-14.8192

> <Gold.Chemscore.Internal_Hbond.Weighted>
0.0000

> <Gold.Chemscore.DEClash.Weighted>
1.5692

> <Gold.Chemscore.DEInternal.Weighted>
3.6911

> <Gold.Chemscore.Rot.Weighted>
6.8975

> <Gold.Chemscore.Internal.Correction.Weighted>
   9.000000E+99

> <Gold.Protein.RotatedTorsions>
[ 6907 6896 6895 6894 ] final   15.78 input  -60.11 | X-H torsion
[ 7974 7965 7964 7962 ] final   84.41 input  175.53 | X-H torsion
[ 8008 7997 7996 7995 ] final   77.79 input   59.86 | X-H torsion
[ 10167 10162 10161 10158 ] final  -36.68 input  -65.29 | X-H torsion
[ 10718 10713 10712 10709 ] final   97.86 input   66.30 | X-H torsion
[ 10763 10752 10751 10750 ] final -126.54 input  -60.55 | X-H torsion
[ 11005 11000 10999 10996 ] final -101.68 input  -57.11 | X-H torsion

> <Gold.Protein.ActiveResidues>
 VAL166  LYS551  ARG553  GLY616  TRP617  ASP618  TYR619  PRO620  LYS621  CYS622 
 ASP623  PHE694  ASN695  SER759  ASP760  ASP761  ALA762  ILE779  LEU786  VAL792 
 PHE793  MET794  SER795  GLU796  ALA797  LYS798  CYS799  TRP800  GLU811  SER814 

> <Gold.Protein.RotatedAtoms>
  151.8236  135.0644  160.0427 H   0  0  0  0  0  0  0  0  0  0  0  0  # atno 6907 bound_to 6896
  152.2933  133.5578  159.5579 H   0  0  0  0  0  0  0  0  0  0  0  0  # atno 6908 bound_to 6896
  150.7240  134.0314  159.3776 H   0  0  0  0  0  0  0  0  0  0  0  0  # atno 6909 bound_to 6896
  145.5991  139.2349  143.2256 H   0  0  0  0  0  0  0  0  0  0  0  0  # atno 7974 bound_to 7965
  155.8466  140.3460  155.5666 H   0  0  0  0  0  0  0  0  0  0  0  0  # atno 8008 bound_to 7997
  155.8083  140.0895  157.1938 H   0  0  0  0  0  0  0  0  0  0  0  0  # atno 8009 bound_to 7997
  154.4006  140.1452  156.3343 H   0  0  0  0  0  0  0  0  0  0  0  0  # atno 8010 bound_to 7997
  140.7137  143.3392  151.2395 H   0  0  0  0  0  0  0  0  0  0  0  0  # atno 10167 bound_to 10162
  157.6905  131.0622  150.4708 H   0  0  0  0  0  0  0  0  0  0  0  0  # atno 10718 bound_to 10713
  154.8746  135.3992  154.3447 H   0  0  0  0  0  0  0  0  0  0  0  0  # atno 10763 bound_to 10752
  153.4241  135.7024  153.6279 H   0  0  0  0  0  0  0  0  0  0  0  0  # atno 10764 bound_to 10752
  153.4929  135.3744  155.2471 H   0  0  0  0  0  0  0  0  0  0  0  0  # atno 10765 bound_to 10752
  141.1221  133.8497  157.1263 H   0  0  0  0  0  0  0  0  0  0  0  0  # atno 11005 bound_to 11000
  146.1590  140.6816  142.9286 LP  0  0  0  0  0  0  0  0  0  0  0  0  # atno 17320 bound_to 7965
  144.7318  140.4693  143.6932 LP  0  0  0  0  0  0  0  0  0  0  0  0  # atno 17321 bound_to 7965
  139.6895  143.9716  152.2852 LP  0  0  0  0  0  0  0  0  0  0  0  0  # atno 17342 bound_to 10162
  139.9373  144.6704  150.8302 LP  0  0  0  0  0  0  0  0  0  0  0  0  # atno 17343 bound_to 10162
  156.5046  130.4125  149.6334 LP  0  0  0  0  0  0  0  0  0  0  0  0  # atno 17370 bound_to 10713
  156.3296  130.7324  151.2251 LP  0  0  0  0  0  0  0  0  0  0  0  0  # atno 17371 bound_to 10713
  140.0186  134.9956  157.0546 LP  0  0  0  0  0  0  0  0  0  0  0  0  # atno 17394 bound_to 11000
  140.4477  134.1615  155.7179 LP  0  0  0  0  0  0  0  0  0  0  0  0  # atno 17395 bound_to 11000

$$$$
