AV-unprocessed.smi:3170|AV-procd|sdf|12109|dock8
  -GOLD-   2272017543D 1   1.00000     0.00000
 Structure written by MMmdl.
 35 36  0  0  0  0  0  0  0  0  1 V2000
  149.5681  133.3240  155.2219 O   0  0  0  0  0  0  0  0  0  0  0  0
  149.2838  134.1426  154.3477 C   0  0  0  0  0  0  0  0  0  0  0  0
  148.4936  133.8787  153.2985 N   0  0  0  0  0  0  0  0  0  0  0  0
  147.7946  132.6180  153.0668 C   0  0  0  0  0  0  0  0  0  0  0  0
  146.2638  132.7556  153.1943 C   0  0  0  0  0  0  0  0  0  0  0  0
  145.5951  132.7050  151.9073 N   0  0  0  0  0  0  0  0  0  0  0  0
  144.2338  132.8242  151.6625 C   0  0  0  0  0  0  0  0  0  0  0  0
  144.0680  132.7035  150.3010 C   0  0  0  0  0  0  0  0  0  0  0  0
  145.3063  132.5114  149.6924 N   0  0  0  0  0  0  0  0  0  0  0  0
  146.1623  132.5276  150.7058 C   0  0  0  0  0  0  0  0  0  0  0  0
  149.6977  135.4167  154.3473 N   0  0  0  0  0  0  0  0  0  0  0  0
  150.4778  136.0415  155.4099 C   0  0  0  0  0  0  0  0  0  0  0  0
  151.1697  137.3319  154.9286 C   0  0  2  0  0  0  0  0  0  0  0  0
  152.0527  138.0053  155.9614 C   0  0  0  0  0  0  0  0  0  0  0  0
  152.1809  139.4128  155.3886 C   0  0  0  0  0  0  0  0  0  0  0  0
  150.9492  139.6711  154.7201 O   0  0  0  0  0  0  0  0  0  0  0  0
  150.2042  138.4642  154.5803 C   0  0  0  0  0  0  0  0  0  0  0  0
  148.3206  134.6206  152.6359 H   0  0  0  0  0  0  0  0  0  0  0  0
  148.0527  132.2670  152.0674 H   0  0  0  0  0  0  0  0  0  0  0  0
  148.1625  131.8636  153.7635 H   0  0  0  0  0  0  0  0  0  0  0  0
  145.8692  131.9522  153.8168 H   0  0  0  0  0  0  0  0  0  0  0  0
  145.9979  133.6893  153.6916 H   0  0  0  0  0  0  0  0  0  0  0  0
  143.5162  132.9773  152.4549 H   0  0  0  0  0  0  0  0  0  0  0  0
  143.1600  132.7383  149.7172 H   0  0  0  0  0  0  0  0  0  0  0  0
  147.2265  132.3978  150.5723 H   0  0  0  0  0  0  0  0  0  0  0  0
  149.4119  136.0107  153.5827 H   0  0  0  0  0  0  0  0  0  0  0  0
  149.8372  136.2524  156.2678 H   0  0  0  0  0  0  0  0  0  0  0  0
  151.2213  135.3203  155.7503 H   0  0  0  0  0  0  0  0  0  0  0  0
  151.7742  137.1159  154.0460 H   0  0  0  0  0  0  0  0  0  0  0  0
  151.5507  138.0389  156.9296 H   0  0  0  0  0  0  0  0  0  0  0  0
  153.0167  137.5126  156.0923 H   0  0  0  0  0  0  0  0  0  0  0  0
  152.3843  140.1597  156.1562 H   0  0  0  0  0  0  0  0  0  0  0  0
  152.9880  139.4517  154.6557 H   0  0  0  0  0  0  0  0  0  0  0  0
  149.7929  138.3654  153.5753 H   0  0  0  0  0  0  0  0  0  0  0  0
  149.3711  138.4941  155.2840 H   0  0  0  0  0  0  0  0  0  0  0  0
  1  2  2  0  0  0  0
  2  3  1  0  0  0  0
  2 11  1  0  0  0  0
  3  4  1  0  0  0  0
  3 18  1  0  0  0  0
  4  5  1  0  0  0  0
  4 19  1  0  0  0  0
  4 20  1  0  0  0  0
  5  6  1  0  0  0  0
  5 21  1  0  0  0  0
  5 22  1  0  0  0  0
  6 10  1  0  0  0  0
  6  7  1  0  0  0  0
  7  8  2  0  0  0  0
  7 23  1  0  0  0  0
  8  9  1  0  0  0  0
  8 24  1  0  0  0  0
  9 10  2  0  0  0  0
 10 25  1  0  0  0  0
 11 12  1  0  0  0  0
 11 26  1  0  0  0  0
 12 13  1  0  0  0  0
 12 27  1  0  0  0  0
 12 28  1  0  0  0  0
 13 17  1  0  0  0  0
 13 14  1  0  0  0  0
 13 29  1  0  0  0  0
 14 15  1  0  0  0  0
 14 30  1  0  0  0  0
 14 31  1  0  0  0  0
 15 16  1  0  0  0  0
 15 32  1  0  0  0  0
 15 33  1  0  0  0  0
 16 17  1  0  0  0  0
 17 34  1  0  0  0  0
 17 35  1  0  0  0  0
M  END
> <s_m_source_file>
AV-unprocessed.smi

> <i_m_source_file_index>
3170

> <i_lp_mmshare_version>
43012

> <i_f3d_flags>
0

> <s_epik_input>
W0NIMl0xT1tDSDJdW0NIMl1bQ0BIXTFbQ0gyXVtOSF1DKD1PKVtOSF1bQ0gyXVtDSDJdbjJbY0hdW2NIXW5bY0hdMg==

> <s_epik_cmdline>
J2VwaWtfcHl0aG9uJywgJy1waCcsICc3LjAnLCAnLXRuJywgJzgnLCAnLW1hJywgJzIwMCcsICctbWV0YWxfYmluZGluZycsICctaW1hZScsICc8aW5maWxlLm1hZT4nLCAnLW9tYWUnLCAnPG91dGZpbGUubWFlPic=

> <r_lp_tautomer_probability>
1

> <r_epik_Ionization_Penalty>
0.621287

> <r_epik_Ionization_Penalty_Charging>
0.621234

> <r_epik_Ionization_Penalty_Neutral>
5.30999e-05

> <r_epik_State_Penalty>
0.637278

> <r_epik_Charging_Adjusted_Penalty>
1.25851

> <i_epik_Tot_Q>
0

> <i_epik_Tot_abs_Q>
0

> <r_epik_Metal_State_Penalty>
0.306756

> <b_epik_Metal_Only>
0

> <s_lp_Force_Field>
OPLS_2005

> <r_lp_Energy>
17.5777

> <b_lp_Chiralities_Consistent>
1

> <s_lp_Variant>
AV-unprocessed.smi:3170-3

> <Gold.Version>
5.8.1

> <Gold.Id.Protein>
6NUR|6NUR_protein|mol2

> <Gold.PLP.Fitness>
47.0900

> <Gold.PLP.PLP>
-30.3265

> <Gold.PLP.part.hbond>
-3.2797

> <Gold.PLP.part.metal>
0.0000

> <Gold.PLP.part.buried>
-4.6448

> <Gold.PLP.part.nonpolar>
-23.5583

> <Gold.PLP.part.repulsive>
0.3074

> <Gold.PLP.ligand.clash>
0.0000

> <Gold.PLP.ligand.torsion>
0.5042

> <Gold.PLP.Chemscore.Hbond>
2.9360

> <Gold.PLP.Chemscore.CHOScore>
2.9842

> <Gold.PLP.Chemscore.Metal>
0.0000

> <Gold.Chemscore.Hbonds>
donor molecule, donor type, donor heavy atom, donor atom, acceptor molecule, acceptor atom, score
      L1  H     3    18       P1  7948  0.93
      L1  H    11    26       P1  7948  0.99
      P1  H  7989  7998       L1    16  0.80
      L1  C     7    23       P1 10957  0.44
      L1  C     8    24       P1 10186  0.49
      L1  C    10    25       P1 10747  1.00

> <Gold.PLP.Chemscore.Internal.Correction>
0.0114

> <Gold.Rescore>
     Score         DG    S(hbond)    S(metal)    S(lipo)     H(rot)  DE(clash)    DE(int)     intcor
     13.54     -14.13       2.26        0.00      58.58       2.25       0.02       0.56       ----

> <Gold.Chemscore.Fitness>
13.5417

> <Gold.Chemscore.DG>
-14.1285

> <Gold.Chemscore.ZeroCoef>
-5.4800

> <Gold.Chemscore.Hbond>
2.2598

> <Gold.Chemscore.Metal>
0.0000

> <Gold.Chemscore.Lipo>
58.5802

> <Gold.Chemscore.Internal_Hbond>
0.0000

> <Gold.Chemscore.DEClash>
0.0239

> <Gold.Chemscore.DEInternal>
0.5628

> <Gold.Chemscore.Rot>
2.2474

> <Gold.Chemscore.Internal.Correction>
   9.000000E+99

> <Gold.Chemscore.Hbonds>
donor molecule, donor type, donor heavy atom, donor atom, acceptor molecule, acceptor atom, score
      L1  H     3    18       P1  7948  0.27
      L1  H    11    26       P1  7948  0.57
      P1  H  7989  7998       L1    16  0.12

> <Gold.Chemscore.Hbond.Weighted>
-7.5478

> <Gold.Chemscore.Metal.Weighted>
-0.0000

> <Gold.Chemscore.Lipo.Weighted>
-6.8539

> <Gold.Chemscore.Internal_Hbond.Weighted>
0.0000

> <Gold.Chemscore.DEClash.Weighted>
0.0239

> <Gold.Chemscore.DEInternal.Weighted>
0.5628

> <Gold.Chemscore.Rot.Weighted>
5.7532

> <Gold.Chemscore.Internal.Correction.Weighted>
   9.000000E+99

> <Gold.Protein.RotatedTorsions>
[ 6907 6896 6895 6894 ] final   96.21 input  -60.11 | X-H torsion
[ 7974 7965 7964 7962 ] final   32.89 input  175.53 | X-H torsion
[ 8008 7997 7996 7995 ] final   19.82 input   59.86 | X-H torsion
[ 10167 10162 10161 10158 ] final   76.36 input  -65.29 | X-H torsion
[ 10718 10713 10712 10709 ] final   29.27 input   66.30 | X-H torsion
[ 10763 10752 10751 10750 ] final  -13.84 input  -60.55 | X-H torsion
[ 11005 11000 10999 10996 ] final   84.56 input  -57.11 | X-H torsion

> <Gold.Protein.ActiveResidues>
 VAL166  LYS551  ARG553  GLY616  TRP617  ASP618  TYR619  PRO620  LYS621  CYS622 
 ASP623  PHE694  ASN695  SER759  ASP760  ASP761  ALA762  ILE779  LEU786  VAL792 
 PHE793  MET794  SER795  GLU796  ALA797  LYS798  CYS799  TRP800  GLU811  SER814 

> <Gold.Protein.RotatedAtoms>
  152.5437  134.0921  159.8281 H   0  0  0  0  0  0  0  0  0  0  0  0  # atno 6907 bound_to 6896
  151.1009  133.5237  159.2617 H   0  0  0  0  0  0  0  0  0  0  0  0  # atno 6908 bound_to 6896
  151.1992  135.0444  159.8919 H   0  0  0  0  0  0  0  0  0  0  0  0  # atno 6909 bound_to 6896
  146.1457  139.6468  142.9133 H   0  0  0  0  0  0  0  0  0  0  0  0  # atno 7974 bound_to 7965
  154.9264  140.3034  155.5190 H   0  0  0  0  0  0  0  0  0  0  0  0  # atno 8008 bound_to 7997
  156.3006  140.2362  156.4256 H   0  0  0  0  0  0  0  0  0  0  0  0  # atno 8009 bound_to 7997
  154.8280  140.0420  157.1446 H   0  0  0  0  0  0  0  0  0  0  0  0  # atno 8010 bound_to 7997
  139.9931  144.5742  150.7801 H   0  0  0  0  0  0  0  0  0  0  0  0  # atno 10167 bound_to 10162
  157.2444  130.7084  149.6374 H   0  0  0  0  0  0  0  0  0  0  0  0  # atno 10718 bound_to 10713
  153.5193  135.7016  153.5740 H   0  0  0  0  0  0  0  0  0  0  0  0  # atno 10763 bound_to 10752
  153.3796  135.3923  155.1847 H   0  0  0  0  0  0  0  0  0  0  0  0  # atno 10764 bound_to 10752
  154.8696  135.3832  154.4680 H   0  0  0  0  0  0  0  0  0  0  0  0  # atno 10765 bound_to 10752
  139.8997  134.8225  156.2461 H   0  0  0  0  0  0  0  0  0  0  0  0  # atno 11005 bound_to 11000
  145.4943  141.0438  143.2575 LP  0  0  0  0  0  0  0  0  0  0  0  0  # atno 17320 bound_to 7965
  144.7843  139.6459  143.7141 LP  0  0  0  0  0  0  0  0  0  0  0  0  # atno 17321 bound_to 7965
  140.7447  143.2865  151.3449 LP  0  0  0  0  0  0  0  0  0  0  0  0  # atno 17342 bound_to 10162
  139.6326  144.0692  152.2489 LP  0  0  0  0  0  0  0  0  0  0  0  0  # atno 17343 bound_to 10162
  155.9668  130.4448  150.5475 LP  0  0  0  0  0  0  0  0  0  0  0  0  # atno 17370 bound_to 10713
  157.3345  131.0705  151.1836 LP  0  0  0  0  0  0  0  0  0  0  0  0  # atno 17371 bound_to 10713
  141.0253  133.7018  156.1338 LP  0  0  0  0  0  0  0  0  0  0  0  0  # atno 17394 bound_to 11000
  140.7174  134.4395  157.5577 LP  0  0  0  0  0  0  0  0  0  0  0  0  # atno 17395 bound_to 11000

$$$$
