AV-unprocessed.smi:2478|AV-procd|sdf|9766|dock5
  -GOLD-   2272013413D 1   1.00000     0.00000
 Structure written by MMmdl.
 42 43  0  0  0  0  0  0  0  0  1 V2000
  147.7561  133.5701  162.1379 C   0  0  0  0  0  0  0  0  0  0  0  0
  146.7390  134.6527  161.7412 C   0  0  1  0  0  0  0  0  0  0  0  0
  145.3711  134.3789  162.3991 C   0  0  0  0  0  0  0  0  0  0  0  0
  144.3354  135.4537  162.0354 C   0  0  0  0  0  0  0  0  0  0  0  0
  144.8417  136.8547  162.4048 C   0  0  0  0  0  0  0  0  0  0  0  0
  146.1946  137.1410  161.7383 C   0  0  0  0  0  0  0  0  0  0  0  0
  147.2435  136.0687  162.1004 C   0  0  2  0  0  0  0  0  0  0  0  0
  148.4307  136.3191  161.3596 O   0  0  0  0  0  0  0  0  0  0  0  0
  148.3136  136.0569  159.9682 C   0  0  0  0  0  0  0  0  0  0  0  0
  149.4272  136.8006  159.2364 C   0  0  0  0  0  0  0  0  0  0  0  0
  150.2862  137.4000  159.8829 O   0  0  0  0  0  0  0  0  0  0  0  0
  149.3668  136.7510  157.8931 N   0  0  0  0  0  0  0  0  0  0  0  0
  150.2420  137.3417  156.9419 C   0  0  0  0  0  0  0  0  0  0  0  0
  151.0311  138.4084  157.2240 N   0  0  0  0  0  0  0  0  0  0  0  0
  151.8372  138.9067  156.2650 C   0  0  0  0  0  0  0  0  0  0  0  0
  151.9082  138.3709  154.9678 C   0  0  0  0  0  0  0  0  0  0  0  0
  151.0951  137.2660  154.6615 C   0  0  0  0  0  0  0  0  0  0  0  0
  150.2371  136.7415  155.6575 C   0  0  0  0  0  0  0  0  0  0  0  0
  149.4255  135.6512  155.4285 O   0  0  0  0  0  0  0  0  0  0  0  0
  149.9830  134.4933  154.9848 C   0  0  0  0  0  0  0  0  0  0  0  0
  150.7181  133.9155  155.9663 F   0  0  0  0  0  0  0  0  0  0  0  0
  149.0074  133.6210  154.6343 F   0  0  0  0  0  0  0  0  0  0  0  0
  147.9436  133.5782  163.2121 H   0  0  0  0  0  0  0  0  0  0  0  0
  148.7113  133.7175  161.6331 H   0  0  0  0  0  0  0  0  0  0  0  0
  147.3958  132.5763  161.8710 H   0  0  0  0  0  0  0  0  0  0  0  0
  146.6062  134.6032  160.6592 H   0  0  0  0  0  0  0  0  0  0  0  0
  145.0001  133.3997  162.0942 H   0  0  0  0  0  0  0  0  0  0  0  0
  145.4852  134.3403  163.4834 H   0  0  0  0  0  0  0  0  0  0  0  0
  144.1229  135.4109  160.9663 H   0  0  0  0  0  0  0  0  0  0  0  0
  143.3938  135.2515  162.5465 H   0  0  0  0  0  0  0  0  0  0  0  0
  144.1116  137.6060  162.1026 H   0  0  0  0  0  0  0  0  0  0  0  0
  144.9415  136.9363  163.4878 H   0  0  0  0  0  0  0  0  0  0  0  0
  146.0646  137.1728  160.6554 H   0  0  0  0  0  0  0  0  0  0  0  0
  146.5403  138.1312  162.0344 H   0  0  0  0  0  0  0  0  0  0  0  0
  147.4490  136.1002  163.1725 H   0  0  0  0  0  0  0  0  0  0  0  0
  148.4041  134.9915  159.7552 H   0  0  0  0  0  0  0  0  0  0  0  0
  147.3397  136.3881  159.6041 H   0  0  0  0  0  0  0  0  0  0  0  0
  148.5992  136.2230  157.5035 H   0  0  0  0  0  0  0  0  0  0  0  0
  152.4453  139.7554  156.5416 H   0  0  0  0  0  0  0  0  0  0  0  0
  152.5716  138.7945  154.2284 H   0  0  0  0  0  0  0  0  0  0  0  0
  151.1402  136.8308  153.6743 H   0  0  0  0  0  0  0  0  0  0  0  0
  150.6131  134.6576  154.1102 H   0  0  0  0  0  0  0  0  0  0  0  0
  1  2  1  0  0  0  0
  1 23  1  0  0  0  0
  1 24  1  0  0  0  0
  1 25  1  0  0  0  0
  2  7  1  0  0  0  0
  2  3  1  0  0  0  0
  2 26  1  0  0  0  0
  3  4  1  0  0  0  0
  3 27  1  0  0  0  0
  3 28  1  0  0  0  0
  4  5  1  0  0  0  0
  4 29  1  0  0  0  0
  4 30  1  0  0  0  0
  5  6  1  0  0  0  0
  5 31  1  0  0  0  0
  5 32  1  0  0  0  0
  6  7  1  0  0  0  0
  6 33  1  0  0  0  0
  6 34  1  0  0  0  0
  7  8  1  0  0  0  0
  7 35  1  0  0  0  0
  8  9  1  0  0  0  0
  9 10  1  0  0  0  0
  9 36  1  0  0  0  0
  9 37  1  0  0  0  0
 10 11  2  0  0  0  0
 10 12  1  0  0  0  0
 12 13  1  0  0  0  0
 12 38  1  0  0  0  0
 13 18  1  0  0  0  0
 13 14  2  0  0  0  0
 14 15  1  0  0  0  0
 15 16  2  0  0  0  0
 15 39  1  0  0  0  0
 16 17  1  0  0  0  0
 16 40  1  0  0  0  0
 17 18  2  0  0  0  0
 17 41  1  0  0  0  0
 18 19  1  0  0  0  0
 19 20  1  0  0  0  0
 20 21  1  0  0  0  0
 20 22  1  0  0  0  0
 20 42  1  0  0  0  0
M  END
> <s_m_source_file>
AV-unprocessed.smi

> <i_m_source_file_index>
2478

> <i_lp_mmshare_version>
43012

> <i_f3d_flags>
0

> <s_epik_input>
W0NIM11bQ0BASF0xW0NIMl1bQ0gyXVtDSDJdW0NIMl1bQ0BIXTFPW0NIMl1DKD1PKVtOSF1jMm5bY0hdW2NIXVtjSF1jMk9bQ0hdKEYpRg==

> <s_epik_cmdline>
J2VwaWtfcHl0aG9uJywgJy1waCcsICc3LjAnLCAnLXRuJywgJzgnLCAnLW1hJywgJzIwMCcsICctbWV0YWxfYmluZGluZycsICctaW1hZScsICc8aW5maWxlLm1hZT4nLCAnLW9tYWUnLCAnPG91dGZpbGUubWFlPic=

> <r_lp_tautomer_probability>
1

> <r_epik_Ionization_Penalty>
6.06012e-05

> <r_epik_Ionization_Penalty_Charging>
0

> <r_epik_Ionization_Penalty_Neutral>
6.06012e-05

> <r_epik_State_Penalty>
-0

> <r_epik_Charging_Adjusted_Penalty>
0

> <i_epik_Tot_Q>
0

> <i_epik_Tot_abs_Q>
0

> <r_epik_Metal_State_Penalty>
-0

> <b_epik_Metal_Only>
0

> <s_lp_Force_Field>
OPLS_2005

> <r_lp_Energy>
13.1013

> <b_lp_Chiralities_Consistent>
1

> <s_lp_Variant>
AV-unprocessed.smi:2478-4

> <Gold.Version>
5.8.1

> <Gold.Id.Protein>
6NUR|6NUR_protein|mol2

> <Gold.PLP.Fitness>
39.8837

> <Gold.PLP.PLP>
-37.5010

> <Gold.PLP.part.hbond>
-2.0000

> <Gold.PLP.part.metal>
0.0000

> <Gold.PLP.part.buried>
-4.6802

> <Gold.PLP.part.nonpolar>
-31.2822

> <Gold.PLP.part.repulsive>
0.1800

> <Gold.PLP.ligand.clash>
0.0000

> <Gold.PLP.ligand.torsion>
0.3473

> <Gold.PLP.Chemscore.Hbond>
1.0000

> <Gold.PLP.Chemscore.CHOScore>
0.0000

> <Gold.PLP.Chemscore.Metal>
0.0000

> <Gold.Chemscore.Hbonds>
donor molecule, donor type, donor heavy atom, donor atom, acceptor molecule, acceptor atom, score
      P1  H  6931  6943       L1     8  0.84

> <Gold.PLP.Chemscore.Internal.Correction>
0.0772

> <Gold.Rescore>
     Score         DG    S(hbond)    S(metal)    S(lipo)     H(rot)  DE(clash)    DE(int)     intcor
     11.64     -13.12       0.80        0.00      82.90       1.85       0.04       1.44       ----

> <Gold.Chemscore.Fitness>
11.6356

> <Gold.Chemscore.DG>
-13.1199

> <Gold.Chemscore.ZeroCoef>
-5.4800

> <Gold.Chemscore.Hbond>
0.7997

> <Gold.Chemscore.Metal>
0.0000

> <Gold.Chemscore.Lipo>
82.9049

> <Gold.Chemscore.Internal_Hbond>
0.0000

> <Gold.Chemscore.DEClash>
0.0396

> <Gold.Chemscore.DEInternal>
1.4446

> <Gold.Chemscore.Rot>
1.8481

> <Gold.Chemscore.Internal.Correction>
   9.000000E+99

> <Gold.Chemscore.Hbonds>
donor molecule, donor type, donor heavy atom, donor atom, acceptor molecule, acceptor atom, score
      P1  H  6931  6943       L1     8  0.44

> <Gold.Chemscore.Hbond.Weighted>
-2.6711

> <Gold.Chemscore.Metal.Weighted>
-0.0000

> <Gold.Chemscore.Lipo.Weighted>
-9.6999

> <Gold.Chemscore.Internal_Hbond.Weighted>
0.0000

> <Gold.Chemscore.DEClash.Weighted>
0.0396

> <Gold.Chemscore.DEInternal.Weighted>
1.4446

> <Gold.Chemscore.Rot.Weighted>
4.7311

> <Gold.Chemscore.Internal.Correction.Weighted>
   9.000000E+99

> <Gold.Protein.RotatedTorsions>
[ 6907 6896 6895 6894 ] final  -55.28 input  -60.11 | X-H torsion
[ 7974 7965 7964 7962 ] final  -68.49 input  175.53 | X-H torsion
[ 8008 7997 7996 7995 ] final   56.59 input   59.86 | X-H torsion
[ 10167 10162 10161 10158 ] final  -29.24 input  -65.29 | X-H torsion
[ 10718 10713 10712 10709 ] final   49.76 input   66.30 | X-H torsion
[ 10763 10752 10751 10750 ] final  160.20 input  -60.55 | X-H torsion
[ 11005 11000 10999 10996 ] final  114.47 input  -57.11 | X-H torsion

> <Gold.Protein.ActiveResidues>
 VAL166  LYS551  ARG553  GLY616  TRP617  ASP618  TYR619  PRO620  LYS621  CYS622 
 ASP623  PHE694  ASN695  SER759  ASP760  ASP761  ALA762  ILE779  LEU786  VAL792 
 PHE793  MET794  SER795  GLU796  ALA797  LYS798  CYS799  TRP800  GLU811  SER814 

> <Gold.Protein.RotatedAtoms>
  150.8265  134.7498  159.6816 H   0  0  0  0  0  0  0  0  0  0  0  0  # atno 6907 bound_to 6896
  152.4375  134.5654  159.9916 H   0  0  0  0  0  0  0  0  0  0  0  0  # atno 6908 bound_to 6896
  151.5825  133.3338  159.3047 H   0  0  0  0  0  0  0  0  0  0  0  0  # atno 6909 bound_to 6896
  145.7159  140.9059  143.0656 H   0  0  0  0  0  0  0  0  0  0  0  0  # atno 7974 bound_to 7965
  155.5200  140.3479  155.4405 H   0  0  0  0  0  0  0  0  0  0  0  0  # atno 8008 bound_to 7997
  156.0791  140.1382  156.9762 H   0  0  0  0  0  0  0  0  0  0  0  0  # atno 8009 bound_to 7997
  154.4570  140.0950  156.6760 H   0  0  0  0  0  0  0  0  0  0  0  0  # atno 8010 bound_to 7997
  140.7262  143.3945  151.1372 H   0  0  0  0  0  0  0  0  0  0  0  0  # atno 10167 bound_to 10162
  157.4818  130.8320  149.8102 H   0  0  0  0  0  0  0  0  0  0  0  0  # atno 10718 bound_to 10713
  154.2437  135.2774  155.2844 H   0  0  0  0  0  0  0  0  0  0  0  0  # atno 10763 bound_to 10752
  154.5523  135.5671  153.6936 H   0  0  0  0  0  0  0  0  0  0  0  0  # atno 10764 bound_to 10752
  152.9994  135.6277  154.2582 H   0  0  0  0  0  0  0  0  0  0  0  0  # atno 10765 bound_to 10752
  139.8981  134.9568  156.6896 H   0  0  0  0  0  0  0  0  0  0  0  0  # atno 11005 bound_to 11000
  144.6929  139.9137  143.7464 LP  0  0  0  0  0  0  0  0  0  0  0  0  # atno 17320 bound_to 7965
  146.0670  139.3661  143.0546 LP  0  0  0  0  0  0  0  0  0  0  0  0  # atno 17321 bound_to 7965
  139.7555  143.8714  152.3087 LP  0  0  0  0  0  0  0  0  0  0  0  0  # atno 17342 bound_to 10162
  139.8582  144.7130  150.9131 LP  0  0  0  0  0  0  0  0  0  0  0  0  # atno 17343 bound_to 10162
  156.0125  130.3827  150.2216 LP  0  0  0  0  0  0  0  0  0  0  0  0  # atno 17370 bound_to 10713
  157.0402  131.0033  151.3286 LP  0  0  0  0  0  0  0  0  0  0  0  0  # atno 17371 bound_to 10713
  140.7235  133.9120  155.8163 LP  0  0  0  0  0  0  0  0  0  0  0  0  # atno 17394 bound_to 11000
  141.0209  134.0890  157.4121 LP  0  0  0  0  0  0  0  0  0  0  0  0  # atno 17395 bound_to 11000

$$$$
