AV-unprocessed.smi:1734|AV-procd|sdf|6985|dock1
  -GOLD-   22720 8203D 1   1.00000     0.00000
 Structure written by MMmdl.
 51 53  0  0  0  0  0  0  0  0  2 V2000
  143.9830  135.5286  151.6769 C   0  0  0  0  0  0  0  0  0  0  0  0
  144.6531  134.1858  151.4343 C   0  0  0  0  0  0  0  0  0  0  0  0
  143.9322  133.1618  150.7836 C   0  0  0  0  0  0  0  0  0  0  0  0
  144.5537  131.9214  150.5600 C   0  0  0  0  0  0  0  0  0  0  0  0
  145.8783  131.7561  150.9999 C   0  0  0  0  0  0  0  0  0  0  0  0
  146.5747  132.7296  151.6219 N   0  0  0  0  0  0  0  0  0  0  0  0
  145.9893  133.9327  151.8458 C   0  0  0  0  0  0  0  0  0  0  0  0
  146.6629  135.0045  152.4975 N   0  0  0  0  0  0  0  0  0  0  0  0
  146.2861  135.6858  153.5939 C   0  0  0  0  0  0  0  0  0  0  0  0
  145.2548  135.4921  154.2381 O   0  0  0  0  0  0  0  0  0  0  0  0
  147.1926  136.6173  153.9231 N   0  0  0  0  0  0  0  0  0  0  0  0
  147.0894  137.5044  155.0763 C   0  0  0  0  0  0  0  0  0  0  0  0
  148.1855  137.2616  156.1539 C   0  0  1  0  0  0  0  0  0  0  0  0
  148.5857  135.7678  156.3214 C   0  0  2  0  0  0  0  0  0  0  0  0
  147.5068  134.8467  156.8734 C   0  0  0  0  0  0  0  0  0  0  0  0
  148.2930  133.6806  157.4742 C   0  0  0  0  0  0  0  0  0  0  0  0
  149.6308  134.1397  157.6315 O   0  0  0  0  0  0  0  0  0  0  0  0
  149.6852  135.5311  157.3604 C   0  0  0  0  0  0  0  0  0  0  0  0
  149.4038  138.0878  155.8993 N   0  3  0  0  0  0  0  0  0  0  0  0
  150.2601  137.6587  154.7643 C   0  0  0  0  0  0  0  0  0  0  0  0
  151.5548  138.4876  154.7440 C   0  0  0  0  0  0  0  0  0  0  0  0
  151.2323  139.8704  154.6539 O   0  0  0  0  0  0  0  0  0  0  0  0
  150.4731  140.3177  155.7712 C   0  0  0  0  0  0  0  0  0  0  0  0
  149.1437  139.5472  155.8382 C   0  0  0  0  0  0  0  0  0  0  0  0
  142.9697  135.5459  151.2743 H   0  0  0  0  0  0  0  0  0  0  0  0
  144.5474  136.3290  151.1973 H   0  0  0  0  0  0  0  0  0  0  0  0
  143.9231  135.7374  152.7455 H   0  0  0  0  0  0  0  0  0  0  0  0
  142.9147  133.3218  150.4581 H   0  0  0  0  0  0  0  0  0  0  0  0
  144.0288  131.1178  150.0648 H   0  0  0  0  0  0  0  0  0  0  0  0
  146.3932  130.8190  150.8488 H   0  0  0  0  0  0  0  0  0  0  0  0
  147.5416  135.2756  152.0820 H   0  0  0  0  0  0  0  0  0  0  0  0
  148.0112  136.7160  153.3402 H   0  0  0  0  0  0  0  0  0  0  0  0
  147.1494  138.5260  154.7009 H   0  0  0  0  0  0  0  0  0  0  0  0
  146.0909  137.3952  155.5012 H   0  0  0  0  0  0  0  0  0  0  0  0
  147.7938  137.5878  157.1185 H   0  0  0  0  0  0  0  0  0  0  0  0
  148.9214  135.3621  155.3662 H   0  0  0  0  0  0  0  0  0  0  0  0
  146.9434  135.3505  157.6603 H   0  0  0  0  0  0  0  0  0  0  0  0
  146.8006  134.5108  156.1140 H   0  0  0  0  0  0  0  0  0  0  0  0
  147.8747  133.3684  158.4316 H   0  0  0  0  0  0  0  0  0  0  0  0
  148.2921  132.8183  156.8067 H   0  0  0  0  0  0  0  0  0  0  0  0
  150.6748  135.8193  157.0045 H   0  0  0  0  0  0  0  0  0  0  0  0
  149.4794  136.0814  158.2802 H   0  0  0  0  0  0  0  0  0  0  0  0
  150.5079  136.6009  154.8490 H   0  0  0  0  0  0  0  0  0  0  0  0
  149.7329  137.7930  153.8192 H   0  0  0  0  0  0  0  0  0  0  0  0
  152.1547  138.2975  155.6355 H   0  0  0  0  0  0  0  0  0  0  0  0
  152.1652  138.2105  153.8843 H   0  0  0  0  0  0  0  0  0  0  0  0
  151.0463  140.1857  156.6903 H   0  0  0  0  0  0  0  0  0  0  0  0
  150.2835  141.3860  155.6648 H   0  0  0  0  0  0  0  0  0  0  0  0
  148.5356  139.7871  154.9657 H   0  0  0  0  0  0  0  0  0  0  0  0
  148.5825  139.8658  156.7175 H   0  0  0  0  0  0  0  0  0  0  0  0
  149.9711  137.9652  156.7259 H   0  0  0  0  0  0  0  0  0  0  0  0
  1  2  1  0  0  0  0
  1 25  1  0  0  0  0
  1 26  1  0  0  0  0
  1 27  1  0  0  0  0
  2  7  1  0  0  0  0
  2  3  2  0  0  0  0
  3  4  1  0  0  0  0
  3 28  1  0  0  0  0
  4  5  2  0  0  0  0
  4 29  1  0  0  0  0
  5  6  1  0  0  0  0
  5 30  1  0  0  0  0
  6  7  2  0  0  0  0
  7  8  1  0  0  0  0
  8  9  1  0  0  0  0
  8 31  1  0  0  0  0
  9 10  2  0  0  0  0
  9 11  1  0  0  0  0
 11 12  1  0  0  0  0
 11 32  1  0  0  0  0
 12 13  1  0  0  0  0
 12 33  1  0  0  0  0
 12 34  1  0  0  0  0
 13 14  1  0  0  0  0
 13 19  1  0  0  0  0
 13 35  1  0  0  0  0
 14 18  1  0  0  0  0
 14 15  1  0  0  0  0
 14 36  1  0  0  0  0
 15 16  1  0  0  0  0
 15 37  1  0  0  0  0
 15 38  1  0  0  0  0
 16 17  1  0  0  0  0
 16 39  1  0  0  0  0
 16 40  1  0  0  0  0
 17 18  1  0  0  0  0
 18 41  1  0  0  0  0
 18 42  1  0  0  0  0
 19 24  1  0  0  0  0
 19 20  1  0  0  0  0
 19 51  1  0  0  0  0
 20 21  1  0  0  0  0
 20 43  1  0  0  0  0
 20 44  1  0  0  0  0
 21 22  1  0  0  0  0
 21 45  1  0  0  0  0
 21 46  1  0  0  0  0
 22 23  1  0  0  0  0
 23 24  1  0  0  0  0
 23 47  1  0  0  0  0
 23 48  1  0  0  0  0
 24 49  1  0  0  0  0
 24 50  1  0  0  0  0
M  CHG  1  19   1
M  END
> <s_m_source_file>
AV-unprocessed.smi

> <i_m_source_file_index>
1734

> <i_lp_mmshare_version>
43012

> <i_f3d_flags>
0

> <s_epik_input>
W0NIM11jMVtjSF1bY0hdW2NIXW5jMVtOSF1DKD1PKVtOSF1bQ0gyXVtDQEhdKFtDQEBIXTJbQ0gyXVtDSDJdT1tDSDJdMilOM1tDSDJdW0NIMl1PW0NIMl1bQ0gyXTM=

> <s_epik_cmdline>
J2VwaWtfcHl0aG9uJywgJy1waCcsICc3LjAnLCAnLXRuJywgJzgnLCAnLW1hJywgJzIwMCcsICctbWV0YWxfYmluZGluZycsICctaW1hZScsICc8aW5maWxlLm1hZT4nLCAnLW9tYWUnLCAnPG91dGZpbGUubWFlPic=

> <r_epik_Ionization_Penalty>
0.983302

> <r_epik_Ionization_Penalty_Charging>
0.98326

> <r_epik_Ionization_Penalty_Neutral>
4.21967e-05

> <r_epik_State_Penalty>
1.0303

> <r_epik_Charging_Adjusted_Penalty>
2.01356

> <i_epik_Tot_Q>
1

> <i_epik_Tot_abs_Q>
1

> <r_epik_Metal_State_Penalty>
1.03031

> <b_epik_Metal_Only>
0

> <s_lp_Force_Field>
OPLS_2005

> <r_lp_Energy>
39.7986

> <b_lp_Chiralities_Consistent>
1

> <s_lp_Variant>
AV-unprocessed.smi:1734-6

> <Gold.Version>
5.8.1

> <Gold.Id.Protein>
6NUR|6NUR_protein|mol2

> <Gold.PLP.Fitness>
42.5330

> <Gold.PLP.PLP>
-29.3987

> <Gold.PLP.part.hbond>
-4.0000

> <Gold.PLP.part.metal>
0.0000

> <Gold.PLP.part.buried>
-5.7438

> <Gold.PLP.part.nonpolar>
-21.0941

> <Gold.PLP.part.repulsive>
0.3049

> <Gold.PLP.ligand.clash>
0.0000

> <Gold.PLP.ligand.torsion>
0.9730

> <Gold.PLP.Chemscore.Hbond>
3.9840

> <Gold.PLP.Chemscore.CHOScore>
0.8353

> <Gold.PLP.Chemscore.Metal>
0.0000

> <Gold.Chemscore.Hbonds>
donor molecule, donor type, donor heavy atom, donor atom, acceptor molecule, acceptor atom, score
      L1  H     8    31       P1  7948  1.00
      L1  H    11    32       P1  7948  0.99
      P1  H  6896  6907       L1    17  1.00
      P1  H  7989  7998       L1    22  1.00
      L1  C     5    30       P1 10747  0.58

> <Gold.PLP.Chemscore.Internal.Correction>
0.6223

> <Gold.Rescore>
     Score         DG    S(hbond)    S(metal)    S(lipo)     H(rot)  DE(clash)    DE(int)     intcor
     19.87     -21.04       3.47        0.00      71.15       1.70       0.06       1.11       ----

> <Gold.Chemscore.Fitness>
19.8731

> <Gold.Chemscore.DG>
-21.0361

> <Gold.Chemscore.ZeroCoef>
-5.4800

> <Gold.Chemscore.Hbond>
3.4670

> <Gold.Chemscore.Metal>
0.0000

> <Gold.Chemscore.Lipo>
71.1525

> <Gold.Chemscore.Internal_Hbond>
0.0000

> <Gold.Chemscore.DEClash>
0.0563

> <Gold.Chemscore.DEInternal>
1.1067

> <Gold.Chemscore.Rot>
1.6986

> <Gold.Chemscore.Internal.Correction>
   9.000000E+99

> <Gold.Chemscore.Hbonds>
donor molecule, donor type, donor heavy atom, donor atom, acceptor molecule, acceptor atom, score
      L1  H     8    31       P1  7948  0.98
      L1  H    11    32       P1  7948  0.94
      P1  H  6896  6907       L1    17  0.55
      P1  H  7989  7998       L1    22  0.96

> <Gold.Chemscore.Hbond.Weighted>
-11.5798

> <Gold.Chemscore.Metal.Weighted>
-0.0000

> <Gold.Chemscore.Lipo.Weighted>
-8.3248

> <Gold.Chemscore.Internal_Hbond.Weighted>
0.0000

> <Gold.Chemscore.DEClash.Weighted>
0.0563

> <Gold.Chemscore.DEInternal.Weighted>
1.1067

> <Gold.Chemscore.Rot.Weighted>
4.3485

> <Gold.Chemscore.Internal.Correction.Weighted>
   9.000000E+99

> <Gold.Protein.RotatedTorsions>
[ 6907 6896 6895 6894 ] final -119.71 input  -60.11 | X-H torsion
[ 7974 7965 7964 7962 ] final  -84.42 input  175.53 | X-H torsion
[ 8008 7997 7996 7995 ] final  125.12 input   59.86 | X-H torsion
[ 10167 10162 10161 10158 ] final  -93.36 input  -65.29 | X-H torsion
[ 10718 10713 10712 10709 ] final -129.98 input   66.30 | X-H torsion
[ 10763 10752 10751 10750 ] final -137.42 input  -60.55 | X-H torsion
[ 11005 11000 10999 10996 ] final   25.77 input  -57.11 | X-H torsion

> <Gold.Protein.ActiveResidues>
 VAL166  LYS551  ARG553  GLY616  TRP617  ASP618  TYR619  PRO620  LYS621  CYS622 
 ASP623  PHE694  ASN695  SER759  ASP760  ASP761  ALA762  ILE779  LEU786  VAL792 
 PHE793  MET794  SER795  GLU796  ALA797  LYS798  CYS799  TRP800  GLU811  SER814 

> <Gold.Protein.RotatedAtoms>
  150.8329  133.8062  159.3091 H   0  0  0  0  0  0  0  0  0  0  0  0  # atno 6907 bound_to 6896
  151.5786  135.1058  160.0021 H   0  0  0  0  0  0  0  0  0  0  0  0  # atno 6908 bound_to 6896
  152.4405  133.7398  159.6691 H   0  0  0  0  0  0  0  0  0  0  0  0  # atno 6909 bound_to 6896
  145.5069  140.9543  143.1729 H   0  0  0  0  0  0  0  0  0  0  0  0  # atno 7974 bound_to 7965
  156.2824  140.2724  156.1898 H   0  0  0  0  0  0  0  0  0  0  0  0  # atno 8008 bound_to 7997
  155.0470  140.0386  157.2548 H   0  0  0  0  0  0  0  0  0  0  0  0  # atno 8009 bound_to 7997
  154.7227  140.2691  155.6532 H   0  0  0  0  0  0  0  0  0  0  0  0  # atno 8010 bound_to 7997
  140.3255  143.3025  152.0000 H   0  0  0  0  0  0  0  0  0  0  0  0  # atno 10167 bound_to 10162
  156.2100  130.6912  151.0638 H   0  0  0  0  0  0  0  0  0  0  0  0  # atno 10718 bound_to 10713
  154.8662  135.3643  154.5219 H   0  0  0  0  0  0  0  0  0  0  0  0  # atno 10763 bound_to 10752
  153.5849  135.7017  153.5452 H   0  0  0  0  0  0  0  0  0  0  0  0  # atno 10764 bound_to 10752
  153.3424  135.4094  155.1544 H   0  0  0  0  0  0  0  0  0  0  0  0  # atno 10765 bound_to 10752
  140.3442  134.2300  155.7686 H   0  0  0  0  0  0  0  0  0  0  0  0  # atno 11005 bound_to 11000
  144.7749  139.6652  143.7179 LP  0  0  0  0  0  0  0  0  0  0  0  0  # atno 17320 bound_to 7965
  146.2191  139.5603  142.9630 LP  0  0  0  0  0  0  0  0  0  0  0  0  # atno 17321 bound_to 7965
  139.4866  144.6277  151.7132 LP  0  0  0  0  0  0  0  0  0  0  0  0  # atno 17342 bound_to 10162
  140.5445  144.0526  150.6101 LP  0  0  0  0  0  0  0  0  0  0  0  0  # atno 17343 bound_to 10162
  157.7033  131.0767  150.6749 LP  0  0  0  0  0  0  0  0  0  0  0  0  # atno 17370 bound_to 10713
  156.6809  130.4567  149.5628 LP  0  0  0  0  0  0  0  0  0  0  0  0  # atno 17371 bound_to 10713
  141.2030  133.7923  157.0361 LP  0  0  0  0  0  0  0  0  0  0  0  0  # atno 17394 bound_to 11000
  140.0756  134.9677  157.1540 LP  0  0  0  0  0  0  0  0  0  0  0  0  # atno 17395 bound_to 11000

$$$$
