AV-unprocessed.smi:3031|AV-procd|sdf|11542|dock10
  -GOLD-   2272016493D 1   1.00000     0.00000
 Structure written by MMmdl.
 47 48  0  0  0  0  0  0  0  0  2 V2000
  144.8031  130.7876  151.4006 C   0  0  0  0  0  0  0  0  0  0  0  0
  144.7839  132.2476  151.7503 C   0  0  0  0  0  0  0  0  0  0  0  0
  143.6796  133.1456  151.7025 C   0  0  0  0  0  0  0  0  0  0  0  0
  143.9977  134.3719  152.0846 N   0  0  0  0  0  0  0  0  0  0  0  0
  145.3116  134.3003  152.3875 N   0  0  0  0  0  0  0  0  0  0  0  0
  146.0055  135.4780  152.8763 C   0  0  0  0  0  0  0  0  0  0  0  0
  145.5993  136.7687  152.1309 C   0  0  1  0  0  0  0  0  0  0  0  0
  144.1903  137.2120  152.5468 C   0  0  0  0  0  0  0  0  0  0  0  0
  146.5567  137.8675  152.3951 N   0  3  0  0  0  0  0  0  0  0  0  0
  146.4950  138.4425  153.7565 C   0  0  0  0  0  0  0  0  0  0  0  0
  147.7764  139.2251  154.0894 C   0  0  2  0  0  0  0  0  0  0  0  0
  147.9400  140.2122  153.0902 O   0  0  0  0  0  0  0  0  0  0  0  0
  149.0764  138.3903  154.1106 C   0  0  0  0  0  0  0  0  0  0  0  0
  150.3188  139.1548  154.2614 N   0  0  0  0  0  0  0  0  0  0  0  0
  150.3525  139.9406  155.4963 C   0  0  0  0  0  0  0  0  0  0  0  0
  151.6659  140.7286  155.6399 C   0  0  0  0  0  0  0  0  0  0  0  0
  152.7675  139.8287  155.5994 O   0  0  0  0  0  0  0  0  0  0  0  0
  152.8015  139.0587  154.4029 C   0  0  0  0  0  0  0  0  0  0  0  0
  151.4853  138.2750  154.2570 C   0  0  0  0  0  0  0  0  0  0  0  0
  145.8128  133.0315  152.1895 C   0  0  0  0  0  0  0  0  0  0  0  0
  143.8532  130.4582  150.9793 H   0  0  0  0  0  0  0  0  0  0  0  0
  144.9979  130.1683  152.2761 H   0  0  0  0  0  0  0  0  0  0  0  0
  145.5757  130.5597  150.6665 H   0  0  0  0  0  0  0  0  0  0  0  0
  142.6606  132.9415  151.4077 H   0  0  0  0  0  0  0  0  0  0  0  0
  145.7805  135.5753  153.9391 H   0  0  0  0  0  0  0  0  0  0  0  0
  147.0822  135.3144  152.8032 H   0  0  0  0  0  0  0  0  0  0  0  0
  145.5708  136.5691  151.0583 H   0  0  0  0  0  0  0  0  0  0  0  0
  143.4554  136.4350  152.3344 H   0  0  0  0  0  0  0  0  0  0  0  0
  143.8843  138.1079  152.0054 H   0  0  0  0  0  0  0  0  0  0  0  0
  144.1405  137.4335  153.6135 H   0  0  0  0  0  0  0  0  0  0  0  0
  147.4936  137.5130  152.2647 H   0  0  0  0  0  0  0  0  0  0  0  0
  145.6414  139.1101  153.7901 H   0  0  0  0  0  0  0  0  0  0  0  0
  146.3157  137.6529  154.4876 H   0  0  0  0  0  0  0  0  0  0  0  0
  147.6624  139.7317  155.0489 H   0  0  0  0  0  0  0  0  0  0  0  0
  148.5618  139.8947  152.4525 H   0  0  0  0  0  0  0  0  0  0  0  0
  149.0179  137.6006  154.8613 H   0  0  0  0  0  0  0  0  0  0  0  0
  149.1125  137.8661  153.1538 H   0  0  0  0  0  0  0  0  0  0  0  0
  149.5238  140.6404  155.5441 H   0  0  0  0  0  0  0  0  0  0  0  0
  150.2406  139.2790  156.3570 H   0  0  0  0  0  0  0  0  0  0  0  0
  151.7624  141.4689  154.8444 H   0  0  0  0  0  0  0  0  0  0  0  0
  151.6827  141.2696  156.5860 H   0  0  0  0  0  0  0  0  0  0  0  0
  152.9584  139.7138  153.5445 H   0  0  0  0  0  0  0  0  0  0  0  0
  153.6488  138.3739  154.4434 H   0  0  0  0  0  0  0  0  0  0  0  0
  151.4055  137.5479  155.0671 H   0  0  0  0  0  0  0  0  0  0  0  0
  151.5157  137.7043  153.3281 H   0  0  0  0  0  0  0  0  0  0  0  0
  146.8478  132.7914  152.3842 H   0  0  0  0  0  0  0  0  0  0  0  0
  146.3965  138.6008  151.7192 H   0  0  0  0  0  0  0  0  0  0  0  0
  1  2  1  0  0  0  0
  1 21  1  0  0  0  0
  1 22  1  0  0  0  0
  1 23  1  0  0  0  0
  2 20  2  0  0  0  0
  2  3  1  0  0  0  0
  3  4  2  0  0  0  0
  3 24  1  0  0  0  0
  4  5  1  0  0  0  0
  5  6  1  0  0  0  0
  5 20  1  0  0  0  0
  6  7  1  0  0  0  0
  6 25  1  0  0  0  0
  6 26  1  0  0  0  0
  7  8  1  0  0  0  0
  7  9  1  0  0  0  0
  7 27  1  0  0  0  0
  8 28  1  0  0  0  0
  8 29  1  0  0  0  0
  8 30  1  0  0  0  0
  9 10  1  0  0  0  0
  9 31  1  0  0  0  0
  9 47  1  0  0  0  0
 10 11  1  0  0  0  0
 10 32  1  0  0  0  0
 10 33  1  0  0  0  0
 11 12  1  0  0  0  0
 11 13  1  0  0  0  0
 11 34  1  0  0  0  0
 12 35  1  0  0  0  0
 13 14  1  0  0  0  0
 13 36  1  0  0  0  0
 13 37  1  0  0  0  0
 14 19  1  0  0  0  0
 14 15  1  0  0  0  0
 15 16  1  0  0  0  0
 15 38  1  0  0  0  0
 15 39  1  0  0  0  0
 16 17  1  0  0  0  0
 16 40  1  0  0  0  0
 16 41  1  0  0  0  0
 17 18  1  0  0  0  0
 18 19  1  0  0  0  0
 18 42  1  0  0  0  0
 18 43  1  0  0  0  0
 19 44  1  0  0  0  0
 19 45  1  0  0  0  0
 20 46  1  0  0  0  0
M  CHG  1   9   1
M  END
> <s_m_source_file>
AV-unprocessed.smi

> <i_m_source_file_index>
3031

> <i_lp_mmshare_version>
43012

> <i_f3d_flags>
0

> <s_epik_input>
W0NIM11jMVtjSF1ubihbY0hdMSlbQ0gyXVtDQEhdKFtDSDNdKVtOSF1bQ0gyXVtDQEhdKFtPSF0pW0NIMl1OMltDSDJdW0NIMl1PW0NIMl1bQ0gyXTI=

> <s_epik_cmdline>
J2VwaWtfcHl0aG9uJywgJy1waCcsICc3LjAnLCAnLXRuJywgJzgnLCAnLW1hJywgJzIwMCcsICctbWV0YWxfYmluZGluZycsICctaW1hZScsICc8aW5maWxlLm1hZT4nLCAnLW9tYWUnLCAnPG91dGZpbGUubWFlPic=

> <r_lp_tautomer_probability>
1

> <r_epik_Ionization_Penalty>
0.108564

> <r_epik_Ionization_Penalty_Charging>
0.01811

> <r_epik_Ionization_Penalty_Neutral>
0.0904541

> <r_epik_State_Penalty>
0.141043

> <r_epik_Charging_Adjusted_Penalty>
0.159153

> <i_epik_Tot_Q>
1

> <i_epik_Tot_abs_Q>
1

> <r_epik_Metal_State_Penalty>
0.141052

> <b_epik_Metal_Only>
0

> <s_lp_Force_Field>
OPLS_2005

> <r_lp_Energy>
29.6303

> <b_lp_Chiralities_Consistent>
1

> <s_lp_Variant>
AV-unprocessed.smi:3031-2

> <Gold.Version>
5.8.1

> <Gold.Id.Protein>
6NUR|6NUR_protein|mol2

> <Gold.PLP.Fitness>
45.8966

> <Gold.PLP.PLP>
-31.9319

> <Gold.PLP.part.hbond>
-3.0000

> <Gold.PLP.part.metal>
0.0000

> <Gold.PLP.part.buried>
-2.3583

> <Gold.PLP.part.nonpolar>
-26.8954

> <Gold.PLP.part.repulsive>
0.3770

> <Gold.PLP.ligand.clash>
0.0000

> <Gold.PLP.ligand.torsion>
0.5368

> <Gold.PLP.Chemscore.Hbond>
4.0000

> <Gold.PLP.Chemscore.CHOScore>
0.9825

> <Gold.PLP.Chemscore.Metal>
0.0000

> <Gold.Chemscore.Hbonds>
donor molecule, donor type, donor heavy atom, donor atom, acceptor molecule, acceptor atom, score
      L1  H     9    31       P1  7948  2.00
      L1  H    12    35       P1  7957  1.00
      P1  H  7989  7998       L1    14  0.03
      P1  H  7997  8008       L1    17  1.00
      L1  C     3    24       P1 10186  0.11

> <Gold.PLP.Chemscore.Internal.Correction>
0.0907

> <Gold.Rescore>
     Score         DG    S(hbond)    S(metal)    S(lipo)     H(rot)  DE(clash)    DE(int)     intcor
     15.17     -18.54       2.71        0.00      91.74       2.63       1.97       1.39       ----

> <Gold.Chemscore.Fitness>
15.1730

> <Gold.Chemscore.DG>
-18.5357

> <Gold.Chemscore.ZeroCoef>
-5.4800

> <Gold.Chemscore.Hbond>
2.7088

> <Gold.Chemscore.Metal>
0.0000

> <Gold.Chemscore.Lipo>
91.7378

> <Gold.Chemscore.Internal_Hbond>
0.0000

> <Gold.Chemscore.DEClash>
1.9696

> <Gold.Chemscore.DEInternal>
1.3931

> <Gold.Chemscore.Rot>
2.6270

> <Gold.Chemscore.Internal.Correction>
   9.000000E+99

> <Gold.Chemscore.Hbonds>
donor molecule, donor type, donor heavy atom, donor atom, acceptor molecule, acceptor atom, score
      L1  H     9    31       P1  7948  0.98
      L1  H    12    35       P1  7957  0.98
      P1  H  7997  8008       L1    17  0.85

> <Gold.Chemscore.Hbond.Weighted>
-9.0475

> <Gold.Chemscore.Metal.Weighted>
-0.0000

> <Gold.Chemscore.Lipo.Weighted>
-10.7333

> <Gold.Chemscore.Internal_Hbond.Weighted>
0.0000

> <Gold.Chemscore.DEClash.Weighted>
1.9696

> <Gold.Chemscore.DEInternal.Weighted>
1.3931

> <Gold.Chemscore.Rot.Weighted>
6.7251

> <Gold.Chemscore.Internal.Correction.Weighted>
   9.000000E+99

> <Gold.Protein.RotatedTorsions>
[ 6907 6896 6895 6894 ] final   31.92 input  -60.11 | X-H torsion
[ 7974 7965 7964 7962 ] final  173.34 input  175.53 | X-H torsion
[ 8008 7997 7996 7995 ] final  -38.96 input   59.86 | X-H torsion
[ 10167 10162 10161 10158 ] final  108.09 input  -65.29 | X-H torsion
[ 10718 10713 10712 10709 ] final  -16.42 input   66.30 | X-H torsion
[ 10763 10752 10751 10750 ] final  -42.45 input  -60.55 | X-H torsion
[ 11005 11000 10999 10996 ] final  100.09 input  -57.11 | X-H torsion

> <Gold.Protein.ActiveResidues>
 VAL166  LYS551  ARG553  GLY616  TRP617  ASP618  TYR619  PRO620  LYS621  CYS622 
 ASP623  PHE694  ASN695  SER759  ASP760  ASP761  ALA762  ILE779  LEU786  VAL792 
 PHE793  MET794  SER795  GLU796  ALA797  LYS798  CYS799  TRP800  GLU811  SER814 

> <Gold.Protein.RotatedAtoms>
  152.0671  134.9557  160.0574 H   0  0  0  0  0  0  0  0  0  0  0  0  # atno 6907 bound_to 6896
  152.0898  133.4189  159.4547 H   0  0  0  0  0  0  0  0  0  0  0  0  # atno 6908 bound_to 6896
  150.6836  134.2805  159.4668 H   0  0  0  0  0  0  0  0  0  0  0  0  # atno 6909 bound_to 6896
  144.7246  139.9633  143.6435 H   0  0  0  0  0  0  0  0  0  0  0  0  # atno 7974 bound_to 7965
  154.4029  140.1564  156.2785 H   0  0  0  0  0  0  0  0  0  0  0  0  # atno 8008 bound_to 7997
  155.8891  140.3439  155.5921 H   0  0  0  0  0  0  0  0  0  0  0  0  # atno 8009 bound_to 7997
  155.7579  140.0813  157.2160 H   0  0  0  0  0  0  0  0  0  0  0  0  # atno 8010 bound_to 7997
  139.6874  144.7112  151.1407 H   0  0  0  0  0  0  0  0  0  0  0  0  # atno 10167 bound_to 10162
  156.5878  130.4791  149.6292 H   0  0  0  0  0  0  0  0  0  0  0  0  # atno 10718 bound_to 10713
  153.9793  135.6719  153.4749 H   0  0  0  0  0  0  0  0  0  0  0  0  # atno 10763 bound_to 10752
  153.0756  135.4950  154.8394 H   0  0  0  0  0  0  0  0  0  0  0  0  # atno 10764 bound_to 10752
  154.7174  135.3110  154.9063 H   0  0  0  0  0  0  0  0  0  0  0  0  # atno 10765 bound_to 10752
  139.8771  134.9125  156.4704 H   0  0  0  0  0  0  0  0  0  0  0  0  # atno 11005 bound_to 11000
  146.0620  139.3613  143.0575 LP  0  0  0  0  0  0  0  0  0  0  0  0  # atno 17320 bound_to 7965
  145.8080  140.9739  143.0964 LP  0  0  0  0  0  0  0  0  0  0  0  0  # atno 17321 bound_to 7965
  140.7672  143.5609  150.9100 LP  0  0  0  0  0  0  0  0  0  0  0  0  # atno 17342 bound_to 10162
  139.9284  143.6522  152.3082 LP  0  0  0  0  0  0  0  0  0  0  0  0  # atno 17343 bound_to 10162
  156.2576  130.6943  151.1701 LP  0  0  0  0  0  0  0  0  0  0  0  0  # atno 17370 bound_to 10713
  157.7311  131.0611  150.5694 LP  0  0  0  0  0  0  0  0  0  0  0  0  # atno 17371 bound_to 10713
  140.8800  133.7925  155.9456 LP  0  0  0  0  0  0  0  0  0  0  0  0  # atno 17394 bound_to 11000
  140.8864  134.2549  157.5117 LP  0  0  0  0  0  0  0  0  0  0  0  0  # atno 17395 bound_to 11000

$$$$
