AV-unprocessed.smi:2007|AV-procd|sdf|8135|dock3
  -GOLD-   2272010373D 1   1.00000     0.00000
 Structure written by MMmdl.
 37 38  0  0  0  0  0  0  0  0  2 V2000
  145.8719  144.2894  161.1693 C   0  0  0  0  0  0  0  0  0  0  0  0
  146.2853  145.5809  160.4508 C   0  0  2  0  0  0  0  0  0  0  0  0
  145.1614  146.0809  159.5129 C   0  0  0  0  0  0  0  0  0  0  0  0
  145.5370  147.2931  158.7415 N   0  3  0  0  0  0  0  0  0  0  0  0
  144.6821  147.5115  157.5512 C   0  0  0  0  0  0  0  0  0  0  0  0
  145.1696  148.7384  156.7611 C   0  0  0  0  0  0  0  0  0  0  0  0
  145.1857  149.8801  157.6093 O   0  0  0  0  0  0  0  0  0  0  0  0
  146.0688  149.7120  158.7116 C   0  0  0  0  0  0  0  0  0  0  0  0
  145.5998  148.5237  159.5670 C   0  0  0  0  0  0  0  0  0  0  0  0
  147.5299  145.3389  159.7191 N   0  0  0  0  0  0  0  0  0  0  0  0
  148.6122  144.7031  160.1929 C   0  0  0  0  0  0  0  0  0  0  0  0
  148.6942  144.2695  161.3424 O   0  0  0  0  0  0  0  0  0  0  0  0
  149.5765  144.6181  159.2603 N   0  0  0  0  0  0  0  0  0  0  0  0
  150.8749  144.0590  159.3918 C   0  0  0  0  0  0  0  0  0  0  0  0
  151.2815  143.3362  160.4422 N   0  0  0  0  0  0  0  0  0  0  0  0
  152.6073  142.9165  160.3079 C   0  0  0  0  0  0  0  0  0  0  0  0
  153.2008  143.3361  159.1434 C   0  0  0  0  0  0  0  0  0  0  0  0
  152.1104  144.2773  158.1610 S   0  0  0  0  0  0  0  0  0  0  0  0
  144.9687  144.4423  161.7606 H   0  0  0  0  0  0  0  0  0  0  0  0
  146.6542  143.9492  161.8490 H   0  0  0  0  0  0  0  0  0  0  0  0
  145.6726  143.4845  160.4608 H   0  0  0  0  0  0  0  0  0  0  0  0
  146.4679  146.3260  161.2262 H   0  0  0  0  0  0  0  0  0  0  0  0
  144.9188  145.2761  158.8170 H   0  0  0  0  0  0  0  0  0  0  0  0
  144.2480  146.2778  160.0764 H   0  0  0  0  0  0  0  0  0  0  0  0
  144.7082  146.6305  156.9086 H   0  0  0  0  0  0  0  0  0  0  0  0
  143.6465  147.6526  157.8645 H   0  0  0  0  0  0  0  0  0  0  0  0
  146.1640  148.5647  156.3467 H   0  0  0  0  0  0  0  0  0  0  0  0
  144.5035  148.9326  155.9202 H   0  0  0  0  0  0  0  0  0  0  0  0
  147.0898  149.5590  158.3576 H   0  0  0  0  0  0  0  0  0  0  0  0
  146.0710  150.6254  159.3062 H   0  0  0  0  0  0  0  0  0  0  0  0
  144.6168  148.7338  159.9913 H   0  0  0  0  0  0  0  0  0  0  0  0
  146.2853  148.3874  160.4030 H   0  0  0  0  0  0  0  0  0  0  0  0
  147.5562  145.6594  158.7619 H   0  0  0  0  0  0  0  0  0  0  0  0
  149.3620  145.0040  158.3523 H   0  0  0  0  0  0  0  0  0  0  0  0
  153.0515  142.3213  161.0922 H   0  0  0  0  0  0  0  0  0  0  0  0
  154.2091  143.1487  158.8047 H   0  0  0  0  0  0  0  0  0  0  0  0
  146.4707  147.1294  158.3920 H   0  0  0  0  0  0  0  0  0  0  0  0
  1  2  1  0  0  0  0
  1 19  1  0  0  0  0
  1 20  1  0  0  0  0
  1 21  1  0  0  0  0
  2  3  1  0  0  0  0
  2 10  1  0  0  0  0
  2 22  1  0  0  0  0
  3  4  1  0  0  0  0
  3 23  1  0  0  0  0
  3 24  1  0  0  0  0
  4  9  1  0  0  0  0
  4  5  1  0  0  0  0
  4 37  1  0  0  0  0
  5  6  1  0  0  0  0
  5 25  1  0  0  0  0
  5 26  1  0  0  0  0
  6  7  1  0  0  0  0
  6 27  1  0  0  0  0
  6 28  1  0  0  0  0
  7  8  1  0  0  0  0
  8  9  1  0  0  0  0
  8 29  1  0  0  0  0
  8 30  1  0  0  0  0
  9 31  1  0  0  0  0
  9 32  1  0  0  0  0
 10 11  1  0  0  0  0
 10 33  1  0  0  0  0
 11 12  2  0  0  0  0
 11 13  1  0  0  0  0
 13 14  1  0  0  0  0
 13 34  1  0  0  0  0
 14 18  1  0  0  0  0
 14 15  2  0  0  0  0
 15 16  1  0  0  0  0
 16 17  2  0  0  0  0
 16 35  1  0  0  0  0
 17 18  1  0  0  0  0
 17 36  1  0  0  0  0
M  CHG  1   4   1
M  END
> <s_m_source_file>
AV-unprocessed.smi

> <i_m_source_file_index>
2007

> <i_lp_mmshare_version>
43012

> <i_f3d_flags>
0

> <s_epik_input>
W0NIMl0xW0NIMl1PW0NIMl1bQ0gyXU4xW0NIMl1bQ0BASF0oW0NIM10pW05IXUMoPU8pW05IXWMybltjSF1bY0hdczI=

> <s_epik_cmdline>
J2VwaWtfcHl0aG9uJywgJy1waCcsICc3LjAnLCAnLXRuJywgJzgnLCAnLW1hJywgJzIwMCcsICctbWV0YWxfYmluZGluZycsICctaW1hZScsICc8aW5maWxlLm1hZT4nLCAnLW9tYWUnLCAnPG91dGZpbGUubWFlPic=

> <r_lp_tautomer_probability>
0.999

> <r_epik_Ionization_Penalty>
0.695848

> <r_epik_Ionization_Penalty_Charging>
0.695697

> <r_epik_Ionization_Penalty_Neutral>
0.000150585

> <r_epik_State_Penalty>
0.717972

> <r_epik_Charging_Adjusted_Penalty>
1.41367

> <i_epik_Tot_Q>
1

> <i_epik_Tot_abs_Q>
1

> <r_epik_Metal_State_Penalty>
0.763271

> <b_epik_Metal_Only>
0

> <s_lp_Force_Field>
OPLS_2005

> <r_lp_Energy>
20.6348

> <b_lp_Chiralities_Consistent>
1

> <s_lp_Variant>
AV-unprocessed.smi:2007-3

> <Gold.Version>
5.8.1

> <Gold.Id.Protein>
6NUR|6NUR_protein|mol2

> <Gold.PLP.Fitness>
55.7784

> <Gold.PLP.PLP>
-42.8567

> <Gold.PLP.part.hbond>
-5.3847

> <Gold.PLP.part.metal>
0.0000

> <Gold.PLP.part.buried>
-6.7210

> <Gold.PLP.part.nonpolar>
-31.7002

> <Gold.PLP.part.repulsive>
0.8313

> <Gold.PLP.ligand.clash>
0.0000

> <Gold.PLP.ligand.torsion>
0.3031

> <Gold.PLP.Chemscore.Hbond>
4.4863

> <Gold.PLP.Chemscore.CHOScore>
0.0000

> <Gold.PLP.Chemscore.Metal>
0.0000

> <Gold.Chemscore.Hbonds>
donor molecule, donor type, donor heavy atom, donor atom, acceptor molecule, acceptor atom, score
      L1  H     4    37       P1  8029  1.72
      L1  H    10    33       P1  8029  1.00
      L1  H    13    34       P1  8029  0.86
      P1  H  6933  6944       L1    12  0.75

> <Gold.PLP.Chemscore.Internal.Correction>
0.0692

> <Gold.Rescore>
     Score         DG    S(hbond)    S(metal)    S(lipo)     H(rot)  DE(clash)    DE(int)     intcor
     19.34     -22.46       3.27        0.00      87.49       1.63       0.11       3.01       ----

> <Gold.Chemscore.Fitness>
19.3354

> <Gold.Chemscore.DG>
-22.4612

> <Gold.Chemscore.ZeroCoef>
-5.4800

> <Gold.Chemscore.Hbond>
3.2693

> <Gold.Chemscore.Metal>
0.0000

> <Gold.Chemscore.Lipo>
87.4873

> <Gold.Chemscore.Internal_Hbond>
0.0000

> <Gold.Chemscore.DEClash>
0.1123

> <Gold.Chemscore.DEInternal>
3.0135

> <Gold.Chemscore.Rot>
1.6306

> <Gold.Chemscore.Internal.Correction>
   9.000000E+99

> <Gold.Chemscore.Hbonds>
donor molecule, donor type, donor heavy atom, donor atom, acceptor molecule, acceptor atom, score
      L1  H     4    37       P1  8029  0.80
      L1  H    10    33       P1  8029  0.93
      L1  H    13    34       P1  8029  0.48
      P1  H  6933  6944       L1    12  0.65

> <Gold.Chemscore.Hbond.Weighted>
-10.9195

> <Gold.Chemscore.Metal.Weighted>
-0.0000

> <Gold.Chemscore.Lipo.Weighted>
-10.2360

> <Gold.Chemscore.Internal_Hbond.Weighted>
0.0000

> <Gold.Chemscore.DEClash.Weighted>
0.1123

> <Gold.Chemscore.DEInternal.Weighted>
3.0135

> <Gold.Chemscore.Rot.Weighted>
4.1743

> <Gold.Chemscore.Internal.Correction.Weighted>
   9.000000E+99

> <Gold.Protein.RotatedTorsions>
[ 6907 6896 6895 6894 ] final -175.59 input  -60.11 | X-H torsion
[ 7974 7965 7964 7962 ] final   -2.51 input  175.53 | X-H torsion
[ 8008 7997 7996 7995 ] final  -19.96 input   59.86 | X-H torsion
[ 10167 10162 10161 10158 ] final   79.11 input  -65.29 | X-H torsion
[ 10718 10713 10712 10709 ] final  108.18 input   66.30 | X-H torsion
[ 10763 10752 10751 10750 ] final  121.19 input  -60.55 | X-H torsion
[ 11005 11000 10999 10996 ] final   56.23 input  -57.11 | X-H torsion

> <Gold.Protein.ActiveResidues>
 VAL166  LYS551  ARG553  GLY616  TRP617  ASP618  TYR619  PRO620  LYS621  CYS622 
 ASP623  PHE694  ASN695  SER759  ASP760  ASP761  ALA762  ILE779  LEU786  VAL792 
 PHE793  MET794  SER795  GLU796  ALA797  LYS798  CYS799  TRP800  GLU811  SER814 

> <Gold.Protein.RotatedAtoms>
  151.5911  133.3366  159.3027 H   0  0  0  0  0  0  0  0  0  0  0  0  # atno 6907 bound_to 6896
  150.8260  134.7494  159.6824 H   0  0  0  0  0  0  0  0  0  0  0  0  # atno 6908 bound_to 6896
  152.4349  134.5712  159.9973 H   0  0  0  0  0  0  0  0  0  0  0  0  # atno 6909 bound_to 6896
  146.2403  140.1581  142.8333 H   0  0  0  0  0  0  0  0  0  0  0  0  # atno 7974 bound_to 7965
  154.4802  140.2075  155.9783 H   0  0  0  0  0  0  0  0  0  0  0  0  # atno 8008 bound_to 7997
  156.1152  140.3222  155.8099 H   0  0  0  0  0  0  0  0  0  0  0  0  # atno 8009 bound_to 7997
  155.4565  140.0521  157.2986 H   0  0  0  0  0  0  0  0  0  0  0  0  # atno 8010 bound_to 7997
  139.9637  144.5943  150.8048 H   0  0  0  0  0  0  0  0  0  0  0  0  # atno 10167 bound_to 10162
  157.6597  131.0888  150.6266 H   0  0  0  0  0  0  0  0  0  0  0  0  # atno 10718 bound_to 10713
  153.6103  135.3432  155.2976 H   0  0  0  0  0  0  0  0  0  0  0  0  # atno 10763 bound_to 10752
  154.8620  135.4248  154.2317 H   0  0  0  0  0  0  0  0  0  0  0  0  # atno 10764 bound_to 10752
  153.3166  135.7035  153.7140 H   0  0  0  0  0  0  0  0  0  0  0  0  # atno 10765 bound_to 10752
  140.0545  134.5689  155.9224 H   0  0  0  0  0  0  0  0  0  0  0  0  # atno 11005 bound_to 11000
  145.0112  140.8715  143.5223 LP  0  0  0  0  0  0  0  0  0  0  0  0  # atno 17320 bound_to 7965
  145.1615  139.2455  143.5389 LP  0  0  0  0  0  0  0  0  0  0  0  0  # atno 17321 bound_to 7965
  140.7545  143.3027  151.3038 LP  0  0  0  0  0  0  0  0  0  0  0  0  # atno 17342 bound_to 10162
  139.6534  144.0321  152.2642 LP  0  0  0  0  0  0  0  0  0  0  0  0  # atno 17343 bound_to 10162
  156.6570  130.4501  149.5700 LP  0  0  0  0  0  0  0  0  0  0  0  0  # atno 17370 bound_to 10713
  156.2095  130.6670  151.1254 LP  0  0  0  0  0  0  0  0  0  0  0  0  # atno 17371 bound_to 10713
  141.1946  133.6583  156.5601 LP  0  0  0  0  0  0  0  0  0  0  0  0  # atno 17394 bound_to 11000
  140.3865  134.7477  157.4695 LP  0  0  0  0  0  0  0  0  0  0  0  0  # atno 17395 bound_to 11000

$$$$
