AV-unprocessed.smi:2050|AV-procd|sdf|8325|dock7
  -GOLD-   2272010593D 1   1.00000     0.00000
 Structure written by MMmdl.
 33 34  0  0  0  0  0  0  0  0  1 V2000
  144.6226  131.3895  150.8306 C   0  0  0  0  0  0  0  0  0  0  0  0
  144.8789  132.8500  150.9798 C   0  0  0  0  0  0  0  0  0  0  0  0
  145.8865  133.5632  151.5661 C   0  0  0  0  0  0  0  0  0  0  0  0
  145.4970  134.9106  151.3418 C   0  0  0  0  0  0  0  0  0  0  0  0
  146.2952  135.9859  151.8087 N   0  0  0  0  0  0  0  0  0  0  0  0
  145.8795  137.1163  152.4051 C   0  0  0  0  0  0  0  0  0  0  0  0
  144.7057  137.4023  152.6431 O   0  0  0  0  0  0  0  0  0  0  0  0
  146.9149  137.9090  152.7184 N   0  0  0  0  0  0  0  0  0  0  0  0
  146.8199  139.2114  153.3715 C   0  0  0  0  0  0  0  0  0  0  0  0
  148.2084  139.8045  153.6776 C   0  0  1  0  0  0  0  0  0  0  0  0
  148.1231  141.2513  154.2018 C   0  0  0  0  0  0  0  0  0  0  0  0
  149.5049  141.6681  154.7146 C   0  0  0  0  0  0  0  0  0  0  0  0
  150.2446  140.1497  155.4217 S   0  0  0  0  0  0  0  0  0  0  0  0
  151.5621  139.9286  154.8065 O   0  0  0  0  0  0  0  0  0  0  0  0
  150.0834  140.1600  156.8835 O   0  0  0  0  0  0  0  0  0  0  0  0
  149.0247  138.9897  154.6962 C   0  0  0  0  0  0  0  0  0  0  0  0
  144.3557  135.0111  150.6781 N   0  0  0  0  0  0  0  0  0  0  0  0
  143.9536  133.6909  150.4429 O   0  0  0  0  0  0  0  0  0  0  0  0
  145.3990  130.8047  151.3244 H   0  0  0  0  0  0  0  0  0  0  0  0
  144.6034  131.1059  149.7783 H   0  0  0  0  0  0  0  0  0  0  0  0
  143.6633  131.1187  151.2718 H   0  0  0  0  0  0  0  0  0  0  0  0
  146.7593  133.1790  152.0730 H   0  0  0  0  0  0  0  0  0  0  0  0
  147.2901  135.8821  151.6750 H   0  0  0  0  0  0  0  0  0  0  0  0
  147.8433  137.5881  152.4859 H   0  0  0  0  0  0  0  0  0  0  0  0
  146.2808  139.8765  152.6963 H   0  0  0  0  0  0  0  0  0  0  0  0
  146.2191  139.1519  154.2809 H   0  0  0  0  0  0  0  0  0  0  0  0
  148.7811  139.8355  152.7492 H   0  0  0  0  0  0  0  0  0  0  0  0
  147.7601  141.9382  153.4368 H   0  0  0  0  0  0  0  0  0  0  0  0
  147.4134  141.2920  155.0294 H   0  0  0  0  0  0  0  0  0  0  0  0
  150.1382  142.0010  153.8920 H   0  0  0  0  0  0  0  0  0  0  0  0
  149.4638  142.4561  155.4665 H   0  0  0  0  0  0  0  0  0  0  0  0
  148.3909  138.6270  155.5062 H   0  0  0  0  0  0  0  0  0  0  0  0
  149.5366  138.1371  154.2498 H   0  0  0  0  0  0  0  0  0  0  0  0
  1  2  1  0  0  0  0
  1 19  1  0  0  0  0
  1 20  1  0  0  0  0
  1 21  1  0  0  0  0
  2 18  1  0  0  0  0
  2  3  2  0  0  0  0
  3  4  1  0  0  0  0
  3 22  1  0  0  0  0
  4  5  1  0  0  0  0
  4 17  2  0  0  0  0
  5  6  1  0  0  0  0
  5 23  1  0  0  0  0
  6  7  2  0  0  0  0
  6  8  1  0  0  0  0
  8  9  1  0  0  0  0
  8 24  1  0  0  0  0
  9 10  1  0  0  0  0
  9 25  1  0  0  0  0
  9 26  1  0  0  0  0
 10 16  1  0  0  0  0
 10 11  1  0  0  0  0
 10 27  1  0  0  0  0
 11 12  1  0  0  0  0
 11 28  1  0  0  0  0
 11 29  1  0  0  0  0
 12 13  1  0  0  0  0
 12 30  1  0  0  0  0
 12 31  1  0  0  0  0
 13 14  2  0  0  0  0
 13 15  2  0  0  0  0
 13 16  1  0  0  0  0
 16 32  1  0  0  0  0
 16 33  1  0  0  0  0
 17 18  1  0  0  0  0
M  END
> <s_m_source_file>
AV-unprocessed.smi

> <i_m_source_file_index>
2050

> <i_lp_mmshare_version>
43012

> <i_f3d_flags>
0

> <s_epik_input>
W0NIM11jMVtjSF1jKG5vMSlbTkhdQyg9TylbTkhdW0NIMl1bQ0BASF0oW0NIMl0yKVtDSDJdW0NIMl1TMig9Tyk9Tw==

> <s_epik_cmdline>
J2VwaWtfcHl0aG9uJywgJy1waCcsICc3LjAnLCAnLXRuJywgJzgnLCAnLW1hJywgJzIwMCcsICctbWV0YWxfYmluZGluZycsICctaW1hZScsICc8aW5maWxlLm1hZT4nLCAnLW9tYWUnLCAnPG91dGZpbGUubWFlPic=

> <r_lp_tautomer_probability>
1

> <r_epik_Ionization_Penalty>
2.22143e-05

> <r_epik_Ionization_Penalty_Charging>
0

> <r_epik_Ionization_Penalty_Neutral>
2.22143e-05

> <r_epik_State_Penalty>
-0

> <r_epik_Charging_Adjusted_Penalty>
0

> <i_epik_Tot_Q>
0

> <i_epik_Tot_abs_Q>
0

> <r_epik_Metal_State_Penalty>
-0

> <b_epik_Metal_Only>
0

> <s_lp_Force_Field>
OPLS_2005

> <r_lp_Energy>
0.896814

> <b_lp_Chiralities_Consistent>
1

> <s_lp_Variant>
AV-unprocessed.smi:2050-2

> <Gold.Version>
5.8.1

> <Gold.Id.Protein>
6NUR|6NUR_protein|mol2

> <Gold.PLP.Fitness>
36.3883

> <Gold.PLP.PLP>
-28.1576

> <Gold.PLP.part.hbond>
-3.0000

> <Gold.PLP.part.metal>
0.0000

> <Gold.PLP.part.buried>
-2.5480

> <Gold.PLP.part.nonpolar>
-22.7959

> <Gold.PLP.part.repulsive>
0.8094

> <Gold.PLP.ligand.clash>
0.0000

> <Gold.PLP.ligand.torsion>
0.3738

> <Gold.PLP.Chemscore.Hbond>
2.9920

> <Gold.PLP.Chemscore.CHOScore>
0.0000

> <Gold.PLP.Chemscore.Metal>
0.0000

> <Gold.Chemscore.Hbonds>
donor molecule, donor type, donor heavy atom, donor atom, acceptor molecule, acceptor atom, score
      L1  H     5    23       P1  7948  1.00
      L1  H     8    24       P1  7948  0.99
      P1  H  7989  7998       L1    14  1.00

> <Gold.PLP.Chemscore.Internal.Correction>
0.0023

> <Gold.Rescore>
     Score         DG    S(hbond)    S(metal)    S(lipo)     H(rot)  DE(clash)    DE(int)     intcor
     17.58     -18.11       2.93        0.00      53.97       1.36       0.17       0.36       ----

> <Gold.Chemscore.Fitness>
17.5841

> <Gold.Chemscore.DG>
-18.1085

> <Gold.Chemscore.ZeroCoef>
-5.4800

> <Gold.Chemscore.Hbond>
2.9304

> <Gold.Chemscore.Metal>
0.0000

> <Gold.Chemscore.Lipo>
53.9674

> <Gold.Chemscore.Internal_Hbond>
0.0000

> <Gold.Chemscore.DEClash>
0.1669

> <Gold.Chemscore.DEInternal>
0.3575

> <Gold.Chemscore.Rot>
1.3567

> <Gold.Chemscore.Internal.Correction>
   9.000000E+99

> <Gold.Chemscore.Hbonds>
donor molecule, donor type, donor heavy atom, donor atom, acceptor molecule, acceptor atom, score
      L1  H     5    23       P1  7948  0.99
      L1  H     8    24       P1  7948  0.94
      P1  H  7989  7998       L1    14  0.64

> <Gold.Chemscore.Hbond.Weighted>
-9.7876

> <Gold.Chemscore.Metal.Weighted>
-0.0000

> <Gold.Chemscore.Lipo.Weighted>
-6.3142

> <Gold.Chemscore.Internal_Hbond.Weighted>
0.0000

> <Gold.Chemscore.DEClash.Weighted>
0.1669

> <Gold.Chemscore.DEInternal.Weighted>
0.3575

> <Gold.Chemscore.Rot.Weighted>
3.4732

> <Gold.Chemscore.Internal.Correction.Weighted>
   9.000000E+99

> <Gold.Protein.RotatedTorsions>
[ 6907 6896 6895 6894 ] final -140.20 input  -60.11 | X-H torsion
[ 7974 7965 7964 7962 ] final  161.55 input  175.53 | X-H torsion
[ 8008 7997 7996 7995 ] final -129.91 input   59.86 | X-H torsion
[ 10167 10162 10161 10158 ] final   74.06 input  -65.29 | X-H torsion
[ 10718 10713 10712 10709 ] final   18.03 input   66.30 | X-H torsion
[ 10763 10752 10751 10750 ] final  -13.15 input  -60.55 | X-H torsion
[ 11005 11000 10999 10996 ] final    4.79 input  -57.11 | X-H torsion

> <Gold.Protein.ActiveResidues>
 VAL166  LYS551  ARG553  GLY616  TRP617  ASP618  TYR619  PRO620  LYS621  CYS622 
 ASP623  PHE694  ASN695  SER759  ASP760  ASP761  ALA762  ILE779  LEU786  VAL792 
 PHE793  MET794  SER795  GLU796  ALA797  LYS798  CYS799  TRP800  GLU811  SER814 

> <Gold.Protein.RotatedAtoms>
  151.0577  133.5570  159.2636 H   0  0  0  0  0  0  0  0  0  0  0  0  # atno 6907 bound_to 6896
  151.2557  135.0636  159.9089 H   0  0  0  0  0  0  0  0  0  0  0  0  # atno 6908 bound_to 6896
  152.5392  134.0330  159.8087 H   0  0  0  0  0  0  0  0  0  0  0  0  # atno 6909 bound_to 6896
  144.7680  139.7914  143.6308 H   0  0  0  0  0  0  0  0  0  0  0  0  # atno 7974 bound_to 7965
  155.2870  140.0446  157.3020 H   0  0  0  0  0  0  0  0  0  0  0  0  # atno 8008 bound_to 7997
  154.5563  140.2332  155.8373 H   0  0  0  0  0  0  0  0  0  0  0  0  # atno 8009 bound_to 7997
  156.2010  140.3025  155.9534 H   0  0  0  0  0  0  0  0  0  0  0  0  # atno 8010 bound_to 7997
  140.0178  144.5564  150.7606 H   0  0  0  0  0  0  0  0  0  0  0  0  # atno 10167 bound_to 10162
  157.0905  130.6426  149.5847 H   0  0  0  0  0  0  0  0  0  0  0  0  # atno 10718 bound_to 10713
  153.5091  135.7016  153.5790 H   0  0  0  0  0  0  0  0  0  0  0  0  # atno 10763 bound_to 10752
  153.3889  135.3901  155.1909 H   0  0  0  0  0  0  0  0  0  0  0  0  # atno 10764 bound_to 10752
  154.8705  135.3853  154.4569 H   0  0  0  0  0  0  0  0  0  0  0  0  # atno 10765 bound_to 10752
  140.5780  134.0040  155.8036 H   0  0  0  0  0  0  0  0  0  0  0  0  # atno 11005 bound_to 11000
  146.1804  139.4994  142.9870 LP  0  0  0  0  0  0  0  0  0  0  0  0  # atno 17320 bound_to 7965
  145.6410  141.0284  143.1812 LP  0  0  0  0  0  0  0  0  0  0  0  0  # atno 17321 bound_to 7965
  140.7355  143.2741  151.3795 LP  0  0  0  0  0  0  0  0  0  0  0  0  # atno 17342 bound_to 10162
  139.6160  144.1001  152.2346 LP  0  0  0  0  0  0  0  0  0  0  0  0  # atno 17343 bound_to 10162
  155.9899  130.4948  150.7235 LP  0  0  0  0  0  0  0  0  0  0  0  0  # atno 17370 bound_to 10713
  157.4725  131.0894  151.0627 LP  0  0  0  0  0  0  0  0  0  0  0  0  # atno 17371 bound_to 10713
  141.1014  133.9762  157.3072 LP  0  0  0  0  0  0  0  0  0  0  0  0  # atno 17394 bound_to 11000
  139.9330  135.0198  156.8465 LP  0  0  0  0  0  0  0  0  0  0  0  0  # atno 17395 bound_to 11000

$$$$
