AV-unprocessed.smi:2520|AV-procd|sdf|9914|dock1
  -GOLD-   2272013553D 1   1.00000     0.00000
 Structure written by MMmdl.
 41 44  0  0  0  0  0  0  0  0  1 V2000
  146.2061  128.8171  153.1270 O   0  0  0  0  0  0  0  0  0  0  0  0
  146.9684  129.3090  152.2973 C   0  0  0  0  0  0  0  0  0  0  0  0
  147.8220  128.5362  151.5924 N   0  0  0  0  0  0  0  0  0  0  0  0
  148.0542  127.1294  151.6089 C   0  0  0  0  0  0  0  0  0  0  0  0
  148.6271  126.6113  150.4277 C   0  0  0  0  0  0  0  0  0  0  0  0
  148.8913  125.2326  150.3595 C   0  0  0  0  0  0  0  0  0  0  0  0
  148.5645  124.4585  151.4855 C   0  0  0  0  0  0  0  0  0  0  0  0
  148.0196  124.9943  152.5986 N   0  0  0  0  0  0  0  0  0  0  0  0
  147.7724  126.3072  152.6546 N   0  0  0  0  0  0  0  0  0  0  0  0
  147.0030  130.6242  152.0344 N   0  0  0  0  0  0  0  0  0  0  0  0
  146.1265  131.6258  152.6282 C   0  0  1  0  0  0  0  0  0  0  0  0
  146.8861  132.8891  153.0332 C   0  0  2  0  0  0  0  0  0  0  0  0
  147.2265  133.5267  154.3325 C   0  0  0  0  0  0  0  0  0  0  0  0
  146.8120  134.9785  153.9746 C   0  0  0  0  0  0  0  0  0  0  0  0
  146.1005  134.8899  152.7164 O   0  0  0  0  0  0  0  0  0  0  0  0
  145.5753  133.5776  152.7130 C   0  0  1  0  0  0  0  0  0  0  0  0
  145.4087  132.5522  151.5726 C   0  0  0  0  0  0  0  0  0  0  0  0
  143.9714  132.1738  151.1879 C   0  0  0  0  0  0  0  0  0  0  0  0
  143.8323  132.2648  149.6663 C   0  0  0  0  0  0  0  0  0  0  0  0
  145.2565  132.1679  149.1389 C   0  0  0  0  0  0  0  0  0  0  0  0
  146.0884  132.8498  150.2200 C   0  0  0  0  0  0  0  0  0  0  0  0
  148.4222  129.0485  150.9628 H   0  0  0  0  0  0  0  0  0  0  0  0
  148.8593  127.2530  149.5901 H   0  0  0  0  0  0  0  0  0  0  0  0
  149.3274  124.7860  149.4785 H   0  0  0  0  0  0  0  0  0  0  0  0
  148.7424  123.3932  151.4955 H   0  0  0  0  0  0  0  0  0  0  0  0
  147.6636  130.9497  151.3427 H   0  0  0  0  0  0  0  0  0  0  0  0
  145.4708  131.2399  153.4144 H   0  0  0  0  0  0  0  0  0  0  0  0
  147.6673  133.1155  152.3009 H   0  0  0  0  0  0  0  0  0  0  0  0
  146.6325  133.1224  155.1534 H   0  0  0  0  0  0  0  0  0  0  0  0
  148.2845  133.4419  154.5816 H   0  0  0  0  0  0  0  0  0  0  0  0
  146.1685  135.4008  154.7472 H   0  0  0  0  0  0  0  0  0  0  0  0
  147.6766  135.6325  153.8584 H   0  0  0  0  0  0  0  0  0  0  0  0
  144.8108  133.4636  153.4902 H   0  0  0  0  0  0  0  0  0  0  0  0
  143.7509  131.1560  151.5099 H   0  0  0  0  0  0  0  0  0  0  0  0
  143.2362  132.8149  151.6756 H   0  0  0  0  0  0  0  0  0  0  0  0
  143.1794  131.4936  149.2565 H   0  0  0  0  0  0  0  0  0  0  0  0
  143.4115  133.2343  149.3968 H   0  0  0  0  0  0  0  0  0  0  0  0
  145.5478  131.1198  149.0572 H   0  0  0  0  0  0  0  0  0  0  0  0
  145.3776  132.6280  148.1580 H   0  0  0  0  0  0  0  0  0  0  0  0
  146.0951  133.9255  150.0399 H   0  0  0  0  0  0  0  0  0  0  0  0
  147.1264  132.5210  150.1684 H   0  0  0  0  0  0  0  0  0  0  0  0
  1  2  2  0  0  0  0
  2  3  1  0  0  0  0
  2 10  1  0  0  0  0
  3  4  1  0  0  0  0
  3 22  1  0  0  0  0
  4  9  1  0  0  0  0
  4  5  2  0  0  0  0
  5  6  1  0  0  0  0
  5 23  1  0  0  0  0
  6  7  2  0  0  0  0
  6 24  1  0  0  0  0
  7  8  1  0  0  0  0
  7 25  1  0  0  0  0
  8  9  2  0  0  0  0
 10 11  1  0  0  0  0
 10 26  1  0  0  0  0
 11 17  1  0  0  0  0
 11 12  1  0  0  0  0
 11 27  1  0  0  0  0
 12 16  1  0  0  0  0
 12 13  1  0  0  0  0
 12 28  1  0  0  0  0
 13 14  1  0  0  0  0
 13 29  1  0  0  0  0
 13 30  1  0  0  0  0
 14 15  1  0  0  0  0
 14 31  1  0  0  0  0
 14 32  1  0  0  0  0
 15 16  1  0  0  0  0
 16 17  1  0  0  0  0
 16 33  1  0  0  0  0
 17 21  1  0  0  0  0
 17 18  1  0  0  0  0
 18 19  1  0  0  0  0
 18 34  1  0  0  0  0
 18 35  1  0  0  0  0
 19 20  1  0  0  0  0
 19 36  1  0  0  0  0
 19 37  1  0  0  0  0
 20 21  1  0  0  0  0
 20 38  1  0  0  0  0
 20 39  1  0  0  0  0
 21 40  1  0  0  0  0
 21 41  1  0  0  0  0
M  END
> <s_m_source_file>
AV-unprocessed.smi

> <i_m_source_file_index>
2520

> <i_lp_mmshare_version>
43012

> <i_f3d_flags>
0

> <s_epik_input>
bjFuW2NIXVtjSF1bY0hdYzFbTkhdQyg9TylbTkhdW0NAQEhdMltDQEBIXShbQ0gyXVtDSDJdTzMpW0NASF0zQzI0W0NIMl1bQ0gyXVtDSDJdW0NIMl00

> <s_epik_cmdline>
J2VwaWtfcHl0aG9uJywgJy1waCcsICc3LjAnLCAnLXRuJywgJzgnLCAnLW1hJywgJzIwMCcsICctbWV0YWxfYmluZGluZycsICctaW1hZScsICc8aW5maWxlLm1hZT4nLCAnLW9tYWUnLCAnPG91dGZpbGUubWFlPic=

> <r_lp_tautomer_probability>
1

> <r_epik_Ionization_Penalty>
0.00552561

> <r_epik_Ionization_Penalty_Charging>
0

> <r_epik_Ionization_Penalty_Neutral>
0.00552561

> <r_epik_State_Penalty>
-0

> <r_epik_Charging_Adjusted_Penalty>
0

> <i_epik_Tot_Q>
0

> <i_epik_Tot_abs_Q>
0

> <r_epik_Metal_State_Penalty>
-0

> <b_epik_Metal_Only>
0

> <s_lp_Force_Field>
OPLS_2005

> <r_lp_Energy>
83.483

> <b_lp_Chiralities_Consistent>
1

> <s_lp_Variant>
AV-unprocessed.smi:2520-8

> <Gold.Version>
5.8.1

> <Gold.Id.Protein>
6NUR|6NUR_protein|mol2

> <Gold.PLP.Fitness>
44.6391

> <Gold.PLP.PLP>
-40.1263

> <Gold.PLP.part.hbond>
-3.8142

> <Gold.PLP.part.metal>
0.0000

> <Gold.PLP.part.buried>
-5.4908

> <Gold.PLP.part.nonpolar>
-31.2386

> <Gold.PLP.part.repulsive>
0.3511

> <Gold.PLP.ligand.clash>
0.0000

> <Gold.PLP.ligand.torsion>
0.2632

> <Gold.PLP.Chemscore.Hbond>
1.5856

> <Gold.PLP.Chemscore.CHOScore>
0.0000

> <Gold.PLP.Chemscore.Metal>
0.0000

> <Gold.Chemscore.Hbonds>
donor molecule, donor type, donor heavy atom, donor atom, acceptor molecule, acceptor atom, score
      L1  H     3    22       P1 10747  0.53
      L1  H    10    26       P1 10747  1.00

> <Gold.PLP.Chemscore.Internal.Correction>
0.2825

> <Gold.Rescore>
     Score         DG    S(hbond)    S(metal)    S(lipo)     H(rot)  DE(clash)    DE(int)     intcor
     15.69     -17.06       1.00        0.00      92.25       1.00       0.06       1.30       ----

> <Gold.Chemscore.Fitness>
15.6949

> <Gold.Chemscore.DG>
-17.0623

> <Gold.Chemscore.ZeroCoef>
-5.4800

> <Gold.Chemscore.Hbond>
1.0027

> <Gold.Chemscore.Metal>
0.0000

> <Gold.Chemscore.Lipo>
92.2494

> <Gold.Chemscore.Internal_Hbond>
0.0000

> <Gold.Chemscore.DEClash>
0.0625

> <Gold.Chemscore.DEInternal>
1.3048

> <Gold.Chemscore.Rot>
1.0000

> <Gold.Chemscore.Internal.Correction>
   9.000000E+99

> <Gold.Chemscore.Hbonds>
donor molecule, donor type, donor heavy atom, donor atom, acceptor molecule, acceptor atom, score
      L1  H     3    22       P1 10747  0.03
      L1  H    10    26       P1 10747  0.98

> <Gold.Chemscore.Hbond.Weighted>
-3.3491

> <Gold.Chemscore.Metal.Weighted>
-0.0000

> <Gold.Chemscore.Lipo.Weighted>
-10.7932

> <Gold.Chemscore.Internal_Hbond.Weighted>
0.0000

> <Gold.Chemscore.DEClash.Weighted>
0.0625

> <Gold.Chemscore.DEInternal.Weighted>
1.3048

> <Gold.Chemscore.Rot.Weighted>
2.5600

> <Gold.Chemscore.Internal.Correction.Weighted>
   9.000000E+99

> <Gold.Protein.RotatedTorsions>
[ 6907 6896 6895 6894 ] final   62.21 input  -60.11 | X-H torsion
[ 7974 7965 7964 7962 ] final  -50.56 input  175.53 | X-H torsion
[ 8008 7997 7996 7995 ] final  -50.45 input   59.86 | X-H torsion
[ 10167 10162 10161 10158 ] final -177.52 input  -65.29 | X-H torsion
[ 10718 10713 10712 10709 ] final  -83.06 input   66.30 | X-H torsion
[ 10763 10752 10751 10750 ] final  -94.05 input  -60.55 | X-H torsion
[ 11005 11000 10999 10996 ] final   87.55 input  -57.11 | X-H torsion

> <Gold.Protein.ActiveResidues>
 VAL166  LYS551  ARG553  GLY616  TRP617  ASP618  TYR619  PRO620  LYS621  CYS622 
 ASP623  PHE694  ASN695  SER759  ASP760  ASP761  ALA762  ILE779  LEU786  VAL792 
 PHE793  MET794  SER795  GLU796  ALA797  LYS798  CYS799  TRP800  GLU811  SER814 

> <Gold.Protein.RotatedAtoms>
  152.4153  134.6052  160.0010 H   0  0  0  0  0  0  0  0  0  0  0  0  # atno 6907 bound_to 6896
  151.6217  133.3333  159.3097 H   0  0  0  0  0  0  0  0  0  0  0  0  # atno 6908 bound_to 6896
  150.8042  134.7196  159.6695 H   0  0  0  0  0  0  0  0  0  0  0  0  # atno 6909 bound_to 6896
  145.9285  140.7770  142.9611 H   0  0  0  0  0  0  0  0  0  0  0  0  # atno 7974 bound_to 7965
  154.4062  140.1272  156.4668 H   0  0  0  0  0  0  0  0  0  0  0  0  # atno 8008 bound_to 7997
  155.7219  140.3492  155.5000 H   0  0  0  0  0  0  0  0  0  0  0  0  # atno 8009 bound_to 7997
  155.9207  140.1052  157.1199 H   0  0  0  0  0  0  0  0  0  0  0  0  # atno 8010 bound_to 7997
  139.5476  144.2194  152.1017 H   0  0  0  0  0  0  0  0  0  0  0  0  # atno 10167 bound_to 10162
  156.0023  130.4654  150.4200 H   0  0  0  0  0  0  0  0  0  0  0  0  # atno 10718 bound_to 10713
  154.7018  135.5172  153.8537 H   0  0  0  0  0  0  0  0  0  0  0  0  # atno 10763 bound_to 10752
  153.0710  135.6601  154.0258 H   0  0  0  0  0  0  0  0  0  0  0  0  # atno 10764 bound_to 10752
  154.0115  135.3001  155.3371 H   0  0  0  0  0  0  0  0  0  0  0  0  # atno 10765 bound_to 10752
  139.8917  134.8430  156.2876 H   0  0  0  0  0  0  0  0  0  0  0  0  # atno 11005 bound_to 11000
  144.6762  140.2089  143.7379 LP  0  0  0  0  0  0  0  0  0  0  0  0  # atno 17320 bound_to 7965
  145.8457  139.2151  143.1801 LP  0  0  0  0  0  0  0  0  0  0  0  0  # atno 17321 bound_to 7965
  140.1683  144.4960  150.6593 LP  0  0  0  0  0  0  0  0  0  0  0  0  # atno 17342 bound_to 10162
  140.6729  143.2293  151.5580 LP  0  0  0  0  0  0  0  0  0  0  0  0  # atno 17343 bound_to 10162
  157.2257  131.0492  151.2521 LP  0  0  0  0  0  0  0  0  0  0  0  0  # atno 17370 bound_to 10713
  157.3758  130.7205  149.6596 LP  0  0  0  0  0  0  0  0  0  0  0  0  # atno 17371 bound_to 10713
  140.9997  133.7158  156.0942 LP  0  0  0  0  0  0  0  0  0  0  0  0  # atno 17394 bound_to 11000
  140.7514  134.4041  157.5540 LP  0  0  0  0  0  0  0  0  0  0  0  0  # atno 17395 bound_to 11000

$$$$
