AV-unprocessed.smi:1518|AV-procd|sdf|6124|dock8
  -GOLD-   22720 6263D 1   1.00000     0.00000
 Structure written by MMmdl.
 45 47  0  0  0  0  0  0  0  0  1 V2000
  155.2976  142.3677  170.3467 C   0  0  0  0  0  0  0  0  0  0  0  0
  155.5774  141.5240  169.1040 C   0  0  0  0  0  0  0  0  0  0  0  0
  155.8211  140.3262  169.2478 O   0  0  0  0  0  0  0  0  0  0  0  0
  155.5437  142.2025  167.7763 C   0  0  0  0  0  0  0  0  0  0  0  0
  155.1906  143.5691  167.7093 C   0  0  0  0  0  0  0  0  0  0  0  0
  155.1483  144.2351  166.4714 C   0  0  0  0  0  0  0  0  0  0  0  0
  155.4600  143.5422  165.2883 C   0  0  0  0  0  0  0  0  0  0  0  0
  155.8187  142.1807  165.3262 C   0  0  0  0  0  0  0  0  0  0  0  0
  156.1084  141.5823  164.1189 O   0  0  0  0  0  0  0  0  0  0  0  0
  156.4997  140.2150  164.1142 C   0  0  0  0  0  0  0  0  0  0  0  0
  156.1931  139.5907  162.7436 C   0  0  2  0  0  0  0  0  0  0  0  0
  156.8735  140.3179  161.7404 O   0  0  0  0  0  0  0  0  0  0  0  0
  154.6838  139.4751  162.4447 C   0  0  0  0  0  0  0  0  0  0  0  0
  154.3089  140.1016  161.1844 N   0  0  0  0  0  0  0  0  0  0  0  0
  154.4880  139.6238  159.9272 C   0  0  0  0  0  0  0  0  0  0  0  0
  155.1365  138.2905  159.6816 C   0  0  0  0  0  0  0  0  0  0  0  0
  154.3195  137.3746  158.9807 O   0  0  0  0  0  0  0  0  0  0  0  0
  154.0392  140.4076  158.9437 N   0  0  0  0  0  0  0  0  0  0  0  0
  153.5239  141.4918  159.6261 C   0  0  0  0  0  0  0  0  0  0  0  0
  152.9010  142.6668  159.1479 C   0  0  0  0  0  0  0  0  0  0  0  0
  152.4452  143.6509  160.0495 C   0  0  0  0  0  0  0  0  0  0  0  0
  152.6049  143.4743  161.4391 C   0  0  0  0  0  0  0  0  0  0  0  0
  153.2221  142.3106  161.9365 C   0  0  0  0  0  0  0  0  0  0  0  0
  153.6757  141.3314  161.0321 C   0  0  0  0  0  0  0  0  0  0  0  0
  155.8594  141.5158  166.5785 C   0  0  0  0  0  0  0  0  0  0  0  0
  154.2823  142.7631  170.3182 H   0  0  0  0  0  0  0  0  0  0  0  0
  155.9988  143.2000  170.4108 H   0  0  0  0  0  0  0  0  0  0  0  0
  155.4033  141.7650  171.2491 H   0  0  0  0  0  0  0  0  0  0  0  0
  154.9468  144.1211  168.6059 H   0  0  0  0  0  0  0  0  0  0  0  0
  154.8762  145.2793  166.4294 H   0  0  0  0  0  0  0  0  0  0  0  0
  155.4245  144.0613  164.3417 H   0  0  0  0  0  0  0  0  0  0  0  0
  157.5595  140.1087  164.3529 H   0  0  0  0  0  0  0  0  0  0  0  0
  155.9316  139.6778  164.8753 H   0  0  0  0  0  0  0  0  0  0  0  0
  156.6301  138.5920  162.7331 H   0  0  0  0  0  0  0  0  0  0  0  0
  156.3335  140.3347  160.9649 H   0  0  0  0  0  0  0  0  0  0  0  0
  154.3825  138.4276  162.4224 H   0  0  0  0  0  0  0  0  0  0  0  0
  154.0999  139.9375  163.2414 H   0  0  0  0  0  0  0  0  0  0  0  0
  156.0537  138.4309  159.1106 H   0  0  0  0  0  0  0  0  0  0  0  0
  155.4122  137.8499  160.6399 H   0  0  0  0  0  0  0  0  0  0  0  0
  153.4173  137.5440  159.2040 H   0  0  0  0  0  0  0  0  0  0  0  0
  152.7735  142.8106  158.0851 H   0  0  0  0  0  0  0  0  0  0  0  0
  151.9708  144.5452  159.6728 H   0  0  0  0  0  0  0  0  0  0  0  0
  152.2534  144.2330  162.1230 H   0  0  0  0  0  0  0  0  0  0  0  0
  153.3471  142.1734  163.0002 H   0  0  0  0  0  0  0  0  0  0  0  0
  156.1336  140.4739  166.6231 H   0  0  0  0  0  0  0  0  0  0  0  0
  1  2  1  0  0  0  0
  1 26  1  0  0  0  0
  1 27  1  0  0  0  0
  1 28  1  0  0  0  0
  2  3  2  0  0  0  0
  2  4  1  0  0  0  0
  4 25  1  0  0  0  0
  4  5  2  0  0  0  0
  5  6  1  0  0  0  0
  5 29  1  0  0  0  0
  6  7  2  0  0  0  0
  6 30  1  0  0  0  0
  7  8  1  0  0  0  0
  7 31  1  0  0  0  0
  8  9  1  0  0  0  0
  8 25  2  0  0  0  0
  9 10  1  0  0  0  0
 10 11  1  0  0  0  0
 10 32  1  0  0  0  0
 10 33  1  0  0  0  0
 11 12  1  0  0  0  0
 11 13  1  0  0  0  0
 11 34  1  0  0  0  0
 12 35  1  0  0  0  0
 13 14  1  0  0  0  0
 13 36  1  0  0  0  0
 13 37  1  0  0  0  0
 14 24  1  0  0  0  0
 14 15  1  0  0  0  0
 15 16  1  0  0  0  0
 15 18  2  0  0  0  0
 16 17  1  0  0  0  0
 16 38  1  0  0  0  0
 16 39  1  0  0  0  0
 17 40  1  0  0  0  0
 18 19  1  0  0  0  0
 19 24  2  0  0  0  0
 19 20  1  0  0  0  0
 20 21  2  0  0  0  0
 20 41  1  0  0  0  0
 21 22  1  0  0  0  0
 21 42  1  0  0  0  0
 22 23  2  0  0  0  0
 22 43  1  0  0  0  0
 23 24  1  0  0  0  0
 23 44  1  0  0  0  0
 25 45  1  0  0  0  0
M  END
> <s_m_source_file>
AV-unprocessed.smi

> <i_m_source_file_index>
1518

> <i_lp_mmshare_version>
43012

> <i_f3d_flags>
0

> <s_epik_input>
W0NIM11DKD1PKWMxW2NIXVtjSF1bY0hdYyhbY0hdMSlPW0NIMl1bQ0BIXShbT0hdKVtDSDJdbihjKG4yKVtDSDJdW09IXSljKGMyMylbY0hdW2NIXVtjSF1bY0hdMw==

> <s_epik_cmdline>
J2VwaWtfcHl0aG9uJywgJy1waCcsICc3LjAnLCAnLXRuJywgJzgnLCAnLW1hJywgJzIwMCcsICctbWV0YWxfYmluZGluZycsICctaW1hZScsICc8aW5maWxlLm1hZT4nLCAnLW9tYWUnLCAnPG91dGZpbGUubWFlPic=

> <r_lp_tautomer_probability>
0.99995

> <r_epik_Ionization_Penalty>
0.0583159

> <r_epik_Ionization_Penalty_Charging>
0

> <r_epik_Ionization_Penalty_Neutral>
0.0583159

> <r_epik_State_Penalty>
0.0503525

> <r_epik_Charging_Adjusted_Penalty>
0.0503525

> <i_epik_Tot_Q>
0

> <i_epik_Tot_abs_Q>
0

> <r_epik_Metal_State_Penalty>
5.25517e-05

> <b_epik_Metal_Only>
0

> <s_lp_Force_Field>
OPLS_2005

> <r_lp_Energy>
22.7276

> <b_lp_Chiralities_Consistent>
1

> <s_lp_Variant>
AV-unprocessed.smi:1518-1

> <Gold.Version>
5.8.1

> <Gold.Id.Protein>
6NUR|6NUR_protein|mol2

> <Gold.PLP.Fitness>
54.2345

> <Gold.PLP.PLP>
-54.4322

> <Gold.PLP.part.hbond>
-4.0000

> <Gold.PLP.part.metal>
0.0000

> <Gold.PLP.part.buried>
-5.7617

> <Gold.PLP.part.nonpolar>
-44.8176

> <Gold.PLP.part.repulsive>
0.1075

> <Gold.PLP.ligand.clash>
0.0000

> <Gold.PLP.ligand.torsion>
1.1177

> <Gold.PLP.Chemscore.Hbond>
0.6484

> <Gold.PLP.Chemscore.CHOScore>
0.0000

> <Gold.PLP.Chemscore.Metal>
0.0000

> <Gold.Chemscore.Hbonds>
donor molecule, donor type, donor heavy atom, donor atom, acceptor molecule, acceptor atom, score
      P1  H  7997  8008       L1    18  0.80

> <Gold.PLP.Chemscore.Internal.Correction>
0.0924

> <Gold.Rescore>
     Score         DG    S(hbond)    S(metal)    S(lipo)     H(rot)  DE(clash)    DE(int)     intcor
     12.56     -16.33       0.94        0.00     136.93       3.25       2.66       1.11       ----

> <Gold.Chemscore.Fitness>
12.5595

> <Gold.Chemscore.DG>
-16.3329

> <Gold.Chemscore.ZeroCoef>
-5.4800

> <Gold.Chemscore.Hbond>
0.9425

> <Gold.Chemscore.Metal>
0.0000

> <Gold.Chemscore.Lipo>
136.9266

> <Gold.Chemscore.Internal_Hbond>
0.0000

> <Gold.Chemscore.DEClash>
2.6622

> <Gold.Chemscore.DEInternal>
1.1111

> <Gold.Chemscore.Rot>
3.2482

> <Gold.Chemscore.Internal.Correction>
   9.000000E+99

> <Gold.Chemscore.Hbonds>
donor molecule, donor type, donor heavy atom, donor atom, acceptor molecule, acceptor atom, score
      P1  H  7997  8008       L1    18  0.62

> <Gold.Chemscore.Hbond.Weighted>
-3.1479

> <Gold.Chemscore.Metal.Weighted>
-0.0000

> <Gold.Chemscore.Lipo.Weighted>
-16.0204

> <Gold.Chemscore.Internal_Hbond.Weighted>
0.0000

> <Gold.Chemscore.DEClash.Weighted>
2.6622

> <Gold.Chemscore.DEInternal.Weighted>
1.1111

> <Gold.Chemscore.Rot.Weighted>
8.3155

> <Gold.Chemscore.Internal.Correction.Weighted>
   9.000000E+99

> <Gold.Protein.RotatedTorsions>
[ 6907 6896 6895 6894 ] final  -82.83 input  -60.11 | X-H torsion
[ 7974 7965 7964 7962 ] final  127.18 input  175.53 | X-H torsion
[ 8008 7997 7996 7995 ] final -112.39 input   59.86 | X-H torsion
[ 10167 10162 10161 10158 ] final  136.05 input  -65.29 | X-H torsion
[ 10718 10713 10712 10709 ] final  -45.12 input   66.30 | X-H torsion
[ 10763 10752 10751 10750 ] final   48.03 input  -60.55 | X-H torsion
[ 11005 11000 10999 10996 ] final  171.81 input  -57.11 | X-H torsion

> <Gold.Protein.ActiveResidues>
 VAL166  LYS551  ARG553  GLY616  TRP617  ASP618  TYR619  PRO620  LYS621  CYS622 
 ASP623  PHE694  ASN695  SER759  ASP760  ASP761  ALA762  ILE779  LEU786  VAL792 
 PHE793  MET794  SER795  GLU796  ALA797  LYS798  CYS799  TRP800  GLU811  SER814 

> <Gold.Protein.RotatedAtoms>
  150.6892  134.3605  159.4948 H   0  0  0  0  0  0  0  0  0  0  0  0  # atno 6907 bound_to 6896
  152.1435  134.9041  160.0561 H   0  0  0  0  0  0  0  0  0  0  0  0  # atno 6908 bound_to 6896
  152.0166  133.3847  159.4278 H   0  0  0  0  0  0  0  0  0  0  0  0  # atno 6909 bound_to 6896
  145.0535  139.3863  143.5042 H   0  0  0  0  0  0  0  0  0  0  0  0  # atno 7974 bound_to 7965
  155.0045  140.0394  157.2374 H   0  0  0  0  0  0  0  0  0  0  0  0  # atno 8008 bound_to 7997
  154.7514  140.2767  155.6266 H   0  0  0  0  0  0  0  0  0  0  0  0  # atno 8009 bound_to 7997
  156.2886  140.2646  156.2269 H   0  0  0  0  0  0  0  0  0  0  0  0  # atno 8010 bound_to 7997
  139.5194  144.6485  151.5372 H   0  0  0  0  0  0  0  0  0  0  0  0  # atno 10167 bound_to 10162
  156.2316  130.4173  149.8868 H   0  0  0  0  0  0  0  0  0  0  0  0  # atno 10718 bound_to 10713
  152.9795  135.5957  154.3860 H   0  0  0  0  0  0  0  0  0  0  0  0  # atno 10763 bound_to 10752
  154.3520  135.2767  155.2369 H   0  0  0  0  0  0  0  0  0  0  0  0  # atno 10764 bound_to 10752
  154.4404  135.6014  153.6180 H   0  0  0  0  0  0  0  0  0  0  0  0  # atno 10765 bound_to 10752
  140.3229  134.7422  157.4078 H   0  0  0  0  0  0  0  0  0  0  0  0  # atno 11005 bound_to 11000
  146.3519  140.0197  142.8659 LP  0  0  0  0  0  0  0  0  0  0  0  0  # atno 17320 bound_to 7965
  145.1498  140.9616  143.4440 LP  0  0  0  0  0  0  0  0  0  0  0  0  # atno 17321 bound_to 7965
  140.6279  143.9132  150.6580 LP  0  0  0  0  0  0  0  0  0  0  0  0  # atno 17342 bound_to 10162
  140.2427  143.3652  152.1473 LP  0  0  0  0  0  0  0  0  0  0  0  0  # atno 17343 bound_to 10162
  156.6481  130.8732  151.3526 LP  0  0  0  0  0  0  0  0  0  0  0  0  # atno 17370 bound_to 10713
  157.7135  130.9469  150.1173 LP  0  0  0  0  0  0  0  0  0  0  0  0  # atno 17371 bound_to 10713
  140.0926  134.5580  155.8429 LP  0  0  0  0  0  0  0  0  0  0  0  0  # atno 17394 bound_to 11000
  141.2082  133.6671  156.6356 LP  0  0  0  0  0  0  0  0  0  0  0  0  # atno 17395 bound_to 11000

$$$$
