AV-unprocessed.smi:1005|AV-procd|sdf|4368|dock4
  -GOLD-   22720 2273D 1   1.00000     0.00000
 Structure written by MMmdl.
 57 59  0  0  0  0  0  0  0  0  3 V2000
  153.3110  142.8601  161.6244 C   0  0  0  0  0  0  0  0  0  0  0  0
  152.6496  142.4361  160.3248 C   0  0  0  0  0  0  0  0  0  0  0  0
  153.1231  141.2846  159.6566 C   0  0  0  0  0  0  0  0  0  0  0  0
  152.5360  140.8574  158.4455 C   0  0  0  0  0  0  0  0  0  0  0  0
  152.8361  139.7780  157.6322 N   0  0  0  0  0  0  0  0  0  0  0  0
  151.9412  139.9178  156.6593 C   0  0  0  0  0  0  0  0  0  0  0  0
  151.0973  140.9640  156.7431 N   0  0  0  0  0  0  0  0  0  0  0  0
  150.0485  141.3177  155.8028 C   0  0  0  0  0  0  0  0  0  0  0  0
  150.1040  140.4744  154.5144 C   0  0  2  0  0  0  0  0  0  0  0  0
  149.1911  140.9998  153.5701 O   0  0  0  0  0  0  0  0  0  0  0  0
  149.7375  139.0015  154.7822 C   0  0  0  0  0  0  0  0  0  0  0  0
  148.2962  138.8254  155.1081 N   0  3  2  0  0  0  0  0  0  0  0  0
  147.9822  139.0113  156.5454 C   0  0  0  0  0  0  0  0  0  0  0  0
  148.3572  137.7628  157.3613 C   0  0  0  0  0  0  0  0  0  0  0  0
  147.6765  136.6326  156.8290 O   0  0  0  0  0  0  0  0  0  0  0  0
  148.0490  136.3514  155.4834 C   0  0  1  0  0  0  0  0  0  0  0  0
  147.2926  135.0856  155.0367 C   0  0  0  0  0  0  0  0  0  0  0  0
  147.9751  134.3615  153.9334 N   0  3  0  0  0  0  0  0  0  0  0  0
  147.1037  133.3839  153.2404 C   0  0  0  0  0  0  0  0  0  0  0  0
  149.2405  133.7364  154.3790 C   0  0  0  0  0  0  0  0  0  0  0  0
  147.6880  137.5683  154.5998 C   0  0  0  0  0  0  0  0  0  0  0  0
  151.4529  141.6191  157.9175 C   0  0  0  0  0  0  0  0  0  0  0  0
  150.9731  142.7669  158.5728 C   0  0  0  0  0  0  0  0  0  0  0  0
  151.5711  143.1799  159.7818 C   0  0  0  0  0  0  0  0  0  0  0  0
  151.0460  144.4208  160.4818 C   0  0  0  0  0  0  0  0  0  0  0  0
  154.1184  142.1812  161.9006 H   0  0  0  0  0  0  0  0  0  0  0  0
  152.5858  142.8653  162.4382 H   0  0  0  0  0  0  0  0  0  0  0  0
  153.7335  143.8605  161.5297 H   0  0  0  0  0  0  0  0  0  0  0  0
  153.9446  140.7179  160.0700 H   0  0  0  0  0  0  0  0  0  0  0  0
  151.8979  139.2206  155.8351 H   0  0  0  0  0  0  0  0  0  0  0  0
  149.0872  141.1821  156.3001 H   0  0  0  0  0  0  0  0  0  0  0  0
  150.1306  142.3805  155.5708 H   0  0  0  0  0  0  0  0  0  0  0  0
  151.1071  140.5488  154.0952 H   0  0  0  0  0  0  0  0  0  0  0  0
  148.9317  140.3053  152.9828 H   0  0  0  0  0  0  0  0  0  0  0  0
  150.0066  138.3818  153.9271 H   0  0  0  0  0  0  0  0  0  0  0  0
  150.3485  138.6444  155.6129 H   0  0  0  0  0  0  0  0  0  0  0  0
  148.4791  139.8987  156.9393 H   0  0  0  0  0  0  0  0  0  0  0  0
  146.9111  139.1948  156.6416 H   0  0  0  0  0  0  0  0  0  0  0  0
  149.4351  137.5945  157.3580 H   0  0  0  0  0  0  0  0  0  0  0  0
  148.0601  137.8935  158.4019 H   0  0  0  0  0  0  0  0  0  0  0  0
  149.1227  136.1736  155.4335 H   0  0  0  0  0  0  0  0  0  0  0  0
  147.1976  134.4238  155.8991 H   0  0  0  0  0  0  0  0  0  0  0  0
  146.2757  135.3345  154.7292 H   0  0  0  0  0  0  0  0  0  0  0  0
  146.7587  132.6109  153.9284 H   0  0  0  0  0  0  0  0  0  0  0  0
  147.6455  132.8961  152.4294 H   0  0  0  0  0  0  0  0  0  0  0  0
  146.2307  133.8632  152.7991 H   0  0  0  0  0  0  0  0  0  0  0  0
  149.0552  132.9779  155.1410 H   0  0  0  0  0  0  0  0  0  0  0  0
  149.9174  134.4830  154.7960 H   0  0  0  0  0  0  0  0  0  0  0  0
  149.7531  133.2614  153.5418 H   0  0  0  0  0  0  0  0  0  0  0  0
  146.6053  137.7024  154.5952 H   0  0  0  0  0  0  0  0  0  0  0  0
  147.9738  137.3886  153.5639 H   0  0  0  0  0  0  0  0  0  0  0  0
  150.1524  143.3257  158.1481 H   0  0  0  0  0  0  0  0  0  0  0  0
  150.2140  144.8646  159.9341 H   0  0  0  0  0  0  0  0  0  0  0  0
  151.8309  145.1728  160.5651 H   0  0  0  0  0  0  0  0  0  0  0  0
  150.6933  144.1746  161.4835 H   0  0  0  0  0  0  0  0  0  0  0  0
  148.2377  135.0585  153.2503 H   0  0  0  0  0  0  0  0  0  0  0  0
  147.8345  139.5862  154.6286 H   0  0  0  0  0  0  0  0  0  0  0  0
  1  2  1  0  0  0  0
  1 26  1  0  0  0  0
  1 27  1  0  0  0  0
  1 28  1  0  0  0  0
  2 24  1  0  0  0  0
  2  3  2  0  0  0  0
  3  4  1  0  0  0  0
  3 29  1  0  0  0  0
  4 22  2  0  0  0  0
  4  5  1  0  0  0  0
  5  6  2  0  0  0  0
  6  7  1  0  0  0  0
  6 30  1  0  0  0  0
  7  8  1  0  0  0  0
  7 22  1  0  0  0  0
  8  9  1  0  0  0  0
  8 31  1  0  0  0  0
  8 32  1  0  0  0  0
  9 10  1  0  0  0  0
  9 11  1  0  0  0  0
  9 33  1  0  0  0  0
 10 34  1  0  0  0  0
 11 12  1  0  0  0  0
 11 35  1  0  0  0  0
 11 36  1  0  0  0  0
 12 21  1  0  0  0  0
 12 13  1  0  0  0  0
 12 57  1  0  0  0  0
 13 14  1  0  0  0  0
 13 37  1  0  0  0  0
 13 38  1  0  0  0  0
 14 15  1  0  0  0  0
 14 39  1  0  0  0  0
 14 40  1  0  0  0  0
 15 16  1  0  0  0  0
 16 17  1  0  0  0  0
 16 21  1  0  0  0  0
 16 41  1  0  0  0  0
 17 18  1  0  0  0  0
 17 42  1  0  0  0  0
 17 43  1  0  0  0  0
 18 19  1  0  0  0  0
 18 20  1  0  0  0  0
 18 56  1  0  0  0  0
 19 44  1  0  0  0  0
 19 45  1  0  0  0  0
 19 46  1  0  0  0  0
 20 47  1  0  0  0  0
 20 48  1  0  0  0  0
 20 49  1  0  0  0  0
 21 50  1  0  0  0  0
 21 51  1  0  0  0  0
 22 23  1  0  0  0  0
 23 24  2  0  0  0  0
 23 52  1  0  0  0  0
 24 25  1  0  0  0  0
 25 53  1  0  0  0  0
 25 54  1  0  0  0  0
 25 55  1  0  0  0  0
M  CHG  1  12   1
M  CHG  1  18   1
M  END
> <s_m_source_file>
AV-unprocessed.smi

> <i_m_source_file_index>
1005

> <i_lp_mmshare_version>
43012

> <i_f3d_flags>
0

> <s_epik_input>
W0NIM11jKFtjSF0xKWMoW0NIM10pW2NIXWMoYzEyKW4oW2NIXW4yKVtDSDJdW0NASF0oW09IXSlbQ0gyXU4zW0NIMl1bQ0gyXU9bQ0BIXShbQ0gyXTMpW0NIMl1OKFtDSDNdKVtDSDNd

> <s_epik_cmdline>
J2VwaWtfcHl0aG9uJywgJy1waCcsICc3LjAnLCAnLXRuJywgJzgnLCAnLW1hJywgJzIwMCcsICctbWV0YWxfYmluZGluZycsICctaW1hZScsICc8aW5maWxlLm1hZT4nLCAnLW9tYWUnLCAnPG91dGZpbGUubWFlPic=

> <r_epik_Ionization_Penalty>
1.0968

> <r_epik_Ionization_Penalty_Charging>
1.0096

> <r_epik_Ionization_Penalty_Neutral>
0.0871956

> <r_epik_State_Penalty>
1.31185

> <r_epik_Charging_Adjusted_Penalty>
2.32145

> <i_epik_Tot_Q>
2

> <i_epik_Tot_abs_Q>
2

> <r_epik_Metal_State_Penalty>
1.22442

> <b_epik_Metal_Only>
0

> <s_lp_Force_Field>
OPLS_2005

> <r_lp_Energy>
35.7023

> <b_lp_Chiralities_Consistent>
1

> <s_lp_Variant>
AV-unprocessed.smi:1005-7

> <Gold.Version>
5.8.1

> <Gold.Id.Protein>
6NUR|6NUR_protein|mol2

> <Gold.PLP.Fitness>
54.2867

> <Gold.PLP.PLP>
-42.0093

> <Gold.PLP.part.hbond>
-5.0000

> <Gold.PLP.part.metal>
0.0000

> <Gold.PLP.part.buried>
-2.3683

> <Gold.PLP.part.nonpolar>
-34.0054

> <Gold.PLP.part.repulsive>
0.0000

> <Gold.PLP.ligand.clash>
0.0000

> <Gold.PLP.ligand.torsion>
0.9036

> <Gold.PLP.Chemscore.Hbond>
4.6080

> <Gold.PLP.Chemscore.CHOScore>
0.0000

> <Gold.PLP.Chemscore.Metal>
0.0000

> <Gold.Chemscore.Hbonds>
donor molecule, donor type, donor heavy atom, donor atom, acceptor molecule, acceptor atom, score
      L1  H    10    34       P1  7957  0.51
      L1  H    18    56       P1  7948  2.00
      P1  H  7997  8010       L1     5  0.95
      P1  H  8011  8017       L1    10  1.00

> <Gold.PLP.Chemscore.Internal.Correction>
0.2606

> <Gold.Rescore>
     Score         DG    S(hbond)    S(metal)    S(lipo)     H(rot)  DE(clash)    DE(int)     intcor
     19.40     -22.16       2.87        0.00     115.06       2.48       1.84       0.92       ----

> <Gold.Chemscore.Fitness>
19.4018

> <Gold.Chemscore.DG>
-22.1599

> <Gold.Chemscore.ZeroCoef>
-5.4800

> <Gold.Chemscore.Hbond>
2.8653

> <Gold.Chemscore.Metal>
0.0000

> <Gold.Chemscore.Lipo>
115.0598

> <Gold.Chemscore.Internal_Hbond>
0.0000

> <Gold.Chemscore.DEClash>
1.8413

> <Gold.Chemscore.DEInternal>
0.9167

> <Gold.Chemscore.Rot>
2.4814

> <Gold.Chemscore.Internal.Correction>
   9.000000E+99

> <Gold.Chemscore.Hbonds>
donor molecule, donor type, donor heavy atom, donor atom, acceptor molecule, acceptor atom, score
      L1  H    10    34       P1  7957  0.49
      L1  H    18    56       P1  7948  0.94
      P1  H  7997  8010       L1     5  0.17
      P1  H  8011  8017       L1    10  0.36

> <Gold.Chemscore.Hbond.Weighted>
-9.5702

> <Gold.Chemscore.Metal.Weighted>
-0.0000

> <Gold.Chemscore.Lipo.Weighted>
-13.4620

> <Gold.Chemscore.Internal_Hbond.Weighted>
0.0000

> <Gold.Chemscore.DEClash.Weighted>
1.8413

> <Gold.Chemscore.DEInternal.Weighted>
0.9167

> <Gold.Chemscore.Rot.Weighted>
6.3524

> <Gold.Chemscore.Internal.Correction.Weighted>
   9.000000E+99

> <Gold.Protein.RotatedTorsions>
[ 6907 6896 6895 6894 ] final  -89.02 input  -60.11 | X-H torsion
[ 7974 7965 7964 7962 ] final  124.22 input  175.53 | X-H torsion
[ 8008 7997 7996 7995 ] final   60.88 input   59.86 | X-H torsion
[ 10167 10162 10161 10158 ] final  -99.62 input  -65.29 | X-H torsion
[ 10718 10713 10712 10709 ] final   45.42 input   66.30 | X-H torsion
[ 10763 10752 10751 10750 ] final  151.01 input  -60.55 | X-H torsion
[ 11005 11000 10999 10996 ] final  -83.06 input  -57.11 | X-H torsion

> <Gold.Protein.ActiveResidues>
 VAL166  LYS551  ARG553  GLY616  TRP617  ASP618  TYR619  PRO620  LYS621  CYS622 
 ASP623  PHE694  ASN695  SER759  ASP760  ASP761  ALA762  ILE779  LEU786  VAL792 
 PHE793  MET794  SER795  GLU796  ALA797  LYS798  CYS799  TRP800  GLU811  SER814 

> <Gold.Protein.RotatedAtoms>
  150.6871  134.2651  159.4564 H   0  0  0  0  0  0  0  0  0  0  0  0  # atno 6907 bound_to 6896
  152.0578  134.9611  160.0584 H   0  0  0  0  0  0  0  0  0  0  0  0  # atno 6908 bound_to 6896
  152.1050  133.4235  159.4641 H   0  0  0  0  0  0  0  0  0  0  0  0  # atno 6909 bound_to 6896
  145.0869  139.3615  143.4881 H   0  0  0  0  0  0  0  0  0  0  0  0  # atno 7974 bound_to 7965
  155.5895  140.3492  155.4562 H   0  0  0  0  0  0  0  0  0  0  0  0  # atno 8008 bound_to 7997
  156.0312  140.1275  157.0280 H   0  0  0  0  0  0  0  0  0  0  0  0  # atno 8009 bound_to 7997
  154.4353  140.1043  156.6088 H   0  0  0  0  0  0  0  0  0  0  0  0  # atno 8010 bound_to 7997
  140.2606  143.3410  152.0629 H   0  0  0  0  0  0  0  0  0  0  0  0  # atno 10167 bound_to 10162
  157.4373  130.8060  149.7660 H   0  0  0  0  0  0  0  0  0  0  0  0  # atno 10718 bound_to 10713
  154.0969  135.2848  155.3260 H   0  0  0  0  0  0  0  0  0  0  0  0  # atno 10763 bound_to 10752
  154.6582  135.5344  153.7988 H   0  0  0  0  0  0  0  0  0  0  0  0  # atno 10764 bound_to 10752
  153.0393  135.6527  154.1135 H   0  0  0  0  0  0  0  0  0  0  0  0  # atno 10765 bound_to 10752
  141.1660  133.7275  156.8664 H   0  0  0  0  0  0  0  0  0  0  0  0  # atno 11005 bound_to 11000
  146.3531  140.0685  142.8625 LP  0  0  0  0  0  0  0  0  0  0  0  0  # atno 17320 bound_to 7965
  145.1112  140.9406  143.4655 LP  0  0  0  0  0  0  0  0  0  0  0  0  # atno 17321 bound_to 7965
  139.5018  144.6721  151.6217 LP  0  0  0  0  0  0  0  0  0  0  0  0  # atno 17342 bound_to 10162
  140.5969  143.9680  150.6360 LP  0  0  0  0  0  0  0  0  0  0  0  0  # atno 17343 bound_to 10162
  155.9935  130.3924  150.2896 LP  0  0  0  0  0  0  0  0  0  0  0  0  # atno 17370 bound_to 10713
  157.1058  131.0208  151.3068 LP  0  0  0  0  0  0  0  0  0  0  0  0  # atno 17371 bound_to 10713
  140.1812  134.9032  157.2951 LP  0  0  0  0  0  0  0  0  0  0  0  0  # atno 17394 bound_to 11000
  140.2393  134.3815  155.7487 LP  0  0  0  0  0  0  0  0  0  0  0  0  # atno 17395 bound_to 11000

$$$$
