AV-unprocessed.smi:816|AV-procd|sdf|3826|dock8
  -GOLD-   22720 1263D 1   1.00000     0.00000
 Structure written by MMmdl.
 40 41  0  0  0  0  0  0  0  0  1 V2000
  145.1852  144.7402  152.7064 C   0  0  0  0  0  0  0  0  0  0  0  0
  145.2821  143.8105  153.8858 C   0  0  0  0  0  0  0  0  0  0  0  0
  146.1705  142.8745  153.8148 N   0  0  0  0  0  0  0  0  0  0  0  0
  146.3431  141.9670  154.8416 N   0  0  0  0  0  0  0  0  0  0  0  0
  147.3845  140.9659  154.5851 C   0  0  0  0  0  0  0  0  0  0  0  0
  148.7995  141.5847  154.6479 C   0  0  2  0  0  0  0  0  0  0  0  0
  149.6172  140.9642  153.6763 O   0  0  0  0  0  0  0  0  0  0  0  0
  149.4736  141.3630  156.0104 C   0  0  0  0  0  0  0  0  0  0  0  0
  150.4875  142.3450  156.1824 O   0  0  0  0  0  0  0  0  0  0  0  0
  151.2167  142.3344  157.3516 C   0  0  0  0  0  0  0  0  0  0  0  0
  151.3943  141.0863  157.9830 C   0  0  0  0  0  0  0  0  0  0  0  0
  152.1291  140.9805  159.1798 C   0  0  0  0  0  0  0  0  0  0  0  0
  152.6966  142.1309  159.7620 C   0  0  0  0  0  0  0  0  0  0  0  0
  153.4562  142.0262  160.9967 C   0  0  0  0  0  0  0  0  0  0  0  0
  154.0610  141.9431  161.9796 N   0  0  0  0  0  0  0  0  0  0  0  0
  152.5239  143.3843  159.1422 C   0  0  0  0  0  0  0  0  0  0  0  0
  151.7887  143.4880  157.9452 C   0  0  0  0  0  0  0  0  0  0  0  0
  145.6128  141.9476  155.9922 C   0  0  0  0  0  0  0  0  0  0  0  0
  145.7845  141.1026  156.8720 O   0  0  0  0  0  0  0  0  0  0  0  0
  144.6130  143.0153  156.0703 C   0  0  0  0  0  0  0  0  0  0  0  0
  143.8320  143.0384  157.2649 C   0  0  0  0  0  0  0  0  0  0  0  0
  143.2125  143.0683  158.2424 N   0  0  0  0  0  0  0  0  0  0  0  0
  144.4403  143.9189  155.0732 C   0  0  0  0  0  0  0  0  0  0  0  0
  143.4145  145.0436  155.1037 C   0  0  0  0  0  0  0  0  0  0  0  0
  145.4652  145.7543  152.9909 H   0  0  0  0  0  0  0  0  0  0  0  0
  144.1687  144.7662  152.3139 H   0  0  0  0  0  0  0  0  0  0  0  0
  145.8419  144.4326  151.8912 H   0  0  0  0  0  0  0  0  0  0  0  0
  147.2932  140.1876  155.3453 H   0  0  0  0  0  0  0  0  0  0  0  0
  147.2200  140.4413  153.6417 H   0  0  0  0  0  0  0  0  0  0  0  0
  148.7667  142.6556  154.4413 H   0  0  0  0  0  0  0  0  0  0  0  0
  149.0936  140.3382  153.1986 H   0  0  0  0  0  0  0  0  0  0  0  0
  148.7324  141.4228  156.8096 H   0  0  0  0  0  0  0  0  0  0  0  0
  149.9273  140.3707  156.0409 H   0  0  0  0  0  0  0  0  0  0  0  0
  150.9633  140.1985  157.5436 H   0  0  0  0  0  0  0  0  0  0  0  0
  152.2535  140.0131  159.6451 H   0  0  0  0  0  0  0  0  0  0  0  0
  152.9537  144.2739  159.5801 H   0  0  0  0  0  0  0  0  0  0  0  0
  151.6772  144.4659  157.5023 H   0  0  0  0  0  0  0  0  0  0  0  0
  142.8850  145.0938  156.0548 H   0  0  0  0  0  0  0  0  0  0  0  0
  142.6701  144.9010  154.3196 H   0  0  0  0  0  0  0  0  0  0  0  0
  143.8969  146.0093  154.9497 H   0  0  0  0  0  0  0  0  0  0  0  0
  1  2  1  0  0  0  0
  1 25  1  0  0  0  0
  1 26  1  0  0  0  0
  1 27  1  0  0  0  0
  2 23  1  0  0  0  0
  2  3  2  0  0  0  0
  3  4  1  0  0  0  0
  4  5  1  0  0  0  0
  4 18  1  0  0  0  0
  5  6  1  0  0  0  0
  5 28  1  0  0  0  0
  5 29  1  0  0  0  0
  6  7  1  0  0  0  0
  6  8  1  0  0  0  0
  6 30  1  0  0  0  0
  7 31  1  0  0  0  0
  8  9  1  0  0  0  0
  8 32  1  0  0  0  0
  8 33  1  0  0  0  0
  9 10  1  0  0  0  0
 10 17  1  0  0  0  0
 10 11  2  0  0  0  0
 11 12  1  0  0  0  0
 11 34  1  0  0  0  0
 12 13  2  0  0  0  0
 12 35  1  0  0  0  0
 13 14  1  0  0  0  0
 13 16  1  0  0  0  0
 14 15  3  0  0  0  0
 16 17  2  0  0  0  0
 16 36  1  0  0  0  0
 17 37  1  0  0  0  0
 18 19  2  0  0  0  0
 18 20  1  0  0  0  0
 20 21  1  0  0  0  0
 20 23  2  0  0  0  0
 21 22  3  0  0  0  0
 23 24  1  0  0  0  0
 24 38  1  0  0  0  0
 24 39  1  0  0  0  0
 24 40  1  0  0  0  0
M  END
> <s_m_source_file>
AV-unprocessed.smi

> <i_m_source_file_index>
816

> <i_lp_mmshare_version>
43012

> <i_f3d_flags>
0

> <s_epik_input>
TiNDYyhjMVtDSDNdKWMoPU8pbihuYzFbQ0gzXSlbQ0gyXVtDQEhdKFtPSF0pW0NIMl1PYzJbY0hdW2NIXWMoQyNOKVtjSF1bY0hdMg==

> <s_epik_cmdline>
J2VwaWtfcHl0aG9uJywgJy1waCcsICc3LjAnLCAnLXRuJywgJzgnLCAnLW1hJywgJzIwMCcsICctbWV0YWxfYmluZGluZycsICctaW1hZScsICc8aW5maWxlLm1hZT4nLCAnLW9tYWUnLCAnPG91dGZpbGUubWFlPic=

> <r_lp_tautomer_probability>
1

> <r_epik_Ionization_Penalty>
1.1732e-07

> <r_epik_Ionization_Penalty_Charging>
1.4567e-10

> <r_epik_Ionization_Penalty_Neutral>
1.17174e-07

> <r_epik_State_Penalty>
-0

> <r_epik_Charging_Adjusted_Penalty>
1.4567e-10

> <i_epik_Tot_Q>
0

> <i_epik_Tot_abs_Q>
0

> <r_epik_Metal_State_Penalty>
-0

> <b_epik_Metal_Only>
0

> <s_lp_Force_Field>
OPLS_2005

> <r_lp_Energy>
30.0039

> <b_lp_Chiralities_Consistent>
1

> <s_lp_Variant>
AV-unprocessed.smi:816-1

> <Gold.Version>
5.8.1

> <Gold.Id.Protein>
6NUR|6NUR_protein|mol2

> <Gold.PLP.Fitness>
50.9353

> <Gold.PLP.PLP>
-48.5932

> <Gold.PLP.part.hbond>
-4.0000

> <Gold.PLP.part.metal>
0.0000

> <Gold.PLP.part.buried>
-6.8717

> <Gold.PLP.part.nonpolar>
-39.7029

> <Gold.PLP.part.repulsive>
1.6960

> <Gold.PLP.ligand.clash>
0.0000

> <Gold.PLP.ligand.torsion>
1.2158

> <Gold.PLP.Chemscore.Hbond>
1.5854

> <Gold.PLP.Chemscore.CHOScore>
0.0000

> <Gold.PLP.Chemscore.Metal>
0.0000

> <Gold.Chemscore.Hbonds>
donor molecule, donor type, donor heavy atom, donor atom, acceptor molecule, acceptor atom, score
      L1  H     7    31       P1  7957  0.24
      P1  H  7989  7998       L1     7  0.34
      P1  H  8011  8017       L1     7  1.00

> <Gold.PLP.Chemscore.Internal.Correction>
0.0176

> <Gold.Rescore>
     Score         DG    S(hbond)    S(metal)    S(lipo)     H(rot)  DE(clash)    DE(int)     intcor
     11.53     -13.69       0.76        0.00     105.78       2.62       0.96       1.20       ----

> <Gold.Chemscore.Fitness>
11.5321

> <Gold.Chemscore.DG>
-13.6892

> <Gold.Chemscore.ZeroCoef>
-5.4800

> <Gold.Chemscore.Hbond>
0.7623

> <Gold.Chemscore.Metal>
0.0000

> <Gold.Chemscore.Lipo>
105.7776

> <Gold.Chemscore.Internal_Hbond>
0.0000

> <Gold.Chemscore.DEClash>
0.9588

> <Gold.Chemscore.DEInternal>
1.1984

> <Gold.Chemscore.Rot>
2.6222

> <Gold.Chemscore.Internal.Correction>
   9.000000E+99

> <Gold.Chemscore.Hbonds>
donor molecule, donor type, donor heavy atom, donor atom, acceptor molecule, acceptor atom, score
      L1  H     7    31       P1  7957  0.25
      P1  H  7989  7998       L1     7  0.32
      P1  H  8011  8017       L1     7  0.10

> <Gold.Chemscore.Hbond.Weighted>
-2.5460

> <Gold.Chemscore.Metal.Weighted>
-0.0000

> <Gold.Chemscore.Lipo.Weighted>
-12.3760

> <Gold.Chemscore.Internal_Hbond.Weighted>
0.0000

> <Gold.Chemscore.DEClash.Weighted>
0.9588

> <Gold.Chemscore.DEInternal.Weighted>
1.1984

> <Gold.Chemscore.Rot.Weighted>
6.7127

> <Gold.Chemscore.Internal.Correction.Weighted>
   9.000000E+99

> <Gold.Protein.RotatedTorsions>
[ 6907 6896 6895 6894 ] final   21.54 input  -60.11 | X-H torsion
[ 7974 7965 7964 7962 ] final   44.87 input  175.53 | X-H torsion
[ 8008 7997 7996 7995 ] final   67.80 input   59.86 | X-H torsion
[ 10167 10162 10161 10158 ] final   26.10 input  -65.29 | X-H torsion
[ 10718 10713 10712 10709 ] final -174.68 input   66.30 | X-H torsion
[ 10763 10752 10751 10750 ] final  179.31 input  -60.55 | X-H torsion
[ 11005 11000 10999 10996 ] final  -81.94 input  -57.11 | X-H torsion

> <Gold.Protein.ActiveResidues>
 VAL166  LYS551  ARG553  GLY616  TRP617  ASP618  TYR619  PRO620  LYS621  CYS622 
 ASP623  PHE694  ASN695  SER759  ASP760  ASP761  ALA762  ILE779  LEU786  VAL792 
 PHE793  MET794  SER795  GLU796  ALA797  LYS798  CYS799  TRP800  GLU811  SER814 

> <Gold.Protein.RotatedAtoms>
  151.9133  135.0329  160.0515 H   0  0  0  0  0  0  0  0  0  0  0  0  # atno 6907 bound_to 6896
  152.2261  133.5016  159.5198 H   0  0  0  0  0  0  0  0  0  0  0  0  # atno 6908 bound_to 6896
  150.7012  134.1195  159.4072 H   0  0  0  0  0  0  0  0  0  0  0  0  # atno 6909 bound_to 6896
  146.0530  139.5027  142.9706 H   0  0  0  0  0  0  0  0  0  0  0  0  # atno 7974 bound_to 7965
  155.6984  140.3495  155.4923 H   0  0  0  0  0  0  0  0  0  0  0  0  # atno 8008 bound_to 7997
  155.9462  140.1111  157.1037 H   0  0  0  0  0  0  0  0  0  0  0  0  # atno 8009 bound_to 7997
  154.4112  140.1203  156.4979 H   0  0  0  0  0  0  0  0  0  0  0  0  # atno 8010 bound_to 7997
  140.5051  144.0251  150.6349 H   0  0  0  0  0  0  0  0  0  0  0  0  # atno 10167 bound_to 10162
  156.7887  130.9510  151.3120 H   0  0  0  0  0  0  0  0  0  0  0  0  # atno 10718 bound_to 10713
  154.5190  135.2793  155.1279 H   0  0  0  0  0  0  0  0  0  0  0  0  # atno 10763 bound_to 10752
  154.2844  135.6279  153.5363 H   0  0  0  0  0  0  0  0  0  0  0  0  # atno 10764 bound_to 10752
  152.9933  135.5659  154.5674 H   0  0  0  0  0  0  0  0  0  0  0  0  # atno 10765 bound_to 10752
  141.1665  133.7220  156.8498 H   0  0  0  0  0  0  0  0  0  0  0  0  # atno 11005 bound_to 11000
  145.6691  141.0221  143.1667 LP  0  0  0  0  0  0  0  0  0  0  0  0  # atno 17320 bound_to 7965
  144.7133  139.8290  143.7407 LP  0  0  0  0  0  0  0  0  0  0  0  0  # atno 17321 bound_to 7965
  140.3558  143.2936  152.0437 LP  0  0  0  0  0  0  0  0  0  0  0  0  # atno 17342 bound_to 10162
  139.4881  144.6340  151.7013 LP  0  0  0  0  0  0  0  0  0  0  0  0  # atno 17343 bound_to 10162
  157.6611  130.8967  149.9832 LP  0  0  0  0  0  0  0  0  0  0  0  0  # atno 17370 bound_to 10713
  156.1172  130.3647  149.9948 LP  0  0  0  0  0  0  0  0  0  0  0  0  # atno 17371 bound_to 10713
  140.1924  134.8956  157.3075 LP  0  0  0  0  0  0  0  0  0  0  0  0  # atno 17394 bound_to 11000
  140.2276  134.3948  155.7536 LP  0  0  0  0  0  0  0  0  0  0  0  0  # atno 17395 bound_to 11000

$$$$
