AV-unprocessed.smi:2303|AV-procd|sdf|9242|dock10
  -GOLD-   2272012463D 1   1.00000     0.00000
 Structure written by MMmdl.
 33 34  0  0  0  0  0  0  0  0  1 V2000
  146.7840  142.2632  154.9653 C   0  0  0  0  0  0  0  0  0  0  0  0
  147.1678  141.6748  156.3349 C   0  0  0  0  0  0  0  0  0  0  0  0
  146.6180  142.5517  157.4740 C   0  0  0  0  0  0  0  0  0  0  0  0
  148.6663  141.4144  156.4945 C   0  0  0  0  0  0  0  0  0  0  0  0
  149.4452  141.8143  157.5202 C   0  0  0  0  0  0  0  0  0  0  0  0
  150.8592  141.4809  157.5097 C   0  0  0  0  0  0  0  0  0  0  0  0
  151.6685  141.8657  158.6670 C   0  0  0  0  0  0  0  0  0  0  0  0
  152.2263  141.0449  159.3958 O   0  0  0  0  0  0  0  0  0  0  0  0
  151.7778  143.1916  158.9100 N   0  0  0  0  0  0  0  0  0  0  0  0
  152.4587  143.8362  160.0251 C   0  0  0  0  0  0  0  0  0  0  0  0
  151.8874  145.2425  160.0378 C   0  0  0  0  0  0  0  0  0  0  0  0
  150.5273  145.0480  159.3866 C   0  0  0  0  0  0  0  0  0  0  0  0
  150.7860  144.0583  158.4059 O   0  0  0  0  0  0  0  0  0  0  0  0
  151.3713  140.7508  156.4879 C   0  0  0  0  0  0  0  0  0  0  0  0
  150.5381  140.3265  155.3606 C   0  0  0  0  0  0  0  0  0  0  0  0
  150.9625  139.6866  154.4014 O   0  0  0  0  0  0  0  0  0  0  0  0
  149.2365  140.6874  155.4386 N   0  0  0  0  0  0  0  0  0  0  0  0
  147.1115  141.6180  154.1496 H   0  0  0  0  0  0  0  0  0  0  0  0
  147.2241  143.2498  154.8157 H   0  0  0  0  0  0  0  0  0  0  0  0
  145.7025  142.3702  154.8771 H   0  0  0  0  0  0  0  0  0  0  0  0
  146.6809  140.7012  156.4085 H   0  0  0  0  0  0  0  0  0  0  0  0
  146.7720  142.0931  158.4511 H   0  0  0  0  0  0  0  0  0  0  0  0
  145.5457  142.7132  157.3610 H   0  0  0  0  0  0  0  0  0  0  0  0
  147.1002  143.5297  157.4855 H   0  0  0  0  0  0  0  0  0  0  0  0
  149.0330  142.3765  158.3451 H   0  0  0  0  0  0  0  0  0  0  0  0
  152.2237  143.3159  160.9552 H   0  0  0  0  0  0  0  0  0  0  0  0
  153.5409  143.8340  159.8908 H   0  0  0  0  0  0  0  0  0  0  0  0
  151.8258  145.6724  161.0379 H   0  0  0  0  0  0  0  0  0  0  0  0
  152.5022  145.8988  159.4204 H   0  0  0  0  0  0  0  0  0  0  0  0
  149.8041  144.6626  160.1069 H   0  0  0  0  0  0  0  0  0  0  0  0
  150.1281  145.9620  158.9468 H   0  0  0  0  0  0  0  0  0  0  0  0
  152.4104  140.4537  156.4908 H   0  0  0  0  0  0  0  0  0  0  0  0
  148.6173  140.4160  154.6886 H   0  0  0  0  0  0  0  0  0  0  0  0
  1  2  1  0  0  0  0
  1 18  1  0  0  0  0
  1 19  1  0  0  0  0
  1 20  1  0  0  0  0
  2  3  1  0  0  0  0
  2 21  1  0  0  0  0
  2  4  1  0  0  0  0
  3 22  1  0  0  0  0
  3 23  1  0  0  0  0
  3 24  1  0  0  0  0
  4 17  1  0  0  0  0
  4  5  2  0  0  0  0
  5 25  1  0  0  0  0
  5  6  1  0  0  0  0
  6  7  1  0  0  0  0
  6 14  2  0  0  0  0
  7  8  2  0  0  0  0
  7  9  1  0  0  0  0
  9 13  1  0  0  0  0
  9 10  1  0  0  0  0
 10 11  1  0  0  0  0
 10 26  1  0  0  0  0
 10 27  1  0  0  0  0
 11 12  1  0  0  0  0
 11 28  1  0  0  0  0
 11 29  1  0  0  0  0
 12 13  1  0  0  0  0
 12 30  1  0  0  0  0
 12 31  1  0  0  0  0
 14 15  1  0  0  0  0
 14 32  1  0  0  0  0
 15 16  2  0  0  0  0
 15 17  1  0  0  0  0
 17 33  1  0  0  0  0
M  END
> <s_m_source_file>
AV-unprocessed.smi

> <i_m_source_file_index>
2303

> <i_lp_mmshare_version>
43012

> <i_f3d_flags>
0

> <s_epik_input>
W0NIM11bQ0hdKFtDSDNdKWMxW2NIXWMoW2NIXWMobjEpW09IXSlDKD1PKU4yW0NIMl1bQ0gyXVtDSDJdTzI=

> <s_epik_cmdline>
J2VwaWtfcHl0aG9uJywgJy1waCcsICc3LjAnLCAnLXRuJywgJzgnLCAnLW1hJywgJzIwMCcsICctbWV0YWxfYmluZGluZycsICctaW1hZScsICc8aW5maWxlLm1hZT4nLCAnLW9tYWUnLCAnPG91dGZpbGUubWFlPic=

> <r_lp_tautomer_probability>
1

> <r_epik_Ionization_Penalty>
8.70942e-05

> <r_epik_Ionization_Penalty_Charging>
8.7046e-05

> <r_epik_Ionization_Penalty_Neutral>
4.82304e-08

> <r_epik_State_Penalty>
-0

> <r_epik_Charging_Adjusted_Penalty>
8.7046e-05

> <i_epik_Tot_Q>
0

> <i_epik_Tot_abs_Q>
0

> <r_epik_Metal_State_Penalty>
0.0811253

> <b_epik_Metal_Only>
0

> <s_epik_Chemistry_Notes>
This compound has a N-S or N-O group and may undergo hydrolysis at high or low pH.

> <s_lp_Force_Field>
OPLS_2005

> <r_lp_Energy>
27.1372

> <b_lp_Chiralities_Consistent>
1

> <s_lp_Variant>
AV-unprocessed.smi:2303-1

> <Gold.Version>
5.8.1

> <Gold.Id.Protein>
6NUR|6NUR_protein|mol2

> <Gold.PLP.Fitness>
33.9146

> <Gold.PLP.PLP>
-32.4215

> <Gold.PLP.part.hbond>
-1.0000

> <Gold.PLP.part.metal>
0.0000

> <Gold.PLP.part.buried>
-5.2148

> <Gold.PLP.part.nonpolar>
-26.5274

> <Gold.PLP.part.repulsive>
0.3701

> <Gold.PLP.ligand.clash>
0.0000

> <Gold.PLP.ligand.torsion>
1.3608

> <Gold.PLP.Chemscore.Hbond>
1.0000

> <Gold.PLP.Chemscore.CHOScore>
0.0000

> <Gold.PLP.Chemscore.Metal>
0.0000

> <Gold.Chemscore.Hbonds>
donor molecule, donor type, donor heavy atom, donor atom, acceptor molecule, acceptor atom, score
      P1  H  7989  7998       L1    16  1.00

> <Gold.PLP.Chemscore.Internal.Correction>
1.2147

> <Gold.Rescore>
     Score         DG    S(hbond)    S(metal)    S(lipo)     H(rot)  DE(clash)    DE(int)     intcor
     10.14     -13.13       0.92        0.00      60.96       1.00       0.18       2.80       ----

> <Gold.Chemscore.Fitness>
10.1438

> <Gold.Chemscore.DG>
-13.1281

> <Gold.Chemscore.ZeroCoef>
-5.4800

> <Gold.Chemscore.Hbond>
0.9209

> <Gold.Chemscore.Metal>
0.0000

> <Gold.Chemscore.Lipo>
60.9591

> <Gold.Chemscore.Internal_Hbond>
0.0000

> <Gold.Chemscore.DEClash>
0.1849

> <Gold.Chemscore.DEInternal>
2.7995

> <Gold.Chemscore.Rot>
1.0000

> <Gold.Chemscore.Internal.Correction>
   9.000000E+99

> <Gold.Chemscore.Hbonds>
donor molecule, donor type, donor heavy atom, donor atom, acceptor molecule, acceptor atom, score
      P1  H  7989  7998       L1    16  0.34

> <Gold.Chemscore.Hbond.Weighted>
-3.0759

> <Gold.Chemscore.Metal.Weighted>
-0.0000

> <Gold.Chemscore.Lipo.Weighted>
-7.1322

> <Gold.Chemscore.Internal_Hbond.Weighted>
0.0000

> <Gold.Chemscore.DEClash.Weighted>
0.1849

> <Gold.Chemscore.DEInternal.Weighted>
2.7995

> <Gold.Chemscore.Rot.Weighted>
2.5600

> <Gold.Chemscore.Internal.Correction.Weighted>
   9.000000E+99

> <Gold.Protein.RotatedTorsions>
[ 6907 6896 6895 6894 ] final   91.54 input  -60.11 | X-H torsion
[ 7974 7965 7964 7962 ] final -155.25 input  175.53 | X-H torsion
[ 8008 7997 7996 7995 ] final  168.33 input   59.86 | X-H torsion
[ 10167 10162 10161 10158 ] final  -78.51 input  -65.29 | X-H torsion
[ 10718 10713 10712 10709 ] final  153.07 input   66.30 | X-H torsion
[ 10763 10752 10751 10750 ] final  158.34 input  -60.55 | X-H torsion
[ 11005 11000 10999 10996 ] final  110.10 input  -57.11 | X-H torsion

> <Gold.Protein.ActiveResidues>
 VAL166  LYS551  ARG553  GLY616  TRP617  ASP618  TYR619  PRO620  LYS621  CYS622 
 ASP623  PHE694  ASN695  SER759  ASP760  ASP761  ALA762  ILE779  LEU786  VAL792 
 PHE793  MET794  SER795  GLU796  ALA797  LYS798  CYS799  TRP800  GLU811  SER814 

> <Gold.Protein.RotatedAtoms>
  152.5450  134.1641  159.8569 H   0  0  0  0  0  0  0  0  0  0  0  0  # atno 6907 bound_to 6896
  151.1657  133.4809  159.2601 H   0  0  0  0  0  0  0  0  0  0  0  0  # atno 6908 bound_to 6896
  151.1327  135.0150  159.8645 H   0  0  0  0  0  0  0  0  0  0  0  0  # atno 6909 bound_to 6896
  144.7649  140.4275  143.5949 H   0  0  0  0  0  0  0  0  0  0  0  0  # atno 7974 bound_to 7965
  156.1556  140.1593  156.8697 H   0  0  0  0  0  0  0  0  0  0  0  0  # atno 8008 bound_to 7997
  154.5112  140.0800  156.8029 H   0  0  0  0  0  0  0  0  0  0  0  0  # atno 8009 bound_to 7997
  155.3809  140.3405  155.4249 H   0  0  0  0  0  0  0  0  0  0  0  0  # atno 8010 bound_to 7997
  140.4675  143.2436  151.8255 H   0  0  0  0  0  0  0  0  0  0  0  0  # atno 10167 bound_to 10162
  157.2496  131.0776  151.1739 H   0  0  0  0  0  0  0  0  0  0  0  0  # atno 10718 bound_to 10713
  154.2145  135.2784  155.2946 H   0  0  0  0  0  0  0  0  0  0  0  0  # atno 10763 bound_to 10752
  154.5751  135.5606  153.7135 H   0  0  0  0  0  0  0  0  0  0  0  0  # atno 10764 bound_to 10752
  153.0056  135.6331  154.2285 H   0  0  0  0  0  0  0  0  0  0  0  0  # atno 10765 bound_to 10752
  139.8875  134.9475  156.6228 H   0  0  0  0  0  0  0  0  0  0  0  0  # atno 11005 bound_to 11000
  145.6501  139.1563  143.2866 LP  0  0  0  0  0  0  0  0  0  0  0  0  # atno 17320 bound_to 7965
  146.1747  140.6591  142.9217 LP  0  0  0  0  0  0  0  0  0  0  0  0  # atno 17321 bound_to 7965
  139.4814  144.4932  151.9158 LP  0  0  0  0  0  0  0  0  0  0  0  0  # atno 17342 bound_to 10162
  140.4017  144.2484  150.5893 LP  0  0  0  0  0  0  0  0  0  0  0  0  # atno 17343 bound_to 10162
  157.3292  130.6976  149.6314 LP  0  0  0  0  0  0  0  0  0  0  0  0  # atno 17370 bound_to 10713
  155.9667  130.4312  150.4911 LP  0  0  0  0  0  0  0  0  0  0  0  0  # atno 17371 bound_to 10713
  140.7726  133.8725  155.8504 LP  0  0  0  0  0  0  0  0  0  0  0  0  # atno 17394 bound_to 11000
  140.9829  134.1382  157.4478 LP  0  0  0  0  0  0  0  0  0  0  0  0  # atno 17395 bound_to 11000

$$$$
