AV-unprocessed.smi:2771|AV-procd|sdf|10662|dock1
  -GOLD-   2272015103D 1   1.00000     0.00000
 Structure written by MMmdl.
 43 44  0  0  0  0  0  0  0  0  1 V2000
  144.3945  132.4266  149.6754 C   0  0  0  0  0  0  0  0  0  0  0  0
  145.2914  132.0903  150.8481 C   0  0  0  0  0  0  0  0  0  0  0  0
  145.2692  130.8097  151.4343 C   0  0  0  0  0  0  0  0  0  0  0  0
  146.1274  130.5633  152.5209 C   0  0  0  0  0  0  0  0  0  0  0  0
  146.9659  131.6004  152.9738 C   0  0  0  0  0  0  0  0  0  0  0  0
  146.9253  132.8581  152.3307 C   0  0  0  0  0  0  0  0  0  0  0  0
  147.8077  133.8362  152.8618 N   0  0  0  0  0  0  0  0  0  0  0  0
  148.3385  133.8929  154.0960 C   0  0  0  0  0  0  0  0  0  0  0  0
  148.1427  133.0737  154.9943 O   0  0  0  0  0  0  0  0  0  0  0  0
  149.1300  134.9660  154.2351 N   0  0  0  0  0  0  0  0  0  0  0  0
  149.8681  135.3182  155.4445 C   0  0  0  0  0  0  0  0  0  0  0  0
  150.5447  136.7032  155.3134 C   0  0  2  0  0  0  0  0  0  0  0  0
  151.5512  136.5606  154.3283 O   0  0  0  0  0  0  0  0  0  0  0  0
  151.2223  137.2220  156.6132 C   0  0  0  0  0  0  0  0  0  0  0  0
  150.2440  137.2971  157.8128 C   0  0  0  0  0  0  0  0  0  0  0  0
  150.9166  137.8398  159.0848 C   0  0  0  0  0  0  0  0  0  0  0  0
  151.5495  139.2152  158.8423 C   0  0  0  0  0  0  0  0  0  0  0  0
  152.5378  139.1554  157.6714 C   0  0  0  0  0  0  0  0  0  0  0  0
  151.8610  138.6189  156.4004 C   0  0  0  0  0  0  0  0  0  0  0  0
  146.0938  133.0852  151.2835 N   0  0  0  0  0  0  0  0  0  0  0  0
  143.9531  131.5270  149.2458 H   0  0  0  0  0  0  0  0  0  0  0  0
  144.9612  132.9322  148.8928 H   0  0  0  0  0  0  0  0  0  0  0  0
  143.5870  133.0854  149.9952 H   0  0  0  0  0  0  0  0  0  0  0  0
  144.6135  130.0357  151.0633 H   0  0  0  0  0  0  0  0  0  0  0  0
  146.1430  129.5957  153.0002 H   0  0  0  0  0  0  0  0  0  0  0  0
  147.6310  131.4273  153.8074 H   0  0  0  0  0  0  0  0  0  0  0  0
  148.0665  134.5774  152.2276 H   0  0  0  0  0  0  0  0  0  0  0  0
  149.2348  135.5852  153.4449 H   0  0  0  0  0  0  0  0  0  0  0  0
  149.1186  135.3212  156.2319 H   0  0  0  0  0  0  0  0  0  0  0  0
  150.5877  134.5456  155.7226 H   0  0  0  0  0  0  0  0  0  0  0  0
  149.8183  137.4415  154.9703 H   0  0  0  0  0  0  0  0  0  0  0  0
  151.1342  136.4484  153.4871 H   0  0  0  0  0  0  0  0  0  0  0  0
  152.0200  136.5256  156.8774 H   0  0  0  0  0  0  0  0  0  0  0  0
  149.3923  137.9275  157.5535 H   0  0  0  0  0  0  0  0  0  0  0  0
  149.8394  136.3153  158.0511 H   0  0  0  0  0  0  0  0  0  0  0  0
  150.1858  137.9055  159.8914 H   0  0  0  0  0  0  0  0  0  0  0  0
  151.6829  137.1392  159.4190 H   0  0  0  0  0  0  0  0  0  0  0  0
  150.7691  139.9469  158.6289 H   0  0  0  0  0  0  0  0  0  0  0  0
  152.0588  139.5568  159.7439 H   0  0  0  0  0  0  0  0  0  0  0  0
  152.9494  140.1473  157.4823 H   0  0  0  0  0  0  0  0  0  0  0  0
  153.3813  138.5159  157.9344 H   0  0  0  0  0  0  0  0  0  0  0  0
  152.6058  138.5869  155.6051 H   0  0  0  0  0  0  0  0  0  0  0  0
  151.0961  139.3246  156.0729 H   0  0  0  0  0  0  0  0  0  0  0  0
  1  2  1  0  0  0  0
  1 21  1  0  0  0  0
  1 22  1  0  0  0  0
  1 23  1  0  0  0  0
  2 20  1  0  0  0  0
  2  3  2  0  0  0  0
  3  4  1  0  0  0  0
  3 24  1  0  0  0  0
  4  5  2  0  0  0  0
  4 25  1  0  0  0  0
  5  6  1  0  0  0  0
  5 26  1  0  0  0  0
  6  7  1  0  0  0  0
  6 20  2  0  0  0  0
  7  8  1  0  0  0  0
  7 27  1  0  0  0  0
  8  9  2  0  0  0  0
  8 10  1  0  0  0  0
 10 11  1  0  0  0  0
 10 28  1  0  0  0  0
 11 12  1  0  0  0  0
 11 29  1  0  0  0  0
 11 30  1  0  0  0  0
 12 13  1  0  0  0  0
 12 14  1  0  0  0  0
 12 31  1  0  0  0  0
 13 32  1  0  0  0  0
 14 19  1  0  0  0  0
 14 15  1  0  0  0  0
 14 33  1  0  0  0  0
 15 16  1  0  0  0  0
 15 34  1  0  0  0  0
 15 35  1  0  0  0  0
 16 17  1  0  0  0  0
 16 36  1  0  0  0  0
 16 37  1  0  0  0  0
 17 18  1  0  0  0  0
 17 38  1  0  0  0  0
 17 39  1  0  0  0  0
 18 19  1  0  0  0  0
 18 40  1  0  0  0  0
 18 41  1  0  0  0  0
 19 42  1  0  0  0  0
 19 43  1  0  0  0  0
M  END
> <s_m_source_file>
AV-unprocessed.smi

> <i_m_source_file_index>
2771

> <i_lp_mmshare_version>
43012

> <i_f3d_flags>
0

> <s_epik_input>
W0NIM11jMVtjSF1bY0hdW2NIXWMobjEpW05IXUMoPU8pW05IXVtDSDJdW0NASF0oW09IXSlbQ0hdMltDSDJdW0NIMl1bQ0gyXVtDSDJdW0NIMl0y

> <s_epik_cmdline>
J2VwaWtfcHl0aG9uJywgJy1waCcsICc3LjAnLCAnLXRuJywgJzgnLCAnLW1hJywgJzIwMCcsICctbWV0YWxfYmluZGluZycsICctaW1hZScsICc8aW5maWxlLm1hZT4nLCAnLW9tYWUnLCAnPG91dGZpbGUubWFlPic=

> <r_lp_tautomer_probability>
1

> <r_epik_Ionization_Penalty>
8.92802e-05

> <r_epik_Ionization_Penalty_Charging>
0

> <r_epik_Ionization_Penalty_Neutral>
8.92802e-05

> <r_epik_State_Penalty>
-0

> <r_epik_Charging_Adjusted_Penalty>
0

> <i_epik_Tot_Q>
0

> <i_epik_Tot_abs_Q>
0

> <r_epik_Metal_State_Penalty>
-0

> <b_epik_Metal_Only>
0

> <s_lp_Force_Field>
OPLS_2005

> <r_lp_Energy>
16.1378

> <b_lp_Chiralities_Consistent>
1

> <s_lp_Variant>
AV-unprocessed.smi:2771-1

> <Gold.Version>
5.8.1

> <Gold.Id.Protein>
6NUR|6NUR_protein|mol2

> <Gold.PLP.Fitness>
44.0672

> <Gold.PLP.PLP>
-32.3451

> <Gold.PLP.part.hbond>
-4.0000

> <Gold.PLP.part.metal>
0.0000

> <Gold.PLP.part.buried>
-5.0991

> <Gold.PLP.part.nonpolar>
-22.9129

> <Gold.PLP.part.repulsive>
0.1935

> <Gold.PLP.ligand.clash>
0.0000

> <Gold.PLP.ligand.torsion>
0.1755

> <Gold.PLP.Chemscore.Hbond>
4.0000

> <Gold.PLP.Chemscore.CHOScore>
0.0000

> <Gold.PLP.Chemscore.Metal>
0.0000

> <Gold.Chemscore.Hbonds>
donor molecule, donor type, donor heavy atom, donor atom, acceptor molecule, acceptor atom, score
      L1  H     7    27       P1  7948  1.00
      L1  H    10    28       P1  7948  1.00
      L1  H    13    32       P1  7949  0.96
      P1  H 10752 10765       L1    13  1.00

> <Gold.PLP.Chemscore.Internal.Correction>
0.0731

> <Gold.Rescore>
     Score         DG    S(hbond)    S(metal)    S(lipo)     H(rot)  DE(clash)    DE(int)     intcor
     17.29     -18.95       2.78        0.00      78.44       1.95       0.06       1.61       ----

> <Gold.Chemscore.Fitness>
17.2867

> <Gold.Chemscore.DG>
-18.9506

> <Gold.Chemscore.ZeroCoef>
-5.4800

> <Gold.Chemscore.Hbond>
2.7828

> <Gold.Chemscore.Metal>
0.0000

> <Gold.Chemscore.Lipo>
78.4387

> <Gold.Chemscore.Internal_Hbond>
0.0000

> <Gold.Chemscore.DEClash>
0.0583

> <Gold.Chemscore.DEInternal>
1.6057

> <Gold.Chemscore.Rot>
1.9536

> <Gold.Chemscore.Internal.Correction>
   9.000000E+99

> <Gold.Chemscore.Hbonds>
donor molecule, donor type, donor heavy atom, donor atom, acceptor molecule, acceptor atom, score
      L1  H     7    27       P1  7948  0.25
      L1  H    10    28       P1  7948  0.44
      L1  H    13    32       P1  7949  0.35
      P1  H 10752 10765       L1    13  0.78

> <Gold.Chemscore.Hbond.Weighted>
-9.2946

> <Gold.Chemscore.Metal.Weighted>
-0.0000

> <Gold.Chemscore.Lipo.Weighted>
-9.1773

> <Gold.Chemscore.Internal_Hbond.Weighted>
0.0000

> <Gold.Chemscore.DEClash.Weighted>
0.0583

> <Gold.Chemscore.DEInternal.Weighted>
1.6057

> <Gold.Chemscore.Rot.Weighted>
5.0013

> <Gold.Chemscore.Internal.Correction.Weighted>
   9.000000E+99

> <Gold.Protein.RotatedTorsions>
[ 6907 6896 6895 6894 ] final   13.87 input  -60.11 | X-H torsion
[ 7974 7965 7964 7962 ] final    8.36 input  175.53 | X-H torsion
[ 8008 7997 7996 7995 ] final  108.85 input   59.86 | X-H torsion
[ 10167 10162 10161 10158 ] final  123.05 input  -65.29 | X-H torsion
[ 10718 10713 10712 10709 ] final   37.88 input   66.30 | X-H torsion
[ 10763 10752 10751 10750 ] final  171.83 input  -60.55 | X-H torsion
[ 11005 11000 10999 10996 ] final  -39.91 input  -57.11 | X-H torsion

> <Gold.Protein.ActiveResidues>
 VAL166  LYS551  ARG553  GLY616  TRP617  ASP618  TYR619  PRO620  LYS621  CYS622 
 ASP623  PHE694  ASN695  SER759  ASP760  ASP761  ALA762  ILE779  LEU786  VAL792 
 PHE793  MET794  SER795  GLU796  ALA797  LYS798  CYS799  TRP800  GLU811  SER814 

> <Gold.Protein.RotatedAtoms>
  151.7932  135.0730  160.0389 H   0  0  0  0  0  0  0  0  0  0  0  0  # atno 6907 bound_to 6896
  152.3142  133.5780  159.5709 H   0  0  0  0  0  0  0  0  0  0  0  0  # atno 6908 bound_to 6896
  150.7335  134.0024  159.3684 H   0  0  0  0  0  0  0  0  0  0  0  0  # atno 6909 bound_to 6896
  146.2417  139.9944  142.8422 H   0  0  0  0  0  0  0  0  0  0  0  0  # atno 7974 bound_to 7965
  156.1934  140.3069  155.9379 H   0  0  0  0  0  0  0  0  0  0  0  0  # atno 8008 bound_to 7997
  155.3120  140.0451  157.3052 H   0  0  0  0  0  0  0  0  0  0  0  0  # atno 8009 bound_to 7997
  154.5480  140.2282  155.8540 H   0  0  0  0  0  0  0  0  0  0  0  0  # atno 8010 bound_to 7997
  139.5822  144.6991  151.3499 H   0  0  0  0  0  0  0  0  0  0  0  0  # atno 10167 bound_to 10162
  157.3522  130.7604  149.6986 H   0  0  0  0  0  0  0  0  0  0  0  0  # atno 10718 bound_to 10713
  154.4174  135.2757  155.1998 H   0  0  0  0  0  0  0  0  0  0  0  0  # atno 10763 bound_to 10752
  154.3958  135.6056  153.5872 H   0  0  0  0  0  0  0  0  0  0  0  0  # atno 10764 bound_to 10752
  152.9832  135.5914  154.4465 H   0  0  0  0  0  0  0  0  0  0  0  0  # atno 10765 bound_to 10752
  141.0137  133.6896  156.2251 H   0  0  0  0  0  0  0  0  0  0  0  0  # atno 11005 bound_to 11000
  145.1473  140.9604  143.4453 LP  0  0  0  0  0  0  0  0  0  0  0  0  # atno 17320 bound_to 7965
  145.0239  139.3400  143.6059 LP  0  0  0  0  0  0  0  0  0  0  0  0  # atno 17321 bound_to 7965
  140.7099  143.7418  150.7548 LP  0  0  0  0  0  0  0  0  0  0  0  0  # atno 17342 bound_to 10162
  140.0953  143.4839  152.2456 LP  0  0  0  0  0  0  0  0  0  0  0  0  # atno 17343 bound_to 10162
  155.9723  130.4137  150.4097 LP  0  0  0  0  0  0  0  0  0  0  0  0  # atno 17370 bound_to 10713
  157.2161  131.0472  151.2572 LP  0  0  0  0  0  0  0  0  0  0  0  0  # atno 17371 bound_to 10713
  140.6691  134.4886  157.5586 LP  0  0  0  0  0  0  0  0  0  0  0  0  # atno 17394 bound_to 11000
  139.9104  134.8357  156.1549 LP  0  0  0  0  0  0  0  0  0  0  0  0  # atno 17395 bound_to 11000

$$$$
