AV-unprocessed.smi:102|AV-procd|sdf|963|dock3
  -GOLD-   2262017503D 1   1.00000     0.00000
 Structure written by MMmdl.
 43 44  0  0  0  0  0  0  0  0  2 V2000
  147.2118  135.1596  162.6827 C   0  0  0  0  0  0  0  0  0  0  0  0
  147.4487  135.8677  161.3555 C   0  0  0  0  0  0  0  0  0  0  0  0
  147.3244  137.0874  161.2446 O   0  0  0  0  0  0  0  0  0  0  0  0
  147.7878  135.0163  160.3778 O   0  0  0  0  0  0  0  0  0  0  0  0
  147.7914  135.4525  159.0273 C   0  0  0  0  0  0  0  0  0  0  0  0
  148.4040  134.3851  158.1051 C   0  0  2  0  0  0  0  0  0  0  0  0
  149.7252  134.7695  157.7271 O   0  0  0  0  0  0  0  0  0  0  0  0
  149.8167  134.9197  156.3399 C   0  0  2  0  0  0  0  0  0  0  0  0
  150.5702  136.1903  156.0213 N   0  0  0  0  0  0  0  0  0  0  0  0
  149.9519  137.2342  155.3542 C   0  0  0  0  0  0  0  0  0  0  0  0
  150.6263  138.3560  155.0313 C   0  0  0  0  0  0  0  0  0  0  0  0
  149.9976  139.3506  154.3813 F   0  0  0  0  0  0  0  0  0  0  0  0
  152.0379  138.4792  155.3896 C   0  0  0  0  0  0  0  0  0  0  0  0
  152.6486  139.5047  155.0924 O   0  0  0  0  0  0  0  0  0  0  0  0
  152.6219  137.4353  156.0465 N   0  5  0  0  0  0  0  0  0  0  0  0
  151.9441  136.2951  156.3707 C   0  0  0  0  0  0  0  0  0  0  0  0
  152.4686  135.3446  156.9509 O   0  0  0  0  0  0  0  0  0  0  0  0
  148.3899  134.9907  155.7939 C   0  0  1  0  0  0  0  0  0  0  0  0
  148.3172  134.4888  154.4655 O   0  0  0  0  0  0  0  0  0  0  0  0
  147.1276  134.3578  153.8591 C   0  0  0  0  0  0  0  0  0  0  0  0
  147.2150  133.5236  152.5885 C   0  0  0  0  0  0  0  0  0  0  0  0
  146.0598  134.8330  154.2460 O   0  0  0  0  0  0  0  0  0  0  0  0
  147.6210  134.1517  156.8046 C   0  0  1  0  0  0  0  0  0  0  0  0
  147.6733  132.7706  156.4554 O   0  0  0  0  0  0  0  0  0  0  0  0
  147.0378  131.8547  157.2063 C   0  0  0  0  0  0  0  0  0  0  0  0
  147.1458  130.4522  156.6230 C   0  0  0  0  0  0  0  0  0  0  0  0
  146.4307  132.0709  158.2552 O   0  0  0  0  0  0  0  0  0  0  0  0
  146.6222  134.2546  162.5316 H   0  0  0  0  0  0  0  0  0  0  0  0
  146.6721  135.8108  163.3709 H   0  0  0  0  0  0  0  0  0  0  0  0
  148.1624  134.8831  163.1391 H   0  0  0  0  0  0  0  0  0  0  0  0
  146.7761  135.6792  158.6985 H   0  0  0  0  0  0  0  0  0  0  0  0
  148.3679  136.3758  158.9585 H   0  0  0  0  0  0  0  0  0  0  0  0
  148.4771  133.4606  158.6791 H   0  0  0  0  0  0  0  0  0  0  0  0
  150.4011  134.0864  155.9462 H   0  0  0  0  0  0  0  0  0  0  0  0
  148.9110  137.1636  155.0811 H   0  0  0  0  0  0  0  0  0  0  0  0
  148.0619  136.0302  155.8465 H   0  0  0  0  0  0  0  0  0  0  0  0
  147.9401  133.9590  151.9004 H   0  0  0  0  0  0  0  0  0  0  0  0
  146.2468  133.4818  152.0892 H   0  0  0  0  0  0  0  0  0  0  0  0
  147.5279  132.5064  152.8245 H   0  0  0  0  0  0  0  0  0  0  0  0
  146.5851  134.4876  156.8744 H   0  0  0  0  0  0  0  0  0  0  0  0
  146.8031  130.4456  155.5883 H   0  0  0  0  0  0  0  0  0  0  0  0
  146.5366  129.7512  157.1940 H   0  0  0  0  0  0  0  0  0  0  0  0
  148.1809  130.1113  156.6481 H   0  0  0  0  0  0  0  0  0  0  0  0
  1  2  1  0  0  0  0
  1 28  1  0  0  0  0
  1 29  1  0  0  0  0
  1 30  1  0  0  0  0
  2  3  2  0  0  0  0
  2  4  1  0  0  0  0
  4  5  1  0  0  0  0
  5  6  1  0  0  0  0
  5 31  1  0  0  0  0
  5 32  1  0  0  0  0
  6 23  1  0  0  0  0
  6  7  1  0  0  0  0
  6 33  1  0  0  0  0
  7  8  1  0  0  0  0
  8  9  1  0  0  0  0
  8 18  1  0  0  0  0
  8 34  1  0  0  0  0
  9 16  1  0  0  0  0
  9 10  1  0  0  0  0
 10 11  2  0  0  0  0
 10 35  1  0  0  0  0
 11 12  1  0  0  0  0
 11 13  1  0  0  0  0
 13 14  2  0  0  0  0
 13 15  1  0  0  0  0
 15 16  1  0  0  0  0
 16 17  2  0  0  0  0
 18 19  1  0  0  0  0
 18 23  1  0  0  0  0
 18 36  1  0  0  0  0
 19 20  1  0  0  0  0
 20 21  1  0  0  0  0
 20 22  2  0  0  0  0
 21 37  1  0  0  0  0
 21 38  1  0  0  0  0
 21 39  1  0  0  0  0
 23 24  1  0  0  0  0
 23 40  1  0  0  0  0
 24 25  1  0  0  0  0
 25 26  1  0  0  0  0
 25 27  2  0  0  0  0
 26 41  1  0  0  0  0
 26 42  1  0  0  0  0
 26 43  1  0  0  0  0
M  CHG  1  15  -1
M  END
> <s_m_source_file>
AV-unprocessed.smi

> <i_m_source_file_index>
102

> <i_lp_mmshare_version>
43012

> <i_f3d_flags>
0

> <s_epik_input>
W0NIM11DKD1PKU9bQ0gyXVtDQEBIXTFPW0NASF0oW0NAQEhdKE9DKD1PKVtDSDNdKVtDQEhdMU9DKD1PKVtDSDNdKW4yW2NIXWMoRiljKD1PKVtuSF1jMj1P

> <s_epik_cmdline>
J2VwaWtfcHl0aG9uJywgJy1waCcsICc3LjAnLCAnLXRuJywgJzgnLCAnLW1hJywgJzIwMCcsICctbWV0YWxfYmluZGluZycsICctaW1hZScsICc8aW5maWxlLm1hZT4nLCAnLW9tYWUnLCAnPG91dGZpbGUubWFlPic=

> <r_epik_Ionization_Penalty>
1.40304

> <r_epik_Ionization_Penalty_Charging>
1.43915e-08

> <r_epik_Ionization_Penalty_Neutral>
1.40304

> <r_epik_State_Penalty>
1.48536

> <r_epik_Charging_Adjusted_Penalty>
1.48536

> <i_epik_Tot_Q>
-1

> <i_epik_Tot_abs_Q>
1

> <r_epik_Metal_State_Penalty>
0.00663881

> <b_epik_Metal_Only>
0

> <s_epik_Chemistry_Notes>
This compound has an ester and may undergo hydrolysis at high or low pH. This compound contains an acetal/aminal-like group ( X-CH(R)-Y where X, Y are N, S, or O) that may be acid/base labile, releasing an aldehyde.

> <s_lp_Force_Field>
OPLS_2005

> <r_lp_Energy>
27.0192

> <b_lp_Chiralities_Consistent>
1

> <s_lp_Variant>
AV-unprocessed.smi:102-19

> <Gold.Version>
5.8.1

> <Gold.Id.Protein>
6NUR|6NUR_protein|mol2

> <Gold.PLP.Fitness>
41.4131

> <Gold.PLP.PLP>
-30.6980

> <Gold.PLP.part.hbond>
-6.4855

> <Gold.PLP.part.metal>
0.0000

> <Gold.PLP.part.buried>
-2.9557

> <Gold.PLP.part.nonpolar>
-21.5651

> <Gold.PLP.part.repulsive>
0.2070

> <Gold.PLP.ligand.clash>
0.0000

> <Gold.PLP.ligand.torsion>
0.9935

> <Gold.PLP.Chemscore.Hbond>
4.1987

> <Gold.PLP.Chemscore.CHOScore>
0.0000

> <Gold.PLP.Chemscore.Metal>
0.0000

> <Gold.Chemscore.Hbonds>
donor molecule, donor type, donor heavy atom, donor atom, acceptor molecule, acceptor atom, score
      P1  H  6896  6909       L1     7  0.70
      P1  H  6931  6943       L1     3  0.61
      P1  H  6934  6947       L1     3  1.00
      P1  H  7989  7998       L1    14  0.19
      P1  H  7997  8008       L1    14  0.86
      P1  H 10752 10764       L1    17  0.24

> <Gold.PLP.Chemscore.Internal.Correction>
0.1059

> <Gold.Rescore>
     Score         DG    S(hbond)    S(metal)    S(lipo)     H(rot)  DE(clash)    DE(int)     intcor
      7.11      -9.63       3.09        0.00      34.58       4.00       0.01       2.51       ----

> <Gold.Chemscore.Fitness>
7.1061

> <Gold.Chemscore.DG>
-9.6276

> <Gold.Chemscore.ZeroCoef>
-5.4800

> <Gold.Chemscore.Hbond>
3.0927

> <Gold.Chemscore.Metal>
0.0000

> <Gold.Chemscore.Lipo>
34.5759

> <Gold.Chemscore.Internal_Hbond>
0.0000

> <Gold.Chemscore.DEClash>
0.0111

> <Gold.Chemscore.DEInternal>
2.5104

> <Gold.Chemscore.Rot>
3.9951

> <Gold.Chemscore.Internal.Correction>
   9.000000E+99

> <Gold.Chemscore.Hbonds>
donor molecule, donor type, donor heavy atom, donor atom, acceptor molecule, acceptor atom, score
      P1  H  6896  6909       L1     7  0.17
      P1  H  6931  6943       L1     3  0.54
      P1  H  6934  6947       L1     3  0.95
      P1  H  7989  7998       L1    14  0.18
      P1  H  7997  8008       L1    14  0.84

> <Gold.Chemscore.Hbond.Weighted>
-10.3296

> <Gold.Chemscore.Metal.Weighted>
-0.0000

> <Gold.Chemscore.Lipo.Weighted>
-4.0454

> <Gold.Chemscore.Internal_Hbond.Weighted>
0.0000

> <Gold.Chemscore.DEClash.Weighted>
0.0111

> <Gold.Chemscore.DEInternal.Weighted>
2.5104

> <Gold.Chemscore.Rot.Weighted>
10.2274

> <Gold.Chemscore.Internal.Correction.Weighted>
   9.000000E+99

> <Gold.Protein.RotatedTorsions>
[ 6907 6896 6895 6894 ] final   51.61 input  -60.11 | X-H torsion
[ 7974 7965 7964 7962 ] final    4.78 input  175.53 | X-H torsion
[ 8008 7997 7996 7995 ] final  -24.63 input   59.86 | X-H torsion
[ 10167 10162 10161 10158 ] final  173.43 input  -65.29 | X-H torsion
[ 10718 10713 10712 10709 ] final -171.59 input   66.30 | X-H torsion
[ 10763 10752 10751 10750 ] final   19.04 input  -60.55 | X-H torsion
[ 11005 11000 10999 10996 ] final  -77.15 input  -57.11 | X-H torsion

> <Gold.Protein.ActiveResidues>
 VAL166  LYS551  ARG553  GLY616  TRP617  ASP618  TYR619  PRO620  LYS621  CYS622 
 ASP623  PHE694  ASN695  SER759  ASP760  ASP761  ALA762  ILE779  LEU786  VAL792 
 PHE793  MET794  SER795  GLU796  ALA797  LYS798  CYS799  TRP800  GLU811  SER814 

> <Gold.Protein.RotatedAtoms>
  152.3145  134.7457  160.0328 H   0  0  0  0  0  0  0  0  0  0  0  0  # atno 6907 bound_to 6896
  151.7927  133.3356  159.3512 H   0  0  0  0  0  0  0  0  0  0  0  0  # atno 6908 bound_to 6896
  150.7337  134.5758  159.5958 H   0  0  0  0  0  0  0  0  0  0  0  0  # atno 6909 bound_to 6896
  146.2443  140.0482  142.8377 H   0  0  0  0  0  0  0  0  0  0  0  0  # atno 7974 bound_to 7965
  154.4518  140.1948  156.0495 H   0  0  0  0  0  0  0  0  0  0  0  0  # atno 8008 bound_to 7997
  156.0665  140.3290  155.7496 H   0  0  0  0  0  0  0  0  0  0  0  0  # atno 8009 bound_to 7997
  155.5331  140.0579  157.2876 H   0  0  0  0  0  0  0  0  0  0  0  0  # atno 8010 bound_to 7997
  139.5108  144.3262  152.0155 H   0  0  0  0  0  0  0  0  0  0  0  0  # atno 10167 bound_to 10162
  156.7431  130.9350  151.3111 H   0  0  0  0  0  0  0  0  0  0  0  0  # atno 10718 bound_to 10713
  153.1196  135.6716  153.9358 H   0  0  0  0  0  0  0  0  0  0  0  0  # atno 10763 bound_to 10752
  153.8877  135.3050  155.3448 H   0  0  0  0  0  0  0  0  0  0  0  0  # atno 10764 bound_to 10752
  154.7609  135.4988  153.9542 H   0  0  0  0  0  0  0  0  0  0  0  0  # atno 10765 bound_to 10752
  141.1658  133.7011  156.7776 H   0  0  0  0  0  0  0  0  0  0  0  0  # atno 11005 bound_to 11000
  145.1008  140.9344  143.4714 LP  0  0  0  0  0  0  0  0  0  0  0  0  # atno 17320 bound_to 7965
  145.0675  139.3057  143.5849 LP  0  0  0  0  0  0  0  0  0  0  0  0  # atno 17321 bound_to 7965
  140.2702  144.3972  150.6154 LP  0  0  0  0  0  0  0  0  0  0  0  0  # atno 17342 bound_to 10162
  140.6093  143.2169  151.6917 LP  0  0  0  0  0  0  0  0  0  0  0  0  # atno 17343 bound_to 10162
  157.6810  130.9140  150.0267 LP  0  0  0  0  0  0  0  0  0  0  0  0  # atno 17370 bound_to 10713
  156.1451  130.3642  149.9522 LP  0  0  0  0  0  0  0  0  0  0  0  0  # atno 17371 bound_to 10713
  140.2418  134.8608  157.3581 LP  0  0  0  0  0  0  0  0  0  0  0  0  # atno 17394 bound_to 11000
  140.1788  134.4515  155.7785 LP  0  0  0  0  0  0  0  0  0  0  0  0  # atno 17395 bound_to 11000

$$$$
