AV-unprocessed.smi:1644|AV-procd|sdf|6589|dock8
  -GOLD-   22720 7283D 1   1.00000     0.00000
 Structure written by MMmdl.
 50 52  0  0  0  0  0  0  0  0  2 V2000
  152.4911  143.4392  160.2938 C   0  0  0  0  0  0  0  0  0  0  0  0
  153.0424  143.7671  158.9022 C   0  0  0  0  0  0  0  0  0  0  0  0
  151.9367  143.8023  157.8273 C   0  0  0  0  0  0  0  0  0  0  0  0
  151.0411  142.5452  157.7401 C   0  0  1  0  0  0  0  0  0  0  0  0
  150.5002  142.3176  156.4147 N   0  0  0  0  0  0  0  0  0  0  0  0
  150.8351  141.1168  155.9241 C   0  0  0  0  0  0  0  0  0  0  0  0
  150.4857  140.6742  154.8307 O   0  0  0  0  0  0  0  0  0  0  0  0
  151.6044  140.4865  156.8310 N   0  0  0  0  0  0  0  0  0  0  0  0
  152.1603  139.1422  156.6503 C   0  0  0  0  0  0  0  0  0  0  0  0
  151.4292  138.1009  157.5214 C   0  0  2  0  0  0  0  0  0  0  0  0
  151.8337  138.2635  158.8669 O   0  0  0  0  0  0  0  0  0  0  0  0
  151.7638  136.6601  157.0894 C   0  0  0  0  0  0  0  0  0  0  0  0
  150.9065  136.1840  155.9970 N   0  0  0  0  0  0  0  0  0  0  0  0
  150.1934  136.8821  155.0726 C   0  0  0  0  0  0  0  0  0  0  0  0
  149.5642  135.9770  154.2721 N   0  3  0  0  0  0  0  0  0  0  0  0
  149.8820  134.6830  154.6924 C   0  0  0  0  0  0  0  0  0  0  0  0
  149.4932  133.4424  154.2008 C   0  0  0  0  0  0  0  0  0  0  0  0
  150.0004  132.2994  154.8598 C   0  0  0  0  0  0  0  0  0  0  0  0
  149.5952  130.9274  154.3481 C   0  0  0  0  0  0  0  0  0  0  0  0
  150.8696  132.4245  155.9749 C   0  0  0  0  0  0  0  0  0  0  0  0
  151.4118  131.1896  156.6743 C   0  0  0  0  0  0  0  0  0  0  0  0
  151.2515  133.6951  156.4611 C   0  0  0  0  0  0  0  0  0  0  0  0
  150.7427  134.8097  155.7994 C   0  0  0  0  0  0  0  0  0  0  0  0
  151.7826  141.2340  157.9276 C   0  0  0  0  0  0  0  0  0  0  0  0
  152.4241  140.9413  158.9362 O   0  0  0  0  0  0  0  0  0  0  0  0
  153.2909  143.4212  161.0343 H   0  0  0  0  0  0  0  0  0  0  0  0
  152.0060  142.4627  160.3044 H   0  0  0  0  0  0  0  0  0  0  0  0
  151.7590  144.1815  160.6129 H   0  0  0  0  0  0  0  0  0  0  0  0
  153.5540  144.7289  158.9429 H   0  0  0  0  0  0  0  0  0  0  0  0
  153.7986  143.0264  158.6412 H   0  0  0  0  0  0  0  0  0  0  0  0
  151.3038  144.6749  157.9944 H   0  0  0  0  0  0  0  0  0  0  0  0
  152.4015  143.9600  156.8534 H   0  0  0  0  0  0  0  0  0  0  0  0
  150.2252  142.6048  158.4615 H   0  0  0  0  0  0  0  0  0  0  0  0
  149.9217  142.9915  155.9342 H   0  0  0  0  0  0  0  0  0  0  0  0
  152.0521  138.8786  155.5968 H   0  0  0  0  0  0  0  0  0  0  0  0
  153.2359  139.1243  156.8363 H   0  0  0  0  0  0  0  0  0  0  0  0
  150.3504  138.2494  157.4613 H   0  0  0  0  0  0  0  0  0  0  0  0
  151.0780  138.5042  159.3814 H   0  0  0  0  0  0  0  0  0  0  0  0
  152.8019  136.5808  156.7640 H   0  0  0  0  0  0  0  0  0  0  0  0
  151.6479  135.9717  157.9280 H   0  0  0  0  0  0  0  0  0  0  0  0
  150.1404  137.9580  154.9875 H   0  0  0  0  0  0  0  0  0  0  0  0
  148.8324  133.3547  153.3506 H   0  0  0  0  0  0  0  0  0  0  0  0
  149.0878  130.3613  155.1297 H   0  0  0  0  0  0  0  0  0  0  0  0
  150.4720  130.3651  154.0264 H   0  0  0  0  0  0  0  0  0  0  0  0
  148.9165  131.0022  153.4979 H   0  0  0  0  0  0  0  0  0  0  0  0
  152.0680  131.4564  157.5034 H   0  0  0  0  0  0  0  0  0  0  0  0
  151.9864  130.5768  155.9794 H   0  0  0  0  0  0  0  0  0  0  0  0
  150.5960  130.5878  157.0754 H   0  0  0  0  0  0  0  0  0  0  0  0
  151.9136  133.7921  157.3093 H   0  0  0  0  0  0  0  0  0  0  0  0
  148.9646  136.2273  153.4963 H   0  0  0  0  0  0  0  0  0  0  0  0
  1  2  1  0  0  0  0
  1 26  1  0  0  0  0
  1 27  1  0  0  0  0
  1 28  1  0  0  0  0
  2  3  1  0  0  0  0
  2 29  1  0  0  0  0
  2 30  1  0  0  0  0
  3  4  1  0  0  0  0
  3 31  1  0  0  0  0
  3 32  1  0  0  0  0
  4 24  1  0  0  0  0
  4  5  1  0  0  0  0
  4 33  1  0  0  0  0
  5  6  1  0  0  0  0
  5 34  1  0  0  0  0
  6  7  2  0  0  0  0
  6  8  1  0  0  0  0
  8  9  1  0  0  0  0
  8 24  1  0  0  0  0
  9 10  1  0  0  0  0
  9 35  1  0  0  0  0
  9 36  1  0  0  0  0
 10 11  1  0  0  0  0
 10 12  1  0  0  0  0
 10 37  1  0  0  0  0
 11 38  1  0  0  0  0
 12 13  1  0  0  0  0
 12 39  1  0  0  0  0
 12 40  1  0  0  0  0
 13 23  1  0  0  0  0
 13 14  1  0  0  0  0
 14 15  2  0  0  0  0
 14 41  1  0  0  0  0
 15 16  1  0  0  0  0
 15 50  1  0  0  0  0
 16 23  2  0  0  0  0
 16 17  1  0  0  0  0
 17 18  2  0  0  0  0
 17 42  1  0  0  0  0
 18 19  1  0  0  0  0
 18 20  1  0  0  0  0
 19 43  1  0  0  0  0
 19 44  1  0  0  0  0
 19 45  1  0  0  0  0
 20 21  1  0  0  0  0
 20 22  2  0  0  0  0
 21 46  1  0  0  0  0
 21 47  1  0  0  0  0
 21 48  1  0  0  0  0
 22 23  1  0  0  0  0
 22 49  1  0  0  0  0
 24 25  2  0  0  0  0
M  CHG  1  15   1
M  END
> <s_m_source_file>
AV-unprocessed.smi

> <i_m_source_file_index>
1644

> <i_lp_mmshare_version>
43012

> <i_f3d_flags>
0

> <s_epik_input>
W0NIM11bQ0gyXVtDSDJdW0NAQEhdMVtOSF1DKD1PKU4oQzE9TylbQ0gyXVtDQEhdKFtPSF0pW0NIMl1uKFtjSF1uMiljKGMyMylbY0hdYyhbQ0gzXSljKFtjSF0zKVtDSDNd

> <s_epik_cmdline>
J2VwaWtfcHl0aG9uJywgJy1waCcsICc3LjAnLCAnLXRuJywgJzgnLCAnLW1hJywgJzIwMCcsICctbWV0YWxfYmluZGluZycsICctaW1hZScsICc8aW5maWxlLm1hZT4nLCAnLW9tYWUnLCAnPG91dGZpbGUubWFlPic=

> <r_lp_tautomer_probability>
1

> <r_epik_Ionization_Penalty>
1.06742

> <r_epik_Ionization_Penalty_Charging>
1.06736

> <r_epik_Ionization_Penalty_Neutral>
5.56132e-05

> <r_epik_State_Penalty>
1.12163

> <r_epik_Charging_Adjusted_Penalty>
2.18899

> <i_epik_Tot_Q>
1

> <i_epik_Tot_abs_Q>
1

> <r_epik_Metal_State_Penalty>
1.26636

> <b_epik_Metal_Only>
0

> <s_lp_Force_Field>
OPLS_2005

> <r_lp_Energy>
29.5638

> <b_lp_Chiralities_Consistent>
1

> <s_lp_Variant>
AV-unprocessed.smi:1644-6

> <Gold.Version>
5.8.1

> <Gold.Id.Protein>
6NUR|6NUR_protein|mol2

> <Gold.PLP.Fitness>
54.8513

> <Gold.PLP.PLP>
-45.5607

> <Gold.PLP.part.hbond>
-3.5045

> <Gold.PLP.part.metal>
0.0000

> <Gold.PLP.part.buried>
-4.9882

> <Gold.PLP.part.nonpolar>
-37.9842

> <Gold.PLP.part.repulsive>
0.2204

> <Gold.PLP.ligand.clash>
0.0000

> <Gold.PLP.ligand.torsion>
1.1359

> <Gold.PLP.Chemscore.Hbond>
3.8320

> <Gold.PLP.Chemscore.CHOScore>
0.0000

> <Gold.PLP.Chemscore.Metal>
0.0000

> <Gold.Chemscore.Hbonds>
donor molecule, donor type, donor heavy atom, donor atom, acceptor molecule, acceptor atom, score
      L1  H     5    34       P1  8028  0.99
      L1  H    15    50       P1  7948  1.57
      P1  H  7989  7998       L1     7  0.91

> <Gold.PLP.Chemscore.Internal.Correction>
0.0664

> <Gold.Rescore>
     Score         DG    S(hbond)    S(metal)    S(lipo)     H(rot)  DE(clash)    DE(int)     intcor
     15.42     -19.05       2.64        0.00     101.70       2.80       0.02       3.61       ----

> <Gold.Chemscore.Fitness>
15.4167

> <Gold.Chemscore.DG>
-19.0454

> <Gold.Chemscore.ZeroCoef>
-5.4800

> <Gold.Chemscore.Hbond>
2.6421

> <Gold.Chemscore.Metal>
0.0000

> <Gold.Chemscore.Lipo>
101.6984

> <Gold.Chemscore.Internal_Hbond>
0.0000

> <Gold.Chemscore.DEClash>
0.0236

> <Gold.Chemscore.DEInternal>
3.6050

> <Gold.Chemscore.Rot>
2.7961

> <Gold.Chemscore.Internal.Correction>
   9.000000E+99

> <Gold.Chemscore.Hbonds>
donor molecule, donor type, donor heavy atom, donor atom, acceptor molecule, acceptor atom, score
      L1  H     5    34       P1  8028  0.91
      L1  H    15    50       P1  7948  0.76
      P1  H  7989  7998       L1     7  0.82

> <Gold.Chemscore.Hbond.Weighted>
-8.8247

> <Gold.Chemscore.Metal.Weighted>
-0.0000

> <Gold.Chemscore.Lipo.Weighted>
-11.8987

> <Gold.Chemscore.Internal_Hbond.Weighted>
0.0000

> <Gold.Chemscore.DEClash.Weighted>
0.0236

> <Gold.Chemscore.DEInternal.Weighted>
3.6050

> <Gold.Chemscore.Rot.Weighted>
7.1580

> <Gold.Chemscore.Internal.Correction.Weighted>
   9.000000E+99

> <Gold.Protein.RotatedTorsions>
[ 6907 6896 6895 6894 ] final  164.77 input  -60.11 | X-H torsion
[ 7974 7965 7964 7962 ] final  105.36 input  175.53 | X-H torsion
[ 8008 7997 7996 7995 ] final  -24.90 input   59.86 | X-H torsion
[ 10167 10162 10161 10158 ] final   17.93 input  -65.29 | X-H torsion
[ 10718 10713 10712 10709 ] final -117.25 input   66.30 | X-H torsion
[ 10763 10752 10751 10750 ] final -107.20 input  -60.55 | X-H torsion
[ 11005 11000 10999 10996 ] final  -53.49 input  -57.11 | X-H torsion

> <Gold.Protein.ActiveResidues>
 VAL166  LYS551  ARG553  GLY616  TRP617  ASP618  TYR619  PRO620  LYS621  CYS622 
 ASP623  PHE694  ASN695  SER759  ASP760  ASP761  ALA762  ILE779  LEU786  VAL792 
 PHE793  MET794  SER795  GLU796  ALA797  LYS798  CYS799  TRP800  GLU811  SER814 

> <Gold.Protein.RotatedAtoms>
  151.9048  133.3546  159.3842 H   0  0  0  0  0  0  0  0  0  0  0  0  # atno 6907 bound_to 6896
  150.7072  134.4792  159.5471 H   0  0  0  0  0  0  0  0  0  0  0  0  # atno 6908 bound_to 6896
  152.2387  134.8250  160.0514 H   0  0  0  0  0  0  0  0  0  0  0  0  # atno 6909 bound_to 6896
  145.3206  139.2514  143.3714 H   0  0  0  0  0  0  0  0  0  0  0  0  # atno 7974 bound_to 7965
  154.4504  140.1941  156.0535 H   0  0  0  0  0  0  0  0  0  0  0  0  # atno 8008 bound_to 7997
  156.0636  140.3293  155.7464 H   0  0  0  0  0  0  0  0  0  0  0  0  # atno 8009 bound_to 7997
  155.5373  140.0583  157.2868 H   0  0  0  0  0  0  0  0  0  0  0  0  # atno 8010 bound_to 7997
  140.5690  143.9197  150.6698 H   0  0  0  0  0  0  0  0  0  0  0  0  # atno 10167 bound_to 10162
  156.1020  130.6180  150.9140 H   0  0  0  0  0  0  0  0  0  0  0  0  # atno 10718 bound_to 10713
  154.8060  135.4683  154.0394 H   0  0  0  0  0  0  0  0  0  0  0  0  # atno 10763 bound_to 10752
  153.1863  135.6848  153.8418 H   0  0  0  0  0  0  0  0  0  0  0  0  # atno 10764 bound_to 10752
  153.7952  135.3237  155.3361 H   0  0  0  0  0  0  0  0  0  0  0  0  # atno 10765 bound_to 10752
  141.0978  133.6622  156.4180 H   0  0  0  0  0  0  0  0  0  0  0  0  # atno 11005 bound_to 11000
  146.3083  140.3763  142.8679 LP  0  0  0  0  0  0  0  0  0  0  0  0  # atno 17320 bound_to 7965
  144.8942  140.7562  143.5907 LP  0  0  0  0  0  0  0  0  0  0  0  0  # atno 17321 bound_to 7965
  140.2667  143.3485  152.1274 LP  0  0  0  0  0  0  0  0  0  0  0  0  # atno 17342 bound_to 10162
  139.5107  144.6889  151.5812 LP  0  0  0  0  0  0  0  0  0  0  0  0  # atno 17343 bound_to 10162
  157.6192  131.0931  150.8654 LP  0  0  0  0  0  0  0  0  0  0  0  0  # atno 17370 bound_to 10713
  156.8780  130.5169  149.5292 LP  0  0  0  0  0  0  0  0  0  0  0  0  # atno 17371 bound_to 10713
  140.5096  134.6408  157.5279 LP  0  0  0  0  0  0  0  0  0  0  0  0  # atno 17394 bound_to 11000
  139.9820  134.7121  155.9841 LP  0  0  0  0  0  0  0  0  0  0  0  0  # atno 17395 bound_to 11000

$$$$
