AV-unprocessed.smi:3287|AV-procd|sdf|12597|dock4
  -GOLD-   2272018523D 1   1.00000     0.00000
 Structure written by MMmdl.
 43 44  0  0  0  0  0  0  0  0  2 V2000
  151.6714  141.0914  156.6360 C   0  0  0  0  0  0  0  0  0  0  0  0
  150.8134  140.5586  155.4767 C   0  0  1  0  0  0  0  0  0  0  0  0
  151.0636  139.0600  155.2199 C   0  0  0  0  0  0  0  0  0  0  0  0
  150.2691  138.5531  154.0054 C   0  0  0  0  0  0  0  0  0  0  0  0
  148.7594  138.8369  154.1511 C   0  0  2  0  0  0  0  0  0  0  0  0
  148.0022  138.4200  152.9494 N   0  3  0  0  0  0  0  0  0  0  0  0
  146.5323  138.3623  153.1067 C   0  0  0  0  0  0  0  0  0  0  0  0
  145.8588  137.7393  151.8716 C   0  0  1  0  0  0  0  0  0  0  0  0
  146.5524  138.1554  150.7108 O   0  0  0  0  0  0  0  0  0  0  0  0
  145.8004  136.2235  151.9847 C   0  0  0  0  0  0  0  0  0  0  0  0
  146.2409  135.5575  153.1495 C   0  0  0  0  0  0  0  0  0  0  0  0
  146.1563  134.1515  153.1953 C   0  0  0  0  0  0  0  0  0  0  0  0
  145.6698  133.4053  152.1809 N   0  0  0  0  0  0  0  0  0  0  0  0
  145.2466  134.0469  151.0712 C   0  0  0  0  0  0  0  0  0  0  0  0
  145.2889  135.4479  150.9234 C   0  0  0  0  0  0  0  0  0  0  0  0
  148.5214  140.3375  154.4159 C   0  0  0  0  0  0  0  0  0  0  0  0
  149.3024  140.8630  155.6390 C   0  0  1  0  0  0  0  0  0  0  0  0
  148.6931  140.3609  156.9638 C   0  0  0  0  0  0  0  0  0  0  0  0
  151.4739  140.5568  157.5654 H   0  0  0  0  0  0  0  0  0  0  0  0
  151.4834  142.1510  156.8108 H   0  0  0  0  0  0  0  0  0  0  0  0
  152.7337  140.9797  156.4167 H   0  0  0  0  0  0  0  0  0  0  0  0
  151.1466  141.0917  154.5846 H   0  0  0  0  0  0  0  0  0  0  0  0
  152.1269  138.8859  155.0516 H   0  0  0  0  0  0  0  0  0  0  0  0
  150.7984  138.4776  156.1026 H   0  0  0  0  0  0  0  0  0  0  0  0
  150.6488  139.0299  153.1003 H   0  0  0  0  0  0  0  0  0  0  0  0
  150.4516  137.4846  153.8917 H   0  0  0  0  0  0  0  0  0  0  0  0
  148.3706  138.2714  154.9989 H   0  0  0  0  0  0  0  0  0  0  0  0
  148.2012  139.0875  152.2180 H   0  0  0  0  0  0  0  0  0  0  0  0
  146.2725  137.7924  153.9990 H   0  0  0  0  0  0  0  0  0  0  0  0
  146.1556  139.3757  153.2522 H   0  0  0  0  0  0  0  0  0  0  0  0
  144.8381  138.1161  151.7902 H   0  0  0  0  0  0  0  0  0  0  0  0
  145.9174  138.3796  150.0467 H   0  0  0  0  0  0  0  0  0  0  0  0
  146.6357  136.1060  153.9922 H   0  0  0  0  0  0  0  0  0  0  0  0
  146.4865  133.6125  154.0710 H   0  0  0  0  0  0  0  0  0  0  0  0
  144.8611  133.4255  150.2764 H   0  0  0  0  0  0  0  0  0  0  0  0
  144.9351  135.9106  150.0138 H   0  0  0  0  0  0  0  0  0  0  0  0
  148.8227  140.9082  153.5359 H   0  0  0  0  0  0  0  0  0  0  0  0
  147.4560  140.5312  154.5463 H   0  0  0  0  0  0  0  0  0  0  0  0
  149.1882  141.9480  155.6442 H   0  0  0  0  0  0  0  0  0  0  0  0
  148.8156  139.2861  157.0943 H   0  0  0  0  0  0  0  0  0  0  0  0
  147.6252  140.5768  157.0063 H   0  0  0  0  0  0  0  0  0  0  0  0
  149.1485  140.8522  157.8234 H   0  0  0  0  0  0  0  0  0  0  0  0
  148.3325  137.5134  152.6499 H   0  0  0  0  0  0  0  0  0  0  0  0
  1  2  1  0  0  0  0
  1 19  1  0  0  0  0
  1 20  1  0  0  0  0
  1 21  1  0  0  0  0
  2 17  1  0  0  0  0
  2  3  1  0  0  0  0
  2 22  1  0  0  0  0
  3  4  1  0  0  0  0
  3 23  1  0  0  0  0
  3 24  1  0  0  0  0
  4  5  1  0  0  0  0
  4 25  1  0  0  0  0
  4 26  1  0  0  0  0
  5  6  1  0  0  0  0
  5 16  1  0  0  0  0
  5 27  1  0  0  0  0
  6  7  1  0  0  0  0
  6 28  1  0  0  0  0
  6 43  1  0  0  0  0
  7  8  1  0  0  0  0
  7 29  1  0  0  0  0
  7 30  1  0  0  0  0
  8  9  1  0  0  0  0
  8 10  1  0  0  0  0
  8 31  1  0  0  0  0
  9 32  1  0  0  0  0
 10 15  1  0  0  0  0
 10 11  2  0  0  0  0
 11 12  1  0  0  0  0
 11 33  1  0  0  0  0
 12 13  2  0  0  0  0
 12 34  1  0  0  0  0
 13 14  1  0  0  0  0
 14 15  2  0  0  0  0
 14 35  1  0  0  0  0
 15 36  1  0  0  0  0
 16 17  1  0  0  0  0
 16 37  1  0  0  0  0
 16 38  1  0  0  0  0
 17 18  1  0  0  0  0
 17 39  1  0  0  0  0
 18 40  1  0  0  0  0
 18 41  1  0  0  0  0
 18 42  1  0  0  0  0
M  CHG  1   6   1
M  END
> <s_m_source_file>
AV-unprocessed.smi

> <i_m_source_file_index>
3287

> <i_lp_mmshare_version>
43012

> <i_f3d_flags>
0

> <s_epik_input>
W0NIM11bQ0BASF0xW0NIMl1bQ0gyXVtDQEhdKFtDSDJdW0NASF0xW0NIM10pW05IXVtDSDJdW0NASF0oW09IXSljMltjSF1bY0hdbltjSF1bY0hdMg==

> <s_epik_cmdline>
J2VwaWtfcHl0aG9uJywgJy1waCcsICc3LjAnLCAnLXRuJywgJzgnLCAnLW1hJywgJzIwMCcsICctbWV0YWxfYmluZGluZycsICctaW1hZScsICc8aW5maWxlLm1hZT4nLCAnLW9tYWUnLCAnPG91dGZpbGUubWFlPic=

> <r_lp_tautomer_probability>
1

> <r_epik_Ionization_Penalty>
0.00537262

> <r_epik_Ionization_Penalty_Charging>
0.00321624

> <r_epik_Ionization_Penalty_Neutral>
0.00215638

> <r_epik_State_Penalty>
-0

> <r_epik_Charging_Adjusted_Penalty>
0.00321624

> <i_epik_Tot_Q>
1

> <i_epik_Tot_abs_Q>
1

> <r_epik_Metal_State_Penalty>
-0

> <b_epik_Metal_Only>
0

> <s_lp_Force_Field>
OPLS_2005

> <r_lp_Energy>
18.2577

> <b_lp_Chiralities_Consistent>
1

> <s_lp_Variant>
AV-unprocessed.smi:3287-8

> <Gold.Version>
5.8.1

> <Gold.Id.Protein>
6NUR|6NUR_protein|mol2

> <Gold.PLP.Fitness>
45.3220

> <Gold.PLP.PLP>
-32.2373

> <Gold.PLP.part.hbond>
-4.2429

> <Gold.PLP.part.metal>
0.0000

> <Gold.PLP.part.buried>
-1.9541

> <Gold.PLP.part.nonpolar>
-26.9921

> <Gold.PLP.part.repulsive>
0.1538

> <Gold.PLP.ligand.clash>
0.0000

> <Gold.PLP.ligand.torsion>
0.4164

> <Gold.PLP.Chemscore.Hbond>
4.6330

> <Gold.PLP.Chemscore.CHOScore>
0.0000

> <Gold.PLP.Chemscore.Metal>
0.0000

> <Gold.Chemscore.Hbonds>
donor molecule, donor type, donor heavy atom, donor atom, acceptor molecule, acceptor atom, score
      L1  H     6    28       P1  7957  0.94
      L1  H     6    43       P1  7948  2.00
      L1  H     9    32       P1 10171  0.81
      P1  H  7954  7966       L1     9  1.00

> <Gold.PLP.Chemscore.Internal.Correction>
0.0187

> <Gold.Rescore>
     Score         DG    S(hbond)    S(metal)    S(lipo)     H(rot)  DE(clash)    DE(int)     intcor
     20.68     -22.00       3.53        0.00      82.08       1.90       0.87       0.45       ----

> <Gold.Chemscore.Fitness>
20.6846

> <Gold.Chemscore.DG>
-22.0035

> <Gold.Chemscore.ZeroCoef>
-5.4800

> <Gold.Chemscore.Hbond>
3.5307

> <Gold.Chemscore.Metal>
0.0000

> <Gold.Chemscore.Lipo>
82.0847

> <Gold.Chemscore.Internal_Hbond>
0.0000

> <Gold.Chemscore.DEClash>
0.8736

> <Gold.Chemscore.DEInternal>
0.4453

> <Gold.Chemscore.Rot>
1.9035

> <Gold.Chemscore.Internal.Correction>
   9.000000E+99

> <Gold.Chemscore.Hbonds>
donor molecule, donor type, donor heavy atom, donor atom, acceptor molecule, acceptor atom, score
      L1  H     6    28       P1  7957  0.89
      L1  H     6    43       P1  7948  0.99
      L1  H     9    32       P1 10171  0.76
      P1  H  7954  7966       L1     9  0.62

> <Gold.Chemscore.Hbond.Weighted>
-11.7924

> <Gold.Chemscore.Metal.Weighted>
-0.0000

> <Gold.Chemscore.Lipo.Weighted>
-9.6039

> <Gold.Chemscore.Internal_Hbond.Weighted>
0.0000

> <Gold.Chemscore.DEClash.Weighted>
0.8736

> <Gold.Chemscore.DEInternal.Weighted>
0.4453

> <Gold.Chemscore.Rot.Weighted>
4.8729

> <Gold.Chemscore.Internal.Correction.Weighted>
   9.000000E+99

> <Gold.Protein.RotatedTorsions>
[ 6907 6896 6895 6894 ] final  117.20 input  -60.11 | X-H torsion
[ 7974 7965 7964 7962 ] final  133.33 input  175.53 | X-H torsion
[ 8008 7997 7996 7995 ] final   42.52 input   59.86 | X-H torsion
[ 10167 10162 10161 10158 ] final  -66.19 input  -65.29 | X-H torsion
[ 10718 10713 10712 10709 ] final    6.34 input   66.30 | X-H torsion
[ 10763 10752 10751 10750 ] final  102.01 input  -60.55 | X-H torsion
[ 11005 11000 10999 10996 ] final   74.70 input  -57.11 | X-H torsion

> <Gold.Protein.ActiveResidues>
 VAL166  LYS551  ARG553  GLY616  TRP617  ASP618  TYR619  PRO620  LYS621  CYS622 
 ASP623  PHE694  ASN695  SER759  ASP760  ASP761  ALA762  ILE779  LEU786  VAL792 
 PHE793  MET794  SER795  GLU796  ALA797  LYS798  CYS799  TRP800  GLU811  SER814 

> <Gold.Protein.RotatedAtoms>
  152.4628  133.7858  159.6875 H   0  0  0  0  0  0  0  0  0  0  0  0  # atno 6907 bound_to 6896
  150.8579  133.7678  159.3009 H   0  0  0  0  0  0  0  0  0  0  0  0  # atno 6908 bound_to 6896
  151.5252  135.1071  159.9940 H   0  0  0  0  0  0  0  0  0  0  0  0  # atno 6909 bound_to 6896
  144.9876  139.4439  143.5355 H   0  0  0  0  0  0  0  0  0  0  0  0  # atno 7974 bound_to 7965
  155.2875  140.3376  155.4254 H   0  0  0  0  0  0  0  0  0  0  0  0  # atno 8008 bound_to 7997
  156.2061  140.1752  156.7836 H   0  0  0  0  0  0  0  0  0  0  0  0  # atno 8009 bound_to 7997
  154.5623  140.0685  156.8823 H   0  0  0  0  0  0  0  0  0  0  0  0  # atno 8010 bound_to 7997
  140.5675  143.2315  151.6606 H   0  0  0  0  0  0  0  0  0  0  0  0  # atno 10167 bound_to 10162
  156.9207  130.5790  149.5648 H   0  0  0  0  0  0  0  0  0  0  0  0  # atno 10718 bound_to 10713
  153.3341  135.4025  155.1519 H   0  0  0  0  0  0  0  0  0  0  0  0  # atno 10763 bound_to 10752
  154.8629  135.3617  154.5432 H   0  0  0  0  0  0  0  0  0  0  0  0  # atno 10764 bound_to 10752
  153.5872  135.7075  153.5497 H   0  0  0  0  0  0  0  0  0  0  0  0  # atno 10765 bound_to 10752
  139.9378  134.7455  156.1180 H   0  0  0  0  0  0  0  0  0  0  0  0  # atno 11005 bound_to 11000
  146.3424  139.9188  142.8769 LP  0  0  0  0  0  0  0  0  0  0  0  0  # atno 17320 bound_to 7965
  145.2331  140.9980  143.3979 LP  0  0  0  0  0  0  0  0  0  0  0  0  # atno 17321 bound_to 7965
  139.5100  144.3557  152.0610 LP  0  0  0  0  0  0  0  0  0  0  0  0  # atno 17342 bound_to 10162
  140.2690  144.3984  150.6158 LP  0  0  0  0  0  0  0  0  0  0  0  0  # atno 17343 bound_to 10162
  156.0492  130.5564  150.8951 LP  0  0  0  0  0  0  0  0  0  0  0  0  # atno 17370 bound_to 10713
  157.5909  131.0944  150.9119 LP  0  0  0  0  0  0  0  0  0  0  0  0  # atno 17371 bound_to 10713
  141.1000  133.6681  156.2732 LP  0  0  0  0  0  0  0  0  0  0  0  0  # atno 17394 bound_to 11000
  140.6029  134.5536  157.5520 LP  0  0  0  0  0  0  0  0  0  0  0  0  # atno 17395 bound_to 11000

$$$$
