AV-unprocessed.smi:233|AV-procd|sdf|1784|dock2
  -GOLD-   2262020333D 1   1.00000     0.00000
 Structure written by MMmdl.
 59 62  0  0  0  0  0  0  0  0  1 V2000
  148.3574  141.2828  153.8422 C   0  0  0  0  0  0  0  0  0  0  0  0
  149.6200  141.0481  154.6641 C   0  0  0  0  0  0  0  0  0  0  0  0
  149.9870  141.8880  155.4853 O   0  0  0  0  0  0  0  0  0  0  0  0
  150.2736  139.8996  154.4316 N   0  0  0  0  0  0  0  0  0  0  0  0
  151.5014  139.4696  155.0993 C   0  0  2  0  0  0  0  0  0  0  0  0
  152.0716  138.1854  154.4671 C   0  0  0  0  0  0  0  0  0  0  0  0
  151.1870  136.9573  154.7417 C   0  0  0  0  0  0  0  0  0  0  0  0
  150.9542  136.7311  156.2546 C   0  0  2  0  0  0  0  0  0  0  0  0
  150.1055  135.5532  156.4947 N   0  0  0  0  0  0  0  0  0  0  0  0
  149.6827  135.2961  157.8681 C   0  0  0  0  0  0  0  0  0  0  0  0
  149.0600  135.4037  155.6505 C   0  0  0  0  0  0  0  0  0  0  0  0
  148.1085  136.3694  155.6605 N   0  0  0  0  0  0  0  0  0  0  0  0
  147.0533  136.2737  154.8458 C   0  0  0  0  0  0  0  0  0  0  0  0
  146.7633  135.3147  153.9631 N   0  0  0  0  0  0  0  0  0  0  0  0
  147.7229  134.3451  153.9496 C   0  0  0  0  0  0  0  0  0  0  0  0
  148.8997  134.3146  154.7485 C   0  0  0  0  0  0  0  0  0  0  0  0
  149.6512  133.1863  154.4448 N   0  0  0  0  0  0  0  0  0  0  0  0
  148.9577  132.5838  153.5178 C   0  0  0  0  0  0  0  0  0  0  0  0
  147.7711  133.1962  153.1806 N   0  0  0  0  0  0  0  0  0  0  0  0
  146.8343  132.7748  152.1813 C   0  0  0  0  0  0  0  0  0  0  0  0
  146.5875  133.6233  150.9323 C   0  0  0  0  0  0  0  0  0  0  0  0
  145.1176  133.1464  150.9072 C   0  0  0  0  0  0  0  0  0  0  0  0
  144.0742  134.2281  150.5827 C   0  0  0  0  0  0  0  0  0  0  0  0
  144.3152  135.4082  151.3216 O   0  0  0  0  0  0  0  0  0  0  0  0
  144.8454  131.9021  150.0379 C   0  0  0  0  0  0  0  0  0  0  0  0
  145.0598  132.1724  148.6673 O   0  0  0  0  0  0  0  0  0  0  0  0
  145.3237  132.8646  152.4120 C   0  0  0  0  0  0  0  0  0  0  0  0
  150.3667  138.0248  156.8783 C   0  0  0  0  0  0  0  0  0  0  0  0
  151.2460  139.2569  156.6014 C   0  0  0  0  0  0  0  0  0  0  0  0
  148.5246  141.0270  152.7952 H   0  0  0  0  0  0  0  0  0  0  0  0
  148.0529  142.3288  153.8920 H   0  0  0  0  0  0  0  0  0  0  0  0
  147.5401  140.6691  154.2220 H   0  0  0  0  0  0  0  0  0  0  0  0
  149.8937  139.2732  153.7367 H   0  0  0  0  0  0  0  0  0  0  0  0
  152.2389  140.2675  154.9950 H   0  0  0  0  0  0  0  0  0  0  0  0
  152.2055  138.3144  153.3925 H   0  0  0  0  0  0  0  0  0  0  0  0
  153.0672  138.0012  154.8724 H   0  0  0  0  0  0  0  0  0  0  0  0
  150.2288  137.0734  154.2333 H   0  0  0  0  0  0  0  0  0  0  0  0
  151.6684  136.0885  154.2932 H   0  0  0  0  0  0  0  0  0  0  0  0
  151.9255  136.5418  156.7128 H   0  0  0  0  0  0  0  0  0  0  0  0
  148.8484  134.5940  157.9167 H   0  0  0  0  0  0  0  0  0  0  0  0
  149.3760  136.2212  158.3579 H   0  0  0  0  0  0  0  0  0  0  0  0
  150.5033  134.8614  158.4388 H   0  0  0  0  0  0  0  0  0  0  0  0
  146.3380  137.0803  154.9112 H   0  0  0  0  0  0  0  0  0  0  0  0
  149.2945  131.6663  153.0577 H   0  0  0  0  0  0  0  0  0  0  0  0
  147.1232  131.7588  151.9068 H   0  0  0  0  0  0  0  0  0  0  0  0
  146.6876  134.6921  151.1309 H   0  0  0  0  0  0  0  0  0  0  0  0
  147.1849  133.3326  150.0675 H   0  0  0  0  0  0  0  0  0  0  0  0
  144.1030  134.4880  149.5241 H   0  0  0  0  0  0  0  0  0  0  0  0
  143.0599  133.8833  150.7837 H   0  0  0  0  0  0  0  0  0  0  0  0
  144.2572  135.2025  152.2422 H   0  0  0  0  0  0  0  0  0  0  0  0
  145.4983  131.0754  150.3182 H   0  0  0  0  0  0  0  0  0  0  0  0
  143.8260  131.5388  150.1691 H   0  0  0  0  0  0  0  0  0  0  0  0
  145.2733  133.0879  148.5721 H   0  0  0  0  0  0  0  0  0  0  0  0
  144.8658  131.9431  152.7725 H   0  0  0  0  0  0  0  0  0  0  0  0
  145.0447  133.7117  153.0418 H   0  0  0  0  0  0  0  0  0  0  0  0
  149.3614  138.1957  156.4908 H   0  0  0  0  0  0  0  0  0  0  0  0
  150.2630  137.9239  157.9588 H   0  0  0  0  0  0  0  0  0  0  0  0
  152.2016  139.1298  157.1117 H   0  0  0  0  0  0  0  0  0  0  0  0
  150.7883  140.1468  157.0354 H   0  0  0  0  0  0  0  0  0  0  0  0
  1  2  1  0  0  0  0
  1 30  1  0  0  0  0
  1 31  1  0  0  0  0
  1 32  1  0  0  0  0
  2  3  2  0  0  0  0
  2  4  1  0  0  0  0
  4  5  1  0  0  0  0
  4 33  1  0  0  0  0
  5 29  1  0  0  0  0
  5  6  1  0  0  0  0
  5 34  1  0  0  0  0
  6  7  1  0  0  0  0
  6 35  1  0  0  0  0
  6 36  1  0  0  0  0
  7  8  1  0  0  0  0
  7 37  1  0  0  0  0
  7 38  1  0  0  0  0
  8  9  1  0  0  0  0
  8 28  1  0  0  0  0
  8 39  1  0  0  0  0
  9 10  1  0  0  0  0
  9 11  1  0  0  0  0
 10 40  1  0  0  0  0
 10 41  1  0  0  0  0
 10 42  1  0  0  0  0
 11 16  1  0  0  0  0
 11 12  2  0  0  0  0
 12 13  1  0  0  0  0
 13 14  2  0  0  0  0
 13 43  1  0  0  0  0
 14 15  1  0  0  0  0
 15 19  1  0  0  0  0
 15 16  2  0  0  0  0
 16 17  1  0  0  0  0
 17 18  2  0  0  0  0
 18 19  1  0  0  0  0
 18 44  1  0  0  0  0
 19 20  1  0  0  0  0
 20 27  1  0  0  0  0
 20 21  1  0  0  0  0
 20 45  1  0  0  0  0
 21 22  1  0  0  0  0
 21 46  1  0  0  0  0
 21 47  1  0  0  0  0
 22 23  1  0  0  0  0
 22 25  1  0  0  0  0
 22 27  1  0  0  0  0
 23 24  1  0  0  0  0
 23 48  1  0  0  0  0
 23 49  1  0  0  0  0
 24 50  1  0  0  0  0
 25 26  1  0  0  0  0
 25 51  1  0  0  0  0
 25 52  1  0  0  0  0
 26 53  1  0  0  0  0
 27 54  1  0  0  0  0
 27 55  1  0  0  0  0
 28 29  1  0  0  0  0
 28 56  1  0  0  0  0
 28 57  1  0  0  0  0
 29 58  1  0  0  0  0
 29 59  1  0  0  0  0
M  END
> <s_m_source_file>
AV-unprocessed.smi

> <i_m_source_file_index>
233

> <i_lp_mmshare_version>
43012

> <i_f3d_flags>
0

> <s_epik_input>
W0NIM11DKD1PKVtOSF1bQ0BASF0xW0NIMl1bQ0gyXVtDQEhdKFtDSDJdW0NIMl0xKU4oW0NIM10pYyhuW2NIXW4yKWMoYzIzKW5bY0hdbjNbQ0hdKFtDSDJdNClbQ0gyXUM0KFtDSDJdW09IXSlbQ0gyXVtPSF0=

> <s_epik_cmdline>
J2VwaWtfcHl0aG9uJywgJy1waCcsICc3LjAnLCAnLXRuJywgJzgnLCAnLW1hJywgJzIwMCcsICctbWV0YWxfYmluZGluZycsICctaW1hZScsICc8aW5maWxlLm1hZT4nLCAnLW9tYWUnLCAnPG91dGZpbGUubWFlPic=

> <r_lp_tautomer_probability>
1

> <r_epik_Ionization_Penalty>
0.0029036

> <r_epik_Ionization_Penalty_Charging>
0

> <r_epik_Ionization_Penalty_Neutral>
0.0029036

> <r_epik_State_Penalty>
0.00183591

> <r_epik_Charging_Adjusted_Penalty>
0.00183591

> <i_epik_Tot_Q>
0

> <i_epik_Tot_abs_Q>
0

> <r_epik_Metal_State_Penalty>
-0

> <b_epik_Metal_Only>
0

> <s_lp_Force_Field>
OPLS_2005

> <r_lp_Energy>
38.4195

> <b_lp_Chiralities_Consistent>
1

> <s_lp_Variant>
AV-unprocessed.smi:233-2

> <Gold.Version>
5.8.1

> <Gold.Id.Protein>
6NUR|6NUR_protein|mol2

> <Gold.PLP.Fitness>
44.9195

> <Gold.PLP.PLP>
-39.6836

> <Gold.PLP.part.hbond>
-2.3026

> <Gold.PLP.part.metal>
0.0000

> <Gold.PLP.part.buried>
-1.0089

> <Gold.PLP.part.nonpolar>
-36.9498

> <Gold.PLP.part.repulsive>
0.9536

> <Gold.PLP.ligand.clash>
0.0000

> <Gold.PLP.ligand.torsion>
0.8453

> <Gold.PLP.Chemscore.Hbond>
0.9913

> <Gold.PLP.Chemscore.CHOScore>
1.0000

> <Gold.PLP.Chemscore.Metal>
0.0000

> <Gold.Chemscore.Hbonds>
donor molecule, donor type, donor heavy atom, donor atom, acceptor molecule, acceptor atom, score
      L1  H    26    53       P1  7921  0.69
      L1  C    18    44       P1 10747  0.12

> <Gold.PLP.Chemscore.Internal.Correction>
0.9526

> <Gold.Rescore>
     Score         DG    S(hbond)    S(metal)    S(lipo)     H(rot)  DE(clash)    DE(int)     intcor
      4.29      -7.48       0.37        0.00      91.93       3.91       1.46       1.73       ----

> <Gold.Chemscore.Fitness>
4.2881

> <Gold.Chemscore.DG>
-7.4813

> <Gold.Chemscore.ZeroCoef>
-5.4800

> <Gold.Chemscore.Hbond>
0.3720

> <Gold.Chemscore.Metal>
0.0000

> <Gold.Chemscore.Lipo>
91.9287

> <Gold.Chemscore.Internal_Hbond>
0.0000

> <Gold.Chemscore.DEClash>
1.4635

> <Gold.Chemscore.DEInternal>
1.7297

> <Gold.Chemscore.Rot>
3.9050

> <Gold.Chemscore.Internal.Correction>
   9.000000E+99

> <Gold.Chemscore.Hbonds>
donor molecule, donor type, donor heavy atom, donor atom, acceptor molecule, acceptor atom, score
      L1  H    26    53       P1  7921  0.13

> <Gold.Chemscore.Hbond.Weighted>
-1.2426

> <Gold.Chemscore.Metal.Weighted>
-0.0000

> <Gold.Chemscore.Lipo.Weighted>
-10.7557

> <Gold.Chemscore.Internal_Hbond.Weighted>
0.0000

> <Gold.Chemscore.DEClash.Weighted>
1.4635

> <Gold.Chemscore.DEInternal.Weighted>
1.7297

> <Gold.Chemscore.Rot.Weighted>
9.9969

> <Gold.Chemscore.Internal.Correction.Weighted>
   9.000000E+99

> <Gold.Protein.RotatedTorsions>
[ 6907 6896 6895 6894 ] final -155.85 input  -60.11 | X-H torsion
[ 7974 7965 7964 7962 ] final -122.91 input  175.53 | X-H torsion
[ 8008 7997 7996 7995 ] final -141.69 input   59.86 | X-H torsion
[ 10167 10162 10161 10158 ] final  -60.82 input  -65.29 | X-H torsion
[ 10718 10713 10712 10709 ] final    5.68 input   66.30 | X-H torsion
[ 10763 10752 10751 10750 ] final  -83.37 input  -60.55 | X-H torsion
[ 11005 11000 10999 10996 ] final   79.56 input  -57.11 | X-H torsion

> <Gold.Protein.ActiveResidues>
 VAL166  LYS551  ARG553  GLY616  TRP617  ASP618  TYR619  PRO620  LYS621  CYS622 
 ASP623  PHE694  ASN695  SER759  ASP760  ASP761  ALA762  ILE779  LEU786  VAL792 
 PHE793  MET794  SER795  GLU796  ALA797  LYS798  CYS799  TRP800  GLU811  SER814 

> <Gold.Protein.RotatedAtoms>
  151.2788  133.4219  159.2625 H   0  0  0  0  0  0  0  0  0  0  0  0  # atno 6907 bound_to 6896
  151.0379  134.9587  159.8156 H   0  0  0  0  0  0  0  0  0  0  0  0  # atno 6908 bound_to 6896
  152.5359  134.2747  159.9037 H   0  0  0  0  0  0  0  0  0  0  0  0  # atno 6909 bound_to 6896
  145.0243  140.8015  143.4362 H   0  0  0  0  0  0  0  0  0  0  0  0  # atno 7974 bound_to 7965
  155.4820  140.0561  157.2966 H   0  0  0  0  0  0  0  0  0  0  0  0  # atno 8008 bound_to 7997
  154.4656  140.2017  156.0079 H   0  0  0  0  0  0  0  0  0  0  0  0  # atno 8009 bound_to 7997
  156.0969  140.3225  155.7894 H   0  0  0  0  0  0  0  0  0  0  0  0  # atno 8010 bound_to 7997
  140.6046  143.2370  151.5851 H   0  0  0  0  0  0  0  0  0  0  0  0  # atno 10167 bound_to 10162
  156.9110  130.5756  149.5647 H   0  0  0  0  0  0  0  0  0  0  0  0  # atno 10718 bound_to 10713
  154.5869  135.5558  153.7239 H   0  0  0  0  0  0  0  0  0  0  0  0  # atno 10763 bound_to 10752
  153.0102  135.6333  154.1904 H   0  0  0  0  0  0  0  0  0  0  0  0  # atno 10764 bound_to 10752
  154.1845  135.2885  155.3021 H   0  0  0  0  0  0  0  0  0  0  0  0  # atno 10765 bound_to 10752
  139.9168  134.7852  156.1795 H   0  0  0  0  0  0  0  0  0  0  0  0  # atno 11005 bound_to 11000
  145.1854  139.2329  143.5270 LP  0  0  0  0  0  0  0  0  0  0  0  0  # atno 17320 bound_to 7965
  146.3490  140.1637  142.8590 LP  0  0  0  0  0  0  0  0  0  0  0  0  # atno 17321 bound_to 7965
  139.5315  144.2901  152.1159 LP  0  0  0  0  0  0  0  0  0  0  0  0  # atno 17342 bound_to 10162
  140.2088  144.4583  150.6395 LP  0  0  0  0  0  0  0  0  0  0  0  0  # atno 17343 bound_to 10162
  156.0536  130.5601  150.9042 LP  0  0  0  0  0  0  0  0  0  0  0  0  # atno 17370 bound_to 10713
  157.5967  131.0943  150.9029 LP  0  0  0  0  0  0  0  0  0  0  0  0  # atno 17371 bound_to 10713
  141.0651  133.6823  156.2028 LP  0  0  0  0  0  0  0  0  0  0  0  0  # atno 17394 bound_to 11000
  140.6598  134.4979  157.5582 LP  0  0  0  0  0  0  0  0  0  0  0  0  # atno 17395 bound_to 11000

$$$$
