AV-unprocessed.smi:713|AV-procd|sdf|3479|dock5
  -GOLD-   22720 0473D 1   1.00000     0.00000
 Structure written by MMmdl.
 41 42  0  0  0  0  0  0  0  0  1 V2000
  152.8182  144.2713  158.3520 C   0  0  0  0  0  0  0  0  0  0  0  0
  151.7696  143.6637  159.3064 C   0  0  1  0  0  0  0  0  0  0  0  0
  150.9254  142.5740  158.6290 C   0  0  0  0  0  0  0  0  0  0  0  0
  149.7188  142.4823  158.8583 O   0  0  0  0  0  0  0  0  0  0  0  0
  151.5761  141.7565  157.7858 N   0  0  0  0  0  0  0  0  0  0  0  0
  150.9655  140.6708  157.0259 C   0  0  2  0  0  0  0  0  0  0  0  0
  151.9038  140.2508  155.8805 C   0  0  0  0  0  0  0  0  0  0  0  0
  151.2730  139.1461  155.0196 C   0  0  0  0  0  0  0  0  0  0  0  0
  149.9034  139.5795  154.4756 C   0  0  0  0  0  0  0  0  0  0  0  0
  148.9516  139.9986  155.6112 C   0  0  2  0  0  0  0  0  0  0  0  0
  147.3376  140.5550  154.8973 S   0  0  0  0  0  0  0  0  0  0  0  0
  147.8129  142.0385  153.9159 C   0  0  0  0  0  0  0  0  0  0  0  0
  146.8585  139.5266  153.9611 O   0  0  0  0  0  0  0  0  0  0  0  0
  146.4703  140.9885  156.0032 O   0  0  0  0  0  0  0  0  0  0  0  0
  149.5892  141.1016  156.4796 C   0  0  0  0  0  0  0  0  0  0  0  0
  152.3624  143.1461  160.5349 N   0  0  0  0  0  0  0  0  0  0  0  0
  153.2490  142.0967  160.6703 C   0  0  0  0  0  0  0  0  0  0  0  0
  153.5704  141.9966  161.9935 C   0  0  0  0  0  0  0  0  0  0  0  0
  152.8342  143.0515  162.6001 C   0  0  0  0  0  0  0  0  0  0  0  0
  152.1227  143.7434  161.7260 N   0  0  0  0  0  0  0  0  0  0  0  0
  152.3421  144.7020  157.4705 H   0  0  0  0  0  0  0  0  0  0  0  0
  153.5403  143.5307  158.0059 H   0  0  0  0  0  0  0  0  0  0  0  0
  153.3747  145.0694  158.8443 H   0  0  0  0  0  0  0  0  0  0  0  0
  151.0957  144.4723  159.5952 H   0  0  0  0  0  0  0  0  0  0  0  0
  152.5661  141.9032  157.6536 H   0  0  0  0  0  0  0  0  0  0  0  0
  150.8300  139.8092  157.6827 H   0  0  0  0  0  0  0  0  0  0  0  0
  152.1314  141.1131  155.2520 H   0  0  0  0  0  0  0  0  0  0  0  0
  152.8552  139.9024  156.2847 H   0  0  0  0  0  0  0  0  0  0  0  0
  151.9379  138.8940  154.1930 H   0  0  0  0  0  0  0  0  0  0  0  0
  151.1600  138.2381  155.6133 H   0  0  0  0  0  0  0  0  0  0  0  0
  150.0346  140.4108  153.7813 H   0  0  0  0  0  0  0  0  0  0  0  0
  149.4635  138.7642  153.9005 H   0  0  0  0  0  0  0  0  0  0  0  0
  148.7408  139.1283  156.2339 H   0  0  0  0  0  0  0  0  0  0  0  0
  146.9129  142.5140  153.5266 H   0  0  0  0  0  0  0  0  0  0  0  0
  148.4473  141.7465  153.0800 H   0  0  0  0  0  0  0  0  0  0  0  0
  148.3454  142.7444  154.5526 H   0  0  0  0  0  0  0  0  0  0  0  0
  148.9305  141.3484  157.3115 H   0  0  0  0  0  0  0  0  0  0  0  0
  149.6994  142.0137  155.8914 H   0  0  0  0  0  0  0  0  0  0  0  0
  153.5748  141.5139  159.8213 H   0  0  0  0  0  0  0  0  0  0  0  0
  154.2348  141.2824  162.4569 H   0  0  0  0  0  0  0  0  0  0  0  0
  152.8006  143.3370  163.6413 H   0  0  0  0  0  0  0  0  0  0  0  0
  1  2  1  0  0  0  0
  1 21  1  0  0  0  0
  1 22  1  0  0  0  0
  1 23  1  0  0  0  0
  2  3  1  0  0  0  0
  2 16  1  0  0  0  0
  2 24  1  0  0  0  0
  3  4  2  0  0  0  0
  3  5  1  0  0  0  0
  5  6  1  0  0  0  0
  5 25  1  0  0  0  0
  6 15  1  0  0  0  0
  6  7  1  0  0  0  0
  6 26  1  0  0  0  0
  7  8  1  0  0  0  0
  7 27  1  0  0  0  0
  7 28  1  0  0  0  0
  8  9  1  0  0  0  0
  8 29  1  0  0  0  0
  8 30  1  0  0  0  0
  9 10  1  0  0  0  0
  9 31  1  0  0  0  0
  9 32  1  0  0  0  0
 10 11  1  0  0  0  0
 10 15  1  0  0  0  0
 10 33  1  0  0  0  0
 11 12  1  0  0  0  0
 11 13  2  0  0  0  0
 11 14  2  0  0  0  0
 12 34  1  0  0  0  0
 12 35  1  0  0  0  0
 12 36  1  0  0  0  0
 15 37  1  0  0  0  0
 15 38  1  0  0  0  0
 16 20  1  0  0  0  0
 16 17  1  0  0  0  0
 17 18  2  0  0  0  0
 17 39  1  0  0  0  0
 18 19  1  0  0  0  0
 18 40  1  0  0  0  0
 19 20  2  0  0  0  0
 19 41  1  0  0  0  0
M  END
> <s_m_source_file>
AV-unprocessed.smi

> <i_m_source_file_index>
713

> <i_lp_mmshare_version>
43012

> <i_f3d_flags>
0

> <s_epik_input>
bjFbY0hdW2NIXVtjSF1uMVtDQEhdKFtDSDNdKUMoPU8pW05IXVtDQEBIXTJbQ0gyXVtDSDJdW0NIMl1bQ0BIXShbQ0gyXTIpUyg9TykoPU8pW0NIM10=

> <s_epik_cmdline>
J2VwaWtfcHl0aG9uJywgJy1waCcsICc3LjAnLCAnLXRuJywgJzgnLCAnLW1hJywgJzIwMCcsICctbWV0YWxfYmluZGluZycsICctaW1hZScsICc8aW5maWxlLm1hZT4nLCAnLW9tYWUnLCAnPG91dGZpbGUubWFlPic=

> <r_lp_tautomer_probability>
1

> <r_epik_Ionization_Penalty>
4.07816e-05

> <r_epik_Ionization_Penalty_Charging>
0

> <r_epik_Ionization_Penalty_Neutral>
4.07816e-05

> <r_epik_State_Penalty>
-0

> <r_epik_Charging_Adjusted_Penalty>
0

> <i_epik_Tot_Q>
0

> <i_epik_Tot_abs_Q>
0

> <r_epik_Metal_State_Penalty>
-0

> <b_epik_Metal_Only>
0

> <s_lp_Force_Field>
OPLS_2005

> <r_lp_Energy>
7.30822

> <b_lp_Chiralities_Consistent>
1

> <s_lp_Variant>
AV-unprocessed.smi:713-6

> <Gold.Version>
5.8.1

> <Gold.Id.Protein>
6NUR|6NUR_protein|mol2

> <Gold.PLP.Fitness>
42.4254

> <Gold.PLP.PLP>
-44.2783

> <Gold.PLP.part.hbond>
-0.9913

> <Gold.PLP.part.metal>
0.0000

> <Gold.PLP.part.buried>
-5.1797

> <Gold.PLP.part.nonpolar>
-37.7258

> <Gold.PLP.part.repulsive>
0.4953

> <Gold.PLP.ligand.clash>
0.0000

> <Gold.PLP.ligand.torsion>
1.0454

> <Gold.PLP.Chemscore.Hbond>
0.0000

> <Gold.PLP.Chemscore.CHOScore>
0.0000

> <Gold.PLP.Chemscore.Metal>
0.0000

> <Gold.PLP.Chemscore.Internal.Correction>
0.2379

> <Gold.Rescore>
     Score         DG    S(hbond)    S(metal)    S(lipo)     H(rot)  DE(clash)    DE(int)     intcor
     10.92     -13.31       0.00        0.00     104.68       1.72       0.05       2.34       ----

> <Gold.Chemscore.Fitness>
10.9232

> <Gold.Chemscore.DG>
-13.3113

> <Gold.Chemscore.ZeroCoef>
-5.4800

> <Gold.Chemscore.Hbond>
0.0000

> <Gold.Chemscore.Metal>
0.0000

> <Gold.Chemscore.Lipo>
104.6757

> <Gold.Chemscore.Internal_Hbond>
0.0000

> <Gold.Chemscore.DEClash>
0.0484

> <Gold.Chemscore.DEInternal>
2.3397

> <Gold.Chemscore.Rot>
1.7249

> <Gold.Chemscore.Internal.Correction>
   9.000000E+99

> <Gold.Chemscore.Hbond.Weighted>
-0.0000

> <Gold.Chemscore.Metal.Weighted>
-0.0000

> <Gold.Chemscore.Lipo.Weighted>
-12.2471

> <Gold.Chemscore.Internal_Hbond.Weighted>
0.0000

> <Gold.Chemscore.DEClash.Weighted>
0.0484

> <Gold.Chemscore.DEInternal.Weighted>
2.3397

> <Gold.Chemscore.Rot.Weighted>
4.4157

> <Gold.Chemscore.Internal.Correction.Weighted>
   9.000000E+99

> <Gold.Protein.RotatedTorsions>
[ 6907 6896 6895 6894 ] final -132.54 input  -60.11 | X-H torsion
[ 7974 7965 7964 7962 ] final   70.10 input  175.53 | X-H torsion
[ 8008 7997 7996 7995 ] final   -1.74 input   59.86 | X-H torsion
[ 10167 10162 10161 10158 ] final  -36.89 input  -65.29 | X-H torsion
[ 10718 10713 10712 10709 ] final  167.66 input   66.30 | X-H torsion
[ 10763 10752 10751 10750 ] final   92.80 input  -60.55 | X-H torsion
[ 11005 11000 10999 10996 ] final  150.48 input  -57.11 | X-H torsion

> <Gold.Protein.ActiveResidues>
 VAL166  LYS551  ARG553  GLY616  TRP617  ASP618  TYR619  PRO620  LYS621  CYS622 
 ASP623  PHE694  ASN695  SER759  ASP760  ASP761  ALA762  ILE779  LEU786  VAL792 
 PHE793  MET794  SER795  GLU796  ALA797  LYS798  CYS799  TRP800  GLU811  SER814 

> <Gold.Protein.RotatedAtoms>
  150.9636  133.6418  159.2749 H   0  0  0  0  0  0  0  0  0  0  0  0  # atno 6907 bound_to 6896
  151.3732  135.0925  159.9482 H   0  0  0  0  0  0  0  0  0  0  0  0  # atno 6908 bound_to 6896
  152.5157  133.9186  159.7578 H   0  0  0  0  0  0  0  0  0  0  0  0  # atno 6909 bound_to 6896
  145.7823  139.2894  143.1258 H   0  0  0  0  0  0  0  0  0  0  0  0  # atno 7974 bound_to 7965
  154.6435  140.2552  155.7295 H   0  0  0  0  0  0  0  0  0  0  0  0  # atno 8008 bound_to 7997
  156.2540  140.2882  156.0759 H   0  0  0  0  0  0  0  0  0  0  0  0  # atno 8009 bound_to 7997
  155.1560  140.0383  157.2822 H   0  0  0  0  0  0  0  0  0  0  0  0  # atno 8010 bound_to 7997
  140.7131  143.3378  151.2424 H   0  0  0  0  0  0  0  0  0  0  0  0  # atno 10167 bound_to 10162
  157.0483  131.0306  151.2689 H   0  0  0  0  0  0  0  0  0  0  0  0  # atno 10718 bound_to 10713
  153.2232  135.4348  155.0512 H   0  0  0  0  0  0  0  0  0  0  0  0  # atno 10763 bound_to 10752
  154.8260  135.3361  154.6897 H   0  0  0  0  0  0  0  0  0  0  0  0  # atno 10764 bound_to 10752
  153.7328  135.7010  153.5041 H   0  0  0  0  0  0  0  0  0  0  0  0  # atno 10765 bound_to 10752
  140.1135  134.8909  157.1970 H   0  0  0  0  0  0  0  0  0  0  0  0  # atno 11005 bound_to 11000
  146.0061  140.8477  142.9994 LP  0  0  0  0  0  0  0  0  0  0  0  0  # atno 17320 bound_to 7965
  144.6794  140.2422  143.7342 LP  0  0  0  0  0  0  0  0  0  0  0  0  # atno 17321 bound_to 7965
  139.6878  143.9744  152.2843 LP  0  0  0  0  0  0  0  0  0  0  0  0  # atno 17342 bound_to 10162
  139.9396  144.6690  150.8280 LP  0  0  0  0  0  0  0  0  0  0  0  0  # atno 17343 bound_to 10162
  157.5050  130.7903  149.7644 LP  0  0  0  0  0  0  0  0  0  0  0  0  # atno 17370 bound_to 10713
  156.0016  130.3877  150.2586 LP  0  0  0  0  0  0  0  0  0  0  0  0  # atno 17371 bound_to 10713
  140.3060  134.3078  155.7278 LP  0  0  0  0  0  0  0  0  0  0  0  0  # atno 17394 bound_to 11000
  141.2136  133.7621  156.9708 LP  0  0  0  0  0  0  0  0  0  0  0  0  # atno 17395 bound_to 11000

$$$$
