AV-unprocessed.smi:876|AV-procd|sdf|4022|dock3
  -GOLD-   22720 1513D 1   1.00000     0.00000
 Structure written by MMmdl.
 41 42  0  0  0  0  0  0  0  0  2 V2000
  144.0792  131.4767  150.6636 C   0  0  0  0  0  0  0  0  0  0  0  0
  144.0025  132.7896  150.0358 N   0  0  0  0  0  0  0  0  0  0  0  0
  143.5662  132.9189  148.6498 C   0  0  0  0  0  0  0  0  0  0  0  0
  144.3055  133.9460  150.7869 C   0  0  0  0  0  0  0  0  0  0  0  0
  143.8938  134.1291  152.1298 C   0  0  0  0  0  0  0  0  0  0  0  0
  144.2340  135.3130  152.8165 C   0  0  0  0  0  0  0  0  0  0  0  0
  144.9953  136.3096  152.1578 C   0  0  0  0  0  0  0  0  0  0  0  0
  145.3805  137.5452  152.7459 N   0  0  0  0  0  0  0  0  0  0  0  0
  146.1874  138.4991  152.2498 C   0  0  0  0  0  0  0  0  0  0  0  0
  146.7347  138.4682  151.1479 O   0  0  0  0  0  0  0  0  0  0  0  0
  146.3177  139.5189  153.1099 N   0  0  0  0  0  0  0  0  0  0  0  0
  147.1249  140.7105  152.8722 C   0  0  1  0  0  0  0  0  0  0  0  0
  146.6788  141.8370  153.7634 C   0  0  0  0  0  0  0  0  0  0  0  0
  147.6720  142.3383  154.4942 C   0  0  0  0  0  0  0  0  0  0  0  0
  148.9875  141.6442  154.2478 C   0  0  1  0  0  0  0  0  0  0  0  0
  149.6447  141.1270  155.5392 C   0  0  0  0  0  0  0  0  0  0  0  0
  150.0008  142.2029  156.3820 O   0  0  0  0  0  0  0  0  0  0  0  0
  148.6154  140.5126  153.2561 C   0  0  0  0  0  0  0  0  0  0  0  0
  145.3696  136.0829  150.8183 C   0  0  0  0  0  0  0  0  0  0  0  0
  145.0217  134.9348  150.1984 N   0  3  0  0  0  0  0  0  0  0  0  0
  147.0283  141.0353  151.8348 H   0  0  0  0  0  0  0  0  0  0  0  0
  149.6533  142.3542  153.7548 H   0  0  0  0  0  0  0  0  0  0  0  0
  143.3823  131.4105  151.4997 H   0  0  0  0  0  0  0  0  0  0  0  0
  145.0875  131.2862  151.0325 H   0  0  0  0  0  0  0  0  0  0  0  0
  143.8292  130.6844  149.9577 H   0  0  0  0  0  0  0  0  0  0  0  0
  144.3341  133.4091  148.0503 H   0  0  0  0  0  0  0  0  0  0  0  0
  142.6502  133.5077  148.5901 H   0  0  0  0  0  0  0  0  0  0  0  0
  143.3663  131.9446  148.2034 H   0  0  0  0  0  0  0  0  0  0  0  0
  143.3146  133.3802  152.6488 H   0  0  0  0  0  0  0  0  0  0  0  0
  143.8899  135.4335  153.8317 H   0  0  0  0  0  0  0  0  0  0  0  0
  144.9521  137.7509  153.6366 H   0  0  0  0  0  0  0  0  0  0  0  0
  145.8301  139.4687  153.9923 H   0  0  0  0  0  0  0  0  0  0  0  0
  145.6590  142.1932  153.7754 H   0  0  0  0  0  0  0  0  0  0  0  0
  147.5771  143.1604  155.1882 H   0  0  0  0  0  0  0  0  0  0  0  0
  148.9730  140.4568  156.0768 H   0  0  0  0  0  0  0  0  0  0  0  0
  150.5462  140.5610  155.3034 H   0  0  0  0  0  0  0  0  0  0  0  0
  149.6310  142.9972  156.0275 H   0  0  0  0  0  0  0  0  0  0  0  0
  148.7716  139.5360  153.7177 H   0  0  0  0  0  0  0  0  0  0  0  0
  149.2523  140.5428  152.3714 H   0  0  0  0  0  0  0  0  0  0  0  0
  145.9401  136.7812  150.2229 H   0  0  0  0  0  0  0  0  0  0  0  0
  145.3150  134.8053  149.2301 H   0  0  0  0  0  0  0  0  0  0  0  0
  1  2  1  0  0  0  0
  1 23  1  0  0  0  0
  1 24  1  0  0  0  0
  1 25  1  0  0  0  0
  2  3  1  0  0  0  0
  2  4  1  0  0  0  0
  3 26  1  0  0  0  0
  3 27  1  0  0  0  0
  3 28  1  0  0  0  0
  4 20  1  0  0  0  0
  4  5  2  0  0  0  0
  5  6  1  0  0  0  0
  5 29  1  0  0  0  0
  6  7  2  0  0  0  0
  6 30  1  0  0  0  0
  7  8  1  0  0  0  0
  7 19  1  0  0  0  0
  8  9  1  0  0  0  0
  8 31  1  0  0  0  0
  9 10  2  0  0  0  0
  9 11  1  0  0  0  0
 11 12  1  0  0  0  0
 11 32  1  0  0  0  0
 12 21  1  0  0  0  0
 12 18  1  0  0  0  0
 12 13  1  0  0  0  0
 13 14  2  0  0  0  0
 13 33  1  0  0  0  0
 14 15  1  0  0  0  0
 14 34  1  0  0  0  0
 15 22  1  0  0  0  0
 15 16  1  0  0  0  0
 15 18  1  0  0  0  0
 16 17  1  0  0  0  0
 16 35  1  0  0  0  0
 16 36  1  0  0  0  0
 17 37  1  0  0  0  0
 18 38  1  0  0  0  0
 18 39  1  0  0  0  0
 19 20  2  0  0  0  0
 19 40  1  0  0  0  0
 20 41  1  0  0  0  0
M  CHG  1  20   1
M  END
> <s_m_source_file>
AV-unprocessed.smi

> <i_m_source_file_index>
876

> <i_lp_mmshare_version>
43012

> <i_f3d_flags>
0

> <s_epik_input>
W0NIM11OKFtDSDNdKWMxW2NIXVtjSF1jKFtjSF1uMSlbTkhdQyg9TylbTkhdW0NAQEhdMltDSF09W0NIXVtDQEBIXShbQ0gyXTIpW0NIMl1bT0hd

> <s_epik_cmdline>
J2VwaWtfcHl0aG9uJywgJy1waCcsICc3LjAnLCAnLXRuJywgJzgnLCAnLW1hJywgJzIwMCcsICctbWV0YWxfYmluZGluZycsICctaW1hZScsICc8aW5maWxlLm1hZT4nLCAnLW9tYWUnLCAnPG91dGZpbGUubWFlPic=

> <r_lp_tautomer_probability>
0.999994

> <r_epik_Ionization_Penalty>
0.257994

> <r_epik_Ionization_Penalty_Charging>
0.257974

> <r_epik_Ionization_Penalty_Neutral>
1.95938e-05

> <r_epik_State_Penalty>
0.249586

> <r_epik_Charging_Adjusted_Penalty>
0.50756

> <i_epik_Tot_Q>
1

> <i_epik_Tot_abs_Q>
1

> <r_epik_Metal_State_Penalty>
0.538508

> <b_epik_Metal_Only>
0

> <s_lp_Force_Field>
OPLS_2005

> <r_lp_Energy>
25.8864

> <b_lp_Chiralities_Consistent>
1

> <s_lp_Variant>
AV-unprocessed.smi:876-4

> <Gold.Version>
5.8.1

> <Gold.Id.Protein>
6NUR|6NUR_protein|mol2

> <Gold.PLP.Fitness>
47.3213

> <Gold.PLP.PLP>
-40.2986

> <Gold.PLP.part.hbond>
-4.0000

> <Gold.PLP.part.metal>
0.0000

> <Gold.PLP.part.buried>
2.3893

> <Gold.PLP.part.nonpolar>
-38.8333

> <Gold.PLP.part.repulsive>
0.7884

> <Gold.PLP.ligand.clash>
0.0000

> <Gold.PLP.ligand.torsion>
1.0048

> <Gold.PLP.Chemscore.Hbond>
3.0000

> <Gold.PLP.Chemscore.CHOScore>
0.0000

> <Gold.PLP.Chemscore.Metal>
0.0000

> <Gold.Chemscore.Hbonds>
donor molecule, donor type, donor heavy atom, donor atom, acceptor molecule, acceptor atom, score
      L1  H    17    37       P1  8028  1.00
      L1  H    20    41       P1  7921  1.00
      P1  H  7954  7966       L1    10  1.00

> <Gold.PLP.Chemscore.Internal.Correction>
0.0323

> <Gold.Rescore>
     Score         DG    S(hbond)    S(metal)    S(lipo)     H(rot)  DE(clash)    DE(int)     intcor
     17.01     -21.22       2.98        0.00      89.12       1.82       1.91       2.30       ----

> <Gold.Chemscore.Fitness>
17.0143

> <Gold.Chemscore.DG>
-21.2179

> <Gold.Chemscore.ZeroCoef>
-5.4800

> <Gold.Chemscore.Hbond>
2.9847

> <Gold.Chemscore.Metal>
0.0000

> <Gold.Chemscore.Lipo>
89.1244

> <Gold.Chemscore.Internal_Hbond>
0.0000

> <Gold.Chemscore.DEClash>
1.9083

> <Gold.Chemscore.DEInternal>
2.2953

> <Gold.Chemscore.Rot>
1.8197

> <Gold.Chemscore.Internal.Correction>
   9.000000E+99

> <Gold.Chemscore.Hbonds>
donor molecule, donor type, donor heavy atom, donor atom, acceptor molecule, acceptor atom, score
      L1  H    17    37       P1  8028  1.00
      L1  H    20    41       P1  7921  1.00
      P1  H  7954  7966       L1    10  0.95

> <Gold.Chemscore.Hbond.Weighted>
-9.9688

> <Gold.Chemscore.Metal.Weighted>
-0.0000

> <Gold.Chemscore.Lipo.Weighted>
-10.4276

> <Gold.Chemscore.Internal_Hbond.Weighted>
0.0000

> <Gold.Chemscore.DEClash.Weighted>
1.9083

> <Gold.Chemscore.DEInternal.Weighted>
2.2953

> <Gold.Chemscore.Rot.Weighted>
4.6585

> <Gold.Chemscore.Internal.Correction.Weighted>
   9.000000E+99

> <Gold.Protein.RotatedTorsions>
[ 6907 6896 6895 6894 ] final  146.57 input  -60.11 | X-H torsion
[ 7974 7965 7964 7962 ] final -112.06 input  175.53 | X-H torsion
[ 8008 7997 7996 7995 ] final  176.45 input   59.86 | X-H torsion
[ 10167 10162 10161 10158 ] final -102.02 input  -65.29 | X-H torsion
[ 10718 10713 10712 10709 ] final  135.21 input   66.30 | X-H torsion
[ 10763 10752 10751 10750 ] final -101.96 input  -60.55 | X-H torsion
[ 11005 11000 10999 10996 ] final  117.74 input  -57.11 | X-H torsion

> <Gold.Protein.ActiveResidues>
 VAL166  LYS551  ARG553  GLY616  TRP617  ASP618  TYR619  PRO620  LYS621  CYS622 
 ASP623  PHE694  ASN695  SER759  ASP760  ASP761  ALA762  ILE779  LEU786  VAL792 
 PHE793  MET794  SER795  GLU796  ALA797  LYS798  CYS799  TRP800  GLU811  SER814 

> <Gold.Protein.RotatedAtoms>
  152.1661  133.4613  159.4885 H   0  0  0  0  0  0  0  0  0  0  0  0  # atno 6907 bound_to 6896
  150.6913  134.2011  159.4331 H   0  0  0  0  0  0  0  0  0  0  0  0  # atno 6908 bound_to 6896
  151.9916  134.9976  160.0612 H   0  0  0  0  0  0  0  0  0  0  0  0  # atno 6909 bound_to 6896
  145.1485  140.8816  143.3660 H   0  0  0  0  0  0  0  0  0  0  0  0  # atno 7974 bound_to 7965
  156.0763  140.1383  156.9767 H   0  0  0  0  0  0  0  0  0  0  0  0  # atno 8008 bound_to 7997
  154.4559  140.0961  156.6807 H   0  0  0  0  0  0  0  0  0  0  0  0  # atno 8009 bound_to 7997
  155.5148  140.3454  155.4397 H   0  0  0  0  0  0  0  0  0  0  0  0  # atno 8010 bound_to 7997
  140.2352  143.3578  152.0851 H   0  0  0  0  0  0  0  0  0  0  0  0  # atno 10167 bound_to 10162
  157.4594  131.1072  150.9938 H   0  0  0  0  0  0  0  0  0  0  0  0  # atno 10718 bound_to 10713
  154.7698  135.4878  153.9625 H   0  0  0  0  0  0  0  0  0  0  0  0  # atno 10763 bound_to 10752
  153.1353  135.6761  153.9121 H   0  0  0  0  0  0  0  0  0  0  0  0  # atno 10764 bound_to 10752
  153.8812  135.3132  155.3424 H   0  0  0  0  0  0  0  0  0  0  0  0  # atno 10765 bound_to 10752
  139.9085  134.9613  156.7396 H   0  0  0  0  0  0  0  0  0  0  0  0  # atno 11005 bound_to 11000
  145.0456  139.3224  143.5955 LP  0  0  0  0  0  0  0  0  0  0  0  0  # atno 17320 bound_to 7965
  146.3497  139.9845  142.8692 LP  0  0  0  0  0  0  0  0  0  0  0  0  # atno 17321 bound_to 7965
  139.5096  144.6870  151.5860 LP  0  0  0  0  0  0  0  0  0  0  0  0  # atno 17342 bound_to 10162
  140.6155  143.9356  150.6486 LP  0  0  0  0  0  0  0  0  0  0  0  0  # atno 17343 bound_to 10162
  157.0741  130.5876  149.5408 LP  0  0  0  0  0  0  0  0  0  0  0  0  # atno 17370 bound_to 10713
  156.0022  130.5103  150.7702 LP  0  0  0  0  0  0  0  0  0  0  0  0  # atno 17371 bound_to 10713
  140.6860  133.9432  155.7938 LP  0  0  0  0  0  0  0  0  0  0  0  0  # atno 17394 bound_to 11000
  141.0476  134.0531  157.3824 LP  0  0  0  0  0  0  0  0  0  0  0  0  # atno 17395 bound_to 11000

$$$$
