AV-unprocessed.smi:1697|AV-procd|sdf|6808|dock6
  -GOLD-   22720 7583D 1   1.00000     0.00000
 Structure written by MMmdl.
 55 57  0  0  0  0  0  0  0  0  3 V2000
  143.8025  146.8011  155.7869 C   0  0  0  0  0  0  0  0  0  0  0  0
  144.3805  145.6389  156.6055 C   0  0  0  0  0  0  0  0  0  0  0  0
  143.7017  144.4229  156.3167 O   0  0  0  0  0  0  0  0  0  0  0  0
  144.4799  143.4358  155.6515 C   0  0  2  0  0  0  0  0  0  0  0  0
  145.6022  142.9997  156.6030 C   0  0  0  0  0  0  0  0  0  0  0  0
  146.5562  142.0096  155.9154 C   0  0  0  0  0  0  0  0  0  0  0  0
  147.1331  142.5913  154.6754 N   0  3  1  0  0  0  0  0  0  0  0  0
  148.1537  141.7010  154.0641 C   0  0  0  0  0  0  0  0  0  0  0  0
  149.0625  141.0133  155.1080 C   0  0  1  0  0  0  0  0  0  0  0  0
  149.5572  139.8048  154.5682 O   0  0  0  0  0  0  0  0  0  0  0  0
  150.2834  141.8676  155.5076 C   0  0  0  0  0  0  0  0  0  0  0  0
  151.0460  141.3024  156.6284 N   0  0  0  0  0  0  0  0  0  0  0  0
  151.5955  140.0663  156.7812 C   0  0  0  0  0  0  0  0  0  0  0  0
  152.2006  140.0345  158.0010 N   0  3  0  0  0  0  0  0  0  0  0  0
  152.0233  141.2628  158.6416 C   0  0  0  0  0  0  0  0  0  0  0  0
  152.4462  141.7101  159.8875 C   0  0  0  0  0  0  0  0  0  0  0  0
  152.0915  143.0281  160.2540 C   0  0  0  0  0  0  0  0  0  0  0  0
  152.5344  143.5472  161.6114 C   0  0  0  0  0  0  0  0  0  0  0  0
  151.3344  143.8506  159.3798 C   0  0  0  0  0  0  0  0  0  0  0  0
  150.9532  145.2637  159.7874 C   0  0  0  0  0  0  0  0  0  0  0  0
  150.9168  143.3782  158.1150 C   0  0  0  0  0  0  0  0  0  0  0  0
  151.2772  142.0785  157.7691 C   0  0  0  0  0  0  0  0  0  0  0  0
  146.0686  143.0065  153.7219 C   0  0  0  0  0  0  0  0  0  0  0  0
  145.1024  144.0132  154.3683 C   0  0  0  0  0  0  0  0  0  0  0  0
  144.2817  147.7415  156.0598 H   0  0  0  0  0  0  0  0  0  0  0  0
  142.7326  146.9099  155.9668 H   0  0  0  0  0  0  0  0  0  0  0  0
  143.9485  146.6578  154.7168 H   0  0  0  0  0  0  0  0  0  0  0  0
  145.4559  145.5480  156.4512 H   0  0  0  0  0  0  0  0  0  0  0  0
  144.2379  145.8515  157.6652 H   0  0  0  0  0  0  0  0  0  0  0  0
  143.8737  142.5620  155.4088 H   0  0  0  0  0  0  0  0  0  0  0  0
  146.1633  143.8729  156.9396 H   0  0  0  0  0  0  0  0  0  0  0  0
  145.1751  142.5435  157.4970 H   0  0  0  0  0  0  0  0  0  0  0  0
  147.3570  141.7492  156.6085 H   0  0  0  0  0  0  0  0  0  0  0  0
  146.0305  141.0838  155.6752 H   0  0  0  0  0  0  0  0  0  0  0  0
  147.6634  140.9243  153.4746 H   0  0  0  0  0  0  0  0  0  0  0  0
  148.7420  142.2879  153.3578 H   0  0  0  0  0  0  0  0  0  0  0  0
  148.5001  140.7705  156.0082 H   0  0  0  0  0  0  0  0  0  0  0  0
  148.8339  139.2919  154.2416 H   0  0  0  0  0  0  0  0  0  0  0  0
  150.9634  141.9975  154.6642 H   0  0  0  0  0  0  0  0  0  0  0  0
  149.9645  142.8680  155.8043 H   0  0  0  0  0  0  0  0  0  0  0  0
  151.5620  139.2583  156.0644 H   0  0  0  0  0  0  0  0  0  0  0  0
  153.0188  141.0771  160.5499 H   0  0  0  0  0  0  0  0  0  0  0  0
  153.1207  144.4601  161.5034 H   0  0  0  0  0  0  0  0  0  0  0  0
  153.1511  142.8169  162.1364 H   0  0  0  0  0  0  0  0  0  0  0  0
  151.6680  143.7637  162.2369 H   0  0  0  0  0  0  0  0  0  0  0  0
  150.3501  145.7512  159.0209 H   0  0  0  0  0  0  0  0  0  0  0  0
  151.8452  145.8702  159.9455 H   0  0  0  0  0  0  0  0  0  0  0  0
  150.3725  145.2529  160.7102 H   0  0  0  0  0  0  0  0  0  0  0  0
  150.3379  144.0029  157.4507 H   0  0  0  0  0  0  0  0  0  0  0  0
  146.5067  143.4627  152.8351 H   0  0  0  0  0  0  0  0  0  0  0  0
  145.5182  142.1275  153.3831 H   0  0  0  0  0  0  0  0  0  0  0  0
  144.3256  144.2819  153.6526 H   0  0  0  0  0  0  0  0  0  0  0  0
  145.6380  144.9343  154.6020 H   0  0  0  0  0  0  0  0  0  0  0  0
  147.6188  143.4292  154.9624 H   0  0  0  0  0  0  0  0  0  0  0  0
  152.6912  139.2298  158.3703 H   0  0  0  0  0  0  0  0  0  0  0  0
  1  2  1  0  0  0  0
  1 25  1  0  0  0  0
  1 26  1  0  0  0  0
  1 27  1  0  0  0  0
  2  3  1  0  0  0  0
  2 28  1  0  0  0  0
  2 29  1  0  0  0  0
  3  4  1  0  0  0  0
  4 24  1  0  0  0  0
  4  5  1  0  0  0  0
  4 30  1  0  0  0  0
  5  6  1  0  0  0  0
  5 31  1  0  0  0  0
  5 32  1  0  0  0  0
  6  7  1  0  0  0  0
  6 33  1  0  0  0  0
  6 34  1  0  0  0  0
  7  8  1  0  0  0  0
  7 23  1  0  0  0  0
  7 54  1  0  0  0  0
  8  9  1  0  0  0  0
  8 35  1  0  0  0  0
  8 36  1  0  0  0  0
  9 10  1  0  0  0  0
  9 11  1  0  0  0  0
  9 37  1  0  0  0  0
 10 38  1  0  0  0  0
 11 12  1  0  0  0  0
 11 39  1  0  0  0  0
 11 40  1  0  0  0  0
 12 22  1  0  0  0  0
 12 13  1  0  0  0  0
 13 14  2  0  0  0  0
 13 41  1  0  0  0  0
 14 15  1  0  0  0  0
 14 55  1  0  0  0  0
 15 22  2  0  0  0  0
 15 16  1  0  0  0  0
 16 17  2  0  0  0  0
 16 42  1  0  0  0  0
 17 18  1  0  0  0  0
 17 19  1  0  0  0  0
 18 43  1  0  0  0  0
 18 44  1  0  0  0  0
 18 45  1  0  0  0  0
 19 20  1  0  0  0  0
 19 21  2  0  0  0  0
 20 46  1  0  0  0  0
 20 47  1  0  0  0  0
 20 48  1  0  0  0  0
 21 22  1  0  0  0  0
 21 49  1  0  0  0  0
 23 24  1  0  0  0  0
 23 50  1  0  0  0  0
 23 51  1  0  0  0  0
 24 52  1  0  0  0  0
 24 53  1  0  0  0  0
M  CHG  1   7   1
M  CHG  1  14   1
M  END
> <s_m_source_file>
AV-unprocessed.smi

> <i_m_source_file_index>
1697

> <i_lp_mmshare_version>
43012

> <i_f3d_flags>
0

> <s_epik_input>
W0NIM11bQ0gyXU9bQ0hdMVtDSDJdW0NIMl1OKFtDSDJdW0NIMl0xKVtDSDJdW0NASF0oW09IXSlbQ0gyXW4oW2NIXW4yKWMoYzIzKVtjSF1jKFtDSDNdKWMoW2NIXTMpW0NIM10=

> <s_epik_cmdline>
J2VwaWtfcHl0aG9uJywgJy1waCcsICc3LjAnLCAnLXRuJywgJzgnLCAnLW1hJywgJzIwMCcsICctbWV0YWxfYmluZGluZycsICctaW1hZScsICc8aW5maWxlLm1hZT4nLCAnLW9tYWUnLCAnPG91dGZpbGUubWFlPic=

> <r_epik_Ionization_Penalty>
1.20016

> <r_epik_Ionization_Penalty_Charging>
1.20016

> <r_epik_Ionization_Penalty_Neutral>
1.70998e-06

> <r_epik_State_Penalty>
1.27959

> <r_epik_Charging_Adjusted_Penalty>
2.47975

> <i_epik_Tot_Q>
2

> <i_epik_Tot_abs_Q>
2

> <r_epik_Metal_State_Penalty>
5.29682

> <b_epik_Metal_Only>
0

> <s_lp_Force_Field>
OPLS_2005

> <r_lp_Energy>
35.517

> <b_lp_Chiralities_Consistent>
1

> <s_lp_Variant>
AV-unprocessed.smi:1697-6

> <Gold.Version>
5.8.1

> <Gold.Id.Protein>
6NUR|6NUR_protein|mol2

> <Gold.PLP.Fitness>
55.3665

> <Gold.PLP.PLP>
-50.9524

> <Gold.PLP.part.hbond>
-1.0000

> <Gold.PLP.part.metal>
0.0000

> <Gold.PLP.part.buried>
-7.3365

> <Gold.PLP.part.nonpolar>
-41.8454

> <Gold.PLP.part.repulsive>
0.2400

> <Gold.PLP.ligand.clash>
0.0000

> <Gold.PLP.ligand.torsion>
0.8765

> <Gold.PLP.Chemscore.Hbond>
2.0000

> <Gold.PLP.Chemscore.CHOScore>
0.0000

> <Gold.PLP.Chemscore.Metal>
0.0000

> <Gold.Chemscore.Hbonds>
donor molecule, donor type, donor heavy atom, donor atom, acceptor molecule, acceptor atom, score
      L1  H     7    54       P1  8028  2.00

> <Gold.PLP.Chemscore.Internal.Correction>
0.1671

> <Gold.Rescore>
     Score         DG    S(hbond)    S(metal)    S(lipo)     H(rot)  DE(clash)    DE(int)     intcor
     16.31     -17.84       0.82        0.00     133.56       2.35       0.11       1.42       ----

> <Gold.Chemscore.Fitness>
16.3112

> <Gold.Chemscore.DG>
-17.8428

> <Gold.Chemscore.ZeroCoef>
-5.4800

> <Gold.Chemscore.Hbond>
0.8217

> <Gold.Chemscore.Metal>
0.0000

> <Gold.Chemscore.Lipo>
133.5555

> <Gold.Chemscore.Internal_Hbond>
0.0000

> <Gold.Chemscore.DEClash>
0.1066

> <Gold.Chemscore.DEInternal>
1.4250

> <Gold.Chemscore.Rot>
2.3468

> <Gold.Chemscore.Internal.Correction>
   9.000000E+99

> <Gold.Chemscore.Hbonds>
donor molecule, donor type, donor heavy atom, donor atom, acceptor molecule, acceptor atom, score
      L1  H     7    54       P1  8028  0.30

> <Gold.Chemscore.Hbond.Weighted>
-2.7446

> <Gold.Chemscore.Metal.Weighted>
-0.0000

> <Gold.Chemscore.Lipo.Weighted>
-15.6260

> <Gold.Chemscore.Internal_Hbond.Weighted>
0.0000

> <Gold.Chemscore.DEClash.Weighted>
0.1066

> <Gold.Chemscore.DEInternal.Weighted>
1.4250

> <Gold.Chemscore.Rot.Weighted>
6.0077

> <Gold.Chemscore.Internal.Correction.Weighted>
   9.000000E+99

> <Gold.Protein.RotatedTorsions>
[ 6907 6896 6895 6894 ] final  -75.63 input  -60.11 | X-H torsion
[ 7974 7965 7964 7962 ] final  146.72 input  175.53 | X-H torsion
[ 8008 7997 7996 7995 ] final  128.15 input   59.86 | X-H torsion
[ 10167 10162 10161 10158 ] final   55.32 input  -65.29 | X-H torsion
[ 10718 10713 10712 10709 ] final   74.82 input   66.30 | X-H torsion
[ 10763 10752 10751 10750 ] final   60.57 input  -60.55 | X-H torsion
[ 11005 11000 10999 10996 ] final -152.83 input  -57.11 | X-H torsion

> <Gold.Protein.ActiveResidues>
 VAL166  LYS551  ARG553  GLY616  TRP617  ASP618  TYR619  PRO620  LYS621  CYS622 
 ASP623  PHE694  ASN695  SER759  ASP760  ASP761  ALA762  ILE779  LEU786  VAL792 
 PHE793  MET794  SER795  GLU796  ALA797  LYS798  CYS799  TRP800  GLU811  SER814 

> <Gold.Protein.RotatedAtoms>
  150.7053  134.4692  159.5416 H   0  0  0  0  0  0  0  0  0  0  0  0  # atno 6907 bound_to 6896
  152.2351  134.8280  160.0477 H   0  0  0  0  0  0  0  0  0  0  0  0  # atno 6908 bound_to 6896
  151.9082  133.3519  159.3891 H   0  0  0  0  0  0  0  0  0  0  0  0  # atno 6909 bound_to 6896
  144.8649  139.5939  143.5914 H   0  0  0  0  0  0  0  0  0  0  0  0  # atno 7974 bound_to 7965
  156.2908  140.2651  156.2389 H   0  0  0  0  0  0  0  0  0  0  0  0  # atno 8008 bound_to 7997
  154.9997  140.0388  157.2373 H   0  0  0  0  0  0  0  0  0  0  0  0  # atno 8009 bound_to 7997
  154.7612  140.2761  155.6217 H   0  0  0  0  0  0  0  0  0  0  0  0  # atno 8010 bound_to 7997
  140.2207  144.3792  150.6452 H   0  0  0  0  0  0  0  0  0  0  0  0  # atno 10167 bound_to 10162
  157.6608  130.9696  150.1265 H   0  0  0  0  0  0  0  0  0  0  0  0  # atno 10718 bound_to 10713
  152.9925  135.5531  154.5895 H   0  0  0  0  0  0  0  0  0  0  0  0  # atno 10763 bound_to 10752
  154.5259  135.2810  155.1224 H   0  0  0  0  0  0  0  0  0  0  0  0  # atno 10764 bound_to 10752
  154.2559  135.6390  153.5309 H   0  0  0  0  0  0  0  0  0  0  0  0  # atno 10765 bound_to 10752
  140.7147  134.3793  157.5192 H   0  0  0  0  0  0  0  0  0  0  0  0  # atno 11005 bound_to 11000
  146.2888  139.7079  142.9176 LP  0  0  0  0  0  0  0  0  0  0  0  0  # atno 17320 bound_to 7965
  145.4241  141.0409  143.2947 LP  0  0  0  0  0  0  0  0  0  0  0  0  # atno 17321 bound_to 7965
  140.6257  143.2181  151.6601 LP  0  0  0  0  0  0  0  0  0  0  0  0  # atno 17342 bound_to 10162
  139.5145  144.3408  152.0742 LP  0  0  0  0  0  0  0  0  0  0  0  0  # atno 17343 bound_to 10162
  156.2122  130.3667  149.8656 LP  0  0  0  0  0  0  0  0  0  0  0  0  # atno 17370 bound_to 10713
  156.6531  130.8752  151.3535 LP  0  0  0  0  0  0  0  0  0  0  0  0  # atno 17371 bound_to 10713
  139.8863  134.8914  156.2594 LP  0  0  0  0  0  0  0  0  0  0  0  0  # atno 17394 bound_to 11000
  141.0054  133.7126  156.1027 LP  0  0  0  0  0  0  0  0  0  0  0  0  # atno 17395 bound_to 11000

$$$$
