AV-unprocessed.smi:38|AV-procd|sdf|335|dock4
  -GOLD-   2262016173D 1   1.00000     0.00000
 Structure written by MMmdl.
 28 29  0  0  0  0  0  0  0  0  1 V2000
  152.3292  139.8282  156.0861 O   0  0  0  0  0  0  0  0  0  0  0  0
  151.2349  139.7777  155.5280 C   0  0  0  0  0  0  0  0  0  0  0  0
  150.3148  140.8181  155.6884 N   0  0  0  0  0  0  0  0  0  0  0  0
  149.0468  140.8788  155.1066 C   0  0  0  0  0  0  0  0  0  0  0  0
  148.3276  141.8555  155.3111 O   0  0  0  0  0  0  0  0  0  0  0  0
  148.6608  139.7917  154.2899 N   0  0  0  0  0  0  0  0  0  0  0  0
  147.2979  139.7807  153.6360 C   0  0  1  0  0  0  0  0  0  0  0  0
  147.4190  139.6223  152.1170 C   0  0  0  0  0  0  0  0  0  0  0  0
  146.9603  138.1923  151.8991 C   0  0  2  0  0  0  0  0  0  0  0  0
  146.3463  138.0502  150.6344 O   0  0  0  0  0  0  0  0  0  0  0  0
  145.9764  137.9811  153.0531 C   0  0  1  0  0  0  0  0  0  0  0  0
  145.7914  136.5060  153.4405 C   0  0  0  0  0  0  0  0  0  0  0  0
  147.0371  135.9333  153.7756 O   0  0  0  0  0  0  0  0  0  0  0  0
  146.5832  138.6887  154.1299 O   0  0  0  0  0  0  0  0  0  0  0  0
  149.5434  138.7367  154.1020 C   0  0  0  0  0  0  0  0  0  0  0  0
  150.7715  138.6913  154.6699 C   0  0  0  0  0  0  0  0  0  0  0  0
  151.5699  137.6346  154.4413 F   0  0  0  0  0  0  0  0  0  0  0  0
  150.5912  141.5926  156.2740 H   0  0  0  0  0  0  0  0  0  0  0  0
  146.7766  140.6938  153.9256 H   0  0  0  0  0  0  0  0  0  0  0  0
  147.8063  137.5091  151.9809 H   0  0  0  0  0  0  0  0  0  0  0  0
  145.0216  138.4534  152.8122 H   0  0  0  0  0  0  0  0  0  0  0  0
  146.7361  140.3322  151.6471 H   0  0  0  0  0  0  0  0  0  0  0  0
  148.4299  139.8191  151.7573 H   0  0  0  0  0  0  0  0  0  0  0  0
  145.6415  138.6765  150.5682 H   0  0  0  0  0  0  0  0  0  0  0  0
  145.1496  136.4253  154.3181 H   0  0  0  0  0  0  0  0  0  0  0  0
  145.3156  135.9415  152.6378 H   0  0  0  0  0  0  0  0  0  0  0  0
  147.6280  136.0493  153.0473 H   0  0  0  0  0  0  0  0  0  0  0  0
  149.2469  137.9070  153.4777 H   0  0  0  0  0  0  0  0  0  0  0  0
  1  2  2  0  0  0  0
  2 16  1  0  0  0  0
  2  3  1  0  0  0  0
  3 18  1  0  0  0  0
  3  4  1  0  0  0  0
  4  5  2  0  0  0  0
  4  6  1  0  0  0  0
  6  7  1  0  0  0  0
  6 15  1  0  0  0  0
  7 19  1  0  0  0  0
  7 14  1  0  0  0  0
  7  8  1  0  0  0  0
  8  9  1  0  0  0  0
  8 22  1  0  0  0  0
  8 23  1  0  0  0  0
  9 20  1  0  0  0  0
  9 10  1  0  0  0  0
  9 11  1  0  0  0  0
 10 24  1  0  0  0  0
 11 21  1  0  0  0  0
 11 12  1  0  0  0  0
 11 14  1  0  0  0  0
 12 13  1  0  0  0  0
 12 25  1  0  0  0  0
 12 26  1  0  0  0  0
 13 27  1  0  0  0  0
 15 16  2  0  0  0  0
 15 28  1  0  0  0  0
 16 17  1  0  0  0  0
M  END
> <s_m_source_file>
AV-unprocessed.smi

> <i_m_source_file_index>
38

> <i_lp_mmshare_version>
43012

> <i_f3d_flags>
0

> <s_epik_input>
Tz1jMVtuSF1jKD1PKW4oW2NIXWMxRilbQ0BIXTJbQ0gyXVtDQEhdKFtPSF0pW0NASF0oTzIpW0NIMl1bT0hd

> <s_epik_cmdline>
J2VwaWtfcHl0aG9uJywgJy1waCcsICc3LjAnLCAnLXRuJywgJzgnLCAnLW1hJywgJzIwMCcsICctbWV0YWxfYmluZGluZycsICctaW1hZScsICc8aW5maWxlLm1hZT4nLCAnLW9tYWUnLCAnPG91dGZpbGUubWFlPic=

> <r_lp_tautomer_probability>
0.999537

> <r_epik_Ionization_Penalty>
0.0357432

> <r_epik_Ionization_Penalty_Charging>
0.0357431

> <r_epik_Ionization_Penalty_Neutral>
1.19946e-07

> <r_epik_State_Penalty>
0.0298169

> <r_epik_Charging_Adjusted_Penalty>
0.06556

> <i_epik_Tot_Q>
0

> <i_epik_Tot_abs_Q>
0

> <r_epik_Metal_State_Penalty>
2.348

> <b_epik_Metal_Only>
0

> <s_epik_Chemistry_Notes>
This compound contains an acetal/aminal-like group ( X-CH(R)-Y where X, Y are N, S, or O) that may be acid/base labile, releasing an aldehyde.

> <s_lp_Force_Field>
OPLS_2005

> <r_lp_Energy>
27.0042

> <b_lp_Chiralities_Consistent>
1

> <s_lp_Variant>
AV-unprocessed.smi:38-1

> <Gold.Version>
5.8.1

> <Gold.Id.Protein>
6NUR|6NUR_protein|mol2

> <Gold.PLP.Fitness>
36.8240

> <Gold.PLP.PLP>
-24.5799

> <Gold.PLP.part.hbond>
-4.0000

> <Gold.PLP.part.metal>
0.0000

> <Gold.PLP.part.buried>
3.4949

> <Gold.PLP.part.nonpolar>
-26.5638

> <Gold.PLP.part.repulsive>
1.8102

> <Gold.PLP.ligand.clash>
0.0000

> <Gold.PLP.ligand.torsion>
0.0242

> <Gold.PLP.Chemscore.Hbond>
3.0944

> <Gold.PLP.Chemscore.CHOScore>
1.0000

> <Gold.PLP.Chemscore.Metal>
0.0000

> <Gold.Chemscore.Hbonds>
donor molecule, donor type, donor heavy atom, donor atom, acceptor molecule, acceptor atom, score
      L1  H    10    24       P1 10171  0.67
      L1  H    13    27       P1  7948  1.00
      P1  H  7954  7966       L1    10  0.38
      P1  H  7997  8008       L1     1  0.96
      L1  C    15    28       P1  7948  1.00

> <Gold.PLP.Chemscore.Internal.Correction>
0.0092

> <Gold.Rescore>
     Score         DG    S(hbond)    S(metal)    S(lipo)     H(rot)  DE(clash)    DE(int)     intcor
      8.57     -11.36       2.55        0.00      41.24       2.91       2.72       0.07       ----

> <Gold.Chemscore.Fitness>
8.5730

> <Gold.Chemscore.DG>
-11.3594

> <Gold.Chemscore.ZeroCoef>
-5.4800

> <Gold.Chemscore.Hbond>
2.5491

> <Gold.Chemscore.Metal>
0.0000

> <Gold.Chemscore.Lipo>
41.2449

> <Gold.Chemscore.Internal_Hbond>
0.0000

> <Gold.Chemscore.DEClash>
2.7173

> <Gold.Chemscore.DEInternal>
0.0691

> <Gold.Chemscore.Rot>
2.9141

> <Gold.Chemscore.Internal.Correction>
   9.000000E+99

> <Gold.Chemscore.Hbonds>
donor molecule, donor type, donor heavy atom, donor atom, acceptor molecule, acceptor atom, score
      L1  H    10    24       P1 10171  0.68
      L1  H    13    27       P1  7948  1.00
      P1  H  7954  7966       L1    10  0.01
      P1  H  7997  8008       L1     1  0.90

> <Gold.Chemscore.Hbond.Weighted>
-8.5138

> <Gold.Chemscore.Metal.Weighted>
-0.0000

> <Gold.Chemscore.Lipo.Weighted>
-4.8257

> <Gold.Chemscore.Internal_Hbond.Weighted>
0.0000

> <Gold.Chemscore.DEClash.Weighted>
2.7173

> <Gold.Chemscore.DEInternal.Weighted>
0.0691

> <Gold.Chemscore.Rot.Weighted>
7.4601

> <Gold.Chemscore.Internal.Correction.Weighted>
   9.000000E+99

> <Gold.Protein.RotatedTorsions>
[ 6907 6896 6895 6894 ] final  -43.29 input  -60.11 | X-H torsion
[ 7974 7965 7964 7962 ] final  -55.85 input  175.53 | X-H torsion
[ 8008 7997 7996 7995 ] final  -32.67 input   59.86 | X-H torsion
[ 10167 10162 10161 10158 ] final   96.40 input  -65.29 | X-H torsion
[ 10718 10713 10712 10709 ] final  124.92 input   66.30 | X-H torsion
[ 10763 10752 10751 10750 ] final   59.84 input  -60.55 | X-H torsion
[ 11005 11000 10999 10996 ] final  -47.65 input  -57.11 | X-H torsion

> <Gold.Protein.ActiveResidues>
 VAL166  LYS551  ARG553  GLY616  TRP617  ASP618  TYR619  PRO620  LYS621  CYS622 
 ASP623  PHE694  ASN695  SER759  ASP760  ASP761  ALA762  ILE779  LEU786  VAL792 
 PHE793  MET794  SER795  GLU796  ALA797  LYS798  CYS799  TRP800  GLU811  SER814 

> <Gold.Protein.RotatedAtoms>
  150.9456  134.8861  159.7639 H   0  0  0  0  0  0  0  0  0  0  0  0  # atno 6907 bound_to 6896
  152.5098  134.3879  159.9384 H   0  0  0  0  0  0  0  0  0  0  0  0  # atno 6908 bound_to 6896
  151.3898  133.3752  159.2754 H   0  0  0  0  0  0  0  0  0  0  0  0  # atno 6909 bound_to 6896
  145.8694  140.8227  142.9896 H   0  0  0  0  0  0  0  0  0  0  0  0  # atno 7974 bound_to 7965
  154.4172  140.1731  156.1765 H   0  0  0  0  0  0  0  0  0  0  0  0  # atno 8008 bound_to 7997
  155.9718  140.3385  155.6558 H   0  0  0  0  0  0  0  0  0  0  0  0  # atno 8009 bound_to 7997
  155.6616  140.0701  157.2543 H   0  0  0  0  0  0  0  0  0  0  0  0  # atno 8010 bound_to 7997
  139.7898  144.6856  150.9908 H   0  0  0  0  0  0  0  0  0  0  0  0  # atno 10167 bound_to 10162
  157.5546  131.1092  150.8644 H   0  0  0  0  0  0  0  0  0  0  0  0  # atno 10718 bound_to 10713
  152.9905  135.5557  154.5777 H   0  0  0  0  0  0  0  0  0  0  0  0  # atno 10763 bound_to 10752
  154.5165  135.2805  155.1301 H   0  0  0  0  0  0  0  0  0  0  0  0  # atno 10764 bound_to 10752
  154.2671  135.6370  153.5349 H   0  0  0  0  0  0  0  0  0  0  0  0  # atno 10765 bound_to 10752
  141.0653  133.6696  156.3328 H   0  0  0  0  0  0  0  0  0  0  0  0  # atno 11005 bound_to 11000
  144.6726  140.1216  143.7449 LP  0  0  0  0  0  0  0  0  0  0  0  0  # atno 17320 bound_to 7965
  145.9155  139.2513  143.1412 LP  0  0  0  0  0  0  0  0  0  0  0  0  # atno 17321 bound_to 7965
  140.7820  143.4393  151.0576 LP  0  0  0  0  0  0  0  0  0  0  0  0  # atno 17342 bound_to 10162
  139.8070  143.8004  152.3168 LP  0  0  0  0  0  0  0  0  0  0  0  0  # atno 17343 bound_to 10162
  156.9159  130.5297  149.5279 LP  0  0  0  0  0  0  0  0  0  0  0  0  # atno 17370 bound_to 10713
  156.0607  130.5660  150.9186 LP  0  0  0  0  0  0  0  0  0  0  0  0  # atno 17371 bound_to 10713
  140.5785  134.5769  157.5474 LP  0  0  0  0  0  0  0  0  0  0  0  0  # atno 17394 bound_to 11000
  139.9471  134.7683  156.0536 LP  0  0  0  0  0  0  0  0  0  0  0  0  # atno 17395 bound_to 11000

$$$$
