AV-unprocessed.smi:1120|AV-procd|sdf|4823|dock5
  -GOLD-   22720 3383D 1   1.00000     0.00000
 Structure written by MMmdl.
 47 48  0  0  0  0  0  0  0  0  2 V2000
  152.7414  144.3854  158.8434 C   0  0  0  0  0  0  0  0  0  0  0  0
  152.4771  142.9617  159.3519 C   0  0  2  0  0  0  0  0  0  0  0  0
  153.7606  142.1002  159.3448 C   0  0  0  0  0  0  0  0  0  0  0  0
  153.5141  140.6414  159.8106 C   0  0  0  0  0  0  0  0  0  0  0  0
  152.4021  139.9019  159.0262 C   0  0  2  0  0  0  0  0  0  0  0  0
  152.8631  139.6027  157.6766 N   0  5  0  0  0  0  0  0  0  0  0  0
  152.7162  138.1013  157.0792 S   0  0  0  0  0  0  0  0  0  0  0  0
  153.4931  137.9234  155.8420 O   0  0  0  0  0  0  0  0  0  0  0  0
  152.8552  137.0572  158.1086 O   0  0  0  0  0  0  0  0  0  0  0  0
  150.9419  138.1085  156.5523 C   0  0  0  0  0  0  0  0  0  0  0  0
  150.5401  136.7756  155.9179 C   0  0  0  0  0  0  0  0  0  0  0  0
  150.8217  136.5433  154.7422 O   0  0  0  0  0  0  0  0  0  0  0  0
  149.9034  135.9000  156.7112 N   0  0  0  0  0  0  0  0  0  0  0  0
  149.4486  134.5760  156.3059 C   0  0  0  0  0  0  0  0  0  0  0  0
  150.6073  133.7228  155.7638 C   0  0  0  0  0  0  0  0  0  0  0  0
  150.1706  132.3109  155.4219 C   0  0  0  0  0  0  0  0  0  0  0  0
  150.7216  131.2023  156.0995 C   0  0  0  0  0  0  0  0  0  0  0  0
  150.2857  129.9121  155.7404 C   0  0  0  0  0  0  0  0  0  0  0  0
  149.3228  129.7805  154.7215 C   0  0  0  0  0  0  0  0  0  0  0  0
  148.8364  130.9500  154.1043 C   0  0  0  0  0  0  0  0  0  0  0  0
  149.2465  132.1916  154.4417 N   0  0  0  0  0  0  0  0  0  0  0  0
  151.1316  140.7901  158.9890 C   0  0  0  0  0  0  0  0  0  0  0  0
  151.3872  142.2464  158.5217 C   0  0  0  0  0  0  0  0  0  0  0  0
  153.0976  144.3780  157.8130 H   0  0  0  0  0  0  0  0  0  0  0  0
  153.4948  144.8856  159.4523 H   0  0  0  0  0  0  0  0  0  0  0  0
  151.8343  144.9891  158.8786 H   0  0  0  0  0  0  0  0  0  0  0  0
  152.1245  143.0351  160.3818 H   0  0  0  0  0  0  0  0  0  0  0  0
  154.1986  142.1030  158.3443 H   0  0  0  0  0  0  0  0  0  0  0  0
  154.5078  142.5581  159.9936 H   0  0  0  0  0  0  0  0  0  0  0  0
  154.4458  140.0760  159.7639 H   0  0  0  0  0  0  0  0  0  0  0  0
  153.2360  140.6624  160.8650 H   0  0  0  0  0  0  0  0  0  0  0  0
  152.1675  138.9840  159.5665 H   0  0  0  0  0  0  0  0  0  0  0  0
  150.3182  138.3369  157.4167 H   0  0  0  0  0  0  0  0  0  0  0  0
  150.8095  138.9122  155.8282 H   0  0  0  0  0  0  0  0  0  0  0  0
  149.7020  136.1806  157.6601 H   0  0  0  0  0  0  0  0  0  0  0  0
  149.0054  134.0939  157.1774 H   0  0  0  0  0  0  0  0  0  0  0  0
  148.6555  134.6627  155.5615 H   0  0  0  0  0  0  0  0  0  0  0  0
  151.0339  134.1883  154.8742 H   0  0  0  0  0  0  0  0  0  0  0  0
  151.4120  133.6752  156.4989 H   0  0  0  0  0  0  0  0  0  0  0  0
  151.4620  131.3359  156.8745 H   0  0  0  0  0  0  0  0  0  0  0  0
  150.6831  129.0394  156.2374 H   0  0  0  0  0  0  0  0  0  0  0  0
  148.9656  128.8070  154.4198 H   0  0  0  0  0  0  0  0  0  0  0  0
  148.0974  130.8866  153.3195 H   0  0  0  0  0  0  0  0  0  0  0  0
  150.3630  140.3336  158.3654 H   0  0  0  0  0  0  0  0  0  0  0  0
  150.7083  140.8243  159.9933 H   0  0  0  0  0  0  0  0  0  0  0  0
  150.4547  142.8078  158.5872 H   0  0  0  0  0  0  0  0  0  0  0  0
  151.6634  142.2561  157.4650 H   0  0  0  0  0  0  0  0  0  0  0  0
  1  2  1  0  0  0  0
  1 24  1  0  0  0  0
  1 25  1  0  0  0  0
  1 26  1  0  0  0  0
  2 23  1  0  0  0  0
  2  3  1  0  0  0  0
  2 27  1  0  0  0  0
  3  4  1  0  0  0  0
  3 28  1  0  0  0  0
  3 29  1  0  0  0  0
  4  5  1  0  0  0  0
  4 30  1  0  0  0  0
  4 31  1  0  0  0  0
  5  6  1  0  0  0  0
  5 22  1  0  0  0  0
  5 32  1  0  0  0  0
  6  7  1  0  0  0  0
  7  8  2  0  0  0  0
  7  9  2  0  0  0  0
  7 10  1  0  0  0  0
 10 11  1  0  0  0  0
 10 33  1  0  0  0  0
 10 34  1  0  0  0  0
 11 12  2  0  0  0  0
 11 13  1  0  0  0  0
 13 14  1  0  0  0  0
 13 35  1  0  0  0  0
 14 15  1  0  0  0  0
 14 36  1  0  0  0  0
 14 37  1  0  0  0  0
 15 16  1  0  0  0  0
 15 38  1  0  0  0  0
 15 39  1  0  0  0  0
 16 21  1  0  0  0  0
 16 17  2  0  0  0  0
 17 18  1  0  0  0  0
 17 40  1  0  0  0  0
 18 19  2  0  0  0  0
 18 41  1  0  0  0  0
 19 20  1  0  0  0  0
 19 42  1  0  0  0  0
 20 21  2  0  0  0  0
 20 43  1  0  0  0  0
 22 23  1  0  0  0  0
 22 44  1  0  0  0  0
 22 45  1  0  0  0  0
 23 46  1  0  0  0  0
 23 47  1  0  0  0  0
M  CHG  1   6  -1
M  END
> <s_m_source_file>
AV-unprocessed.smi

> <i_m_source_file_index>
1120

> <i_lp_mmshare_version>
43012

> <i_f3d_flags>
0

> <s_epik_input>
W0NIM11bQ0BASF0xW0NIMl1bQ0gyXVtDQEhdKFtDSDJdW0NIMl0xKVtOSF1TKD1PKSg9TylbQ0gyXUMoPU8pW05IXVtDSDJdW0NIMl1jMltjSF1bY0hdW2NIXVtjSF1uMg==

> <s_epik_cmdline>
J2VwaWtfcHl0aG9uJywgJy1waCcsICc3LjAnLCAnLXRuJywgJzgnLCAnLW1hJywgJzIwMCcsICctbWV0YWxfYmluZGluZycsICctaW1hZScsICc8aW5maWxlLm1hZT4nLCAnLW9tYWUnLCAnPG91dGZpbGUubWFlPic=

> <r_epik_Ionization_Penalty>
5.68623

> <r_epik_Ionization_Penalty_Charging>
5.66033

> <r_epik_Ionization_Penalty_Neutral>
0.0259005

> <r_epik_State_Penalty>
5.67764

> <r_epik_Charging_Adjusted_Penalty>
11.338

> <i_epik_Tot_Q>
-1

> <i_epik_Tot_abs_Q>
1

> <r_epik_Metal_State_Penalty>
1.68319

> <b_epik_Metal_Only>
1

> <s_lp_Force_Field>
OPLS_2005

> <r_lp_Energy>
10.049

> <b_lp_Chiralities_Consistent>
1

> <s_lp_Variant>
AV-unprocessed.smi:1120-6

> <Gold.Version>
5.8.1

> <Gold.Id.Protein>
6NUR|6NUR_protein|mol2

> <Gold.PLP.Fitness>
48.3662

> <Gold.PLP.PLP>
-37.1722

> <Gold.PLP.part.hbond>
-3.6137

> <Gold.PLP.part.metal>
0.0000

> <Gold.PLP.part.buried>
-6.0589

> <Gold.PLP.part.nonpolar>
-28.6010

> <Gold.PLP.part.repulsive>
0.9309

> <Gold.PLP.ligand.clash>
0.0000

> <Gold.PLP.ligand.torsion>
0.9170

> <Gold.PLP.Chemscore.Hbond>
3.0000

> <Gold.PLP.Chemscore.CHOScore>
1.0000

> <Gold.PLP.Chemscore.Metal>
0.0000

> <Gold.Chemscore.Hbonds>
donor molecule, donor type, donor heavy atom, donor atom, acceptor molecule, acceptor atom, score
      P1  H  7997  8008       L1     6  2.00
      P1  H 10752 10763       L1    12  0.26

> <Gold.PLP.Chemscore.Internal.Correction>
1.0280

> <Gold.Rescore>
     Score         DG    S(hbond)    S(metal)    S(lipo)     H(rot)  DE(clash)    DE(int)     intcor
     18.30     -19.23       2.28        0.00      93.20       1.86       0.06       0.87       ----

> <Gold.Chemscore.Fitness>
18.3020

> <Gold.Chemscore.DG>
-19.2297

> <Gold.Chemscore.ZeroCoef>
-5.4800

> <Gold.Chemscore.Hbond>
2.2777

> <Gold.Chemscore.Metal>
0.0000

> <Gold.Chemscore.Lipo>
93.1985

> <Gold.Chemscore.Internal_Hbond>
0.0000

> <Gold.Chemscore.DEClash>
0.0611

> <Gold.Chemscore.DEInternal>
0.8666

> <Gold.Chemscore.Rot>
1.8602

> <Gold.Chemscore.Internal.Correction>
   9.000000E+99

> <Gold.Chemscore.Hbonds>
donor molecule, donor type, donor heavy atom, donor atom, acceptor molecule, acceptor atom, score
      P1  H  7997  8008       L1     6  0.24
      P1  H 10752 10763       L1    12  0.17

> <Gold.Chemscore.Hbond.Weighted>
-7.6076

> <Gold.Chemscore.Metal.Weighted>
-0.0000

> <Gold.Chemscore.Lipo.Weighted>
-10.9042

> <Gold.Chemscore.Internal_Hbond.Weighted>
0.0000

> <Gold.Chemscore.DEClash.Weighted>
0.0611

> <Gold.Chemscore.DEInternal.Weighted>
0.8666

> <Gold.Chemscore.Rot.Weighted>
4.7622

> <Gold.Chemscore.Internal.Correction.Weighted>
   9.000000E+99

> <Gold.Protein.RotatedTorsions>
[ 6907 6896 6895 6894 ] final -144.94 input  -60.11 | X-H torsion
[ 7974 7965 7964 7962 ] final  112.67 input  175.53 | X-H torsion
[ 8008 7997 7996 7995 ] final  -90.50 input   59.86 | X-H torsion
[ 10167 10162 10161 10158 ] final  122.10 input  -65.29 | X-H torsion
[ 10718 10713 10712 10709 ] final -139.07 input   66.30 | X-H torsion
[ 10763 10752 10751 10750 ] final   62.93 input  -60.55 | X-H torsion
[ 11005 11000 10999 10996 ] final -122.04 input  -57.11 | X-H torsion

> <Gold.Protein.ActiveResidues>
 VAL166  LYS551  ARG553  GLY616  TRP617  ASP618  TYR619  PRO620  LYS621  CYS622 
 ASP623  PHE694  ASN695  SER759  ASP760  ASP761  ALA762  ILE779  LEU786  VAL792 
 PHE793  MET794  SER795  GLU796  ALA797  LYS798  CYS799  TRP800  GLU811  SER814 

> <Gold.Protein.RotatedAtoms>
  151.1209  133.5105  159.2601 H   0  0  0  0  0  0  0  0  0  0  0  0  # atno 6907 bound_to 6896
  151.1863  135.0382  159.8823 H   0  0  0  0  0  0  0  0  0  0  0  0  # atno 6908 bound_to 6896
  152.5455  134.1055  159.8389 H   0  0  0  0  0  0  0  0  0  0  0  0  # atno 6909 bound_to 6896
  145.2266  139.2838  143.4190 H   0  0  0  0  0  0  0  0  0  0  0  0  # atno 7974 bound_to 7965
  154.6994  140.0529  157.0443 H   0  0  0  0  0  0  0  0  0  0  0  0  # atno 8008 bound_to 7997
  155.0706  140.3199  155.4613 H   0  0  0  0  0  0  0  0  0  0  0  0  # atno 8009 bound_to 7997
  156.2755  140.2082  156.5834 H   0  0  0  0  0  0  0  0  0  0  0  0  # atno 8010 bound_to 7997
  139.5879  144.7014  151.3363 H   0  0  0  0  0  0  0  0  0  0  0  0  # atno 10167 bound_to 10162
  156.3066  130.7458  151.1523 H   0  0  0  0  0  0  0  0  0  0  0  0  # atno 10718 bound_to 10713
  153.0000  135.5447  154.6271 H   0  0  0  0  0  0  0  0  0  0  0  0  # atno 10763 bound_to 10752
  154.5557  135.2830  155.0969 H   0  0  0  0  0  0  0  0  0  0  0  0  # atno 10764 bound_to 10752
  154.2191  135.6454  153.5192 H   0  0  0  0  0  0  0  0  0  0  0  0  # atno 10765 bound_to 10752
  141.0025  134.0382  157.3519 H   0  0  0  0  0  0  0  0  0  0  0  0  # atno 11005 bound_to 11000
  146.3363  140.2588  142.8601 LP  0  0  0  0  0  0  0  0  0  0  0  0  # atno 17320 bound_to 7965
  144.9716  140.8374  143.5452 LP  0  0  0  0  0  0  0  0  0  0  0  0  # atno 17321 bound_to 7965
  140.7147  143.7297  150.7633 LP  0  0  0  0  0  0  0  0  0  0  0  0  # atno 17342 bound_to 10162
  140.0845  143.4936  152.2512 LP  0  0  0  0  0  0  0  0  0  0  0  0  # atno 17343 bound_to 10162
  157.7381  131.0544  150.5316 LP  0  0  0  0  0  0  0  0  0  0  0  0  # atno 17370 bound_to 10713
  156.5450  130.4217  149.6135 LP  0  0  0  0  0  0  0  0  0  0  0  0  # atno 17371 bound_to 10713
  139.9046  135.0176  156.7428 LP  0  0  0  0  0  0  0  0  0  0  0  0  # atno 17394 bound_to 11000
  140.6865  133.9428  155.7941 LP  0  0  0  0  0  0  0  0  0  0  0  0  # atno 17395 bound_to 11000

$$$$
