AV-unprocessed.smi:1178|AV-procd|sdf|4956|dock2
  -GOLD-   22720 3543D 1   1.00000     0.00000
 Structure written by MMmdl.
 33 34  0  0  0  0  0  0  0  0  1 V2000
  151.0139  136.4074  156.6951 O   0  0  0  0  0  0  0  0  0  0  0  0
  150.3444  137.4415  156.6972 C   0  0  0  0  0  0  0  0  0  0  0  0
  150.6466  138.5718  155.7033 C   0  0  0  0  0  0  0  0  0  0  0  0
  150.6970  139.8927  156.3462 N   0  0  0  0  0  0  0  0  0  0  0  0
  151.4113  140.0737  157.5221 C   0  0  0  0  0  0  0  0  0  0  0  0
  151.5184  141.2670  158.1531 C   0  0  0  0  0  0  0  0  0  0  0  0
  150.8677  142.4527  157.6063 C   0  0  0  0  0  0  0  0  0  0  0  0
  150.9078  143.5764  158.1026 O   0  0  0  0  0  0  0  0  0  0  0  0
  150.1585  142.2299  156.4231 N   0  0  0  0  0  0  0  0  0  0  0  0
  150.0438  141.0030  155.7679 C   0  0  0  0  0  0  0  0  0  0  0  0
  149.3944  140.9173  154.7267 O   0  0  0  0  0  0  0  0  0  0  0  0
  149.3376  137.6619  157.5561 N   0  0  0  0  0  0  0  0  0  0  0  0
  148.8681  136.7191  158.5656 C   0  0  0  0  0  0  0  0  0  0  0  0
  149.7793  136.6996  159.8110 C   0  0  0  0  0  0  0  0  0  0  0  0
  149.3964  135.6410  160.7556 N   0  0  0  0  0  0  0  0  0  0  0  0
  148.9911  135.9016  162.0199 C   0  0  0  0  0  0  0  0  0  0  0  0
  148.8947  137.0259  162.5103 O   0  0  0  0  0  0  0  0  0  0  0  0
  148.6510  134.6558  162.8466 C   0  0  0  0  0  0  0  0  0  0  0  0
  148.9555  133.2730  161.7443 S   0  0  0  0  0  0  0  0  0  0  0  0
  149.4423  134.3331  160.4497 C   0  0  0  0  0  0  0  0  0  0  0  0
  149.7992  133.8812  159.3621 O   0  0  0  0  0  0  0  0  0  0  0  0
  149.6922  143.0224  156.0062 H   0  0  0  0  0  0  0  0  0  0  0  0
  151.5854  138.3711  155.1828 H   0  0  0  0  0  0  0  0  0  0  0  0
  149.8788  138.5561  154.9288 H   0  0  0  0  0  0  0  0  0  0  0  0
  151.9154  139.2241  157.9603 H   0  0  0  0  0  0  0  0  0  0  0  0
  152.0912  141.3454  159.0660 H   0  0  0  0  0  0  0  0  0  0  0  0
  148.8460  138.5415  157.4914 H   0  0  0  0  0  0  0  0  0  0  0  0
  147.8552  136.9976  158.8605 H   0  0  0  0  0  0  0  0  0  0  0  0
  148.7883  135.7266  158.1215 H   0  0  0  0  0  0  0  0  0  0  0  0
  150.8308  136.6199  159.5296 H   0  0  0  0  0  0  0  0  0  0  0  0
  149.7038  137.6642  160.3159 H   0  0  0  0  0  0  0  0  0  0  0  0
  149.2889  134.5915  163.7282 H   0  0  0  0  0  0  0  0  0  0  0  0
  147.6073  134.6738  163.1611 H   0  0  0  0  0  0  0  0  0  0  0  0
  1  2  2  0  0  0  0
  2  3  1  0  0  0  0
  2 12  1  0  0  0  0
  3  4  1  0  0  0  0
  3 23  1  0  0  0  0
  3 24  1  0  0  0  0
  4 10  1  0  0  0  0
  4  5  1  0  0  0  0
  5  6  2  0  0  0  0
  5 25  1  0  0  0  0
  6  7  1  0  0  0  0
  6 26  1  0  0  0  0
  7  8  2  0  0  0  0
  7  9  1  0  0  0  0
  9 22  1  0  0  0  0
  9 10  1  0  0  0  0
 10 11  2  0  0  0  0
 12 13  1  0  0  0  0
 12 27  1  0  0  0  0
 13 14  1  0  0  0  0
 13 28  1  0  0  0  0
 13 29  1  0  0  0  0
 14 15  1  0  0  0  0
 14 30  1  0  0  0  0
 14 31  1  0  0  0  0
 15 20  1  0  0  0  0
 15 16  1  0  0  0  0
 16 17  2  0  0  0  0
 16 18  1  0  0  0  0
 18 19  1  0  0  0  0
 18 32  1  0  0  0  0
 18 33  1  0  0  0  0
 19 20  1  0  0  0  0
 20 21  2  0  0  0  0
M  END
> <s_m_source_file>
AV-unprocessed.smi

> <i_m_source_file_index>
1178

> <i_lp_mmshare_version>
43012

> <i_f3d_flags>
0

> <s_epik_input>
Tz1jMVtuSF1jKD1PKVtjSF1bY0hdbjFbQ0gyXUMoPU8pW05IXVtDSDJdW0NIMl1OMkMoPU8pW0NIMl1TQzI9Tw==

> <s_epik_cmdline>
J2VwaWtfcHl0aG9uJywgJy1waCcsICc3LjAnLCAnLXRuJywgJzgnLCAnLW1hJywgJzIwMCcsICctbWV0YWxfYmluZGluZycsICctaW1hZScsICc8aW5maWxlLm1hZT4nLCAnLW9tYWUnLCAnPG91dGZpbGUubWFlPic=

> <r_lp_tautomer_probability>
0.999537

> <r_epik_Ionization_Penalty>
0.00339795

> <r_epik_Ionization_Penalty_Charging>
0.0033979

> <r_epik_Ionization_Penalty_Neutral>
5.48861e-08

> <r_epik_State_Penalty>
0.00240602

> <r_epik_Charging_Adjusted_Penalty>
0.00580392

> <i_epik_Tot_Q>
0

> <i_epik_Tot_abs_Q>
0

> <r_epik_Metal_State_Penalty>
0.366682

> <b_epik_Metal_Only>
0

> <s_lp_Force_Field>
OPLS_2005

> <r_lp_Energy>
11.0957

> <b_lp_Chiralities_Consistent>
1

> <s_lp_Variant>
AV-unprocessed.smi:1178-1

> <Gold.Version>
5.8.1

> <Gold.Id.Protein>
6NUR|6NUR_protein|mol2

> <Gold.PLP.Fitness>
43.4828

> <Gold.PLP.PLP>
-32.0441

> <Gold.PLP.part.hbond>
-5.0000

> <Gold.PLP.part.metal>
0.0000

> <Gold.PLP.part.buried>
-4.8862

> <Gold.PLP.part.nonpolar>
-23.0531

> <Gold.PLP.part.repulsive>
0.3930

> <Gold.PLP.ligand.clash>
0.0000

> <Gold.PLP.ligand.torsion>
0.4662

> <Gold.PLP.Chemscore.Hbond>
4.1120

> <Gold.PLP.Chemscore.CHOScore>
0.0000

> <Gold.PLP.Chemscore.Metal>
0.0000

> <Gold.Chemscore.Hbonds>
donor molecule, donor type, donor heavy atom, donor atom, acceptor molecule, acceptor atom, score
      L1  H     9    22       P1  8028  1.00
      P1  H  6931  6943       L1    17  0.51

> <Gold.PLP.Chemscore.Internal.Correction>
0.0352

> <Gold.Rescore>
     Score         DG    S(hbond)    S(metal)    S(lipo)     H(rot)  DE(clash)    DE(int)     intcor
     12.86     -13.20       3.22        0.00      39.08       2.97       0.00       0.34       ----

> <Gold.Chemscore.Fitness>
12.8599

> <Gold.Chemscore.DG>
-13.1951

> <Gold.Chemscore.ZeroCoef>
-5.4800

> <Gold.Chemscore.Hbond>
3.2150

> <Gold.Chemscore.Metal>
0.0000

> <Gold.Chemscore.Lipo>
39.0840

> <Gold.Chemscore.Internal_Hbond>
0.0000

> <Gold.Chemscore.DEClash>
0.0000

> <Gold.Chemscore.DEInternal>
0.3352

> <Gold.Chemscore.Rot>
2.9672

> <Gold.Chemscore.Internal.Correction>
   9.000000E+99

> <Gold.Chemscore.Hbonds>
donor molecule, donor type, donor heavy atom, donor atom, acceptor molecule, acceptor atom, score
      L1  H     9    22       P1  8028  1.00
      P1  H  6931  6943       L1    17  0.49

> <Gold.Chemscore.Hbond.Weighted>
-10.7382

> <Gold.Chemscore.Metal.Weighted>
-0.0000

> <Gold.Chemscore.Lipo.Weighted>
-4.5728

> <Gold.Chemscore.Internal_Hbond.Weighted>
0.0000

> <Gold.Chemscore.DEClash.Weighted>
0.0000

> <Gold.Chemscore.DEInternal.Weighted>
0.3352

> <Gold.Chemscore.Rot.Weighted>
7.5960

> <Gold.Chemscore.Internal.Correction.Weighted>
   9.000000E+99

> <Gold.Protein.RotatedTorsions>
[ 6907 6896 6895 6894 ] final  140.40 input  -60.11 | X-H torsion
[ 7974 7965 7964 7962 ] final  122.95 input  175.53 | X-H torsion
[ 8008 7997 7996 7995 ] final   30.28 input   59.86 | X-H torsion
[ 10167 10162 10161 10158 ] final -125.44 input  -65.29 | X-H torsion
[ 10718 10713 10712 10709 ] final  -59.24 input   66.30 | X-H torsion
[ 10763 10752 10751 10750 ] final  -83.49 input  -60.55 | X-H torsion
[ 11005 11000 10999 10996 ] final  100.04 input  -57.11 | X-H torsion

> <Gold.Protein.ActiveResidues>
 VAL166  LYS551  ARG553  GLY616  TRP617  ASP618  TYR619  PRO620  LYS621  CYS622 
 ASP623  PHE694  ASN695  SER759  ASP760  ASP761  ALA762  ILE779  LEU786  VAL792 
 PHE793  MET794  SER795  GLU796  ALA797  LYS798  CYS799  TRP800  GLU811  SER814 

> <Gold.Protein.RotatedAtoms>
  152.2434  133.5155  159.5283 H   0  0  0  0  0  0  0  0  0  0  0  0  # atno 6907 bound_to 6896
  150.7071  134.1057  159.3991 H   0  0  0  0  0  0  0  0  0  0  0  0  # atno 6908 bound_to 6896
  151.8978  135.0390  160.0554 H   0  0  0  0  0  0  0  0  0  0  0  0  # atno 6909 bound_to 6896
  145.1015  139.3515  143.4809 H   0  0  0  0  0  0  0  0  0  0  0  0  # atno 7974 bound_to 7965
  155.0878  140.3217  155.4582 H   0  0  0  0  0  0  0  0  0  0  0  0  # atno 8008 bound_to 7997
  156.2750  140.2083  156.5952 H   0  0  0  0  0  0  0  0  0  0  0  0  # atno 8009 bound_to 7997
  154.6927  140.0515  157.0367 H   0  0  0  0  0  0  0  0  0  0  0  0  # atno 8010 bound_to 7997
  139.9820  143.5732  152.2374 H   0  0  0  0  0  0  0  0  0  0  0  0  # atno 10167 bound_to 10162
  156.1076  130.4178  150.0687 H   0  0  0  0  0  0  0  0  0  0  0  0  # atno 10718 bound_to 10713
  154.5884  135.5554  153.7253 H   0  0  0  0  0  0  0  0  0  0  0  0  # atno 10763 bound_to 10752
  153.0107  135.6337  154.1884 H   0  0  0  0  0  0  0  0  0  0  0  0  # atno 10764 bound_to 10752
  154.1825  135.2886  155.3027 H   0  0  0  0  0  0  0  0  0  0  0  0  # atno 10765 bound_to 10752
  139.8771  134.9123  156.4697 H   0  0  0  0  0  0  0  0  0  0  0  0  # atno 11005 bound_to 11000
  146.3529  140.0895  142.8613 LP  0  0  0  0  0  0  0  0  0  0  0  0  # atno 17320 bound_to 7965
  145.0950  140.9309  143.4746 LP  0  0  0  0  0  0  0  0  0  0  0  0  # atno 17321 bound_to 7965
  139.6402  144.7654  151.2354 LP  0  0  0  0  0  0  0  0  0  0  0  0  # atno 17342 bound_to 10162
  140.7485  143.6329  150.8406 LP  0  0  0  0  0  0  0  0  0  0  0  0  # atno 17343 bound_to 10162
  156.8659  130.9507  151.3614 LP  0  0  0  0  0  0  0  0  0  0  0  0  # atno 17370 bound_to 10713
  157.6255  130.8688  149.9181 LP  0  0  0  0  0  0  0  0  0  0  0  0  # atno 17371 bound_to 10713
  140.8805  133.7921  155.9461 LP  0  0  0  0  0  0  0  0  0  0  0  0  # atno 17394 bound_to 11000
  140.8859  134.2554  157.5120 LP  0  0  0  0  0  0  0  0  0  0  0  0  # atno 17395 bound_to 11000

$$$$
