AV-unprocessed.smi:1644|AV-procd|sdf|6595|dock10
  -GOLD-   22720 7293D 1   1.00000     0.00000
 Structure written by MMmdl.
 48 50  0  0  0  0  0  0  0  0  2 V2000
  152.0862  144.9256  158.7875 C   0  0  0  0  0  0  0  0  0  0  0  0
  151.3710  143.5787  158.9367 C   0  0  0  0  0  0  0  0  0  0  0  0
  152.2453  142.3940  158.4717 C   0  0  0  0  0  0  0  0  0  0  0  0
  151.4922  141.0902  158.1102 C   0  0  1  0  0  0  0  0  0  0  0  0
  150.5633  141.2914  157.0180 N   0  5  0  0  0  0  0  0  0  0  0  0
  150.8739  140.4220  156.0275 C   0  0  0  0  0  0  0  0  0  0  0  0
  150.3052  140.3113  154.9416 O   0  0  0  0  0  0  0  0  0  0  0  0
  151.9314  139.6577  156.3651 N   0  0  0  0  0  0  0  0  0  0  0  0
  152.5495  138.6448  155.5037 C   0  0  0  0  0  0  0  0  0  0  0  0
  151.5194  137.6046  155.0169 C   0  0  1  0  0  0  0  0  0  0  0  0
  152.0615  136.9040  153.9134 O   0  0  0  0  0  0  0  0  0  0  0  0
  151.1767  136.5852  156.1196 C   0  0  0  0  0  0  0  0  0  0  0  0
  150.5848  135.3709  155.5878 N   0  0  0  0  0  0  0  0  0  0  0  0
  149.4762  135.2668  154.8301 C   0  0  0  0  0  0  0  0  0  0  0  0
  149.1144  134.0460  154.4449 N   0  0  0  0  0  0  0  0  0  0  0  0
  150.1032  133.2674  155.0221 C   0  0  0  0  0  0  0  0  0  0  0  0
  150.3021  131.8694  154.9960 C   0  0  0  0  0  0  0  0  0  0  0  0
  151.3977  131.2807  155.6674 C   0  0  0  0  0  0  0  0  0  0  0  0
  151.5732  129.7733  155.6142 C   0  0  0  0  0  0  0  0  0  0  0  0
  152.3161  132.0944  156.3788 C   0  0  0  0  0  0  0  0  0  0  0  0
  153.4993  131.4851  157.1099 C   0  0  0  0  0  0  0  0  0  0  0  0
  152.1327  133.4925  156.4137 C   0  0  0  0  0  0  0  0  0  0  0  0
  151.0385  134.0660  155.7425 C   0  0  0  0  0  0  0  0  0  0  0  0
  152.3813  139.9836  157.5803 C   0  0  0  0  0  0  0  0  0  0  0  0
  153.3400  139.5036  158.1864 O   0  0  0  0  0  0  0  0  0  0  0  0
  151.4471  145.7428  159.1223 H   0  0  0  0  0  0  0  0  0  0  0  0
  152.3536  145.1161  157.7479 H   0  0  0  0  0  0  0  0  0  0  0  0
  153.0005  144.9536  159.3806 H   0  0  0  0  0  0  0  0  0  0  0  0
  151.0863  143.4435  159.9805 H   0  0  0  0  0  0  0  0  0  0  0  0
  150.4423  143.6115  158.3665 H   0  0  0  0  0  0  0  0  0  0  0  0
  152.8286  142.7091  157.6056 H   0  0  0  0  0  0  0  0  0  0  0  0
  152.9771  142.1682  159.2485 H   0  0  0  0  0  0  0  0  0  0  0  0
  150.9843  140.7178  159.0009 H   0  0  0  0  0  0  0  0  0  0  0  0
  153.0710  139.1028  154.6612 H   0  0  0  0  0  0  0  0  0  0  0  0
  153.3293  138.1460  156.0817 H   0  0  0  0  0  0  0  0  0  0  0  0
  150.6025  138.1023  154.6982 H   0  0  0  0  0  0  0  0  0  0  0  0
  151.3612  136.7028  153.3121 H   0  0  0  0  0  0  0  0  0  0  0  0
  152.0676  136.3235  156.6927 H   0  0  0  0  0  0  0  0  0  0  0  0
  150.4678  137.0200  156.8255 H   0  0  0  0  0  0  0  0  0  0  0  0
  148.9013  136.1364  154.5465 H   0  0  0  0  0  0  0  0  0  0  0  0
  149.6020  131.2505  154.4543 H   0  0  0  0  0  0  0  0  0  0  0  0
  152.5158  129.5163  155.1306 H   0  0  0  0  0  0  0  0  0  0  0  0
  150.7685  129.2977  155.0526 H   0  0  0  0  0  0  0  0  0  0  0  0
  151.5731  129.3519  156.6196 H   0  0  0  0  0  0  0  0  0  0  0  0
  154.1133  132.2527  157.5820 H   0  0  0  0  0  0  0  0  0  0  0  0
  154.1327  130.9296  156.4181 H   0  0  0  0  0  0  0  0  0  0  0  0
  153.1565  130.8049  157.8898 H   0  0  0  0  0  0  0  0  0  0  0  0
  152.8222  134.1248  156.9540 H   0  0  0  0  0  0  0  0  0  0  0  0
  1  2  1  0  0  0  0
  1 26  1  0  0  0  0
  1 27  1  0  0  0  0
  1 28  1  0  0  0  0
  2  3  1  0  0  0  0
  2 29  1  0  0  0  0
  2 30  1  0  0  0  0
  3  4  1  0  0  0  0
  3 31  1  0  0  0  0
  3 32  1  0  0  0  0
  4 24  1  0  0  0  0
  4  5  1  0  0  0  0
  4 33  1  0  0  0  0
  5  6  1  0  0  0  0
  6  7  2  0  0  0  0
  6  8  1  0  0  0  0
  8  9  1  0  0  0  0
  8 24  1  0  0  0  0
  9 10  1  0  0  0  0
  9 34  1  0  0  0  0
  9 35  1  0  0  0  0
 10 11  1  0  0  0  0
 10 12  1  0  0  0  0
 10 36  1  0  0  0  0
 11 37  1  0  0  0  0
 12 13  1  0  0  0  0
 12 38  1  0  0  0  0
 12 39  1  0  0  0  0
 13 23  1  0  0  0  0
 13 14  1  0  0  0  0
 14 15  2  0  0  0  0
 14 40  1  0  0  0  0
 15 16  1  0  0  0  0
 16 23  2  0  0  0  0
 16 17  1  0  0  0  0
 17 18  2  0  0  0  0
 17 41  1  0  0  0  0
 18 19  1  0  0  0  0
 18 20  1  0  0  0  0
 19 42  1  0  0  0  0
 19 43  1  0  0  0  0
 19 44  1  0  0  0  0
 20 21  1  0  0  0  0
 20 22  2  0  0  0  0
 21 45  1  0  0  0  0
 21 46  1  0  0  0  0
 21 47  1  0  0  0  0
 22 23  1  0  0  0  0
 22 48  1  0  0  0  0
 24 25  2  0  0  0  0
M  CHG  1   5  -1
M  END
> <s_m_source_file>
AV-unprocessed.smi

> <i_m_source_file_index>
1644

> <i_lp_mmshare_version>
43012

> <i_f3d_flags>
0

> <s_epik_input>
W0NIM11bQ0gyXVtDSDJdW0NAQEhdMVtOSF1DKD1PKU4oQzE9TylbQ0gyXVtDQEhdKFtPSF0pW0NIMl1uKFtjSF1uMiljKGMyMylbY0hdYyhbQ0gzXSljKFtjSF0zKVtDSDNd

> <s_epik_cmdline>
J2VwaWtfcHl0aG9uJywgJy1waCcsICc3LjAnLCAnLXRuJywgJzgnLCAnLW1hJywgJzIwMCcsICctbWV0YWxfYmluZGluZycsICctaW1hZScsICc8aW5maWxlLm1hZT4nLCAnLW9tYWUnLCAnPG91dGZpbGUubWFlPic=

> <r_lp_tautomer_probability>
1

> <r_epik_Ionization_Penalty>
5.95212

> <r_epik_Ionization_Penalty_Charging>
5.84419

> <r_epik_Ionization_Penalty_Neutral>
0.107924

> <r_epik_State_Penalty>
5.94088

> <r_epik_Charging_Adjusted_Penalty>
11.7851

> <i_epik_Tot_Q>
-1

> <i_epik_Tot_abs_Q>
1

> <r_epik_Metal_State_Penalty>
1.99095

> <b_epik_Metal_Only>
1

> <s_lp_Force_Field>
OPLS_2005

> <r_lp_Energy>
19.6047

> <b_lp_Chiralities_Consistent>
1

> <s_lp_Variant>
AV-unprocessed.smi:1644-12

> <Gold.Version>
5.8.1

> <Gold.Id.Protein>
6NUR|6NUR_protein|mol2

> <Gold.PLP.Fitness>
56.8051

> <Gold.PLP.PLP>
-44.8538

> <Gold.PLP.part.hbond>
-3.9873

> <Gold.PLP.part.metal>
0.0000

> <Gold.PLP.part.buried>
-5.2201

> <Gold.PLP.part.nonpolar>
-36.3947

> <Gold.PLP.part.repulsive>
0.4246

> <Gold.PLP.ligand.clash>
0.0000

> <Gold.PLP.ligand.torsion>
0.4611

> <Gold.PLP.Chemscore.Hbond>
3.7920

> <Gold.PLP.Chemscore.CHOScore>
0.4673

> <Gold.PLP.Chemscore.Metal>
0.0000

> <Gold.Chemscore.Hbonds>
donor molecule, donor type, donor heavy atom, donor atom, acceptor molecule, acceptor atom, score
      L1  H    11    37       P1  7949  0.75
      P1  H  7989  7998       L1     7  0.99
      P1  H  7997  8010       L1    25  1.00
      P1  H 10752 10764       L1    11  1.00
      L1  C    14    40       P1  7948  0.33

> <Gold.PLP.Chemscore.Internal.Correction>
0.0956

> <Gold.Rescore>
     Score         DG    S(hbond)    S(metal)    S(lipo)     H(rot)  DE(clash)    DE(int)     intcor
     17.80     -19.79       2.73        0.00     102.46       2.65       0.51       1.48       ----

> <Gold.Chemscore.Fitness>
17.8033

> <Gold.Chemscore.DG>
-19.7945

> <Gold.Chemscore.ZeroCoef>
-5.4800

> <Gold.Chemscore.Hbond>
2.7267

> <Gold.Chemscore.Metal>
0.0000

> <Gold.Chemscore.Lipo>
102.4587

> <Gold.Chemscore.Internal_Hbond>
0.0000

> <Gold.Chemscore.DEClash>
0.5105

> <Gold.Chemscore.DEInternal>
1.4807

> <Gold.Chemscore.Rot>
2.6486

> <Gold.Chemscore.Internal.Correction>
   9.000000E+99

> <Gold.Chemscore.Hbonds>
donor molecule, donor type, donor heavy atom, donor atom, acceptor molecule, acceptor atom, score
      L1  H    11    37       P1  7949  0.54
      P1  H  7989  7998       L1     7  0.59
      P1  H  7997  8010       L1    25  0.48
      P1  H 10752 10764       L1    11  0.72

> <Gold.Chemscore.Hbond.Weighted>
-9.1073

> <Gold.Chemscore.Metal.Weighted>
-0.0000

> <Gold.Chemscore.Lipo.Weighted>
-11.9877

> <Gold.Chemscore.Internal_Hbond.Weighted>
0.0000

> <Gold.Chemscore.DEClash.Weighted>
0.5105

> <Gold.Chemscore.DEInternal.Weighted>
1.4807

> <Gold.Chemscore.Rot.Weighted>
6.7804

> <Gold.Chemscore.Internal.Correction.Weighted>
   9.000000E+99

> <Gold.Protein.RotatedTorsions>
[ 6907 6896 6895 6894 ] final    8.97 input  -60.11 | X-H torsion
[ 7974 7965 7964 7962 ] final  -68.11 input  175.53 | X-H torsion
[ 8008 7997 7996 7995 ] final   15.36 input   59.86 | X-H torsion
[ 10167 10162 10161 10158 ] final -136.36 input  -65.29 | X-H torsion
[ 10718 10713 10712 10709 ] final  -16.27 input   66.30 | X-H torsion
[ 10763 10752 10751 10750 ] final  -89.04 input  -60.55 | X-H torsion
[ 11005 11000 10999 10996 ] final  -59.03 input  -57.11 | X-H torsion

> <Gold.Protein.ActiveResidues>
 VAL166  LYS551  ARG553  GLY616  TRP617  ASP618  TYR619  PRO620  LYS621  CYS622 
 ASP623  PHE694  ASN695  SER759  ASP760  ASP761  ALA762  ILE779  LEU786  VAL792 
 PHE793  MET794  SER795  GLU796  ALA797  LYS798  CYS799  TRP800  GLU811  SER814 

> <Gold.Protein.RotatedAtoms>
  151.7146  135.0906  160.0273 H   0  0  0  0  0  0  0  0  0  0  0  0  # atno 6907 bound_to 6896
  152.3640  133.6329  159.6045 H   0  0  0  0  0  0  0  0  0  0  0  0  # atno 6908 bound_to 6896
  150.7625  133.9294  159.3463 H   0  0  0  0  0  0  0  0  0  0  0  0  # atno 6909 bound_to 6896
  145.7207  140.9040  143.0632 H   0  0  0  0  0  0  0  0  0  0  0  0  # atno 7974 bound_to 7965
  154.8616  140.2945  155.5536 H   0  0  0  0  0  0  0  0  0  0  0  0  # atno 8008 bound_to 7997
  156.3020  140.2477  156.3523 H   0  0  0  0  0  0  0  0  0  0  0  0  # atno 8009 bound_to 7997
  154.8912  140.0394  157.1829 H   0  0  0  0  0  0  0  0  0  0  0  0  # atno 8010 bound_to 7997
  139.8686  143.6986  152.2642 H   0  0  0  0  0  0  0  0  0  0  0  0  # atno 10167 bound_to 10162
  156.5900  130.4796  149.6283 H   0  0  0  0  0  0  0  0  0  0  0  0  # atno 10718 bound_to 10713
  154.6510  135.5355  153.7902 H   0  0  0  0  0  0  0  0  0  0  0  0  # atno 10763 bound_to 10752
  153.0386  135.6482  154.1016 H   0  0  0  0  0  0  0  0  0  0  0  0  # atno 10764 bound_to 10752
  154.0934  135.2938  155.3247 H   0  0  0  0  0  0  0  0  0  0  0  0  # atno 10765 bound_to 10752
  141.1232  133.6614  156.5010 H   0  0  0  0  0  0  0  0  0  0  0  0  # atno 11005 bound_to 11000
  144.6917  139.9198  143.7467 LP  0  0  0  0  0  0  0  0  0  0  0  0  # atno 17320 bound_to 7965
  146.0629  139.3621  143.0570 LP  0  0  0  0  0  0  0  0  0  0  0  0  # atno 17321 bound_to 7965
  139.7306  144.7583  151.0809 LP  0  0  0  0  0  0  0  0  0  0  0  0  # atno 17342 bound_to 10162
  140.7764  143.5093  150.9672 LP  0  0  0  0  0  0  0  0  0  0  0  0  # atno 17343 bound_to 10162
  156.2558  130.6934  151.1686 LP  0  0  0  0  0  0  0  0  0  0  0  0  # atno 17370 bound_to 10713
  157.7306  131.0615  150.5719 LP  0  0  0  0  0  0  0  0  0  0  0  0  # atno 17371 bound_to 10713
  140.4445  134.6985  157.5009 LP  0  0  0  0  0  0  0  0  0  0  0  0  # atno 17394 bound_to 11000
  140.0206  134.6552  155.9245 LP  0  0  0  0  0  0  0  0  0  0  0  0  # atno 17395 bound_to 11000

$$$$
