AV-unprocessed.smi:3287|AV-procd|sdf|12602|dock4
  -GOLD-   2272018533D 1   1.00000     0.00000
 Structure written by MMmdl.
 43 44  0  0  0  0  0  0  0  0  2 V2000
  152.2816  146.0448  160.4942 C   0  0  0  0  0  0  0  0  0  0  0  0
  151.5676  145.3113  159.3470 C   0  0  2  0  0  0  0  0  0  0  0  0
  150.2830  144.6080  159.8270 C   0  0  0  0  0  0  0  0  0  0  0  0
  149.5321  143.9527  158.6575 C   0  0  0  0  0  0  0  0  0  0  0  0
  150.4271  142.9679  157.8847 C   0  0  1  0  0  0  0  0  0  0  0  0
  149.6717  142.3942  156.7493 N   0  3  0  0  0  0  0  0  0  0  0  0
  150.4850  141.6644  155.7523 C   0  0  0  0  0  0  0  0  0  0  0  0
  149.6607  140.5764  155.0424 C   0  0  1  0  0  0  0  0  0  0  0  0
  149.5492  140.9104  153.6726 O   0  0  0  0  0  0  0  0  0  0  0  0
  150.2817  139.2020  155.2376 C   0  0  0  0  0  0  0  0  0  0  0  0
  149.6162  138.0320  154.8113 C   0  0  0  0  0  0  0  0  0  0  0  0
  150.2452  136.7872  155.0132 C   0  0  0  0  0  0  0  0  0  0  0  0
  151.4568  136.6548  155.5938 N   0  0  0  0  0  0  0  0  0  0  0  0
  152.0894  137.7765  155.9984 C   0  0  0  0  0  0  0  0  0  0  0  0
  151.5487  139.0689  155.8431 C   0  0  0  0  0  0  0  0  0  0  0  0
  151.7150  143.6778  157.4095 C   0  0  0  0  0  0  0  0  0  0  0  0
  152.4912  144.3397  158.5681 C   0  0  2  0  0  0  0  0  0  0  0  0
  153.1958  143.2908  159.4525 C   0  0  0  0  0  0  0  0  0  0  0  0
  152.5554  145.3656  161.3016 H   0  0  0  0  0  0  0  0  0  0  0  0
  151.6395  146.8153  160.9223 H   0  0  0  0  0  0  0  0  0  0  0  0
  153.1904  146.5346  160.1431 H   0  0  0  0  0  0  0  0  0  0  0  0
  151.2594  146.0837  158.6402 H   0  0  0  0  0  0  0  0  0  0  0  0
  150.5222  143.8558  160.5793 H   0  0  0  0  0  0  0  0  0  0  0  0
  149.6273  145.3287  160.3171 H   0  0  0  0  0  0  0  0  0  0  0  0
  148.6486  143.4369  159.0355 H   0  0  0  0  0  0  0  0  0  0  0  0
  149.1691  144.7300  157.9831 H   0  0  0  0  0  0  0  0  0  0  0  0
  150.6883  142.1508  158.5585 H   0  0  0  0  0  0  0  0  0  0  0  0
  149.0011  141.7398  157.1260 H   0  0  0  0  0  0  0  0  0  0  0  0
  150.8968  142.3587  155.0196 H   0  0  0  0  0  0  0  0  0  0  0  0
  151.3301  141.2034  156.2655 H   0  0  0  0  0  0  0  0  0  0  0  0
  148.6517  140.5610  155.4572 H   0  0  0  0  0  0  0  0  0  0  0  0
  149.1016  140.2058  153.2282 H   0  0  0  0  0  0  0  0  0  0  0  0
  148.6459  138.0815  154.3390 H   0  0  0  0  0  0  0  0  0  0  0  0
  149.7624  135.8739  154.6983 H   0  0  0  0  0  0  0  0  0  0  0  0
  153.0569  137.6408  156.4589 H   0  0  0  0  0  0  0  0  0  0  0  0
  152.0991  139.9338  156.1833 H   0  0  0  0  0  0  0  0  0  0  0  0
  152.3730  142.9817  156.8894 H   0  0  0  0  0  0  0  0  0  0  0  0
  151.4515  144.4431  156.6778 H   0  0  0  0  0  0  0  0  0  0  0  0
  153.2838  144.9374  158.1156 H   0  0  0  0  0  0  0  0  0  0  0  0
  152.4884  142.6748  160.0065 H   0  0  0  0  0  0  0  0  0  0  0  0
  153.8613  143.7611  160.1763 H   0  0  0  0  0  0  0  0  0  0  0  0
  153.8097  142.6222  158.8485 H   0  0  0  0  0  0  0  0  0  0  0  0
  149.1665  143.1345  156.2829 H   0  0  0  0  0  0  0  0  0  0  0  0
  1  2  1  0  0  0  0
  1 19  1  0  0  0  0
  1 20  1  0  0  0  0
  1 21  1  0  0  0  0
  2 17  1  0  0  0  0
  2  3  1  0  0  0  0
  2 22  1  0  0  0  0
  3  4  1  0  0  0  0
  3 23  1  0  0  0  0
  3 24  1  0  0  0  0
  4  5  1  0  0  0  0
  4 25  1  0  0  0  0
  4 26  1  0  0  0  0
  5  6  1  0  0  0  0
  5 16  1  0  0  0  0
  5 27  1  0  0  0  0
  6  7  1  0  0  0  0
  6 28  1  0  0  0  0
  6 43  1  0  0  0  0
  7  8  1  0  0  0  0
  7 29  1  0  0  0  0
  7 30  1  0  0  0  0
  8  9  1  0  0  0  0
  8 10  1  0  0  0  0
  8 31  1  0  0  0  0
  9 32  1  0  0  0  0
 10 15  1  0  0  0  0
 10 11  2  0  0  0  0
 11 12  1  0  0  0  0
 11 33  1  0  0  0  0
 12 13  2  0  0  0  0
 12 34  1  0  0  0  0
 13 14  1  0  0  0  0
 14 15  2  0  0  0  0
 14 35  1  0  0  0  0
 15 36  1  0  0  0  0
 16 17  1  0  0  0  0
 16 37  1  0  0  0  0
 16 38  1  0  0  0  0
 17 18  1  0  0  0  0
 17 39  1  0  0  0  0
 18 40  1  0  0  0  0
 18 41  1  0  0  0  0
 18 42  1  0  0  0  0
M  CHG  1   6   1
M  END
> <s_m_source_file>
AV-unprocessed.smi

> <i_m_source_file_index>
3287

> <i_lp_mmshare_version>
43012

> <i_f3d_flags>
0

> <s_epik_input>
W0NIM11bQ0BASF0xW0NIMl1bQ0gyXVtDQEhdKFtDSDJdW0NASF0xW0NIM10pW05IXVtDSDJdW0NASF0oW09IXSljMltjSF1bY0hdbltjSF1bY0hdMg==

> <s_epik_cmdline>
J2VwaWtfcHl0aG9uJywgJy1waCcsICc3LjAnLCAnLXRuJywgJzgnLCAnLW1hJywgJzIwMCcsICctbWV0YWxfYmluZGluZycsICctaW1hZScsICc8aW5maWxlLm1hZT4nLCAnLW9tYWUnLCAnPG91dGZpbGUubWFlPic=

> <r_lp_tautomer_probability>
1

> <r_epik_Ionization_Penalty>
0.00537262

> <r_epik_Ionization_Penalty_Charging>
0.00321624

> <r_epik_Ionization_Penalty_Neutral>
0.00215638

> <r_epik_State_Penalty>
-0

> <r_epik_Charging_Adjusted_Penalty>
0.00321624

> <i_epik_Tot_Q>
1

> <i_epik_Tot_abs_Q>
1

> <r_epik_Metal_State_Penalty>
-0

> <b_epik_Metal_Only>
0

> <s_lp_Force_Field>
OPLS_2005

> <r_lp_Energy>
17.6896

> <b_lp_Chiralities_Consistent>
1

> <s_lp_Variant>
AV-unprocessed.smi:3287-13

> <Gold.Version>
5.8.1

> <Gold.Id.Protein>
6NUR|6NUR_protein|mol2

> <Gold.PLP.Fitness>
55.0683

> <Gold.PLP.PLP>
-42.4820

> <Gold.PLP.part.hbond>
-5.0000

> <Gold.PLP.part.metal>
0.0000

> <Gold.PLP.part.buried>
0.2260

> <Gold.PLP.part.nonpolar>
-37.7690

> <Gold.PLP.part.repulsive>
0.1330

> <Gold.PLP.ligand.clash>
0.0000

> <Gold.PLP.ligand.torsion>
1.1025

> <Gold.PLP.Chemscore.Hbond>
4.4048

> <Gold.PLP.Chemscore.CHOScore>
0.5212

> <Gold.PLP.Chemscore.Metal>
0.0000

> <Gold.Chemscore.Hbonds>
donor molecule, donor type, donor heavy atom, donor atom, acceptor molecule, acceptor atom, score
      L1  H     6    43       P1  8028  2.00
      L1  H     9    32       P1  7957  0.20
      P1  H  7989  7998       L1     9  0.19
      P1  H  8011  8017       L1     9  1.00
      P1  H 10752 10764       L1    13  0.89

> <Gold.PLP.Chemscore.Internal.Correction>
0.0133

> <Gold.Rescore>
     Score         DG    S(hbond)    S(metal)    S(lipo)     H(rot)  DE(clash)    DE(int)     intcor
     23.85     -25.81       2.94        0.00     131.32       1.90       1.04       0.92       ----

> <Gold.Chemscore.Fitness>
23.8480

> <Gold.Chemscore.DG>
-25.8061

> <Gold.Chemscore.ZeroCoef>
-5.4800

> <Gold.Chemscore.Hbond>
2.9446

> <Gold.Chemscore.Metal>
0.0000

> <Gold.Chemscore.Lipo>
131.3154

> <Gold.Chemscore.Internal_Hbond>
0.0000

> <Gold.Chemscore.DEClash>
1.0416

> <Gold.Chemscore.DEInternal>
0.9165

> <Gold.Chemscore.Rot>
1.9035

> <Gold.Chemscore.Internal.Correction>
   9.000000E+99

> <Gold.Chemscore.Hbonds>
donor molecule, donor type, donor heavy atom, donor atom, acceptor molecule, acceptor atom, score
      L1  H     6    43       P1  8028  0.99
      L1  H     9    32       P1  7957  0.20
      P1  H  7989  7998       L1     9  0.01
      P1  H  8011  8017       L1     9  0.54
      P1  H 10752 10764       L1    13  0.33

> <Gold.Chemscore.Hbond.Weighted>
-9.8350

> <Gold.Chemscore.Metal.Weighted>
-0.0000

> <Gold.Chemscore.Lipo.Weighted>
-15.3639

> <Gold.Chemscore.Internal_Hbond.Weighted>
0.0000

> <Gold.Chemscore.DEClash.Weighted>
1.0416

> <Gold.Chemscore.DEInternal.Weighted>
0.9165

> <Gold.Chemscore.Rot.Weighted>
4.8729

> <Gold.Chemscore.Internal.Correction.Weighted>
   9.000000E+99

> <Gold.Protein.RotatedTorsions>
[ 6907 6896 6895 6894 ] final   34.24 input  -60.11 | X-H torsion
[ 7974 7965 7964 7962 ] final  -74.71 input  175.53 | X-H torsion
[ 8008 7997 7996 7995 ] final    6.83 input   59.86 | X-H torsion
[ 10167 10162 10161 10158 ] final   77.16 input  -65.29 | X-H torsion
[ 10718 10713 10712 10709 ] final  121.97 input   66.30 | X-H torsion
[ 10763 10752 10751 10750 ] final  -59.55 input  -60.55 | X-H torsion
[ 11005 11000 10999 10996 ] final  174.19 input  -57.11 | X-H torsion

> <Gold.Protein.ActiveResidues>
 VAL166  LYS551  ARG553  GLY616  TRP617  ASP618  TYR619  PRO620  LYS621  CYS622 
 ASP623  PHE694  ASN695  SER759  ASP760  ASP761  ALA762  ILE779  LEU786  VAL792 
 PHE793  MET794  SER795  GLU796  ALA797  LYS798  CYS799  TRP800  GLU811  SER814 

> <Gold.Protein.RotatedAtoms>
  152.0996  134.9351  160.0569 H   0  0  0  0  0  0  0  0  0  0  0  0  # atno 6907 bound_to 6896
  152.0570  133.4040  159.4410 H   0  0  0  0  0  0  0  0  0  0  0  0  # atno 6908 bound_to 6896
  150.6839  134.3163  159.4811 H   0  0  0  0  0  0  0  0  0  0  0  0  # atno 6909 bound_to 6896
  145.6356  140.9325  143.1063 H   0  0  0  0  0  0  0  0  0  0  0  0  # atno 7974 bound_to 7965
  154.7461  140.2758  155.6332 H   0  0  0  0  0  0  0  0  0  0  0  0  # atno 8008 bound_to 7997
  156.2885  140.2687  156.2128 H   0  0  0  0  0  0  0  0  0  0  0  0  # atno 8009 bound_to 7997
  155.0196  140.0371  157.2422 H   0  0  0  0  0  0  0  0  0  0  0  0  # atno 8010 bound_to 7997
  139.9846  144.5802  150.7871 H   0  0  0  0  0  0  0  0  0  0  0  0  # atno 10167 bound_to 10162
  157.5777  131.1078  150.8246 H   0  0  0  0  0  0  0  0  0  0  0  0  # atno 10718 bound_to 10713
  154.2555  135.6318  153.5255 H   0  0  0  0  0  0  0  0  0  0  0  0  # atno 10763 bound_to 10752
  152.9905  135.5575  154.5761 H   0  0  0  0  0  0  0  0  0  0  0  0  # atno 10764 bound_to 10752
  154.5298  135.2887  155.1164 H   0  0  0  0  0  0  0  0  0  0  0  0  # atno 10765 bound_to 10752
  140.3486  134.7214  157.4252 H   0  0  0  0  0  0  0  0  0  0  0  0  # atno 11005 bound_to 11000
  144.7177  139.8139  143.7393 LP  0  0  0  0  0  0  0  0  0  0  0  0  # atno 17320 bound_to 7965
  146.1322  139.4360  143.0161 LP  0  0  0  0  0  0  0  0  0  0  0  0  # atno 17321 bound_to 7965
  140.7477  143.2910  151.3330 LP  0  0  0  0  0  0  0  0  0  0  0  0  # atno 17342 bound_to 10162
  139.6385  144.0585  152.2535 LP  0  0  0  0  0  0  0  0  0  0  0  0  # atno 17343 bound_to 10162
  156.8701  130.5143  149.5297 LP  0  0  0  0  0  0  0  0  0  0  0  0  # atno 17370 bound_to 10713
  156.0822  130.5830  150.9584 LP  0  0  0  0  0  0  0  0  0  0  0  0  # atno 17371 bound_to 10713
  140.0721  134.5848  155.8630 LP  0  0  0  0  0  0  0  0  0  0  0  0  # atno 17394 bound_to 11000
  141.2018  133.6621  156.5972 LP  0  0  0  0  0  0  0  0  0  0  0  0  # atno 17395 bound_to 11000

$$$$
