AV-unprocessed.smi:2900|AV-procd|sdf|11148|dock1
  -GOLD-   2272016 23D 1   1.00000     0.00000
 Structure written by MMmdl.
 35 36  0  0  0  0  0  0  0  0  1 V2000
  150.6199  139.8160  154.3212 O   0  0  0  0  0  0  0  0  0  0  0  0
  149.6419  140.3418  154.8513 C   0  0  0  0  0  0  0  0  0  0  0  0
  148.7227  141.2255  154.1384 C   0  0  0  0  0  0  0  0  0  0  0  0
  147.6621  141.7920  154.7524 C   0  0  0  0  0  0  0  0  0  0  0  0
  147.4228  141.5235  156.1603 C   0  0  0  0  0  0  0  0  0  0  0  0
  146.2676  142.1068  156.9360 C   0  0  0  0  0  0  0  0  0  0  0  0
  145.5197  142.8951  156.1635 F   0  0  0  0  0  0  0  0  0  0  0  0
  145.4977  141.1285  157.4137 F   0  0  0  0  0  0  0  0  0  0  0  0
  146.7214  142.8270  157.9624 F   0  0  0  0  0  0  0  0  0  0  0  0
  148.2344  140.7427  156.7977 N   0  0  0  0  0  0  0  0  0  0  0  0
  149.3138  140.1518  156.1625 N   0  0  0  0  0  0  0  0  0  0  0  0
  150.1188  139.2818  157.0300 C   0  0  0  0  0  0  0  0  0  0  0  0
  150.7704  140.0409  158.2082 C   0  0  1  0  0  0  0  0  0  0  0  0
  151.3402  139.0716  159.0638 O   0  0  0  0  0  0  0  0  0  0  0  0
  151.8819  141.0130  157.7739 C   0  0  0  0  0  0  0  0  0  0  0  0
  152.5520  141.4900  158.9329 O   0  0  0  0  0  0  0  0  0  0  0  0
  152.3357  142.7949  159.3208 C   0  0  0  0  0  0  0  0  0  0  0  0
  152.4279  143.0753  160.6999 C   0  0  0  0  0  0  0  0  0  0  0  0
  152.2217  144.3808  161.1861 C   0  0  0  0  0  0  0  0  0  0  0  0
  151.9183  145.4244  160.2927 C   0  0  0  0  0  0  0  0  0  0  0  0
  151.8222  145.1591  158.9142 C   0  0  0  0  0  0  0  0  0  0  0  0
  152.0295  143.8534  158.4277 C   0  0  0  0  0  0  0  0  0  0  0  0
  148.8971  141.4284  153.0919 H   0  0  0  0  0  0  0  0  0  0  0  0
  146.9957  142.4413  154.2046 H   0  0  0  0  0  0  0  0  0  0  0  0
  149.4861  138.4780  157.4111 H   0  0  0  0  0  0  0  0  0  0  0  0
  150.8938  138.7818  156.4450 H   0  0  0  0  0  0  0  0  0  0  0  0
  150.0039  140.5815  158.7643 H   0  0  0  0  0  0  0  0  0  0  0  0
  150.6913  138.4053  159.2323 H   0  0  0  0  0  0  0  0  0  0  0  0
  152.5716  140.5292  157.0797 H   0  0  0  0  0  0  0  0  0  0  0  0
  151.4437  141.8714  157.2647 H   0  0  0  0  0  0  0  0  0  0  0  0
  152.6606  142.2803  161.3930 H   0  0  0  0  0  0  0  0  0  0  0  0
  152.2966  144.5807  162.2450 H   0  0  0  0  0  0  0  0  0  0  0  0
  151.7592  146.4260  160.6639 H   0  0  0  0  0  0  0  0  0  0  0  0
  151.5887  145.9589  158.2270 H   0  0  0  0  0  0  0  0  0  0  0  0
  151.9469  143.6907  157.3639 H   0  0  0  0  0  0  0  0  0  0  0  0
  1  2  2  0  0  0  0
  2 11  1  0  0  0  0
  2  3  1  0  0  0  0
  3  4  2  0  0  0  0
  3 23  1  0  0  0  0
  4  5  1  0  0  0  0
  4 24  1  0  0  0  0
  5  6  1  0  0  0  0
  5 10  2  0  0  0  0
  6  7  1  0  0  0  0
  6  8  1  0  0  0  0
  6  9  1  0  0  0  0
 10 11  1  0  0  0  0
 11 12  1  0  0  0  0
 12 13  1  0  0  0  0
 12 25  1  0  0  0  0
 12 26  1  0  0  0  0
 13 14  1  0  0  0  0
 13 15  1  0  0  0  0
 13 27  1  0  0  0  0
 14 28  1  0  0  0  0
 15 16  1  0  0  0  0
 15 29  1  0  0  0  0
 15 30  1  0  0  0  0
 16 17  1  0  0  0  0
 17 22  1  0  0  0  0
 17 18  2  0  0  0  0
 18 19  1  0  0  0  0
 18 31  1  0  0  0  0
 19 20  2  0  0  0  0
 19 32  1  0  0  0  0
 20 21  1  0  0  0  0
 20 33  1  0  0  0  0
 21 22  2  0  0  0  0
 21 34  1  0  0  0  0
 22 35  1  0  0  0  0
M  END
> <s_m_source_file>
AV-unprocessed.smi

> <i_m_source_file_index>
2900

> <i_lp_mmshare_version>
43012

> <i_f3d_flags>
0

> <s_epik_input>
Tz1jMVtjSF1bY0hdYyhDKEYpKEYpRilubjFbQ0gyXVtDQEhdKFtPSF0pW0NIMl1PYzJbY0hdW2NIXVtjSF1bY0hdW2NIXTI=

> <s_epik_cmdline>
J2VwaWtfcHl0aG9uJywgJy1waCcsICc3LjAnLCAnLXRuJywgJzgnLCAnLW1hJywgJzIwMCcsICctbWV0YWxfYmluZGluZycsICctaW1hZScsICc8aW5maWxlLm1hZT4nLCAnLW9tYWUnLCAnPG91dGZpbGUubWFlPic=

> <r_lp_tautomer_probability>
1

> <r_epik_Ionization_Penalty>
1.22578e-07

> <r_epik_Ionization_Penalty_Charging>
5.40425e-09

> <r_epik_Ionization_Penalty_Neutral>
1.17174e-07

> <r_epik_State_Penalty>
-0

> <r_epik_Charging_Adjusted_Penalty>
5.40425e-09

> <i_epik_Tot_Q>
0

> <i_epik_Tot_abs_Q>
0

> <r_epik_Metal_State_Penalty>
-0

> <b_epik_Metal_Only>
0

> <s_lp_Force_Field>
OPLS_2005

> <r_lp_Energy>
32.4131

> <b_lp_Chiralities_Consistent>
1

> <s_lp_Variant>
AV-unprocessed.smi:2900-2

> <Gold.Version>
5.8.1

> <Gold.Id.Protein>
6NUR|6NUR_protein|mol2

> <Gold.PLP.Fitness>
44.8412

> <Gold.PLP.PLP>
-43.3587

> <Gold.PLP.part.hbond>
-1.0000

> <Gold.PLP.part.metal>
0.0000

> <Gold.PLP.part.buried>
-5.7619

> <Gold.PLP.part.nonpolar>
-36.7446

> <Gold.PLP.part.repulsive>
0.1750

> <Gold.PLP.ligand.clash>
0.0000

> <Gold.PLP.ligand.torsion>
0.7964

> <Gold.PLP.Chemscore.Hbond>
1.0000

> <Gold.PLP.Chemscore.CHOScore>
0.0000

> <Gold.PLP.Chemscore.Metal>
0.0000

> <Gold.Chemscore.Hbonds>
donor molecule, donor type, donor heavy atom, donor atom, acceptor molecule, acceptor atom, score
      P1  H  7989  7998       L1     1  1.00

> <Gold.PLP.Chemscore.Internal.Correction>
0.0753

> <Gold.Rescore>
     Score         DG    S(hbond)    S(metal)    S(lipo)     H(rot)  DE(clash)    DE(int)     intcor
     13.57     -14.42       0.98        0.00     106.09       2.63       0.08       0.78       ----

> <Gold.Chemscore.Fitness>
13.5719

> <Gold.Chemscore.DG>
-14.4229

> <Gold.Chemscore.ZeroCoef>
-5.4800

> <Gold.Chemscore.Hbond>
0.9798

> <Gold.Chemscore.Metal>
0.0000

> <Gold.Chemscore.Lipo>
106.0877

> <Gold.Chemscore.Internal_Hbond>
0.0000

> <Gold.Chemscore.DEClash>
0.0756

> <Gold.Chemscore.DEInternal>
0.7753

> <Gold.Chemscore.Rot>
2.6336

> <Gold.Chemscore.Internal.Correction>
   9.000000E+99

> <Gold.Chemscore.Hbonds>
donor molecule, donor type, donor heavy atom, donor atom, acceptor molecule, acceptor atom, score
      P1  H  7989  7998       L1     1  0.90

> <Gold.Chemscore.Hbond.Weighted>
-3.2726

> <Gold.Chemscore.Metal.Weighted>
-0.0000

> <Gold.Chemscore.Lipo.Weighted>
-12.4123

> <Gold.Chemscore.Internal_Hbond.Weighted>
0.0000

> <Gold.Chemscore.DEClash.Weighted>
0.0756

> <Gold.Chemscore.DEInternal.Weighted>
0.7753

> <Gold.Chemscore.Rot.Weighted>
6.7420

> <Gold.Chemscore.Internal.Correction.Weighted>
   9.000000E+99

> <Gold.Protein.RotatedTorsions>
[ 6907 6896 6895 6894 ] final -114.36 input  -60.11 | X-H torsion
[ 7974 7965 7964 7962 ] final -144.43 input  175.53 | X-H torsion
[ 8008 7997 7996 7995 ] final -172.52 input   59.86 | X-H torsion
[ 10167 10162 10161 10158 ] final  144.50 input  -65.29 | X-H torsion
[ 10718 10713 10712 10709 ] final  -62.15 input   66.30 | X-H torsion
[ 10763 10752 10751 10750 ] final   67.08 input  -60.55 | X-H torsion
[ 11005 11000 10999 10996 ] final  -73.19 input  -57.11 | X-H torsion

> <Gold.Protein.ActiveResidues>
 VAL166  LYS551  ARG553  GLY616  TRP617  ASP618  TYR619  PRO620  LYS621  CYS622 
 ASP623  PHE694  ASN695  SER759  ASP760  ASP761  ALA762  ILE779  LEU786  VAL792 
 PHE793  MET794  SER795  GLU796  ALA797  LYS798  CYS799  TRP800  GLU811  SER814 

> <Gold.Protein.RotatedAtoms>
  150.7897  133.8811  159.3286 H   0  0  0  0  0  0  0  0  0  0  0  0  # atno 6907 bound_to 6896
  151.6653  135.0982  160.0197 H   0  0  0  0  0  0  0  0  0  0  0  0  # atno 6908 bound_to 6896
  152.3968  133.6720  159.6318 H   0  0  0  0  0  0  0  0  0  0  0  0  # atno 6909 bound_to 6896
  144.8298  140.5711  143.5523 H   0  0  0  0  0  0  0  0  0  0  0  0  # atno 7974 bound_to 7965
  155.9456  140.1116  157.1020 H   0  0  0  0  0  0  0  0  0  0  0  0  # atno 8008 bound_to 7997
  154.4098  140.1210  156.5050 H   0  0  0  0  0  0  0  0  0  0  0  0  # atno 8009 bound_to 7997
  155.6907  140.3472  155.4895 H   0  0  0  0  0  0  0  0  0  0  0  0  # atno 8010 bound_to 7997
  139.4945  144.5967  151.6567 H   0  0  0  0  0  0  0  0  0  0  0  0  # atno 10167 bound_to 10162
  156.0874  130.4206  150.1094 H   0  0  0  0  0  0  0  0  0  0  0  0  # atno 10718 bound_to 10713
  153.0169  135.5297  154.6924 H   0  0  0  0  0  0  0  0  0  0  0  0  # atno 10763 bound_to 10752
  154.6055  135.2872  155.0491 H   0  0  0  0  0  0  0  0  0  0  0  0  # atno 10764 bound_to 10752
  154.1532  135.6559  153.5021 H   0  0  0  0  0  0  0  0  0  0  0  0  # atno 10765 bound_to 10752
  141.1619  133.6870  156.7174 H   0  0  0  0  0  0  0  0  0  0  0  0  # atno 11005 bound_to 11000
  145.4921  139.1488  143.3704 LP  0  0  0  0  0  0  0  0  0  0  0  0  # atno 17320 bound_to 7965
  146.2601  140.5059  142.8857 LP  0  0  0  0  0  0  0  0  0  0  0  0  # atno 17321 bound_to 7965
  140.5607  144.0273  150.6168 LP  0  0  0  0  0  0  0  0  0  0  0  0  # atno 17342 bound_to 10162
  140.3358  143.3049  152.0640 LP  0  0  0  0  0  0  0  0  0  0  0  0  # atno 17343 bound_to 10162
  156.9112  130.9652  151.3563 LP  0  0  0  0  0  0  0  0  0  0  0  0  # atno 17370 bound_to 10713
  157.6013  130.8515  149.8807 LP  0  0  0  0  0  0  0  0  0  0  0  0  # atno 17371 bound_to 10713
  140.2842  134.8292  157.3960 LP  0  0  0  0  0  0  0  0  0  0  0  0  # atno 17394 bound_to 11000
  140.1406  134.4977  155.8035 LP  0  0  0  0  0  0  0  0  0  0  0  0  # atno 17395 bound_to 11000

$$$$
