AV-unprocessed.smi:1856|AV-procd|sdf|7539|dock4
  -GOLD-   22720 9253D 1   1.00000     0.00000
 Structure written by MMmdl.
 45 46  0  0  0  0  0  0  0  0  2 V2000
  144.8066  133.0920  150.5479 C   0  0  0  0  0  0  0  0  0  0  0  0
  144.8681  134.6146  150.7109 C   0  0  0  0  0  0  0  0  0  0  0  0
  145.6982  135.0409  151.9348 C   0  0  0  0  0  0  0  0  0  0  0  0
  145.5371  136.5253  152.2761 C   0  0  0  0  0  0  0  0  0  0  0  0
  144.4180  137.0117  152.4406 O   0  0  0  0  0  0  0  0  0  0  0  0
  146.6696  137.2386  152.3792 N   0  0  0  0  0  0  0  0  0  0  0  0
  146.7397  138.6626  152.6929 C   0  0  2  0  0  0  0  0  0  0  0  0
  146.6408  139.4816  151.3981 C   0  0  0  0  0  0  0  0  0  0  0  0
  147.9914  139.0067  153.4480 C   0  0  0  0  0  0  0  0  0  0  0  0
  149.1888  138.3660  153.3241 N   0  3  0  0  0  0  0  0  0  0  0  0
  150.1188  138.9226  154.2000 C   0  0  0  0  0  0  0  0  0  0  0  0
  151.4537  138.6044  154.4294 C   0  0  0  0  0  0  0  0  0  0  0  0
  152.1280  139.3682  155.4039 C   0  0  0  0  0  0  0  0  0  0  0  0
  151.4745  140.4000  156.1076 C   0  0  0  0  0  0  0  0  0  0  0  0
  150.1202  140.7117  155.8669 C   0  0  0  0  0  0  0  0  0  0  0  0
  149.4594  139.9544  154.8985 C   0  0  0  0  0  0  0  0  0  0  0  0
  148.1502  139.9774  154.3976 N   0  0  0  0  0  0  0  0  0  0  0  0
  147.1861  140.9560  154.9371 C   0  0  0  0  0  0  0  0  0  0  0  0
  147.0866  142.2653  154.1213 C   0  0  1  0  0  0  0  0  0  0  0  0
  145.9747  143.2197  154.5821 C   0  0  0  0  0  0  0  0  0  0  0  0
  148.3120  142.9651  154.1745 O   0  0  0  0  0  0  0  0  0  0  0  0
  144.2121  132.8185  149.6758 H   0  0  0  0  0  0  0  0  0  0  0  0
  144.3544  132.6189  151.4201 H   0  0  0  0  0  0  0  0  0  0  0  0
  145.8033  132.6703  150.4161 H   0  0  0  0  0  0  0  0  0  0  0  0
  145.2896  135.0493  149.8034 H   0  0  0  0  0  0  0  0  0  0  0  0
  143.8535  135.0053  150.7984 H   0  0  0  0  0  0  0  0  0  0  0  0
  145.4097  134.4381  152.7974 H   0  0  0  0  0  0  0  0  0  0  0  0
  146.7556  134.8423  151.7554 H   0  0  0  0  0  0  0  0  0  0  0  0
  147.5457  136.7619  152.2219 H   0  0  0  0  0  0  0  0  0  0  0  0
  145.8733  138.9094  153.3065 H   0  0  0  0  0  0  0  0  0  0  0  0
  146.6538  140.5511  151.6107 H   0  0  0  0  0  0  0  0  0  0  0  0
  145.7140  139.2644  150.8664 H   0  0  0  0  0  0  0  0  0  0  0  0
  147.4693  139.2673  150.7221 H   0  0  0  0  0  0  0  0  0  0  0  0
  151.9551  137.8126  153.8925 H   0  0  0  0  0  0  0  0  0  0  0  0
  153.1663  139.1579  155.6167 H   0  0  0  0  0  0  0  0  0  0  0  0
  152.0226  140.9647  156.8480 H   0  0  0  0  0  0  0  0  0  0  0  0
  149.6345  141.5057  156.4137 H   0  0  0  0  0  0  0  0  0  0  0  0
  146.2121  140.4684  154.9842 H   0  0  0  0  0  0  0  0  0  0  0  0
  147.4459  141.1741  155.9725 H   0  0  0  0  0  0  0  0  0  0  0  0
  146.9089  142.0066  153.0771 H   0  0  0  0  0  0  0  0  0  0  0  0
  145.0000  142.7340  154.5401 H   0  0  0  0  0  0  0  0  0  0  0  0
  145.9272  144.1006  153.9410 H   0  0  0  0  0  0  0  0  0  0  0  0
  146.1348  143.5663  155.6034 H   0  0  0  0  0  0  0  0  0  0  0  0
  148.5920  143.0111  155.0760 H   0  0  0  0  0  0  0  0  0  0  0  0
  149.3512  137.5960  152.6881 H   0  0  0  0  0  0  0  0  0  0  0  0
  1  2  1  0  0  0  0
  1 22  1  0  0  0  0
  1 23  1  0  0  0  0
  1 24  1  0  0  0  0
  2  3  1  0  0  0  0
  2 25  1  0  0  0  0
  2 26  1  0  0  0  0
  3  4  1  0  0  0  0
  3 27  1  0  0  0  0
  3 28  1  0  0  0  0
  4  5  2  0  0  0  0
  4  6  1  0  0  0  0
  6  7  1  0  0  0  0
  6 29  1  0  0  0  0
  7  8  1  0  0  0  0
  7  9  1  0  0  0  0
  7 30  1  0  0  0  0
  8 31  1  0  0  0  0
  8 32  1  0  0  0  0
  8 33  1  0  0  0  0
  9 17  1  0  0  0  0
  9 10  2  0  0  0  0
 10 11  1  0  0  0  0
 10 45  1  0  0  0  0
 11 16  2  0  0  0  0
 11 12  1  0  0  0  0
 12 13  2  0  0  0  0
 12 34  1  0  0  0  0
 13 14  1  0  0  0  0
 13 35  1  0  0  0  0
 14 15  2  0  0  0  0
 14 36  1  0  0  0  0
 15 16  1  0  0  0  0
 15 37  1  0  0  0  0
 16 17  1  0  0  0  0
 17 18  1  0  0  0  0
 18 19  1  0  0  0  0
 18 38  1  0  0  0  0
 18 39  1  0  0  0  0
 19 20  1  0  0  0  0
 19 21  1  0  0  0  0
 19 40  1  0  0  0  0
 20 41  1  0  0  0  0
 20 42  1  0  0  0  0
 20 43  1  0  0  0  0
 21 44  1  0  0  0  0
M  CHG  1  10   1
M  END
> <s_m_source_file>
AV-unprocessed.smi

> <i_m_source_file_index>
1856

> <i_lp_mmshare_version>
43012

> <i_f3d_flags>
0

> <s_epik_input>
W0NIM11bQ0gyXVtDSDJdQyg9TylbTkhdW0NASF0oW0NIM10pYyhuMSluKFtDSDJdW0NASF0oW0NIM10pW09IXSljKGMxMilbY0hdW2NIXVtjSF1bY0hdMg==

> <s_epik_cmdline>
J2VwaWtfcHl0aG9uJywgJy1waCcsICc3LjAnLCAnLXRuJywgJzgnLCAnLW1hJywgJzIwMCcsICctbWV0YWxfYmluZGluZycsICctaW1hZScsICc8aW5maWxlLm1hZT4nLCAnLW9tYWUnLCAnPG91dGZpbGUubWFlPic=

> <r_epik_Ionization_Penalty>
0.945588

> <r_epik_Ionization_Penalty_Charging>
0.945588

> <r_epik_Ionization_Penalty_Neutral>
8.64698e-08

> <r_epik_State_Penalty>
0.989378

> <r_epik_Charging_Adjusted_Penalty>
1.93497

> <i_epik_Tot_Q>
1

> <i_epik_Tot_abs_Q>
1

> <r_epik_Metal_State_Penalty>
1.10045

> <b_epik_Metal_Only>
0

> <s_lp_Force_Field>
OPLS_2005

> <r_lp_Energy>
7.08732

> <b_lp_Chiralities_Consistent>
1

> <s_lp_Variant>
AV-unprocessed.smi:1856-7

> <Gold.Version>
5.8.1

> <Gold.Id.Protein>
6NUR|6NUR_protein|mol2

> <Gold.PLP.Fitness>
54.8575

> <Gold.PLP.PLP>
-45.0836

> <Gold.PLP.part.hbond>
-5.4404

> <Gold.PLP.part.metal>
0.0000

> <Gold.PLP.part.buried>
-1.5422

> <Gold.PLP.part.nonpolar>
-39.1443

> <Gold.PLP.part.repulsive>
0.3200

> <Gold.PLP.ligand.clash>
0.0000

> <Gold.PLP.ligand.torsion>
1.5687

> <Gold.PLP.Chemscore.Hbond>
4.2880

> <Gold.PLP.Chemscore.CHOScore>
0.0000

> <Gold.PLP.Chemscore.Metal>
0.0000

> <Gold.Chemscore.Hbonds>
donor molecule, donor type, donor heavy atom, donor atom, acceptor molecule, acceptor atom, score
      L1  H     6    29       P1  7948  1.00
      L1  H    10    45       P1  7948  2.00
      L1  H    21    44       P1  8028  0.24
      P1  H  8022  8030       L1    21  1.00

> <Gold.PLP.Chemscore.Internal.Correction>
0.0474

> <Gold.Rescore>
     Score         DG    S(hbond)    S(metal)    S(lipo)     H(rot)  DE(clash)    DE(int)     intcor
     17.11     -19.58       2.83        0.00      94.63       2.52       0.79       1.68       ----

> <Gold.Chemscore.Fitness>
17.1120

> <Gold.Chemscore.DG>
-19.5789

> <Gold.Chemscore.ZeroCoef>
-5.4800

> <Gold.Chemscore.Hbond>
2.8350

> <Gold.Chemscore.Metal>
0.0000

> <Gold.Chemscore.Lipo>
94.6259

> <Gold.Chemscore.Internal_Hbond>
0.0000

> <Gold.Chemscore.DEClash>
0.7853

> <Gold.Chemscore.DEInternal>
1.6815

> <Gold.Chemscore.Rot>
2.5161

> <Gold.Chemscore.Internal.Correction>
   9.000000E+99

> <Gold.Chemscore.Hbonds>
donor molecule, donor type, donor heavy atom, donor atom, acceptor molecule, acceptor atom, score
      L1  H     6    29       P1  7948  0.93
      L1  H    10    45       P1  7948  0.86
      L1  H    21    44       P1  8028  0.24
      P1  H  8022  8030       L1    21  0.29

> <Gold.Chemscore.Hbond.Weighted>
-9.4688

> <Gold.Chemscore.Metal.Weighted>
-0.0000

> <Gold.Chemscore.Lipo.Weighted>
-11.0712

> <Gold.Chemscore.Internal_Hbond.Weighted>
0.0000

> <Gold.Chemscore.DEClash.Weighted>
0.7853

> <Gold.Chemscore.DEInternal.Weighted>
1.6815

> <Gold.Chemscore.Rot.Weighted>
6.4412

> <Gold.Chemscore.Internal.Correction.Weighted>
   9.000000E+99

> <Gold.Protein.RotatedTorsions>
[ 6907 6896 6895 6894 ] final  -52.46 input  -60.11 | X-H torsion
[ 7974 7965 7964 7962 ] final   43.93 input  175.53 | X-H torsion
[ 8008 7997 7996 7995 ] final  -67.32 input   59.86 | X-H torsion
[ 10167 10162 10161 10158 ] final -117.81 input  -65.29 | X-H torsion
[ 10718 10713 10712 10709 ] final   75.90 input   66.30 | X-H torsion
[ 10763 10752 10751 10750 ] final -130.66 input  -60.55 | X-H torsion
[ 11005 11000 10999 10996 ] final  125.12 input  -57.11 | X-H torsion

> <Gold.Protein.ActiveResidues>
 VAL166  LYS551  ARG553  GLY616  TRP617  ASP618  TYR619  PRO620  LYS621  CYS622 
 ASP623  PHE694  ASN695  SER759  ASP760  ASP761  ALA762  ILE779  LEU786  VAL792 
 PHE793  MET794  SER795  GLU796  ALA797  LYS798  CYS799  TRP800  GLU811  SER814 

> <Gold.Protein.RotatedAtoms>
  150.8516  134.7842  159.7012 H   0  0  0  0  0  0  0  0  0  0  0  0  # atno 6907 bound_to 6896
  152.4579  134.5247  159.9803 H   0  0  0  0  0  0  0  0  0  0  0  0  # atno 6908 bound_to 6896
  151.5367  133.3401  159.2963 H   0  0  0  0  0  0  0  0  0  0  0  0  # atno 6909 bound_to 6896
  146.0613  139.5131  142.9656 H   0  0  0  0  0  0  0  0  0  0  0  0  # atno 7974 bound_to 7965
  154.4792  140.0895  156.7336 H   0  0  0  0  0  0  0  0  0  0  0  0  # atno 8008 bound_to 7997
  155.4516  140.3457  155.4283 H   0  0  0  0  0  0  0  0  0  0  0  0  # atno 8009 bound_to 7997
  156.1164  140.1462  156.9254 H   0  0  0  0  0  0  0  0  0  0  0  0  # atno 8010 bound_to 7997
  140.0644  143.4937  152.2014 H   0  0  0  0  0  0  0  0  0  0  0  0  # atno 10167 bound_to 10162
  157.6652  130.9748  150.1420 H   0  0  0  0  0  0  0  0  0  0  0  0  # atno 10718 bound_to 10713
  154.8754  135.3855  154.4119 H   0  0  0  0  0  0  0  0  0  0  0  0  # atno 10763 bound_to 10752
  153.4832  135.7030  153.5931 H   0  0  0  0  0  0  0  0  0  0  0  0  # atno 10764 bound_to 10752
  153.4337  135.3872  155.2154 H   0  0  0  0  0  0  0  0  0  0  0  0  # atno 10765 bound_to 10752
  139.9391  134.9637  156.8511 H   0  0  0  0  0  0  0  0  0  0  0  0  # atno 11005 bound_to 11000
  145.6555  141.0253  143.1737 LP  0  0  0  0  0  0  0  0  0  0  0  0  # atno 17320 bound_to 7965
  144.7176  139.8141  143.7393 LP  0  0  0  0  0  0  0  0  0  0  0  0  # atno 17321 bound_to 7965
  139.5874  144.7536  151.3485 LP  0  0  0  0  0  0  0  0  0  0  0  0  # atno 17342 bound_to 10162
  140.7156  143.7274  150.7649 LP  0  0  0  0  0  0  0  0  0  0  0  0  # atno 17343 bound_to 10162
  156.2240  130.3676  149.8522 LP  0  0  0  0  0  0  0  0  0  0  0  0  # atno 17370 bound_to 10713
  156.6367  130.8688  151.3506 LP  0  0  0  0  0  0  0  0  0  0  0  0  # atno 17371 bound_to 10713
  140.5998  134.0183  155.7532 LP  0  0  0  0  0  0  0  0  0  0  0  0  # atno 17394 bound_to 11000
  141.1018  133.9756  157.3065 LP  0  0  0  0  0  0  0  0  0  0  0  0  # atno 17395 bound_to 11000

$$$$
