AV-unprocessed.smi:3338|AV-procd|sdf|12876|dock6
  -GOLD-   2272019283D 1   1.00000     0.00000
 Structure written by MMmdl.
 44 45  0  0  0  0  0  0  0  0  2 V2000
  152.4583  144.7381  157.4426 C   0  0  0  0  0  0  0  0  0  0  0  0
  152.7416  144.3928  158.9114 C   0  0  1  0  0  0  0  0  0  0  0  0
  151.5365  144.7213  159.8083 C   0  0  0  0  0  0  0  0  0  0  0  0
  151.8376  144.3413  161.2635 C   0  0  0  0  0  0  0  0  0  0  0  0
  152.2637  142.8686  161.3712 C   0  0  0  0  0  0  0  0  0  0  0  0
  153.4316  142.5824  160.4982 N   0  3  1  0  0  0  0  0  0  0  0  0
  153.9465  141.2022  160.6874 C   0  0  0  0  0  0  0  0  0  0  0  0
  153.1323  140.1587  159.9051 C   0  0  0  0  0  0  0  0  0  0  0  0
  153.8696  139.7063  158.7340 N   0  0  0  0  0  0  0  0  0  0  0  0
  153.4808  138.6955  157.9416 C   0  0  0  0  0  0  0  0  0  0  0  0
  152.4605  138.0390  158.1536 O   0  0  0  0  0  0  0  0  0  0  0  0
  154.3868  138.3830  156.7374 C   0  0  1  0  0  0  0  0  0  0  0  0
  154.9720  136.9568  156.7759 C   0  0  0  0  0  0  0  0  0  0  0  0
  153.6901  138.6454  155.4830 N   0  0  0  0  0  0  0  0  0  0  0  0
  153.2379  139.8566  155.0000 C   0  0  0  0  0  0  0  0  0  0  0  0
  152.6264  139.6188  153.8027 C   0  0  0  0  0  0  0  0  0  0  0  0
  152.7509  138.2121  153.6329 C   0  0  0  0  0  0  0  0  0  0  0  0
  153.3809  137.6318  154.6409 N   0  0  0  0  0  0  0  0  0  0  0  0
  153.1428  142.9132  159.0764 C   0  0  0  0  0  0  0  0  0  0  0  0
  151.6252  144.1532  157.0511 H   0  0  0  0  0  0  0  0  0  0  0  0
  153.3284  144.5382  156.8167 H   0  0  0  0  0  0  0  0  0  0  0  0
  152.2070  145.7929  157.3281 H   0  0  0  0  0  0  0  0  0  0  0  0
  153.5826  145.0078  159.2360 H   0  0  0  0  0  0  0  0  0  0  0  0
  151.2946  145.7830  159.7448 H   0  0  0  0  0  0  0  0  0  0  0  0
  150.6550  144.1795  159.4622 H   0  0  0  0  0  0  0  0  0  0  0  0
  152.6290  144.9824  161.6542 H   0  0  0  0  0  0  0  0  0  0  0  0
  150.9593  144.5214  161.8842 H   0  0  0  0  0  0  0  0  0  0  0  0
  152.5140  142.6467  162.4094 H   0  0  0  0  0  0  0  0  0  0  0  0
  151.4339  142.2149  161.0972 H   0  0  0  0  0  0  0  0  0  0  0  0
  154.9784  141.1537  160.3361 H   0  0  0  0  0  0  0  0  0  0  0  0
  153.9714  140.9595  161.7510 H   0  0  0  0  0  0  0  0  0  0  0  0
  152.9046  139.2916  160.5250 H   0  0  0  0  0  0  0  0  0  0  0  0
  152.1810  140.5887  159.5876 H   0  0  0  0  0  0  0  0  0  0  0  0
  154.7192  140.1990  158.4990 H   0  0  0  0  0  0  0  0  0  0  0  0
  155.2273  139.0770  156.7892 H   0  0  0  0  0  0  0  0  0  0  0  0
  155.5479  136.7904  157.6871 H   0  0  0  0  0  0  0  0  0  0  0  0
  155.6426  136.7900  155.9326 H   0  0  0  0  0  0  0  0  0  0  0  0
  154.1931  136.1945  156.7326 H   0  0  0  0  0  0  0  0  0  0  0  0
  153.3880  140.7784  155.5426 H   0  0  0  0  0  0  0  0  0  0  0  0
  152.1611  140.3398  153.1471 H   0  0  0  0  0  0  0  0  0  0  0  0
  152.4024  137.5995  152.8144 H   0  0  0  0  0  0  0  0  0  0  0  0
  152.3478  142.2629  158.7070 H   0  0  0  0  0  0  0  0  0  0  0  0
  154.0192  142.7173  158.4598 H   0  0  0  0  0  0  0  0  0  0  0  0
  154.1667  143.2049  160.8022 H   0  0  0  0  0  0  0  0  0  0  0  0
  1  2  1  0  0  0  0
  1 20  1  0  0  0  0
  1 21  1  0  0  0  0
  1 22  1  0  0  0  0
  2 19  1  0  0  0  0
  2  3  1  0  0  0  0
  2 23  1  0  0  0  0
  3  4  1  0  0  0  0
  3 24  1  0  0  0  0
  3 25  1  0  0  0  0
  4  5  1  0  0  0  0
  4 26  1  0  0  0  0
  4 27  1  0  0  0  0
  5  6  1  0  0  0  0
  5 28  1  0  0  0  0
  5 29  1  0  0  0  0
  6  7  1  0  0  0  0
  6 19  1  0  0  0  0
  6 44  1  0  0  0  0
  7  8  1  0  0  0  0
  7 30  1  0  0  0  0
  7 31  1  0  0  0  0
  8  9  1  0  0  0  0
  8 32  1  0  0  0  0
  8 33  1  0  0  0  0
  9 10  1  0  0  0  0
  9 34  1  0  0  0  0
 10 11  2  0  0  0  0
 10 12  1  0  0  0  0
 12 13  1  0  0  0  0
 12 14  1  0  0  0  0
 12 35  1  0  0  0  0
 13 36  1  0  0  0  0
 13 37  1  0  0  0  0
 13 38  1  0  0  0  0
 14 18  1  0  0  0  0
 14 15  1  0  0  0  0
 15 16  2  0  0  0  0
 15 39  1  0  0  0  0
 16 17  1  0  0  0  0
 16 40  1  0  0  0  0
 17 18  2  0  0  0  0
 17 41  1  0  0  0  0
 19 42  1  0  0  0  0
 19 43  1  0  0  0  0
M  CHG  1   6   1
M  END
> <s_m_source_file>
AV-unprocessed.smi

> <i_m_source_file_index>
3338

> <i_lp_mmshare_version>
43012

> <i_f3d_flags>
0

> <s_epik_input>
W0NIM11bQ0BASF0xW0NIMl1bQ0gyXVtDSDJdTihbQ0gyXTEpW0NIMl1bQ0gyXVtOSF1DKD1PKVtDQEhdKFtDSDNdKW4yW2NIXVtjSF1bY0hdbjI=

> <s_epik_cmdline>
J2VwaWtfcHl0aG9uJywgJy1waCcsICc3LjAnLCAnLXRuJywgJzgnLCAnLW1hJywgJzIwMCcsICctbWV0YWxfYmluZGluZycsICctaW1hZScsICc8aW5maWxlLm1hZT4nLCAnLW9tYWUnLCAnPG91dGZpbGUubWFlPic=

> <r_lp_tautomer_probability>
1

> <r_epik_Ionization_Penalty>
0.00225707

> <r_epik_Ionization_Penalty_Charging>
0.00223709

> <r_epik_Ionization_Penalty_Neutral>
1.99775e-05

> <r_epik_State_Penalty>
0.00153978

> <r_epik_Charging_Adjusted_Penalty>
0.00377687

> <i_epik_Tot_Q>
1

> <i_epik_Tot_abs_Q>
1

> <r_epik_Metal_State_Penalty>
-0

> <b_epik_Metal_Only>
0

> <s_lp_Force_Field>
OPLS_2005

> <r_lp_Energy>
20.7823

> <b_lp_Chiralities_Consistent>
1

> <s_lp_Variant>
AV-unprocessed.smi:3338-8

> <Gold.Version>
5.8.1

> <Gold.Id.Protein>
6NUR|6NUR_protein|mol2

> <Gold.PLP.Fitness>
46.8707

> <Gold.PLP.PLP>
-41.7474

> <Gold.PLP.part.hbond>
-1.0000

> <Gold.PLP.part.metal>
0.0000

> <Gold.PLP.part.buried>
-2.9757

> <Gold.PLP.part.nonpolar>
-37.6602

> <Gold.PLP.part.repulsive>
0.1844

> <Gold.PLP.ligand.clash>
0.0000

> <Gold.PLP.ligand.torsion>
0.6990

> <Gold.PLP.Chemscore.Hbond>
1.0000

> <Gold.PLP.Chemscore.CHOScore>
1.1222

> <Gold.PLP.Chemscore.Metal>
0.0000

> <Gold.Chemscore.Hbonds>
donor molecule, donor type, donor heavy atom, donor atom, acceptor molecule, acceptor atom, score
      P1  H 10752 10763       L1    18  0.03
      L1  C    17    41       P1  7949  1.00

> <Gold.PLP.Chemscore.Internal.Correction>
0.1548

> <Gold.Rescore>
     Score         DG    S(hbond)    S(metal)    S(lipo)     H(rot)  DE(clash)    DE(int)     intcor
     17.46     -18.82       0.87        0.00     127.66       1.76       0.71       0.64       ----

> <Gold.Chemscore.Fitness>
17.4598

> <Gold.Chemscore.DG>
-18.8153

> <Gold.Chemscore.ZeroCoef>
-5.4800

> <Gold.Chemscore.Hbond>
0.8672

> <Gold.Chemscore.Metal>
0.0000

> <Gold.Chemscore.Lipo>
127.6645

> <Gold.Chemscore.Internal_Hbond>
0.0000

> <Gold.Chemscore.DEClash>
0.7125

> <Gold.Chemscore.DEInternal>
0.6430

> <Gold.Chemscore.Rot>
1.7570

> <Gold.Chemscore.Internal.Correction>
   9.000000E+99

> <Gold.Chemscore.Hbonds>
donor molecule, donor type, donor heavy atom, donor atom, acceptor molecule, acceptor atom, score
      P1  H 10752 10763       L1    18  0.05

> <Gold.Chemscore.Hbond.Weighted>
-2.8964

> <Gold.Chemscore.Metal.Weighted>
-0.0000

> <Gold.Chemscore.Lipo.Weighted>
-14.9367

> <Gold.Chemscore.Internal_Hbond.Weighted>
0.0000

> <Gold.Chemscore.DEClash.Weighted>
0.7125

> <Gold.Chemscore.DEInternal.Weighted>
0.6430

> <Gold.Chemscore.Rot.Weighted>
4.4979

> <Gold.Chemscore.Internal.Correction.Weighted>
   9.000000E+99

> <Gold.Protein.RotatedTorsions>
[ 6907 6896 6895 6894 ] final  -17.56 input  -60.11 | X-H torsion
[ 7974 7965 7964 7962 ] final   -1.20 input  175.53 | X-H torsion
[ 8008 7997 7996 7995 ] final  132.76 input   59.86 | X-H torsion
[ 10167 10162 10161 10158 ] final   78.91 input  -65.29 | X-H torsion
[ 10718 10713 10712 10709 ] final -123.05 input   66.30 | X-H torsion
[ 10763 10752 10751 10750 ] final   65.57 input  -60.55 | X-H torsion
[ 11005 11000 10999 10996 ] final -147.61 input  -57.11 | X-H torsion

> <Gold.Protein.ActiveResidues>
 VAL166  LYS551  ARG553  GLY616  TRP617  ASP618  TYR619  PRO620  LYS621  CYS622 
 ASP623  PHE694  ASN695  SER759  ASP760  ASP761  ALA762  ILE779  LEU786  VAL792 
 PHE793  MET794  SER795  GLU796  ALA797  LYS798  CYS799  TRP800  GLU811  SER814 

> <Gold.Protein.RotatedAtoms>
  151.2915  135.0743  159.9205 H   0  0  0  0  0  0  0  0  0  0  0  0  # atno 6907 bound_to 6896
  152.5315  133.9927  159.7868 H   0  0  0  0  0  0  0  0  0  0  0  0  # atno 6908 bound_to 6896
  151.0198  133.5836  159.2703 H   0  0  0  0  0  0  0  0  0  0  0  0  # atno 6909 bound_to 6896
  146.2419  140.1384  142.8336 H   0  0  0  0  0  0  0  0  0  0  0  0  # atno 7974 bound_to 7965
  156.2986  140.2538  156.3143 H   0  0  0  0  0  0  0  0  0  0  0  0  # atno 8008 bound_to 7997
  154.9296  140.0398  157.2060 H   0  0  0  0  0  0  0  0  0  0  0  0  # atno 8009 bound_to 7997
  154.8231  140.2863  155.5777 H   0  0  0  0  0  0  0  0  0  0  0  0  # atno 8010 bound_to 7997
  139.9659  144.5928  150.8029 H   0  0  0  0  0  0  0  0  0  0  0  0  # atno 10167 bound_to 10162
  156.1470  130.6507  150.9856 H   0  0  0  0  0  0  0  0  0  0  0  0  # atno 10718 bound_to 10713
  153.0102  135.5352  154.6687 H   0  0  0  0  0  0  0  0  0  0  0  0  # atno 10763 bound_to 10752
  154.5877  135.2856  155.0670 H   0  0  0  0  0  0  0  0  0  0  0  0  # atno 10764 bound_to 10752
  154.1774  135.6522  153.5078 H   0  0  0  0  0  0  0  0  0  0  0  0  # atno 10765 bound_to 10752
  140.7698  134.3202  157.5078 H   0  0  0  0  0  0  0  0  0  0  0  0  # atno 11005 bound_to 11000
  145.0267  140.8838  143.5134 LP  0  0  0  0  0  0  0  0  0  0  0  0  # atno 17320 bound_to 7965
  145.1442  139.2554  143.5474 LP  0  0  0  0  0  0  0  0  0  0  0  0  # atno 17321 bound_to 7965
  140.7538  143.3015  151.3069 LP  0  0  0  0  0  0  0  0  0  0  0  0  # atno 17342 bound_to 10162
  139.6518  144.0349  152.2631 LP  0  0  0  0  0  0  0  0  0  0  0  0  # atno 17343 bound_to 10162
  157.6625  131.0878  150.7806 LP  0  0  0  0  0  0  0  0  0  0  0  0  # atno 17370 bound_to 10713
  156.7877  130.4880  149.5390 LP  0  0  0  0  0  0  0  0  0  0  0  0  # atno 17371 bound_to 10713
  139.8757  134.9254  156.3374 LP  0  0  0  0  0  0  0  0  0  0  0  0  # atno 17394 bound_to 11000
  140.9584  133.7405  156.0367 LP  0  0  0  0  0  0  0  0  0  0  0  0  # atno 17395 bound_to 11000

$$$$
