AV-unprocessed.smi:313|AV-procd|sdf|2311|dock1
  -GOLD-   2262022213D 1   1.00000     0.00000
 Structure written by MMmdl.
 50 51  0  0  0  0  0  0  0  0  1 V2000
  145.7226  137.0103  151.7596 C   0  0  0  0  0  0  0  0  0  0  0  0
  146.3020  138.4314  151.6972 C   0  0  0  0  0  0  0  0  0  0  0  0
  146.7803  138.9636  153.0610 C   0  0  2  0  0  0  0  0  0  0  0  0
  146.9780  140.4868  153.0418 C   0  0  0  0  0  0  0  0  0  0  0  0
  148.0262  138.3057  153.4456 N   0  0  0  0  0  0  0  0  0  0  0  0
  148.8305  138.6804  154.4518 C   0  0  0  0  0  0  0  0  0  0  0  0
  148.6231  139.6716  155.1537 O   0  0  0  0  0  0  0  0  0  0  0  0
  150.0601  137.7929  154.6989 C   0  0  1  0  0  0  0  0  0  0  0  0
  150.5201  137.9872  156.1534 C   0  0  0  0  0  0  0  0  0  0  0  0
  149.7041  136.3874  154.5182 N   0  0  0  0  0  0  0  0  0  0  0  0
  150.3960  135.3453  155.0098 C   0  0  0  0  0  0  0  0  0  0  0  0
  151.3909  135.4658  155.7252 O   0  0  0  0  0  0  0  0  0  0  0  0
  149.8451  133.9892  154.6793 C   0  0  0  0  0  0  0  0  0  0  0  0
  150.3916  132.8112  155.2331 C   0  0  0  0  0  0  0  0  0  0  0  0
  149.8159  131.5688  154.9058 C   0  0  0  0  0  0  0  0  0  0  0  0
  148.6983  131.5315  154.0388 C   0  0  0  0  0  0  0  0  0  0  0  0
  148.1052  130.2967  153.6964 N   0  0  0  0  0  0  0  0  0  0  0  0
  146.8564  130.3791  152.9427 C   0  0  0  0  0  0  0  0  0  0  0  0
  146.1599  129.0080  152.9105 C   0  0  0  0  0  0  0  0  0  0  0  0
  147.0518  128.0264  152.3934 O   0  0  0  0  0  0  0  0  0  0  0  0
  148.2121  127.8847  153.2057 C   0  0  0  0  0  0  0  0  0  0  0  0
  148.9811  129.2159  153.2479 C   0  0  0  0  0  0  0  0  0  0  0  0
  148.1722  132.6649  153.5128 N   0  0  0  0  0  0  0  0  0  0  0  0
  148.7255  133.8542  153.8315 C   0  0  0  0  0  0  0  0  0  0  0  0
  145.3545  136.7000  150.7817 H   0  0  0  0  0  0  0  0  0  0  0  0
  144.8890  136.9564  152.4600 H   0  0  0  0  0  0  0  0  0  0  0  0
  146.4714  136.2830  152.0748 H   0  0  0  0  0  0  0  0  0  0  0  0
  147.1251  138.4534  150.9817 H   0  0  0  0  0  0  0  0  0  0  0  0
  145.5379  139.1006  151.2999 H   0  0  0  0  0  0  0  0  0  0  0  0
  146.0058  138.7325  153.7948 H   0  0  0  0  0  0  0  0  0  0  0  0
  146.0543  140.9982  152.7698 H   0  0  0  0  0  0  0  0  0  0  0  0
  147.7440  140.7792  152.3228 H   0  0  0  0  0  0  0  0  0  0  0  0
  147.2812  140.8575  154.0216 H   0  0  0  0  0  0  0  0  0  0  0  0
  148.2797  137.4785  152.9250 H   0  0  0  0  0  0  0  0  0  0  0  0
  150.8718  138.0641  154.0207 H   0  0  0  0  0  0  0  0  0  0  0  0
  150.7881  139.0265  156.3478 H   0  0  0  0  0  0  0  0  0  0  0  0
  151.4010  137.3805  156.3652 H   0  0  0  0  0  0  0  0  0  0  0  0
  149.7463  137.7033  156.8686 H   0  0  0  0  0  0  0  0  0  0  0  0
  148.8885  136.1935  153.9558 H   0  0  0  0  0  0  0  0  0  0  0  0
  151.2399  132.8473  155.9011 H   0  0  0  0  0  0  0  0  0  0  0  0
  150.2439  130.6649  155.3125 H   0  0  0  0  0  0  0  0  0  0  0  0
  146.1732  131.1130  153.3673 H   0  0  0  0  0  0  0  0  0  0  0  0
  147.0810  130.7064  151.9267 H   0  0  0  0  0  0  0  0  0  0  0  0
  145.8224  128.7202  153.9074 H   0  0  0  0  0  0  0  0  0  0  0  0
  145.2748  129.0521  152.2756 H   0  0  0  0  0  0  0  0  0  0  0  0
  147.9295  127.5670  154.2106 H   0  0  0  0  0  0  0  0  0  0  0  0
  148.8436  127.0999  152.7896 H   0  0  0  0  0  0  0  0  0  0  0  0
  149.3692  129.4543  152.2568 H   0  0  0  0  0  0  0  0  0  0  0  0
  149.8353  129.1175  153.9188 H   0  0  0  0  0  0  0  0  0  0  0  0
  148.2580  134.7209  153.3870 H   0  0  0  0  0  0  0  0  0  0  0  0
  1  2  1  0  0  0  0
  1 25  1  0  0  0  0
  1 26  1  0  0  0  0
  1 27  1  0  0  0  0
  2  3  1  0  0  0  0
  2 28  1  0  0  0  0
  2 29  1  0  0  0  0
  3  4  1  0  0  0  0
  3  5  1  0  0  0  0
  3 30  1  0  0  0  0
  4 31  1  0  0  0  0
  4 32  1  0  0  0  0
  4 33  1  0  0  0  0
  5  6  1  0  0  0  0
  5 34  1  0  0  0  0
  6  7  2  0  0  0  0
  6  8  1  0  0  0  0
  8  9  1  0  0  0  0
  8 10  1  0  0  0  0
  8 35  1  0  0  0  0
  9 36  1  0  0  0  0
  9 37  1  0  0  0  0
  9 38  1  0  0  0  0
 10 11  1  0  0  0  0
 10 39  1  0  0  0  0
 11 12  2  0  0  0  0
 11 13  1  0  0  0  0
 13 24  1  0  0  0  0
 13 14  2  0  0  0  0
 14 15  1  0  0  0  0
 14 40  1  0  0  0  0
 15 16  2  0  0  0  0
 15 41  1  0  0  0  0
 16 17  1  0  0  0  0
 16 23  1  0  0  0  0
 17 22  1  0  0  0  0
 17 18  1  0  0  0  0
 18 19  1  0  0  0  0
 18 42  1  0  0  0  0
 18 43  1  0  0  0  0
 19 20  1  0  0  0  0
 19 44  1  0  0  0  0
 19 45  1  0  0  0  0
 20 21  1  0  0  0  0
 21 22  1  0  0  0  0
 21 46  1  0  0  0  0
 21 47  1  0  0  0  0
 22 48  1  0  0  0  0
 22 49  1  0  0  0  0
 23 24  2  0  0  0  0
 24 50  1  0  0  0  0
M  END
> <s_m_source_file>
AV-unprocessed.smi

> <i_m_source_file_index>
313

> <i_lp_mmshare_version>
43012

> <i_f3d_flags>
0

> <s_epik_input>
W0NIM11bQ0gyXVtDQEhdKFtDSDNdKVtOSF1DKD1PKVtDQEhdKFtDSDNdKVtOSF1DKD1PKWMxW2NIXVtjSF1jKG5bY0hdMSlOMltDSDJdW0NIMl1PW0NIMl1bQ0gyXTI=

> <s_epik_cmdline>
J2VwaWtfcHl0aG9uJywgJy1waCcsICc3LjAnLCAnLXRuJywgJzgnLCAnLW1hJywgJzIwMCcsICctbWV0YWxfYmluZGluZycsICctaW1hZScsICc8aW5maWxlLm1hZT4nLCAnLW9tYWUnLCAnPG91dGZpbGUubWFlPic=

> <r_lp_tautomer_probability>
1

> <r_epik_Ionization_Penalty>
9.96442e-06

> <r_epik_Ionization_Penalty_Charging>
0

> <r_epik_Ionization_Penalty_Neutral>
9.96442e-06

> <r_epik_State_Penalty>
-0

> <r_epik_Charging_Adjusted_Penalty>
0

> <i_epik_Tot_Q>
0

> <i_epik_Tot_abs_Q>
0

> <r_epik_Metal_State_Penalty>
-0

> <b_epik_Metal_Only>
0

> <s_lp_Force_Field>
OPLS_2005

> <r_lp_Energy>
19.146

> <b_lp_Chiralities_Consistent>
1

> <s_lp_Variant>
AV-unprocessed.smi:313-3

> <Gold.Version>
5.8.1

> <Gold.Id.Protein>
6NUR|6NUR_protein|mol2

> <Gold.PLP.Fitness>
44.4637

> <Gold.PLP.PLP>
-38.0027

> <Gold.PLP.part.hbond>
-3.6375

> <Gold.PLP.part.metal>
0.0000

> <Gold.PLP.part.buried>
-0.5157

> <Gold.PLP.part.nonpolar>
-34.4396

> <Gold.PLP.part.repulsive>
0.4592

> <Gold.PLP.ligand.clash>
1.7416

> <Gold.PLP.ligand.torsion>
1.3434

> <Gold.PLP.Chemscore.Hbond>
2.4992

> <Gold.PLP.Chemscore.CHOScore>
1.0000

> <Gold.PLP.Chemscore.Metal>
0.0000

> <Gold.Chemscore.Hbonds>
donor molecule, donor type, donor heavy atom, donor atom, acceptor molecule, acceptor atom, score
      L1  H     5    34       P1  7948  1.00
      L1  H    10    39       P1  7948  0.37
      P1  H 10752 10764       L1    12  1.00
      L1  C    24    50       P1  7948  1.00

> <Gold.PLP.Chemscore.Internal.Correction>
0.3917

> <Gold.Rescore>
     Score         DG    S(hbond)    S(metal)    S(lipo)     H(rot)  DE(clash)    DE(int)     intcor
     14.94     -19.80       2.48        0.00      90.80       1.79       0.64       4.22       ----

> <Gold.Chemscore.Fitness>
14.9362

> <Gold.Chemscore.DG>
-19.7986

> <Gold.Chemscore.ZeroCoef>
-5.4800

> <Gold.Chemscore.Hbond>
2.4774

> <Gold.Chemscore.Metal>
0.0000

> <Gold.Chemscore.Lipo>
90.7974

> <Gold.Chemscore.Internal_Hbond>
0.0000

> <Gold.Chemscore.DEClash>
0.6381

> <Gold.Chemscore.DEInternal>
4.2243

> <Gold.Chemscore.Rot>
1.7888

> <Gold.Chemscore.Internal.Correction>
   9.000000E+99

> <Gold.Chemscore.Hbonds>
donor molecule, donor type, donor heavy atom, donor atom, acceptor molecule, acceptor atom, score
      L1  H     5    34       P1  7948  1.00
      L1  H    10    39       P1  7948  0.36
      P1  H 10752 10764       L1    12  0.95

> <Gold.Chemscore.Hbond.Weighted>
-8.2746

> <Gold.Chemscore.Metal.Weighted>
-0.0000

> <Gold.Chemscore.Lipo.Weighted>
-10.6233

> <Gold.Chemscore.Internal_Hbond.Weighted>
0.0000

> <Gold.Chemscore.DEClash.Weighted>
0.6381

> <Gold.Chemscore.DEInternal.Weighted>
4.2243

> <Gold.Chemscore.Rot.Weighted>
4.5793

> <Gold.Chemscore.Internal.Correction.Weighted>
   9.000000E+99

> <Gold.Protein.RotatedTorsions>
[ 6907 6896 6895 6894 ] final  -54.44 input  -60.11 | X-H torsion
[ 7974 7965 7964 7962 ] final  -53.44 input  175.53 | X-H torsion
[ 8008 7997 7996 7995 ] final  154.81 input   59.86 | X-H torsion
[ 10167 10162 10161 10158 ] final  -20.03 input  -65.29 | X-H torsion
[ 10718 10713 10712 10709 ] final   44.61 input   66.30 | X-H torsion
[ 10763 10752 10751 10750 ] final  -38.99 input  -60.55 | X-H torsion
[ 11005 11000 10999 10996 ] final  -23.64 input  -57.11 | X-H torsion

> <Gold.Protein.ActiveResidues>
 VAL166  LYS551  ARG553  GLY616  TRP617  ASP618  TYR619  PRO620  LYS621  CYS622 
 ASP623  PHE694  ASN695  SER759  ASP760  ASP761  ALA762  ILE779  LEU786  VAL792 
 PHE793  MET794  SER795  GLU796  ALA797  LYS798  CYS799  TRP800  GLU811  SER814 

> <Gold.Protein.RotatedAtoms>
  150.8338  134.7602  159.6875 H   0  0  0  0  0  0  0  0  0  0  0  0  # atno 6907 bound_to 6896
  152.4438  134.5534  159.9883 H   0  0  0  0  0  0  0  0  0  0  0  0  # atno 6908 bound_to 6896
  151.5689  133.3355  159.3021 H   0  0  0  0  0  0  0  0  0  0  0  0  # atno 6909 bound_to 6896
  145.8967  140.8027  142.9764 H   0  0  0  0  0  0  0  0  0  0  0  0  # atno 7974 bound_to 7965
  156.2512  140.1956  156.6704 H   0  0  0  0  0  0  0  0  0  0  0  0  # atno 8008 bound_to 7997
  154.6397  140.0585  156.9857 H   0  0  0  0  0  0  0  0  0  0  0  0  # atno 8009 bound_to 7997
  155.1581  140.3257  155.4419 H   0  0  0  0  0  0  0  0  0  0  0  0  # atno 8010 bound_to 7997
  140.7273  143.4761  151.0180 H   0  0  0  0  0  0  0  0  0  0  0  0  # atno 10167 bound_to 10162
  157.4286  130.8012  149.7582 H   0  0  0  0  0  0  0  0  0  0  0  0  # atno 10718 bound_to 10713
  153.9220  135.6781  153.4747 H   0  0  0  0  0  0  0  0  0  0  0  0  # atno 10763 bound_to 10752
  153.1024  135.4822  154.8887 H   0  0  0  0  0  0  0  0  0  0  0  0  # atno 10764 bound_to 10752
  154.7473  135.3175  154.8578 H   0  0  0  0  0  0  0  0  0  0  0  0  # atno 10765 bound_to 10752
  140.8771  133.7680  156.0256 H   0  0  0  0  0  0  0  0  0  0  0  0  # atno 11005 bound_to 11000
  144.6733  140.1614  143.7422 LP  0  0  0  0  0  0  0  0  0  0  0  0  # atno 17320 bound_to 7965
  145.8841  139.2339  143.1588 LP  0  0  0  0  0  0  0  0  0  0  0  0  # atno 17321 bound_to 7965
  139.8457  143.7505  152.3179 LP  0  0  0  0  0  0  0  0  0  0  0  0  # atno 17342 bound_to 10162
  139.7669  144.7489  151.0281 LP  0  0  0  0  0  0  0  0  0  0  0  0  # atno 17343 bound_to 10162
  155.9905  130.3944  150.3024 LP  0  0  0  0  0  0  0  0  0  0  0  0  # atno 17370 bound_to 10713
  157.1179  131.0239  151.3021 LP  0  0  0  0  0  0  0  0  0  0  0  0  # atno 17371 bound_to 10713
  140.8505  134.2959  157.5277 LP  0  0  0  0  0  0  0  0  0  0  0  0  # atno 17394 bound_to 11000
  139.8716  134.9465  156.3940 LP  0  0  0  0  0  0  0  0  0  0  0  0  # atno 17395 bound_to 11000

$$$$
