AV-unprocessed.smi:2001|AV-procd|sdf|8111|dock1
  -GOLD-   2272010343D 1   1.00000     0.00000
 Structure written by MMmdl.
 50 51  0  0  0  0  0  0  0  0  3 V2000
  151.7877  143.9785  158.2549 C   0  0  0  0  0  0  0  0  0  0  0  0
  152.1003  143.2032  159.3982 O   0  0  0  0  0  0  0  0  0  0  0  0
  152.6575  141.9424  159.0650 C   0  0  0  0  0  0  0  0  0  0  0  0
  153.3549  141.3387  160.2948 C   0  0  0  0  0  0  0  0  0  0  0  0
  153.6752  139.9212  160.0955 N   0  0  0  0  0  0  0  0  0  0  0  0
  153.3615  139.4507  158.8321 N   0  0  0  0  0  0  0  0  0  0  0  0
  153.6002  138.2204  158.5109 C   0  0  0  0  0  0  0  0  0  0  0  0
  153.2598  137.7147  157.1425 C   0  0  0  0  0  0  0  0  0  0  0  0
  153.4242  136.4980  156.9758 O   0  0  0  0  0  0  0  0  0  0  0  0
  152.8075  138.5957  156.1996 N   0  5  0  0  0  0  0  0  0  0  0  0
  151.4112  138.7556  155.8001 C   0  0  0  0  0  0  0  0  0  0  0  0
  151.0910  137.7998  154.6349 C   0  0  0  0  0  0  0  0  0  0  0  0
  149.6301  137.5546  154.5059 N   0  3  1  0  0  0  0  0  0  0  0  0
  149.1037  136.6204  155.5284 C   0  0  0  0  0  0  0  0  0  0  0  0
  147.6221  136.3047  155.2534 C   0  0  1  0  0  0  0  0  0  0  0  0
  147.0127  135.4131  156.3407 C   0  0  0  0  0  0  0  0  0  0  0  0
  146.8740  137.5176  155.2117 O   0  0  0  0  0  0  0  0  0  0  0  0
  147.3240  138.4681  154.2457 C   0  0  2  0  0  0  0  0  0  0  0  0
  147.0123  138.0293  152.8037 C   0  0  0  0  0  0  0  0  0  0  0  0
  148.8110  138.7948  154.4789 C   0  0  0  0  0  0  0  0  0  0  0  0
  154.2044  137.3104  159.4763 C   0  0  0  0  0  0  0  0  0  0  0  0
  154.5094  137.7849  160.7038 C   0  0  0  0  0  0  0  0  0  0  0  0
  154.2493  139.1735  161.0853 C   0  0  0  0  0  0  0  0  0  0  0  0
  154.5242  139.6274  162.1960 O   0  0  0  0  0  0  0  0  0  0  0  0
  151.3475  144.9261  158.5654 H   0  0  0  0  0  0  0  0  0  0  0  0
  151.0684  143.4662  157.6145 H   0  0  0  0  0  0  0  0  0  0  0  0
  152.6827  144.1985  157.6713 H   0  0  0  0  0  0  0  0  0  0  0  0
  151.8616  141.2737  158.7346 H   0  0  0  0  0  0  0  0  0  0  0  0
  153.3623  142.0394  158.2372 H   0  0  0  0  0  0  0  0  0  0  0  0
  154.2407  141.9220  160.5516 H   0  0  0  0  0  0  0  0  0  0  0  0
  152.6932  141.4307  161.1580 H   0  0  0  0  0  0  0  0  0  0  0  0
  150.7230  138.5489  156.6207 H   0  0  0  0  0  0  0  0  0  0  0  0
  151.2005  139.7787  155.4869 H   0  0  0  0  0  0  0  0  0  0  0  0
  151.4709  138.2496  153.7160 H   0  0  0  0  0  0  0  0  0  0  0  0
  151.6206  136.8523  154.7475 H   0  0  0  0  0  0  0  0  0  0  0  0
  149.6800  135.6943  155.5124 H   0  0  0  0  0  0  0  0  0  0  0  0
  149.2258  137.0595  156.5200 H   0  0  0  0  0  0  0  0  0  0  0  0
  147.5301  135.7839  154.3001 H   0  0  0  0  0  0  0  0  0  0  0  0
  147.5393  134.4610  156.4092 H   0  0  0  0  0  0  0  0  0  0  0  0
  145.9655  135.1980  156.1260 H   0  0  0  0  0  0  0  0  0  0  0  0
  147.0603  135.8937  157.3183 H   0  0  0  0  0  0  0  0  0  0  0  0
  146.7517  139.3779  154.4287 H   0  0  0  0  0  0  0  0  0  0  0  0
  147.2381  138.8308  152.1000 H   0  0  0  0  0  0  0  0  0  0  0  0
  145.9565  137.7812  152.6923 H   0  0  0  0  0  0  0  0  0  0  0  0
  147.5950  137.1601  152.4995 H   0  0  0  0  0  0  0  0  0  0  0  0
  148.9257  139.3176  155.4298 H   0  0  0  0  0  0  0  0  0  0  0  0
  149.1658  139.4759  153.7046 H   0  0  0  0  0  0  0  0  0  0  0  0
  154.4139  136.2795  159.2324 H   0  0  0  0  0  0  0  0  0  0  0  0
  154.9598  137.1208  161.4269 H   0  0  0  0  0  0  0  0  0  0  0  0
  149.5055  137.0954  153.6147 H   0  0  0  0  0  0  0  0  0  0  0  0
  1  2  1  0  0  0  0
  1 25  1  0  0  0  0
  1 26  1  0  0  0  0
  1 27  1  0  0  0  0
  2  3  1  0  0  0  0
  3  4  1  0  0  0  0
  3 28  1  0  0  0  0
  3 29  1  0  0  0  0
  4  5  1  0  0  0  0
  4 30  1  0  0  0  0
  4 31  1  0  0  0  0
  5 23  1  0  0  0  0
  5  6  1  0  0  0  0
  6  7  2  0  0  0  0
  7  8  1  0  0  0  0
  7 21  1  0  0  0  0
  8  9  2  0  0  0  0
  8 10  1  0  0  0  0
 10 11  1  0  0  0  0
 11 12  1  0  0  0  0
 11 32  1  0  0  0  0
 11 33  1  0  0  0  0
 12 13  1  0  0  0  0
 12 34  1  0  0  0  0
 12 35  1  0  0  0  0
 13 20  1  0  0  0  0
 13 14  1  0  0  0  0
 13 50  1  0  0  0  0
 14 15  1  0  0  0  0
 14 36  1  0  0  0  0
 14 37  1  0  0  0  0
 15 16  1  0  0  0  0
 15 17  1  0  0  0  0
 15 38  1  0  0  0  0
 16 39  1  0  0  0  0
 16 40  1  0  0  0  0
 16 41  1  0  0  0  0
 17 18  1  0  0  0  0
 18 19  1  0  0  0  0
 18 20  1  0  0  0  0
 18 42  1  0  0  0  0
 19 43  1  0  0  0  0
 19 44  1  0  0  0  0
 19 45  1  0  0  0  0
 20 46  1  0  0  0  0
 20 47  1  0  0  0  0
 21 22  2  0  0  0  0
 21 48  1  0  0  0  0
 22 23  1  0  0  0  0
 22 49  1  0  0  0  0
 23 24  2  0  0  0  0
M  CHG  1  10  -1
M  CHG  1  13   1
M  END
> <s_m_source_file>
AV-unprocessed.smi

> <i_m_source_file_index>
2001

> <i_lp_mmshare_version>
43012

> <i_f3d_flags>
0

> <s_epik_input>
W0NIM11PW0NIMl1bQ0gyXW4xbmMoW2NIXVtjSF1jMT1PKUMoPU8pW05IXVtDSDJdW0NIMl1OMltDSDJdW0NAQEhdKFtDSDNdKU9bQ0BASF0oW0NIM10pW0NIMl0y

> <s_epik_cmdline>
J2VwaWtfcHl0aG9uJywgJy1waCcsICc3LjAnLCAnLXRuJywgJzgnLCAnLW1hJywgJzIwMCcsICctbWV0YWxfYmluZGluZycsICctaW1hZScsICc8aW5maWxlLm1hZT4nLCAnLW9tYWUnLCAnPG91dGZpbGUubWFlPic=

> <r_lp_tautomer_probability>
1

> <r_epik_Ionization_Penalty>
6.90846

> <r_epik_Ionization_Penalty_Charging>
6.90846

> <r_epik_Ionization_Penalty_Neutral>
1.08445e-11

> <r_epik_State_Penalty>
7.54671

> <r_epik_Charging_Adjusted_Penalty>
14.4552

> <i_epik_Tot_Q>
0

> <i_epik_Tot_abs_Q>
2

> <r_epik_Metal_State_Penalty>
3.46181

> <b_epik_Metal_Only>
1

> <s_lp_Force_Field>
OPLS_2005

> <r_lp_Energy>
43.982

> <b_lp_Chiralities_Consistent>
1

> <s_lp_Variant>
AV-unprocessed.smi:2001-10

> <Gold.Version>
5.8.1

> <Gold.Id.Protein>
6NUR|6NUR_protein|mol2

> <Gold.PLP.Fitness>
47.3587

> <Gold.PLP.PLP>
-34.4316

> <Gold.PLP.part.hbond>
-4.0000

> <Gold.PLP.part.metal>
0.0000

> <Gold.PLP.part.buried>
-4.1308

> <Gold.PLP.part.nonpolar>
-27.2105

> <Gold.PLP.part.repulsive>
0.0856

> <Gold.PLP.ligand.clash>
0.0000

> <Gold.PLP.ligand.torsion>
1.2272

> <Gold.PLP.Chemscore.Hbond>
4.9585

> <Gold.PLP.Chemscore.CHOScore>
0.0000

> <Gold.PLP.Chemscore.Metal>
0.0000

> <Gold.Chemscore.Hbonds>
donor molecule, donor type, donor heavy atom, donor atom, acceptor molecule, acceptor atom, score
      L1  H    13    50       P1  7948  2.00
      P1  H  7997  8010       L1    10  1.33
      P1  H 10752 10765       L1     9  1.00

> <Gold.PLP.Chemscore.Internal.Correction>
0.5059

> <Gold.Rescore>
     Score         DG    S(hbond)    S(metal)    S(lipo)     H(rot)  DE(clash)    DE(int)     intcor
     16.38     -17.71       2.27        0.00      83.99       2.02       0.09       1.24       ----

> <Gold.Chemscore.Fitness>
16.3768

> <Gold.Chemscore.DG>
-17.7089

> <Gold.Chemscore.ZeroCoef>
-5.4800

> <Gold.Chemscore.Hbond>
2.2658

> <Gold.Chemscore.Metal>
0.0000

> <Gold.Chemscore.Lipo>
83.9925

> <Gold.Chemscore.Internal_Hbond>
0.0000

> <Gold.Chemscore.DEClash>
0.0939

> <Gold.Chemscore.DEInternal>
1.2383

> <Gold.Chemscore.Rot>
2.0179

> <Gold.Chemscore.Internal.Correction>
   9.000000E+99

> <Gold.Chemscore.Hbonds>
donor molecule, donor type, donor heavy atom, donor atom, acceptor molecule, acceptor atom, score
      L1  H    13    50       P1  7948  0.87
      P1  H  7997  8010       L1    10  0.20
      P1  H 10752 10765       L1     9  0.95

> <Gold.Chemscore.Hbond.Weighted>
-7.5676

> <Gold.Chemscore.Metal.Weighted>
-0.0000

> <Gold.Chemscore.Lipo.Weighted>
-9.8271

> <Gold.Chemscore.Internal_Hbond.Weighted>
0.0000

> <Gold.Chemscore.DEClash.Weighted>
0.0939

> <Gold.Chemscore.DEInternal.Weighted>
1.2383

> <Gold.Chemscore.Rot.Weighted>
5.1659

> <Gold.Chemscore.Internal.Correction.Weighted>
   9.000000E+99

> <Gold.Protein.RotatedTorsions>
[ 6907 6896 6895 6894 ] final  145.43 input  -60.11 | X-H torsion
[ 7974 7965 7964 7962 ] final -148.55 input  175.53 | X-H torsion
[ 8008 7997 7996 7995 ] final   82.89 input   59.86 | X-H torsion
[ 10167 10162 10161 10158 ] final   14.17 input  -65.29 | X-H torsion
[ 10718 10713 10712 10709 ] final   48.28 input   66.30 | X-H torsion
[ 10763 10752 10751 10750 ] final -122.43 input  -60.55 | X-H torsion
[ 11005 11000 10999 10996 ] final  155.14 input  -57.11 | X-H torsion

> <Gold.Protein.ActiveResidues>
 VAL166  LYS551  ARG553  GLY616  TRP617  ASP618  TYR619  PRO620  LYS621  CYS622 
 ASP623  PHE694  ASN695  SER759  ASP760  ASP761  ALA762  ILE779  LEU786  VAL792 
 PHE793  MET794  SER795  GLU796  ALA797  LYS798  CYS799  TRP800  GLU811  SER814 

> <Gold.Protein.RotatedAtoms>
  152.1810  133.4707  159.4957 H   0  0  0  0  0  0  0  0  0  0  0  0  # atno 6907 bound_to 6896
  150.6934  134.1833  159.4266 H   0  0  0  0  0  0  0  0  0  0  0  0  # atno 6908 bound_to 6896
  151.9745  135.0060  160.0605 H   0  0  0  0  0  0  0  0  0  0  0  0  # atno 6909 bound_to 6896
  144.8022  140.5181  143.5699 H   0  0  0  0  0  0  0  0  0  0  0  0  # atno 7974 bound_to 7965
  155.9167  140.3424  155.6140 H   0  0  0  0  0  0  0  0  0  0  0  0  # atno 8008 bound_to 7997
  155.7323  140.0797  157.2302 H   0  0  0  0  0  0  0  0  0  0  0  0  # atno 8009 bound_to 7997
  154.4063  140.1586  156.2510 H   0  0  0  0  0  0  0  0  0  0  0  0  # atno 8010 bound_to 7997
  140.5954  143.8713  150.6912 H   0  0  0  0  0  0  0  0  0  0  0  0  # atno 10167 bound_to 10162
  157.4670  130.8232  149.7947 H   0  0  0  0  0  0  0  0  0  0  0  0  # atno 10718 bound_to 10713
  154.8689  135.4133  154.2780 H   0  0  0  0  0  0  0  0  0  0  0  0  # atno 10763 bound_to 10752
  153.3678  135.7006  153.6667 H   0  0  0  0  0  0  0  0  0  0  0  0  # atno 10764 bound_to 10752
  153.5541  135.3623  155.2744 H   0  0  0  0  0  0  0  0  0  0  0  0  # atno 10765 bound_to 10752
  140.1554  134.8646  157.2507 H   0  0  0  0  0  0  0  0  0  0  0  0  # atno 11005 bound_to 11000
  145.5525  139.1477  143.3386 LP  0  0  0  0  0  0  0  0  0  0  0  0  # atno 17320 bound_to 7965
  146.2306  140.5663  142.8977 LP  0  0  0  0  0  0  0  0  0  0  0  0  # atno 17321 bound_to 7965
  140.2246  143.3783  152.1615 LP  0  0  0  0  0  0  0  0  0  0  0  0  # atno 17342 bound_to 10162
  139.5254  144.7096  151.5248 LP  0  0  0  0  0  0  0  0  0  0  0  0  # atno 17343 bound_to 10162
  156.0055  130.3858  150.2447 LP  0  0  0  0  0  0  0  0  0  0  0  0  # atno 17370 bound_to 10713
  157.0628  131.0094  151.3217 LP  0  0  0  0  0  0  0  0  0  0  0  0  # atno 17371 bound_to 10713
  140.2554  134.3634  155.7426 LP  0  0  0  0  0  0  0  0  0  0  0  0  # atno 17394 bound_to 11000
  141.2204  133.7340  156.8999 LP  0  0  0  0  0  0  0  0  0  0  0  0  # atno 17395 bound_to 11000

$$$$
