AV-unprocessed.smi:3130|AV-procd|sdf|11926|dock10
  -GOLD-   2272017313D 1   1.00000     0.00000
 Structure written by MMmdl.
 40 40  0  0  0  0  0  0  0  0  2 V2000
  151.8303  145.1675  159.1801 C   0  0  0  0  0  0  0  0  0  0  0  0
  151.7765  143.7061  158.8398 C   0  0  0  0  0  0  0  0  0  0  0  0
  152.4571  142.6318  159.4804 C   0  0  0  0  0  0  0  0  0  0  0  0
  152.1969  141.4571  158.9293 N   0  0  0  0  0  0  0  0  0  0  0  0
  151.3416  141.7382  157.9239 N   0  0  0  0  0  0  0  0  0  0  0  0
  150.8443  140.6678  157.0810 C   0  0  0  0  0  0  0  0  0  0  0  0
  151.5228  139.3268  157.3974 C   0  0  0  0  0  0  0  0  0  0  0  0
  152.2606  138.8165  156.2258 N   0  3  0  0  0  0  0  0  0  0  0  0
  151.5263  138.9451  154.9519 C   0  0  0  0  0  0  0  0  0  0  0  0
  150.2594  138.0728  154.9548 C   0  0  0  0  0  0  0  0  0  0  0  0
  148.9820  138.8812  154.7093 C   0  0  0  0  0  0  0  0  0  0  0  0
  148.6829  139.8146  155.4541 O   0  0  0  0  0  0  0  0  0  0  0  0
  148.2342  138.5067  153.6593 N   0  0  0  0  0  0  0  0  0  0  0  0
  146.9790  139.1290  153.2470 C   0  0  0  0  0  0  0  0  0  0  0  0
  146.6263  138.6707  151.8256 C   0  0  0  0  0  0  0  0  0  0  0  0
  147.0799  140.6599  153.3394 C   0  0  0  0  0  0  0  0  0  0  0  0
  151.0730  143.0883  157.8449 C   0  0  0  0  0  0  0  0  0  0  0  0
  152.3802  145.3500  160.1037 H   0  0  0  0  0  0  0  0  0  0  0  0
  150.8327  145.5872  159.3125 H   0  0  0  0  0  0  0  0  0  0  0  0
  152.3208  145.7437  158.3953 H   0  0  0  0  0  0  0  0  0  0  0  0
  153.1310  142.6714  160.3236 H   0  0  0  0  0  0  0  0  0  0  0  0
  149.7654  140.5898  157.2216 H   0  0  0  0  0  0  0  0  0  0  0  0
  151.0094  140.9452  156.0388 H   0  0  0  0  0  0  0  0  0  0  0  0
  152.2165  139.4439  158.2311 H   0  0  0  0  0  0  0  0  0  0  0  0
  150.7754  138.5915  157.6992 H   0  0  0  0  0  0  0  0  0  0  0  0
  153.1312  139.3228  156.1491 H   0  0  0  0  0  0  0  0  0  0  0  0
  151.2661  139.9941  154.8014 H   0  0  0  0  0  0  0  0  0  0  0  0
  152.1824  138.6524  154.1303 H   0  0  0  0  0  0  0  0  0  0  0  0
  150.3469  137.2979  154.1914 H   0  0  0  0  0  0  0  0  0  0  0  0
  150.1601  137.5601  155.9122 H   0  0  0  0  0  0  0  0  0  0  0  0
  148.5549  137.7274  153.1031 H   0  0  0  0  0  0  0  0  0  0  0  0
  146.1808  138.7929  153.9114 H   0  0  0  0  0  0  0  0  0  0  0  0
  145.6782  139.0989  151.4993 H   0  0  0  0  0  0  0  0  0  0  0  0
  146.5309  137.5855  151.7743 H   0  0  0  0  0  0  0  0  0  0  0  0
  147.3909  138.9727  151.1090 H   0  0  0  0  0  0  0  0  0  0  0  0
  146.1453  141.1319  153.0349 H   0  0  0  0  0  0  0  0  0  0  0  0
  147.8715  141.0457  152.6964 H   0  0  0  0  0  0  0  0  0  0  0  0
  147.2912  140.9832  154.3592 H   0  0  0  0  0  0  0  0  0  0  0  0
  150.4115  143.4957  157.0945 H   0  0  0  0  0  0  0  0  0  0  0  0
  152.4668  137.8395  156.3785 H   0  0  0  0  0  0  0  0  0  0  0  0
  1  2  1  0  0  0  0
  1 18  1  0  0  0  0
  1 19  1  0  0  0  0
  1 20  1  0  0  0  0
  2 17  2  0  0  0  0
  2  3  1  0  0  0  0
  3  4  2  0  0  0  0
  3 21  1  0  0  0  0
  4  5  1  0  0  0  0
  5  6  1  0  0  0  0
  5 17  1  0  0  0  0
  6  7  1  0  0  0  0
  6 22  1  0  0  0  0
  6 23  1  0  0  0  0
  7  8  1  0  0  0  0
  7 24  1  0  0  0  0
  7 25  1  0  0  0  0
  8  9  1  0  0  0  0
  8 26  1  0  0  0  0
  8 40  1  0  0  0  0
  9 10  1  0  0  0  0
  9 27  1  0  0  0  0
  9 28  1  0  0  0  0
 10 11  1  0  0  0  0
 10 29  1  0  0  0  0
 10 30  1  0  0  0  0
 11 12  2  0  0  0  0
 11 13  1  0  0  0  0
 13 14  1  0  0  0  0
 13 31  1  0  0  0  0
 14 15  1  0  0  0  0
 14 16  1  0  0  0  0
 14 32  1  0  0  0  0
 15 33  1  0  0  0  0
 15 34  1  0  0  0  0
 15 35  1  0  0  0  0
 16 36  1  0  0  0  0
 16 37  1  0  0  0  0
 16 38  1  0  0  0  0
 17 39  1  0  0  0  0
M  CHG  1   8   1
M  END
> <s_m_source_file>
AV-unprocessed.smi

> <i_m_source_file_index>
3130

> <i_lp_mmshare_version>
43012

> <i_f3d_flags>
0

> <s_epik_input>
W0NIM11jMVtjSF1ubihbY0hdMSlbQ0gyXVtDSDJdW05IXVtDSDJdW0NIMl1DKD1PKVtOSF1bQ0hdKFtDSDNdKVtDSDNd

> <s_epik_cmdline>
J2VwaWtfcHl0aG9uJywgJy1waCcsICc3LjAnLCAnLXRuJywgJzgnLCAnLW1hJywgJzIwMCcsICctbWV0YWxfYmluZGluZycsICctaW1hZScsICc8aW5maWxlLm1hZT4nLCAnLW9tYWUnLCAnPG91dGZpbGUubWFlPic=

> <r_lp_tautomer_probability>
1

> <r_epik_Ionization_Penalty>
0.00578341

> <r_epik_Ionization_Penalty_Charging>
0.00577767

> <r_epik_Ionization_Penalty_Neutral>
5.73237e-06

> <r_epik_State_Penalty>
-0

> <r_epik_Charging_Adjusted_Penalty>
0.00577767

> <i_epik_Tot_Q>
1

> <i_epik_Tot_abs_Q>
1

> <r_epik_Metal_State_Penalty>
-0

> <b_epik_Metal_Only>
0

> <s_lp_Force_Field>
OPLS_2005

> <r_lp_Energy>
3.33075

> <b_lp_Chiralities_Consistent>
1

> <s_lp_Variant>
AV-unprocessed.smi:3130-1

> <Gold.Version>
5.8.1

> <Gold.Id.Protein>
6NUR|6NUR_protein|mol2

> <Gold.PLP.Fitness>
43.3960

> <Gold.PLP.PLP>
-39.4299

> <Gold.PLP.part.hbond>
-2.0000

> <Gold.PLP.part.metal>
0.0000

> <Gold.PLP.part.buried>
-1.5815

> <Gold.PLP.part.nonpolar>
-34.9067

> <Gold.PLP.part.repulsive>
0.2770

> <Gold.PLP.ligand.clash>
0.0000

> <Gold.PLP.ligand.torsion>
1.0821

> <Gold.PLP.Chemscore.Hbond>
1.0000

> <Gold.PLP.Chemscore.CHOScore>
1.0000

> <Gold.PLP.Chemscore.Metal>
0.0000

> <Gold.Chemscore.Hbonds>
donor molecule, donor type, donor heavy atom, donor atom, acceptor molecule, acceptor atom, score
      L1  H    13    31       P1  7948  1.00
      L1  C    17    39       P1  8028  1.00

> <Gold.PLP.Chemscore.Internal.Correction>
0.1303

> <Gold.Rescore>
     Score         DG    S(hbond)    S(metal)    S(lipo)     H(rot)  DE(clash)    DE(int)     intcor
     10.98     -14.75       0.99        0.00     100.26       2.26       0.04       3.72       ----

> <Gold.Chemscore.Fitness>
10.9815

> <Gold.Chemscore.DG>
-14.7459

> <Gold.Chemscore.ZeroCoef>
-5.4800

> <Gold.Chemscore.Hbond>
0.9937

> <Gold.Chemscore.Metal>
0.0000

> <Gold.Chemscore.Lipo>
100.2579

> <Gold.Chemscore.Internal_Hbond>
0.0000

> <Gold.Chemscore.DEClash>
0.0396

> <Gold.Chemscore.DEInternal>
3.7248

> <Gold.Chemscore.Rot>
2.2591

> <Gold.Chemscore.Internal.Correction>
   9.000000E+99

> <Gold.Chemscore.Hbonds>
donor molecule, donor type, donor heavy atom, donor atom, acceptor molecule, acceptor atom, score
      L1  H    13    31       P1  7948  0.98

> <Gold.Chemscore.Hbond.Weighted>
-3.3191

> <Gold.Chemscore.Metal.Weighted>
-0.0000

> <Gold.Chemscore.Lipo.Weighted>
-11.7302

> <Gold.Chemscore.Internal_Hbond.Weighted>
0.0000

> <Gold.Chemscore.DEClash.Weighted>
0.0396

> <Gold.Chemscore.DEInternal.Weighted>
3.7248

> <Gold.Chemscore.Rot.Weighted>
5.7834

> <Gold.Chemscore.Internal.Correction.Weighted>
   9.000000E+99

> <Gold.Protein.RotatedTorsions>
[ 6907 6896 6895 6894 ] final  160.91 input  -60.11 | X-H torsion
[ 7974 7965 7964 7962 ] final   46.01 input  175.53 | X-H torsion
[ 8008 7997 7996 7995 ] final   76.62 input   59.86 | X-H torsion
[ 10167 10162 10161 10158 ] final -125.73 input  -65.29 | X-H torsion
[ 10718 10713 10712 10709 ] final  -58.93 input   66.30 | X-H torsion
[ 10763 10752 10751 10750 ] final   50.44 input  -60.55 | X-H torsion
[ 11005 11000 10999 10996 ] final  -44.77 input  -57.11 | X-H torsion

> <Gold.Protein.ActiveResidues>
 VAL166  LYS551  ARG553  GLY616  TRP617  ASP618  TYR619  PRO620  LYS621  CYS622 
 ASP623  PHE694  ASN695  SER759  ASP760  ASP761  ALA762  ILE779  LEU786  VAL792 
 PHE793  MET794  SER795  GLU796  ALA797  LYS798  CYS799  TRP800  GLU811  SER814 

> <Gold.Protein.RotatedAtoms>
  151.9635  133.3703  159.4044 H   0  0  0  0  0  0  0  0  0  0  0  0  # atno 6907 bound_to 6896
  150.6960  134.4215  159.5216 H   0  0  0  0  0  0  0  0  0  0  0  0  # atno 6908 bound_to 6896
  152.1907  134.8674  160.0568 H   0  0  0  0  0  0  0  0  0  0  0  0  # atno 6909 bound_to 6896
  146.0428  139.4902  142.9767 H   0  0  0  0  0  0  0  0  0  0  0  0  # atno 7974 bound_to 7965
  155.8299  140.3466  155.5566 H   0  0  0  0  0  0  0  0  0  0  0  0  # atno 8008 bound_to 7997
  155.8253  140.0919  157.1845 H   0  0  0  0  0  0  0  0  0  0  0  0  # atno 8009 bound_to 7997
  154.4004  140.1422  156.3536 H   0  0  0  0  0  0  0  0  0  0  0  0  # atno 8010 bound_to 7997
  139.9789  143.5763  152.2385 H   0  0  0  0  0  0  0  0  0  0  0  0  # atno 10167 bound_to 10162
  156.1099  130.4176  150.0644 H   0  0  0  0  0  0  0  0  0  0  0  0  # atno 10718 bound_to 10713
  152.9785  135.5879  154.4252 H   0  0  0  0  0  0  0  0  0  0  0  0  # atno 10763 bound_to 10752
  154.3872  135.2767  155.2178 H   0  0  0  0  0  0  0  0  0  0  0  0  # atno 10764 bound_to 10752
  154.4067  135.6091  153.5983 H   0  0  0  0  0  0  0  0  0  0  0  0  # atno 10765 bound_to 10752
  141.0472  133.6756  156.2920 H   0  0  0  0  0  0  0  0  0  0  0  0  # atno 11005 bound_to 11000
  145.6856  141.0179  143.1583 LP  0  0  0  0  0  0  0  0  0  0  0  0  # atno 17320 bound_to 7965
  144.7083  139.8472  143.7423 LP  0  0  0  0  0  0  0  0  0  0  0  0  # atno 17321 bound_to 7965
  139.6424  144.7656  151.2311 LP  0  0  0  0  0  0  0  0  0  0  0  0  # atno 17342 bound_to 10162
  140.7496  143.6295  150.8437 LP  0  0  0  0  0  0  0  0  0  0  0  0  # atno 17343 bound_to 10162
  156.8610  130.9492  151.3618 LP  0  0  0  0  0  0  0  0  0  0  0  0  # atno 17370 bound_to 10713
  157.6279  130.8706  149.9222 LP  0  0  0  0  0  0  0  0  0  0  0  0  # atno 17371 bound_to 10713
  140.6123  134.5445  157.5535 LP  0  0  0  0  0  0  0  0  0  0  0  0  # atno 17394 bound_to 11000
  139.9321  134.7943  156.0901 LP  0  0  0  0  0  0  0  0  0  0  0  0  # atno 17395 bound_to 11000

$$$$
