AV-unprocessed.smi:2143|AV-procd|sdf|8727|dock8
  -GOLD-   2272011493D 1   1.00000     0.00000
 Structure written by MMmdl.
 44 45  0  0  0  0  0  0  0  0  1 V2000
  153.1545  142.8265  162.1745 C   0  0  0  0  0  0  0  0  0  0  0  0
  152.1067  143.3498  161.1744 C   0  0  1  0  0  0  0  0  0  0  0  0
  152.2242  144.8830  161.0638 C   0  0  0  0  0  0  0  0  0  0  0  0
  151.1824  145.4683  160.1047 C   0  0  0  0  0  0  0  0  0  0  0  0
  151.3111  144.8337  158.7171 C   0  0  0  0  0  0  0  0  0  0  0  0
  151.1802  143.2995  158.7875 C   0  0  1  0  0  0  0  0  0  0  0  0
  151.3492  142.7402  157.4473 N   0  0  0  0  0  0  0  0  0  0  0  0
  150.4300  142.0253  156.7808 C   0  0  0  0  0  0  0  0  0  0  0  0
  149.3249  141.7434  157.2461 O   0  0  0  0  0  0  0  0  0  0  0  0
  150.8365  141.5437  155.3816 C   0  0  0  0  0  0  0  0  0  0  0  0
  150.9189  140.0808  155.2812 N   0  0  0  0  0  0  0  0  0  0  0  0
  150.1923  139.4179  154.3093 C   0  0  0  0  0  0  0  0  0  0  0  0
  150.2269  138.0783  154.1375 C   0  0  0  0  0  0  0  0  0  0  0  0
  151.0529  137.2345  154.9925 C   0  0  0  0  0  0  0  0  0  0  0  0
  151.1279  136.0127  154.8573 O   0  0  0  0  0  0  0  0  0  0  0  0
  151.7744  137.9365  155.9879 N   0  0  0  0  0  0  0  0  0  0  0  0
  152.6405  137.1889  156.8758 C   0  0  0  0  0  0  0  0  0  0  0  0
  151.7456  139.3391  156.1524 C   0  0  0  0  0  0  0  0  0  0  0  0
  152.4178  139.9078  157.0165 O   0  0  0  0  0  0  0  0  0  0  0  0
  152.2055  142.6777  159.7748 C   0  0  2  0  0  0  0  0  0  0  0  0
  152.0366  141.1446  159.8575 C   0  0  0  0  0  0  0  0  0  0  0  0
  154.1662  142.9396  161.7843 H   0  0  0  0  0  0  0  0  0  0  0  0
  152.9999  141.7752  162.4144 H   0  0  0  0  0  0  0  0  0  0  0  0
  153.1015  143.3721  163.1171 H   0  0  0  0  0  0  0  0  0  0  0  0
  151.1217  143.1252  161.5868 H   0  0  0  0  0  0  0  0  0  0  0  0
  152.1020  145.3390  162.0470 H   0  0  0  0  0  0  0  0  0  0  0  0
  153.2247  145.1529  160.7225 H   0  0  0  0  0  0  0  0  0  0  0  0
  150.1793  145.2980  160.4978 H   0  0  0  0  0  0  0  0  0  0  0  0
  151.3091  146.5488  160.0323 H   0  0  0  0  0  0  0  0  0  0  0  0
  150.5475  145.2483  158.0579 H   0  0  0  0  0  0  0  0  0  0  0  0
  152.2742  145.1042  158.2816 H   0  0  0  0  0  0  0  0  0  0  0  0
  150.1794  143.0550  159.1493 H   0  0  0  0  0  0  0  0  0  0  0  0
  152.2317  142.9181  156.9899 H   0  0  0  0  0  0  0  0  0  0  0  0
  150.1358  141.9289  154.6382 H   0  0  0  0  0  0  0  0  0  0  0  0
  151.8012  141.9896  155.1359 H   0  0  0  0  0  0  0  0  0  0  0  0
  149.5679  139.9995  153.6467 H   0  0  0  0  0  0  0  0  0  0  0  0
  149.6377  137.6250  153.3539 H   0  0  0  0  0  0  0  0  0  0  0  0
  152.5188  137.5808  157.8872 H   0  0  0  0  0  0  0  0  0  0  0  0
  153.6603  137.3273  156.5137 H   0  0  0  0  0  0  0  0  0  0  0  0
  152.3663  136.1340  156.8835 H   0  0  0  0  0  0  0  0  0  0  0  0
  153.2048  142.8751  159.3828 H   0  0  0  0  0  0  0  0  0  0  0  0
  151.0736  140.8773  160.2929 H   0  0  0  0  0  0  0  0  0  0  0  0
  152.8168  140.6832  160.4613 H   0  0  0  0  0  0  0  0  0  0  0  0
  152.0962  140.6742  158.8764 H   0  0  0  0  0  0  0  0  0  0  0  0
  1  2  1  0  0  0  0
  1 22  1  0  0  0  0
  1 23  1  0  0  0  0
  1 24  1  0  0  0  0
  2 20  1  0  0  0  0
  2  3  1  0  0  0  0
  2 25  1  0  0  0  0
  3  4  1  0  0  0  0
  3 26  1  0  0  0  0
  3 27  1  0  0  0  0
  4  5  1  0  0  0  0
  4 28  1  0  0  0  0
  4 29  1  0  0  0  0
  5  6  1  0  0  0  0
  5 30  1  0  0  0  0
  5 31  1  0  0  0  0
  6  7  1  0  0  0  0
  6 20  1  0  0  0  0
  6 32  1  0  0  0  0
  7  8  1  0  0  0  0
  7 33  1  0  0  0  0
  8  9  2  0  0  0  0
  8 10  1  0  0  0  0
 10 11  1  0  0  0  0
 10 34  1  0  0  0  0
 10 35  1  0  0  0  0
 11 18  1  0  0  0  0
 11 12  1  0  0  0  0
 12 13  2  0  0  0  0
 12 36  1  0  0  0  0
 13 14  1  0  0  0  0
 13 37  1  0  0  0  0
 14 15  2  0  0  0  0
 14 16  1  0  0  0  0
 16 17  1  0  0  0  0
 16 18  1  0  0  0  0
 17 38  1  0  0  0  0
 17 39  1  0  0  0  0
 17 40  1  0  0  0  0
 18 19  2  0  0  0  0
 20 21  1  0  0  0  0
 20 41  1  0  0  0  0
 21 42  1  0  0  0  0
 21 43  1  0  0  0  0
 21 44  1  0  0  0  0
M  END
> <s_m_source_file>
AV-unprocessed.smi

> <i_m_source_file_index>
2143

> <i_lp_mmshare_version>
43012

> <i_f3d_flags>
0

> <s_epik_input>
W0NIM11bQ0BASF0xW0NIMl1bQ0gyXVtDSDJdW0NASF0oW0NASF0xW0NIM10pW05IXUMoPU8pW0NIMl1uMltjSF1bY0hdYyg9TyluKFtDSDNdKWMyPU8=

> <s_epik_cmdline>
J2VwaWtfcHl0aG9uJywgJy1waCcsICc3LjAnLCAnLXRuJywgJzgnLCAnLW1hJywgJzIwMCcsICctbWV0YWxfYmluZGluZycsICctaW1hZScsICc8aW5maWxlLm1hZT4nLCAnLW9tYWUnLCAnPG91dGZpbGUubWFlPic=

> <r_lp_tautomer_probability>
1

> <r_epik_Ionization_Penalty>
3.18445e-08

> <r_epik_Ionization_Penalty_Charging>
1.27977e-08

> <r_epik_Ionization_Penalty_Neutral>
1.90469e-08

> <r_epik_State_Penalty>
-0

> <r_epik_Charging_Adjusted_Penalty>
1.27977e-08

> <i_epik_Tot_Q>
0

> <i_epik_Tot_abs_Q>
0

> <r_epik_Metal_State_Penalty>
-0

> <b_epik_Metal_Only>
0

> <s_lp_Force_Field>
OPLS_2005

> <r_lp_Energy>
20.3985

> <b_lp_Chiralities_Consistent>
1

> <s_lp_Variant>
AV-unprocessed.smi:2143-6

> <Gold.Version>
5.8.1

> <Gold.Id.Protein>
6NUR|6NUR_protein|mol2

> <Gold.PLP.Fitness>
49.3455

> <Gold.PLP.PLP>
-40.5157

> <Gold.PLP.part.hbond>
-2.0000

> <Gold.PLP.part.metal>
0.0000

> <Gold.PLP.part.buried>
-0.2171

> <Gold.PLP.part.nonpolar>
-37.8336

> <Gold.PLP.part.repulsive>
0.2742

> <Gold.PLP.ligand.clash>
0.0000

> <Gold.PLP.ligand.torsion>
0.0432

> <Gold.PLP.Chemscore.Hbond>
2.0000

> <Gold.PLP.Chemscore.CHOScore>
0.9693

> <Gold.PLP.Chemscore.Metal>
0.0000

> <Gold.Chemscore.Hbonds>
donor molecule, donor type, donor heavy atom, donor atom, acceptor molecule, acceptor atom, score
      P1  H  7997  8009       L1    19  1.00
      P1  H 10752 10765       L1    15  1.00
      L1  C    12    36       P1  7957  0.95

> <Gold.PLP.Chemscore.Internal.Correction>
0.0082

> <Gold.Rescore>
     Score         DG    S(hbond)    S(metal)    S(lipo)     H(rot)  DE(clash)    DE(int)     intcor
     19.55     -21.12       1.92        0.00     111.99       1.51       0.45       1.12       ----

> <Gold.Chemscore.Fitness>
19.5512

> <Gold.Chemscore.DG>
-21.1217

> <Gold.Chemscore.ZeroCoef>
-5.4800

> <Gold.Chemscore.Hbond>
1.9200

> <Gold.Chemscore.Metal>
0.0000

> <Gold.Chemscore.Lipo>
111.9874

> <Gold.Chemscore.Internal_Hbond>
0.0000

> <Gold.Chemscore.DEClash>
0.4512

> <Gold.Chemscore.DEInternal>
1.1193

> <Gold.Chemscore.Rot>
1.5131

> <Gold.Chemscore.Internal.Correction>
   9.000000E+99

> <Gold.Chemscore.Hbonds>
donor molecule, donor type, donor heavy atom, donor atom, acceptor molecule, acceptor atom, score
      P1  H  7997  8009       L1    19  0.90
      P1  H 10752 10765       L1    15  0.65

> <Gold.Chemscore.Hbond.Weighted>
-6.4127

> <Gold.Chemscore.Metal.Weighted>
-0.0000

> <Gold.Chemscore.Lipo.Weighted>
-13.1025

> <Gold.Chemscore.Internal_Hbond.Weighted>
0.0000

> <Gold.Chemscore.DEClash.Weighted>
0.4512

> <Gold.Chemscore.DEInternal.Weighted>
1.1193

> <Gold.Chemscore.Rot.Weighted>
3.8734

> <Gold.Chemscore.Internal.Correction.Weighted>
   9.000000E+99

> <Gold.Protein.RotatedTorsions>
[ 6907 6896 6895 6894 ] final   19.73 input  -60.11 | X-H torsion
[ 7974 7965 7964 7962 ] final  145.25 input  175.53 | X-H torsion
[ 8008 7997 7996 7995 ] final  178.80 input   59.86 | X-H torsion
[ 10167 10162 10161 10158 ] final  158.95 input  -65.29 | X-H torsion
[ 10718 10713 10712 10709 ] final   57.83 input   66.30 | X-H torsion
[ 10763 10752 10751 10750 ] final -177.02 input  -60.55 | X-H torsion
[ 11005 11000 10999 10996 ] final -159.49 input  -57.11 | X-H torsion

> <Gold.Protein.ActiveResidues>
 VAL166  LYS551  ARG553  GLY616  TRP617  ASP618  TYR619  PRO620  LYS621  CYS622 
 ASP623  PHE694  ASN695  SER759  ASP760  ASP761  ALA762  ILE779  LEU786  VAL792 
 PHE793  MET794  SER795  GLU796  ALA797  LYS798  CYS799  TRP800  GLU811  SER814 

> <Gold.Protein.RotatedAtoms>
  151.8854  135.0437  160.0492 H   0  0  0  0  0  0  0  0  0  0  0  0  # atno 6907 bound_to 6896
  152.2479  133.5185  159.5316 H   0  0  0  0  0  0  0  0  0  0  0  0  # atno 6908 bound_to 6896
  150.7074  134.0917  159.3976 H   0  0  0  0  0  0  0  0  0  0  0  0  # atno 6909 bound_to 6896
  144.8768  139.5760  143.5861 H   0  0  0  0  0  0  0  0  0  0  0  0  # atno 7974 bound_to 7965
  156.0506  140.1324  157.0054 H   0  0  0  0  0  0  0  0  0  0  0  0  # atno 8008 bound_to 7997
  154.4433  140.1011  156.6441 H   0  0  0  0  0  0  0  0  0  0  0  0  # atno 8009 bound_to 7997
  155.5529  140.3463  155.4475 H   0  0  0  0  0  0  0  0  0  0  0  0  # atno 8010 bound_to 7997
  139.4829  144.4776  151.8489 H   0  0  0  0  0  0  0  0  0  0  0  0  # atno 10167 bound_to 10162
  157.5547  130.8791  149.9017 H   0  0  0  0  0  0  0  0  0  0  0  0  # atno 10718 bound_to 10713
  154.5653  135.2823  155.0880 H   0  0  0  0  0  0  0  0  0  0  0  0  # atno 10763 bound_to 10752
  154.2273  135.6380  153.5167 H   0  0  0  0  0  0  0  0  0  0  0  0  # atno 10764 bound_to 10752
  153.0041  135.5529  154.6260 H   0  0  0  0  0  0  0  0  0  0  0  0  # atno 10765 bound_to 10752
  140.6420  134.4541  157.5233 H   0  0  0  0  0  0  0  0  0  0  0  0  # atno 11005 bound_to 11000
  146.2968  139.7302  142.9121 LP  0  0  0  0  0  0  0  0  0  0  0  0  # atno 17320 bound_to 7965
  145.4028  141.0387  143.3061 LP  0  0  0  0  0  0  0  0  0  0  0  0  # atno 17321 bound_to 7965
  140.4250  144.2193  150.5887 LP  0  0  0  0  0  0  0  0  0  0  0  0  # atno 17342 bound_to 10162
  140.4836  143.2370  151.8919 LP  0  0  0  0  0  0  0  0  0  0  0  0  # atno 17343 bound_to 10162
  156.0608  130.3700  150.0987 LP  0  0  0  0  0  0  0  0  0  0  0  0  # atno 17370 bound_to 10713
  156.9157  130.9666  151.3556 LP  0  0  0  0  0  0  0  0  0  0  0  0  # atno 17371 bound_to 10713
  139.9077  134.8413  156.1645 LP  0  0  0  0  0  0  0  0  0  0  0  0  # atno 17394 bound_to 11000
  141.0600  133.6846  156.1933 LP  0  0  0  0  0  0  0  0  0  0  0  0  # atno 17395 bound_to 11000

$$$$
