AV-unprocessed.smi:1550|AV-procd|sdf|6230|dock8
  -GOLD-   22720 6413D 1   1.00000     0.00000
 Structure written by MMmdl.
 42 43  0  0  0  0  0  0  0  0  2 V2000
  148.5854  139.8976  154.4613 C   0  0  0  0  0  0  0  0  0  0  0  0
  149.9849  139.2650  154.4518 C   0  0  2  0  0  0  0  0  0  0  0  0
  149.8559  137.9304  154.9326 O   0  0  0  0  0  0  0  0  0  0  0  0
  151.0333  137.1343  154.8457 C   0  0  0  0  0  0  0  0  0  0  0  0
  150.7254  135.7032  155.3071 C   0  0  1  0  0  0  0  0  0  0  0  0
  149.9225  134.8930  154.2695 C   0  0  0  0  0  0  0  0  0  0  0  0
  149.6935  133.4626  154.7702 C   0  0  0  0  0  0  0  0  0  0  0  0
  151.0338  132.8359  155.1707 C   0  0  0  0  0  0  0  0  0  0  0  0
  151.7756  133.7444  156.1649 C   0  0  0  0  0  0  0  0  0  0  0  0
  151.9534  135.0430  155.6068 O   0  0  0  0  0  0  0  0  0  0  0  0
  150.9657  140.0541  155.3347 C   0  0  0  0  0  0  0  0  0  0  0  0
  152.0458  140.4108  154.8652 O   0  0  0  0  0  0  0  0  0  0  0  0
  150.5364  140.3008  156.5881 N   0  0  0  0  0  0  0  0  0  0  0  0
  151.1528  141.0025  157.6393 C   0  0  0  0  0  0  0  0  0  0  0  0
  150.8727  142.2861  158.0005 C   0  0  0  0  0  0  0  0  0  0  0  0
  151.5524  142.9523  159.1047 C   0  0  0  0  0  0  0  0  0  0  0  0
  151.2130  144.3538  159.5812 C   0  0  0  0  0  0  0  0  0  0  0  0
  151.9839  144.7114  160.6085 F   0  0  0  0  0  0  0  0  0  0  0  0
  151.4052  145.2274  158.5939 F   0  0  0  0  0  0  0  0  0  0  0  0
  149.9386  144.4334  159.9643 F   0  0  0  0  0  0  0  0  0  0  0  0
  152.4651  142.1276  159.7332 C   0  0  0  0  0  0  0  0  0  0  0  0
  152.8077  140.8554  159.4350 N   0  5  0  0  0  0  0  0  0  0  0  0
  152.1733  140.2454  158.3945 C   0  0  0  0  0  0  0  0  0  0  0  0
  152.4329  139.0846  158.0747 O   0  0  0  0  0  0  0  0  0  0  0  0
  148.6170  140.9340  154.1229 H   0  0  0  0  0  0  0  0  0  0  0  0
  148.1435  139.8831  155.4585 H   0  0  0  0  0  0  0  0  0  0  0  0
  147.9129  139.3548  153.7969 H   0  0  0  0  0  0  0  0  0  0  0  0
  150.3425  139.2471  153.4203 H   0  0  0  0  0  0  0  0  0  0  0  0
  151.4036  137.1240  153.8195 H   0  0  0  0  0  0  0  0  0  0  0  0
  151.8258  137.5456  155.4714 H   0  0  0  0  0  0  0  0  0  0  0  0
  150.1446  135.7716  156.2286 H   0  0  0  0  0  0  0  0  0  0  0  0
  148.9668  135.3777  154.0671 H   0  0  0  0  0  0  0  0  0  0  0  0
  150.4620  134.8597  153.3221 H   0  0  0  0  0  0  0  0  0  0  0  0
  149.0226  133.4769  155.6300 H   0  0  0  0  0  0  0  0  0  0  0  0
  149.2064  132.8627  154.0009 H   0  0  0  0  0  0  0  0  0  0  0  0
  150.8735  131.8499  155.6077 H   0  0  0  0  0  0  0  0  0  0  0  0
  151.6500  132.6887  154.2828 H   0  0  0  0  0  0  0  0  0  0  0  0
  151.2301  133.8154  157.1072 H   0  0  0  0  0  0  0  0  0  0  0  0
  152.7546  133.3246  156.3963 H   0  0  0  0  0  0  0  0  0  0  0  0
  149.6333  139.9176  156.8274 H   0  0  0  0  0  0  0  0  0  0  0  0
  150.1266  142.8627  157.4811 H   0  0  0  0  0  0  0  0  0  0  0  0
  152.9980  142.5534  160.6101 H   0  0  0  0  0  0  0  0  0  0  0  0
  1  2  1  0  0  0  0
  1 25  1  0  0  0  0
  1 26  1  0  0  0  0
  1 27  1  0  0  0  0
  2  3  1  0  0  0  0
  2 11  1  0  0  0  0
  2 28  1  0  0  0  0
  3  4  1  0  0  0  0
  4  5  1  0  0  0  0
  4 29  1  0  0  0  0
  4 30  1  0  0  0  0
  5 10  1  0  0  0  0
  5  6  1  0  0  0  0
  5 31  1  0  0  0  0
  6  7  1  0  0  0  0
  6 32  1  0  0  0  0
  6 33  1  0  0  0  0
  7  8  1  0  0  0  0
  7 34  1  0  0  0  0
  7 35  1  0  0  0  0
  8  9  1  0  0  0  0
  8 36  1  0  0  0  0
  8 37  1  0  0  0  0
  9 10  1  0  0  0  0
  9 38  1  0  0  0  0
  9 39  1  0  0  0  0
 11 12  2  0  0  0  0
 11 13  1  0  0  0  0
 13 14  1  0  0  0  0
 13 40  1  0  0  0  0
 14 23  1  0  0  0  0
 14 15  2  0  0  0  0
 15 16  1  0  0  0  0
 15 41  1  0  0  0  0
 16 17  1  0  0  0  0
 16 21  2  0  0  0  0
 17 18  1  0  0  0  0
 17 19  1  0  0  0  0
 17 20  1  0  0  0  0
 21 22  1  0  0  0  0
 21 42  1  0  0  0  0
 22 23  1  0  0  0  0
 23 24  2  0  0  0  0
M  CHG  1  22  -1
M  END
> <s_m_source_file>
AV-unprocessed.smi

> <i_m_source_file_index>
1550

> <i_lp_mmshare_version>
43012

> <i_f3d_flags>
0

> <s_epik_input>
TzFbQ0gyXVtDSDJdW0NIMl1bQ0gyXVtDQEhdMVtDSDJdT1tDQEBIXShbQ0gzXSlDKD1PKVtOSF1jMltjSF1jKEMoRikoRilGKVtjSF1bbkhdYzI9Tw==

> <s_epik_cmdline>
J2VwaWtfcHl0aG9uJywgJy1waCcsICc3LjAnLCAnLXRuJywgJzgnLCAnLW1hJywgJzIwMCcsICctbWV0YWxfYmluZGluZycsICctaW1hZScsICc8aW5maWxlLm1hZT4nLCAnLW9tYWUnLCAnPG91dGZpbGUubWFlPic=

> <r_epik_Ionization_Penalty>
2.54933

> <r_epik_Ionization_Penalty_Charging>
0.0583423

> <r_epik_Ionization_Penalty_Neutral>
2.49099

> <r_epik_State_Penalty>
2.65532

> <r_epik_Charging_Adjusted_Penalty>
2.71366

> <i_epik_Tot_Q>
-1

> <i_epik_Tot_abs_Q>
1

> <r_epik_Metal_State_Penalty>
0.516364

> <b_epik_Metal_Only>
0

> <s_lp_Force_Field>
OPLS_2005

> <r_lp_Energy>
26.7738

> <b_lp_Chiralities_Consistent>
1

> <s_lp_Variant>
AV-unprocessed.smi:1550-7

> <Gold.Version>
5.8.1

> <Gold.Id.Protein>
6NUR|6NUR_protein|mol2

> <Gold.PLP.Fitness>
46.8435

> <Gold.PLP.PLP>
-43.9970

> <Gold.PLP.part.hbond>
-1.9178

> <Gold.PLP.part.metal>
0.0000

> <Gold.PLP.part.buried>
-3.3179

> <Gold.PLP.part.nonpolar>
-37.7587

> <Gold.PLP.part.repulsive>
0.2506

> <Gold.PLP.ligand.clash>
0.0000

> <Gold.PLP.ligand.torsion>
1.0442

> <Gold.PLP.Chemscore.Hbond>
1.5952

> <Gold.PLP.Chemscore.CHOScore>
0.0000

> <Gold.PLP.Chemscore.Metal>
0.0000

> <Gold.Chemscore.Hbonds>
donor molecule, donor type, donor heavy atom, donor atom, acceptor molecule, acceptor atom, score
      P1  H  7989  7998       L1    12  0.59
      P1  H 10752 10764       L1    10  0.50

> <Gold.PLP.Chemscore.Internal.Correction>
0.1494

> <Gold.Rescore>
     Score         DG    S(hbond)    S(metal)    S(lipo)     H(rot)  DE(clash)    DE(int)     intcor
     14.86     -16.00       1.73        0.00      80.28       1.82       0.07       1.06       ----

> <Gold.Chemscore.Fitness>
14.8591

> <Gold.Chemscore.DG>
-15.9968

> <Gold.Chemscore.ZeroCoef>
-5.4800

> <Gold.Chemscore.Hbond>
1.7344

> <Gold.Chemscore.Metal>
0.0000

> <Gold.Chemscore.Lipo>
80.2759

> <Gold.Chemscore.Internal_Hbond>
0.0000

> <Gold.Chemscore.DEClash>
0.0736

> <Gold.Chemscore.DEInternal>
1.0641

> <Gold.Chemscore.Rot>
1.8236

> <Gold.Chemscore.Internal.Correction>
   9.000000E+99

> <Gold.Chemscore.Hbonds>
donor molecule, donor type, donor heavy atom, donor atom, acceptor molecule, acceptor atom, score
      P1  H  7989  7998       L1    12  0.22
      P1  H 10752 10764       L1    10  0.43

> <Gold.Chemscore.Hbond.Weighted>
-5.7929

> <Gold.Chemscore.Metal.Weighted>
-0.0000

> <Gold.Chemscore.Lipo.Weighted>
-9.3923

> <Gold.Chemscore.Internal_Hbond.Weighted>
0.0000

> <Gold.Chemscore.DEClash.Weighted>
0.0736

> <Gold.Chemscore.DEInternal.Weighted>
1.0641

> <Gold.Chemscore.Rot.Weighted>
4.6684

> <Gold.Chemscore.Internal.Correction.Weighted>
   9.000000E+99

> <Gold.Protein.RotatedTorsions>
[ 6907 6896 6895 6894 ] final   18.24 input  -60.11 | X-H torsion
[ 7974 7965 7964 7962 ] final -129.58 input  175.53 | X-H torsion
[ 8008 7997 7996 7995 ] final  -87.16 input   59.86 | X-H torsion
[ 10167 10162 10161 10158 ] final  148.62 input  -65.29 | X-H torsion
[ 10718 10713 10712 10709 ] final -164.15 input   66.30 | X-H torsion
[ 10763 10752 10751 10750 ] final  -43.10 input  -60.55 | X-H torsion
[ 11005 11000 10999 10996 ] final  158.03 input  -57.11 | X-H torsion

> <Gold.Protein.ActiveResidues>
 VAL166  LYS551  ARG553  GLY616  TRP617  ASP618  TYR619  PRO620  LYS621  CYS622 
 ASP623  PHE694  ASN695  SER759  ASP760  ASP761  ALA762  ILE779  LEU786  VAL792 
 PHE793  MET794  SER795  GLU796  ALA797  LYS798  CYS799  TRP800  GLU811  SER814 

> <Gold.Protein.RotatedAtoms>
  151.8622  135.0520  160.0470 H   0  0  0  0  0  0  0  0  0  0  0  0  # atno 6907 bound_to 6896
  152.2654  133.5330  159.5415 H   0  0  0  0  0  0  0  0  0  0  0  0  # atno 6908 bound_to 6896
  150.7131  134.0688  159.3899 H   0  0  0  0  0  0  0  0  0  0  0  0  # atno 6909 bound_to 6896
  144.9558  140.7394  143.4759 H   0  0  0  0  0  0  0  0  0  0  0  0  # atno 7974 bound_to 7965
  154.6601  140.0569  157.0052 H   0  0  0  0  0  0  0  0  0  0  0  0  # atno 8008 bound_to 7997
  155.1242  140.3250  155.4471 H   0  0  0  0  0  0  0  0  0  0  0  0  # atno 8009 bound_to 7997
  156.2614  140.1992  156.6363 H   0  0  0  0  0  0  0  0  0  0  0  0  # atno 8010 bound_to 7997
  139.4872  144.5665  151.7135 H   0  0  0  0  0  0  0  0  0  0  0  0  # atno 10167 bound_to 10162
  156.6350  130.8945  151.2985 H   0  0  0  0  0  0  0  0  0  0  0  0  # atno 10718 bound_to 10713
  153.9900  135.6706  153.4753 H   0  0  0  0  0  0  0  0  0  0  0  0  # atno 10763 bound_to 10752
  153.0709  135.4975  154.8299 H   0  0  0  0  0  0  0  0  0  0  0  0  # atno 10764 bound_to 10752
  154.7114  135.3098  154.9153 H   0  0  0  0  0  0  0  0  0  0  0  0  # atno 10765 bound_to 10752
  140.1826  134.8465  157.2820 H   0  0  0  0  0  0  0  0  0  0  0  0  # atno 11005 bound_to 11000
  145.2774  139.1931  143.4809 LP  0  0  0  0  0  0  0  0  0  0  0  0  # atno 17320 bound_to 7965
  146.3337  140.2730  142.8607 LP  0  0  0  0  0  0  0  0  0  0  0  0  # atno 17321 bound_to 7965
  140.5244  144.0828  150.6033 LP  0  0  0  0  0  0  0  0  0  0  0  0  # atno 17342 bound_to 10162
  140.3797  143.2809  152.0184 LP  0  0  0  0  0  0  0  0  0  0  0  0  # atno 17343 bound_to 10162
  157.7188  130.9532  150.1359 LP  0  0  0  0  0  0  0  0  0  0  0  0  # atno 17370 bound_to 10713
  156.2205  130.3673  149.8562 LP  0  0  0  0  0  0  0  0  0  0  0  0  # atno 17371 bound_to 10713
  140.2250  134.3977  155.7548 LP  0  0  0  0  0  0  0  0  0  0  0  0  # atno 17394 bound_to 11000
  141.2223  133.7185  156.8551 LP  0  0  0  0  0  0  0  0  0  0  0  0  # atno 17395 bound_to 11000

$$$$
