AV-unprocessed.smi:1960|AV-procd|sdf|7917|dock3
  -GOLD-   2272010 83D 1   1.00000     0.00000
 Structure written by MMmdl.
 39 40  0  0  0  0  0  0  0  0  2 V2000
  147.1927  133.3299  157.3575 C   0  0  0  0  0  0  0  0  0  0  0  0
  148.8751  133.1904  158.0881 S   0  0  0  0  0  0  0  0  0  0  0  0
  149.3413  134.5435  158.4278 O   0  0  0  0  0  0  0  0  0  0  0  0
  148.8389  132.1495  159.1269 O   0  0  0  0  0  0  0  0  0  0  0  0
  149.8586  132.6013  156.7785 N   0  0  0  0  0  0  0  0  0  0  0  0
  149.7009  131.2114  156.3053 C   0  0  0  0  0  0  0  0  0  0  0  0
  148.8760  131.1411  155.0080 C   0  0  0  0  0  0  0  0  0  0  0  0
  149.4609  132.0582  153.9203 C   0  0  0  0  0  0  0  0  0  0  0  0
  148.6296  132.0412  152.7195 N   0  0  0  0  0  0  0  0  0  0  0  0
  147.3487  132.4336  152.6615 C   0  0  0  0  0  0  0  0  0  0  0  0
  146.7279  132.8693  153.6307 O   0  0  0  0  0  0  0  0  0  0  0  0
  146.8558  132.3069  151.4170 N   0  0  0  0  0  0  0  0  0  0  0  0
  145.5468  132.6042  150.9483 C   0  0  0  0  0  0  0  0  0  0  0  0
  145.2613  132.3344  149.5913 C   0  0  0  0  0  0  0  0  0  0  0  0
  143.9720  132.5984  149.0855 C   0  0  0  0  0  0  0  0  0  0  0  0
  143.0185  133.0966  149.9015 N   0  3  0  0  0  0  0  0  0  0  0  0
  143.2391  133.3570  151.2080 C   0  0  0  0  0  0  0  0  0  0  0  0
  144.5088  133.1132  151.7703 C   0  0  0  0  0  0  0  0  0  0  0  0
  149.5594  133.4903  154.4654 C   0  0  0  0  0  0  0  0  0  0  0  0
  150.3805  133.5412  155.7659 C   0  0  0  0  0  0  0  0  0  0  0  0
  146.5049  133.6979  158.1182 H   0  0  0  0  0  0  0  0  0  0  0  0
  146.8532  132.3528  157.0185 H   0  0  0  0  0  0  0  0  0  0  0  0
  147.2062  134.0313  156.5252 H   0  0  0  0  0  0  0  0  0  0  0  0
  150.6930  130.7946  156.1279 H   0  0  0  0  0  0  0  0  0  0  0  0
  149.2436  130.5958  157.0793 H   0  0  0  0  0  0  0  0  0  0  0  0
  148.8500  130.1094  154.6555 H   0  0  0  0  0  0  0  0  0  0  0  0
  147.8417  131.4179  155.2095 H   0  0  0  0  0  0  0  0  0  0  0  0
  150.4662  131.7168  153.6653 H   0  0  0  0  0  0  0  0  0  0  0  0
  149.0638  131.7021  151.8736 H   0  0  0  0  0  0  0  0  0  0  0  0
  147.5131  132.0140  150.7091 H   0  0  0  0  0  0  0  0  0  0  0  0
  146.0233  131.9343  148.9381 H   0  0  0  0  0  0  0  0  0  0  0  0
  143.6766  132.4254  148.0610 H   0  0  0  0  0  0  0  0  0  0  0  0
  142.3970  133.7438  151.7633 H   0  0  0  0  0  0  0  0  0  0  0  0
  144.6561  133.3091  152.8214 H   0  0  0  0  0  0  0  0  0  0  0  0
  150.0204  134.1405  153.7209 H   0  0  0  0  0  0  0  0  0  0  0  0
  148.5616  133.8910  154.6411 H   0  0  0  0  0  0  0  0  0  0  0  0
  150.4003  134.5557  156.1628 H   0  0  0  0  0  0  0  0  0  0  0  0
  151.4165  133.2756  155.5529 H   0  0  0  0  0  0  0  0  0  0  0  0
  142.0913  133.2793  149.5166 H   0  0  0  0  0  0  0  0  0  0  0  0
  1  2  1  0  0  0  0
  1 21  1  0  0  0  0
  1 22  1  0  0  0  0
  1 23  1  0  0  0  0
  2  3  2  0  0  0  0
  2  4  2  0  0  0  0
  2  5  1  0  0  0  0
  5 20  1  0  0  0  0
  5  6  1  0  0  0  0
  6  7  1  0  0  0  0
  6 24  1  0  0  0  0
  6 25  1  0  0  0  0
  7  8  1  0  0  0  0
  7 26  1  0  0  0  0
  7 27  1  0  0  0  0
  8  9  1  0  0  0  0
  8 19  1  0  0  0  0
  8 28  1  0  0  0  0
  9 10  1  0  0  0  0
  9 29  1  0  0  0  0
 10 11  2  0  0  0  0
 10 12  1  0  0  0  0
 12 13  1  0  0  0  0
 12 30  1  0  0  0  0
 13 18  1  0  0  0  0
 13 14  2  0  0  0  0
 14 15  1  0  0  0  0
 14 31  1  0  0  0  0
 15 16  2  0  0  0  0
 15 32  1  0  0  0  0
 16 17  1  0  0  0  0
 16 39  1  0  0  0  0
 17 18  2  0  0  0  0
 17 33  1  0  0  0  0
 18 34  1  0  0  0  0
 19 20  1  0  0  0  0
 19 35  1  0  0  0  0
 19 36  1  0  0  0  0
 20 37  1  0  0  0  0
 20 38  1  0  0  0  0
M  CHG  1  16   1
M  END
> <s_m_source_file>
AV-unprocessed.smi

> <i_m_source_file_index>
1960

> <i_lp_mmshare_version>
43012

> <i_f3d_flags>
0

> <s_epik_input>
W0NIM11TKD1PKSg9TylOMVtDSDJdW0NIMl1bQ0hdKFtDSDJdW0NIMl0xKVtOSF1DKD1PKVtOSF1jMltjSF1bY0hdbltjSF1bY0hdMg==

> <s_epik_cmdline>
J2VwaWtfcHl0aG9uJywgJy1waCcsICc3LjAnLCAnLXRuJywgJzgnLCAnLW1hJywgJzIwMCcsICctbWV0YWxfYmluZGluZycsICctaW1hZScsICc8aW5maWxlLm1hZT4nLCAnLW9tYWUnLCAnPG91dGZpbGUubWFlPic=

> <r_epik_Ionization_Penalty>
1.01996

> <r_epik_Ionization_Penalty_Charging>
1.01994

> <r_epik_Ionization_Penalty_Neutral>
1.92463e-05

> <r_epik_State_Penalty>
1.07014

> <r_epik_Charging_Adjusted_Penalty>
2.09007

> <i_epik_Tot_Q>
1

> <i_epik_Tot_abs_Q>
1

> <r_epik_Metal_State_Penalty>
1.16909

> <b_epik_Metal_Only>
0

> <s_lp_Force_Field>
OPLS_2005

> <r_lp_Energy>
12.0857

> <b_lp_Chiralities_Consistent>
1

> <s_lp_Variant>
AV-unprocessed.smi:1960-2

> <Gold.Version>
5.8.1

> <Gold.Id.Protein>
6NUR|6NUR_protein|mol2

> <Gold.PLP.Fitness>
44.7501

> <Gold.PLP.PLP>
-31.7477

> <Gold.PLP.part.hbond>
-4.2938

> <Gold.PLP.part.metal>
0.0000

> <Gold.PLP.part.buried>
-3.5147

> <Gold.PLP.part.nonpolar>
-24.8389

> <Gold.PLP.part.repulsive>
0.1946

> <Gold.PLP.ligand.clash>
0.0000

> <Gold.PLP.ligand.torsion>
1.0287

> <Gold.PLP.Chemscore.Hbond>
4.3360

> <Gold.PLP.Chemscore.CHOScore>
0.0000

> <Gold.PLP.Chemscore.Metal>
0.0000

> <Gold.Chemscore.Hbonds>
donor molecule, donor type, donor heavy atom, donor atom, acceptor molecule, acceptor atom, score
      L1  H     9    29       P1 10747  1.00
      L1  H    12    30       P1 10747  0.94
      L1  H    16    39       P1 10186  1.57
      P1  H  6896  6907       L1     3  1.00

> <Gold.PLP.Chemscore.Internal.Correction>
2.0518

> <Gold.Rescore>
     Score         DG    S(hbond)    S(metal)    S(lipo)     H(rot)  DE(clash)    DE(int)     intcor
     18.59     -22.00       3.43        0.00      65.04       1.00       0.07       3.34       ----

> <Gold.Chemscore.Fitness>
18.5884

> <Gold.Chemscore.DG>
-21.9965

> <Gold.Chemscore.ZeroCoef>
-5.4800

> <Gold.Chemscore.Hbond>
3.4332

> <Gold.Chemscore.Metal>
0.0000

> <Gold.Chemscore.Lipo>
65.0393

> <Gold.Chemscore.Internal_Hbond>
0.0000

> <Gold.Chemscore.DEClash>
0.0727

> <Gold.Chemscore.DEInternal>
3.3354

> <Gold.Chemscore.Rot>
1.0000

> <Gold.Chemscore.Internal.Correction>
   9.000000E+99

> <Gold.Chemscore.Hbonds>
donor molecule, donor type, donor heavy atom, donor atom, acceptor molecule, acceptor atom, score
      L1  H     9    29       P1 10747  0.72
      L1  H    12    30       P1 10747  0.91
      L1  H    16    39       P1 10186  0.75
      P1  H  6896  6907       L1     3  0.60

> <Gold.Chemscore.Hbond.Weighted>
-11.4669

> <Gold.Chemscore.Metal.Weighted>
-0.0000

> <Gold.Chemscore.Lipo.Weighted>
-7.6096

> <Gold.Chemscore.Internal_Hbond.Weighted>
0.0000

> <Gold.Chemscore.DEClash.Weighted>
0.0727

> <Gold.Chemscore.DEInternal.Weighted>
3.3354

> <Gold.Chemscore.Rot.Weighted>
2.5600

> <Gold.Chemscore.Internal.Correction.Weighted>
   9.000000E+99

> <Gold.Protein.RotatedTorsions>
[ 6907 6896 6895 6894 ] final  -83.42 input  -60.11 | X-H torsion
[ 7974 7965 7964 7962 ] final  -38.17 input  175.53 | X-H torsion
[ 8008 7997 7996 7995 ] final   24.68 input   59.86 | X-H torsion
[ 10167 10162 10161 10158 ] final  -73.55 input  -65.29 | X-H torsion
[ 10718 10713 10712 10709 ] final   45.19 input   66.30 | X-H torsion
[ 10763 10752 10751 10750 ] final -171.14 input  -60.55 | X-H torsion
[ 11005 11000 10999 10996 ] final -170.84 input  -57.11 | X-H torsion

> <Gold.Protein.ActiveResidues>
 VAL166  LYS551  ARG553  GLY616  TRP617  ASP618  TYR619  PRO620  LYS621  CYS622 
 ASP623  PHE694  ASN695  SER759  ASP760  ASP761  ALA762  ILE779  LEU786  VAL792 
 PHE793  MET794  SER795  GLU796  ALA797  LYS798  CYS799  TRP800  GLU811  SER814 

> <Gold.Protein.RotatedAtoms>
  150.6886  134.3515  159.4910 H   0  0  0  0  0  0  0  0  0  0  0  0  # atno 6907 bound_to 6896
  152.1355  134.9099  160.0566 H   0  0  0  0  0  0  0  0  0  0  0  0  # atno 6908 bound_to 6896
  152.0253  133.3880  159.4312 H   0  0  0  0  0  0  0  0  0  0  0  0  # atno 6909 bound_to 6896
  146.0510  140.6481  142.9042 H   0  0  0  0  0  0  0  0  0  0  0  0  # atno 7974 bound_to 7965
  155.0001  140.3124  155.4871 H   0  0  0  0  0  0  0  0  0  0  0  0  # atno 8008 bound_to 7997
  156.2926  140.2233  156.5051 H   0  0  0  0  0  0  0  0  0  0  0  0  # atno 8009 bound_to 7997
  154.7626  140.0458  157.0974 H   0  0  0  0  0  0  0  0  0  0  0  0  # atno 8010 bound_to 7997
  140.5101  143.2346  151.7608 H   0  0  0  0  0  0  0  0  0  0  0  0  # atno 10167 bound_to 10162
  157.4349  130.8047  149.7638 H   0  0  0  0  0  0  0  0  0  0  0  0  # atno 10718 bound_to 10713
  154.6338  135.2890  155.0185 H   0  0  0  0  0  0  0  0  0  0  0  0  # atno 10763 bound_to 10752
  154.1336  135.6529  153.4931 H   0  0  0  0  0  0  0  0  0  0  0  0  # atno 10764 bound_to 10752
  153.0292  135.5316  154.7176 H   0  0  0  0  0  0  0  0  0  0  0  0  # atno 10765 bound_to 10752
  140.5150  134.5765  157.5030 H   0  0  0  0  0  0  0  0  0  0  0  0  # atno 11005 bound_to 11000
  144.7122  140.4082  143.7071 LP  0  0  0  0  0  0  0  0  0  0  0  0  # atno 17320 bound_to 7965
  145.6724  139.1602  143.2747 LP  0  0  0  0  0  0  0  0  0  0  0  0  # atno 17321 bound_to 7965
  139.4894  144.4403  151.9772 LP  0  0  0  0  0  0  0  0  0  0  0  0  # atno 17342 bound_to 10162
  140.3494  144.3107  150.5952 LP  0  0  0  0  0  0  0  0  0  0  0  0  # atno 17343 bound_to 10162
  155.9927  130.3929  150.2932 LP  0  0  0  0  0  0  0  0  0  0  0  0  # atno 17370 bound_to 10713
  157.1092  131.0217  151.3055 LP  0  0  0  0  0  0  0  0  0  0  0  0  # atno 17371 bound_to 10713
  139.9638  134.7408  156.0182 LP  0  0  0  0  0  0  0  0  0  0  0  0  # atno 17394 bound_to 11000
  141.1365  133.6574  156.3609 LP  0  0  0  0  0  0  0  0  0  0  0  0  # atno 17395 bound_to 11000

$$$$
