AV-unprocessed.smi:2778|AV-procd|sdf|10710|dock2
  -GOLD-   2272015143D 1   1.00000     0.00000
 Structure written by MMmdl.
 37 38  0  0  0  0  0  0  0  0  1 V2000
  151.8478  145.7138  159.8344 C   0  0  0  0  0  0  0  0  0  0  0  0
  151.5119  144.5896  159.0348 O   0  0  0  0  0  0  0  0  0  0  0  0
  152.0321  143.3588  159.3856 C   0  0  0  0  0  0  0  0  0  0  0  0
  152.9299  143.1649  160.4662 C   0  0  0  0  0  0  0  0  0  0  0  0
  153.4059  141.8721  160.7455 C   0  0  0  0  0  0  0  0  0  0  0  0
  152.9676  140.8125  159.9316 C   0  0  0  0  0  0  0  0  0  0  0  0
  153.4389  139.3939  160.1740 C   0  0  0  0  0  0  0  0  0  0  0  0
  152.1142  140.9841  158.9022 N   0  0  0  0  0  0  0  0  0  0  0  0
  151.6472  142.2263  158.6227 C   0  0  0  0  0  0  0  0  0  0  0  0
  150.7438  142.4901  157.5577 N   0  0  0  0  0  0  0  0  0  0  0  0
  150.5123  141.7640  156.4462 C   0  0  0  0  0  0  0  0  0  0  0  0
  151.0900  140.7172  156.1583 O   0  0  0  0  0  0  0  0  0  0  0  0
  149.5805  142.2921  155.6312 N   0  0  0  0  0  0  0  0  0  0  0  0
  149.0944  141.7638  154.3537 C   0  0  0  0  0  0  0  0  0  0  0  0
  147.6958  142.3222  154.0303 C   0  0  0  0  0  0  0  0  0  0  0  0
  146.8578  141.1260  153.5774 C   0  0  0  0  0  0  0  0  0  0  0  0
  147.4403  139.9474  154.3502 C   0  0  0  0  0  0  0  0  0  0  0  0
  148.9431  140.2282  154.3866 C   0  0  0  0  0  0  0  0  0  0  0  0
  151.3665  146.6021  159.4253 H   0  0  0  0  0  0  0  0  0  0  0  0
  152.9236  145.8944  159.8376 H   0  0  0  0  0  0  0  0  0  0  0  0
  151.4977  145.5924  160.8603 H   0  0  0  0  0  0  0  0  0  0  0  0
  153.2634  143.9818  161.0879 H   0  0  0  0  0  0  0  0  0  0  0  0
  154.0893  141.7031  161.5645 H   0  0  0  0  0  0  0  0  0  0  0  0
  154.1808  139.3540  160.9721 H   0  0  0  0  0  0  0  0  0  0  0  0
  153.8903  138.9836  159.2701 H   0  0  0  0  0  0  0  0  0  0  0  0
  152.5987  138.7596  160.4573 H   0  0  0  0  0  0  0  0  0  0  0  0
  150.2060  143.3390  157.6533 H   0  0  0  0  0  0  0  0  0  0  0  0
  149.1875  143.1776  155.9158 H   0  0  0  0  0  0  0  0  0  0  0  0
  149.7789  142.0458  153.5514 H   0  0  0  0  0  0  0  0  0  0  0  0
  147.2390  142.7544  154.9222 H   0  0  0  0  0  0  0  0  0  0  0  0
  147.7300  143.1071  153.2742 H   0  0  0  0  0  0  0  0  0  0  0  0
  145.7926  141.2656  153.7623 H   0  0  0  0  0  0  0  0  0  0  0  0
  146.9931  140.9653  152.5070 H   0  0  0  0  0  0  0  0  0  0  0  0
  147.0428  139.9429  155.3660 H   0  0  0  0  0  0  0  0  0  0  0  0
  147.2030  138.9858  153.8940 H   0  0  0  0  0  0  0  0  0  0  0  0
  149.4114  139.8041  153.4973 H   0  0  0  0  0  0  0  0  0  0  0  0
  149.4193  139.7614  155.2499 H   0  0  0  0  0  0  0  0  0  0  0  0
  1  2  1  0  0  0  0
  1 19  1  0  0  0  0
  1 20  1  0  0  0  0
  1 21  1  0  0  0  0
  2  3  1  0  0  0  0
  3  9  1  0  0  0  0
  3  4  2  0  0  0  0
  4  5  1  0  0  0  0
  4 22  1  0  0  0  0
  5  6  2  0  0  0  0
  5 23  1  0  0  0  0
  6  7  1  0  0  0  0
  6  8  1  0  0  0  0
  7 24  1  0  0  0  0
  7 25  1  0  0  0  0
  7 26  1  0  0  0  0
  8  9  2  0  0  0  0
  9 10  1  0  0  0  0
 10 11  1  0  0  0  0
 10 27  1  0  0  0  0
 11 12  2  0  0  0  0
 11 13  1  0  0  0  0
 13 14  1  0  0  0  0
 13 28  1  0  0  0  0
 14 18  1  0  0  0  0
 14 15  1  0  0  0  0
 14 29  1  0  0  0  0
 15 16  1  0  0  0  0
 15 30  1  0  0  0  0
 15 31  1  0  0  0  0
 16 17  1  0  0  0  0
 16 32  1  0  0  0  0
 16 33  1  0  0  0  0
 17 18  1  0  0  0  0
 17 34  1  0  0  0  0
 17 35  1  0  0  0  0
 18 36  1  0  0  0  0
 18 37  1  0  0  0  0
M  END
> <s_m_source_file>
AV-unprocessed.smi

> <i_m_source_file_index>
2778

> <i_lp_mmshare_version>
43012

> <i_f3d_flags>
0

> <s_epik_input>
W0NIM11PYzFbY0hdW2NIXWMoW0NIM10pbmMxW05IXUMoPU8pW05IXVtDSF0yW0NIMl1bQ0gyXVtDSDJdW0NIMl0y

> <s_epik_cmdline>
J2VwaWtfcHl0aG9uJywgJy1waCcsICc3LjAnLCAnLXRuJywgJzgnLCAnLW1hJywgJzIwMCcsICctbWV0YWxfYmluZGluZycsICctaW1hZScsICc8aW5maWxlLm1hZT4nLCAnLW9tYWUnLCAnPG91dGZpbGUubWFlPic=

> <r_lp_tautomer_probability>
1

> <r_epik_Ionization_Penalty>
6.53997e-05

> <r_epik_Ionization_Penalty_Charging>
0

> <r_epik_Ionization_Penalty_Neutral>
6.53997e-05

> <r_epik_State_Penalty>
-0

> <r_epik_Charging_Adjusted_Penalty>
0

> <i_epik_Tot_Q>
0

> <i_epik_Tot_abs_Q>
0

> <r_epik_Metal_State_Penalty>
-0

> <b_epik_Metal_Only>
0

> <s_lp_Force_Field>
OPLS_2005

> <r_lp_Energy>
34.0049

> <b_lp_Chiralities_Consistent>
1

> <s_lp_Variant>
AV-unprocessed.smi:2778-1

> <Gold.Version>
5.8.1

> <Gold.Id.Protein>
6NUR|6NUR_protein|mol2

> <Gold.PLP.Fitness>
42.3661

> <Gold.PLP.PLP>
-40.3248

> <Gold.PLP.part.hbond>
-1.0000

> <Gold.PLP.part.metal>
0.0000

> <Gold.PLP.part.buried>
-5.3843

> <Gold.PLP.part.nonpolar>
-34.0735

> <Gold.PLP.part.repulsive>
0.2670

> <Gold.PLP.ligand.clash>
0.0000

> <Gold.PLP.ligand.torsion>
0.4223

> <Gold.PLP.Chemscore.Hbond>
0.9600

> <Gold.PLP.Chemscore.CHOScore>
0.0000

> <Gold.PLP.Chemscore.Metal>
0.0000

> <Gold.Chemscore.Hbonds>
donor molecule, donor type, donor heavy atom, donor atom, acceptor molecule, acceptor atom, score
      L1  H    13    28       P1  8028  1.00

> <Gold.PLP.Chemscore.Internal.Correction>
0.0058

> <Gold.Rescore>
     Score         DG    S(hbond)    S(metal)    S(lipo)     H(rot)  DE(clash)    DE(int)     intcor
     15.05     -16.78       0.92        0.00      96.75       1.21       0.37       1.36       ----

> <Gold.Chemscore.Fitness>
15.0492

> <Gold.Chemscore.DG>
-16.7751

> <Gold.Chemscore.ZeroCoef>
-5.4800

> <Gold.Chemscore.Hbond>
0.9203

> <Gold.Chemscore.Metal>
0.0000

> <Gold.Chemscore.Lipo>
96.7498

> <Gold.Chemscore.Internal_Hbond>
0.0000

> <Gold.Chemscore.DEClash>
0.3686

> <Gold.Chemscore.DEInternal>
1.3574

> <Gold.Chemscore.Rot>
1.2103

> <Gold.Chemscore.Internal.Correction>
   9.000000E+99

> <Gold.Chemscore.Hbonds>
donor molecule, donor type, donor heavy atom, donor atom, acceptor molecule, acceptor atom, score
      L1  H    13    28       P1  8028  0.94

> <Gold.Chemscore.Hbond.Weighted>
-3.0739

> <Gold.Chemscore.Metal.Weighted>
-0.0000

> <Gold.Chemscore.Lipo.Weighted>
-11.3197

> <Gold.Chemscore.Internal_Hbond.Weighted>
0.0000

> <Gold.Chemscore.DEClash.Weighted>
0.3686

> <Gold.Chemscore.DEInternal.Weighted>
1.3574

> <Gold.Chemscore.Rot.Weighted>
3.0984

> <Gold.Chemscore.Internal.Correction.Weighted>
   9.000000E+99

> <Gold.Protein.RotatedTorsions>
[ 6907 6896 6895 6894 ] final -158.77 input  -60.11 | X-H torsion
[ 7974 7965 7964 7962 ] final -176.34 input  175.53 | X-H torsion
[ 8008 7997 7996 7995 ] final -157.77 input   59.86 | X-H torsion
[ 10167 10162 10161 10158 ] final  165.91 input  -65.29 | X-H torsion
[ 10718 10713 10712 10709 ] final  107.17 input   66.30 | X-H torsion
[ 10763 10752 10751 10750 ] final  -40.11 input  -60.55 | X-H torsion
[ 11005 11000 10999 10996 ] final  -46.99 input  -57.11 | X-H torsion

> <Gold.Protein.ActiveResidues>
 VAL166  LYS551  ARG553  GLY616  TRP617  ASP618  TYR619  PRO620  LYS621  CYS622 
 ASP623  PHE694  ASN695  SER759  ASP760  ASP761  ALA762  ILE779  LEU786  VAL792 
 PHE793  MET794  SER795  GLU796  ALA797  LYS798  CYS799  TRP800  GLU811  SER814 

> <Gold.Protein.RotatedAtoms>
  151.3233  133.4031  159.2656 H   0  0  0  0  0  0  0  0  0  0  0  0  # atno 6907 bound_to 6896
  151.0016  134.9327  159.7967 H   0  0  0  0  0  0  0  0  0  0  0  0  # atno 6908 bound_to 6896
  152.5276  134.3198  159.9196 H   0  0  0  0  0  0  0  0  0  0  0  0  # atno 6909 bound_to 6896
  144.7127  140.1184  143.6407 H   0  0  0  0  0  0  0  0  0  0  0  0  # atno 7974 bound_to 7965
  155.7375  140.0810  157.2261 H   0  0  0  0  0  0  0  0  0  0  0  0  # atno 8008 bound_to 7997
  154.4025  140.1584  156.2633 H   0  0  0  0  0  0  0  0  0  0  0  0  # atno 8009 bound_to 7997
  155.9052  140.3407  155.6059 H   0  0  0  0  0  0  0  0  0  0  0  0  # atno 8010 bound_to 7997
  139.4914  144.4083  151.9329 H   0  0  0  0  0  0  0  0  0  0  0  0  # atno 10167 bound_to 10162
  157.6639  131.0867  150.6116 H   0  0  0  0  0  0  0  0  0  0  0  0  # atno 10718 bound_to 10713
  153.9405  135.6762  153.4744 H   0  0  0  0  0  0  0  0  0  0  0  0  # atno 10763 bound_to 10752
  153.0934  135.4863  154.8730 H   0  0  0  0  0  0  0  0  0  0  0  0  # atno 10764 bound_to 10752
  154.7380  135.3153  154.8737 H   0  0  0  0  0  0  0  0  0  0  0  0  # atno 10765 bound_to 10752
  141.0613  133.6708  156.3234 H   0  0  0  0  0  0  0  0  0  0  0  0  # atno 11005 bound_to 11000
  145.9392  139.2658  143.1279 LP  0  0  0  0  0  0  0  0  0  0  0  0  # atno 17320 bound_to 7965
  145.9441  140.8958  143.0292 LP  0  0  0  0  0  0  0  0  0  0  0  0  # atno 17321 bound_to 7965
  140.3524  144.3073  150.5947 LP  0  0  0  0  0  0  0  0  0  0  0  0  # atno 17342 bound_to 10162
  140.5474  143.2212  151.7984 LP  0  0  0  0  0  0  0  0  0  0  0  0  # atno 17343 bound_to 10162
  156.6417  130.4460  149.5750 LP  0  0  0  0  0  0  0  0  0  0  0  0  # atno 17370 bound_to 10713
  156.2204  130.6733  151.1362 LP  0  0  0  0  0  0  0  0  0  0  0  0  # atno 17371 bound_to 10713
  140.5863  134.5696  157.5490 LP  0  0  0  0  0  0  0  0  0  0  0  0  # atno 17394 bound_to 11000
  139.9435  134.7743  156.0619 LP  0  0  0  0  0  0  0  0  0  0  0  0  # atno 17395 bound_to 11000

$$$$
