AV-unprocessed.smi:179|AV-procd|sdf|1449|dock5
  -GOLD-   2262019243D 1   1.00000     0.00000
 Structure written by MMmdl.
 44 47  0  0  0  0  0  0  0  0  1 V2000
  144.3816  135.5722  149.6444 O   0  0  0  0  0  0  0  0  0  0  0  0
  144.1774  135.0038  150.9226 C   0  0  0  0  0  0  0  0  0  0  0  0
  144.8534  133.6264  151.0737 C   0  0  0  0  0  0  0  0  0  0  0  0
  143.9500  132.5958  150.3706 C   0  0  0  0  0  0  0  0  0  0  0  0
  142.6627  132.5495  150.9528 O   0  0  0  0  0  0  0  0  0  0  0  0
  146.3580  133.5342  150.7242 C   0  0  0  0  0  0  0  0  0  0  0  0
  146.5733  132.6308  151.9411 C   0  0  0  0  0  0  0  0  0  0  0  0
  147.8010  132.6632  152.6868 N   0  0  0  0  0  0  0  0  0  0  0  0
  148.4968  133.7897  153.0666 C   0  0  0  0  0  0  0  0  0  0  0  0
  149.5886  133.5702  153.7470 N   0  0  0  0  0  0  0  0  0  0  0  0
  149.6520  132.1868  153.8474 C   0  0  0  0  0  0  0  0  0  0  0  0
  150.5738  131.2945  154.4588 C   0  0  0  0  0  0  0  0  0  0  0  0
  151.7266  131.7620  155.1490 N   0  0  0  0  0  0  0  0  0  0  0  0
  151.4722  132.6759  156.2586 C   0  0  0  0  0  0  0  0  0  0  0  0
  152.1226  131.6611  157.2030 C   0  0  0  0  0  0  0  0  0  0  0  0
  153.3050  132.1027  157.8391 O   0  0  0  0  0  0  0  0  0  0  0  0
  151.2845  131.1022  158.3596 C   0  0  0  0  0  0  0  0  0  0  0  0
  150.1260  130.6209  157.9066 F   0  0  0  0  0  0  0  0  0  0  0  0
  151.9235  130.1272  159.0039 F   0  0  0  0  0  0  0  0  0  0  0  0
  152.3675  130.7573  155.9900 C   0  0  0  0  0  0  0  0  0  0  0  0
  150.3020  129.9664  154.3458 N   0  0  0  0  0  0  0  0  0  0  0  0
  149.2169  129.5419  153.6921 C   0  0  0  0  0  0  0  0  0  0  0  0
  148.2777  130.2645  153.0813 N   0  0  0  0  0  0  0  0  0  0  0  0
  148.5371  131.5989  153.1844 C   0  0  0  0  0  0  0  0  0  0  0  0
  145.2770  133.2197  152.5052 C   0  0  0  0  0  0  0  0  0  0  0  0
  144.1314  136.4829  149.6766 H   0  0  0  0  0  0  0  0  0  0  0  0
  144.5585  135.7060  151.6648 H   0  0  0  0  0  0  0  0  0  0  0  0
  143.1009  134.9324  151.0802 H   0  0  0  0  0  0  0  0  0  0  0  0
  143.8282  132.8327  149.3134 H   0  0  0  0  0  0  0  0  0  0  0  0
  144.3884  131.5981  150.4104 H   0  0  0  0  0  0  0  0  0  0  0  0
  142.0913  133.1241  150.4663 H   0  0  0  0  0  0  0  0  0  0  0  0
  146.5812  133.0558  149.7701 H   0  0  0  0  0  0  0  0  0  0  0  0
  146.8829  134.4865  150.8059 H   0  0  0  0  0  0  0  0  0  0  0  0
  146.4119  131.5891  151.6581 H   0  0  0  0  0  0  0  0  0  0  0  0
  148.1674  134.7896  152.8240 H   0  0  0  0  0  0  0  0  0  0  0  0
  152.0354  133.6045  156.1611 H   0  0  0  0  0  0  0  0  0  0  0  0
  150.4193  132.8669  156.4695 H   0  0  0  0  0  0  0  0  0  0  0  0
  153.7395  131.3337  158.1754 H   0  0  0  0  0  0  0  0  0  0  0  0
  151.0523  131.8646  159.1044 H   0  0  0  0  0  0  0  0  0  0  0  0
  151.8430  129.8017  156.0316 H   0  0  0  0  0  0  0  0  0  0  0  0
  153.4218  130.6277  155.7428 H   0  0  0  0  0  0  0  0  0  0  0  0
  149.0826  128.4710  153.6524 H   0  0  0  0  0  0  0  0  0  0  0  0
  145.4515  134.0661  153.1700 H   0  0  0  0  0  0  0  0  0  0  0  0
  144.6251  132.4880  152.9834 H   0  0  0  0  0  0  0  0  0  0  0  0
  1  2  1  0  0  0  0
  1 26  1  0  0  0  0
  2  3  1  0  0  0  0
  2 27  1  0  0  0  0
  2 28  1  0  0  0  0
  3 25  1  0  0  0  0
  3  4  1  0  0  0  0
  3  6  1  0  0  0  0
  4  5  1  0  0  0  0
  4 29  1  0  0  0  0
  4 30  1  0  0  0  0
  5 31  1  0  0  0  0
  6  7  1  0  0  0  0
  6 32  1  0  0  0  0
  6 33  1  0  0  0  0
  7  8  1  0  0  0  0
  7 25  1  0  0  0  0
  7 34  1  0  0  0  0
  8 24  1  0  0  0  0
  8  9  1  0  0  0  0
  9 10  2  0  0  0  0
  9 35  1  0  0  0  0
 10 11  1  0  0  0  0
 11 24  2  0  0  0  0
 11 12  1  0  0  0  0
 12 13  1  0  0  0  0
 12 21  2  0  0  0  0
 13 20  1  0  0  0  0
 13 14  1  0  0  0  0
 14 15  1  0  0  0  0
 14 36  1  0  0  0  0
 14 37  1  0  0  0  0
 15 16  1  0  0  0  0
 15 17  1  0  0  0  0
 15 20  1  0  0  0  0
 16 38  1  0  0  0  0
 17 18  1  0  0  0  0
 17 19  1  0  0  0  0
 17 39  1  0  0  0  0
 20 40  1  0  0  0  0
 20 41  1  0  0  0  0
 21 22  1  0  0  0  0
 22 23  2  0  0  0  0
 22 42  1  0  0  0  0
 23 24  1  0  0  0  0
 25 43  1  0  0  0  0
 25 44  1  0  0  0  0
M  END
> <s_m_source_file>
AV-unprocessed.smi

> <i_m_source_file_index>
179

> <i_lp_mmshare_version>
43012

> <i_f3d_flags>
0

> <s_epik_input>
W09IXVtDSDJdQzEoW0NIMl1bT0hdKVtDSDJdW0NIXShbQ0gyXTEpbihbY0hdbjIpYyhjMjMpbltjSF1uYzNOKFtDSDJdNClbQ0gyXUM0KFtPSF0pW0NIXShGKUY=

> <s_epik_cmdline>
J2VwaWtfcHl0aG9uJywgJy1waCcsICc3LjAnLCAnLXRuJywgJzgnLCAnLW1hJywgJzIwMCcsICctbWV0YWxfYmluZGluZycsICctaW1hZScsICc8aW5maWxlLm1hZT4nLCAnLW9tYWUnLCAnPG91dGZpbGUubWFlPic=

> <r_lp_tautomer_probability>
1

> <r_epik_Ionization_Penalty>
0.00851647

> <r_epik_Ionization_Penalty_Charging>
0

> <r_epik_Ionization_Penalty_Neutral>
0.00851647

> <r_epik_State_Penalty>
0.00617896

> <r_epik_Charging_Adjusted_Penalty>
0.00617896

> <i_epik_Tot_Q>
0

> <i_epik_Tot_abs_Q>
0

> <r_epik_Metal_State_Penalty>
0.00609441

> <b_epik_Metal_Only>
0

> <s_lp_Force_Field>
OPLS_2005

> <r_lp_Energy>
53.402

> <b_lp_Chiralities_Consistent>
1

> <s_lp_Variant>
AV-unprocessed.smi:179-1

> <Gold.Version>
5.8.1

> <Gold.Id.Protein>
6NUR|6NUR_protein|mol2

> <Gold.PLP.Fitness>
49.5541

> <Gold.PLP.PLP>
-38.5191

> <Gold.PLP.part.hbond>
-4.5631

> <Gold.PLP.part.metal>
0.0000

> <Gold.PLP.part.buried>
-6.0099

> <Gold.PLP.part.nonpolar>
-28.8925

> <Gold.PLP.part.repulsive>
0.3999

> <Gold.PLP.ligand.clash>
0.0000

> <Gold.PLP.ligand.torsion>
0.8245

> <Gold.PLP.Chemscore.Hbond>
3.0000

> <Gold.PLP.Chemscore.CHOScore>
1.0000

> <Gold.PLP.Chemscore.Metal>
0.0000

> <Gold.Chemscore.Hbonds>
donor molecule, donor type, donor heavy atom, donor atom, acceptor molecule, acceptor atom, score
      L1  H     1    26       P1 10171  0.84
      L1  H     5    31       P1 10186  1.00
      P1  H  6896  6908       L1    16  0.02
      L1  C     9    35       P1  7948  0.59

> <Gold.PLP.Chemscore.Internal.Correction>
0.6840

> <Gold.Rescore>
     Score         DG    S(hbond)    S(metal)    S(lipo)     H(rot)  DE(clash)    DE(int)     intcor
      9.81     -10.93       2.79        0.00      59.37       4.22       0.26       0.86       ----

> <Gold.Chemscore.Fitness>
9.8074

> <Gold.Chemscore.DG>
-10.9263

> <Gold.Chemscore.ZeroCoef>
-5.4800

> <Gold.Chemscore.Hbond>
2.7879

> <Gold.Chemscore.Metal>
0.0000

> <Gold.Chemscore.Lipo>
59.3651

> <Gold.Chemscore.Internal_Hbond>
0.0000

> <Gold.Chemscore.DEClash>
0.2587

> <Gold.Chemscore.DEInternal>
0.8602

> <Gold.Chemscore.Rot>
4.2230

> <Gold.Chemscore.Internal.Correction>
   9.000000E+99

> <Gold.Chemscore.Hbonds>
donor molecule, donor type, donor heavy atom, donor atom, acceptor molecule, acceptor atom, score
      L1  H     1    26       P1 10171  0.82
      L1  H     5    31       P1 10186  1.00

> <Gold.Chemscore.Hbond.Weighted>
-9.3116

> <Gold.Chemscore.Metal.Weighted>
-0.0000

> <Gold.Chemscore.Lipo.Weighted>
-6.9457

> <Gold.Chemscore.Internal_Hbond.Weighted>
0.0000

> <Gold.Chemscore.DEClash.Weighted>
0.2587

> <Gold.Chemscore.DEInternal.Weighted>
0.8602

> <Gold.Chemscore.Rot.Weighted>
10.8110

> <Gold.Chemscore.Internal.Correction.Weighted>
   9.000000E+99

> <Gold.Protein.RotatedTorsions>
[ 6907 6896 6895 6894 ] final   52.43 input  -60.11 | X-H torsion
[ 7974 7965 7964 7962 ] final   95.43 input  175.53 | X-H torsion
[ 8008 7997 7996 7995 ] final   86.78 input   59.86 | X-H torsion
[ 10167 10162 10161 10158 ] final   11.85 input  -65.29 | X-H torsion
[ 10718 10713 10712 10709 ] final  -94.51 input   66.30 | X-H torsion
[ 10763 10752 10751 10750 ] final  -58.72 input  -60.55 | X-H torsion
[ 11005 11000 10999 10996 ] final  -15.65 input  -57.11 | X-H torsion

> <Gold.Protein.ActiveResidues>
 VAL166  LYS551  ARG553  GLY616  TRP617  ASP618  TYR619  PRO620  LYS621  CYS622 
 ASP623  PHE694  ASN695  SER759  ASP760  ASP761  ALA762  ILE779  LEU786  VAL792 
 PHE793  MET794  SER795  GLU796  ALA797  LYS798  CYS799  TRP800  GLU811  SER814 

> <Gold.Protein.RotatedAtoms>
  152.3232  134.7354  160.0308 H   0  0  0  0  0  0  0  0  0  0  0  0  # atno 6907 bound_to 6896
  151.7796  133.3343  159.3475 H   0  0  0  0  0  0  0  0  0  0  0  0  # atno 6908 bound_to 6896
  150.7381  134.5875  159.6014 H   0  0  0  0  0  0  0  0  0  0  0  0  # atno 6909 bound_to 6896
  145.4523  139.2292  143.3033 H   0  0  0  0  0  0  0  0  0  0  0  0  # atno 7974 bound_to 7965
  155.9671  140.3388  155.6542 H   0  0  0  0  0  0  0  0  0  0  0  0  # atno 8008 bound_to 7997
  155.6723  140.0728  157.2533 H   0  0  0  0  0  0  0  0  0  0  0  0  # atno 8009 bound_to 7997
  154.4157  140.1689  156.1880 H   0  0  0  0  0  0  0  0  0  0  0  0  # atno 8010 bound_to 7997
  140.6106  143.8416  150.7061 H   0  0  0  0  0  0  0  0  0  0  0  0  # atno 10167 bound_to 10162
  156.0028  130.5071  150.5938 H   0  0  0  0  0  0  0  0  0  0  0  0  # atno 10718 bound_to 10713
  154.2426  135.6341  153.5212 H   0  0  0  0  0  0  0  0  0  0  0  0  # atno 10763 bound_to 10752
  152.9927  135.5545  154.5894 H   0  0  0  0  0  0  0  0  0  0  0  0  # atno 10764 bound_to 10752
  154.5403  135.2894  155.1076 H   0  0  0  0  0  0  0  0  0  0  0  0  # atno 10765 bound_to 10752
  140.7987  133.8230  155.9449 H   0  0  0  0  0  0  0  0  0  0  0  0  # atno 11005 bound_to 11000
  146.2497  140.5284  142.8898 LP  0  0  0  0  0  0  0  0  0  0  0  0  # atno 17320 bound_to 7965
  144.8053  140.6289  143.6451 LP  0  0  0  0  0  0  0  0  0  0  0  0  # atno 17321 bound_to 7965
  140.1984  143.3979  152.1810 LP  0  0  0  0  0  0  0  0  0  0  0  0  # atno 17342 bound_to 10162
  139.5358  144.7208  151.4899 LP  0  0  0  0  0  0  0  0  0  0  0  0  # atno 17343 bound_to 10162
  157.3798  131.0779  151.1486 LP  0  0  0  0  0  0  0  0  0  0  0  0  # atno 17370 bound_to 10713
  157.2213  130.6482  149.5812 LP  0  0  0  0  0  0  0  0  0  0  0  0  # atno 17371 bound_to 10713
  140.9316  134.2014  157.4860 LP  0  0  0  0  0  0  0  0  0  0  0  0  # atno 17394 bound_to 11000
  139.8724  134.9835  156.5200 LP  0  0  0  0  0  0  0  0  0  0  0  0  # atno 17395 bound_to 11000

$$$$
