AV-unprocessed.smi:99|AV-procd|sdf|865|dock9
  -GOLD-   2262017313D 1   1.00000     0.00000
 Structure written by MMmdl.
 53 56  0  0  0  0  0  0  0  0  1 V2000
  148.5577  132.9757  153.8427 O   0  0  0  0  0  0  0  0  0  0  0  0
  147.6462  133.7975  153.7320 C   0  0  0  0  0  0  0  0  0  0  0  0
  147.4931  134.8589  154.5470 O   0  0  0  0  0  0  0  0  0  0  0  0
  148.3019  135.0071  155.7032 C   0  0  0  0  0  0  0  0  0  0  0  0
  148.3694  136.4941  156.0734 C   0  0  2  0  0  0  0  0  0  0  0  0
  148.9922  137.2292  155.0240 O   0  0  0  0  0  0  0  0  0  0  0  0
  149.5869  138.3906  155.5356 C   0  0  1  0  0  0  0  0  0  0  0  0
  148.8761  139.6084  154.9793 N   0  0  0  0  0  0  0  0  0  0  0  0
  147.7783  139.5053  154.1336 C   0  0  0  0  0  0  0  0  0  0  0  0
  147.1276  140.5834  153.6354 C   0  0  0  0  0  0  0  0  0  0  0  0
  147.5610  141.9345  153.9773 C   0  0  0  0  0  0  0  0  0  0  0  0
  147.0379  142.9704  153.5727 O   0  0  0  0  0  0  0  0  0  0  0  0
  148.6609  141.9906  154.8378 N   0  0  0  0  0  0  0  0  0  0  0  0
  149.3368  140.8872  155.3607 C   0  0  0  0  0  0  0  0  0  0  0  0
  150.2877  141.0500  156.1246 O   0  0  0  0  0  0  0  0  0  0  0  0
  149.5250  138.3037  157.0791 C   0  0  1  0  0  0  0  0  0  0  0  0
  148.4788  139.0873  157.6357 O   0  0  0  0  0  0  0  0  0  0  0  0
  149.2665  136.8173  157.2672 C   0  0  1  0  0  0  0  0  0  0  0  0
  148.6955  136.5289  158.5414 O   0  0  0  0  0  0  0  0  0  0  0  0
  148.5589  135.2570  158.9780 C   0  0  0  0  0  0  0  0  0  0  0  0
  148.9053  134.2674  158.3301 O   0  0  0  0  0  0  0  0  0  0  0  0
  147.9025  135.1728  160.3133 C   0  0  0  0  0  0  0  0  0  0  0  0
  147.6633  136.3607  161.0427 C   0  0  0  0  0  0  0  0  0  0  0  0
  147.0690  136.3113  162.3184 C   0  0  0  0  0  0  0  0  0  0  0  0
  146.7039  135.0737  162.8787 C   0  0  0  0  0  0  0  0  0  0  0  0
  146.9337  133.8852  162.1618 C   0  0  0  0  0  0  0  0  0  0  0  0
  147.5297  133.9322  160.8865 C   0  0  0  0  0  0  0  0  0  0  0  0
  146.5743  133.7074  152.6984 C   0  0  0  0  0  0  0  0  0  0  0  0
  146.3039  132.4618  152.0860 C   0  0  0  0  0  0  0  0  0  0  0  0
  145.2811  132.3421  151.1251 C   0  0  0  0  0  0  0  0  0  0  0  0
  144.5171  133.4670  150.7635 C   0  0  0  0  0  0  0  0  0  0  0  0
  144.7795  134.7129  151.3618 C   0  0  0  0  0  0  0  0  0  0  0  0
  145.8023  134.8345  152.3222 C   0  0  0  0  0  0  0  0  0  0  0  0
  148.9909  142.9062  155.1071 H   0  0  0  0  0  0  0  0  0  0  0  0
  147.9068  134.4338  156.5432 H   0  0  0  0  0  0  0  0  0  0  0  0
  149.2994  134.6252  155.4841 H   0  0  0  0  0  0  0  0  0  0  0  0
  147.3659  136.8939  156.2293 H   0  0  0  0  0  0  0  0  0  0  0  0
  150.6059  138.4262  155.1453 H   0  0  0  0  0  0  0  0  0  0  0  0
  147.4063  138.5323  153.8511 H   0  0  0  0  0  0  0  0  0  0  0  0
  146.2792  140.4460  152.9808 H   0  0  0  0  0  0  0  0  0  0  0  0
  150.4757  138.6153  157.5127 H   0  0  0  0  0  0  0  0  0  0  0  0
  148.0135  139.5093  156.9298 H   0  0  0  0  0  0  0  0  0  0  0  0
  150.2190  136.3018  157.1346 H   0  0  0  0  0  0  0  0  0  0  0  0
  147.9434  137.3220  160.6368 H   0  0  0  0  0  0  0  0  0  0  0  0
  146.8967  137.2247  162.8685 H   0  0  0  0  0  0  0  0  0  0  0  0
  146.2491  135.0359  163.8576 H   0  0  0  0  0  0  0  0  0  0  0  0
  146.6541  132.9344  162.5909 H   0  0  0  0  0  0  0  0  0  0  0  0
  147.6950  133.0013  160.3644 H   0  0  0  0  0  0  0  0  0  0  0  0
  146.8729  131.5825  152.3522 H   0  0  0  0  0  0  0  0  0  0  0  0
  145.0809  131.3847  150.6670 H   0  0  0  0  0  0  0  0  0  0  0  0
  143.7308  133.3740  150.0290 H   0  0  0  0  0  0  0  0  0  0  0  0
  144.1917  135.5769  151.0884 H   0  0  0  0  0  0  0  0  0  0  0  0
  145.9715  135.8041  152.7672 H   0  0  0  0  0  0  0  0  0  0  0  0
  1  2  2  0  0  0  0
  2  3  1  0  0  0  0
  2 28  1  0  0  0  0
  3  4  1  0  0  0  0
  4  5  1  0  0  0  0
  4 35  1  0  0  0  0
  4 36  1  0  0  0  0
  5 18  1  0  0  0  0
  5  6  1  0  0  0  0
  5 37  1  0  0  0  0
  6  7  1  0  0  0  0
  7  8  1  0  0  0  0
  7 16  1  0  0  0  0
  7 38  1  0  0  0  0
  8 14  1  0  0  0  0
  8  9  1  0  0  0  0
  9 10  2  0  0  0  0
  9 39  1  0  0  0  0
 10 11  1  0  0  0  0
 10 40  1  0  0  0  0
 11 12  2  0  0  0  0
 11 13  1  0  0  0  0
 13 34  1  0  0  0  0
 13 14  1  0  0  0  0
 14 15  2  0  0  0  0
 16 17  1  0  0  0  0
 16 18  1  0  0  0  0
 16 41  1  0  0  0  0
 17 42  1  0  0  0  0
 18 19  1  0  0  0  0
 18 43  1  0  0  0  0
 19 20  1  0  0  0  0
 20 21  2  0  0  0  0
 20 22  1  0  0  0  0
 22 27  1  0  0  0  0
 22 23  2  0  0  0  0
 23 24  1  0  0  0  0
 23 44  1  0  0  0  0
 24 25  2  0  0  0  0
 24 45  1  0  0  0  0
 25 26  1  0  0  0  0
 25 46  1  0  0  0  0
 26 27  2  0  0  0  0
 26 47  1  0  0  0  0
 27 48  1  0  0  0  0
 28 33  1  0  0  0  0
 28 29  2  0  0  0  0
 29 30  1  0  0  0  0
 29 49  1  0  0  0  0
 30 31  2  0  0  0  0
 30 50  1  0  0  0  0
 31 32  1  0  0  0  0
 31 51  1  0  0  0  0
 32 33  2  0  0  0  0
 32 52  1  0  0  0  0
 33 53  1  0  0  0  0
M  END
> <s_m_source_file>
AV-unprocessed.smi

> <i_m_source_file_index>
99

> <i_lp_mmshare_version>
43012

> <i_f3d_flags>
0

> <s_epik_input>
W2NIXTFbY0hdW2NIXVtjSF1bY0hdYzFDKD1PKU9bQ0gyXVtDQEBIXTJPW0NAQEhdKG4zW2NIXVtjSF1jKD1PKVtuSF1jMz1PKVtDQEBIXShbT0hdKVtDQEhdMk9DKD1PKWM0W2NIXVtjSF1bY0hdW2NIXVtjSF00

> <s_epik_cmdline>
J2VwaWtfcHl0aG9uJywgJy1waCcsICc3LjAnLCAnLXRuJywgJzgnLCAnLW1hJywgJzIwMCcsICctbWV0YWxfYmluZGluZycsICctaW1hZScsICc8aW5maWxlLm1hZT4nLCAnLW9tYWUnLCAnPG91dGZpbGUubWFlPic=

> <r_lp_tautomer_probability>
1

> <r_epik_Ionization_Penalty>
0.00454555

> <r_epik_Ionization_Penalty_Charging>
0.0045191

> <r_epik_Ionization_Penalty_Neutral>
2.64449e-05

> <r_epik_State_Penalty>
-0

> <r_epik_Charging_Adjusted_Penalty>
0.0045191

> <i_epik_Tot_Q>
0

> <i_epik_Tot_abs_Q>
0

> <r_epik_Metal_State_Penalty>
1.27877

> <b_epik_Metal_Only>
0

> <s_epik_Chemistry_Notes>
This compound has an ester and may undergo hydrolysis at high or low pH. This compound contains an acetal/aminal-like group ( X-CH(R)-Y where X, Y are N, S, or O) that may be acid/base labile, releasing an aldehyde.

> <s_lp_Force_Field>
OPLS_2005

> <r_lp_Energy>
44.6164

> <b_lp_Chiralities_Consistent>
1

> <s_lp_Variant>
AV-unprocessed.smi:99-1

> <Gold.Version>
5.8.1

> <Gold.Id.Protein>
6NUR|6NUR_protein|mol2

> <Gold.PLP.Fitness>
50.4520

> <Gold.PLP.PLP>
-44.6697

> <Gold.PLP.part.hbond>
-3.2097

> <Gold.PLP.part.metal>
0.0000

> <Gold.PLP.part.buried>
-4.0465

> <Gold.PLP.part.nonpolar>
-38.5333

> <Gold.PLP.part.repulsive>
0.8640

> <Gold.PLP.ligand.clash>
0.0000

> <Gold.PLP.ligand.torsion>
0.4875

> <Gold.PLP.Chemscore.Hbond>
2.1730

> <Gold.PLP.Chemscore.CHOScore>
0.0000

> <Gold.PLP.Chemscore.Metal>
0.0000

> <Gold.Chemscore.Hbonds>
donor molecule, donor type, donor heavy atom, donor atom, acceptor molecule, acceptor atom, score
      L1  H    13    34       P1  8028  1.00
      P1  H  6896  6907       L1    21  0.76
      P1  H  8022  8030       L1    12  0.08

> <Gold.PLP.Chemscore.Internal.Correction>
0.2384

> <Gold.Rescore>
     Score         DG    S(hbond)    S(metal)    S(lipo)     H(rot)  DE(clash)    DE(int)     intcor
     12.16     -14.65       1.76        0.00      97.87       3.19       0.35       2.14       ----

> <Gold.Chemscore.Fitness>
12.1628

> <Gold.Chemscore.DG>
-14.6500

> <Gold.Chemscore.ZeroCoef>
-5.4800

> <Gold.Chemscore.Hbond>
1.7623

> <Gold.Chemscore.Metal>
0.0000

> <Gold.Chemscore.Lipo>
97.8723

> <Gold.Chemscore.Internal_Hbond>
0.0000

> <Gold.Chemscore.DEClash>
0.3460

> <Gold.Chemscore.DEInternal>
2.1412

> <Gold.Chemscore.Rot>
3.1903

> <Gold.Chemscore.Internal.Correction>
   9.000000E+99

> <Gold.Chemscore.Hbonds>
donor molecule, donor type, donor heavy atom, donor atom, acceptor molecule, acceptor atom, score
      L1  H    13    34       P1  8028  0.99
      P1  H  6896  6907       L1    21  0.19
      P1  H  8022  8030       L1    12  0.07

> <Gold.Chemscore.Hbond.Weighted>
-5.8861

> <Gold.Chemscore.Metal.Weighted>
-0.0000

> <Gold.Chemscore.Lipo.Weighted>
-11.4511

> <Gold.Chemscore.Internal_Hbond.Weighted>
0.0000

> <Gold.Chemscore.DEClash.Weighted>
0.3460

> <Gold.Chemscore.DEInternal.Weighted>
2.1412

> <Gold.Chemscore.Rot.Weighted>
8.1671

> <Gold.Chemscore.Internal.Correction.Weighted>
   9.000000E+99

> <Gold.Protein.RotatedTorsions>
[ 6907 6896 6895 6894 ] final -117.79 input  -60.11 | X-H torsion
[ 7974 7965 7964 7962 ] final  -72.86 input  175.53 | X-H torsion
[ 8008 7997 7996 7995 ] final -139.37 input   59.86 | X-H torsion
[ 10167 10162 10161 10158 ] final -120.41 input  -65.29 | X-H torsion
[ 10718 10713 10712 10709 ] final   54.44 input   66.30 | X-H torsion
[ 10763 10752 10751 10750 ] final    0.18 input  -60.55 | X-H torsion
[ 11005 11000 10999 10996 ] final  -94.60 input  -57.11 | X-H torsion

> <Gold.Protein.ActiveResidues>
 VAL166  LYS551  ARG553  GLY616  TRP617  ASP618  TYR619  PRO620  LYS621  CYS622 
 ASP623  PHE694  ASN695  SER759  ASP760  ASP761  ALA762  ILE779  LEU786  VAL792 
 PHE793  MET794  SER795  GLU796  ALA797  LYS798  CYS799  TRP800  GLU811  SER814 

> <Gold.Protein.RotatedAtoms>
  150.8165  133.8327  159.3157 H   0  0  0  0  0  0  0  0  0  0  0  0  # atno 6907 bound_to 6896
  151.6098  135.1039  160.0088 H   0  0  0  0  0  0  0  0  0  0  0  0  # atno 6908 bound_to 6896
  152.4256  133.7149  159.6557 H   0  0  0  0  0  0  0  0  0  0  0  0  # atno 6909 bound_to 6896
  145.6597  140.9256  143.0941 H   0  0  0  0  0  0  0  0  0  0  0  0  # atno 7974 bound_to 7965
  155.4438  140.0534  157.3008 H   0  0  0  0  0  0  0  0  0  0  0  0  # atno 8008 bound_to 7997
  154.4806  140.2080  155.9729 H   0  0  0  0  0  0  0  0  0  0  0  0  # atno 8009 bound_to 7997
  156.1200  140.3190  155.8199 H   0  0  0  0  0  0  0  0  0  0  0  0  # atno 8010 bound_to 7997
  140.0361  143.5199  152.2153 H   0  0  0  0  0  0  0  0  0  0  0  0  # atno 10167 bound_to 10162
  157.5257  130.8596  149.8619 H   0  0  0  0  0  0  0  0  0  0  0  0  # atno 10718 bound_to 10713
  153.3240  135.6971  153.7006 H   0  0  0  0  0  0  0  0  0  0  0  0  # atno 10763 bound_to 10752
  153.5835  135.3493  155.2884 H   0  0  0  0  0  0  0  0  0  0  0  0  # atno 10764 bound_to 10752
  154.8604  135.4300  154.2411 H   0  0  0  0  0  0  0  0  0  0  0  0  # atno 10765 bound_to 10752
  141.1466  133.7967  157.0320 H   0  0  0  0  0  0  0  0  0  0  0  0  # atno 11005 bound_to 11000
  144.7093  139.8432  143.7419 LP  0  0  0  0  0  0  0  0  0  0  0  0  # atno 17320 bound_to 7965
  146.1136  139.4144  143.0272 LP  0  0  0  0  0  0  0  0  0  0  0  0  # atno 17321 bound_to 7965
  139.6044  144.7592  151.3096 LP  0  0  0  0  0  0  0  0  0  0  0  0  # atno 17342 bound_to 10162
  140.7281  143.6946  150.7894 LP  0  0  0  0  0  0  0  0  0  0  0  0  # atno 17343 bound_to 10162
  156.0385  130.3745  150.1496 LP  0  0  0  0  0  0  0  0  0  0  0  0  # atno 17370 bound_to 10713
  156.9683  130.9826  151.3464 LP  0  0  0  0  0  0  0  0  0  0  0  0  # atno 17371 bound_to 10713
  140.0748  134.9682  157.1527 LP  0  0  0  0  0  0  0  0  0  0  0  0  # atno 17394 bound_to 11000
  140.3660  134.2442  155.7182 LP  0  0  0  0  0  0  0  0  0  0  0  0  # atno 17395 bound_to 11000

$$$$
