AV-unprocessed.smi:2188|AV-procd|sdf|8881|dock8
  -GOLD-   2272012 83D 1   1.00000     0.00000
 Structure written by MMmdl.
 40 42  0  0  0  0  0  0  0  0  2 V2000
  152.8204  143.7687  157.7528 O   0  0  0  0  0  0  0  0  0  0  0  0
  152.4230  142.8147  158.4246 C   0  0  0  0  0  0  0  0  0  0  0  0
  151.6785  141.8403  157.8647 N   0  0  0  0  0  0  0  0  0  0  0  0
  151.2685  141.7684  156.4632 C   0  0  0  0  0  0  0  0  0  0  0  0
  151.3220  140.3330  155.9019 C   0  0  0  0  0  0  0  0  0  0  0  0
  150.2108  140.0211  154.9139 C   0  0  0  0  0  0  0  0  0  0  0  0
  149.4169  141.0550  154.3689 C   0  0  0  0  0  0  0  0  0  0  0  0
  148.3665  140.7287  153.4863 C   0  0  0  0  0  0  0  0  0  0  0  0
  148.1339  139.3754  153.1667 C   0  0  0  0  0  0  0  0  0  0  0  0
  148.9170  138.4138  153.7029 N   0  3  0  0  0  0  0  0  0  0  0  0
  149.9340  138.6853  154.5499 C   0  0  0  0  0  0  0  0  0  0  0  0
  152.7085  142.6086  159.8602 C   0  0  0  0  0  0  0  0  0  0  0  0
  152.5525  143.6460  160.7270 C   0  0  0  0  0  0  0  0  0  0  0  0
  152.8326  143.5131  162.1348 C   0  0  0  0  0  0  0  0  0  0  0  0
  153.2174  142.3164  162.5894 C   0  0  0  0  0  0  0  0  0  0  0  0
  153.3558  141.1984  161.7699 N   0  0  0  0  0  0  0  0  0  0  0  0
  153.6640  139.9330  162.4282 C   0  0  0  0  0  0  0  0  0  0  0  0
  154.6697  139.1419  161.6126 C   0  0  0  0  0  0  0  0  0  0  0  0
  153.8386  138.7639  160.0291 S   0  0  0  0  0  0  0  0  0  0  0  0
  154.8430  138.2203  159.1027 O   0  0  0  0  0  0  0  0  0  0  0  0
  152.6279  137.9812  160.3230 O   0  0  0  0  0  0  0  0  0  0  0  0
  153.3925  140.3039  159.5456 N   0  0  0  0  0  0  0  0  0  0  0  0
  153.1621  141.2930  160.3625 C   0  0  0  0  0  0  0  0  0  0  0  0
  151.3727  141.0859  158.4621 H   0  0  0  0  0  0  0  0  0  0  0  0
  150.2475  142.1445  156.3949 H   0  0  0  0  0  0  0  0  0  0  0  0
  151.8762  142.4373  155.8517 H   0  0  0  0  0  0  0  0  0  0  0  0
  152.2870  140.1629  155.4227 H   0  0  0  0  0  0  0  0  0  0  0  0
  151.2635  139.6187  156.7240 H   0  0  0  0  0  0  0  0  0  0  0  0
  149.5998  142.0862  154.6339 H   0  0  0  0  0  0  0  0  0  0  0  0
  147.7447  141.5049  153.0657 H   0  0  0  0  0  0  0  0  0  0  0  0
  147.3503  139.0355  152.5052 H   0  0  0  0  0  0  0  0  0  0  0  0
  150.4788  137.8303  154.9232 H   0  0  0  0  0  0  0  0  0  0  0  0
  152.2050  144.6141  160.3969 H   0  0  0  0  0  0  0  0  0  0  0  0
  152.7386  144.3570  162.8023 H   0  0  0  0  0  0  0  0  0  0  0  0
  153.4438  142.1553  163.6335 H   0  0  0  0  0  0  0  0  0  0  0  0
  154.0769  140.1058  163.4226 H   0  0  0  0  0  0  0  0  0  0  0  0
  152.7434  139.3655  162.5674 H   0  0  0  0  0  0  0  0  0  0  0  0
  155.5810  139.7087  161.4190 H   0  0  0  0  0  0  0  0  0  0  0  0
  154.9389  138.2046  162.0993 H   0  0  0  0  0  0  0  0  0  0  0  0
  148.7289  137.4402  153.4624 H   0  0  0  0  0  0  0  0  0  0  0  0
  1  2  2  0  0  0  0
  2  3  1  0  0  0  0
  2 12  1  0  0  0  0
  3  4  1  0  0  0  0
  3 24  1  0  0  0  0
  4  5  1  0  0  0  0
  4 25  1  0  0  0  0
  4 26  1  0  0  0  0
  5  6  1  0  0  0  0
  5 27  1  0  0  0  0
  5 28  1  0  0  0  0
  6 11  1  0  0  0  0
  6  7  2  0  0  0  0
  7  8  1  0  0  0  0
  7 29  1  0  0  0  0
  8  9  2  0  0  0  0
  8 30  1  0  0  0  0
  9 10  1  0  0  0  0
  9 31  1  0  0  0  0
 10 11  2  0  0  0  0
 10 40  1  0  0  0  0
 11 32  1  0  0  0  0
 12 23  1  0  0  0  0
 12 13  2  0  0  0  0
 13 14  1  0  0  0  0
 13 33  1  0  0  0  0
 14 15  2  0  0  0  0
 14 34  1  0  0  0  0
 15 16  1  0  0  0  0
 15 35  1  0  0  0  0
 16 23  1  0  0  0  0
 16 17  1  0  0  0  0
 17 18  1  0  0  0  0
 17 36  1  0  0  0  0
 17 37  1  0  0  0  0
 18 19  1  0  0  0  0
 18 38  1  0  0  0  0
 18 39  1  0  0  0  0
 19 20  2  0  0  0  0
 19 21  2  0  0  0  0
 19 22  1  0  0  0  0
 22 23  2  0  0  0  0
M  CHG  1  10   1
M  END
> <s_m_source_file>
AV-unprocessed.smi

> <i_m_source_file_index>
2188

> <i_lp_mmshare_version>
43012

> <i_f3d_flags>
0

> <s_epik_input>
W0NIMl0xW0NIMl1TKD1PKSg9TylOPUMoTjEyKUMoPVtDSF1bQ0hdPVtDSF0yKUMoPU8pW05IXVtDSDJdW0NIMl1jM1tjSF1bY0hdW2NIXW5bY0hdMw==

> <s_epik_cmdline>
J2VwaWtfcHl0aG9uJywgJy1waCcsICc3LjAnLCAnLXRuJywgJzgnLCAnLW1hJywgJzIwMCcsICctbWV0YWxfYmluZGluZycsICctaW1hZScsICc8aW5maWxlLm1hZT4nLCAnLW9tYWUnLCAnPG91dGZpbGUubWFlPic=

> <r_epik_Ionization_Penalty>
2.45954

> <r_epik_Ionization_Penalty_Charging>
2.45946

> <r_epik_Ionization_Penalty_Neutral>
8.13788e-05

> <r_epik_State_Penalty>
2.62155

> <r_epik_Charging_Adjusted_Penalty>
5.08101

> <i_epik_Tot_Q>
1

> <i_epik_Tot_abs_Q>
1

> <r_epik_Metal_State_Penalty>
2.74793

> <b_epik_Metal_Only>
0

> <s_lp_Force_Field>
OPLS_2005

> <r_lp_Energy>
33.7727

> <b_lp_Chiralities_Consistent>
1

> <s_lp_Variant>
AV-unprocessed.smi:2188-2

> <Gold.Version>
5.8.1

> <Gold.Id.Protein>
6NUR|6NUR_protein|mol2

> <Gold.PLP.Fitness>
57.6838

> <Gold.PLP.PLP>
-51.3324

> <Gold.PLP.part.hbond>
-3.0168

> <Gold.PLP.part.metal>
0.0000

> <Gold.PLP.part.buried>
-3.0928

> <Gold.PLP.part.nonpolar>
-46.0876

> <Gold.PLP.part.repulsive>
0.1721

> <Gold.PLP.ligand.clash>
0.0000

> <Gold.PLP.ligand.torsion>
1.3440

> <Gold.PLP.Chemscore.Hbond>
2.9753

> <Gold.PLP.Chemscore.CHOScore>
0.0000

> <Gold.PLP.Chemscore.Metal>
0.0000

> <Gold.Chemscore.Hbonds>
donor molecule, donor type, donor heavy atom, donor atom, acceptor molecule, acceptor atom, score
      L1  H    10    40       P1  7948  1.47

> <Gold.PLP.Chemscore.Internal.Correction>
0.1137

> <Gold.Rescore>
     Score         DG    S(hbond)    S(metal)    S(lipo)     H(rot)  DE(clash)    DE(int)     intcor
     17.57     -19.91       1.91        0.00     102.39       1.54       0.02       2.32       ----

> <Gold.Chemscore.Fitness>
17.5744

> <Gold.Chemscore.DG>
-19.9117

> <Gold.Chemscore.ZeroCoef>
-5.4800

> <Gold.Chemscore.Hbond>
1.9112

> <Gold.Chemscore.Metal>
0.0000

> <Gold.Chemscore.Lipo>
102.3867

> <Gold.Chemscore.Internal_Hbond>
0.0000

> <Gold.Chemscore.DEClash>
0.0202

> <Gold.Chemscore.DEInternal>
2.3171

> <Gold.Chemscore.Rot>
1.5355

> <Gold.Chemscore.Internal.Correction>
   9.000000E+99

> <Gold.Chemscore.Hbonds>
donor molecule, donor type, donor heavy atom, donor atom, acceptor molecule, acceptor atom, score
      L1  H    10    40       P1  7948  0.71

> <Gold.Chemscore.Hbond.Weighted>
-6.3834

> <Gold.Chemscore.Metal.Weighted>
-0.0000

> <Gold.Chemscore.Lipo.Weighted>
-11.9792

> <Gold.Chemscore.Internal_Hbond.Weighted>
0.0000

> <Gold.Chemscore.DEClash.Weighted>
0.0202

> <Gold.Chemscore.DEInternal.Weighted>
2.3171

> <Gold.Chemscore.Rot.Weighted>
3.9309

> <Gold.Chemscore.Internal.Correction.Weighted>
   9.000000E+99

> <Gold.Protein.RotatedTorsions>
[ 6907 6896 6895 6894 ] final  -74.68 input  -60.11 | X-H torsion
[ 7974 7965 7964 7962 ] final -109.13 input  175.53 | X-H torsion
[ 8008 7997 7996 7995 ] final -116.20 input   59.86 | X-H torsion
[ 10167 10162 10161 10158 ] final -116.35 input  -65.29 | X-H torsion
[ 10718 10713 10712 10709 ] final -112.34 input   66.30 | X-H torsion
[ 10763 10752 10751 10750 ] final -103.64 input  -60.55 | X-H torsion
[ 11005 11000 10999 10996 ] final  136.21 input  -57.11 | X-H torsion

> <Gold.Protein.ActiveResidues>
 VAL166  LYS551  ARG553  GLY616  TRP617  ASP618  TYR619  PRO620  LYS621  CYS622 
 ASP623  PHE694  ASN695  SER759  ASP760  ASP761  ALA762  ILE779  LEU786  VAL792 
 PHE793  MET794  SER795  GLU796  ALA797  LYS798  CYS799  TRP800  GLU811  SER814 

> <Gold.Protein.RotatedAtoms>
  150.7085  134.4833  159.5480 H   0  0  0  0  0  0  0  0  0  0  0  0  # atno 6907 bound_to 6896
  152.2466  134.8172  160.0461 H   0  0  0  0  0  0  0  0  0  0  0  0  # atno 6908 bound_to 6896
  151.8935  133.3486  159.3843 H   0  0  0  0  0  0  0  0  0  0  0  0  # atno 6909 bound_to 6896
  145.1844  140.8986  143.3461 H   0  0  0  0  0  0  0  0  0  0  0  0  # atno 7974 bound_to 7965
  155.0641  140.0393  157.2587 H   0  0  0  0  0  0  0  0  0  0  0  0  # atno 8008 bound_to 7997
  154.7035  140.2678  155.6672 H   0  0  0  0  0  0  0  0  0  0  0  0  # atno 8009 bound_to 7997
  156.2768  140.2736  156.1654 H   0  0  0  0  0  0  0  0  0  0  0  0  # atno 8010 bound_to 7997
  140.0802  143.4795  152.1930 H   0  0  0  0  0  0  0  0  0  0  0  0  # atno 10167 bound_to 10162
  156.0700  130.5915  150.8495 H   0  0  0  0  0  0  0  0  0  0  0  0  # atno 10718 bound_to 10713
  154.7821  135.4816  153.9868 H   0  0  0  0  0  0  0  0  0  0  0  0  # atno 10763 bound_to 10752
  153.1509  135.6791  153.8891 H   0  0  0  0  0  0  0  0  0  0  0  0  # atno 10764 bound_to 10752
  153.8536  135.3164  155.3412 H   0  0  0  0  0  0  0  0  0  0  0  0  # atno 10765 bound_to 10752
  140.0031  134.9470  157.0116 H   0  0  0  0  0  0  0  0  0  0  0  0  # atno 11005 bound_to 11000
  145.0104  139.3515  143.6123 LP  0  0  0  0  0  0  0  0  0  0  0  0  # atno 17320 bound_to 7965
  146.3447  139.9364  142.8746 LP  0  0  0  0  0  0  0  0  0  0  0  0  # atno 17321 bound_to 7965
  139.5784  144.7499  151.3704 LP  0  0  0  0  0  0  0  0  0  0  0  0  # atno 17342 bound_to 10162
  140.7082  143.7460  150.7519 LP  0  0  0  0  0  0  0  0  0  0  0  0  # atno 17343 bound_to 10162
  157.5765  131.0946  150.9338 LP  0  0  0  0  0  0  0  0  0  0  0  0  # atno 17370 bound_to 10713
  156.9543  130.5431  149.5283 LP  0  0  0  0  0  0  0  0  0  0  0  0  # atno 17371 bound_to 10713
  140.4691  134.1405  155.7201 LP  0  0  0  0  0  0  0  0  0  0  0  0  # atno 17394 bound_to 11000
  141.1657  133.8708  157.1722 LP  0  0  0  0  0  0  0  0  0  0  0  0  # atno 17395 bound_to 11000

$$$$
