AV-unprocessed.smi:535|AV-procd|sdf|2860|dock5
  -GOLD-   2262023353D 1   1.00000     0.00000
 Structure written by MMmdl.
 45 47  0  0  0  0  0  0  0  0  2 V2000
  153.8381  136.9071  163.1717 C   0  0  0  0  0  0  0  0  0  0  0  0
  154.4644  137.7802  162.2487 O   0  0  0  0  0  0  0  0  0  0  0  0
  153.6265  138.0952  161.1498 C   0  0  0  0  0  0  0  0  0  0  0  0
  154.3801  139.0353  160.2026 C   0  0  0  0  0  0  0  0  0  0  0  0
  153.5335  139.4609  159.0902 N   0  0  0  0  0  0  0  0  0  0  0  0
  152.9400  140.6716  158.8972 C   0  0  0  0  0  0  0  0  0  0  0  0
  153.0920  141.7353  159.7902 N   0  0  0  0  0  0  0  0  0  0  0  0
  153.7603  141.6912  161.0905 C   0  0  0  0  0  0  0  0  0  0  0  0
  152.8759  142.2883  162.1990 C   0  0  0  0  0  0  0  0  0  0  0  0
  152.5001  143.7370  161.8600 C   0  0  0  0  0  0  0  0  0  0  0  0
  151.8971  143.8157  160.4464 C   0  0  1  0  0  0  0  0  0  0  0  0
  151.5970  145.2654  160.0425 C   0  0  0  0  0  0  0  0  0  0  0  0
  152.8348  143.1295  159.4314 C   0  0  0  0  0  0  0  0  0  0  0  0
  152.1587  140.7407  157.8177 N   0  0  0  0  0  0  0  0  0  0  0  0
  152.2751  139.4755  157.2649 C   0  0  0  0  0  0  0  0  0  0  0  0
  153.0824  138.6814  158.0184 C   0  0  0  0  0  0  0  0  0  0  0  0
  153.3523  137.2584  157.7092 C   0  0  0  0  0  0  0  0  0  0  0  0
  154.0577  136.5692  158.4427 O   0  0  0  0  0  0  0  0  0  0  0  0
  152.7273  136.8508  156.5595 N   0  5  0  0  0  0  0  0  0  0  0  0
  151.9117  137.6243  155.7622 C   0  0  0  0  0  0  0  0  0  0  0  0
  151.3842  137.1763  154.7434 O   0  0  0  0  0  0  0  0  0  0  0  0
  151.6702  138.9298  156.0999 N   0  0  0  0  0  0  0  0  0  0  0  0
  150.7991  139.7735  155.2765 C   0  0  0  0  0  0  0  0  0  0  0  0
  154.5180  136.6975  163.9973 H   0  0  0  0  0  0  0  0  0  0  0  0
  153.5760  135.9583  162.7014 H   0  0  0  0  0  0  0  0  0  0  0  0
  152.9337  137.3546  163.5861 H   0  0  0  0  0  0  0  0  0  0  0  0
  153.3351  137.1847  160.6236 H   0  0  0  0  0  0  0  0  0  0  0  0
  152.7147  138.5773  161.5068 H   0  0  0  0  0  0  0  0  0  0  0  0
  154.7418  139.8993  160.7490 H   0  0  0  0  0  0  0  0  0  0  0  0
  155.2821  138.5602  159.8229 H   0  0  0  0  0  0  0  0  0  0  0  0
  154.0556  140.6712  161.3337 H   0  0  0  0  0  0  0  0  0  0  0  0
  154.6921  142.2543  161.0225 H   0  0  0  0  0  0  0  0  0  0  0  0
  151.9697  141.6934  162.3166 H   0  0  0  0  0  0  0  0  0  0  0  0
  153.3978  142.2522  163.1552 H   0  0  0  0  0  0  0  0  0  0  0  0
  151.7968  144.1243  162.5978 H   0  0  0  0  0  0  0  0  0  0  0  0
  153.3907  144.3643  161.9167 H   0  0  0  0  0  0  0  0  0  0  0  0
  150.9512  143.2717  160.4511 H   0  0  0  0  0  0  0  0  0  0  0  0
  152.5077  145.8643  160.0104 H   0  0  0  0  0  0  0  0  0  0  0  0
  150.9131  145.7366  160.7489 H   0  0  0  0  0  0  0  0  0  0  0  0
  151.1345  145.3097  159.0562 H   0  0  0  0  0  0  0  0  0  0  0  0
  153.7824  143.6656  159.3618 H   0  0  0  0  0  0  0  0  0  0  0  0
  152.3844  143.1675  158.4386 H   0  0  0  0  0  0  0  0  0  0  0  0
  151.1771  139.8325  154.2550 H   0  0  0  0  0  0  0  0  0  0  0  0
  150.7224  140.7934  155.6524 H   0  0  0  0  0  0  0  0  0  0  0  0
  149.7899  139.3606  155.2438 H   0  0  0  0  0  0  0  0  0  0  0  0
  1  2  1  0  0  0  0
  1 24  1  0  0  0  0
  1 25  1  0  0  0  0
  1 26  1  0  0  0  0
  2  3  1  0  0  0  0
  3  4  1  0  0  0  0
  3 27  1  0  0  0  0
  3 28  1  0  0  0  0
  4  5  1  0  0  0  0
  4 29  1  0  0  0  0
  4 30  1  0  0  0  0
  5 16  1  0  0  0  0
  5  6  1  0  0  0  0
  6  7  1  0  0  0  0
  6 14  2  0  0  0  0
  7 13  1  0  0  0  0
  7  8  1  0  0  0  0
  8  9  1  0  0  0  0
  8 31  1  0  0  0  0
  8 32  1  0  0  0  0
  9 10  1  0  0  0  0
  9 33  1  0  0  0  0
  9 34  1  0  0  0  0
 10 11  1  0  0  0  0
 10 35  1  0  0  0  0
 10 36  1  0  0  0  0
 11 12  1  0  0  0  0
 11 13  1  0  0  0  0
 11 37  1  0  0  0  0
 12 38  1  0  0  0  0
 12 39  1  0  0  0  0
 12 40  1  0  0  0  0
 13 41  1  0  0  0  0
 13 42  1  0  0  0  0
 14 15  1  0  0  0  0
 15 22  1  0  0  0  0
 15 16  2  0  0  0  0
 16 17  1  0  0  0  0
 17 18  2  0  0  0  0
 17 19  1  0  0  0  0
 19 20  1  0  0  0  0
 20 21  2  0  0  0  0
 20 22  1  0  0  0  0
 22 23  1  0  0  0  0
 23 43  1  0  0  0  0
 23 44  1  0  0  0  0
 23 45  1  0  0  0  0
M  CHG  1  19  -1
M  END
> <s_m_source_file>
AV-unprocessed.smi

> <i_m_source_file_index>
535

> <i_lp_mmshare_version>
43012

> <i_f3d_flags>
0

> <s_epik_input>
W0NIM11uMWMoPU8pW25IXWMoPU8pYyhjMTIpbihbQ0gyXVtDSDJdT1tDSDNdKWMobjIpTjNbQ0gyXVtDSDJdW0NIMl1bQ0BASF0oW0NIM10pW0NIMl0z

> <s_epik_cmdline>
J2VwaWtfcHl0aG9uJywgJy1waCcsICc3LjAnLCAnLXRuJywgJzgnLCAnLW1hJywgJzIwMCcsICctbWV0YWxfYmluZGluZycsICctaW1hZScsICc8aW5maWxlLm1hZT4nLCAnLW9tYWUnLCAnPG91dGZpbGUubWFlPic=

> <r_lp_tautomer_probability>
1

> <r_epik_Ionization_Penalty>
5.11375

> <r_epik_Ionization_Penalty_Charging>
0.0788329

> <r_epik_Ionization_Penalty_Neutral>
5.03492

> <r_epik_State_Penalty>
5.02848

> <r_epik_Charging_Adjusted_Penalty>
5.10731

> <i_epik_Tot_Q>
-1

> <i_epik_Tot_abs_Q>
1

> <r_epik_Metal_State_Penalty>
1.14014

> <b_epik_Metal_Only>
1

> <s_lp_Force_Field>
OPLS_2005

> <r_lp_Energy>
43.1913

> <b_lp_Chiralities_Consistent>
1

> <s_lp_Variant>
AV-unprocessed.smi:535-3

> <Gold.Version>
5.8.1

> <Gold.Id.Protein>
6NUR|6NUR_protein|mol2

> <Gold.PLP.Fitness>
48.9334

> <Gold.PLP.PLP>
-47.3039

> <Gold.PLP.part.hbond>
-1.5314

> <Gold.PLP.part.metal>
0.0000

> <Gold.PLP.part.buried>
-5.2475

> <Gold.PLP.part.nonpolar>
-40.7954

> <Gold.PLP.part.repulsive>
0.1449

> <Gold.PLP.ligand.clash>
4.2958

> <Gold.PLP.ligand.torsion>
0.2574

> <Gold.PLP.Chemscore.Hbond>
1.9840

> <Gold.PLP.Chemscore.CHOScore>
0.0000

> <Gold.PLP.Chemscore.Metal>
0.0000

> <Gold.Chemscore.Hbonds>
donor molecule, donor type, donor heavy atom, donor atom, acceptor molecule, acceptor atom, score
      P1  H 10752 10765       L1    19  1.97

> <Gold.PLP.Chemscore.Internal.Correction>
0.4881

> <Gold.Rescore>
     Score         DG    S(hbond)    S(metal)    S(lipo)     H(rot)  DE(clash)    DE(int)     intcor
     14.44     -16.04       0.71        0.00     101.36       1.44       0.00       1.60       ----

> <Gold.Chemscore.Fitness>
14.4413

> <Gold.Chemscore.DG>
-16.0425

> <Gold.Chemscore.ZeroCoef>
-5.4800

> <Gold.Chemscore.Hbond>
0.7135

> <Gold.Chemscore.Metal>
0.0000

> <Gold.Chemscore.Lipo>
101.3580

> <Gold.Chemscore.Internal_Hbond>
0.0000

> <Gold.Chemscore.DEClash>
0.0000

> <Gold.Chemscore.DEInternal>
1.6012

> <Gold.Chemscore.Rot>
1.4372

> <Gold.Chemscore.Internal.Correction>
   9.000000E+99

> <Gold.Chemscore.Hbonds>
donor molecule, donor type, donor heavy atom, donor atom, acceptor molecule, acceptor atom, score
      P1  H 10752 10765       L1    19  0.22

> <Gold.Chemscore.Hbond.Weighted>
-2.3829

> <Gold.Chemscore.Metal.Weighted>
-0.0000

> <Gold.Chemscore.Lipo.Weighted>
-11.8589

> <Gold.Chemscore.Internal_Hbond.Weighted>
0.0000

> <Gold.Chemscore.DEClash.Weighted>
0.0000

> <Gold.Chemscore.DEInternal.Weighted>
1.6012

> <Gold.Chemscore.Rot.Weighted>
3.6793

> <Gold.Chemscore.Internal.Correction.Weighted>
   9.000000E+99

> <Gold.Protein.RotatedTorsions>
[ 6907 6896 6895 6894 ] final -104.32 input  -60.11 | X-H torsion
[ 7974 7965 7964 7962 ] final -144.01 input  175.53 | X-H torsion
[ 8008 7997 7996 7995 ] final  179.34 input   59.86 | X-H torsion
[ 10167 10162 10161 10158 ] final   -1.41 input  -65.29 | X-H torsion
[ 10718 10713 10712 10709 ] final   95.99 input   66.30 | X-H torsion
[ 10763 10752 10751 10750 ] final -138.01 input  -60.55 | X-H torsion
[ 11005 11000 10999 10996 ] final -142.63 input  -57.11 | X-H torsion

> <Gold.Protein.ActiveResidues>
 VAL166  LYS551  ARG553  GLY616  TRP617  ASP618  TYR619  PRO620  LYS621  CYS622 
 ASP623  PHE694  ASN695  SER759  ASP760  ASP761  ALA762  ILE779  LEU786  VAL792 
 PHE793  MET794  SER795  GLU796  ALA797  LYS798  CYS799  TRP800  GLU811  SER814 

> <Gold.Protein.RotatedAtoms>
  150.7282  134.0295  159.3728 H   0  0  0  0  0  0  0  0  0  0  0  0  # atno 6907 bound_to 6896
  151.8264  135.0633  160.0441 H   0  0  0  0  0  0  0  0  0  0  0  0  # atno 6908 bound_to 6896
  152.2966  133.5577  159.5628 H   0  0  0  0  0  0  0  0  0  0  0  0  # atno 6909 bound_to 6896
  144.8328  140.5763  143.5504 H   0  0  0  0  0  0  0  0  0  0  0  0  # atno 7974 bound_to 7965
  156.0445  140.1311  157.0119 H   0  0  0  0  0  0  0  0  0  0  0  0  # atno 8008 bound_to 7997
  154.4406  140.1023  156.6356 H   0  0  0  0  0  0  0  0  0  0  0  0  # atno 8009 bound_to 7997
  155.5616  140.3465  155.4495 H   0  0  0  0  0  0  0  0  0  0  0  0  # atno 8010 bound_to 7997
  140.6809  143.6778  150.8131 H   0  0  0  0  0  0  0  0  0  0  0  0  # atno 10167 bound_to 10162
  157.6932  131.0563  150.4423 H   0  0  0  0  0  0  0  0  0  0  0  0  # atno 10718 bound_to 10713
  154.8648  135.3625  154.5316 H   0  0  0  0  0  0  0  0  0  0  0  0  # atno 10763 bound_to 10752
  153.5941  135.7014  153.5416 H   0  0  0  0  0  0  0  0  0  0  0  0  # atno 10764 bound_to 10752
  153.3347  135.4114  155.1486 H   0  0  0  0  0  0  0  0  0  0  0  0  # atno 10765 bound_to 10752
  140.8206  134.2636  157.4902 H   0  0  0  0  0  0  0  0  0  0  0  0  # atno 11005 bound_to 11000
  145.4859  139.1492  143.3736 LP  0  0  0  0  0  0  0  0  0  0  0  0  # atno 17320 bound_to 7965
  146.2629  140.4997  142.8846 LP  0  0  0  0  0  0  0  0  0  0  0  0  # atno 17321 bound_to 7965
  140.0478  143.5280  152.2688 LP  0  0  0  0  0  0  0  0  0  0  0  0  # atno 17342 bound_to 10162
  139.6131  144.7613  151.2907 LP  0  0  0  0  0  0  0  0  0  0  0  0  # atno 17343 bound_to 10162
  156.4781  130.4067  149.6478 LP  0  0  0  0  0  0  0  0  0  0  0  0  # atno 17370 bound_to 10713
  156.3534  130.7444  151.2406 LP  0  0  0  0  0  0  0  0  0  0  0  0  # atno 17371 bound_to 10713
  139.8709  134.9533  156.4141 LP  0  0  0  0  0  0  0  0  0  0  0  0  # atno 17394 bound_to 11000
  140.9103  133.7716  155.9784 LP  0  0  0  0  0  0  0  0  0  0  0  0  # atno 17395 bound_to 11000

$$$$
