AV-unprocessed.smi:3241|AV-procd|sdf|12388|dock2
  -GOLD-   2272018253D 1   1.00000     0.00000
 Structure written by MMmdl.
 44 45  0  0  0  0  0  0  0  0  2 V2000
  152.8702  139.9401  159.2347 C   0  0  0  0  0  0  0  0  0  0  0  0
  152.3155  141.3509  159.4919 C   0  0  1  0  0  0  0  0  0  0  0  0
  153.2618  142.1475  160.4127 C   0  0  0  0  0  0  0  0  0  0  0  0
  152.7371  143.5664  160.6802 C   0  0  0  0  0  0  0  0  0  0  0  0
  152.5016  144.3236  159.3660 C   0  0  0  0  0  0  0  0  0  0  0  0
  151.5503  143.5448  158.4458 C   0  0  0  0  0  0  0  0  0  0  0  0
  152.0670  142.1166  158.1725 C   0  0  2  0  0  0  0  0  0  0  0  0
  151.0931  141.3970  157.4263 O   0  0  0  0  0  0  0  0  0  0  0  0
  150.7439  141.9945  156.1867 C   0  0  0  0  0  0  0  0  0  0  0  0
  149.4679  141.3253  155.6662 C   0  0  0  0  0  0  0  0  0  0  0  0
  148.3717  142.3056  155.5458 N   0  3  0  0  0  0  0  0  0  0  0  0
  147.4082  142.0084  154.4670 C   0  0  0  0  0  0  0  0  0  0  0  0
  146.4353  143.1764  154.2394 C   0  0  0  0  0  0  0  0  0  0  0  0
  145.5170  143.3517  155.3500 N   0  0  0  0  0  0  0  0  0  0  0  0
  144.1750  143.6663  155.3111 C   0  0  0  0  0  0  0  0  0  0  0  0
  143.7323  143.7162  156.6020 C   0  0  0  0  0  0  0  0  0  0  0  0
  144.8919  143.4157  157.3696 C   0  0  0  0  0  0  0  0  0  0  0  0
  145.9580  143.1946  156.6170 N   0  0  0  0  0  0  0  0  0  0  0  0
  153.8179  139.9789  158.6967 H   0  0  0  0  0  0  0  0  0  0  0  0
  152.1769  139.3410  158.6439 H   0  0  0  0  0  0  0  0  0  0  0  0
  153.0419  139.4092  160.1716 H   0  0  0  0  0  0  0  0  0  0  0  0
  151.3604  141.2428  160.0083 H   0  0  0  0  0  0  0  0  0  0  0  0
  153.3887  141.6229  161.3603 H   0  0  0  0  0  0  0  0  0  0  0  0
  154.2524  142.2084  159.9595 H   0  0  0  0  0  0  0  0  0  0  0  0
  151.8053  143.5123  161.2445 H   0  0  0  0  0  0  0  0  0  0  0  0
  153.4451  144.1140  161.3030 H   0  0  0  0  0  0  0  0  0  0  0  0
  152.0910  145.3117  159.5752 H   0  0  0  0  0  0  0  0  0  0  0  0
  153.4538  144.4845  158.8587 H   0  0  0  0  0  0  0  0  0  0  0  0
  150.5633  143.4944  158.9072 H   0  0  0  0  0  0  0  0  0  0  0  0
  151.4260  144.0933  157.5124 H   0  0  0  0  0  0  0  0  0  0  0  0
  153.0086  142.1658  157.6215 H   0  0  0  0  0  0  0  0  0  0  0  0
  150.5685  143.0625  156.3169 H   0  0  0  0  0  0  0  0  0  0  0  0
  151.5525  141.8806  155.4629 H   0  0  0  0  0  0  0  0  0  0  0  0
  149.6543  140.8563  154.6993 H   0  0  0  0  0  0  0  0  0  0  0  0
  149.1628  140.5364  156.3550 H   0  0  0  0  0  0  0  0  0  0  0  0
  147.8683  142.3383  156.4214 H   0  0  0  0  0  0  0  0  0  0  0  0
  147.9601  141.8104  153.5473 H   0  0  0  0  0  0  0  0  0  0  0  0
  146.8547  141.1001  154.7098 H   0  0  0  0  0  0  0  0  0  0  0  0
  146.9806  144.1072  154.0750 H   0  0  0  0  0  0  0  0  0  0  0  0
  145.8474  142.9971  153.3386 H   0  0  0  0  0  0  0  0  0  0  0  0
  143.6524  143.8261  154.3793 H   0  0  0  0  0  0  0  0  0  0  0  0
  142.7326  143.9358  156.9463 H   0  0  0  0  0  0  0  0  0  0  0  0
  144.9898  143.3504  158.4431 H   0  0  0  0  0  0  0  0  0  0  0  0
  148.7748  143.2162  155.3755 H   0  0  0  0  0  0  0  0  0  0  0  0
  1  2  1  0  0  0  0
  1 19  1  0  0  0  0
  1 20  1  0  0  0  0
  1 21  1  0  0  0  0
  2  7  1  0  0  0  0
  2  3  1  0  0  0  0
  2 22  1  0  0  0  0
  3  4  1  0  0  0  0
  3 23  1  0  0  0  0
  3 24  1  0  0  0  0
  4  5  1  0  0  0  0
  4 25  1  0  0  0  0
  4 26  1  0  0  0  0
  5  6  1  0  0  0  0
  5 27  1  0  0  0  0
  5 28  1  0  0  0  0
  6  7  1  0  0  0  0
  6 29  1  0  0  0  0
  6 30  1  0  0  0  0
  7  8  1  0  0  0  0
  7 31  1  0  0  0  0
  8  9  1  0  0  0  0
  9 10  1  0  0  0  0
  9 32  1  0  0  0  0
  9 33  1  0  0  0  0
 10 11  1  0  0  0  0
 10 34  1  0  0  0  0
 10 35  1  0  0  0  0
 11 12  1  0  0  0  0
 11 36  1  0  0  0  0
 11 44  1  0  0  0  0
 12 13  1  0  0  0  0
 12 37  1  0  0  0  0
 12 38  1  0  0  0  0
 13 14  1  0  0  0  0
 13 39  1  0  0  0  0
 13 40  1  0  0  0  0
 14 18  1  0  0  0  0
 14 15  1  0  0  0  0
 15 16  2  0  0  0  0
 15 41  1  0  0  0  0
 16 17  1  0  0  0  0
 16 42  1  0  0  0  0
 17 18  2  0  0  0  0
 17 43  1  0  0  0  0
M  CHG  1  11   1
M  END
> <s_m_source_file>
AV-unprocessed.smi

> <i_m_source_file_index>
3241

> <i_lp_mmshare_version>
43012

> <i_f3d_flags>
0

> <s_epik_input>
W0NIM11bQ0BASF0xW0NIMl1bQ0gyXVtDSDJdW0NIMl1bQ0BIXTFPW0NIMl1bQ0gyXVtOSF1bQ0gyXVtDSDJdbjJbY0hdW2NIXVtjSF1uMg==

> <s_epik_cmdline>
J2VwaWtfcHl0aG9uJywgJy1waCcsICc3LjAnLCAnLXRuJywgJzgnLCAnLW1hJywgJzIwMCcsICctbWV0YWxfYmluZGluZycsICctaW1hZScsICc8aW5maWxlLm1hZT4nLCAnLW9tYWUnLCAnPG91dGZpbGUubWFlPic=

> <r_lp_tautomer_probability>
1

> <r_epik_Ionization_Penalty>
0.00924946

> <r_epik_Ionization_Penalty_Charging>
0.00924645

> <r_epik_Ionization_Penalty_Neutral>
3.00629e-06

> <r_epik_State_Penalty>
0.0070118

> <r_epik_Charging_Adjusted_Penalty>
0.0162583

> <i_epik_Tot_Q>
1

> <i_epik_Tot_abs_Q>
1

> <r_epik_Metal_State_Penalty>
0.00702523

> <b_epik_Metal_Only>
0

> <s_lp_Force_Field>
OPLS_2005

> <r_lp_Energy>
14.0519

> <b_lp_Chiralities_Consistent>
1

> <s_lp_Variant>
AV-unprocessed.smi:3241-4

> <Gold.Version>
5.8.1

> <Gold.Id.Protein>
6NUR|6NUR_protein|mol2

> <Gold.PLP.Fitness>
47.2817

> <Gold.PLP.PLP>
-40.0230

> <Gold.PLP.part.hbond>
-0.9511

> <Gold.PLP.part.metal>
0.0000

> <Gold.PLP.part.buried>
-5.9104

> <Gold.PLP.part.nonpolar>
-34.1577

> <Gold.PLP.part.repulsive>
0.3230

> <Gold.PLP.ligand.clash>
0.0000

> <Gold.PLP.ligand.torsion>
0.9517

> <Gold.PLP.Chemscore.Hbond>
2.0000

> <Gold.PLP.Chemscore.CHOScore>
1.0000

> <Gold.PLP.Chemscore.Metal>
0.0000

> <Gold.Chemscore.Hbonds>
donor molecule, donor type, donor heavy atom, donor atom, acceptor molecule, acceptor atom, score
      L1  H    11    44       P1  8028  1.95
      L1  C    15    41       P1 10174  0.35

> <Gold.PLP.Chemscore.Internal.Correction>
0.1621

> <Gold.Rescore>
     Score         DG    S(hbond)    S(metal)    S(lipo)     H(rot)  DE(clash)    DE(int)     intcor
     14.93     -16.92       0.99        0.00     110.98       1.89       0.03       1.96       ----

> <Gold.Chemscore.Fitness>
14.9299

> <Gold.Chemscore.DG>
-16.9169

> <Gold.Chemscore.ZeroCoef>
-5.4800

> <Gold.Chemscore.Hbond>
0.9855

> <Gold.Chemscore.Metal>
0.0000

> <Gold.Chemscore.Lipo>
110.9845

> <Gold.Chemscore.Internal_Hbond>
0.0000

> <Gold.Chemscore.DEClash>
0.0312

> <Gold.Chemscore.DEInternal>
1.9557

> <Gold.Chemscore.Rot>
1.8906

> <Gold.Chemscore.Internal.Correction>
   9.000000E+99

> <Gold.Chemscore.Hbonds>
donor molecule, donor type, donor heavy atom, donor atom, acceptor molecule, acceptor atom, score
      L1  H    11    44       P1  8028  0.89

> <Gold.Chemscore.Hbond.Weighted>
-3.2917

> <Gold.Chemscore.Metal.Weighted>
-0.0000

> <Gold.Chemscore.Lipo.Weighted>
-12.9852

> <Gold.Chemscore.Internal_Hbond.Weighted>
0.0000

> <Gold.Chemscore.DEClash.Weighted>
0.0312

> <Gold.Chemscore.DEInternal.Weighted>
1.9557

> <Gold.Chemscore.Rot.Weighted>
4.8400

> <Gold.Chemscore.Internal.Correction.Weighted>
   9.000000E+99

> <Gold.Protein.RotatedTorsions>
[ 6907 6896 6895 6894 ] final  -53.24 input  -60.11 | X-H torsion
[ 7974 7965 7964 7962 ] final  114.06 input  175.53 | X-H torsion
[ 8008 7997 7996 7995 ] final  -35.59 input   59.86 | X-H torsion
[ 10167 10162 10161 10158 ] final  143.24 input  -65.29 | X-H torsion
[ 10718 10713 10712 10709 ] final -156.77 input   66.30 | X-H torsion
[ 10763 10752 10751 10750 ] final   67.90 input  -60.55 | X-H torsion
[ 11005 11000 10999 10996 ] final  -51.94 input  -57.11 | X-H torsion

> <Gold.Protein.ActiveResidues>
 VAL166  LYS551  ARG553  GLY616  TRP617  ASP618  TYR619  PRO620  LYS621  CYS622 
 ASP623  PHE694  ASN695  SER759  ASP760  ASP761  ALA762  ILE779  LEU786  VAL792 
 PHE793  MET794  SER795  GLU796  ALA797  LYS798  CYS799  TRP800  GLU811  SER814 

> <Gold.Protein.RotatedAtoms>
  150.8445  134.7748  159.6958 H   0  0  0  0  0  0  0  0  0  0  0  0  # atno 6907 bound_to 6896
  152.4525  134.5360  159.9835 H   0  0  0  0  0  0  0  0  0  0  0  0  # atno 6908 bound_to 6896
  151.5494  133.3382  159.2986 H   0  0  0  0  0  0  0  0  0  0  0  0  # atno 6909 bound_to 6896
  145.2091  139.2915  143.4277 H   0  0  0  0  0  0  0  0  0  0  0  0  # atno 7974 bound_to 7965
  154.4092  140.1653  156.2237 H   0  0  0  0  0  0  0  0  0  0  0  0  # atno 8008 bound_to 7997
  155.9342  140.3412  155.6251 H   0  0  0  0  0  0  0  0  0  0  0  0  # atno 8009 bound_to 7997
  155.7069  140.0752  157.2378 H   0  0  0  0  0  0  0  0  0  0  0  0  # atno 8010 bound_to 7997
  139.4974  144.6054  151.6391 H   0  0  0  0  0  0  0  0  0  0  0  0  # atno 10167 bound_to 10162
  156.5310  130.8521  151.2716 H   0  0  0  0  0  0  0  0  0  0  0  0  # atno 10718 bound_to 10713
  153.0208  135.5267  154.7051 H   0  0  0  0  0  0  0  0  0  0  0  0  # atno 10763 bound_to 10752
  154.6149  135.2882  155.0393 H   0  0  0  0  0  0  0  0  0  0  0  0  # atno 10764 bound_to 10752
  154.1401  135.6579  153.4993 H   0  0  0  0  0  0  0  0  0  0  0  0  # atno 10765 bound_to 10752
  141.0898  133.6635  156.3951 H   0  0  0  0  0  0  0  0  0  0  0  0  # atno 11005 bound_to 11000
  146.3401  140.2361  142.8594 LP  0  0  0  0  0  0  0  0  0  0  0  0  # atno 17320 bound_to 7965
  144.9873  140.8514  143.5361 LP  0  0  0  0  0  0  0  0  0  0  0  0  # atno 17321 bound_to 7965
  140.5714  144.0102  150.6219 LP  0  0  0  0  0  0  0  0  0  0  0  0  # atno 17342 bound_to 10162
  140.3221  143.3130  152.0773 LP  0  0  0  0  0  0  0  0  0  0  0  0  # atno 17343 bound_to 10162
  157.7421  130.9885  150.2496 LP  0  0  0  0  0  0  0  0  0  0  0  0  # atno 17370 bound_to 10713
  156.3060  130.3765  149.7706 LP  0  0  0  0  0  0  0  0  0  0  0  0  # atno 17371 bound_to 10713
  140.5279  134.6241  157.5340 LP  0  0  0  0  0  0  0  0  0  0  0  0  # atno 17394 bound_to 11000
  139.9722  134.7274  156.0019 LP  0  0  0  0  0  0  0  0  0  0  0  0  # atno 17395 bound_to 11000

$$$$
