AV-unprocessed.smi:2114|AV-procd|sdf|8621|dock8
  -GOLD-   2272011363D 1   1.00000     0.00000
 Structure written by MMmdl.
 47 48  0  0  0  0  0  0  0  0  1 V2000
  155.1928  141.2622  170.2140 C   0  0  0  0  0  0  0  0  0  0  0  0
  155.6544  142.2735  169.3361 O   0  0  0  0  0  0  0  0  0  0  0  0
  154.9999  142.2424  168.0778 C   0  0  0  0  0  0  0  0  0  0  0  0
  155.4853  143.4200  167.2173 C   0  0  2  0  0  0  0  0  0  0  0  0
  155.1191  144.7713  167.8462 C   0  0  0  0  0  0  0  0  0  0  0  0
  154.8945  143.3353  165.8836 N   0  0  0  0  0  0  0  0  0  0  0  0
  154.9205  142.2598  165.0790 C   0  0  0  0  0  0  0  0  0  0  0  0
  155.5027  141.2107  165.3546 O   0  0  0  0  0  0  0  0  0  0  0  0
  154.2286  142.4280  163.7578 C   0  0  0  0  0  0  0  0  0  0  0  0
  154.3823  141.4860  162.7160 C   0  0  0  0  0  0  0  0  0  0  0  0
  153.7329  141.7129  161.4875 C   0  0  0  0  0  0  0  0  0  0  0  0
  152.9528  142.8778  161.3369 C   0  0  0  0  0  0  0  0  0  0  0  0
  152.3131  143.1134  160.1121 N   0  0  0  0  0  0  0  0  0  0  0  0
  151.4280  142.0367  159.6899 C   0  0  0  0  0  0  0  0  0  0  0  0
  150.9138  142.3077  158.2643 C   0  0  1  0  0  0  0  0  0  0  0  0
  149.8920  141.2584  157.8138 C   0  0  0  0  0  0  0  0  0  0  0  0
  150.2823  143.5881  158.2221 O   0  0  0  0  0  0  0  0  0  0  0  0
  151.1085  144.6807  158.6346 C   0  0  2  0  0  0  0  0  0  0  0  0
  152.1966  145.0106  157.5972 C   0  0  0  0  0  0  0  0  0  0  0  0
  151.6682  144.4185  160.0467 C   0  0  0  0  0  0  0  0  0  0  0  0
  152.8072  143.7905  162.3267 N   0  0  0  0  0  0  0  0  0  0  0  0
  153.4363  143.5686  163.5009 C   0  0  0  0  0  0  0  0  0  0  0  0
  155.7263  141.3284  171.1621 H   0  0  0  0  0  0  0  0  0  0  0  0
  155.3690  140.2693  169.7979 H   0  0  0  0  0  0  0  0  0  0  0  0
  154.1272  141.3727  170.4185 H   0  0  0  0  0  0  0  0  0  0  0  0
  155.1941  141.2953  167.5713 H   0  0  0  0  0  0  0  0  0  0  0  0
  153.9221  142.3145  168.2318 H   0  0  0  0  0  0  0  0  0  0  0  0
  156.5740  143.3733  167.1559 H   0  0  0  0  0  0  0  0  0  0  0  0
  155.5551  144.8720  168.8405 H   0  0  0  0  0  0  0  0  0  0  0  0
  154.0390  144.8861  167.9433 H   0  0  0  0  0  0  0  0  0  0  0  0
  155.4896  145.5986  167.2400 H   0  0  0  0  0  0  0  0  0  0  0  0
  154.4100  144.1569  165.5528 H   0  0  0  0  0  0  0  0  0  0  0  0
  154.9920  140.6032  162.8433 H   0  0  0  0  0  0  0  0  0  0  0  0
  153.8367  141.0070  160.6762 H   0  0  0  0  0  0  0  0  0  0  0  0
  151.9636  141.0869  159.7221 H   0  0  0  0  0  0  0  0  0  0  0  0
  150.5878  141.9577  160.3816 H   0  0  0  0  0  0  0  0  0  0  0  0
  151.7489  142.2876  157.5637 H   0  0  0  0  0  0  0  0  0  0  0  0
  150.3291  140.2595  157.8122 H   0  0  0  0  0  0  0  0  0  0  0  0
  149.5394  141.4677  156.8035 H   0  0  0  0  0  0  0  0  0  0  0  0
  149.0238  141.2436  158.4732 H   0  0  0  0  0  0  0  0  0  0  0  0
  150.4548  145.5513  158.6936 H   0  0  0  0  0  0  0  0  0  0  0  0
  152.7326  145.9181  157.8762 H   0  0  0  0  0  0  0  0  0  0  0  0
  151.7580  145.1768  156.6132 H   0  0  0  0  0  0  0  0  0  0  0  0
  152.9359  144.2154  157.5051 H   0  0  0  0  0  0  0  0  0  0  0  0
  150.8534  144.4509  160.7718 H   0  0  0  0  0  0  0  0  0  0  0  0
  152.3742  145.2016  160.3271 H   0  0  0  0  0  0  0  0  0  0  0  0
  153.2940  144.3267  164.2573 H   0  0  0  0  0  0  0  0  0  0  0  0
  1  2  1  0  0  0  0
  1 23  1  0  0  0  0
  1 24  1  0  0  0  0
  1 25  1  0  0  0  0
  2  3  1  0  0  0  0
  3  4  1  0  0  0  0
  3 26  1  0  0  0  0
  3 27  1  0  0  0  0
  4  5  1  0  0  0  0
  4  6  1  0  0  0  0
  4 28  1  0  0  0  0
  5 29  1  0  0  0  0
  5 30  1  0  0  0  0
  5 31  1  0  0  0  0
  6  7  1  0  0  0  0
  6 32  1  0  0  0  0
  7  8  2  0  0  0  0
  7  9  1  0  0  0  0
  9 22  1  0  0  0  0
  9 10  2  0  0  0  0
 10 11  1  0  0  0  0
 10 33  1  0  0  0  0
 11 12  2  0  0  0  0
 11 34  1  0  0  0  0
 12 13  1  0  0  0  0
 12 21  1  0  0  0  0
 13 20  1  0  0  0  0
 13 14  1  0  0  0  0
 14 15  1  0  0  0  0
 14 35  1  0  0  0  0
 14 36  1  0  0  0  0
 15 16  1  0  0  0  0
 15 17  1  0  0  0  0
 15 37  1  0  0  0  0
 16 38  1  0  0  0  0
 16 39  1  0  0  0  0
 16 40  1  0  0  0  0
 17 18  1  0  0  0  0
 18 19  1  0  0  0  0
 18 20  1  0  0  0  0
 18 41  1  0  0  0  0
 19 42  1  0  0  0  0
 19 43  1  0  0  0  0
 19 44  1  0  0  0  0
 20 45  1  0  0  0  0
 20 46  1  0  0  0  0
 21 22  2  0  0  0  0
 22 47  1  0  0  0  0
M  END
> <s_m_source_file>
AV-unprocessed.smi

> <i_m_source_file_index>
2114

> <i_lp_mmshare_version>
43012

> <i_f3d_flags>
0

> <s_epik_input>
W0NIM11PW0NIMl1bQ0BIXShbQ0gzXSlbTkhdQyg9TyljMVtjSF1bY0hdYyhuW2NIXTEpTjJbQ0gyXVtDQEBIXShbQ0gzXSlPW0NAQEhdKFtDSDNdKVtDSDJdMg==

> <s_epik_cmdline>
J2VwaWtfcHl0aG9uJywgJy1waCcsICc3LjAnLCAnLXRuJywgJzgnLCAnLW1hJywgJzIwMCcsICctbWV0YWxfYmluZGluZycsICctaW1hZScsICc8aW5maWxlLm1hZT4nLCAnLW9tYWUnLCAnPG91dGZpbGUubWFlPic=

> <r_lp_tautomer_probability>
1

> <r_epik_Ionization_Penalty>
1.92915e-05

> <r_epik_Ionization_Penalty_Charging>
0

> <r_epik_Ionization_Penalty_Neutral>
1.92915e-05

> <r_epik_State_Penalty>
-0

> <r_epik_Charging_Adjusted_Penalty>
0

> <i_epik_Tot_Q>
0

> <i_epik_Tot_abs_Q>
0

> <r_epik_Metal_State_Penalty>
-0

> <b_epik_Metal_Only>
0

> <s_lp_Force_Field>
OPLS_2005

> <r_lp_Energy>
24.3529

> <b_lp_Chiralities_Consistent>
1

> <s_lp_Variant>
AV-unprocessed.smi:2114-5

> <Gold.Version>
5.8.1

> <Gold.Id.Protein>
6NUR|6NUR_protein|mol2

> <Gold.PLP.Fitness>
42.3373

> <Gold.PLP.PLP>
-42.5223

> <Gold.PLP.part.hbond>
0.0000

> <Gold.PLP.part.metal>
0.0000

> <Gold.PLP.part.buried>
-3.1153

> <Gold.PLP.part.nonpolar>
-39.6787

> <Gold.PLP.part.repulsive>
0.7232

> <Gold.PLP.ligand.clash>
0.0000

> <Gold.PLP.ligand.torsion>
0.1501

> <Gold.PLP.Chemscore.Hbond>
0.0000

> <Gold.PLP.Chemscore.CHOScore>
0.0000

> <Gold.PLP.Chemscore.Metal>
0.0000

> <Gold.PLP.Chemscore.Internal.Correction>
0.1153

> <Gold.Rescore>
     Score         DG    S(hbond)    S(metal)    S(lipo)     H(rot)  DE(clash)    DE(int)     intcor
     13.70     -16.84       0.00        0.00     130.39       1.52       3.02       0.12       ----

> <Gold.Chemscore.Fitness>
13.6951

> <Gold.Chemscore.DG>
-16.8373

> <Gold.Chemscore.ZeroCoef>
-5.4800

> <Gold.Chemscore.Hbond>
0.0000

> <Gold.Chemscore.Metal>
0.0000

> <Gold.Chemscore.Lipo>
130.3865

> <Gold.Chemscore.Internal_Hbond>
0.0000

> <Gold.Chemscore.DEClash>
3.0202

> <Gold.Chemscore.DEInternal>
0.1219

> <Gold.Chemscore.Rot>
1.5226

> <Gold.Chemscore.Internal.Correction>
   9.000000E+99

> <Gold.Chemscore.Hbond.Weighted>
-0.0000

> <Gold.Chemscore.Metal.Weighted>
-0.0000

> <Gold.Chemscore.Lipo.Weighted>
-15.2552

> <Gold.Chemscore.Internal_Hbond.Weighted>
0.0000

> <Gold.Chemscore.DEClash.Weighted>
3.0202

> <Gold.Chemscore.DEInternal.Weighted>
0.1219

> <Gold.Chemscore.Rot.Weighted>
3.8980

> <Gold.Chemscore.Internal.Correction.Weighted>
   9.000000E+99

> <Gold.Protein.RotatedTorsions>
[ 6907 6896 6895 6894 ] final  175.73 input  -60.11 | X-H torsion
[ 7974 7965 7964 7962 ] final  -21.20 input  175.53 | X-H torsion
[ 8008 7997 7996 7995 ] final -121.24 input   59.86 | X-H torsion
[ 10167 10162 10161 10158 ] final  150.72 input  -65.29 | X-H torsion
[ 10718 10713 10712 10709 ] final  -23.77 input   66.30 | X-H torsion
[ 10763 10752 10751 10750 ] final  -62.76 input  -60.55 | X-H torsion
[ 11005 11000 10999 10996 ] final  115.49 input  -57.11 | X-H torsion

> <Gold.Protein.ActiveResidues>
 VAL166  LYS551  ARG553  GLY616  TRP617  ASP618  TYR619  PRO620  LYS621  CYS622 
 ASP623  PHE694  ASN695  SER759  ASP760  ASP761  ALA762  ILE779  LEU786  VAL792 
 PHE793  MET794  SER795  GLU796  ALA797  LYS798  CYS799  TRP800  GLU811  SER814 

> <Gold.Protein.RotatedAtoms>
  151.7315  133.3318  159.3341 H   0  0  0  0  0  0  0  0  0  0  0  0  # atno 6907 bound_to 6896
  150.7611  134.6359  159.6220 H   0  0  0  0  0  0  0  0  0  0  0  0  # atno 6908 bound_to 6896
  152.3589  134.6903  160.0265 H   0  0  0  0  0  0  0  0  0  0  0  0  # atno 6909 bound_to 6896
  146.1746  140.4308  142.8518 H   0  0  0  0  0  0  0  0  0  0  0  0  # atno 7974 bound_to 7965
  155.1448  140.0402  157.2807 H   0  0  0  0  0  0  0  0  0  0  0  0  # atno 8008 bound_to 7997
  154.6447  140.2555  155.7255 H   0  0  0  0  0  0  0  0  0  0  0  0  # atno 8009 bound_to 7997
  156.2549  140.2848  156.0855 H   0  0  0  0  0  0  0  0  0  0  0  0  # atno 8010 bound_to 7997
  139.4847  144.5499  151.7418 H   0  0  0  0  0  0  0  0  0  0  0  0  # atno 10167 bound_to 10162
  156.4866  130.4557  149.6780 H   0  0  0  0  0  0  0  0  0  0  0  0  # atno 10718 bound_to 10713
  154.3048  135.6227  153.5440 H   0  0  0  0  0  0  0  0  0  0  0  0  # atno 10763 bound_to 10752
  152.9836  135.5687  154.5243 H   0  0  0  0  0  0  0  0  0  0  0  0  # atno 10764 bound_to 10752
  154.4881  135.2866  155.1494 H   0  0  0  0  0  0  0  0  0  0  0  0  # atno 10765 bound_to 10752
  139.9011  134.9584  156.7053 H   0  0  0  0  0  0  0  0  0  0  0  0  # atno 11005 bound_to 11000
  144.8216  140.6559  143.6349 LP  0  0  0  0  0  0  0  0  0  0  0  0  # atno 17320 bound_to 7965
  145.4247  139.1558  143.4055 LP  0  0  0  0  0  0  0  0  0  0  0  0  # atno 17321 bound_to 7965
  140.5052  144.1109  150.5981 LP  0  0  0  0  0  0  0  0  0  0  0  0  # atno 17342 bound_to 10162
  140.4016  143.2701  151.9941 LP  0  0  0  0  0  0  0  0  0  0  0  0  # atno 17343 bound_to 10162
  156.3468  130.7411  151.2365 LP  0  0  0  0  0  0  0  0  0  0  0  0  # atno 17370 bound_to 10713
  157.7478  131.0388  150.4521 LP  0  0  0  0  0  0  0  0  0  0  0  0  # atno 17371 bound_to 10713
  140.7118  133.9216  155.8089 LP  0  0  0  0  0  0  0  0  0  0  0  0  # atno 17394 bound_to 11000
  141.0294  134.0777  157.4031 LP  0  0  0  0  0  0  0  0  0  0  0  0  # atno 17395 bound_to 11000

$$$$
