AV-unprocessed.smi:2480|AV-procd|sdf|9770|dock1
  -GOLD-   2272013413D 1   1.00000     0.00000
 Structure written by MMmdl.
 33 34  0  0  0  0  0  0  0  0  3 V2000
  151.1685  141.0209  156.9248 O   0  0  0  0  0  0  0  0  0  0  0  0
  150.5322  142.0290  156.6253 C   0  0  0  0  0  0  0  0  0  0  0  0
  149.4987  142.0594  155.7605 N   0  0  0  0  0  0  0  0  0  0  0  0
  148.9029  140.9962  155.0218 C   0  0  0  0  0  0  0  0  0  0  0  0
  149.5541  139.7545  154.8169 C   0  0  0  0  0  0  0  0  0  0  0  0
  148.9205  138.7712  154.0341 C   0  0  0  0  0  0  0  0  0  0  0  0
  147.7198  138.9496  153.4498 N   0  0  0  0  0  0  0  0  0  0  0  0
  147.1054  140.1366  153.6293 C   0  0  0  0  0  0  0  0  0  0  0  0
  147.6393  141.1946  154.3996 C   0  0  0  0  0  0  0  0  0  0  0  0
  146.8760  142.4506  154.5206 N   0  3  0  0  0  0  0  0  0  0  0  0
  146.4214  142.9379  153.4912 O   0  0  0  0  0  0  0  0  0  0  0  0
  146.7104  142.9335  155.6355 O   0  5  0  0  0  0  0  0  0  0  0  0
  150.8280  143.2231  157.1721 N   0  0  0  0  0  0  0  0  0  0  0  0
  151.8779  143.5508  158.1398 C   0  0  1  0  0  0  0  0  0  0  0  0
  151.7280  144.9880  158.6207 C   0  0  0  0  0  0  0  0  0  0  0  0
  151.8428  145.3615  159.9064 C   0  0  0  0  0  0  0  0  0  0  0  0
  152.1468  144.3942  161.0352 C   0  0  0  0  0  0  0  0  0  0  0  0
  152.6516  143.0361  160.5158 C   0  0  0  0  0  0  0  0  0  0  0  0
  151.8319  142.5472  159.3117 C   0  0  0  0  0  0  0  0  0  0  0  0
  149.0307  142.9505  155.6796 H   0  0  0  0  0  0  0  0  0  0  0  0
  150.5302  139.5410  155.2234 H   0  0  0  0  0  0  0  0  0  0  0  0
  149.3987  137.8181  153.8630 H   0  0  0  0  0  0  0  0  0  0  0  0
  146.1469  140.2418  153.1423 H   0  0  0  0  0  0  0  0  0  0  0  0
  150.2702  144.0046  156.8589 H   0  0  0  0  0  0  0  0  0  0  0  0
  152.8604  143.4702  157.6721 H   0  0  0  0  0  0  0  0  0  0  0  0
  151.5144  145.7360  157.8711 H   0  0  0  0  0  0  0  0  0  0  0  0
  151.7025  146.3975  160.1779 H   0  0  0  0  0  0  0  0  0  0  0  0
  152.8891  144.8371  161.6994 H   0  0  0  0  0  0  0  0  0  0  0  0
  151.2362  144.2603  161.6198 H   0  0  0  0  0  0  0  0  0  0  0  0
  153.6971  143.1284  160.2187 H   0  0  0  0  0  0  0  0  0  0  0  0
  152.6243  142.2981  161.3181 H   0  0  0  0  0  0  0  0  0  0  0  0
  150.7998  142.3971  159.6325 H   0  0  0  0  0  0  0  0  0  0  0  0
  152.1950  141.5731  158.9812 H   0  0  0  0  0  0  0  0  0  0  0  0
  1  2  2  0  0  0  0
  2  3  1  0  0  0  0
  2 13  1  0  0  0  0
  3  4  1  0  0  0  0
  3 20  1  0  0  0  0
  4  9  1  0  0  0  0
  4  5  2  0  0  0  0
  5  6  1  0  0  0  0
  5 21  1  0  0  0  0
  6  7  2  0  0  0  0
  6 22  1  0  0  0  0
  7  8  1  0  0  0  0
  8  9  2  0  0  0  0
  8 23  1  0  0  0  0
  9 10  1  0  0  0  0
 10 11  2  0  0  0  0
 10 12  1  0  0  0  0
 13 14  1  0  0  0  0
 13 24  1  0  0  0  0
 14 19  1  0  0  0  0
 14 15  1  0  0  0  0
 14 25  1  0  0  0  0
 15 16  2  0  0  0  0
 15 26  1  0  0  0  0
 16 17  1  0  0  0  0
 16 27  1  0  0  0  0
 17 18  1  0  0  0  0
 17 28  1  0  0  0  0
 17 29  1  0  0  0  0
 18 19  1  0  0  0  0
 18 30  1  0  0  0  0
 18 31  1  0  0  0  0
 19 32  1  0  0  0  0
 19 33  1  0  0  0  0
M  CHG  1  10   1
M  CHG  1  12  -1
M  END
> <s_m_source_file>
AV-unprocessed.smi

> <i_m_source_file_index>
2480

> <i_lp_mmshare_version>
43012

> <i_f3d_flags>
0

> <s_epik_input>
W0NIMl0xW0NIMl1bQ0gyXVtDSF09W0NIXVtDQEhdMVtOSF1DKD1PKVtOSF1jMltjSF1bY0hdbltjSF1jMltOK10oPU8pW08tXQ==

> <s_epik_cmdline>
J2VwaWtfcHl0aG9uJywgJy1waCcsICc3LjAnLCAnLXRuJywgJzgnLCAnLW1hJywgJzIwMCcsICctbWV0YWxfYmluZGluZycsICctaW1hZScsICc8aW5maWxlLm1hZT4nLCAnLW9tYWUnLCAnPG91dGZpbGUubWFlPic=

> <r_lp_tautomer_probability>
1

> <r_epik_Ionization_Penalty>
0.000149203

> <r_epik_Ionization_Penalty_Charging>
0

> <r_epik_Ionization_Penalty_Neutral>
0.000149203

> <r_epik_State_Penalty>
-0

> <r_epik_Charging_Adjusted_Penalty>
0

> <i_epik_Tot_Q>
0

> <i_epik_Tot_abs_Q>
2

> <r_epik_Metal_State_Penalty>
-0

> <b_epik_Metal_Only>
0

> <s_lp_Force_Field>
OPLS_2005

> <r_lp_Energy>
27.1636

> <b_lp_Chiralities_Consistent>
1

> <s_lp_Variant>
AV-unprocessed.smi:2480-2

> <Gold.Version>
5.8.1

> <Gold.Id.Protein>
6NUR|6NUR_protein|mol2

> <Gold.PLP.Fitness>
50.3153

> <Gold.PLP.PLP>
-40.6494

> <Gold.PLP.part.hbond>
-2.0000

> <Gold.PLP.part.metal>
0.0000

> <Gold.PLP.part.buried>
-5.4363

> <Gold.PLP.part.nonpolar>
-35.6666

> <Gold.PLP.part.repulsive>
2.0265

> <Gold.PLP.ligand.clash>
0.0000

> <Gold.PLP.ligand.torsion>
0.9762

> <Gold.PLP.Chemscore.Hbond>
1.8720

> <Gold.PLP.Chemscore.CHOScore>
1.9971

> <Gold.PLP.Chemscore.Metal>
0.0000

> <Gold.Chemscore.Hbonds>
donor molecule, donor type, donor heavy atom, donor atom, acceptor molecule, acceptor atom, score
      L1  H     3    20       P1  8028  1.00
      L1  H    13    24       P1  8028  1.00
      L1  C     6    22       P1  7948  0.84
      L1  C     8    23       P1 10175  0.92

> <Gold.PLP.Chemscore.Internal.Correction>
0.0111

> <Gold.Rescore>
     Score         DG    S(hbond)    S(metal)    S(lipo)     H(rot)  DE(clash)    DE(int)     intcor
     17.63     -21.22       1.88        0.00     102.66       1.00       0.29       3.30       ----

> <Gold.Chemscore.Fitness>
17.6319

> <Gold.Chemscore.DG>
-21.2195

> <Gold.Chemscore.ZeroCoef>
-5.4800

> <Gold.Chemscore.Hbond>
1.8827

> <Gold.Chemscore.Metal>
0.0000

> <Gold.Chemscore.Lipo>
102.6601

> <Gold.Chemscore.Internal_Hbond>
0.0000

> <Gold.Chemscore.DEClash>
0.2920

> <Gold.Chemscore.DEInternal>
3.2956

> <Gold.Chemscore.Rot>
1.0000

> <Gold.Chemscore.Internal.Correction>
   9.000000E+99

> <Gold.Chemscore.Hbonds>
donor molecule, donor type, donor heavy atom, donor atom, acceptor molecule, acceptor atom, score
      L1  H     3    20       P1  8028  0.99
      L1  H    13    24       P1  8028  0.93

> <Gold.Chemscore.Hbond.Weighted>
-6.2883

> <Gold.Chemscore.Metal.Weighted>
-0.0000

> <Gold.Chemscore.Lipo.Weighted>
-12.0112

> <Gold.Chemscore.Internal_Hbond.Weighted>
0.0000

> <Gold.Chemscore.DEClash.Weighted>
0.2920

> <Gold.Chemscore.DEInternal.Weighted>
3.2956

> <Gold.Chemscore.Rot.Weighted>
2.5600

> <Gold.Chemscore.Internal.Correction.Weighted>
   9.000000E+99

> <Gold.Protein.RotatedTorsions>
[ 6907 6896 6895 6894 ] final  -55.30 input  -60.11 | X-H torsion
[ 7974 7965 7964 7962 ] final   91.43 input  175.53 | X-H torsion
[ 8008 7997 7996 7995 ] final  -41.49 input   59.86 | X-H torsion
[ 10167 10162 10161 10158 ] final  -40.87 input  -65.29 | X-H torsion
[ 10718 10713 10712 10709 ] final   61.44 input   66.30 | X-H torsion
[ 10763 10752 10751 10750 ] final -130.08 input  -60.55 | X-H torsion
[ 11005 11000 10999 10996 ] final  131.96 input  -57.11 | X-H torsion

> <Gold.Protein.ActiveResidues>
 VAL166  LYS551  ARG553  GLY616  TRP617  ASP618  TYR619  PRO620  LYS621  CYS622 
 ASP623  PHE694  ASN695  SER759  ASP760  ASP761  ALA762  ILE779  LEU786  VAL792 
 PHE793  MET794  SER795  GLU796  ALA797  LYS798  CYS799  TRP800  GLU811  SER814 

> <Gold.Protein.RotatedAtoms>
  150.8263  134.7496  159.6815 H   0  0  0  0  0  0  0  0  0  0  0  0  # atno 6907 bound_to 6896
  152.4374  134.5657  159.9916 H   0  0  0  0  0  0  0  0  0  0  0  0  # atno 6908 bound_to 6896
  151.5828  133.3338  159.3048 H   0  0  0  0  0  0  0  0  0  0  0  0  # atno 6909 bound_to 6896
  145.5058  139.2276  143.2752 H   0  0  0  0  0  0  0  0  0  0  0  0  # atno 7974 bound_to 7965
  154.4004  140.1498  156.3199 H   0  0  0  0  0  0  0  0  0  0  0  0  # atno 8008 bound_to 7997
  155.8539  140.3456  155.5690 H   0  0  0  0  0  0  0  0  0  0  0  0  # atno 8009 bound_to 7997
  155.7954  140.0862  157.1977 H   0  0  0  0  0  0  0  0  0  0  0  0  # atno 8010 bound_to 7997
  140.7021  143.3128  151.2986 H   0  0  0  0  0  0  0  0  0  0  0  0  # atno 10167 bound_to 10162
  157.5828  130.8995  149.9461 H   0  0  0  0  0  0  0  0  0  0  0  0  # atno 10718 bound_to 10713
  154.8756  135.3874  154.4024 H   0  0  0  0  0  0  0  0  0  0  0  0  # atno 10763 bound_to 10752
  153.4747  135.7030  153.5978 H   0  0  0  0  0  0  0  0  0  0  0  0  # atno 10764 bound_to 10752
  153.4419  135.3854  155.2201 H   0  0  0  0  0  0  0  0  0  0  0  0  # atno 10765 bound_to 10752
  139.9761  134.9563  156.9513 H   0  0  0  0  0  0  0  0  0  0  0  0  # atno 11005 bound_to 11000
  146.2198  140.5861  142.9022 LP  0  0  0  0  0  0  0  0  0  0  0  0  # atno 17320 bound_to 7965
  144.7755  140.5729  143.6641 LP  0  0  0  0  0  0  0  0  0  0  0  0  # atno 17321 bound_to 7965
  139.6556  144.0282  152.2657 LP  0  0  0  0  0  0  0  0  0  0  0  0  # atno 17342 bound_to 10162
  139.9833  144.6413  150.7881 LP  0  0  0  0  0  0  0  0  0  0  0  0  # atno 17343 bound_to 10162
  156.0875  130.3666  150.0459 LP  0  0  0  0  0  0  0  0  0  0  0  0  # atno 17370 bound_to 10713
  156.8596  130.9487  151.3619 LP  0  0  0  0  0  0  0  0  0  0  0  0  # atno 17371 bound_to 10713
  140.5191  134.0925  155.7288 LP  0  0  0  0  0  0  0  0  0  0  0  0  # atno 17394 bound_to 11000
  141.1438  133.9091  157.2264 LP  0  0  0  0  0  0  0  0  0  0  0  0  # atno 17395 bound_to 11000

$$$$
