AV-unprocessed.smi:232|AV-procd|sdf|1780|dock3
  -GOLD-   2262020323D 1   1.00000     0.00000
 Structure written by MMmdl.
 52 55  0  0  0  0  0  0  0  0  1 V2000
  159.9907  133.3219  151.6202 C   0  0  0  0  0  0  0  0  0  0  0  0
  158.9794  133.8593  152.6403 C   0  0  0  0  0  0  0  0  0  0  0  0
  159.0187  135.3957  152.7826 C   0  0  1  0  0  0  0  0  0  0  0  0
  158.6538  136.1494  151.4936 C   0  0  0  0  0  0  0  0  0  0  0  0
  157.9146  137.4075  151.9648 C   0  0  0  0  0  0  0  0  0  0  0  0
  157.9573  137.3278  153.4937 C   0  0  1  0  0  0  0  0  0  0  0  0
  156.7410  137.9739  154.1765 C   0  0  0  0  0  0  0  0  0  0  0  0
  158.0865  135.9042  153.7830 N   0  0  0  0  0  0  0  0  0  0  0  0
  158.3909  135.5806  155.0621 C   0  0  0  0  0  0  0  0  0  0  0  0
  159.6202  135.0930  155.3788 N   0  0  0  0  0  0  0  0  0  0  0  0
  159.9042  134.7687  156.6440 C   0  0  0  0  0  0  0  0  0  0  0  0
  159.1213  134.8478  157.7228 N   0  0  0  0  0  0  0  0  0  0  0  0
  157.8876  135.3341  157.4036 C   0  0  0  0  0  0  0  0  0  0  0  0
  157.4438  135.7221  156.1093 C   0  0  0  0  0  0  0  0  0  0  0  0
  156.1295  136.1683  156.1682 N   0  0  0  0  0  0  0  0  0  0  0  0
  155.8126  136.0502  157.4293 C   0  0  0  0  0  0  0  0  0  0  0  0
  156.8106  135.5596  158.2415 N   0  0  0  0  0  0  0  0  0  0  0  0
  156.7367  135.3293  159.6731 C   0  0  0  0  0  0  0  0  0  0  0  0
  155.5038  135.9987  160.3106 C   0  0  1  0  0  0  0  0  0  0  0  0
  154.3355  135.2427  160.0498 O   0  0  0  0  0  0  0  0  0  0  0  0
  155.6684  136.2400  161.8247 C   0  0  1  0  0  0  0  0  0  0  0  0
  154.6425  137.1834  162.4761 C   0  0  0  0  0  0  0  0  0  0  0  0
  154.1362  136.3991  163.6760 C   0  0  0  0  0  0  0  0  0  0  0  0
  155.2103  135.3372  163.8800 C   0  0  0  0  0  0  0  0  0  0  0  0
  155.6009  135.0201  162.5547 O   0  0  0  0  0  0  0  0  0  0  0  0
  159.9548  132.2332  151.5774 H   0  0  0  0  0  0  0  0  0  0  0  0
  161.0078  133.6106  151.8861 H   0  0  0  0  0  0  0  0  0  0  0  0
  159.7858  133.6981  150.6177 H   0  0  0  0  0  0  0  0  0  0  0  0
  157.9745  133.5386  152.3635 H   0  0  0  0  0  0  0  0  0  0  0  0
  159.1919  133.3934  153.6029 H   0  0  0  0  0  0  0  0  0  0  0  0
  160.0260  135.6943  153.0796 H   0  0  0  0  0  0  0  0  0  0  0  0
  159.5432  136.3889  150.9096 H   0  0  0  0  0  0  0  0  0  0  0  0
  157.9936  135.5544  150.8611 H   0  0  0  0  0  0  0  0  0  0  0  0
  158.3733  138.3249  151.5945 H   0  0  0  0  0  0  0  0  0  0  0  0
  156.8856  137.3818  151.6030 H   0  0  0  0  0  0  0  0  0  0  0  0
  158.8607  137.8399  153.8294 H   0  0  0  0  0  0  0  0  0  0  0  0
  156.6548  139.0252  153.9015 H   0  0  0  0  0  0  0  0  0  0  0  0
  156.8216  137.9254  155.2629 H   0  0  0  0  0  0  0  0  0  0  0  0
  155.8145  137.4761  153.8890 H   0  0  0  0  0  0  0  0  0  0  0  0
  160.9013  134.3909  156.8163 H   0  0  0  0  0  0  0  0  0  0  0  0
  154.8369  136.3230  157.8048 H   0  0  0  0  0  0  0  0  0  0  0  0
  156.7259  134.2532  159.8524 H   0  0  0  0  0  0  0  0  0  0  0  0
  157.6513  135.7122  160.1271 H   0  0  0  0  0  0  0  0  0  0  0  0
  155.3542  136.9697  159.8365 H   0  0  0  0  0  0  0  0  0  0  0  0
  154.5938  134.4107  159.6839 H   0  0  0  0  0  0  0  0  0  0  0  0
  156.6641  136.6504  162.0022 H   0  0  0  0  0  0  0  0  0  0  0  0
  155.1301  138.1064  162.7923 H   0  0  0  0  0  0  0  0  0  0  0  0
  153.8222  137.4591  161.8129 H   0  0  0  0  0  0  0  0  0  0  0  0
  153.9805  137.0203  164.5584 H   0  0  0  0  0  0  0  0  0  0  0  0
  153.1890  135.9186  163.4276 H   0  0  0  0  0  0  0  0  0  0  0  0
  156.0629  135.7428  164.4270 H   0  0  0  0  0  0  0  0  0  0  0  0
  154.8421  134.4604  164.4130 H   0  0  0  0  0  0  0  0  0  0  0  0
  1  2  1  0  0  0  0
  1 26  1  0  0  0  0
  1 27  1  0  0  0  0
  1 28  1  0  0  0  0
  2  3  1  0  0  0  0
  2 29  1  0  0  0  0
  2 30  1  0  0  0  0
  3  8  1  0  0  0  0
  3  4  1  0  0  0  0
  3 31  1  0  0  0  0
  4  5  1  0  0  0  0
  4 32  1  0  0  0  0
  4 33  1  0  0  0  0
  5  6  1  0  0  0  0
  5 34  1  0  0  0  0
  5 35  1  0  0  0  0
  6  7  1  0  0  0  0
  6  8  1  0  0  0  0
  6 36  1  0  0  0  0
  7 37  1  0  0  0  0
  7 38  1  0  0  0  0
  7 39  1  0  0  0  0
  8  9  1  0  0  0  0
  9 14  1  0  0  0  0
  9 10  2  0  0  0  0
 10 11  1  0  0  0  0
 11 12  2  0  0  0  0
 11 40  1  0  0  0  0
 12 13  1  0  0  0  0
 13 17  1  0  0  0  0
 13 14  2  0  0  0  0
 14 15  1  0  0  0  0
 15 16  2  0  0  0  0
 16 17  1  0  0  0  0
 16 41  1  0  0  0  0
 17 18  1  0  0  0  0
 18 19  1  0  0  0  0
 18 42  1  0  0  0  0
 18 43  1  0  0  0  0
 19 20  1  0  0  0  0
 19 21  1  0  0  0  0
 19 44  1  0  0  0  0
 20 45  1  0  0  0  0
 21 25  1  0  0  0  0
 21 22  1  0  0  0  0
 21 46  1  0  0  0  0
 22 23  1  0  0  0  0
 22 47  1  0  0  0  0
 22 48  1  0  0  0  0
 23 24  1  0  0  0  0
 23 49  1  0  0  0  0
 23 50  1  0  0  0  0
 24 25  1  0  0  0  0
 24 51  1  0  0  0  0
 24 52  1  0  0  0  0
M  END
> <s_m_source_file>
AV-unprocessed.smi

> <i_m_source_file_index>
232

> <i_lp_mmshare_version>
43012

> <i_f3d_flags>
0

> <s_epik_input>
W0NIM11bQ0gyXVtDQEBIXTFbQ0gyXVtDSDJdW0NAQEhdKFtDSDNdKU4xYyhuW2NIXW4yKWMoYzIzKW5bY0hdbjNbQ0gyXVtDQEhdKFtPSF0pW0NAQEhdNFtDSDJdW0NIMl1bQ0gyXU80

> <s_epik_cmdline>
J2VwaWtfcHl0aG9uJywgJy1waCcsICc3LjAnLCAnLXRuJywgJzgnLCAnLW1hJywgJzIwMCcsICctbWV0YWxfYmluZGluZycsICctaW1hZScsICc8aW5maWxlLm1hZT4nLCAnLW9tYWUnLCAnPG91dGZpbGUubWFlPic=

> <r_lp_tautomer_probability>
1

> <r_epik_Ionization_Penalty>
0.00258048

> <r_epik_Ionization_Penalty_Charging>
0

> <r_epik_Ionization_Penalty_Neutral>
0.00258048

> <r_epik_State_Penalty>
0.00168551

> <r_epik_Charging_Adjusted_Penalty>
0.00168551

> <i_epik_Tot_Q>
0

> <i_epik_Tot_abs_Q>
0

> <r_epik_Metal_State_Penalty>
-0

> <b_epik_Metal_Only>
0

> <s_lp_Force_Field>
OPLS_2005

> <r_lp_Energy>
53.8555

> <b_lp_Chiralities_Consistent>
1

> <s_lp_Variant>
AV-unprocessed.smi:232-14

> <Gold.Version>
5.8.1

> <Gold.Id.Protein>
6NUR|6NUR_protein|mol2

> <Gold.PLP.Fitness>
38.6301

> <Gold.PLP.PLP>
-34.0055

> <Gold.PLP.part.hbond>
-2.0000

> <Gold.PLP.part.metal>
0.0000

> <Gold.PLP.part.buried>
-3.1191

> <Gold.PLP.part.nonpolar>
-28.6133

> <Gold.PLP.part.repulsive>
0.1406

> <Gold.PLP.ligand.clash>
0.0000

> <Gold.PLP.ligand.torsion>
0.7575

> <Gold.PLP.Chemscore.Hbond>
2.0000

> <Gold.PLP.Chemscore.CHOScore>
0.0000

> <Gold.PLP.Chemscore.Metal>
0.0000

> <Gold.Chemscore.Hbonds>
donor molecule, donor type, donor heavy atom, donor atom, acceptor molecule, acceptor atom, score
      P1  H  6896  6908       L1    20  0.60
      P1  H 10752 10764       L1    15  1.00

> <Gold.PLP.Chemscore.Internal.Correction>
0.1396

> <Gold.Rescore>
     Score         DG    S(hbond)    S(metal)    S(lipo)     H(rot)  DE(clash)    DE(int)     intcor
     15.95     -17.47       1.81        0.00     103.87       2.43       0.32       1.20       ----

> <Gold.Chemscore.Fitness>
15.9473

> <Gold.Chemscore.DG>
-17.4664

> <Gold.Chemscore.ZeroCoef>
-5.4800

> <Gold.Chemscore.Hbond>
1.8097

> <Gold.Chemscore.Metal>
0.0000

> <Gold.Chemscore.Lipo>
103.8683

> <Gold.Chemscore.Internal_Hbond>
0.0000

> <Gold.Chemscore.DEClash>
0.3223

> <Gold.Chemscore.DEInternal>
1.1967

> <Gold.Chemscore.Rot>
2.4260

> <Gold.Chemscore.Internal.Correction>
   9.000000E+99

> <Gold.Chemscore.Hbonds>
donor molecule, donor type, donor heavy atom, donor atom, acceptor molecule, acceptor atom, score
      P1  H  6896  6908       L1    20  0.04
      P1  H 10752 10764       L1    15  0.80

> <Gold.Chemscore.Hbond.Weighted>
-6.0445

> <Gold.Chemscore.Metal.Weighted>
-0.0000

> <Gold.Chemscore.Lipo.Weighted>
-12.1526

> <Gold.Chemscore.Internal_Hbond.Weighted>
0.0000

> <Gold.Chemscore.DEClash.Weighted>
0.3223

> <Gold.Chemscore.DEInternal.Weighted>
1.1967

> <Gold.Chemscore.Rot.Weighted>
6.2107

> <Gold.Chemscore.Internal.Correction.Weighted>
   9.000000E+99

> <Gold.Protein.RotatedTorsions>
[ 6907 6896 6895 6894 ] final  -66.26 input  -60.11 | X-H torsion
[ 7974 7965 7964 7962 ] final  -21.82 input  175.53 | X-H torsion
[ 8008 7997 7996 7995 ] final  -36.21 input   59.86 | X-H torsion
[ 10167 10162 10161 10158 ] final -132.59 input  -65.29 | X-H torsion
[ 10718 10713 10712 10709 ] final   19.75 input   66.30 | X-H torsion
[ 10763 10752 10751 10750 ] final   80.48 input  -60.55 | X-H torsion
[ 11005 11000 10999 10996 ] final  -71.28 input  -57.11 | X-H torsion

> <Gold.Protein.ActiveResidues>
 VAL166  LYS551  ARG553  GLY616  TRP617  ASP618  TYR619  PRO620  LYS621  CYS622 
 ASP623  PHE694  ASN695  SER759  ASP760  ASP761  ALA762  ILE779  LEU786  VAL792 
 PHE793  MET794  SER795  GLU796  ALA797  LYS798  CYS799  TRP800  GLU811  SER814 

> <Gold.Protein.RotatedAtoms>
  150.7476  134.6046  159.6054 H   0  0  0  0  0  0  0  0  0  0  0  0  # atno 6907 bound_to 6896
  152.3398  134.7147  160.0276 H   0  0  0  0  0  0  0  0  0  0  0  0  # atno 6908 bound_to 6896
  151.7603  133.3297  159.3452 H   0  0  0  0  0  0  0  0  0  0  0  0  # atno 6909 bound_to 6896
  146.1711  140.4394  142.8532 H   0  0  0  0  0  0  0  0  0  0  0  0  # atno 7974 bound_to 7965
  154.4078  140.1637  156.2337 H   0  0  0  0  0  0  0  0  0  0  0  0  # atno 8008 bound_to 7997
  155.9261  140.3418  155.6188 H   0  0  0  0  0  0  0  0  0  0  0  0  # atno 8009 bound_to 7997
  155.7164  140.0763  157.2340 H   0  0  0  0  0  0  0  0  0  0  0  0  # atno 8010 bound_to 7997
  139.9070  143.6539  152.2583 H   0  0  0  0  0  0  0  0  0  0  0  0  # atno 10167 bound_to 10162
  157.1149  130.6524  149.5907 H   0  0  0  0  0  0  0  0  0  0  0  0  # atno 10718 bound_to 10713
  153.1037  135.4801  154.8913 H   0  0  0  0  0  0  0  0  0  0  0  0  # atno 10763 bound_to 10752
  154.7407  135.3081  154.8736 H   0  0  0  0  0  0  0  0  0  0  0  0  # atno 10764 bound_to 10752
  153.9345  135.6841  153.4798 H   0  0  0  0  0  0  0  0  0  0  0  0  # atno 10765 bound_to 10752
  141.1589  133.6813  156.6882 H   0  0  0  0  0  0  0  0  0  0  0  0  # atno 11005 bound_to 11000
  144.8165  140.6476  143.6381 LP  0  0  0  0  0  0  0  0  0  0  0  0  # atno 17320 bound_to 7965
  145.4337  139.1545  143.4008 LP  0  0  0  0  0  0  0  0  0  0  0  0  # atno 17321 bound_to 7965
  139.6975  144.7639  151.1330 LP  0  0  0  0  0  0  0  0  0  0  0  0  # atno 17342 bound_to 10162
  140.7694  143.5503  150.9212 LP  0  0  0  0  0  0  0  0  0  0  0  0  # atno 17343 bound_to 10162
  155.9842  130.4865  150.6970 LP  0  0  0  0  0  0  0  0  0  0  0  0  # atno 17370 bound_to 10713
  157.4527  131.0874  151.0829 LP  0  0  0  0  0  0  0  0  0  0  0  0  # atno 17371 bound_to 10713
  140.3050  134.8132  157.4129 LP  0  0  0  0  0  0  0  0  0  0  0  0  # atno 17394 bound_to 11000
  140.1228  134.5197  155.8169 LP  0  0  0  0  0  0  0  0  0  0  0  0  # atno 17395 bound_to 11000

$$$$
