AV-unprocessed.smi:1865|AV-procd|sdf|7555|dock4
  -GOLD-   22720 9273D 1   1.00000     0.00000
 Structure written by MMmdl.
 41 42  0  0  0  0  0  0  0  0  2 V2000
  154.3637  139.9833  162.2719 O   0  0  0  0  0  0  0  0  0  0  0  0
  153.8858  139.7020  161.1725 C   0  0  0  0  0  0  0  0  0  0  0  0
  153.4484  140.8078  160.2072 C   0  0  0  0  0  0  0  0  0  0  0  0
  153.4560  142.2076  160.8506 C   0  0  0  0  0  0  0  0  0  0  0  0
  152.6831  143.2535  160.0271 C   0  0  0  0  0  0  0  0  0  0  0  0
  153.4711  143.7919  158.8313 C   0  0  0  0  0  0  0  0  0  0  0  0
  152.7540  145.0887  158.4475 C   0  0  0  0  0  0  0  0  0  0  0  0
  152.1006  145.6091  159.7363 C   0  0  0  0  0  0  0  0  0  0  0  0
  152.3170  144.5253  160.8009 C   0  0  0  0  0  0  0  0  0  0  0  0
  153.7070  138.4401  160.7521 N   0  0  0  0  0  0  0  0  0  0  0  0
  154.0249  137.2470  161.5279 C   0  0  0  0  0  0  0  0  0  0  0  0
  153.5429  137.3652  162.9834 C   0  0  0  0  0  0  0  0  0  0  0  0
  153.3607  136.0078  163.6340 C   0  0  0  0  0  0  0  0  0  0  0  0
  153.6668  134.8233  162.9284 C   0  0  0  0  0  0  0  0  0  0  0  0
  153.4809  133.5753  163.5592 C   0  0  0  0  0  0  0  0  0  0  0  0
  152.9926  133.5404  164.8816 C   0  0  0  0  0  0  0  0  0  0  0  0
  152.7100  134.6946  165.5248 N   0  3  0  0  0  0  0  0  0  0  0  0
  152.8744  135.9091  164.9559 C   0  0  0  0  0  0  0  0  0  0  0  0
  154.1018  140.8049  159.3333 H   0  0  0  0  0  0  0  0  0  0  0  0
  152.4475  140.5643  159.8498 H   0  0  0  0  0  0  0  0  0  0  0  0
  153.0401  142.1600  161.8583 H   0  0  0  0  0  0  0  0  0  0  0  0
  154.4886  142.5420  160.9630 H   0  0  0  0  0  0  0  0  0  0  0  0
  151.7645  142.8026  159.6477 H   0  0  0  0  0  0  0  0  0  0  0  0
  154.4956  144.0174  159.1307 H   0  0  0  0  0  0  0  0  0  0  0  0
  153.5168  143.0818  158.0050 H   0  0  0  0  0  0  0  0  0  0  0  0
  153.4377  145.8156  158.0082 H   0  0  0  0  0  0  0  0  0  0  0  0
  151.9817  144.8774  157.7070 H   0  0  0  0  0  0  0  0  0  0  0  0
  152.5387  146.5562  160.0532 H   0  0  0  0  0  0  0  0  0  0  0  0
  151.0362  145.7818  159.5730 H   0  0  0  0  0  0  0  0  0  0  0  0
  151.4401  144.3894  161.4347 H   0  0  0  0  0  0  0  0  0  0  0  0
  153.1459  144.8174  161.4473 H   0  0  0  0  0  0  0  0  0  0  0  0
  153.3061  138.2977  159.8362 H   0  0  0  0  0  0  0  0  0  0  0  0
  153.5881  136.3688  161.0490 H   0  0  0  0  0  0  0  0  0  0  0  0
  155.1061  137.1072  161.5049 H   0  0  0  0  0  0  0  0  0  0  0  0
  154.2541  137.9509  163.5677 H   0  0  0  0  0  0  0  0  0  0  0  0
  152.5944  137.9023  163.0275 H   0  0  0  0  0  0  0  0  0  0  0  0
  154.0375  134.8679  161.9146 H   0  0  0  0  0  0  0  0  0  0  0  0
  153.7086  132.6584  163.0355 H   0  0  0  0  0  0  0  0  0  0  0  0
  152.8200  132.6314  165.4393 H   0  0  0  0  0  0  0  0  0  0  0  0
  152.6114  136.7584  165.5699 H   0  0  0  0  0  0  0  0  0  0  0  0
  152.3565  134.6469  166.4809 H   0  0  0  0  0  0  0  0  0  0  0  0
  1  2  2  0  0  0  0
  2  3  1  0  0  0  0
  2 10  1  0  0  0  0
  3  4  1  0  0  0  0
  3 19  1  0  0  0  0
  3 20  1  0  0  0  0
  4  5  1  0  0  0  0
  4 21  1  0  0  0  0
  4 22  1  0  0  0  0
  5  9  1  0  0  0  0
  5  6  1  0  0  0  0
  5 23  1  0  0  0  0
  6  7  1  0  0  0  0
  6 24  1  0  0  0  0
  6 25  1  0  0  0  0
  7  8  1  0  0  0  0
  7 26  1  0  0  0  0
  7 27  1  0  0  0  0
  8  9  1  0  0  0  0
  8 28  1  0  0  0  0
  8 29  1  0  0  0  0
  9 30  1  0  0  0  0
  9 31  1  0  0  0  0
 10 11  1  0  0  0  0
 10 32  1  0  0  0  0
 11 12  1  0  0  0  0
 11 33  1  0  0  0  0
 11 34  1  0  0  0  0
 12 13  1  0  0  0  0
 12 35  1  0  0  0  0
 12 36  1  0  0  0  0
 13 18  1  0  0  0  0
 13 14  2  0  0  0  0
 14 15  1  0  0  0  0
 14 37  1  0  0  0  0
 15 16  2  0  0  0  0
 15 38  1  0  0  0  0
 16 17  1  0  0  0  0
 16 39  1  0  0  0  0
 17 18  2  0  0  0  0
 17 41  1  0  0  0  0
 18 40  1  0  0  0  0
M  CHG  1  17   1
M  END
> <s_m_source_file>
AV-unprocessed.smi

> <i_m_source_file_index>
1865

> <i_lp_mmshare_version>
43012

> <i_f3d_flags>
0

> <s_epik_input>
W0NIMl0xW0NIMl1bQ0gyXVtDSDJdW0NIXTFbQ0gyXVtDSDJdQyg9TylbTkhdW0NIMl1bQ0gyXWMyW2NIXVtjSF1bY0hdbltjSF0y

> <s_epik_cmdline>
J2VwaWtfcHl0aG9uJywgJy1waCcsICc3LjAnLCAnLXRuJywgJzgnLCAnLW1hJywgJzIwMCcsICctbWV0YWxfYmluZGluZycsICctaW1hZScsICc8aW5maWxlLm1hZT4nLCAnLW9tYWUnLCAnPG91dGZpbGUubWFlPic=

> <r_epik_Ionization_Penalty>
2.25234

> <r_epik_Ionization_Penalty_Charging>
2.25234

> <r_epik_Ionization_Penalty_Neutral>
2.26352e-08

> <r_epik_State_Penalty>
2.39956

> <r_epik_Charging_Adjusted_Penalty>
4.6519

> <i_epik_Tot_Q>
1

> <i_epik_Tot_abs_Q>
1

> <r_epik_Metal_State_Penalty>
2.41271

> <b_epik_Metal_Only>
0

> <s_lp_Force_Field>
OPLS_2005

> <r_lp_Energy>
27.3415

> <b_lp_Chiralities_Consistent>
1

> <s_lp_Variant>
AV-unprocessed.smi:1865-2

> <Gold.Version>
5.8.1

> <Gold.Id.Protein>
6NUR|6NUR_protein|mol2

> <Gold.PLP.Fitness>
47.5729

> <Gold.PLP.PLP>
-48.5531

> <Gold.PLP.part.hbond>
-1.0000

> <Gold.PLP.part.metal>
0.0000

> <Gold.PLP.part.buried>
-3.9234

> <Gold.PLP.part.nonpolar>
-44.2416

> <Gold.PLP.part.repulsive>
0.1006

> <Gold.PLP.ligand.clash>
0.0000

> <Gold.PLP.ligand.torsion>
0.5182

> <Gold.PLP.Chemscore.Hbond>
0.0000

> <Gold.PLP.Chemscore.CHOScore>
0.0000

> <Gold.PLP.Chemscore.Metal>
0.0000

> <Gold.PLP.Chemscore.Internal.Correction>
0.0563

> <Gold.Rescore>
     Score         DG    S(hbond)    S(metal)    S(lipo)     H(rot)  DE(clash)    DE(int)     intcor
     15.37     -16.74       0.00        0.00     133.16       1.69       0.06       1.31       ----

> <Gold.Chemscore.Fitness>
15.3686

> <Gold.Chemscore.DG>
-16.7410

> <Gold.Chemscore.ZeroCoef>
-5.4800

> <Gold.Chemscore.Hbond>
0.0000

> <Gold.Chemscore.Metal>
0.0000

> <Gold.Chemscore.Lipo>
133.1564

> <Gold.Chemscore.Internal_Hbond>
0.0000

> <Gold.Chemscore.DEClash>
0.0626

> <Gold.Chemscore.DEInternal>
1.3098

> <Gold.Chemscore.Rot>
1.6868

> <Gold.Chemscore.Internal.Correction>
   9.000000E+99

> <Gold.Chemscore.Hbond.Weighted>
-0.0000

> <Gold.Chemscore.Metal.Weighted>
-0.0000

> <Gold.Chemscore.Lipo.Weighted>
-15.5793

> <Gold.Chemscore.Internal_Hbond.Weighted>
0.0000

> <Gold.Chemscore.DEClash.Weighted>
0.0626

> <Gold.Chemscore.DEInternal.Weighted>
1.3098

> <Gold.Chemscore.Rot.Weighted>
4.3183

> <Gold.Chemscore.Internal.Correction.Weighted>
   9.000000E+99

> <Gold.Protein.RotatedTorsions>
[ 6907 6896 6895 6894 ] final   36.69 input  -60.11 | X-H torsion
[ 7974 7965 7964 7962 ] final -139.30 input  175.53 | X-H torsion
[ 8008 7997 7996 7995 ] final  -24.16 input   59.86 | X-H torsion
[ 10167 10162 10161 10158 ] final -131.16 input  -65.29 | X-H torsion
[ 10718 10713 10712 10709 ] final  -48.78 input   66.30 | X-H torsion
[ 10763 10752 10751 10750 ] final  -66.19 input  -60.55 | X-H torsion
[ 11005 11000 10999 10996 ] final   89.41 input  -57.11 | X-H torsion

> <Gold.Protein.ActiveResidues>
 VAL166  LYS551  ARG553  GLY616  TRP617  ASP618  TYR619  PRO620  LYS621  CYS622 
 ASP623  PHE694  ASN695  SER759  ASP760  ASP761  ALA762  ILE779  LEU786  VAL792 
 PHE793  MET794  SER795  GLU796  ALA797  LYS798  CYS799  TRP800  GLU811  SER814 

> <Gold.Protein.RotatedAtoms>
  152.1331  134.9120  160.0557 H   0  0  0  0  0  0  0  0  0  0  0  0  # atno 6907 bound_to 6896
  152.0216  133.3896  159.4269 H   0  0  0  0  0  0  0  0  0  0  0  0  # atno 6908 bound_to 6896
  150.6858  134.3541  159.4965 H   0  0  0  0  0  0  0  0  0  0  0  0  # atno 6909 bound_to 6896
  144.8688  140.6334  143.5280 H   0  0  0  0  0  0  0  0  0  0  0  0  # atno 7974 bound_to 7965
  154.4544  140.1961  156.0422 H   0  0  0  0  0  0  0  0  0  0  0  0  # atno 8008 bound_to 7997
  156.0716  140.3283  155.7555 H   0  0  0  0  0  0  0  0  0  0  0  0  # atno 8009 bound_to 7997
  155.5253  140.0573  157.2890 H   0  0  0  0  0  0  0  0  0  0  0  0  # atno 8010 bound_to 7997
  139.9218  143.6373  152.2551 H   0  0  0  0  0  0  0  0  0  0  0  0  # atno 10167 bound_to 10162
  156.1956  130.4154  149.9311 H   0  0  0  0  0  0  0  0  0  0  0  0  # atno 10718 bound_to 10713
  154.3562  135.6126  153.5667 H   0  0  0  0  0  0  0  0  0  0  0  0  # atno 10763 bound_to 10752
  152.9795  135.5804  154.4686 H   0  0  0  0  0  0  0  0  0  0  0  0  # atno 10764 bound_to 10752
  154.4415  135.2850  155.1821 H   0  0  0  0  0  0  0  0  0  0  0  0  # atno 10765 bound_to 10752
  139.8876  134.8549  156.3138 H   0  0  0  0  0  0  0  0  0  0  0  0  # atno 11005 bound_to 11000
  145.4170  139.1570  143.4095 LP  0  0  0  0  0  0  0  0  0  0  0  0  # atno 17320 bound_to 7965
  146.2915  140.4278  142.8737 LP  0  0  0  0  0  0  0  0  0  0  0  0  # atno 17321 bound_to 7965
  139.6855  144.7652  151.1532 LP  0  0  0  0  0  0  0  0  0  0  0  0  # atno 17342 bound_to 10162
  140.7660  143.5663  150.9043 LP  0  0  0  0  0  0  0  0  0  0  0  0  # atno 17343 bound_to 10162
  156.7038  130.8943  151.3602 LP  0  0  0  0  0  0  0  0  0  0  0  0  # atno 17370 bound_to 10713
  157.6955  130.9278  150.0633 LP  0  0  0  0  0  0  0  0  0  0  0  0  # atno 17371 bound_to 10713
  140.9832  133.7254  156.0703 LP  0  0  0  0  0  0  0  0  0  0  0  0  # atno 17394 bound_to 11000
  140.7722  134.3820  157.5505 LP  0  0  0  0  0  0  0  0  0  0  0  0  # atno 17395 bound_to 11000

$$$$
