AV-unprocessed.smi:560|AV-procd|sdf|2927|dock3
  -GOLD-   2262023423D 1   1.00000     0.00000
 Structure written by MMmdl.
 41 42  0  0  0  0  0  0  0  0  1 V2000
  152.2535  144.3666  157.9553 C   0  0  0  0  0  0  0  0  0  0  0  0
  151.4664  143.3076  158.7546 C   0  0  1  0  0  0  0  0  0  0  0  0
  151.0164  142.1199  157.8886 C   0  0  0  0  0  0  0  0  0  0  0  0
  151.4421  140.9845  158.1048 O   0  0  0  0  0  0  0  0  0  0  0  0
  150.1528  142.4024  156.9002 N   0  0  0  0  0  0  0  0  0  0  0  0
  149.6000  141.4333  155.9598 C   0  0  0  0  0  0  0  0  0  0  0  0
  148.6714  142.1217  154.9464 C   0  0  0  0  0  0  0  0  0  0  0  0
  147.9734  141.0897  154.0440 C   0  0  0  0  0  0  0  0  0  0  0  0
  147.2033  140.1350  154.8480 N   0  0  0  0  0  0  0  0  0  0  0  0
  146.4421  139.2404  153.9464 C   0  0  0  0  0  0  0  0  0  0  0  0
  145.4084  138.3541  154.6522 C   0  0  0  0  0  0  0  0  0  0  0  0
  144.1367  138.4708  154.2624 N   0  0  0  0  0  0  0  0  0  0  0  0
  145.7553  137.5710  155.5340 O   0  0  0  0  0  0  0  0  0  0  0  0
  148.0962  139.3980  155.7546 C   0  0  0  0  0  0  0  0  0  0  0  0
  148.8023  140.3655  156.7211 C   0  0  0  0  0  0  0  0  0  0  0  0
  152.2021  142.8352  159.9221 N   0  0  0  0  0  0  0  0  0  0  0  0
  153.3920  142.1358  159.9478 C   0  0  0  0  0  0  0  0  0  0  0  0
  153.7260  141.9397  161.2570 C   0  0  0  0  0  0  0  0  0  0  0  0
  152.6739  142.5756  161.9725 C   0  0  0  0  0  0  0  0  0  0  0  0
  151.7698  143.1176  161.1734 N   0  0  0  0  0  0  0  0  0  0  0  0
  151.6606  144.7519  157.1249 H   0  0  0  0  0  0  0  0  0  0  0  0
  153.1793  143.9655  157.5406 H   0  0  0  0  0  0  0  0  0  0  0  0
  152.5161  145.2147  158.5883 H   0  0  0  0  0  0  0  0  0  0  0  0
  150.5626  143.7955  159.1235 H   0  0  0  0  0  0  0  0  0  0  0  0
  149.8551  143.3611  156.7919 H   0  0  0  0  0  0  0  0  0  0  0  0
  150.4142  140.9397  155.4256 H   0  0  0  0  0  0  0  0  0  0  0  0
  147.9182  142.7120  155.4710 H   0  0  0  0  0  0  0  0  0  0  0  0
  149.2382  142.8215  154.3313 H   0  0  0  0  0  0  0  0  0  0  0  0
  147.3085  141.6173  153.3588 H   0  0  0  0  0  0  0  0  0  0  0  0
  148.7087  140.5653  153.4311 H   0  0  0  0  0  0  0  0  0  0  0  0
  145.8964  139.8417  153.2179 H   0  0  0  0  0  0  0  0  0  0  0  0
  147.1348  138.6183  153.3762 H   0  0  0  0  0  0  0  0  0  0  0  0
  143.4210  137.9080  154.6987 H   0  0  0  0  0  0  0  0  0  0  0  0
  143.8960  139.1238  153.5309 H   0  0  0  0  0  0  0  0  0  0  0  0
  147.5379  138.6760  156.3503 H   0  0  0  0  0  0  0  0  0  0  0  0
  148.8315  138.8317  155.1803 H   0  0  0  0  0  0  0  0  0  0  0  0
  149.4649  139.8059  157.3823 H   0  0  0  0  0  0  0  0  0  0  0  0
  148.0573  140.8413  157.3610 H   0  0  0  0  0  0  0  0  0  0  0  0
  153.8971  141.8383  159.0406 H   0  0  0  0  0  0  0  0  0  0  0  0
  154.5924  141.4251  161.6448 H   0  0  0  0  0  0  0  0  0  0  0  0
  152.5430  142.6629  163.0410 H   0  0  0  0  0  0  0  0  0  0  0  0
  1  2  1  0  0  0  0
  1 21  1  0  0  0  0
  1 22  1  0  0  0  0
  1 23  1  0  0  0  0
  2  3  1  0  0  0  0
  2 16  1  0  0  0  0
  2 24  1  0  0  0  0
  3  4  2  0  0  0  0
  3  5  1  0  0  0  0
  5  6  1  0  0  0  0
  5 25  1  0  0  0  0
  6 15  1  0  0  0  0
  6  7  1  0  0  0  0
  6 26  1  0  0  0  0
  7  8  1  0  0  0  0
  7 27  1  0  0  0  0
  7 28  1  0  0  0  0
  8  9  1  0  0  0  0
  8 29  1  0  0  0  0
  8 30  1  0  0  0  0
  9 10  1  0  0  0  0
  9 14  1  0  0  0  0
 10 11  1  0  0  0  0
 10 31  1  0  0  0  0
 10 32  1  0  0  0  0
 11 12  1  0  0  0  0
 11 13  2  0  0  0  0
 12 33  1  0  0  0  0
 12 34  1  0  0  0  0
 14 15  1  0  0  0  0
 14 35  1  0  0  0  0
 14 36  1  0  0  0  0
 15 37  1  0  0  0  0
 15 38  1  0  0  0  0
 16 20  1  0  0  0  0
 16 17  1  0  0  0  0
 17 18  2  0  0  0  0
 17 39  1  0  0  0  0
 18 19  1  0  0  0  0
 18 40  1  0  0  0  0
 19 20  2  0  0  0  0
 19 41  1  0  0  0  0
M  END
> <s_m_source_file>
AV-unprocessed.smi

> <i_m_source_file_index>
560

> <i_lp_mmshare_version>
43012

> <i_f3d_flags>
0

> <s_epik_input>
bjFbY0hdW2NIXVtjSF1uMVtDQEhdKFtDSDNdKUMoPU8pW05IXVtDSF0yW0NIMl1bQ0gyXU4oW0NIMl1bQ0gyXTIpW0NIMl1DKD1PKVtOSDJd

> <s_epik_cmdline>
J2VwaWtfcHl0aG9uJywgJy1waCcsICc3LjAnLCAnLXRuJywgJzgnLCAnLW1hJywgJzIwMCcsICctbWV0YWxfYmluZGluZycsICctaW1hZScsICc8aW5maWxlLm1hZT4nLCAnLW9tYWUnLCAnPG91dGZpbGUubWFlPic=

> <r_lp_tautomer_probability>
1

> <r_epik_Ionization_Penalty>
0.114724

> <r_epik_Ionization_Penalty_Charging>
0

> <r_epik_Ionization_Penalty_Neutral>
0.114724

> <r_epik_State_Penalty>
0.104339

> <r_epik_Charging_Adjusted_Penalty>
0.104339

> <i_epik_Tot_Q>
0

> <i_epik_Tot_abs_Q>
0

> <r_epik_Metal_State_Penalty>
0.117437

> <b_epik_Metal_Only>
0

> <s_lp_Force_Field>
OPLS_2005

> <r_lp_Energy>
15.5431

> <b_lp_Chiralities_Consistent>
1

> <s_lp_Variant>
AV-unprocessed.smi:560-2

> <Gold.Version>
5.8.1

> <Gold.Id.Protein>
6NUR|6NUR_protein|mol2

> <Gold.PLP.Fitness>
43.3747

> <Gold.PLP.PLP>
-37.5469

> <Gold.PLP.part.hbond>
-3.0000

> <Gold.PLP.part.metal>
0.0000

> <Gold.PLP.part.buried>
-1.2133

> <Gold.PLP.part.nonpolar>
-33.8081

> <Gold.PLP.part.repulsive>
0.2842

> <Gold.PLP.ligand.clash>
0.0000

> <Gold.PLP.ligand.torsion>
0.1940

> <Gold.PLP.Chemscore.Hbond>
2.0281

> <Gold.PLP.Chemscore.CHOScore>
0.0000

> <Gold.PLP.Chemscore.Metal>
0.0000

> <Gold.Chemscore.Hbonds>
donor molecule, donor type, donor heavy atom, donor atom, acceptor molecule, acceptor atom, score
      L1  H     5    25       P1  8028  0.96
      L1  H    12    34       P1 10175  1.00

> <Gold.PLP.Chemscore.Internal.Correction>
0.1315

> <Gold.Rescore>
     Score         DG    S(hbond)    S(metal)    S(lipo)     H(rot)  DE(clash)    DE(int)     intcor
     14.69     -16.55       1.99        0.00      92.00       2.48       0.46       1.40       ----

> <Gold.Chemscore.Fitness>
14.6939

> <Gold.Chemscore.DG>
-16.5467

> <Gold.Chemscore.ZeroCoef>
-5.4800

> <Gold.Chemscore.Hbond>
1.9892

> <Gold.Chemscore.Metal>
0.0000

> <Gold.Chemscore.Lipo>
91.9951

> <Gold.Chemscore.Internal_Hbond>
0.0000

> <Gold.Chemscore.DEClash>
0.4552

> <Gold.Chemscore.DEInternal>
1.3976

> <Gold.Chemscore.Rot>
2.4768

> <Gold.Chemscore.Internal.Correction>
   9.000000E+99

> <Gold.Chemscore.Hbonds>
donor molecule, donor type, donor heavy atom, donor atom, acceptor molecule, acceptor atom, score
      L1  H     5    25       P1  8028  0.88
      L1  H    12    34       P1 10175  1.00

> <Gold.Chemscore.Hbond.Weighted>
-6.6439

> <Gold.Chemscore.Metal.Weighted>
-0.0000

> <Gold.Chemscore.Lipo.Weighted>
-10.7634

> <Gold.Chemscore.Internal_Hbond.Weighted>
0.0000

> <Gold.Chemscore.DEClash.Weighted>
0.4552

> <Gold.Chemscore.DEInternal.Weighted>
1.3976

> <Gold.Chemscore.Rot.Weighted>
6.3406

> <Gold.Chemscore.Internal.Correction.Weighted>
   9.000000E+99

> <Gold.Protein.RotatedTorsions>
[ 6907 6896 6895 6894 ] final   56.15 input  -60.11 | X-H torsion
[ 7974 7965 7964 7962 ] final  128.84 input  175.53 | X-H torsion
[ 8008 7997 7996 7995 ] final -106.53 input   59.86 | X-H torsion
[ 10167 10162 10161 10158 ] final   -1.14 input  -65.29 | X-H torsion
[ 10718 10713 10712 10709 ] final  -98.97 input   66.30 | X-H torsion
[ 10763 10752 10751 10750 ] final  -53.79 input  -60.55 | X-H torsion
[ 11005 11000 10999 10996 ] final  158.66 input  -57.11 | X-H torsion

> <Gold.Protein.ActiveResidues>
 VAL166  LYS551  ARG553  GLY616  TRP617  ASP618  TYR619  PRO620  LYS621  CYS622 
 ASP623  PHE694  ASN695  SER759  ASP760  ASP761  ALA762  ILE779  LEU786  VAL792 
 PHE793  MET794  SER795  GLU796  ALA797  LYS798  CYS799  TRP800  GLU811  SER814 

> <Gold.Protein.RotatedAtoms>
  152.3608  134.6875  160.0207 H   0  0  0  0  0  0  0  0  0  0  0  0  # atno 6907 bound_to 6896
  151.7199  133.3309  159.3320 H   0  0  0  0  0  0  0  0  0  0  0  0  # atno 6908 bound_to 6896
  150.7603  134.6392  159.6272 H   0  0  0  0  0  0  0  0  0  0  0  0  # atno 6909 bound_to 6896
  145.0351  139.4012  143.5130 H   0  0  0  0  0  0  0  0  0  0  0  0  # atno 7974 bound_to 7965
  154.9159  140.0408  157.1972 H   0  0  0  0  0  0  0  0  0  0  0  0  # atno 8008 bound_to 7997
  154.8302  140.2898  155.5706 H   0  0  0  0  0  0  0  0  0  0  0  0  # atno 8009 bound_to 7997
  156.2986  140.2502  156.3225 H   0  0  0  0  0  0  0  0  0  0  0  0  # atno 8010 bound_to 7997
  140.6797  143.6811  150.8105 H   0  0  0  0  0  0  0  0  0  0  0  0  # atno 10167 bound_to 10162
  156.0121  130.5262  150.6601 H   0  0  0  0  0  0  0  0  0  0  0  0  # atno 10718 bound_to 10713
  154.1644  135.6469  153.4994 H   0  0  0  0  0  0  0  0  0  0  0  0  # atno 10763 bound_to 10752
  153.0101  135.5368  154.6677 H   0  0  0  0  0  0  0  0  0  0  0  0  # atno 10764 bound_to 10752
  154.6000  135.2943  155.0517 H   0  0  0  0  0  0  0  0  0  0  0  0  # atno 10765 bound_to 10752
  140.1887  134.8423  157.2887 H   0  0  0  0  0  0  0  0  0  0  0  0  # atno 11005 bound_to 11000
  146.3503  139.9922  142.8684 LP  0  0  0  0  0  0  0  0  0  0  0  0  # atno 17320 bound_to 7965
  145.1720  140.9725  143.4316 LP  0  0  0  0  0  0  0  0  0  0  0  0  # atno 17321 bound_to 7965
  140.0509  143.5250  152.2674 LP  0  0  0  0  0  0  0  0  0  0  0  0  # atno 17342 bound_to 10162
  139.6112  144.7609  151.2948 LP  0  0  0  0  0  0  0  0  0  0  0  0  # atno 17343 bound_to 10162
  157.4345  131.0853  151.1005 LP  0  0  0  0  0  0  0  0  0  0  0  0  # atno 17370 bound_to 10713
  157.1568  130.6208  149.5598 LP  0  0  0  0  0  0  0  0  0  0  0  0  # atno 17371 bound_to 10713
  140.2184  134.4053  155.7577 LP  0  0  0  0  0  0  0  0  0  0  0  0  # atno 17394 bound_to 11000
  141.2225  133.7154  156.8451 LP  0  0  0  0  0  0  0  0  0  0  0  0  # atno 17395 bound_to 11000

$$$$
