AV-unprocessed.smi:1736|AV-procd|sdf|6992|dock2
  -GOLD-   22720 8203D 1   1.00000     0.00000
 Structure written by MMmdl.
 44 45  0  0  0  0  0  0  0  0  1 V2000
  152.2974  142.4246  159.1397 C   0  0  0  0  0  0  0  0  0  0  0  0
  152.1278  141.4967  158.0321 N   0  0  0  0  0  0  0  0  0  0  0  0
  151.7234  140.1732  158.4971 C   0  0  0  0  0  0  0  0  0  0  0  0
  151.5565  139.1891  157.3246 C   0  0  0  0  0  0  0  0  0  0  0  0
  150.5621  139.6641  156.3479 N   0  0  0  0  0  0  0  0  0  0  0  0
  150.2505  138.7022  155.2531 C   0  0  0  0  0  0  0  0  0  0  0  0
  149.1907  139.2375  154.2599 C   0  0  0  0  0  0  0  0  0  0  0  0
  151.5202  138.3695  154.4287 C   0  0  0  0  0  0  0  0  0  0  0  0
  149.7138  137.3500  155.8097 C   0  0  0  0  0  0  0  0  0  0  0  0
  149.2396  136.4495  154.7592 N   0  0  0  0  0  0  0  0  0  0  0  0
  148.2599  135.5436  154.8860 C   0  0  0  0  0  0  0  0  0  0  0  0
  147.6400  135.3488  155.9315 O   0  0  0  0  0  0  0  0  0  0  0  0
  148.0472  134.8945  153.7301 N   0  0  0  0  0  0  0  0  0  0  0  0
  147.0940  133.8760  153.4809 C   0  0  0  0  0  0  0  0  0  0  0  0
  147.1808  132.7525  152.6071 C   0  0  0  0  0  0  0  0  0  0  0  0
  146.0741  132.0240  152.6514 N   0  0  0  0  0  0  0  0  0  0  0  0
  145.2855  132.6684  153.5408 N   0  0  0  0  0  0  0  0  0  0  0  0
  145.8667  133.8000  154.0687 C   0  0  0  0  0  0  0  0  0  0  0  0
  150.9726  141.0034  155.8954 C   0  0  0  0  0  0  0  0  0  0  0  0
  151.1371  141.9790  157.0749 C   0  0  0  0  0  0  0  0  0  0  0  0
  144.3640  132.3268  153.7740 H   0  0  0  0  0  0  0  0  0  0  0  0
  153.0536  142.0605  159.8358 H   0  0  0  0  0  0  0  0  0  0  0  0
  151.3649  142.5577  159.6896 H   0  0  0  0  0  0  0  0  0  0  0  0
  152.6216  143.4011  158.7785 H   0  0  0  0  0  0  0  0  0  0  0  0
  152.4698  139.7832  159.1901 H   0  0  0  0  0  0  0  0  0  0  0  0
  150.7870  140.2411  159.0536 H   0  0  0  0  0  0  0  0  0  0  0  0
  152.5234  139.0404  156.8436 H   0  0  0  0  0  0  0  0  0  0  0  0
  151.2604  138.2290  157.7432 H   0  0  0  0  0  0  0  0  0  0  0  0
  148.9981  138.5139  153.4668 H   0  0  0  0  0  0  0  0  0  0  0  0
  149.5098  140.1581  153.7720 H   0  0  0  0  0  0  0  0  0  0  0  0
  148.2343  139.4333  154.7438 H   0  0  0  0  0  0  0  0  0  0  0  0
  151.3494  137.5328  153.7502 H   0  0  0  0  0  0  0  0  0  0  0  0
  152.3590  138.0998  155.0713 H   0  0  0  0  0  0  0  0  0  0  0  0
  151.8394  139.2048  153.8057 H   0  0  0  0  0  0  0  0  0  0  0  0
  150.4863  136.8246  156.3708 H   0  0  0  0  0  0  0  0  0  0  0  0
  148.9255  137.5298  156.5431 H   0  0  0  0  0  0  0  0  0  0  0  0
  149.6824  136.5430  153.8569 H   0  0  0  0  0  0  0  0  0  0  0  0
  148.6251  135.1590  152.9460 H   0  0  0  0  0  0  0  0  0  0  0  0
  147.9837  132.4408  151.9557 H   0  0  0  0  0  0  0  0  0  0  0  0
  145.3705  134.4298  154.7926 H   0  0  0  0  0  0  0  0  0  0  0  0
  151.9115  140.9486  155.3439 H   0  0  0  0  0  0  0  0  0  0  0  0
  150.2334  141.4283  155.2193 H   0  0  0  0  0  0  0  0  0  0  0  0
  150.1750  142.1205  157.5700 H   0  0  0  0  0  0  0  0  0  0  0  0
  151.4381  142.9556  156.6942 H   0  0  0  0  0  0  0  0  0  0  0  0
  1  2  1  0  0  0  0
  1 22  1  0  0  0  0
  1 23  1  0  0  0  0
  1 24  1  0  0  0  0
  2 20  1  0  0  0  0
  2  3  1  0  0  0  0
  3  4  1  0  0  0  0
  3 25  1  0  0  0  0
  3 26  1  0  0  0  0
  4  5  1  0  0  0  0
  4 27  1  0  0  0  0
  4 28  1  0  0  0  0
  5  6  1  0  0  0  0
  5 19  1  0  0  0  0
  6  7  1  0  0  0  0
  6  8  1  0  0  0  0
  6  9  1  0  0  0  0
  7 29  1  0  0  0  0
  7 30  1  0  0  0  0
  7 31  1  0  0  0  0
  8 32  1  0  0  0  0
  8 33  1  0  0  0  0
  8 34  1  0  0  0  0
  9 10  1  0  0  0  0
  9 35  1  0  0  0  0
  9 36  1  0  0  0  0
 10 11  1  0  0  0  0
 10 37  1  0  0  0  0
 11 12  2  0  0  0  0
 11 13  1  0  0  0  0
 13 14  1  0  0  0  0
 13 38  1  0  0  0  0
 14 18  2  0  0  0  0
 14 15  1  0  0  0  0
 15 16  2  0  0  0  0
 15 39  1  0  0  0  0
 16 17  1  0  0  0  0
 17 21  1  0  0  0  0
 17 18  1  0  0  0  0
 18 40  1  0  0  0  0
 19 20  1  0  0  0  0
 19 41  1  0  0  0  0
 19 42  1  0  0  0  0
 20 43  1  0  0  0  0
 20 44  1  0  0  0  0
M  END
> <s_m_source_file>
AV-unprocessed.smi

> <i_m_source_file_index>
1736

> <i_lp_mmshare_version>
43012

> <i_f3d_flags>
0

> <s_epik_input>
W0NIM11OMVtDSDJdW0NIMl1OKFtDSDJdW0NIMl0xKUMoW0NIM10pKFtDSDNdKVtDSDJdW05IXUMoPU8pW05IXWMyW2NIXW5bbkhdW2NIXTI=

> <s_epik_cmdline>
J2VwaWtfcHl0aG9uJywgJy1waCcsICc3LjAnLCAnLXRuJywgJzgnLCAnLW1hJywgJzIwMCcsICctbWV0YWxfYmluZGluZycsICctaW1hZScsICc8aW5maWxlLm1hZT4nLCAnLW9tYWUnLCAnPG91dGZpbGUubWFlPic=

> <r_lp_tautomer_probability>
0.5

> <r_epik_Ionization_Penalty>
3.08539

> <r_epik_Ionization_Penalty_Charging>
0

> <r_epik_Ionization_Penalty_Neutral>
3.08539

> <r_epik_State_Penalty>
2.1584

> <r_epik_Charging_Adjusted_Penalty>
2.1584

> <i_epik_Tot_Q>
0

> <i_epik_Tot_abs_Q>
0

> <r_epik_Metal_State_Penalty>
2.1584

> <b_epik_Metal_Only>
0

> <s_lp_Force_Field>
OPLS_2005

> <r_lp_Energy>
53.1153

> <b_lp_Chiralities_Consistent>
1

> <s_lp_Variant>
AV-unprocessed.smi:1736-3

> <Gold.Version>
5.8.1

> <Gold.Id.Protein>
6NUR|6NUR_protein|mol2

> <Gold.PLP.Fitness>
35.7369

> <Gold.PLP.PLP>
-25.9969

> <Gold.PLP.part.hbond>
-2.7494

> <Gold.PLP.part.metal>
0.0000

> <Gold.PLP.part.buried>
-2.3303

> <Gold.PLP.part.nonpolar>
-20.1785

> <Gold.PLP.part.repulsive>
0.1839

> <Gold.PLP.ligand.clash>
0.0000

> <Gold.PLP.ligand.torsion>
0.4915

> <Gold.PLP.Chemscore.Hbond>
2.5503

> <Gold.PLP.Chemscore.CHOScore>
1.0000

> <Gold.PLP.Chemscore.Metal>
0.0000

> <Gold.Chemscore.Hbonds>
donor molecule, donor type, donor heavy atom, donor atom, acceptor molecule, acceptor atom, score
      L1  H    10    37       P1  7948  0.54
      L1  H    13    38       P1  7948  0.98
      L1  H    17    21       P1 10957  0.94
      L1  C    15    39       P1 10747  1.00

> <Gold.PLP.Chemscore.Internal.Correction>
0.0723

> <Gold.Rescore>
     Score         DG    S(hbond)    S(metal)    S(lipo)     H(rot)  DE(clash)    DE(int)     intcor
     16.59     -18.23       2.76        0.00      64.93       1.59       0.07       1.57       ----

> <Gold.Chemscore.Fitness>
16.5928

> <Gold.Chemscore.DG>
-18.2291

> <Gold.Chemscore.ZeroCoef>
-5.4800

> <Gold.Chemscore.Hbond>
2.7615

> <Gold.Chemscore.Metal>
0.0000

> <Gold.Chemscore.Lipo>
64.9264

> <Gold.Chemscore.Internal_Hbond>
0.0000

> <Gold.Chemscore.DEClash>
0.0704

> <Gold.Chemscore.DEInternal>
1.5659

> <Gold.Chemscore.Rot>
1.5901

> <Gold.Chemscore.Internal.Correction>
   9.000000E+99

> <Gold.Chemscore.Hbonds>
donor molecule, donor type, donor heavy atom, donor atom, acceptor molecule, acceptor atom, score
      L1  H    10    37       P1  7948  0.31
      L1  H    13    38       P1  7948  0.56
      L1  H    17    21       P1 10957  0.20

> <Gold.Chemscore.Hbond.Weighted>
-9.2233

> <Gold.Chemscore.Metal.Weighted>
-0.0000

> <Gold.Chemscore.Lipo.Weighted>
-7.5964

> <Gold.Chemscore.Internal_Hbond.Weighted>
0.0000

> <Gold.Chemscore.DEClash.Weighted>
0.0704

> <Gold.Chemscore.DEInternal.Weighted>
1.5659

> <Gold.Chemscore.Rot.Weighted>
4.0706

> <Gold.Chemscore.Internal.Correction.Weighted>
   9.000000E+99

> <Gold.Protein.RotatedTorsions>
[ 6907 6896 6895 6894 ] final   -9.67 input  -60.11 | X-H torsion
[ 7974 7965 7964 7962 ] final   18.28 input  175.53 | X-H torsion
[ 8008 7997 7996 7995 ] final  -42.37 input   59.86 | X-H torsion
[ 10167 10162 10161 10158 ] final   89.31 input  -65.29 | X-H torsion
[ 10718 10713 10712 10709 ] final   97.82 input   66.30 | X-H torsion
[ 10763 10752 10751 10750 ] final  -31.72 input  -60.55 | X-H torsion
[ 11005 11000 10999 10996 ] final  -78.65 input  -57.11 | X-H torsion

> <Gold.Protein.ActiveResidues>
 VAL166  LYS551  ARG553  GLY616  TRP617  ASP618  TYR619  PRO620  LYS621  CYS622 
 ASP623  PHE694  ASN695  SER759  ASP760  ASP761  ALA762  ILE779  LEU786  VAL792 
 PHE793  MET794  SER795  GLU796  ALA797  LYS798  CYS799  TRP800  GLU811  SER814 

> <Gold.Protein.RotatedAtoms>
  151.4141  135.0989  159.9593 H   0  0  0  0  0  0  0  0  0  0  0  0  # atno 6907 bound_to 6896
  152.5010  133.8770  159.7337 H   0  0  0  0  0  0  0  0  0  0  0  0  # atno 6908 bound_to 6896
  150.9271  133.6754  159.2847 H   0  0  0  0  0  0  0  0  0  0  0  0  # atno 6909 bound_to 6896
  146.2190  139.8480  142.8628 H   0  0  0  0  0  0  0  0  0  0  0  0  # atno 7974 bound_to 7965
  154.3999  140.1475  156.3344 H   0  0  0  0  0  0  0  0  0  0  0  0  # atno 8008 bound_to 7997
  155.8413  140.3462  155.5613 H   0  0  0  0  0  0  0  0  0  0  0  0  # atno 8009 bound_to 7997
  155.8083  140.0880  157.1908 H   0  0  0  0  0  0  0  0  0  0  0  0  # atno 8010 bound_to 7997
  139.8585  144.6556  150.9085 H   0  0  0  0  0  0  0  0  0  0  0  0  # atno 10167 bound_to 10162
  157.6906  131.0621  150.4702 H   0  0  0  0  0  0  0  0  0  0  0  0  # atno 10718 bound_to 10713
  153.8019  135.6889  153.4854 H   0  0  0  0  0  0  0  0  0  0  0  0  # atno 10763 bound_to 10752
  153.1683  135.4552  154.9866 H   0  0  0  0  0  0  0  0  0  0  0  0  # atno 10764 bound_to 10752
  154.8003  135.3335  154.7507 H   0  0  0  0  0  0  0  0  0  0  0  0  # atno 10765 bound_to 10752
  141.1665  133.7072  156.8003 H   0  0  0  0  0  0  0  0  0  0  0  0  # atno 11005 bound_to 11000
  145.2830  141.0144  143.3706 LP  0  0  0  0  0  0  0  0  0  0  0  0  # atno 17320 bound_to 7965
  144.9135  139.4499  143.6575 LP  0  0  0  0  0  0  0  0  0  0  0  0  # atno 17321 bound_to 7965
  140.7778  143.3764  151.1555 LP  0  0  0  0  0  0  0  0  0  0  0  0  # atno 17342 bound_to 10162
  139.7396  143.8945  152.3046 LP  0  0  0  0  0  0  0  0  0  0  0  0  # atno 17343 bound_to 10162
  156.5040  130.4124  149.6337 LP  0  0  0  0  0  0  0  0  0  0  0  0  # atno 17370 bound_to 10713
  156.3301  130.7327  151.2255 LP  0  0  0  0  0  0  0  0  0  0  0  0  # atno 17371 bound_to 10713
  140.2261  134.8721  157.3428 LP  0  0  0  0  0  0  0  0  0  0  0  0  # atno 17394 bound_to 11000
  140.1938  134.4338  155.7700 LP  0  0  0  0  0  0  0  0  0  0  0  0  # atno 17395 bound_to 11000

$$$$
