AV-unprocessed.smi:572|AV-procd|sdf|2965|dock2
  -GOLD-   2262023473D 1   1.00000     0.00000
 Structure written by MMmdl.
 44 46  0  0  0  0  0  0  0  0  1 V2000
  156.5904  139.9396  159.6254 C   0  0  0  0  0  0  0  0  0  0  0  0
  155.2168  139.8377  159.2972 O   0  0  0  0  0  0  0  0  0  0  0  0
  154.3873  139.7375  160.4430 C   0  0  0  0  0  0  0  0  0  0  0  0
  152.9150  139.6781  160.0131 C   0  0  0  0  0  0  0  0  0  0  0  0
  152.4606  140.9435  159.4558 N   0  0  0  0  0  0  0  0  0  0  0  0
  152.0392  141.1918  158.1902 C   0  0  0  0  0  0  0  0  0  0  0  0
  151.9692  140.1806  157.1474 C   0  0  0  0  0  0  0  0  0  0  0  0
  152.9676  139.1928  157.0621 C   0  0  0  0  0  0  0  0  0  0  0  0
  152.9031  138.1943  156.0605 C   0  0  0  0  0  0  0  0  0  0  0  0
  153.8349  137.1857  155.9230 O   0  0  0  0  0  0  0  0  0  0  0  0
  154.8792  137.1016  156.8819 C   0  0  0  0  0  0  0  0  0  0  0  0
  151.8280  138.2171  155.1438 C   0  0  0  0  0  0  0  0  0  0  0  0
  151.7601  137.2580  154.1729 O   0  0  0  0  0  0  0  0  0  0  0  0
  150.8235  139.2089  155.2124 C   0  0  0  0  0  0  0  0  0  0  0  0
  149.8105  139.1552  154.2769 O   0  0  0  0  0  0  0  0  0  0  0  0
  148.7886  140.1395  154.3344 C   0  0  0  0  0  0  0  0  0  0  0  0
  150.9046  140.1936  156.2267 C   0  0  0  0  0  0  0  0  0  0  0  0
  151.6887  142.4566  157.9481 N   0  0  0  0  0  0  0  0  0  0  0  0
  151.9033  143.0793  159.1617 C   0  0  0  0  0  0  0  0  0  0  0  0
  151.7205  144.4259  159.5506 C   0  0  0  0  0  0  0  0  0  0  0  0
  152.0178  144.8343  160.8674 C   0  0  0  0  0  0  0  0  0  0  0  0
  152.5001  143.9050  161.8118 C   0  0  0  0  0  0  0  0  0  0  0  0
  152.6874  142.5586  161.4449 C   0  0  0  0  0  0  0  0  0  0  0  0
  152.3888  142.1572  160.1293 C   0  0  0  0  0  0  0  0  0  0  0  0
  157.1794  140.0148  158.7116 H   0  0  0  0  0  0  0  0  0  0  0  0
  156.9303  139.0613  160.1752 H   0  0  0  0  0  0  0  0  0  0  0  0
  156.7872  140.8283  160.2264 H   0  0  0  0  0  0  0  0  0  0  0  0
  154.6428  138.8426  161.0122 H   0  0  0  0  0  0  0  0  0  0  0  0
  154.5493  140.5965  161.0960 H   0  0  0  0  0  0  0  0  0  0  0  0
  152.7679  138.8829  159.2822 H   0  0  0  0  0  0  0  0  0  0  0  0
  152.2848  139.4301  160.8678 H   0  0  0  0  0  0  0  0  0  0  0  0
  153.7695  139.2169  157.7845 H   0  0  0  0  0  0  0  0  0  0  0  0
  155.5164  136.2494  156.6456 H   0  0  0  0  0  0  0  0  0  0  0  0
  154.4857  136.9496  157.8880 H   0  0  0  0  0  0  0  0  0  0  0  0
  155.5057  137.9945  156.8692 H   0  0  0  0  0  0  0  0  0  0  0  0
  151.8244  137.6187  153.3018 H   0  0  0  0  0  0  0  0  0  0  0  0
  148.0746  139.9636  153.5300 H   0  0  0  0  0  0  0  0  0  0  0  0
  149.1941  141.1434  154.2009 H   0  0  0  0  0  0  0  0  0  0  0  0
  148.2416  140.0920  155.2768 H   0  0  0  0  0  0  0  0  0  0  0  0
  150.1594  140.9689  156.3218 H   0  0  0  0  0  0  0  0  0  0  0  0
  151.3526  145.1453  158.8343 H   0  0  0  0  0  0  0  0  0  0  0  0
  151.8755  145.8658  161.1541 H   0  0  0  0  0  0  0  0  0  0  0  0
  152.7262  144.2264  162.8181 H   0  0  0  0  0  0  0  0  0  0  0  0
  153.0575  141.8435  162.1645 H   0  0  0  0  0  0  0  0  0  0  0  0
  1  2  1  0  0  0  0
  1 25  1  0  0  0  0
  1 26  1  0  0  0  0
  1 27  1  0  0  0  0
  2  3  1  0  0  0  0
  3  4  1  0  0  0  0
  3 28  1  0  0  0  0
  3 29  1  0  0  0  0
  4  5  1  0  0  0  0
  4 30  1  0  0  0  0
  4 31  1  0  0  0  0
  5 24  1  0  0  0  0
  5  6  1  0  0  0  0
  6  7  1  0  0  0  0
  6 18  2  0  0  0  0
  7 17  1  0  0  0  0
  7  8  2  0  0  0  0
  8  9  1  0  0  0  0
  8 32  1  0  0  0  0
  9 10  1  0  0  0  0
  9 12  2  0  0  0  0
 10 11  1  0  0  0  0
 11 33  1  0  0  0  0
 11 34  1  0  0  0  0
 11 35  1  0  0  0  0
 12 13  1  0  0  0  0
 12 14  1  0  0  0  0
 13 36  1  0  0  0  0
 14 15  1  0  0  0  0
 14 17  2  0  0  0  0
 15 16  1  0  0  0  0
 16 37  1  0  0  0  0
 16 38  1  0  0  0  0
 16 39  1  0  0  0  0
 17 40  1  0  0  0  0
 18 19  1  0  0  0  0
 19 24  2  0  0  0  0
 19 20  1  0  0  0  0
 20 21  2  0  0  0  0
 20 41  1  0  0  0  0
 21 22  1  0  0  0  0
 21 42  1  0  0  0  0
 22 23  2  0  0  0  0
 22 43  1  0  0  0  0
 23 24  1  0  0  0  0
 23 44  1  0  0  0  0
M  END
> <s_m_source_file>
AV-unprocessed.smi

> <i_m_source_file_index>
572

> <i_lp_mmshare_version>
43012

> <i_f3d_flags>
0

> <s_epik_input>
W2NIXTFbY0hdW2NIXVtjSF1jKGMxMiluKFtDSDJdW0NIMl1PW0NIM10pYyhuMiktYzNbY0hdYyhPW0NIM10pYyhbT0hdKWMoW2NIXTMpT1tDSDNd

> <s_epik_cmdline>
J2VwaWtfcHl0aG9uJywgJy1waCcsICc3LjAnLCAnLXRuJywgJzgnLCAnLW1hJywgJzIwMCcsICctbWV0YWxfYmluZGluZycsICctaW1hZScsICc8aW5maWxlLm1hZT4nLCAnLW9tYWUnLCAnPG91dGZpbGUubWFlPic=

> <r_lp_tautomer_probability>
1

> <r_epik_Ionization_Penalty>
0.264233

> <r_epik_Ionization_Penalty_Charging>
0

> <r_epik_Ionization_Penalty_Neutral>
0.264233

> <r_epik_State_Penalty>
0.193741

> <r_epik_Charging_Adjusted_Penalty>
0.193741

> <i_epik_Tot_Q>
0

> <i_epik_Tot_abs_Q>
0

> <r_epik_Metal_State_Penalty>
0.000227182

> <b_epik_Metal_Only>
0

> <s_lp_Force_Field>
OPLS_2005

> <r_lp_Energy>
21.3559

> <b_lp_Chiralities_Consistent>
1

> <s_lp_Variant>
AV-unprocessed.smi:572-1

> <Gold.Version>
5.8.1

> <Gold.Id.Protein>
6NUR|6NUR_protein|mol2

> <Gold.PLP.Fitness>
52.3036

> <Gold.PLP.PLP>
-46.3114

> <Gold.PLP.part.hbond>
-3.8927

> <Gold.PLP.part.metal>
0.0000

> <Gold.PLP.part.buried>
-0.0764

> <Gold.PLP.part.nonpolar>
-42.4439

> <Gold.PLP.part.repulsive>
0.2299

> <Gold.PLP.ligand.clash>
0.2960

> <Gold.PLP.ligand.torsion>
0.6143

> <Gold.PLP.Chemscore.Hbond>
2.1080

> <Gold.PLP.Chemscore.CHOScore>
0.0000

> <Gold.PLP.Chemscore.Metal>
0.0000

> <Gold.Chemscore.Hbonds>
donor molecule, donor type, donor heavy atom, donor atom, acceptor molecule, acceptor atom, score
      P1  H  7997  8008       L1     2  0.90
      P1  H 10752 10764       L1    13  0.63
      P1  H 10752 10765       L1    10  0.29

> <Gold.PLP.Chemscore.Internal.Correction>
1.1930

> <Gold.Rescore>
     Score         DG    S(hbond)    S(metal)    S(lipo)     H(rot)  DE(clash)    DE(int)     intcor
     17.09     -20.86       1.42        0.00     139.43       2.21       2.08       1.69       ----

> <Gold.Chemscore.Fitness>
17.0891

> <Gold.Chemscore.DG>
-20.8638

> <Gold.Chemscore.ZeroCoef>
-5.4800

> <Gold.Chemscore.Hbond>
1.4154

> <Gold.Chemscore.Metal>
0.0000

> <Gold.Chemscore.Lipo>
139.4330

> <Gold.Chemscore.Internal_Hbond>
0.0000

> <Gold.Chemscore.DEClash>
2.0799

> <Gold.Chemscore.DEInternal>
1.6949

> <Gold.Chemscore.Rot>
2.2099

> <Gold.Chemscore.Internal.Correction>
   9.000000E+99

> <Gold.Chemscore.Hbonds>
donor molecule, donor type, donor heavy atom, donor atom, acceptor molecule, acceptor atom, score
      P1  H  7997  8008       L1     2  0.17
      P1  H 10752 10764       L1    13  0.09
      P1  H 10752 10765       L1    10  0.06

> <Gold.Chemscore.Hbond.Weighted>
-4.7275

> <Gold.Chemscore.Metal.Weighted>
-0.0000

> <Gold.Chemscore.Lipo.Weighted>
-16.3137

> <Gold.Chemscore.Internal_Hbond.Weighted>
0.0000

> <Gold.Chemscore.DEClash.Weighted>
2.0799

> <Gold.Chemscore.DEInternal.Weighted>
1.6949

> <Gold.Chemscore.Rot.Weighted>
5.6574

> <Gold.Chemscore.Internal.Correction.Weighted>
   9.000000E+99

> <Gold.Protein.RotatedTorsions>
[ 6907 6896 6895 6894 ] final  116.86 input  -60.11 | X-H torsion
[ 7974 7965 7964 7962 ] final  -89.65 input  175.53 | X-H torsion
[ 8008 7997 7996 7995 ] final -136.65 input   59.86 | X-H torsion
[ 10167 10162 10161 10158 ] final -111.80 input  -65.29 | X-H torsion
[ 10718 10713 10712 10709 ] final -156.06 input   66.30 | X-H torsion
[ 10763 10752 10751 10750 ] final -104.21 input  -60.55 | X-H torsion
[ 11005 11000 10999 10996 ] final -174.98 input  -57.11 | X-H torsion

> <Gold.Protein.ActiveResidues>
 VAL166  LYS551  ARG553  GLY616  TRP617  ASP618  TYR619  PRO620  LYS621  CYS622 
 ASP623  PHE694  ASN695  SER759  ASP760  ASP761  ALA762  ILE779  LEU786  VAL792 
 PHE793  MET794  SER795  GLU796  ALA797  LYS798  CYS799  TRP800  GLU811  SER814 

> <Gold.Protein.RotatedAtoms>
  152.4650  133.7903  159.6898 H   0  0  0  0  0  0  0  0  0  0  0  0  # atno 6907 bound_to 6896
  150.8611  133.7633  159.2998 H   0  0  0  0  0  0  0  0  0  0  0  0  # atno 6908 bound_to 6896
  151.5198  135.1070  159.9927 H   0  0  0  0  0  0  0  0  0  0  0  0  # atno 6909 bound_to 6896
  145.4370  140.9558  143.2096 H   0  0  0  0  0  0  0  0  0  0  0  0  # atno 7974 bound_to 7965
  155.3988  140.0504  157.3037 H   0  0  0  0  0  0  0  0  0  0  0  0  # atno 8008 bound_to 7997
  154.5001  140.2153  155.9326 H   0  0  0  0  0  0  0  0  0  0  0  0  # atno 8009 bound_to 7997
  156.1456  140.3146  155.8570 H   0  0  0  0  0  0  0  0  0  0  0  0  # atno 8010 bound_to 7997
  140.1297  143.4371  152.1636 H   0  0  0  0  0  0  0  0  0  0  0  0  # atno 10167 bound_to 10162
  156.5214  130.8479  151.2683 H   0  0  0  0  0  0  0  0  0  0  0  0  # atno 10718 bound_to 10713
  154.7862  135.4794  153.9952 H   0  0  0  0  0  0  0  0  0  0  0  0  # atno 10763 bound_to 10752
  153.1564  135.6801  153.8813 H   0  0  0  0  0  0  0  0  0  0  0  0  # atno 10764 bound_to 10752
  153.8441  135.3175  155.3406 H   0  0  0  0  0  0  0  0  0  0  0  0  # atno 10765 bound_to 10752
  140.4684  134.6189  157.4872 H   0  0  0  0  0  0  0  0  0  0  0  0  # atno 11005 bound_to 11000
  144.8146  139.5900  143.7014 LP  0  0  0  0  0  0  0  0  0  0  0  0  # atno 17320 bound_to 7965
  146.2576  139.6338  142.9384 LP  0  0  0  0  0  0  0  0  0  0  0  0  # atno 17321 bound_to 7965
  139.5526  144.7349  151.4390 LP  0  0  0  0  0  0  0  0  0  0  0  0  # atno 17342 bound_to 10162
  140.6824  143.8051  150.7139 LP  0  0  0  0  0  0  0  0  0  0  0  0  # atno 17343 bound_to 10162
  157.7436  130.9916  150.2607 LP  0  0  0  0  0  0  0  0  0  0  0  0  # atno 17370 bound_to 10713
  156.3146  130.3777  149.7630 LP  0  0  0  0  0  0  0  0  0  0  0  0  # atno 17371 bound_to 10713
  139.9901  134.6999  155.9705 LP  0  0  0  0  0  0  0  0  0  0  0  0  # atno 17394 bound_to 11000
  141.1588  133.6540  156.4251 LP  0  0  0  0  0  0  0  0  0  0  0  0  # atno 17395 bound_to 11000

$$$$
