AV-unprocessed.smi:114|AV-procd|sdf|1111|dock6
  -GOLD-   2262018233D 1   1.00000     0.00000
 Structure written by MMmdl.
 32 34  0  0  0  0  0  0  0  0  1 V2000
  145.4580  139.0483  154.2442 N   0  0  0  0  0  0  0  0  0  0  0  0
  145.8211  137.7603  154.1685 C   0  0  0  0  0  0  0  0  0  0  0  0
  146.4726  137.2113  155.2202 N   0  0  0  0  0  0  0  0  0  0  0  0
  146.8540  135.9281  155.1856 C   0  0  0  0  0  0  0  0  0  0  0  0
  147.4993  135.4635  156.2810 F   0  0  0  0  0  0  0  0  0  0  0  0
  146.6692  135.0534  154.1906 N   0  0  0  0  0  0  0  0  0  0  0  0
  146.0123  135.6053  153.1298 C   0  0  0  0  0  0  0  0  0  0  0  0
  145.5557  136.9466  153.0404 C   0  0  0  0  0  0  0  0  0  0  0  0
  144.9315  137.1533  151.8178 N   0  0  0  0  0  0  0  0  0  0  0  0
  145.0190  135.9943  151.2207 C   0  0  0  0  0  0  0  0  0  0  0  0
  145.6489  135.0034  151.9451 N   0  0  0  0  0  0  0  0  0  0  0  0
  145.9153  133.5781  151.5682 C   0  0  2  0  0  0  0  0  0  0  0  0
  145.6434  133.4500  150.2042 O   0  0  0  0  0  0  0  0  0  0  0  0
  144.6369  132.4653  149.9721 C   0  0  2  0  0  0  0  0  0  0  0  0
  143.7854  132.8245  148.7419 C   0  0  0  0  0  0  0  0  0  0  0  0
  142.5932  132.0694  148.7423 O   0  0  0  0  0  0  0  0  0  0  0  0
  143.8738  132.3601  151.3003 C   0  0  2  0  0  0  0  0  0  0  0  0
  142.8358  133.3230  151.3846 O   0  0  0  0  0  0  0  0  0  0  0  0
  144.9842  132.6029  152.3127 C   0  0  2  0  0  0  0  0  0  0  0  0
  144.5060  133.0479  153.5704 O   0  0  0  0  0  0  0  0  0  0  0  0
  146.9740  133.4266  151.7811 H   0  0  0  0  0  0  0  0  0  0  0  0
  145.1424  131.5114  149.8084 H   0  0  0  0  0  0  0  0  0  0  0  0
  143.4258  131.3738  151.4262 H   0  0  0  0  0  0  0  0  0  0  0  0
  145.5389  131.6750  152.4577 H   0  0  0  0  0  0  0  0  0  0  0  0
  144.9709  139.4796  153.4717 H   0  0  0  0  0  0  0  0  0  0  0  0
  145.6715  139.5845  155.0727 H   0  0  0  0  0  0  0  0  0  0  0  0
  144.6226  135.8326  150.2290 H   0  0  0  0  0  0  0  0  0  0  0  0
  143.5033  133.8775  148.7735 H   0  0  0  0  0  0  0  0  0  0  0  0
  144.3353  132.6617  147.8145 H   0  0  0  0  0  0  0  0  0  0  0  0
  141.8601  132.6655  148.7285 H   0  0  0  0  0  0  0  0  0  0  0  0
  142.2842  133.2342  150.6221 H   0  0  0  0  0  0  0  0  0  0  0  0
  143.9179  132.3913  153.9116 H   0  0  0  0  0  0  0  0  0  0  0  0
  1  2  1  0  0  0  0
  1 25  1  0  0  0  0
  1 26  1  0  0  0  0
  2  8  1  0  0  0  0
  2  3  2  0  0  0  0
  3  4  1  0  0  0  0
  4  5  1  0  0  0  0
  4  6  2  0  0  0  0
  6  7  1  0  0  0  0
  7 11  1  0  0  0  0
  7  8  2  0  0  0  0
  8  9  1  0  0  0  0
  9 10  2  0  0  0  0
 10 11  1  0  0  0  0
 10 27  1  0  0  0  0
 11 12  1  0  0  0  0
 12 21  1  0  0  0  0
 12 19  1  0  0  0  0
 12 13  1  0  0  0  0
 13 14  1  0  0  0  0
 14 22  1  0  0  0  0
 14 15  1  0  0  0  0
 14 17  1  0  0  0  0
 15 16  1  0  0  0  0
 15 28  1  0  0  0  0
 15 29  1  0  0  0  0
 16 30  1  0  0  0  0
 17 23  1  0  0  0  0
 17 18  1  0  0  0  0
 17 19  1  0  0  0  0
 18 31  1  0  0  0  0
 19 24  1  0  0  0  0
 19 20  1  0  0  0  0
 20 32  1  0  0  0  0
M  END
> <s_m_source_file>
AV-unprocessed.smi

> <i_m_source_file_index>
114

> <i_lp_mmshare_version>
43012

> <i_f3d_flags>
0

> <s_epik_input>
RmMobjEpbmMoW05IMl0pYyhjMTIpbltjSF1uMltDQEBIXTNPW0NASF0oW0NIMl1bT0hdKVtDQEBIXShbT0hdKVtDQEBIXTNbT0hd

> <s_epik_cmdline>
J2VwaWtfcHl0aG9uJywgJy1waCcsICc3LjAnLCAnLXRuJywgJzgnLCAnLW1hJywgJzIwMCcsICctbWV0YWxfYmluZGluZycsICctaW1hZScsICc8aW5maWxlLm1hZT4nLCAnLW9tYWUnLCAnPG91dGZpbGUubWFlPic=

> <r_lp_tautomer_probability>
1

> <r_epik_Ionization_Penalty>
1.13199e-05

> <r_epik_Ionization_Penalty_Charging>
0

> <r_epik_Ionization_Penalty_Neutral>
1.13199e-05

> <r_epik_State_Penalty>
-0

> <r_epik_Charging_Adjusted_Penalty>
0

> <i_epik_Tot_Q>
0

> <i_epik_Tot_abs_Q>
0

> <r_epik_Metal_State_Penalty>
-0

> <b_epik_Metal_Only>
0

> <s_epik_Chemistry_Notes>
This compound contains an acetal/aminal-like group ( X-CH(R)-Y where X, Y are N, S, or O) that may be acid/base labile, releasing an aldehyde.

> <s_lp_Force_Field>
OPLS_2005

> <r_lp_Energy>
42.0109

> <b_lp_Chiralities_Consistent>
1

> <s_lp_Variant>
AV-unprocessed.smi:114-5

> <Gold.Version>
5.8.1

> <Gold.Id.Protein>
6NUR|6NUR_protein|mol2

> <Gold.PLP.Fitness>
38.1159

> <Gold.PLP.PLP>
-24.6284

> <Gold.PLP.part.hbond>
-6.0000

> <Gold.PLP.part.metal>
0.0000

> <Gold.PLP.part.buried>
-4.3476

> <Gold.PLP.part.nonpolar>
-18.3974

> <Gold.PLP.part.repulsive>
5.0841

> <Gold.PLP.ligand.clash>
0.0000

> <Gold.PLP.ligand.torsion>
0.4254

> <Gold.PLP.Chemscore.Hbond>
4.6325

> <Gold.PLP.Chemscore.CHOScore>
0.0637

> <Gold.PLP.Chemscore.Metal>
0.0000

> <Gold.Chemscore.Hbonds>
donor molecule, donor type, donor heavy atom, donor atom, acceptor molecule, acceptor atom, score
      L1  H     1    25       P1 10175  1.00
      L1  H    16    30       P1 10186  0.80
      L1  H    18    31       P1 10186  0.72
      L1  H    20    32       P1 10957  1.00
      P1  H 10785 10796       L1    16  1.00
      L1  C    10    27       P1 10171  0.05

> <Gold.PLP.Chemscore.Internal.Correction>
0.2499

> <Gold.Rescore>
     Score         DG    S(hbond)    S(metal)    S(lipo)     H(rot)  DE(clash)    DE(int)     intcor
     11.45     -13.70       4.30        0.00      35.71       4.03       1.58       0.67       ----

> <Gold.Chemscore.Fitness>
11.4515

> <Gold.Chemscore.DG>
-13.6976

> <Gold.Chemscore.ZeroCoef>
-5.4800

> <Gold.Chemscore.Hbond>
4.2967

> <Gold.Chemscore.Metal>
0.0000

> <Gold.Chemscore.Lipo>
35.7061

> <Gold.Chemscore.Internal_Hbond>
0.0000

> <Gold.Chemscore.DEClash>
1.5793

> <Gold.Chemscore.DEInternal>
0.6667

> <Gold.Chemscore.Rot>
4.0277

> <Gold.Chemscore.Internal.Correction>
   9.000000E+99

> <Gold.Chemscore.Hbonds>
donor molecule, donor type, donor heavy atom, donor atom, acceptor molecule, acceptor atom, score
      L1  H     1    25       P1 10175  0.99
      L1  H    16    30       P1 10186  0.76
      L1  H    18    31       P1 10186  0.67
      L1  H    20    32       P1 10957  0.44
      P1  H 10785 10796       L1    16  0.46

> <Gold.Chemscore.Hbond.Weighted>
-14.3509

> <Gold.Chemscore.Metal.Weighted>
-0.0000

> <Gold.Chemscore.Lipo.Weighted>
-4.1776

> <Gold.Chemscore.Internal_Hbond.Weighted>
0.0000

> <Gold.Chemscore.DEClash.Weighted>
1.5793

> <Gold.Chemscore.DEInternal.Weighted>
0.6667

> <Gold.Chemscore.Rot.Weighted>
10.3110

> <Gold.Chemscore.Internal.Correction.Weighted>
   9.000000E+99

> <Gold.Protein.RotatedTorsions>
[ 6907 6896 6895 6894 ] final  136.98 input  -60.11 | X-H torsion
[ 7974 7965 7964 7962 ] final   44.32 input  175.53 | X-H torsion
[ 8008 7997 7996 7995 ] final    9.06 input   59.86 | X-H torsion
[ 10167 10162 10161 10158 ] final -163.71 input  -65.29 | X-H torsion
[ 10718 10713 10712 10709 ] final -147.08 input   66.30 | X-H torsion
[ 10763 10752 10751 10750 ] final  127.15 input  -60.55 | X-H torsion
[ 11005 11000 10999 10996 ] final   -3.42 input  -57.11 | X-H torsion

> <Gold.Protein.ActiveResidues>
 VAL166  LYS551  ARG553  GLY616  TRP617  ASP618  TYR619  PRO620  LYS621  CYS622 
 ASP623  PHE694  ASN695  SER759  ASP760  ASP761  ALA762  ILE779  LEU786  VAL792 
 PHE793  MET794  SER795  GLU796  ALA797  LYS798  CYS799  TRP800  GLU811  SER814 

> <Gold.Protein.RotatedAtoms>
  152.2833  133.5490  159.5510 H   0  0  0  0  0  0  0  0  0  0  0  0  # atno 6907 bound_to 6896
  150.7204  134.0533  159.3815 H   0  0  0  0  0  0  0  0  0  0  0  0  # atno 6908 bound_to 6896
  151.8443  135.0580  160.0502 H   0  0  0  0  0  0  0  0  0  0  0  0  # atno 6909 bound_to 6896
  146.0579  139.5088  142.9677 H   0  0  0  0  0  0  0  0  0  0  0  0  # atno 7974 bound_to 7965
  154.7751  140.2809  155.6107 H   0  0  0  0  0  0  0  0  0  0  0  0  # atno 8008 bound_to 7997
  156.2940  140.2634  156.2491 H   0  0  0  0  0  0  0  0  0  0  0  0  # atno 8009 bound_to 7997
  154.9852  140.0374  157.2285 H   0  0  0  0  0  0  0  0  0  0  0  0  # atno 8010 bound_to 7997
  139.6301  144.0455  152.2009 H   0  0  0  0  0  0  0  0  0  0  0  0  # atno 10167 bound_to 10162
  156.4030  130.7943  151.2155 H   0  0  0  0  0  0  0  0  0  0  0  0  # atno 10718 bound_to 10713
  153.7048  135.3277  155.3233 H   0  0  0  0  0  0  0  0  0  0  0  0  # atno 10763 bound_to 10752
  154.8402  135.4463  154.1374 H   0  0  0  0  0  0  0  0  0  0  0  0  # atno 10764 bound_to 10752
  153.2451  135.6975  153.7819 H   0  0  0  0  0  0  0  0  0  0  0  0  # atno 10765 bound_to 10752
  140.6691  133.9252  155.8483 H   0  0  0  0  0  0  0  0  0  0  0  0  # atno 11005 bound_to 11000
  145.6611  141.0240  143.1708 LP  0  0  0  0  0  0  0  0  0  0  0  0  # atno 17320 bound_to 7965
  144.7158  139.8202  143.7399 LP  0  0  0  0  0  0  0  0  0  0  0  0  # atno 17321 bound_to 7965
  140.0119  144.6218  150.7640 LP  0  0  0  0  0  0  0  0  0  0  0  0  # atno 17342 bound_to 10162
  140.7434  143.2846  151.3500 LP  0  0  0  0  0  0  0  0  0  0  0  0  # atno 17343 bound_to 10162
  157.7504  131.0281  150.4034 LP  0  0  0  0  0  0  0  0  0  0  0  0  # atno 17370 bound_to 10713
  156.4317  130.3973  149.6756 LP  0  0  0  0  0  0  0  0  0  0  0  0  # atno 17371 bound_to 10713
  141.0406  134.0627  157.3906 LP  0  0  0  0  0  0  0  0  0  0  0  0  # atno 17394 bound_to 11000
  139.8987  135.0156  156.7163 LP  0  0  0  0  0  0  0  0  0  0  0  0  # atno 17395 bound_to 11000

$$$$
