AV-unprocessed.smi:592|AV-procd|sdf|3011|dock8
  -GOLD-   2262023523D 1   1.00000     0.00000
 Structure written by MMmdl.
 28 29  0  0  0  0  0  0  0  0  2 V2000
  150.7576  140.4585  155.2129 O   0  0  0  0  0  0  0  0  0  0  0  0
  149.8139  141.2471  155.1799 C   0  0  0  0  0  0  0  0  0  0  0  0
  148.6234  141.0433  154.2280 C   0  0  0  0  0  0  0  0  0  0  0  0
  147.4300  141.8162  154.6151 N   0  0  0  0  0  0  0  0  0  0  0  0
  146.8414  142.6255  153.6226 C   0  0  0  0  0  0  0  0  0  0  0  0
  145.7505  143.3687  153.8665 C   0  0  0  0  0  0  0  0  0  0  0  0
  145.1766  143.3249  155.1906 C   0  0  0  0  0  0  0  0  0  0  0  0
  145.7343  142.5587  156.1490 C   0  0  0  0  0  0  0  0  0  0  0  0
  146.9293  141.7478  155.8879 C   0  0  0  0  0  0  0  0  0  0  0  0
  147.4504  141.0510  156.7590 O   0  0  0  0  0  0  0  0  0  0  0  0
  149.8610  142.3891  156.0610 N   0  0  0  0  0  0  0  0  0  0  0  0
  150.7824  142.7849  156.9749 C   0  0  0  0  0  0  0  0  0  0  0  0
  151.0948  144.0673  157.2111 N   0  3  0  0  0  0  0  0  0  0  0  0
  152.1216  144.3770  158.2178 C   0  0  0  0  0  0  0  0  0  0  0  0
  152.6381  143.0660  158.8324 C   0  0  0  0  0  0  0  0  0  0  0  0
  151.7661  141.7120  158.0205 S   0  0  0  0  0  0  0  0  0  0  0  0
  148.9255  141.3309  153.2211 H   0  0  0  0  0  0  0  0  0  0  0  0
  148.3673  139.9840  154.1908 H   0  0  0  0  0  0  0  0  0  0  0  0
  147.3330  142.6079  152.6608 H   0  0  0  0  0  0  0  0  0  0  0  0
  145.3156  143.9856  153.0940 H   0  0  0  0  0  0  0  0  0  0  0  0
  144.2965  143.9098  155.4139 H   0  0  0  0  0  0  0  0  0  0  0  0
  145.2916  142.5397  157.1340 H   0  0  0  0  0  0  0  0  0  0  0  0
  149.1030  143.0549  156.0189 H   0  0  0  0  0  0  0  0  0  0  0  0
  152.9352  144.9265  157.7435 H   0  0  0  0  0  0  0  0  0  0  0  0
  151.6940  145.0226  158.9853 H   0  0  0  0  0  0  0  0  0  0  0  0
  153.7118  142.9555  158.6789 H   0  0  0  0  0  0  0  0  0  0  0  0
  152.4475  143.0328  159.9054 H   0  0  0  0  0  0  0  0  0  0  0  0
  150.6468  144.8219  156.7104 H   0  0  0  0  0  0  0  0  0  0  0  0
  1  2  2  0  0  0  0
  2  3  1  0  0  0  0
  2 11  1  0  0  0  0
  3  4  1  0  0  0  0
  3 17  1  0  0  0  0
  3 18  1  0  0  0  0
  4  9  1  0  0  0  0
  4  5  1  0  0  0  0
  5  6  2  0  0  0  0
  5 19  1  0  0  0  0
  6  7  1  0  0  0  0
  6 20  1  0  0  0  0
  7  8  2  0  0  0  0
  7 21  1  0  0  0  0
  8  9  1  0  0  0  0
  8 22  1  0  0  0  0
  9 10  2  0  0  0  0
 11 12  1  0  0  0  0
 11 23  1  0  0  0  0
 12 16  1  0  0  0  0
 12 13  2  0  0  0  0
 13 14  1  0  0  0  0
 13 28  1  0  0  0  0
 14 15  1  0  0  0  0
 14 24  1  0  0  0  0
 14 25  1  0  0  0  0
 15 16  1  0  0  0  0
 15 26  1  0  0  0  0
 15 27  1  0  0  0  0
M  CHG  1  13   1
M  END
> <s_m_source_file>
AV-unprocessed.smi

> <i_m_source_file_index>
592

> <i_lp_mmshare_version>
43012

> <i_f3d_flags>
0

> <s_epik_input>
UzFbQ0gyXVtDSDJdTj1DMVtOSF1DKD1PKVtDSDJdbjJbY0hdW2NIXVtjSF1bY0hdYzI9Tw==

> <s_epik_cmdline>
J2VwaWtfcHl0aG9uJywgJy1waCcsICc3LjAnLCAnLXRuJywgJzgnLCAnLW1hJywgJzIwMCcsICctbWV0YWxfYmluZGluZycsICctaW1hZScsICc8aW5maWxlLm1hZT4nLCAnLW9tYWUnLCAnPG91dGZpbGUubWFlPic=

> <r_lp_tautomer_probability>
1

> <r_epik_Ionization_Penalty>
1.98499

> <r_epik_Ionization_Penalty_Charging>
1.98499

> <r_epik_Ionization_Penalty_Neutral>
2.63117e-16

> <r_epik_State_Penalty>
1.64719

> <r_epik_Charging_Adjusted_Penalty>
3.63218

> <i_epik_Tot_Q>
1

> <i_epik_Tot_abs_Q>
1

> <r_epik_Metal_State_Penalty>
5.35038

> <b_epik_Metal_Only>
0

> <s_epik_Chemistry_Notes>
This compound has an imine and may undergo hydrolysis.

> <s_lp_Force_Field>
OPLS_2005

> <r_lp_Energy>
33.1972

> <b_lp_Chiralities_Consistent>
1

> <s_lp_Variant>
AV-unprocessed.smi:592-2

> <Gold.Version>
5.8.1

> <Gold.Id.Protein>
6NUR|6NUR_protein|mol2

> <Gold.PLP.Fitness>
43.4107

> <Gold.PLP.PLP>
-35.7962

> <Gold.PLP.part.hbond>
-3.0000

> <Gold.PLP.part.metal>
0.0000

> <Gold.PLP.part.buried>
-4.9047

> <Gold.PLP.part.nonpolar>
-28.8402

> <Gold.PLP.part.repulsive>
0.2453

> <Gold.PLP.ligand.clash>
0.0000

> <Gold.PLP.ligand.torsion>
0.5743

> <Gold.PLP.Chemscore.Hbond>
2.9200

> <Gold.PLP.Chemscore.CHOScore>
0.0000

> <Gold.PLP.Chemscore.Metal>
0.0000

> <Gold.Chemscore.Hbonds>
donor molecule, donor type, donor heavy atom, donor atom, acceptor molecule, acceptor atom, score
      L1  H    11    23       P1  8028  0.77
      L1  H    13    28       P1  8028  1.15
      P1  H  7989  7998       L1     1  1.00

> <Gold.PLP.Chemscore.Internal.Correction>
0.0030

> <Gold.Rescore>
     Score         DG    S(hbond)    S(metal)    S(lipo)     H(rot)  DE(clash)    DE(int)     intcor
     13.83     -15.91       2.00        0.00      61.68       1.35       1.51       0.57       ----

> <Gold.Chemscore.Fitness>
13.8277

> <Gold.Chemscore.DG>
-15.9135

> <Gold.Chemscore.ZeroCoef>
-5.4800

> <Gold.Chemscore.Hbond>
1.9976

> <Gold.Chemscore.Metal>
0.0000

> <Gold.Chemscore.Lipo>
61.6804

> <Gold.Chemscore.Internal_Hbond>
0.0000

> <Gold.Chemscore.DEClash>
1.5117

> <Gold.Chemscore.DEInternal>
0.5741

> <Gold.Chemscore.Rot>
1.3497

> <Gold.Chemscore.Internal.Correction>
   9.000000E+99

> <Gold.Chemscore.Hbonds>
donor molecule, donor type, donor heavy atom, donor atom, acceptor molecule, acceptor atom, score
      L1  H    11    23       P1  8028  0.76
      L1  H    13    28       P1  8028  0.44
      P1  H  7989  7998       L1     1  0.24

> <Gold.Chemscore.Hbond.Weighted>
-6.6721

> <Gold.Chemscore.Metal.Weighted>
-0.0000

> <Gold.Chemscore.Lipo.Weighted>
-7.2166

> <Gold.Chemscore.Internal_Hbond.Weighted>
0.0000

> <Gold.Chemscore.DEClash.Weighted>
1.5117

> <Gold.Chemscore.DEInternal.Weighted>
0.5741

> <Gold.Chemscore.Rot.Weighted>
3.4552

> <Gold.Chemscore.Internal.Correction.Weighted>
   9.000000E+99

> <Gold.Protein.RotatedTorsions>
[ 6907 6896 6895 6894 ] final  -55.89 input  -60.11 | X-H torsion
[ 7974 7965 7964 7962 ] final   63.93 input  175.53 | X-H torsion
[ 8008 7997 7996 7995 ] final   47.01 input   59.86 | X-H torsion
[ 10167 10162 10161 10158 ] final  -29.78 input  -65.29 | X-H torsion
[ 10718 10713 10712 10709 ] final   27.97 input   66.30 | X-H torsion
[ 10763 10752 10751 10750 ] final -166.65 input  -60.55 | X-H torsion
[ 11005 11000 10999 10996 ] final  125.23 input  -57.11 | X-H torsion

> <Gold.Protein.ActiveResidues>
 VAL166  LYS551  ARG553  GLY616  TRP617  ASP618  TYR619  PRO620  LYS621  CYS622 
 ASP623  PHE694  ASN695  SER759  ASP760  ASP761  ALA762  ILE779  LEU786  VAL792 
 PHE793  MET794  SER795  GLU796  ALA797  LYS798  CYS799  TRP800  GLU811  SER814 

> <Gold.Protein.RotatedAtoms>
  150.8213  134.7422  159.6774 H   0  0  0  0  0  0  0  0  0  0  0  0  # atno 6907 bound_to 6896
  152.4328  134.5741  159.9939 H   0  0  0  0  0  0  0  0  0  0  0  0  # atno 6908 bound_to 6896
  151.5924  133.3327  159.3066 H   0  0  0  0  0  0  0  0  0  0  0  0  # atno 6909 bound_to 6896
  145.8561  139.3285  143.0846 H   0  0  0  0  0  0  0  0  0  0  0  0  # atno 7974 bound_to 7965
  155.3620  140.3419  155.4241 H   0  0  0  0  0  0  0  0  0  0  0  0  # atno 8008 bound_to 7997
  156.1709  140.1631  156.8484 H   0  0  0  0  0  0  0  0  0  0  0  0  # atno 8009 bound_to 7997
  154.5232  140.0762  156.8192 H   0  0  0  0  0  0  0  0  0  0  0  0  # atno 8010 bound_to 7997
  140.7257  143.3901  151.1445 H   0  0  0  0  0  0  0  0  0  0  0  0  # atno 10167 bound_to 10162
  157.2272  130.7006  149.6297 H   0  0  0  0  0  0  0  0  0  0  0  0  # atno 10718 bound_to 10713
  154.6812  135.2955  154.9611 H   0  0  0  0  0  0  0  0  0  0  0  0  # atno 10763 bound_to 10752
  154.0605  135.6632  153.4815 H   0  0  0  0  0  0  0  0  0  0  0  0  # atno 10764 bound_to 10752
  153.0548  135.5151  154.7856 H   0  0  0  0  0  0  0  0  0  0  0  0  # atno 10765 bound_to 10752
  139.9396  134.9636  156.8527 H   0  0  0  0  0  0  0  0  0  0  0  0  # atno 11005 bound_to 11000
  145.9302  140.9054  143.0360 LP  0  0  0  0  0  0  0  0  0  0  0  0  # atno 17320 bound_to 7965
  144.6727  140.1408  143.7437 LP  0  0  0  0  0  0  0  0  0  0  0  0  # atno 17321 bound_to 7965
  139.7504  143.8787  152.3075 LP  0  0  0  0  0  0  0  0  0  0  0  0  # atno 17342 bound_to 10162
  139.8638  144.7103  150.9067 LP  0  0  0  0  0  0  0  0  0  0  0  0  # atno 17343 bound_to 10162
  155.9678  130.4500  150.5682 LP  0  0  0  0  0  0  0  0  0  0  0  0  # atno 17370 bound_to 10713
  157.3515  131.0734  151.1709 LP  0  0  0  0  0  0  0  0  0  0  0  0  # atno 17371 bound_to 10713
  140.5985  134.0194  155.7527 LP  0  0  0  0  0  0  0  0  0  0  0  0  # atno 17394 bound_to 11000
  141.1025  133.9745  157.3053 LP  0  0  0  0  0  0  0  0  0  0  0  0  # atno 17395 bound_to 11000

$$$$
