AV-unprocessed.smi:1389|AV-procd|sdf|5652|dock10
  -GOLD-   22720 5273D 1   1.00000     0.00000
 Structure written by MMmdl.
 53 55  0  0  0  0  0  0  0  0  3 V2000
  138.7566  137.2582  154.0178 C   0  0  0  0  0  0  0  0  0  0  0  0
  139.0115  138.6951  153.4981 C   0  0  2  0  0  0  0  0  0  0  0  0
  140.2698  139.3076  154.1747 C   0  0  0  0  0  0  0  0  0  0  0  0
  141.5161  138.9934  153.4780 N   0  0  0  0  0  0  0  0  0  0  0  0
  142.0155  137.7615  153.2995 C   0  0  0  0  0  0  0  0  0  0  0  0
  141.4515  136.7368  153.6825 O   0  0  0  0  0  0  0  0  0  0  0  0
  143.2016  137.7996  152.6694 N   0  0  0  0  0  0  0  0  0  0  0  0
  144.0448  136.7037  152.3287 C   0  0  0  0  0  0  0  0  0  0  0  0
  143.5319  135.4260  151.9876 C   0  0  0  0  0  0  0  0  0  0  0  0
  144.4180  134.3870  151.6409 C   0  0  0  0  0  0  0  0  0  0  0  0
  145.8015  134.6421  151.6300 C   0  0  0  0  0  0  0  0  0  0  0  0
  146.2572  135.8730  151.9437 N   0  3  0  0  0  0  0  0  0  0  0  0
  145.4482  136.9058  152.2860 C   0  0  0  0  0  0  0  0  0  0  0  0
  146.0257  138.1510  152.5894 N   0  0  0  0  0  0  0  0  0  0  0  0
  146.9876  138.1576  153.6798 C   0  0  0  0  0  0  0  0  0  0  0  0
  147.7368  139.4862  153.5532 C   0  0  0  0  0  0  0  0  0  0  0  0
  147.5493  139.9057  152.0900 C   0  0  0  0  0  0  0  0  0  0  0  0
  146.6829  138.8053  151.4707 C   0  0  0  0  0  0  0  0  0  0  0  0
  137.8127  139.5855  153.6681 N   0  3  0  0  0  0  0  0  0  0  0  0
  137.1140  139.3931  154.9704 C   0  0  0  0  0  0  0  0  0  0  0  0
  135.8793  140.3017  155.0883 C   0  0  0  0  0  0  0  0  0  0  0  0
  136.2696  141.6567  154.9361 O   0  0  0  0  0  0  0  0  0  0  0  0
  136.8222  141.8887  153.6505 C   0  0  0  0  0  0  0  0  0  0  0  0
  138.0892  141.0362  153.4630 C   0  0  0  0  0  0  0  0  0  0  0  0
  139.6374  136.6251  153.9208 H   0  0  0  0  0  0  0  0  0  0  0  0
  137.9810  136.7438  153.4515 H   0  0  0  0  0  0  0  0  0  0  0  0
  138.4690  137.2614  155.0696 H   0  0  0  0  0  0  0  0  0  0  0  0
  139.2095  138.6167  152.4279 H   0  0  0  0  0  0  0  0  0  0  0  0
  140.2249  140.3947  154.1760 H   0  0  0  0  0  0  0  0  0  0  0  0
  140.3165  139.0047  155.2223 H   0  0  0  0  0  0  0  0  0  0  0  0
  142.0483  139.7767  153.1275 H   0  0  0  0  0  0  0  0  0  0  0  0
  143.5886  138.7165  152.5000 H   0  0  0  0  0  0  0  0  0  0  0  0
  142.4710  135.2282  151.9726 H   0  0  0  0  0  0  0  0  0  0  0  0
  144.0400  133.4086  151.3818 H   0  0  0  0  0  0  0  0  0  0  0  0
  146.5514  133.9071  151.3755 H   0  0  0  0  0  0  0  0  0  0  0  0
  146.4878  138.0695  154.6450 H   0  0  0  0  0  0  0  0  0  0  0  0
  147.6870  137.3257  153.5854 H   0  0  0  0  0  0  0  0  0  0  0  0
  147.2956  140.2344  154.2129 H   0  0  0  0  0  0  0  0  0  0  0  0
  148.7878  139.3829  153.8247 H   0  0  0  0  0  0  0  0  0  0  0  0
  147.0362  140.8670  152.0421 H   0  0  0  0  0  0  0  0  0  0  0  0
  148.4988  140.0102  151.5643 H   0  0  0  0  0  0  0  0  0  0  0  0
  147.3085  138.0947  150.9287 H   0  0  0  0  0  0  0  0  0  0  0  0
  145.9536  139.2146  150.7710 H   0  0  0  0  0  0  0  0  0  0  0  0
  136.7698  138.3682  155.0898 H   0  0  0  0  0  0  0  0  0  0  0  0
  137.8052  139.5987  155.7892 H   0  0  0  0  0  0  0  0  0  0  0  0
  135.1260  140.0369  154.3441 H   0  0  0  0  0  0  0  0  0  0  0  0
  135.4151  140.1774  156.0667 H   0  0  0  0  0  0  0  0  0  0  0  0
  136.0848  141.6680  152.8770 H   0  0  0  0  0  0  0  0  0  0  0  0
  137.0674  142.9472  153.5607 H   0  0  0  0  0  0  0  0  0  0  0  0
  138.8651  141.3621  154.1574 H   0  0  0  0  0  0  0  0  0  0  0  0
  138.4512  141.2265  152.4538 H   0  0  0  0  0  0  0  0  0  0  0  0
  137.1565  139.3218  152.9467 H   0  0  0  0  0  0  0  0  0  0  0  0
  147.2645  136.0338  151.9220 H   0  0  0  0  0  0  0  0  0  0  0  0
  1  2  1  0  0  0  0
  1 25  1  0  0  0  0
  1 26  1  0  0  0  0
  1 27  1  0  0  0  0
  2  3  1  0  0  0  0
  2 19  1  0  0  0  0
  2 28  1  0  0  0  0
  3  4  1  0  0  0  0
  3 29  1  0  0  0  0
  3 30  1  0  0  0  0
  4  5  1  0  0  0  0
  4 31  1  0  0  0  0
  5  6  2  0  0  0  0
  5  7  1  0  0  0  0
  7  8  1  0  0  0  0
  7 32  1  0  0  0  0
  8 13  1  0  0  0  0
  8  9  2  0  0  0  0
  9 10  1  0  0  0  0
  9 33  1  0  0  0  0
 10 11  2  0  0  0  0
 10 34  1  0  0  0  0
 11 12  1  0  0  0  0
 11 35  1  0  0  0  0
 12 13  2  0  0  0  0
 12 53  1  0  0  0  0
 13 14  1  0  0  0  0
 14 18  1  0  0  0  0
 14 15  1  0  0  0  0
 15 16  1  0  0  0  0
 15 36  1  0  0  0  0
 15 37  1  0  0  0  0
 16 17  1  0  0  0  0
 16 38  1  0  0  0  0
 16 39  1  0  0  0  0
 17 18  1  0  0  0  0
 17 40  1  0  0  0  0
 17 41  1  0  0  0  0
 18 42  1  0  0  0  0
 18 43  1  0  0  0  0
 19 24  1  0  0  0  0
 19 20  1  0  0  0  0
 19 52  1  0  0  0  0
 20 21  1  0  0  0  0
 20 44  1  0  0  0  0
 20 45  1  0  0  0  0
 21 22  1  0  0  0  0
 21 46  1  0  0  0  0
 21 47  1  0  0  0  0
 22 23  1  0  0  0  0
 23 24  1  0  0  0  0
 23 48  1  0  0  0  0
 23 49  1  0  0  0  0
 24 50  1  0  0  0  0
 24 51  1  0  0  0  0
M  CHG  1  12   1
M  CHG  1  19   1
M  END
> <s_m_source_file>
AV-unprocessed.smi

> <i_m_source_file_index>
1389

> <i_lp_mmshare_version>
43012

> <i_f3d_flags>
0

> <s_epik_input>
W0NIMl0xW0NIMl1PW0NIMl1bQ0gyXU4xW0NASF0oW0NIM10pW0NIMl1bTkhdQyg9TylbTkhdYzJbY0hdW2NIXVtjSF1uYzJOM1tDSDJdW0NIMl1bQ0gyXVtDSDJdMw==

> <s_epik_cmdline>
J2VwaWtfcHl0aG9uJywgJy1waCcsICc3LjAnLCAnLXRuJywgJzgnLCAnLW1hJywgJzIwMCcsICctbWV0YWxfYmluZGluZycsICctaW1hZScsICc8aW5maWxlLm1hZT4nLCAnLW9tYWUnLCAnPG91dGZpbGUubWFlPic=

> <r_lp_tautomer_probability>
0.999994

> <r_epik_Ionization_Penalty>
1.80872

> <r_epik_Ionization_Penalty_Charging>
1.8087

> <r_epik_Ionization_Penalty_Neutral>
2.02981e-05

> <r_epik_State_Penalty>
1.84892

> <r_epik_Charging_Adjusted_Penalty>
3.65762

> <i_epik_Tot_Q>
2

> <i_epik_Tot_abs_Q>
2

> <r_epik_Metal_State_Penalty>
1.9311

> <b_epik_Metal_Only>
0

> <s_lp_Force_Field>
OPLS_2005

> <r_lp_Energy>
59.2072

> <b_lp_Chiralities_Consistent>
1

> <s_lp_Variant>
AV-unprocessed.smi:1389-7

> <Gold.Version>
5.8.1

> <Gold.Id.Protein>
6NUR|6NUR_protein|mol2

> <Gold.PLP.Fitness>
47.6450

> <Gold.PLP.PLP>
-37.4689

> <Gold.PLP.part.hbond>
-4.8103

> <Gold.PLP.part.metal>
0.0000

> <Gold.PLP.part.buried>
0.7756

> <Gold.PLP.part.nonpolar>
-33.8611

> <Gold.PLP.part.repulsive>
0.5243

> <Gold.PLP.ligand.clash>
0.0000

> <Gold.PLP.ligand.torsion>
0.9510

> <Gold.PLP.Chemscore.Hbond>
4.0000

> <Gold.PLP.Chemscore.CHOScore>
0.0000

> <Gold.PLP.Chemscore.Metal>
0.0000

> <Gold.Chemscore.Hbonds>
donor molecule, donor type, donor heavy atom, donor atom, acceptor molecule, acceptor atom, score
      L1  H     4    31       P1 10175  1.00
      L1  H     7    32       P1 10175  1.00
      L1  H    12    53       P1  7948  2.00

> <Gold.PLP.Chemscore.Internal.Correction>
0.0780

> <Gold.Rescore>
     Score         DG    S(hbond)    S(metal)    S(lipo)     H(rot)  DE(clash)    DE(int)     intcor
     16.23     -21.69       2.85        0.00      93.67       1.66       1.56       3.90       ----

> <Gold.Chemscore.Fitness>
16.2320

> <Gold.Chemscore.DG>
-21.6904

> <Gold.Chemscore.ZeroCoef>
-5.4800

> <Gold.Chemscore.Hbond>
2.8461

> <Gold.Chemscore.Metal>
0.0000

> <Gold.Chemscore.Lipo>
93.6662

> <Gold.Chemscore.Internal_Hbond>
0.0000

> <Gold.Chemscore.DEClash>
1.5586

> <Gold.Chemscore.DEInternal>
3.8998

> <Gold.Chemscore.Rot>
1.6620

> <Gold.Chemscore.Internal.Correction>
   9.000000E+99

> <Gold.Chemscore.Hbonds>
donor molecule, donor type, donor heavy atom, donor atom, acceptor molecule, acceptor atom, score
      L1  H     4    31       P1 10175  0.62
      L1  H     7    32       P1 10175  0.99
      L1  H    12    53       P1  7948  1.00

> <Gold.Chemscore.Hbond.Weighted>
-9.5061

> <Gold.Chemscore.Metal.Weighted>
-0.0000

> <Gold.Chemscore.Lipo.Weighted>
-10.9589

> <Gold.Chemscore.Internal_Hbond.Weighted>
0.0000

> <Gold.Chemscore.DEClash.Weighted>
1.5586

> <Gold.Chemscore.DEInternal.Weighted>
3.8998

> <Gold.Chemscore.Rot.Weighted>
4.2547

> <Gold.Chemscore.Internal.Correction.Weighted>
   9.000000E+99

> <Gold.Protein.RotatedTorsions>
[ 6907 6896 6895 6894 ] final  117.40 input  -60.11 | X-H torsion
[ 7974 7965 7964 7962 ] final  120.76 input  175.53 | X-H torsion
[ 8008 7997 7996 7995 ] final   28.66 input   59.86 | X-H torsion
[ 10167 10162 10161 10158 ] final -106.04 input  -65.29 | X-H torsion
[ 10718 10713 10712 10709 ] final  137.68 input   66.30 | X-H torsion
[ 10763 10752 10751 10750 ] final  131.31 input  -60.55 | X-H torsion
[ 11005 11000 10999 10996 ] final  135.01 input  -57.11 | X-H torsion

> <Gold.Protein.ActiveResidues>
 VAL166  LYS551  ARG553  GLY616  TRP617  ASP618  TYR619  PRO620  LYS621  CYS622 
 ASP623  PHE694  ASN695  SER759  ASP760  ASP761  ALA762  ILE779  LEU786  VAL792 
 PHE793  MET794  SER795  GLU796  ALA797  LYS798  CYS799  TRP800  GLU811  SER814 

> <Gold.Protein.RotatedAtoms>
  152.4614  133.7831  159.6861 H   0  0  0  0  0  0  0  0  0  0  0  0  # atno 6907 bound_to 6896
  150.8560  133.7705  159.3015 H   0  0  0  0  0  0  0  0  0  0  0  0  # atno 6908 bound_to 6896
  151.5285  135.1071  159.9948 H   0  0  0  0  0  0  0  0  0  0  0  0  # atno 6909 bound_to 6896
  145.1274  139.3350  143.4683 H   0  0  0  0  0  0  0  0  0  0  0  0  # atno 7974 bound_to 7965
  155.0622  140.3191  155.4657 H   0  0  0  0  0  0  0  0  0  0  0  0  # atno 8008 bound_to 7997
  156.2810  140.2127  156.5693 H   0  0  0  0  0  0  0  0  0  0  0  0  # atno 8009 bound_to 7997
  154.7123  140.0497  157.0549 H   0  0  0  0  0  0  0  0  0  0  0  0  # atno 8010 bound_to 7997
  140.1920  143.3884  152.1198 H   0  0  0  0  0  0  0  0  0  0  0  0  # atno 10167 bound_to 10162
  157.4335  131.1051  151.0224 H   0  0  0  0  0  0  0  0  0  0  0  0  # atno 10718 bound_to 10713
  153.7723  135.3180  155.3354 H   0  0  0  0  0  0  0  0  0  0  0  0  # atno 10763 bound_to 10752
  154.8192  135.4615  154.0732 H   0  0  0  0  0  0  0  0  0  0  0  0  # atno 10764 bound_to 10752
  153.1995  135.6920  153.8333 H   0  0  0  0  0  0  0  0  0  0  0  0  # atno 10765 bound_to 10752
  139.9952  134.9500  156.9947 H   0  0  0  0  0  0  0  0  0  0  0  0  # atno 11005 bound_to 11000
  146.3516  140.1258  142.8599 LP  0  0  0  0  0  0  0  0  0  0  0  0  # atno 17320 bound_to 7965
  145.0673  140.9131  143.4903 LP  0  0  0  0  0  0  0  0  0  0  0  0  # atno 17321 bound_to 7965
  139.5252  144.7093  151.5257 LP  0  0  0  0  0  0  0  0  0  0  0  0  # atno 17342 bound_to 10162
  140.6449  143.8814  150.6727 LP  0  0  0  0  0  0  0  0  0  0  0  0  # atno 17343 bound_to 10162
  157.1112  130.6022  149.5482 LP  0  0  0  0  0  0  0  0  0  0  0  0  # atno 17370 bound_to 10713
  155.9922  130.4979  150.7329 LP  0  0  0  0  0  0  0  0  0  0  0  0  # atno 17371 bound_to 10713
  140.4832  134.1268  155.7220 LP  0  0  0  0  0  0  0  0  0  0  0  0  # atno 17394 bound_to 11000
  141.1598  133.8814  157.1878 LP  0  0  0  0  0  0  0  0  0  0  0  0  # atno 17395 bound_to 11000

$$$$
