AV-unprocessed.smi:2609|AV-procd|sdf|10205|dock2
  -GOLD-   2272014213D 1   1.00000     0.00000
 Structure written by MMmdl.
 25 26  0  0  0  0  0  0  0  0  1 V2000
  149.0356  141.9754  153.7007 O   0  0  0  0  0  0  0  0  0  0  0  0
  149.7404  141.4311  154.5473 C   0  0  0  0  0  0  0  0  0  0  0  0
  150.2519  140.0628  154.4335 C   0  0  0  0  0  0  0  0  0  0  0  0
  151.0241  139.5523  155.4208 C   0  0  0  0  0  0  0  0  0  0  0  0
  151.3642  140.2802  156.5659 N   0  0  0  0  0  0  0  0  0  0  0  0
  150.9096  141.4905  156.6696 C   0  0  0  0  0  0  0  0  0  0  0  0
  151.1825  142.4301  157.8442 C   0  0  0  0  0  0  0  0  0  0  0  0
  151.8420  143.7508  157.3996 C   0  0  0  0  0  0  0  0  0  0  0  0
  152.1272  144.6543  158.6109 C   0  0  0  0  0  0  0  0  0  0  0  0
  152.9387  143.9658  159.5558 O   0  0  0  0  0  0  0  0  0  0  0  0
  152.3108  142.8020  160.0819 C   0  0  0  0  0  0  0  0  0  0  0  0
  152.0466  141.7940  158.9519 C   0  0  0  0  0  0  0  0  0  0  0  0
  150.1061  142.0754  155.6815 N   0  0  0  0  0  0  0  0  0  0  0  0
  149.7826  143.0225  155.8144 H   0  0  0  0  0  0  0  0  0  0  0  0
  150.0121  139.4658  153.5658 H   0  0  0  0  0  0  0  0  0  0  0  0
  151.4153  138.5472  155.3657 H   0  0  0  0  0  0  0  0  0  0  0  0
  150.2153  142.6745  158.2869 H   0  0  0  0  0  0  0  0  0  0  0  0
  152.7778  143.5418  156.8789 H   0  0  0  0  0  0  0  0  0  0  0  0
  151.2057  144.2866  156.6943 H   0  0  0  0  0  0  0  0  0  0  0  0
  152.6500  145.5552  158.2895 H   0  0  0  0  0  0  0  0  0  0  0  0
  151.1981  144.9779  159.0824 H   0  0  0  0  0  0  0  0  0  0  0  0
  152.9654  142.3583  160.8321 H   0  0  0  0  0  0  0  0  0  0  0  0
  151.3832  143.0723  160.5889 H   0  0  0  0  0  0  0  0  0  0  0  0
  151.5564  140.9080  159.3577 H   0  0  0  0  0  0  0  0  0  0  0  0
  153.0030  141.4644  158.5426 H   0  0  0  0  0  0  0  0  0  0  0  0
  1  2  2  0  0  0  0
  2  3  1  0  0  0  0
  2 13  1  0  0  0  0
  3 15  1  0  0  0  0
  3  4  2  0  0  0  0
  4 16  1  0  0  0  0
  4  5  1  0  0  0  0
  5  6  2  0  0  0  0
  6  7  1  0  0  0  0
  6 13  1  0  0  0  0
  7 12  1  0  0  0  0
  7  8  1  0  0  0  0
  7 17  1  0  0  0  0
  8  9  1  0  0  0  0
  8 18  1  0  0  0  0
  8 19  1  0  0  0  0
  9 10  1  0  0  0  0
  9 20  1  0  0  0  0
  9 21  1  0  0  0  0
 10 11  1  0  0  0  0
 11 12  1  0  0  0  0
 11 22  1  0  0  0  0
 11 23  1  0  0  0  0
 12 24  1  0  0  0  0
 12 25  1  0  0  0  0
 13 14  1  0  0  0  0
M  END
> <s_m_source_file>
AV-unprocessed.smi

> <i_m_source_file_index>
2609

> <i_lp_mmshare_version>
43012

> <i_f3d_flags>
0

> <s_epik_input>
Tz1jMVtjSF1bY0hdW25IXWMobjEpW0NIXTJbQ0gyXVtDSDJdT1tDSDJdW0NIMl0y

> <s_epik_cmdline>
J2VwaWtfcHl0aG9uJywgJy1waCcsICc3LjAnLCAnLXRuJywgJzgnLCAnLW1hJywgJzIwMCcsICctbWV0YWxfYmluZGluZycsICctaW1hZScsICc8aW5maWxlLm1hZT4nLCAnLW9tYWUnLCAnPG91dGZpbGUubWFlPic=

> <r_lp_tautomer_probability>
0.839158

> <r_epik_Ionization_Penalty>
0.000496986

> <r_epik_Ionization_Penalty_Charging>
0.000470711

> <r_epik_Ionization_Penalty_Neutral>
2.62743e-05

> <r_epik_State_Penalty>
0.0498811

> <r_epik_Charging_Adjusted_Penalty>
0.0503518

> <i_epik_Tot_Q>
0

> <i_epik_Tot_abs_Q>
0

> <r_epik_Metal_State_Penalty>
0.251987

> <b_epik_Metal_Only>
0

> <s_lp_Force_Field>
OPLS_2005

> <r_lp_Energy>
14.7139

> <b_lp_Chiralities_Consistent>
1

> <s_lp_Variant>
AV-unprocessed.smi:2609-1

> <Gold.Version>
5.8.1

> <Gold.Id.Protein>
6NUR|6NUR_protein|mol2

> <Gold.PLP.Fitness>
35.0989

> <Gold.PLP.PLP>
-30.5181

> <Gold.PLP.part.hbond>
-2.0000

> <Gold.PLP.part.metal>
0.0000

> <Gold.PLP.part.buried>
-1.4613

> <Gold.PLP.part.nonpolar>
-26.8775

> <Gold.PLP.part.repulsive>
0.3241

> <Gold.PLP.ligand.clash>
0.0000

> <Gold.PLP.ligand.torsion>
0.0094

> <Gold.PLP.Chemscore.Hbond>
1.5280

> <Gold.PLP.Chemscore.CHOScore>
0.0000

> <Gold.PLP.Chemscore.Metal>
0.0000

> <Gold.Chemscore.Hbonds>
donor molecule, donor type, donor heavy atom, donor atom, acceptor molecule, acceptor atom, score
      L1  H    13    14       P1  8028  1.00
      P1  H  8011  8017       L1     1  0.50

> <Gold.PLP.Chemscore.Internal.Correction>
0.0156

> <Gold.Rescore>
     Score         DG    S(hbond)    S(metal)    S(lipo)     H(rot)  DE(clash)    DE(int)     intcor
     15.90     -16.26       1.63        0.00      67.62       1.00       0.20       0.16       ----

> <Gold.Chemscore.Fitness>
15.8980

> <Gold.Chemscore.DG>
-16.2600

> <Gold.Chemscore.ZeroCoef>
-5.4800

> <Gold.Chemscore.Hbond>
1.6252

> <Gold.Chemscore.Metal>
0.0000

> <Gold.Chemscore.Lipo>
67.6211

> <Gold.Chemscore.Internal_Hbond>
0.0000

> <Gold.Chemscore.DEClash>
0.2033

> <Gold.Chemscore.DEInternal>
0.1587

> <Gold.Chemscore.Rot>
1.0000

> <Gold.Chemscore.Internal.Correction>
   9.000000E+99

> <Gold.Chemscore.Hbonds>
donor molecule, donor type, donor heavy atom, donor atom, acceptor molecule, acceptor atom, score
      L1  H    13    14       P1  8028  0.99
      P1  H  8011  8017       L1     1  0.44

> <Gold.Chemscore.Hbond.Weighted>
-5.4283

> <Gold.Chemscore.Metal.Weighted>
-0.0000

> <Gold.Chemscore.Lipo.Weighted>
-7.9117

> <Gold.Chemscore.Internal_Hbond.Weighted>
0.0000

> <Gold.Chemscore.DEClash.Weighted>
0.2033

> <Gold.Chemscore.DEInternal.Weighted>
0.1587

> <Gold.Chemscore.Rot.Weighted>
2.5600

> <Gold.Chemscore.Internal.Correction.Weighted>
   9.000000E+99

> <Gold.Protein.RotatedTorsions>
[ 6907 6896 6895 6894 ] final  161.15 input  -60.11 | X-H torsion
[ 7974 7965 7964 7962 ] final -117.66 input  175.53 | X-H torsion
[ 8008 7997 7996 7995 ] final -125.78 input   59.86 | X-H torsion
[ 10167 10162 10161 10158 ] final  -46.77 input  -65.29 | X-H torsion
[ 10718 10713 10712 10709 ] final -127.11 input   66.30 | X-H torsion
[ 10763 10752 10751 10750 ] final -160.22 input  -60.55 | X-H torsion
[ 11005 11000 10999 10996 ] final  135.96 input  -57.11 | X-H torsion

> <Gold.Protein.ActiveResidues>
 VAL166  LYS551  ARG553  GLY616  TRP617  ASP618  TYR619  PRO620  LYS621  CYS622 
 ASP623  PHE694  ASN695  SER759  ASP760  ASP761  ALA762  ILE779  LEU786  VAL792 
 PHE793  MET794  SER795  GLU796  ALA797  LYS798  CYS799  TRP800  GLU811  SER814 

> <Gold.Protein.RotatedAtoms>
  151.9600  133.3692  159.4031 H   0  0  0  0  0  0  0  0  0  0  0  0  # atno 6907 bound_to 6896
  150.6966  134.4251  159.5232 H   0  0  0  0  0  0  0  0  0  0  0  0  # atno 6908 bound_to 6896
  152.1938  134.8649  160.0565 H   0  0  0  0  0  0  0  0  0  0  0  0  # atno 6909 bound_to 6896
  145.0827  140.8437  143.4029 H   0  0  0  0  0  0  0  0  0  0  0  0  # atno 7974 bound_to 7965
  155.2189  140.0421  157.2945 H   0  0  0  0  0  0  0  0  0  0  0  0  # atno 8008 bound_to 7997
  154.5962  140.2440  155.7824 H   0  0  0  0  0  0  0  0  0  0  0  0  # atno 8009 bound_to 7997
  156.2292  140.2944  156.0153 H   0  0  0  0  0  0  0  0  0  0  0  0  # atno 8010 bound_to 7997
  140.6803  143.2815  151.3831 H   0  0  0  0  0  0  0  0  0  0  0  0  # atno 10167 bound_to 10162
  156.1827  130.6742  151.0324 H   0  0  0  0  0  0  0  0  0  0  0  0  # atno 10718 bound_to 10713
  154.7409  135.3068  154.8730 H   0  0  0  0  0  0  0  0  0  0  0  0  # atno 10763 bound_to 10752
  153.9545  135.6760  153.4748 H   0  0  0  0  0  0  0  0  0  0  0  0  # atno 10764 bound_to 10752
  153.1008  135.4913  154.8787 H   0  0  0  0  0  0  0  0  0  0  0  0  # atno 10765 bound_to 10752
  140.0014  134.9477  157.0080 H   0  0  0  0  0  0  0  0  0  0  0  0  # atno 11005 bound_to 11000
  145.1159  139.2726  143.5613 LP  0  0  0  0  0  0  0  0  0  0  0  0  # atno 17320 bound_to 7965
  146.3531  140.0768  142.8620 LP  0  0  0  0  0  0  0  0  0  0  0  0  # atno 17321 bound_to 7965
  139.6122  144.1076  152.2310 LP  0  0  0  0  0  0  0  0  0  0  0  0  # atno 17342 bound_to 10162
  140.0493  144.5945  150.7348 LP  0  0  0  0  0  0  0  0  0  0  0  0  # atno 17343 bound_to 10162
  157.6878  131.0819  150.7193 LP  0  0  0  0  0  0  0  0  0  0  0  0  # atno 17370 bound_to 10713
  156.7250  130.4692  149.5513 LP  0  0  0  0  0  0  0  0  0  0  0  0  # atno 17371 bound_to 10713
  140.4721  134.1376  155.7204 LP  0  0  0  0  0  0  0  0  0  0  0  0  # atno 17394 bound_to 11000
  141.1644  133.8730  157.1755 LP  0  0  0  0  0  0  0  0  0  0  0  0  # atno 17395 bound_to 11000

$$$$
