AV-unprocessed.smi:1254|AV-procd|sdf|5275|dock2
  -GOLD-   22720 4393D 1   1.00000     0.00000
 Structure written by MMmdl.
 45 46  0  0  0  0  0  0  0  0  3 V2000
  143.4421  134.9223  162.4687 C   0  0  0  0  0  0  0  0  0  0  0  0
  144.7711  135.4619  162.0641 C   0  0  0  0  0  0  0  0  0  0  0  0
  145.1512  136.4083  161.1553 C   0  0  0  0  0  0  0  0  0  0  0  0
  146.5675  136.4258  161.2776 C   0  0  0  0  0  0  0  0  0  0  0  0
  147.4082  137.2149  160.5909 N   0  5  0  0  0  0  0  0  0  0  0  0
  148.1827  136.6967  159.6110 C   0  0  0  0  0  0  0  0  0  0  0  0
  148.3833  135.4996  159.3919 O   0  0  0  0  0  0  0  0  0  0  0  0
  148.7548  137.6234  158.8296 N   0  0  0  0  0  0  0  0  0  0  0  0
  149.6141  137.3572  157.6812 C   0  0  0  0  0  0  0  0  0  0  0  0
  150.6573  138.4707  157.4819 C   0  0  2  0  0  0  0  0  0  0  0  0
  150.1362  139.8421  157.9509 C   0  0  0  0  0  0  0  0  0  0  0  0
  151.1526  140.8937  157.6994 N   0  3  2  0  0  0  0  0  0  0  0  0
  150.7509  142.2427  158.1748 C   0  0  0  0  0  0  0  0  0  0  0  0
  151.9215  143.2490  158.2235 C   0  0  0  0  0  0  0  0  0  0  0  0
  153.0313  142.7385  159.1544 C   0  0  0  0  0  0  0  0  0  0  0  0
  151.4595  144.6500  158.6582 C   0  0  0  0  0  0  0  0  0  0  0  0
  151.5510  140.8948  156.2717 C   0  0  0  0  0  0  0  0  0  0  0  0
  152.0089  139.4925  155.8382 C   0  0  0  0  0  0  0  0  0  0  0  0
  150.9713  138.5559  156.0954 O   0  0  0  0  0  0  0  0  0  0  0  0
  147.0068  135.5768  162.1917 N   0  0  0  0  0  0  0  0  0  0  0  0
  145.8611  134.9505  162.6969 O   0  0  0  0  0  0  0  0  0  0  0  0
  142.9776  135.5656  163.2160 H   0  0  0  0  0  0  0  0  0  0  0  0
  143.5380  133.9231  162.8942 H   0  0  0  0  0  0  0  0  0  0  0  0
  142.7720  134.8604  161.6110 H   0  0  0  0  0  0  0  0  0  0  0  0
  144.5188  136.9930  160.5045 H   0  0  0  0  0  0  0  0  0  0  0  0
  148.5666  138.5916  159.0456 H   0  0  0  0  0  0  0  0  0  0  0  0
  150.1109  136.3995  157.8375 H   0  0  0  0  0  0  0  0  0  0  0  0
  148.9993  137.2451  156.7865 H   0  0  0  0  0  0  0  0  0  0  0  0
  151.5602  138.2239  158.0437 H   0  0  0  0  0  0  0  0  0  0  0  0
  149.2107  140.0931  157.4300 H   0  0  0  0  0  0  0  0  0  0  0  0
  149.9011  139.7883  159.0130 H   0  0  0  0  0  0  0  0  0  0  0  0
  149.9843  142.6433  157.5093 H   0  0  0  0  0  0  0  0  0  0  0  0
  150.2827  142.1507  159.1561 H   0  0  0  0  0  0  0  0  0  0  0  0
  152.3631  143.3342  157.2311 H   0  0  0  0  0  0  0  0  0  0  0  0
  152.6730  142.6321  160.1788 H   0  0  0  0  0  0  0  0  0  0  0  0
  153.8794  143.4239  159.1687 H   0  0  0  0  0  0  0  0  0  0  0  0
  153.4025  141.7661  158.8291 H   0  0  0  0  0  0  0  0  0  0  0  0
  151.0070  144.6290  159.6502 H   0  0  0  0  0  0  0  0  0  0  0  0
  150.7256  145.0626  157.9655 H   0  0  0  0  0  0  0  0  0  0  0  0
  152.2982  145.3463  158.6914 H   0  0  0  0  0  0  0  0  0  0  0  0
  150.7091  141.2188  155.6577 H   0  0  0  0  0  0  0  0  0  0  0  0
  152.3596  141.6088  156.1112 H   0  0  0  0  0  0  0  0  0  0  0  0
  152.2357  139.4840  154.7720 H   0  0  0  0  0  0  0  0  0  0  0  0
  152.9210  139.1990  156.3603 H   0  0  0  0  0  0  0  0  0  0  0  0
  151.9778  140.6371  158.2227 H   0  0  0  0  0  0  0  0  0  0  0  0
  1  2  1  0  0  0  0
  1 22  1  0  0  0  0
  1 23  1  0  0  0  0
  1 24  1  0  0  0  0
  2 21  1  0  0  0  0
  2  3  2  0  0  0  0
  3  4  1  0  0  0  0
  3 25  1  0  0  0  0
  4  5  1  0  0  0  0
  4 20  2  0  0  0  0
  5  6  1  0  0  0  0
  6  7  2  0  0  0  0
  6  8  1  0  0  0  0
  8  9  1  0  0  0  0
  8 26  1  0  0  0  0
  9 10  1  0  0  0  0
  9 27  1  0  0  0  0
  9 28  1  0  0  0  0
 10 19  1  0  0  0  0
 10 11  1  0  0  0  0
 10 29  1  0  0  0  0
 11 12  1  0  0  0  0
 11 30  1  0  0  0  0
 11 31  1  0  0  0  0
 12 13  1  0  0  0  0
 12 17  1  0  0  0  0
 12 45  1  0  0  0  0
 13 14  1  0  0  0  0
 13 32  1  0  0  0  0
 13 33  1  0  0  0  0
 14 15  1  0  0  0  0
 14 16  1  0  0  0  0
 14 34  1  0  0  0  0
 15 35  1  0  0  0  0
 15 36  1  0  0  0  0
 15 37  1  0  0  0  0
 16 38  1  0  0  0  0
 16 39  1  0  0  0  0
 16 40  1  0  0  0  0
 17 18  1  0  0  0  0
 17 41  1  0  0  0  0
 17 42  1  0  0  0  0
 18 19  1  0  0  0  0
 18 43  1  0  0  0  0
 18 44  1  0  0  0  0
 20 21  1  0  0  0  0
M  CHG  1   5  -1
M  CHG  1  12   1
M  END
> <s_m_source_file>
AV-unprocessed.smi

> <i_m_source_file_index>
1254

> <i_lp_mmshare_version>
43012

> <i_f3d_flags>
0

> <s_epik_input>
W0NIM11jMVtjSF1jKG5vMSlbTkhdQyg9TylbTkhdW0NIMl1bQ0BASF0yW0NIMl1OKFtDSDJdW0NIMl1PMilbQ0gyXVtDSF0oW0NIM10pW0NIM10=

> <s_epik_cmdline>
J2VwaWtfcHl0aG9uJywgJy1waCcsICc3LjAnLCAnLXRuJywgJzgnLCAnLW1hJywgJzIwMCcsICctbWV0YWxfYmluZGluZycsICctaW1hZScsICc8aW5maWxlLm1hZT4nLCAnLW9tYWUnLCAnPG91dGZpbGUubWFlPic=

> <r_epik_Ionization_Penalty>
6.33139

> <r_epik_Ionization_Penalty_Charging>
6.33128

> <r_epik_Ionization_Penalty_Neutral>
0.000104968

> <r_epik_State_Penalty>
6.32522

> <r_epik_Charging_Adjusted_Penalty>
12.6565

> <i_epik_Tot_Q>
0

> <i_epik_Tot_abs_Q>
2

> <r_epik_Metal_State_Penalty>
2.26285

> <b_epik_Metal_Only>
1

> <s_lp_Force_Field>
OPLS_2005

> <r_lp_Energy>
5.65212

> <b_lp_Chiralities_Consistent>
1

> <s_lp_Variant>
AV-unprocessed.smi:1254-7

> <Gold.Version>
5.8.1

> <Gold.Id.Protein>
6NUR|6NUR_protein|mol2

> <Gold.PLP.Fitness>
48.4419

> <Gold.PLP.PLP>
-37.2142

> <Gold.PLP.part.hbond>
-3.7405

> <Gold.PLP.part.metal>
0.0000

> <Gold.PLP.part.buried>
-7.6039

> <Gold.PLP.part.nonpolar>
-26.8105

> <Gold.PLP.part.repulsive>
0.2678

> <Gold.PLP.ligand.clash>
0.0000

> <Gold.PLP.ligand.torsion>
1.3424

> <Gold.PLP.Chemscore.Hbond>
4.5520

> <Gold.PLP.Chemscore.CHOScore>
0.0000

> <Gold.PLP.Chemscore.Metal>
0.0000

> <Gold.Chemscore.Hbonds>
donor molecule, donor type, donor heavy atom, donor atom, acceptor molecule, acceptor atom, score
      P1  H  6931  6943       L1     5  0.38
      P1  H  6934  6947       L1     5  2.00

> <Gold.PLP.Chemscore.Internal.Correction>
0.2565

> <Gold.Rescore>
     Score         DG    S(hbond)    S(metal)    S(lipo)     H(rot)  DE(clash)    DE(int)     intcor
     15.89     -18.22       2.13        0.00      85.08       1.69       0.05       2.28       ----

> <Gold.Chemscore.Fitness>
15.8922

> <Gold.Chemscore.DG>
-18.2223

> <Gold.Chemscore.ZeroCoef>
-5.4800

> <Gold.Chemscore.Hbond>
2.1319

> <Gold.Chemscore.Metal>
0.0000

> <Gold.Chemscore.Lipo>
85.0824

> <Gold.Chemscore.Internal_Hbond>
0.0000

> <Gold.Chemscore.DEClash>
0.0530

> <Gold.Chemscore.DEInternal>
2.2771

> <Gold.Chemscore.Rot>
1.6926

> <Gold.Chemscore.Internal.Correction>
   9.000000E+99

> <Gold.Chemscore.Hbonds>
donor molecule, donor type, donor heavy atom, donor atom, acceptor molecule, acceptor atom, score
      P1  H  6896  6907       L1     7  0.03
      P1  H  6931  6943       L1     5  0.05
      P1  H  6934  6947       L1     5  0.86

> <Gold.Chemscore.Hbond.Weighted>
-7.1207

> <Gold.Chemscore.Metal.Weighted>
-0.0000

> <Gold.Chemscore.Lipo.Weighted>
-9.9546

> <Gold.Chemscore.Internal_Hbond.Weighted>
0.0000

> <Gold.Chemscore.DEClash.Weighted>
0.0530

> <Gold.Chemscore.DEInternal.Weighted>
2.2771

> <Gold.Chemscore.Rot.Weighted>
4.3330

> <Gold.Chemscore.Internal.Correction.Weighted>
   9.000000E+99

> <Gold.Protein.RotatedTorsions>
[ 6907 6896 6895 6894 ] final  -74.66 input  -60.11 | X-H torsion
[ 7974 7965 7964 7962 ] final  -46.82 input  175.53 | X-H torsion
[ 8008 7997 7996 7995 ] final  137.57 input   59.86 | X-H torsion
[ 10167 10162 10161 10158 ] final -161.98 input  -65.29 | X-H torsion
[ 10718 10713 10712 10709 ] final -174.87 input   66.30 | X-H torsion
[ 10763 10752 10751 10750 ] final  140.80 input  -60.55 | X-H torsion
[ 11005 11000 10999 10996 ] final  -79.76 input  -57.11 | X-H torsion

> <Gold.Protein.ActiveResidues>
 VAL166  LYS551  ARG553  GLY616  TRP617  ASP618  TYR619  PRO620  LYS621  CYS622 
 ASP623  PHE694  ASN695  SER759  ASP760  ASP761  ALA762  ILE779  LEU786  VAL792 
 PHE793  MET794  SER795  GLU796  ALA797  LYS798  CYS799  TRP800  GLU811  SER814 

> <Gold.Protein.RotatedAtoms>
  150.7085  134.4837  159.5482 H   0  0  0  0  0  0  0  0  0  0  0  0  # atno 6907 bound_to 6896
  152.2468  134.8170  160.0461 H   0  0  0  0  0  0  0  0  0  0  0  0  # atno 6908 bound_to 6896
  151.8931  133.3485  159.3842 H   0  0  0  0  0  0  0  0  0  0  0  0  # atno 6909 bound_to 6896
  145.9679  140.7413  142.9425 H   0  0  0  0  0  0  0  0  0  0  0  0  # atno 7974 bound_to 7965
  156.3001  140.2416  156.3932 H   0  0  0  0  0  0  0  0  0  0  0  0  # atno 8008 bound_to 7997
  154.8595  140.0420  157.1676 H   0  0  0  0  0  0  0  0  0  0  0  0  # atno 8009 bound_to 7997
  154.8912  140.2963  155.5373 H   0  0  0  0  0  0  0  0  0  0  0  0  # atno 8010 bound_to 7997
  139.6425  144.0233  152.2103 H   0  0  0  0  0  0  0  0  0  0  0  0  # atno 10167 bound_to 10162
  156.7914  130.9519  151.3120 H   0  0  0  0  0  0  0  0  0  0  0  0  # atno 10718 bound_to 10713
  153.9286  135.2992  155.3446 H   0  0  0  0  0  0  0  0  0  0  0  0  # atno 10763 bound_to 10752
  154.7538  135.4967  153.9341 H   0  0  0  0  0  0  0  0  0  0  0  0  # atno 10764 bound_to 10752
  153.1103  135.6757  153.9616 H   0  0  0  0  0  0  0  0  0  0  0  0  # atno 10765 bound_to 10752
  141.1667  133.7120  156.8171 H   0  0  0  0  0  0  0  0  0  0  0  0  # atno 11005 bound_to 11000
  144.6830  140.2700  143.7307 LP  0  0  0  0  0  0  0  0  0  0  0  0  # atno 17320 bound_to 7965
  145.7947  139.1941  143.2082 LP  0  0  0  0  0  0  0  0  0  0  0  0  # atno 17321 bound_to 7965
  139.9926  144.6351  150.7801 LP  0  0  0  0  0  0  0  0  0  0  0  0  # atno 17342 bound_to 10162
  140.7498  143.2945  151.3242 LP  0  0  0  0  0  0  0  0  0  0  0  0  # atno 17343 bound_to 10162
  157.6598  130.8956  149.9806 LP  0  0  0  0  0  0  0  0  0  0  0  0  # atno 17370 bound_to 10713
  156.1156  130.3648  149.9973 LP  0  0  0  0  0  0  0  0  0  0  0  0  # atno 17371 bound_to 10713
  140.2146  134.8802  157.3311 LP  0  0  0  0  0  0  0  0  0  0  0  0  # atno 17394 bound_to 11000
  140.2051  134.4207  155.7642 LP  0  0  0  0  0  0  0  0  0  0  0  0  # atno 17395 bound_to 11000

$$$$
