AV-unprocessed.smi:1432|AV-procd|sdf|5831|dock9
  -GOLD-   22720 5493D 1   1.00000     0.00000
 Structure written by MMmdl.
 47 48  0  0  0  0  0  0  0  0  2 V2000
  148.1418  132.7741  153.2774 C   0  0  0  0  0  0  0  0  0  0  0  0
  146.8554  133.5938  153.0515 C   0  0  2  0  0  0  0  0  0  0  0  0
  146.2982  133.2779  151.6457 C   0  0  0  0  0  0  0  0  0  0  0  0
  145.0275  134.0760  151.3381 C   0  0  0  0  0  0  0  0  0  0  0  0
  145.3105  135.5695  151.5087 C   0  0  0  0  0  0  0  0  0  0  0  0
  145.8454  135.8561  152.9187 C   0  0  0  0  0  0  0  0  0  0  0  0
  147.0706  135.0664  153.2209 N   0  3  1  0  0  0  0  0  0  0  0  0
  147.6524  135.4528  154.5357 C   0  0  0  0  0  0  0  0  0  0  0  0
  146.5825  135.4695  155.6371 C   0  0  0  0  0  0  0  0  0  0  0  0
  147.1485  135.9481  156.8898 N   0  0  0  0  0  0  0  0  0  0  0  0
  146.4906  135.9864  158.0598 C   0  0  0  0  0  0  0  0  0  0  0  0
  145.3301  135.5967  158.1793 O   0  0  0  0  0  0  0  0  0  0  0  0
  147.2223  136.5473  159.2920 C   0  0  0  0  0  0  0  0  0  0  0  0
  147.3446  135.6099  160.4234 N   0  0  0  0  0  0  0  0  0  0  0  0
  147.4772  134.2426  160.1114 C   0  0  0  0  0  0  0  0  0  0  0  0
  147.5891  133.2839  161.0505 C   0  0  0  0  0  0  0  0  0  0  0  0
  147.7953  131.8240  160.6771 C   0  0  0  0  0  0  0  0  0  0  0  0
  148.0206  131.0770  161.7580 F   0  0  0  0  0  0  0  0  0  0  0  0
  146.7093  131.3545  160.0648 F   0  0  0  0  0  0  0  0  0  0  0  0
  148.8314  131.6851  159.8491 F   0  0  0  0  0  0  0  0  0  0  0  0
  147.5938  133.7296  162.4302 C   0  0  0  0  0  0  0  0  0  0  0  0
  147.4826  135.0348  162.7456 C   0  0  0  0  0  0  0  0  0  0  0  0
  147.3508  136.0646  161.7126 C   0  0  0  0  0  0  0  0  0  0  0  0
  147.2616  137.2610  161.9877 O   0  0  0  0  0  0  0  0  0  0  0  0
  147.9606  131.7136  153.1007 H   0  0  0  0  0  0  0  0  0  0  0  0
  148.5179  132.8587  154.2964 H   0  0  0  0  0  0  0  0  0  0  0  0
  148.9359  133.0867  152.5985 H   0  0  0  0  0  0  0  0  0  0  0  0
  146.1165  133.2779  153.7902 H   0  0  0  0  0  0  0  0  0  0  0  0
  147.0543  133.4999  150.8909 H   0  0  0  0  0  0  0  0  0  0  0  0
  146.0840  132.2119  151.5595 H   0  0  0  0  0  0  0  0  0  0  0  0
  144.6879  133.8688  150.3229 H   0  0  0  0  0  0  0  0  0  0  0  0
  144.2231  133.7691  152.0079 H   0  0  0  0  0  0  0  0  0  0  0  0
  146.0365  135.8977  150.7635 H   0  0  0  0  0  0  0  0  0  0  0  0
  144.4011  136.1440  151.3305 H   0  0  0  0  0  0  0  0  0  0  0  0
  146.0694  136.9209  152.9995 H   0  0  0  0  0  0  0  0  0  0  0  0
  145.0772  135.6353  153.6617 H   0  0  0  0  0  0  0  0  0  0  0  0
  148.4277  134.7442  154.8322 H   0  0  0  0  0  0  0  0  0  0  0  0
  148.1614  136.4152  154.4678 H   0  0  0  0  0  0  0  0  0  0  0  0
  145.7473  136.1140  155.3633 H   0  0  0  0  0  0  0  0  0  0  0  0
  146.1799  134.4642  155.7740 H   0  0  0  0  0  0  0  0  0  0  0  0
  148.1000  136.2855  156.8682 H   0  0  0  0  0  0  0  0  0  0  0  0
  148.2094  136.8945  158.9808 H   0  0  0  0  0  0  0  0  0  0  0  0
  146.6985  137.4497  159.6106 H   0  0  0  0  0  0  0  0  0  0  0  0
  147.4935  134.0227  159.0535 H   0  0  0  0  0  0  0  0  0  0  0  0
  147.6832  133.0052  163.2265 H   0  0  0  0  0  0  0  0  0  0  0  0
  147.4876  135.3305  163.7846 H   0  0  0  0  0  0  0  0  0  0  0  0
  147.7494  135.3367  152.5235 H   0  0  0  0  0  0  0  0  0  0  0  0
  1  2  1  0  0  0  0
  1 25  1  0  0  0  0
  1 26  1  0  0  0  0
  1 27  1  0  0  0  0
  2  7  1  0  0  0  0
  2  3  1  0  0  0  0
  2 28  1  0  0  0  0
  3  4  1  0  0  0  0
  3 29  1  0  0  0  0
  3 30  1  0  0  0  0
  4  5  1  0  0  0  0
  4 31  1  0  0  0  0
  4 32  1  0  0  0  0
  5  6  1  0  0  0  0
  5 33  1  0  0  0  0
  5 34  1  0  0  0  0
  6  7  1  0  0  0  0
  6 35  1  0  0  0  0
  6 36  1  0  0  0  0
  7  8  1  0  0  0  0
  7 47  1  0  0  0  0
  8  9  1  0  0  0  0
  8 37  1  0  0  0  0
  8 38  1  0  0  0  0
  9 10  1  0  0  0  0
  9 39  1  0  0  0  0
  9 40  1  0  0  0  0
 10 11  1  0  0  0  0
 10 41  1  0  0  0  0
 11 12  2  0  0  0  0
 11 13  1  0  0  0  0
 13 14  1  0  0  0  0
 13 42  1  0  0  0  0
 13 43  1  0  0  0  0
 14 23  1  0  0  0  0
 14 15  1  0  0  0  0
 15 16  2  0  0  0  0
 15 44  1  0  0  0  0
 16 17  1  0  0  0  0
 16 21  1  0  0  0  0
 17 18  1  0  0  0  0
 17 19  1  0  0  0  0
 17 20  1  0  0  0  0
 21 22  2  0  0  0  0
 21 45  1  0  0  0  0
 22 23  1  0  0  0  0
 22 46  1  0  0  0  0
 23 24  2  0  0  0  0
M  CHG  1   7   1
M  END
> <s_m_source_file>
AV-unprocessed.smi

> <i_m_source_file_index>
1432

> <i_lp_mmshare_version>
43012

> <i_f3d_flags>
0

> <s_epik_input>
W0NIM11bQ0BASF0xW0NIMl1bQ0gyXVtDSDJdW0NIMl1OMVtDSDJdW0NIMl1bTkhdQyg9TylbQ0gyXW4yW2NIXWMoQyhGKShGKUYpW2NIXVtjSF1jMj1P

> <s_epik_cmdline>
J2VwaWtfcHl0aG9uJywgJy1waCcsICc3LjAnLCAnLXRuJywgJzgnLCAnLW1hJywgJzIwMCcsICctbWV0YWxfYmluZGluZycsICctaW1hZScsICc8aW5maWxlLm1hZT4nLCAnLW9tYWUnLCAnPG91dGZpbGUubWFlPic=

> <r_lp_tautomer_probability>
1

> <r_epik_Ionization_Penalty>
0.00237222

> <r_epik_Ionization_Penalty_Charging>
0.00237213

> <r_epik_Ionization_Penalty_Neutral>
8.2065e-08

> <r_epik_State_Penalty>
0.00163922

> <r_epik_Charging_Adjusted_Penalty>
0.00401135

> <i_epik_Tot_Q>
1

> <i_epik_Tot_abs_Q>
1

> <r_epik_Metal_State_Penalty>
-0

> <b_epik_Metal_Only>
0

> <s_lp_Force_Field>
OPLS_2005

> <r_lp_Energy>
33.1317

> <b_lp_Chiralities_Consistent>
1

> <s_lp_Variant>
AV-unprocessed.smi:1432-1

> <Gold.Version>
5.8.1

> <Gold.Id.Protein>
6NUR|6NUR_protein|mol2

> <Gold.PLP.Fitness>
45.2844

> <Gold.PLP.PLP>
-35.7407

> <Gold.PLP.part.hbond>
-2.9505

> <Gold.PLP.part.metal>
0.0000

> <Gold.PLP.part.buried>
-3.1489

> <Gold.PLP.part.nonpolar>
-30.0536

> <Gold.PLP.part.repulsive>
0.0000

> <Gold.PLP.ligand.clash>
0.0000

> <Gold.PLP.ligand.torsion>
0.5847

> <Gold.PLP.Chemscore.Hbond>
3.5360

> <Gold.PLP.Chemscore.CHOScore>
0.0000

> <Gold.PLP.Chemscore.Metal>
0.0000

> <Gold.Chemscore.Hbonds>
donor molecule, donor type, donor heavy atom, donor atom, acceptor molecule, acceptor atom, score
      L1  H     7    47       P1  7948  2.00
      P1  H  6931  6943       L1    24  0.83
      P1  H  6934  6947       L1    24  0.71

> <Gold.PLP.Chemscore.Internal.Correction>
0.1051

> <Gold.Rescore>
     Score         DG    S(hbond)    S(metal)    S(lipo)     H(rot)  DE(clash)    DE(int)     intcor
     15.76     -16.60       2.58        0.00      66.70       2.08       0.22       0.62       ----

> <Gold.Chemscore.Fitness>
15.7604

> <Gold.Chemscore.DG>
-16.6003

> <Gold.Chemscore.ZeroCoef>
-5.4800

> <Gold.Chemscore.Hbond>
2.5841

> <Gold.Chemscore.Metal>
0.0000

> <Gold.Chemscore.Lipo>
66.7050

> <Gold.Chemscore.Internal_Hbond>
0.0000

> <Gold.Chemscore.DEClash>
0.2213

> <Gold.Chemscore.DEInternal>
0.6186

> <Gold.Chemscore.Rot>
2.0762

> <Gold.Chemscore.Internal.Correction>
   9.000000E+99

> <Gold.Chemscore.Hbonds>
donor molecule, donor type, donor heavy atom, donor atom, acceptor molecule, acceptor atom, score
      L1  H     7    47       P1  7948  0.98
      P1  H  6931  6943       L1    24  0.68
      P1  H  6934  6947       L1    24  0.67

> <Gold.Chemscore.Hbond.Weighted>
-8.6309

> <Gold.Chemscore.Metal.Weighted>
-0.0000

> <Gold.Chemscore.Lipo.Weighted>
-7.8045

> <Gold.Chemscore.Internal_Hbond.Weighted>
0.0000

> <Gold.Chemscore.DEClash.Weighted>
0.2213

> <Gold.Chemscore.DEInternal.Weighted>
0.6186

> <Gold.Chemscore.Rot.Weighted>
5.3150

> <Gold.Chemscore.Internal.Correction.Weighted>
   9.000000E+99

> <Gold.Protein.RotatedTorsions>
[ 6907 6896 6895 6894 ] final  -83.27 input  -60.11 | X-H torsion
[ 7974 7965 7964 7962 ] final -121.16 input  175.53 | X-H torsion
[ 8008 7997 7996 7995 ] final  -25.64 input   59.86 | X-H torsion
[ 10167 10162 10161 10158 ] final  -54.33 input  -65.29 | X-H torsion
[ 10718 10713 10712 10709 ] final  108.42 input   66.30 | X-H torsion
[ 10763 10752 10751 10750 ] final -152.80 input  -60.55 | X-H torsion
[ 11005 11000 10999 10996 ] final  139.85 input  -57.11 | X-H torsion

> <Gold.Protein.ActiveResidues>
 VAL166  LYS551  ARG553  GLY616  TRP617  ASP618  TYR619  PRO620  LYS621  CYS622 
 ASP623  PHE694  ASN695  SER759  ASP760  ASP761  ALA762  ILE779  LEU786  VAL792 
 PHE793  MET794  SER795  GLU796  ALA797  LYS798  CYS799  TRP800  GLU811  SER814 

> <Gold.Protein.RotatedAtoms>
  150.6887  134.3537  159.4920 H   0  0  0  0  0  0  0  0  0  0  0  0  # atno 6907 bound_to 6896
  152.1375  134.9085  160.0565 H   0  0  0  0  0  0  0  0  0  0  0  0  # atno 6908 bound_to 6896
  152.0231  133.3872  159.4303 H   0  0  0  0  0  0  0  0  0  0  0  0  # atno 6909 bound_to 6896
  145.0434  140.8162  143.4252 H   0  0  0  0  0  0  0  0  0  0  0  0  # atno 7974 bound_to 7965
  154.4466  140.1921  156.0650 H   0  0  0  0  0  0  0  0  0  0  0  0  # atno 8008 bound_to 7997
  156.0554  140.3303  155.7372 H   0  0  0  0  0  0  0  0  0  0  0  0  # atno 8009 bound_to 7997
  155.5493  140.0593  157.2844 H   0  0  0  0  0  0  0  0  0  0  0  0  # atno 8010 bound_to 7997
  140.6436  143.2522  151.4921 H   0  0  0  0  0  0  0  0  0  0  0  0  # atno 10167 bound_to 10162
  157.6587  131.0893  150.6303 H   0  0  0  0  0  0  0  0  0  0  0  0  # atno 10718 bound_to 10713
  154.7970  135.3227  154.7643 H   0  0  0  0  0  0  0  0  0  0  0  0  # atno 10763 bound_to 10752
  153.8319  135.6878  153.4818 H   0  0  0  0  0  0  0  0  0  0  0  0  # atno 10764 bound_to 10752
  153.1666  135.4639  154.9788 H   0  0  0  0  0  0  0  0  0  0  0  0  # atno 10765 bound_to 10752
  140.0284  134.9363  157.0615 H   0  0  0  0  0  0  0  0  0  0  0  0  # atno 11005 bound_to 11000
  145.1618  139.2454  143.5387 LP  0  0  0  0  0  0  0  0  0  0  0  0  # atno 17320 bound_to 7965
  146.3511  140.1347  142.8596 LP  0  0  0  0  0  0  0  0  0  0  0  0  # atno 17321 bound_to 7965
  139.5646  144.2073  152.1745 LP  0  0  0  0  0  0  0  0  0  0  0  0  # atno 17342 bound_to 10162
  140.1351  144.5253  150.6778 LP  0  0  0  0  0  0  0  0  0  0  0  0  # atno 17343 bound_to 10162
  156.6607  130.4511  149.5688 LP  0  0  0  0  0  0  0  0  0  0  0  0  # atno 17370 bound_to 10713
  156.2069  130.6654  151.1228 LP  0  0  0  0  0  0  0  0  0  0  0  0  # atno 17371 bound_to 10713
  140.4266  134.1824  155.7166 LP  0  0  0  0  0  0  0  0  0  0  0  0  # atno 17394 bound_to 11000
  141.1817  133.8400  157.1235 LP  0  0  0  0  0  0  0  0  0  0  0  0  # atno 17395 bound_to 11000

$$$$
