AV-unprocessed.smi:1493|AV-procd|sdf|6048|dock3
  -GOLD-   22720 6163D 1   1.00000     0.00000
 Structure written by MMmdl.
 33 33  0  0  0  0  0  0  0  0  2 V2000
  150.1404  139.2547  154.7970 C   0  0  0  0  0  0  0  0  0  0  0  0
  151.3375  138.3761  154.4178 C   0  0  0  0  0  0  0  0  0  0  0  0
  151.9727  137.6885  155.6388 C   0  0  0  0  0  0  0  0  0  0  0  0
  151.1181  136.5498  156.2273 C   0  0  2  0  0  0  0  0  0  0  0  0
  150.3732  135.7797  155.1251 C   0  0  0  0  0  0  0  0  0  0  0  0
  150.1639  137.0815  157.1977 N   0  0  0  0  0  0  0  0  0  0  0  0
  149.5007  136.3598  158.1148 C   0  0  0  0  0  0  0  0  0  0  0  0
  149.6422  135.1429  158.2459 O   0  0  0  0  0  0  0  0  0  0  0  0
  148.5464  137.1491  159.0247 C   0  0  0  0  0  0  0  0  0  0  0  0
  147.9627  136.3494  160.1119 N   0  0  0  0  0  0  0  0  0  0  0  0
  148.0817  136.9674  161.4299 N   0  5  0  0  0  0  0  0  0  0  0  0
  147.5964  136.3097  162.5162 C   0  0  0  0  0  0  0  0  0  0  0  0
  147.6764  136.7582  163.6575 O   0  0  0  0  0  0  0  0  0  0  0  0
  146.9520  135.0239  162.3062 C   0  0  0  0  0  0  0  0  0  0  0  0
  146.8314  134.4901  161.0747 C   0  0  0  0  0  0  0  0  0  0  0  0
  147.3395  135.1580  159.8827 C   0  0  0  0  0  0  0  0  0  0  0  0
  147.2192  134.6831  158.7530 O   0  0  0  0  0  0  0  0  0  0  0  0
  149.7111  139.7273  153.9134 H   0  0  0  0  0  0  0  0  0  0  0  0
  150.4346  140.0455  155.4875 H   0  0  0  0  0  0  0  0  0  0  0  0
  149.3562  138.6665  155.2741 H   0  0  0  0  0  0  0  0  0  0  0  0
  151.0150  137.6211  153.7002 H   0  0  0  0  0  0  0  0  0  0  0  0
  152.0790  138.9901  153.9056 H   0  0  0  0  0  0  0  0  0  0  0  0
  152.9578  137.3057  155.3683 H   0  0  0  0  0  0  0  0  0  0  0  0
  152.1425  138.4372  156.4137 H   0  0  0  0  0  0  0  0  0  0  0  0
  151.7910  135.8551  156.7336 H   0  0  0  0  0  0  0  0  0  0  0  0
  151.0710  135.3611  154.3996 H   0  0  0  0  0  0  0  0  0  0  0  0
  149.6814  136.4283  154.5863 H   0  0  0  0  0  0  0  0  0  0  0  0
  149.7978  134.9515  155.5404 H   0  0  0  0  0  0  0  0  0  0  0  0
  149.9902  138.0756  157.1667 H   0  0  0  0  0  0  0  0  0  0  0  0
  149.0965  138.0013  159.4275 H   0  0  0  0  0  0  0  0  0  0  0  0
  147.7426  137.5772  158.4229 H   0  0  0  0  0  0  0  0  0  0  0  0
  146.5592  134.4856  163.1561 H   0  0  0  0  0  0  0  0  0  0  0  0
  146.3435  133.5332  160.9657 H   0  0  0  0  0  0  0  0  0  0  0  0
  1  2  1  0  0  0  0
  1 18  1  0  0  0  0
  1 19  1  0  0  0  0
  1 20  1  0  0  0  0
  2  3  1  0  0  0  0
  2 21  1  0  0  0  0
  2 22  1  0  0  0  0
  3  4  1  0  0  0  0
  3 23  1  0  0  0  0
  3 24  1  0  0  0  0
  4  5  1  0  0  0  0
  4  6  1  0  0  0  0
  4 25  1  0  0  0  0
  5 26  1  0  0  0  0
  5 27  1  0  0  0  0
  5 28  1  0  0  0  0
  6  7  1  0  0  0  0
  6 29  1  0  0  0  0
  7  8  2  0  0  0  0
  7  9  1  0  0  0  0
  9 30  1  0  0  0  0
  9 31  1  0  0  0  0
  9 10  1  0  0  0  0
 10 11  1  0  0  0  0
 10 16  1  0  0  0  0
 11 12  1  0  0  0  0
 12 13  2  0  0  0  0
 12 14  1  0  0  0  0
 14 32  1  0  0  0  0
 14 15  2  0  0  0  0
 15 33  1  0  0  0  0
 15 16  1  0  0  0  0
 16 17  2  0  0  0  0
M  CHG  1  11  -1
M  END
> <s_m_source_file>
AV-unprocessed.smi

> <i_m_source_file_index>
1493

> <i_lp_mmshare_version>
43012

> <i_f3d_flags>
0

> <s_epik_input>
W0NIM11bQ0gyXVtDSDJdW0NASF0oW0NIM10pW05IXUMoPU8pW0NIMl1uMVtuSF1jKD1PKVtjSF1bY0hdYzE9Tw==

> <s_epik_cmdline>
J2VwaWtfcHl0aG9uJywgJy1waCcsICc3LjAnLCAnLXRuJywgJzgnLCAnLW1hJywgJzIwMCcsICctbWV0YWxfYmluZGluZycsICctaW1hZScsICc8aW5maWxlLm1hZT4nLCAnLW9tYWUnLCAnPG91dGZpbGUubWFlPic=

> <r_lp_tautomer_probability>
1

> <r_epik_Ionization_Penalty>
0.0986298

> <r_epik_Ionization_Penalty_Charging>
0.0986298

> <r_epik_Ionization_Penalty_Neutral>
1.93017e-08

> <r_epik_State_Penalty>
0.0347731

> <r_epik_Charging_Adjusted_Penalty>
0.133403

> <i_epik_Tot_Q>
-1

> <i_epik_Tot_abs_Q>
1

> <r_epik_Metal_State_Penalty>
0.0347731

> <b_epik_Metal_Only>
0

> <s_lp_Force_Field>
OPLS_2005

> <r_lp_Energy>
18.8288

> <b_lp_Chiralities_Consistent>
1

> <s_lp_Variant>
AV-unprocessed.smi:1493-1

> <Gold.Version>
5.8.1

> <Gold.Id.Protein>
6NUR|6NUR_protein|mol2

> <Gold.PLP.Fitness>
40.8536

> <Gold.PLP.PLP>
-29.0852

> <Gold.PLP.part.hbond>
-3.7846

> <Gold.PLP.part.metal>
0.0000

> <Gold.PLP.part.buried>
-2.5317

> <Gold.PLP.part.nonpolar>
-22.9820

> <Gold.PLP.part.repulsive>
0.0740

> <Gold.PLP.ligand.clash>
0.0000

> <Gold.PLP.ligand.torsion>
0.6393

> <Gold.PLP.Chemscore.Hbond>
4.3322

> <Gold.PLP.Chemscore.CHOScore>
0.0000

> <Gold.PLP.Chemscore.Metal>
0.0000

> <Gold.Chemscore.Hbonds>
donor molecule, donor type, donor heavy atom, donor atom, acceptor molecule, acceptor atom, score
      P1  H  6896  6907       L1     8  1.00
      P1  H  6931  6943       L1    11  2.00
      P1  H  6934  6947       L1    11  0.46

> <Gold.PLP.Chemscore.Internal.Correction>
0.0503

> <Gold.Rescore>
     Score         DG    S(hbond)    S(metal)    S(lipo)     H(rot)  DE(clash)    DE(int)     intcor
      9.99     -10.85       1.61        0.00      46.83       2.14       0.04       0.82       ----

> <Gold.Chemscore.Fitness>
9.9863

> <Gold.Chemscore.DG>
-10.8485

> <Gold.Chemscore.ZeroCoef>
-5.4800

> <Gold.Chemscore.Hbond>
1.6051

> <Gold.Chemscore.Metal>
0.0000

> <Gold.Chemscore.Lipo>
46.8262

> <Gold.Chemscore.Internal_Hbond>
0.0000

> <Gold.Chemscore.DEClash>
0.0392

> <Gold.Chemscore.DEInternal>
0.8230

> <Gold.Chemscore.Rot>
2.1372

> <Gold.Chemscore.Internal.Correction>
   9.000000E+99

> <Gold.Chemscore.Hbonds>
donor molecule, donor type, donor heavy atom, donor atom, acceptor molecule, acceptor atom, score
      P1  H  6896  6907       L1     8  0.99
      P1  H  6931  6943       L1    11  0.74
      P1  H  6934  6947       L1    11  0.05

> <Gold.Chemscore.Hbond.Weighted>
-5.3612

> <Gold.Chemscore.Metal.Weighted>
-0.0000

> <Gold.Chemscore.Lipo.Weighted>
-5.4787

> <Gold.Chemscore.Internal_Hbond.Weighted>
0.0000

> <Gold.Chemscore.DEClash.Weighted>
0.0392

> <Gold.Chemscore.DEInternal.Weighted>
0.8230

> <Gold.Chemscore.Rot.Weighted>
5.4713

> <Gold.Chemscore.Internal.Correction.Weighted>
   9.000000E+99

> <Gold.Protein.RotatedTorsions>
[ 6907 6896 6895 6894 ] final  -84.88 input  -60.11 | X-H torsion
[ 7974 7965 7964 7962 ] final   44.27 input  175.53 | X-H torsion
[ 8008 7997 7996 7995 ] final  -31.69 input   59.86 | X-H torsion
[ 10167 10162 10161 10158 ] final -142.40 input  -65.29 | X-H torsion
[ 10718 10713 10712 10709 ] final   90.55 input   66.30 | X-H torsion
[ 10763 10752 10751 10750 ] final   22.68 input  -60.55 | X-H torsion
[ 11005 11000 10999 10996 ] final   54.91 input  -57.11 | X-H torsion

> <Gold.Protein.ActiveResidues>
 VAL166  LYS551  ARG553  GLY616  TRP617  ASP618  TYR619  PRO620  LYS621  CYS622 
 ASP623  PHE694  ASN695  SER759  ASP760  ASP761  ALA762  ILE779  LEU786  VAL792 
 PHE793  MET794  SER795  GLU796  ALA797  LYS798  CYS799  TRP800  GLU811  SER814 

> <Gold.Protein.RotatedAtoms>
  150.6873  134.3290  159.4818 H   0  0  0  0  0  0  0  0  0  0  0  0  # atno 6907 bound_to 6896
  152.1157  134.9239  160.0574 H   0  0  0  0  0  0  0  0  0  0  0  0  # atno 6908 bound_to 6896
  152.0465  133.3965  159.4396 H   0  0  0  0  0  0  0  0  0  0  0  0  # atno 6909 bound_to 6896
  146.0583  139.5093  142.9674 H   0  0  0  0  0  0  0  0  0  0  0  0  # atno 7974 bound_to 7965
  154.4205  140.1757  156.1607 H   0  0  0  0  0  0  0  0  0  0  0  0  # atno 8008 bound_to 7997
  155.9840  140.3375  155.6666 H   0  0  0  0  0  0  0  0  0  0  0  0  # atno 8009 bound_to 7997
  155.6461  140.0685  157.2593 H   0  0  0  0  0  0  0  0  0  0  0  0  # atno 8010 bound_to 7997
  139.8092  143.7726  152.2662 H   0  0  0  0  0  0  0  0  0  0  0  0  # atno 10167 bound_to 10162
  157.6959  131.0375  150.3594 H   0  0  0  0  0  0  0  0  0  0  0  0  # atno 10718 bound_to 10713
  153.0896  135.6643  153.9880 H   0  0  0  0  0  0  0  0  0  0  0  0  # atno 10763 bound_to 10752
  153.9480  135.2987  155.3441 H   0  0  0  0  0  0  0  0  0  0  0  0  # atno 10764 bound_to 10752
  154.7309  135.5123  153.9035 H   0  0  0  0  0  0  0  0  0  0  0  0  # atno 10765 bound_to 10752
  140.0649  134.5551  155.9111 H   0  0  0  0  0  0  0  0  0  0  0  0  # atno 11005 bound_to 11000
  145.6605  141.0241  143.1711 LP  0  0  0  0  0  0  0  0  0  0  0  0  # atno 17320 bound_to 7965
  144.7160  139.8195  143.7398 LP  0  0  0  0  0  0  0  0  0  0  0  0  # atno 17321 bound_to 7965
  139.7870  144.7424  151.0009 LP  0  0  0  0  0  0  0  0  0  0  0  0  # atno 17342 bound_to 10162
  140.7818  143.4482  151.0451 LP  0  0  0  0  0  0  0  0  0  0  0  0  # atno 17343 bound_to 10162
  156.4033  130.3920  149.6944 LP  0  0  0  0  0  0  0  0  0  0  0  0  # atno 17370 bound_to 10713
  156.4254  130.7789  151.2807 LP  0  0  0  0  0  0  0  0  0  0  0  0  # atno 17371 bound_to 10713
  141.1988  133.6603  156.5813 LP  0  0  0  0  0  0  0  0  0  0  0  0  # atno 17394 bound_to 11000
  140.3714  134.7602  157.4601 LP  0  0  0  0  0  0  0  0  0  0  0  0  # atno 17395 bound_to 11000

$$$$
