AV-unprocessed.smi:2030|AV-procd|sdf|8227|dock3
  -GOLD-   2272010493D 1   1.00000     0.00000
 Structure written by MMmdl.
 35 36  0  0  0  0  0  0  0  0  3 V2000
  153.9494  140.3548  160.1082 C   0  0  0  0  0  0  0  0  0  0  0  0
  152.9007  140.1663  159.1065 N   0  0  0  0  0  0  0  0  0  0  0  0
  153.3034  139.4148  158.0222 N   0  0  0  0  0  0  0  0  0  0  0  0
  152.4658  138.9457  157.1501 C   0  0  0  0  0  0  0  0  0  0  0  0
  152.9696  138.1090  156.0203 C   0  0  0  0  0  0  0  0  0  0  0  0
  154.0706  138.4433  155.5661 O   0  0  0  0  0  0  0  0  0  0  0  0
  152.1950  137.0738  155.5778 N   0  5  0  0  0  0  0  0  0  0  0  0
  150.9499  137.2137  154.8229 C   0  0  0  0  0  0  0  0  0  0  0  0
  150.9441  138.5592  154.0650 C   0  0  0  0  0  0  0  0  0  0  0  0
  149.5823  139.2439  153.9979 C   0  0  0  0  0  0  0  0  0  0  0  0
  149.3400  140.4905  154.6192 C   0  0  0  0  0  0  0  0  0  0  0  0
  148.0634  141.0797  154.5154 C   0  0  0  0  0  0  0  0  0  0  0  0
  147.0500  140.4095  153.7997 C   0  0  0  0  0  0  0  0  0  0  0  0
  147.3403  139.1649  153.2047 C   0  0  0  0  0  0  0  0  0  0  0  0
  148.5764  138.6336  153.3252 N   0  3  0  0  0  0  0  0  0  0  0  0
  150.9785  139.2089  157.2998 C   0  0  0  0  0  0  0  0  0  0  0  0
  150.6953  140.5068  158.0800 C   0  0  0  0  0  0  0  0  0  0  0  0
  151.6617  140.7020  159.2513 C   0  0  0  0  0  0  0  0  0  0  0  0
  151.2945  141.3383  160.2391 O   0  0  0  0  0  0  0  0  0  0  0  0
  153.6662  141.0225  160.9227 H   0  0  0  0  0  0  0  0  0  0  0  0
  154.8425  140.7739  159.6429 H   0  0  0  0  0  0  0  0  0  0  0  0
  154.2207  139.3946  160.5482 H   0  0  0  0  0  0  0  0  0  0  0  0
  150.8132  136.4063  154.1022 H   0  0  0  0  0  0  0  0  0  0  0  0
  150.0813  137.1772  155.4807 H   0  0  0  0  0  0  0  0  0  0  0  0
  151.6473  139.2415  154.5440 H   0  0  0  0  0  0  0  0  0  0  0  0
  151.3177  138.4128  153.0505 H   0  0  0  0  0  0  0  0  0  0  0  0
  150.1306  140.9954  155.1554 H   0  0  0  0  0  0  0  0  0  0  0  0
  147.8657  142.0357  154.9775 H   0  0  0  0  0  0  0  0  0  0  0  0
  146.0660  140.8449  153.7064 H   0  0  0  0  0  0  0  0  0  0  0  0
  146.6283  138.5839  152.6372 H   0  0  0  0  0  0  0  0  0  0  0  0
  150.4994  139.2899  156.3235 H   0  0  0  0  0  0  0  0  0  0  0  0
  150.5123  138.3614  157.8034 H   0  0  0  0  0  0  0  0  0  0  0  0
  150.8091  141.3645  157.4163 H   0  0  0  0  0  0  0  0  0  0  0  0
  149.6644  140.5185  158.4356 H   0  0  0  0  0  0  0  0  0  0  0  0
  148.7669  137.7356  152.8804 H   0  0  0  0  0  0  0  0  0  0  0  0
  1  2  1  0  0  0  0
  1 20  1  0  0  0  0
  1 21  1  0  0  0  0
  1 22  1  0  0  0  0
  2 18  1  0  0  0  0
  2  3  1  0  0  0  0
  3  4  2  0  0  0  0
  4  5  1  0  0  0  0
  4 16  1  0  0  0  0
  5  6  2  0  0  0  0
  5  7  1  0  0  0  0
  7  8  1  0  0  0  0
  8  9  1  0  0  0  0
  8 23  1  0  0  0  0
  8 24  1  0  0  0  0
  9 10  1  0  0  0  0
  9 25  1  0  0  0  0
  9 26  1  0  0  0  0
 10 15  1  0  0  0  0
 10 11  2  0  0  0  0
 11 12  1  0  0  0  0
 11 27  1  0  0  0  0
 12 13  2  0  0  0  0
 12 28  1  0  0  0  0
 13 14  1  0  0  0  0
 13 29  1  0  0  0  0
 14 15  2  0  0  0  0
 14 30  1  0  0  0  0
 15 35  1  0  0  0  0
 16 17  1  0  0  0  0
 16 31  1  0  0  0  0
 16 32  1  0  0  0  0
 17 18  1  0  0  0  0
 17 33  1  0  0  0  0
 17 34  1  0  0  0  0
 18 19  2  0  0  0  0
M  CHG  1   7  -1
M  CHG  1  15   1
M  END
> <s_m_source_file>
AV-unprocessed.smi

> <i_m_source_file_index>
2030

> <i_lp_mmshare_version>
43012

> <i_f3d_flags>
0

> <s_epik_input>
Tz1DMVtDSDJdW0NIMl1DKD1OTjFbQ0gzXSlDKD1PKVtOSF1bQ0gyXVtDSDJdYzJbY0hdW2NIXVtjSF1bY0hdbjI=

> <s_epik_cmdline>
J2VwaWtfcHl0aG9uJywgJy1waCcsICc3LjAnLCAnLXRuJywgJzgnLCAnLW1hJywgJzIwMCcsICctbWV0YWxfYmluZGluZycsICctaW1hZScsICc8aW5maWxlLm1hZT4nLCAnLW9tYWUnLCAnPG91dGZpbGUubWFlPic=

> <r_epik_Ionization_Penalty>
6.31213

> <r_epik_Ionization_Penalty_Charging>
6.31213

> <r_epik_Ionization_Penalty_Neutral>
3.33061e-09

> <r_epik_State_Penalty>
7.27833

> <r_epik_Charging_Adjusted_Penalty>
13.5905

> <i_epik_Tot_Q>
0

> <i_epik_Tot_abs_Q>
2

> <r_epik_Metal_State_Penalty>
3.36613

> <b_epik_Metal_Only>
1

> <s_epik_Chemistry_Notes>
This compound has an imine and may undergo hydrolysis.

> <s_lp_Force_Field>
OPLS_2005

> <r_lp_Energy>
24.6461

> <b_lp_Chiralities_Consistent>
1

> <s_lp_Variant>
AV-unprocessed.smi:2030-4

> <Gold.Version>
5.8.1

> <Gold.Id.Protein>
6NUR|6NUR_protein|mol2

> <Gold.PLP.Fitness>
47.6774

> <Gold.PLP.PLP>
-35.5415

> <Gold.PLP.part.hbond>
-6.1983

> <Gold.PLP.part.metal>
0.0000

> <Gold.PLP.part.buried>
-0.7746

> <Gold.PLP.part.nonpolar>
-26.5848

> <Gold.PLP.part.repulsive>
0.0747

> <Gold.PLP.ligand.clash>
0.0000

> <Gold.PLP.ligand.torsion>
1.6135

> <Gold.PLP.Chemscore.Hbond>
5.1061

> <Gold.PLP.Chemscore.CHOScore>
0.0000

> <Gold.PLP.Chemscore.Metal>
0.0000

> <Gold.Chemscore.Hbonds>
donor molecule, donor type, donor heavy atom, donor atom, acceptor molecule, acceptor atom, score
      L1  H    15    35       P1  7948  2.00
      P1  H  7997  8009       L1     3  1.00
      P1  H  7997  8010       L1     6  0.24
      P1  H 10752 10763       L1     7  1.79

> <Gold.PLP.Chemscore.Internal.Correction>
0.0447

> <Gold.Rescore>
     Score         DG    S(hbond)    S(metal)    S(lipo)     H(rot)  DE(clash)    DE(int)     intcor
     16.40     -18.10       2.57        0.00      67.03       1.49       0.03       1.66       ----

> <Gold.Chemscore.Fitness>
16.4043

> <Gold.Chemscore.DG>
-18.0996

> <Gold.Chemscore.ZeroCoef>
-5.4800

> <Gold.Chemscore.Hbond>
2.5688

> <Gold.Chemscore.Metal>
0.0000

> <Gold.Chemscore.Lipo>
67.0289

> <Gold.Chemscore.Internal_Hbond>
0.0000

> <Gold.Chemscore.DEClash>
0.0348

> <Gold.Chemscore.DEInternal>
1.6606

> <Gold.Chemscore.Rot>
1.4854

> <Gold.Chemscore.Internal.Correction>
   9.000000E+99

> <Gold.Chemscore.Hbonds>
donor molecule, donor type, donor heavy atom, donor atom, acceptor molecule, acceptor atom, score
      L1  H    15    35       P1  7948  1.00
      P1  H  7997  8009       L1     3  0.65
      P1  H  7997  8010       L1     6  0.24
      P1  H 10752 10763       L1     7  0.38

> <Gold.Chemscore.Hbond.Weighted>
-8.5799

> <Gold.Chemscore.Metal.Weighted>
-0.0000

> <Gold.Chemscore.Lipo.Weighted>
-7.8424

> <Gold.Chemscore.Internal_Hbond.Weighted>
0.0000

> <Gold.Chemscore.DEClash.Weighted>
0.0348

> <Gold.Chemscore.DEInternal.Weighted>
1.6606

> <Gold.Chemscore.Rot.Weighted>
3.8026

> <Gold.Chemscore.Internal.Correction.Weighted>
   9.000000E+99

> <Gold.Protein.RotatedTorsions>
[ 6907 6896 6895 6894 ] final -144.92 input  -60.11 | X-H torsion
[ 7974 7965 7964 7962 ] final   26.29 input  175.53 | X-H torsion
[ 8008 7997 7996 7995 ] final  137.39 input   59.86 | X-H torsion
[ 10167 10162 10161 10158 ] final -178.35 input  -65.29 | X-H torsion
[ 10718 10713 10712 10709 ] final   96.21 input   66.30 | X-H torsion
[ 10763 10752 10751 10750 ] final   74.14 input  -60.55 | X-H torsion
[ 11005 11000 10999 10996 ] final   48.72 input  -57.11 | X-H torsion

> <Gold.Protein.ActiveResidues>
 VAL166  LYS551  ARG553  GLY616  TRP617  ASP618  TYR619  PRO620  LYS621  CYS622 
 ASP623  PHE694  ASN695  SER759  ASP760  ASP761  ALA762  ILE779  LEU786  VAL792 
 PHE793  MET794  SER795  GLU796  ALA797  LYS798  CYS799  TRP800  GLU811  SER814 

> <Gold.Protein.RotatedAtoms>
  151.1206  133.5107  159.2602 H   0  0  0  0  0  0  0  0  0  0  0  0  # atno 6907 bound_to 6896
  151.1866  135.0384  159.8825 H   0  0  0  0  0  0  0  0  0  0  0  0  # atno 6908 bound_to 6896
  152.5455  134.1052  159.8388 H   0  0  0  0  0  0  0  0  0  0  0  0  # atno 6909 bound_to 6896
  146.1845  139.7348  142.8877 H   0  0  0  0  0  0  0  0  0  0  0  0  # atno 7974 bound_to 7965
  156.3002  140.2420  156.3902 H   0  0  0  0  0  0  0  0  0  0  0  0  # atno 8008 bound_to 7997
  154.8621  140.0419  157.1691 H   0  0  0  0  0  0  0  0  0  0  0  0  # atno 8009 bound_to 7997
  154.8885  140.2960  155.5388 H   0  0  0  0  0  0  0  0  0  0  0  0  # atno 8010 bound_to 7997
  139.5436  144.2295  152.0945 H   0  0  0  0  0  0  0  0  0  0  0  0  # atno 10167 bound_to 10162
  157.6930  131.0570  150.4456 H   0  0  0  0  0  0  0  0  0  0  0  0  # atno 10718 bound_to 10713
  153.0567  135.5036  154.7999 H   0  0  0  0  0  0  0  0  0  0  0  0  # atno 10763 bound_to 10752
  154.6819  135.2969  154.9604 H   0  0  0  0  0  0  0  0  0  0  0  0  # atno 10764 bound_to 10752
  154.0387  135.6720  153.4840 H   0  0  0  0  0  0  0  0  0  0  0  0  # atno 10765 bound_to 10752
  140.1166  134.4885  155.8632 H   0  0  0  0  0  0  0  0  0  0  0  0  # atno 11005 bound_to 11000
  145.3980  141.0381  143.3087 LP  0  0  0  0  0  0  0  0  0  0  0  0  # atno 17320 bound_to 7965
  144.8372  139.5530  143.6916 LP  0  0  0  0  0  0  0  0  0  0  0  0  # atno 17321 bound_to 7965
  140.1777  144.4874  150.6545 LP  0  0  0  0  0  0  0  0  0  0  0  0  # atno 17342 bound_to 10162
  140.6676  143.2274  151.5704 LP  0  0  0  0  0  0  0  0  0  0  0  0  # atno 17343 bound_to 10162
  156.4811  130.4074  149.6461 LP  0  0  0  0  0  0  0  0  0  0  0  0  # atno 17370 bound_to 10713
  156.3506  130.7430  151.2389 LP  0  0  0  0  0  0  0  0  0  0  0  0  # atno 17371 bound_to 10713
  141.2142  133.6745  156.6807 LP  0  0  0  0  0  0  0  0  0  0  0  0  # atno 17394 bound_to 11000
  140.3020  134.8155  157.4106 LP  0  0  0  0  0  0  0  0  0  0  0  0  # atno 17395 bound_to 11000

$$$$
