AV-unprocessed.smi:546|AV-procd|sdf|2886|dock6
  -GOLD-   2262023383D 1   1.00000     0.00000
 Structure written by MMmdl.
 51 53  0  0  0  0  0  0  0  0  2 V2000
  151.1564  138.9639  154.3563 C   0  0  0  0  0  0  0  0  0  0  0  0
  150.4836  137.5903  154.3061 C   0  0  0  0  0  0  0  0  0  0  0  0
  150.6475  136.9455  155.5578 O   0  0  0  0  0  0  0  0  0  0  0  0
  149.8235  135.7977  155.6916 C   0  0  0  0  0  0  0  0  0  0  0  0
  148.5381  136.1662  156.4453 C   0  0  0  0  0  0  0  0  0  0  0  0
  148.3657  135.3621  157.6546 N   0  0  0  0  0  0  0  0  0  0  0  0
  148.3088  134.0066  157.7820 C   0  0  0  0  0  0  0  0  0  0  0  0
  148.4695  133.1357  156.7017 N   0  0  0  0  0  0  0  0  0  0  0  0
  147.5781  133.1251  155.5431 C   0  0  0  0  0  0  0  0  0  0  0  0
  148.3657  133.1263  154.2190 C   0  0  2  0  0  0  0  0  0  0  0  0
  147.4285  133.1727  153.0055 C   0  0  0  0  0  0  0  0  0  0  0  0
  149.3074  131.9120  154.1650 C   0  0  0  0  0  0  0  0  0  0  0  0
  150.1868  131.8609  155.4256 C   0  0  2  0  0  0  0  0  0  0  0  0
  151.0829  130.6157  155.4391 C   0  0  0  0  0  0  0  0  0  0  0  0
  149.2965  131.9287  156.6830 C   0  0  0  0  0  0  0  0  0  0  0  0
  148.0515  133.5772  159.0194 N   0  0  0  0  0  0  0  0  0  0  0  0
  147.9684  134.7517  159.7493 C   0  0  0  0  0  0  0  0  0  0  0  0
  148.1511  135.8384  158.9532 C   0  0  0  0  0  0  0  0  0  0  0  0
  148.0904  137.2343  159.4428 C   0  0  0  0  0  0  0  0  0  0  0  0
  148.2558  138.1840  158.6798 O   0  0  0  0  0  0  0  0  0  0  0  0
  147.8348  137.3002  160.7878 N   0  5  0  0  0  0  0  0  0  0  0  0
  147.6444  136.2261  161.6302 C   0  0  0  0  0  0  0  0  0  0  0  0
  147.4111  136.3747  162.8305 O   0  0  0  0  0  0  0  0  0  0  0  0
  147.7118  134.9511  161.1332 N   0  0  0  0  0  0  0  0  0  0  0  0
  147.5130  133.7889  162.0039 C   0  0  0  0  0  0  0  0  0  0  0  0
  151.0749  139.4729  153.3958 H   0  0  0  0  0  0  0  0  0  0  0  0
  152.2156  138.8725  154.5986 H   0  0  0  0  0  0  0  0  0  0  0  0
  150.6915  139.5998  155.1098 H   0  0  0  0  0  0  0  0  0  0  0  0
  149.4233  137.7050  154.0758 H   0  0  0  0  0  0  0  0  0  0  0  0
  150.9306  136.9871  153.5143 H   0  0  0  0  0  0  0  0  0  0  0  0
  149.5737  135.4056  154.7049 H   0  0  0  0  0  0  0  0  0  0  0  0
  150.3587  135.0121  156.2269 H   0  0  0  0  0  0  0  0  0  0  0  0
  148.5555  137.2233  156.6845 H   0  0  0  0  0  0  0  0  0  0  0  0
  147.6666  136.0389  155.8050 H   0  0  0  0  0  0  0  0  0  0  0  0
  146.9234  132.2544  155.5989 H   0  0  0  0  0  0  0  0  0  0  0  0
  146.9308  134.0024  155.5798 H   0  0  0  0  0  0  0  0  0  0  0  0
  148.9784  134.0272  154.1965 H   0  0  0  0  0  0  0  0  0  0  0  0
  146.7721  132.3023  152.9775 H   0  0  0  0  0  0  0  0  0  0  0  0
  147.9941  133.1956  152.0736 H   0  0  0  0  0  0  0  0  0  0  0  0
  146.8002  134.0637  153.0310 H   0  0  0  0  0  0  0  0  0  0  0  0
  148.7211  130.9952  154.0871 H   0  0  0  0  0  0  0  0  0  0  0  0
  149.9328  131.9609  153.2729 H   0  0  0  0  0  0  0  0  0  0  0  0
  150.8384  132.7358  155.4153 H   0  0  0  0  0  0  0  0  0  0  0  0
  150.4902  129.7004  155.4466 H   0  0  0  0  0  0  0  0  0  0  0  0
  151.7241  130.6051  156.3209 H   0  0  0  0  0  0  0  0  0  0  0  0
  151.7290  130.5880  154.5612 H   0  0  0  0  0  0  0  0  0  0  0  0
  149.8987  131.8725  157.5894 H   0  0  0  0  0  0  0  0  0  0  0  0
  148.6399  131.0581  156.7173 H   0  0  0  0  0  0  0  0  0  0  0  0
  146.4916  133.7726  162.3859 H   0  0  0  0  0  0  0  0  0  0  0  0
  148.1953  133.8220  162.8542 H   0  0  0  0  0  0  0  0  0  0  0  0
  147.6867  132.8440  161.4899 H   0  0  0  0  0  0  0  0  0  0  0  0
  1  2  1  0  0  0  0
  1 26  1  0  0  0  0
  1 27  1  0  0  0  0
  1 28  1  0  0  0  0
  2  3  1  0  0  0  0
  2 29  1  0  0  0  0
  2 30  1  0  0  0  0
  3  4  1  0  0  0  0
  4  5  1  0  0  0  0
  4 31  1  0  0  0  0
  4 32  1  0  0  0  0
  5  6  1  0  0  0  0
  5 33  1  0  0  0  0
  5 34  1  0  0  0  0
  6 18  1  0  0  0  0
  6  7  1  0  0  0  0
  7  8  1  0  0  0  0
  7 16  2  0  0  0  0
  8 15  1  0  0  0  0
  8  9  1  0  0  0  0
  9 10  1  0  0  0  0
  9 35  1  0  0  0  0
  9 36  1  0  0  0  0
 10 11  1  0  0  0  0
 10 12  1  0  0  0  0
 10 37  1  0  0  0  0
 11 38  1  0  0  0  0
 11 39  1  0  0  0  0
 11 40  1  0  0  0  0
 12 13  1  0  0  0  0
 12 41  1  0  0  0  0
 12 42  1  0  0  0  0
 13 14  1  0  0  0  0
 13 15  1  0  0  0  0
 13 43  1  0  0  0  0
 14 44  1  0  0  0  0
 14 45  1  0  0  0  0
 14 46  1  0  0  0  0
 15 47  1  0  0  0  0
 15 48  1  0  0  0  0
 16 17  1  0  0  0  0
 17 24  1  0  0  0  0
 17 18  2  0  0  0  0
 18 19  1  0  0  0  0
 19 20  2  0  0  0  0
 19 21  1  0  0  0  0
 21 22  1  0  0  0  0
 22 23  2  0  0  0  0
 22 24  1  0  0  0  0
 24 25  1  0  0  0  0
 25 49  1  0  0  0  0
 25 50  1  0  0  0  0
 25 51  1  0  0  0  0
M  CHG  1  21  -1
M  END
> <s_m_source_file>
AV-unprocessed.smi

> <i_m_source_file_index>
546

> <i_lp_mmshare_version>
43012

> <i_f3d_flags>
0

> <s_epik_input>
W0NIM11uMWMoPU8pW25IXWMoPU8pYyhjMTIpbihbQ0gyXVtDSDJdT1tDSDJdW0NIM10pYyhuMilOM1tDSDJdW0NAQEhdKFtDSDNdKVtDSDJdW0NAQEhdKFtDSDNdKVtDSDJdMw==

> <s_epik_cmdline>
J2VwaWtfcHl0aG9uJywgJy1waCcsICc3LjAnLCAnLXRuJywgJzgnLCAnLW1hJywgJzIwMCcsICctbWV0YWxfYmluZGluZycsICctaW1hZScsICc8aW5maWxlLm1hZT4nLCAnLW9tYWUnLCAnPG91dGZpbGUubWFlPic=

> <r_lp_tautomer_probability>
1

> <r_epik_Ionization_Penalty>
5.12825

> <r_epik_Ionization_Penalty_Charging>
0.0743105

> <r_epik_Ionization_Penalty_Neutral>
5.05394

> <r_epik_State_Penalty>
5.04406

> <r_epik_Charging_Adjusted_Penalty>
5.11837

> <i_epik_Tot_Q>
-1

> <i_epik_Tot_abs_Q>
1

> <r_epik_Metal_State_Penalty>
1.15122

> <b_epik_Metal_Only>
1

> <s_lp_Force_Field>
OPLS_2005

> <r_lp_Energy>
39.602

> <b_lp_Chiralities_Consistent>
1

> <s_lp_Variant>
AV-unprocessed.smi:546-4

> <Gold.Version>
5.8.1

> <Gold.Id.Protein>
6NUR|6NUR_protein|mol2

> <Gold.PLP.Fitness>
44.4219

> <Gold.PLP.PLP>
-37.6209

> <Gold.PLP.part.hbond>
-2.5831

> <Gold.PLP.part.metal>
0.0000

> <Gold.PLP.part.buried>
-4.7833

> <Gold.PLP.part.nonpolar>
-30.0712

> <Gold.PLP.part.repulsive>
0.0488

> <Gold.PLP.ligand.clash>
0.0000

> <Gold.PLP.ligand.torsion>
1.6675

> <Gold.PLP.Chemscore.Hbond>
3.2640

> <Gold.PLP.Chemscore.CHOScore>
0.0000

> <Gold.PLP.Chemscore.Metal>
0.0000

> <Gold.Chemscore.Hbonds>
donor molecule, donor type, donor heavy atom, donor atom, acceptor molecule, acceptor atom, score
      P1  H  6931  6943       L1    21  1.36
      P1  H  6934  6947       L1    21  1.63

> <Gold.PLP.Chemscore.Internal.Correction>
0.3441

> <Gold.Rescore>
     Score         DG    S(hbond)    S(metal)    S(lipo)     H(rot)  DE(clash)    DE(int)     intcor
      9.89     -12.20       0.97        0.00      63.01       1.52       0.05       2.26       ----

> <Gold.Chemscore.Fitness>
9.8860

> <Gold.Chemscore.DG>
-12.1986

> <Gold.Chemscore.ZeroCoef>
-5.4800

> <Gold.Chemscore.Hbond>
0.9698

> <Gold.Chemscore.Metal>
0.0000

> <Gold.Chemscore.Lipo>
63.0083

> <Gold.Chemscore.Internal_Hbond>
0.0000

> <Gold.Chemscore.DEClash>
0.0526

> <Gold.Chemscore.DEInternal>
2.2601

> <Gold.Chemscore.Rot>
1.5206

> <Gold.Chemscore.Internal.Correction>
   9.000000E+99

> <Gold.Chemscore.Hbonds>
donor molecule, donor type, donor heavy atom, donor atom, acceptor molecule, acceptor atom, score
      P1  H  6931  6943       L1    21  0.11
      P1  H  6934  6947       L1    21  0.24

> <Gold.Chemscore.Hbond.Weighted>
-3.2393

> <Gold.Chemscore.Metal.Weighted>
-0.0000

> <Gold.Chemscore.Lipo.Weighted>
-7.3720

> <Gold.Chemscore.Internal_Hbond.Weighted>
0.0000

> <Gold.Chemscore.DEClash.Weighted>
0.0526

> <Gold.Chemscore.DEInternal.Weighted>
2.2601

> <Gold.Chemscore.Rot.Weighted>
3.8926

> <Gold.Chemscore.Internal.Correction.Weighted>
   9.000000E+99

> <Gold.Protein.RotatedTorsions>
[ 6907 6896 6895 6894 ] final  -99.86 input  -60.11 | X-H torsion
[ 7974 7965 7964 7962 ] final  -64.58 input  175.53 | X-H torsion
[ 8008 7997 7996 7995 ] final   71.83 input   59.86 | X-H torsion
[ 10167 10162 10161 10158 ] final -167.66 input  -65.29 | X-H torsion
[ 10718 10713 10712 10709 ] final -127.60 input   66.30 | X-H torsion
[ 10763 10752 10751 10750 ] final -113.70 input  -60.55 | X-H torsion
[ 11005 11000 10999 10996 ] final   18.19 input  -57.11 | X-H torsion

> <Gold.Protein.ActiveResidues>
 VAL166  LYS551  ARG553  GLY616  TRP617  ASP618  TYR619  PRO620  LYS621  CYS622 
 ASP623  PHE694  ASN695  SER759  ASP760  ASP761  ALA762  ILE779  LEU786  VAL792 
 PHE793  MET794  SER795  GLU796  ALA797  LYS798  CYS799  TRP800  GLU811  SER814 

> <Gold.Protein.RotatedAtoms>
  150.7095  134.0976  159.3953 H   0  0  0  0  0  0  0  0  0  0  0  0  # atno 6907 bound_to 6896
  151.8962  135.0394  160.0511 H   0  0  0  0  0  0  0  0  0  0  0  0  # atno 6908 bound_to 6896
  152.2451  133.5132  159.5329 H   0  0  0  0  0  0  0  0  0  0  0  0  # atno 6909 bound_to 6896
  145.7649  140.8843  143.0410 H   0  0  0  0  0  0  0  0  0  0  0  0  # atno 7974 bound_to 7965
  155.7598  140.3487  155.5192 H   0  0  0  0  0  0  0  0  0  0  0  0  # atno 8008 bound_to 7997
  155.8924  140.1020  157.1430 H   0  0  0  0  0  0  0  0  0  0  0  0  # atno 8009 bound_to 7997
  154.4035  140.1301  156.4320 H   0  0  0  0  0  0  0  0  0  0  0  0  # atno 8010 bound_to 7997
  139.6035  144.0961  152.1768 H   0  0  0  0  0  0  0  0  0  0  0  0  # atno 10167 bound_to 10162
  156.1872  130.6771  151.0380 H   0  0  0  0  0  0  0  0  0  0  0  0  # atno 10718 bound_to 10713
  154.8408  135.4445  154.1390 H   0  0  0  0  0  0  0  0  0  0  0  0  # atno 10763 bound_to 10752
  153.2580  135.6933  153.7614 H   0  0  0  0  0  0  0  0  0  0  0  0  # atno 10764 bound_to 10752
  153.6902  135.3388  155.3175 H   0  0  0  0  0  0  0  0  0  0  0  0  # atno 10765 bound_to 10752
  140.4276  134.1453  155.7678 H   0  0  0  0  0  0  0  0  0  0  0  0  # atno 11005 bound_to 11000
  144.6823  139.9774  143.7483 LP  0  0  0  0  0  0  0  0  0  0  0  0  # atno 17320 bound_to 7965
  146.0227  139.3265  143.0803 LP  0  0  0  0  0  0  0  0  0  0  0  0  # atno 17321 bound_to 7965
  140.0563  144.5892  150.7297 LP  0  0  0  0  0  0  0  0  0  0  0  0  # atno 17342 bound_to 10162
  140.7267  143.2644  151.4094 LP  0  0  0  0  0  0  0  0  0  0  0  0  # atno 17343 bound_to 10162
  157.6906  131.0811  150.7117 LP  0  0  0  0  0  0  0  0  0  0  0  0  # atno 17370 bound_to 10713
  156.7173  130.4670  149.5531 LP  0  0  0  0  0  0  0  0  0  0  0  0  # atno 17371 bound_to 10713
  141.1759  133.8515  157.1423 LP  0  0  0  0  0  0  0  0  0  0  0  0  # atno 17394 bound_to 11000
  140.0156  134.9969  157.0487 LP  0  0  0  0  0  0  0  0  0  0  0  0  # atno 17395 bound_to 11000

$$$$
