AV-unprocessed.smi:1271|AV-procd|sdf|5333|dock1
  -GOLD-   22720 4463D 1   1.00000     0.00000
 Structure written by MMmdl.
 35 36  0  0  0  0  0  0  0  0  1 V2000
  149.6236  140.2984  157.8887 C   0  0  0  0  0  0  0  0  0  0  0  0
  150.8981  140.8606  157.2397 C   0  0  1  0  0  0  0  0  0  0  0  0
  150.5660  141.8562  156.1114 C   0  0  0  0  0  0  0  0  0  0  0  0
  149.6789  141.2824  155.1142 N   0  0  0  0  0  0  0  0  0  0  0  0
  148.4270  141.7160  154.7322 C   0  0  0  0  0  0  0  0  0  0  0  0
  147.9719  140.8526  153.7775 C   0  0  0  0  0  0  0  0  0  0  0  0
  149.0301  139.9111  153.6408 C   0  0  0  0  0  0  0  0  0  0  0  0
  150.0516  140.1719  154.4404 N   0  0  0  0  0  0  0  0  0  0  0  0
  151.7276  141.5149  158.2483 N   0  0  0  0  0  0  0  0  0  0  0  0
  152.8747  141.0385  158.7599 C   0  0  0  0  0  0  0  0  0  0  0  0
  153.3219  139.9333  158.4502 O   0  0  0  0  0  0  0  0  0  0  0  0
  153.4923  141.8736  159.6337 N   0  0  0  0  0  0  0  0  0  0  0  0
  153.0893  143.2556  159.9430 C   0  0  0  0  0  0  0  0  0  0  0  0
  152.2593  143.2573  161.2371 C   0  0  0  0  0  0  0  0  0  0  0  0
  153.2513  142.6691  162.6456 S   0  0  0  0  0  0  0  0  0  0  0  0
  153.9296  141.1390  161.9284 C   0  0  0  0  0  0  0  0  0  0  0  0
  154.5435  141.4009  160.5423 C   0  0  0  0  0  0  0  0  0  0  0  0
  148.9942  139.8025  157.1494 H   0  0  0  0  0  0  0  0  0  0  0  0
  149.0324  141.0883  158.3528 H   0  0  0  0  0  0  0  0  0  0  0  0
  149.8625  139.5645  158.6589 H   0  0  0  0  0  0  0  0  0  0  0  0
  151.4550  140.0290  156.8035 H   0  0  0  0  0  0  0  0  0  0  0  0
  150.0785  142.7405  156.5236 H   0  0  0  0  0  0  0  0  0  0  0  0
  151.4777  142.2039  155.6218 H   0  0  0  0  0  0  0  0  0  0  0  0
  147.9683  142.5905  155.1699 H   0  0  0  0  0  0  0  0  0  0  0  0
  147.0259  140.8866  153.2574 H   0  0  0  0  0  0  0  0  0  0  0  0
  149.0856  139.0514  152.9894 H   0  0  0  0  0  0  0  0  0  0  0  0
  151.4286  142.4310  158.5501 H   0  0  0  0  0  0  0  0  0  0  0  0
  153.9745  143.8807  160.0689 H   0  0  0  0  0  0  0  0  0  0  0  0
  152.5282  143.7298  159.1374 H   0  0  0  0  0  0  0  0  0  0  0  0
  151.9001  144.2624  161.4581 H   0  0  0  0  0  0  0  0  0  0  0  0
  151.3810  142.6201  161.1270 H   0  0  0  0  0  0  0  0  0  0  0  0
  154.6814  140.7374  162.6080 H   0  0  0  0  0  0  0  0  0  0  0  0
  153.1341  140.3962  161.8575 H   0  0  0  0  0  0  0  0  0  0  0  0
  155.0270  140.4952  160.1732 H   0  0  0  0  0  0  0  0  0  0  0  0
  155.3396  142.1430  160.6161 H   0  0  0  0  0  0  0  0  0  0  0  0
  1  2  1  0  0  0  0
  1 18  1  0  0  0  0
  1 19  1  0  0  0  0
  1 20  1  0  0  0  0
  2  3  1  0  0  0  0
  2  9  1  0  0  0  0
  2 21  1  0  0  0  0
  3  4  1  0  0  0  0
  3 22  1  0  0  0  0
  3 23  1  0  0  0  0
  4  8  1  0  0  0  0
  4  5  1  0  0  0  0
  5  6  2  0  0  0  0
  5 24  1  0  0  0  0
  6  7  1  0  0  0  0
  6 25  1  0  0  0  0
  7  8  2  0  0  0  0
  7 26  1  0  0  0  0
  9 10  1  0  0  0  0
  9 27  1  0  0  0  0
 10 11  2  0  0  0  0
 10 12  1  0  0  0  0
 12 17  1  0  0  0  0
 12 13  1  0  0  0  0
 13 14  1  0  0  0  0
 13 28  1  0  0  0  0
 13 29  1  0  0  0  0
 14 15  1  0  0  0  0
 14 30  1  0  0  0  0
 14 31  1  0  0  0  0
 15 16  1  0  0  0  0
 16 17  1  0  0  0  0
 16 32  1  0  0  0  0
 16 33  1  0  0  0  0
 17 34  1  0  0  0  0
 17 35  1  0  0  0  0
M  END
> <s_m_source_file>
AV-unprocessed.smi

> <i_m_source_file_index>
1271

> <i_lp_mmshare_version>
43012

> <i_f3d_flags>
0

> <s_epik_input>
bjFbY0hdW2NIXVtjSF1uMVtDSDJdW0NAQEhdKFtDSDNdKVtOSF1DKD1PKU4yW0NIMl1bQ0gyXVNbQ0gyXVtDSDJdMg==

> <s_epik_cmdline>
J2VwaWtfcHl0aG9uJywgJy1waCcsICc3LjAnLCAnLXRuJywgJzgnLCAnLW1hJywgJzIwMCcsICctbWV0YWxfYmluZGluZycsICctaW1hZScsICc8aW5maWxlLm1hZT4nLCAnLW9tYWUnLCAnPG91dGZpbGUubWFlPic=

> <r_lp_tautomer_probability>
1

> <r_epik_Ionization_Penalty>
5.86346e-05

> <r_epik_Ionization_Penalty_Charging>
0

> <r_epik_Ionization_Penalty_Neutral>
5.86346e-05

> <r_epik_State_Penalty>
-0

> <r_epik_Charging_Adjusted_Penalty>
0

> <i_epik_Tot_Q>
0

> <i_epik_Tot_abs_Q>
0

> <r_epik_Metal_State_Penalty>
-0

> <b_epik_Metal_Only>
0

> <s_lp_Force_Field>
OPLS_2005

> <r_lp_Energy>
23.1202

> <b_lp_Chiralities_Consistent>
1

> <s_lp_Variant>
AV-unprocessed.smi:1271-2

> <Gold.Version>
5.8.1

> <Gold.Id.Protein>
6NUR|6NUR_protein|mol2

> <Gold.PLP.Fitness>
48.9731

> <Gold.PLP.PLP>
-39.0708

> <Gold.PLP.part.hbond>
-2.0000

> <Gold.PLP.part.metal>
0.0000

> <Gold.PLP.part.buried>
1.4271

> <Gold.PLP.part.nonpolar>
-37.4152

> <Gold.PLP.part.repulsive>
0.1851

> <Gold.PLP.ligand.clash>
0.0000

> <Gold.PLP.ligand.torsion>
0.2087

> <Gold.PLP.Chemscore.Hbond>
2.0000

> <Gold.PLP.Chemscore.CHOScore>
1.4271

> <Gold.PLP.Chemscore.Metal>
0.0000

> <Gold.Chemscore.Hbonds>
donor molecule, donor type, donor heavy atom, donor atom, acceptor molecule, acceptor atom, score
      P1  H  7989  7998       L1     8  1.00
      P1  H  7997  8010       L1    11  1.00
      L1  C     5    24       P1  8028  1.00
      L1  C     7    26       P1  7957  0.40

> <Gold.PLP.Chemscore.Internal.Correction>
0.0385

> <Gold.Rescore>
     Score         DG    S(hbond)    S(metal)    S(lipo)     H(rot)  DE(clash)    DE(int)     intcor
     16.45     -18.65       1.74        0.00      93.71       1.41       1.84       0.35       ----

> <Gold.Chemscore.Fitness>
16.4522

> <Gold.Chemscore.DG>
-18.6476

> <Gold.Chemscore.ZeroCoef>
-5.4800

> <Gold.Chemscore.Hbond>
1.7383

> <Gold.Chemscore.Metal>
0.0000

> <Gold.Chemscore.Lipo>
93.7054

> <Gold.Chemscore.Internal_Hbond>
0.0000

> <Gold.Chemscore.DEClash>
1.8429

> <Gold.Chemscore.DEInternal>
0.3526

> <Gold.Chemscore.Rot>
1.4069

> <Gold.Chemscore.Internal.Correction>
   9.000000E+99

> <Gold.Chemscore.Hbonds>
donor molecule, donor type, donor heavy atom, donor atom, acceptor molecule, acceptor atom, score
      P1  H  7989  7998       L1     8  0.21
      P1  H  7997  8010       L1    11  0.79

> <Gold.Chemscore.Hbond.Weighted>
-5.8058

> <Gold.Chemscore.Metal.Weighted>
-0.0000

> <Gold.Chemscore.Lipo.Weighted>
-10.9635

> <Gold.Chemscore.Internal_Hbond.Weighted>
0.0000

> <Gold.Chemscore.DEClash.Weighted>
1.8429

> <Gold.Chemscore.DEInternal.Weighted>
0.3526

> <Gold.Chemscore.Rot.Weighted>
3.6017

> <Gold.Chemscore.Internal.Correction.Weighted>
   9.000000E+99

> <Gold.Protein.RotatedTorsions>
[ 6907 6896 6895 6894 ] final  -29.56 input  -60.11 | X-H torsion
[ 7974 7965 7964 7962 ] final   93.59 input  175.53 | X-H torsion
[ 8008 7997 7996 7995 ] final   38.70 input   59.86 | X-H torsion
[ 10167 10162 10161 10158 ] final  137.98 input  -65.29 | X-H torsion
[ 10718 10713 10712 10709 ] final  -78.80 input   66.30 | X-H torsion
[ 10763 10752 10751 10750 ] final  -53.98 input  -60.55 | X-H torsion
[ 11005 11000 10999 10996 ] final -156.38 input  -57.11 | X-H torsion

> <Gold.Protein.ActiveResidues>
 VAL166  LYS551  ARG553  GLY616  TRP617  ASP618  TYR619  PRO620  LYS621  CYS622 
 ASP623  PHE694  ASN695  SER759  ASP760  ASP761  ALA762  ILE779  LEU786  VAL792 
 PHE793  MET794  SER795  GLU796  ALA797  LYS798  CYS799  TRP800  GLU811  SER814 

> <Gold.Protein.RotatedAtoms>
  151.1175  135.0061  159.8522 H   0  0  0  0  0  0  0  0  0  0  0  0  # atno 6907 bound_to 6896
  152.5446  134.1762  159.8627 H   0  0  0  0  0  0  0  0  0  0  0  0  # atno 6908 bound_to 6896
  151.1817  133.4676  159.2627 H   0  0  0  0  0  0  0  0  0  0  0  0  # atno 6909 bound_to 6896
  145.4769  139.2280  143.2904 H   0  0  0  0  0  0  0  0  0  0  0  0  # atno 7974 bound_to 7965
  155.2245  140.3333  155.4311 H   0  0  0  0  0  0  0  0  0  0  0  0  # atno 8008 bound_to 7997
  156.2320  140.1855  156.7265 H   0  0  0  0  0  0  0  0  0  0  0  0  # atno 8009 bound_to 7997
  154.5994  140.0625  156.9333 H   0  0  0  0  0  0  0  0  0  0  0  0  # atno 8010 bound_to 7997
  139.5126  144.6379  151.5648 H   0  0  0  0  0  0  0  0  0  0  0  0  # atno 10167 bound_to 10162
  156.0108  130.4528  150.3551 H   0  0  0  0  0  0  0  0  0  0  0  0  # atno 10718 bound_to 10713
  154.1675  135.6464  153.5001 H   0  0  0  0  0  0  0  0  0  0  0  0  # atno 10763 bound_to 10752
  153.0093  135.5375  154.6647 H   0  0  0  0  0  0  0  0  0  0  0  0  # atno 10764 bound_to 10752
  154.5977  135.2940  155.0540 H   0  0  0  0  0  0  0  0  0  0  0  0  # atno 10765 bound_to 10752
  140.6762  134.4193  157.5229 H   0  0  0  0  0  0  0  0  0  0  0  0  # atno 11005 bound_to 11000
  146.2364  140.5552  142.8953 LP  0  0  0  0  0  0  0  0  0  0  0  0  # atno 17320 bound_to 7965
  144.7912  140.6035  143.6540 LP  0  0  0  0  0  0  0  0  0  0  0  0  # atno 17321 bound_to 7965
  140.6135  143.9392  150.6471 LP  0  0  0  0  0  0  0  0  0  0  0  0  # atno 17342 bound_to 10162
  140.2643  143.3501  152.1295 LP  0  0  0  0  0  0  0  0  0  0  0  0  # atno 17343 bound_to 10162
  157.1642  131.0352  151.2826 LP  0  0  0  0  0  0  0  0  0  0  0  0  # atno 17370 bound_to 10713
  157.4285  130.7477  149.6970 LP  0  0  0  0  0  0  0  0  0  0  0  0  # atno 17371 bound_to 10713
  139.8966  134.8656  156.2081 LP  0  0  0  0  0  0  0  0  0  0  0  0  # atno 17394 bound_to 11000
  141.0353  133.6966  156.1502 LP  0  0  0  0  0  0  0  0  0  0  0  0  # atno 17395 bound_to 11000

$$$$
