AV-unprocessed.smi:1225|AV-procd|sdf|5136|dock3
  -GOLD-   22720 4193D 1   1.00000     0.00000
 Structure written by MMmdl.
 48 50  0  0  0  0  0  0  0  0  1 V2000
  144.8578  133.5517  151.1612 C   0  0  0  0  0  0  0  0  0  0  0  0
  145.0737  134.8551  151.8509 C   0  0  0  0  0  0  0  0  0  0  0  0
  144.4370  135.9806  151.5189 N   0  0  0  0  0  0  0  0  0  0  0  0
  144.8139  137.0614  152.3192 C   0  0  0  0  0  0  0  0  0  0  0  0
  145.7508  136.7462  153.2725 C   0  0  0  0  0  0  0  0  0  0  0  0
  146.3651  137.6617  154.2819 C   0  0  0  0  0  0  0  0  0  0  0  0
  147.4131  138.5220  153.7239 N   0  0  0  0  0  0  0  0  0  0  0  0
  146.8240  139.5279  152.8439 C   0  0  0  0  0  0  0  0  0  0  0  0
  148.2176  139.1621  154.7710 C   0  0  0  0  0  0  0  0  0  0  0  0
  149.1485  140.3070  154.3071 C   0  0  2  0  0  0  0  0  0  0  0  0
  150.3384  139.7471  153.7860 O   0  0  0  0  0  0  0  0  0  0  0  0
  149.4767  141.3887  155.3554 C   0  0  0  0  0  0  0  0  0  0  0  0
  150.2509  140.8661  156.4665 N   0  0  0  0  0  0  0  0  0  0  0  0
  150.4061  139.5737  156.8132 C   0  0  0  0  0  0  0  0  0  0  0  0
  151.1626  139.3156  157.8763 N   0  0  0  0  0  0  0  0  0  0  0  0
  151.5375  140.5896  158.2677 C   0  0  0  0  0  0  0  0  0  0  0  0
  152.3471  141.0175  159.3424 C   0  0  0  0  0  0  0  0  0  0  0  0
  152.5981  142.3914  159.5584 C   0  0  0  0  0  0  0  0  0  0  0  0
  153.4707  142.8070  160.7298 C   0  0  0  0  0  0  0  0  0  0  0  0
  152.0367  143.3617  158.6896 C   0  0  0  0  0  0  0  0  0  0  0  0
  152.2915  144.8432  158.9031 C   0  0  0  0  0  0  0  0  0  0  0  0
  151.2273  142.9510  157.6098 C   0  0  0  0  0  0  0  0  0  0  0  0
  150.9833  141.5816  157.4069 C   0  0  0  0  0  0  0  0  0  0  0  0
  146.1937  135.0608  153.1919 S   0  0  0  0  0  0  0  0  0  0  0  0
  144.3857  133.7049  150.1903 H   0  0  0  0  0  0  0  0  0  0  0  0
  144.2148  132.9130  151.7669 H   0  0  0  0  0  0  0  0  0  0  0  0
  145.8117  133.0466  151.0088 H   0  0  0  0  0  0  0  0  0  0  0  0
  144.3622  138.0265  152.1432 H   0  0  0  0  0  0  0  0  0  0  0  0
  145.5907  138.2773  154.7417 H   0  0  0  0  0  0  0  0  0  0  0  0
  146.7576  137.0498  155.0899 H   0  0  0  0  0  0  0  0  0  0  0  0
  147.5996  140.1449  152.3890 H   0  0  0  0  0  0  0  0  0  0  0  0
  146.1463  140.1837  153.3920 H   0  0  0  0  0  0  0  0  0  0  0  0
  146.2652  139.0642  152.0306 H   0  0  0  0  0  0  0  0  0  0  0  0
  147.5591  139.5857  155.5314 H   0  0  0  0  0  0  0  0  0  0  0  0
  148.8008  138.4052  155.2977 H   0  0  0  0  0  0  0  0  0  0  0  0
  148.6533  140.7952  153.4670 H   0  0  0  0  0  0  0  0  0  0  0  0
  150.1635  139.4328  152.9121 H   0  0  0  0  0  0  0  0  0  0  0  0
  150.0471  142.1980  154.8986 H   0  0  0  0  0  0  0  0  0  0  0  0
  148.5612  141.8247  155.7574 H   0  0  0  0  0  0  0  0  0  0  0  0
  149.9396  138.7775  156.2514 H   0  0  0  0  0  0  0  0  0  0  0  0
  152.7744  140.2780  160.0038 H   0  0  0  0  0  0  0  0  0  0  0  0
  152.9067  143.4329  161.4219 H   0  0  0  0  0  0  0  0  0  0  0  0
  154.3376  143.3688  160.3816 H   0  0  0  0  0  0  0  0  0  0  0  0
  153.8340  141.9404  161.2829 H   0  0  0  0  0  0  0  0  0  0  0  0
  151.7828  145.4471  158.1509 H   0  0  0  0  0  0  0  0  0  0  0  0
  153.3580  145.0602  158.8411 H   0  0  0  0  0  0  0  0  0  0  0  0
  151.9300  145.1552  159.8831 H   0  0  0  0  0  0  0  0  0  0  0  0
  150.7936  143.6786  156.9397 H   0  0  0  0  0  0  0  0  0  0  0  0
  1  2  1  0  0  0  0
  1 25  1  0  0  0  0
  1 26  1  0  0  0  0
  1 27  1  0  0  0  0
  2 24  1  0  0  0  0
  2  3  2  0  0  0  0
  3  4  1  0  0  0  0
  4  5  2  0  0  0  0
  4 28  1  0  0  0  0
  5  6  1  0  0  0  0
  5 24  1  0  0  0  0
  6  7  1  0  0  0  0
  6 29  1  0  0  0  0
  6 30  1  0  0  0  0
  7  8  1  0  0  0  0
  7  9  1  0  0  0  0
  8 31  1  0  0  0  0
  8 32  1  0  0  0  0
  8 33  1  0  0  0  0
  9 10  1  0  0  0  0
  9 34  1  0  0  0  0
  9 35  1  0  0  0  0
 10 11  1  0  0  0  0
 10 12  1  0  0  0  0
 10 36  1  0  0  0  0
 11 37  1  0  0  0  0
 12 13  1  0  0  0  0
 12 38  1  0  0  0  0
 12 39  1  0  0  0  0
 13 23  1  0  0  0  0
 13 14  1  0  0  0  0
 14 15  2  0  0  0  0
 14 40  1  0  0  0  0
 15 16  1  0  0  0  0
 16 23  2  0  0  0  0
 16 17  1  0  0  0  0
 17 18  2  0  0  0  0
 17 41  1  0  0  0  0
 18 19  1  0  0  0  0
 18 20  1  0  0  0  0
 19 42  1  0  0  0  0
 19 43  1  0  0  0  0
 19 44  1  0  0  0  0
 20 21  1  0  0  0  0
 20 22  2  0  0  0  0
 21 45  1  0  0  0  0
 21 46  1  0  0  0  0
 21 47  1  0  0  0  0
 22 23  1  0  0  0  0
 22 48  1  0  0  0  0
M  END
> <s_m_source_file>
AV-unprocessed.smi

> <i_m_source_file_index>
1225

> <i_lp_mmshare_version>
43012

> <i_f3d_flags>
0

> <s_epik_input>
W0NIM11jMW5bY0hdYyhzMSlbQ0gyXU4oW0NIM10pW0NIMl1bQ0BIXShbT0hdKVtDSDJdbihbY0hdbjIpYyhjMjMpW2NIXWMoW0NIM10pYyhbY0hdMylbQ0gzXQ==

> <s_epik_cmdline>
J2VwaWtfcHl0aG9uJywgJy1waCcsICc3LjAnLCAnLXRuJywgJzgnLCAnLW1hJywgJzIwMCcsICctbWV0YWxfYmluZGluZycsICctaW1hZScsICc8aW5maWxlLm1hZT4nLCAnLW9tYWUnLCAnPG91dGZpbGUubWFlPic=

> <r_epik_Ionization_Penalty>
0.12717

> <r_epik_Ionization_Penalty_Charging>
0

> <r_epik_Ionization_Penalty_Neutral>
0.12717

> <r_epik_State_Penalty>
0.11216

> <r_epik_Charging_Adjusted_Penalty>
0.11216

> <i_epik_Tot_Q>
0

> <i_epik_Tot_abs_Q>
0

> <r_epik_Metal_State_Penalty>
0.099641

> <b_epik_Metal_Only>
0

> <s_lp_Force_Field>
OPLS_2005

> <r_lp_Energy>
23.0021

> <b_lp_Chiralities_Consistent>
1

> <s_lp_Variant>
AV-unprocessed.smi:1225-1

> <Gold.Version>
5.8.1

> <Gold.Id.Protein>
6NUR|6NUR_protein|mol2

> <Gold.PLP.Fitness>
50.9327

> <Gold.PLP.PLP>
-41.9624

> <Gold.PLP.part.hbond>
-2.0000

> <Gold.PLP.part.metal>
0.0000

> <Gold.PLP.part.buried>
-2.7694

> <Gold.PLP.part.nonpolar>
-37.4859

> <Gold.PLP.part.repulsive>
0.6443

> <Gold.PLP.ligand.clash>
0.0000

> <Gold.PLP.ligand.torsion>
0.9271

> <Gold.PLP.Chemscore.Hbond>
1.7912

> <Gold.PLP.Chemscore.CHOScore>
1.7429

> <Gold.PLP.Chemscore.Metal>
0.0000

> <Gold.Chemscore.Hbonds>
donor molecule, donor type, donor heavy atom, donor atom, acceptor molecule, acceptor atom, score
      L1  H    11    37       P1  7957  0.85
      P1  H  7989  7998       L1    11  0.96
      L1  C     4    28       P1 10171  0.74
      L1  C     4    28       P1 10175  1.00

> <Gold.PLP.Chemscore.Internal.Correction>
0.2220

> <Gold.Rescore>
     Score         DG    S(hbond)    S(metal)    S(lipo)     H(rot)  DE(clash)    DE(int)     intcor
     15.86     -17.99       1.05        0.00     127.03       2.28       0.15       1.98       ----

> <Gold.Chemscore.Fitness>
15.8554

> <Gold.Chemscore.DG>
-17.9896

> <Gold.Chemscore.ZeroCoef>
-5.4800

> <Gold.Chemscore.Hbond>
1.0463

> <Gold.Chemscore.Metal>
0.0000

> <Gold.Chemscore.Lipo>
127.0340

> <Gold.Chemscore.Internal_Hbond>
0.0000

> <Gold.Chemscore.DEClash>
0.1520

> <Gold.Chemscore.DEInternal>
1.9821

> <Gold.Chemscore.Rot>
2.2844

> <Gold.Chemscore.Internal.Correction>
   9.000000E+99

> <Gold.Chemscore.Hbonds>
donor molecule, donor type, donor heavy atom, donor atom, acceptor molecule, acceptor atom, score
      L1  H    11    37       P1  7957  0.78
      P1  H  7989  7998       L1    11  0.22

> <Gold.Chemscore.Hbond.Weighted>
-3.4946

> <Gold.Chemscore.Metal.Weighted>
-0.0000

> <Gold.Chemscore.Lipo.Weighted>
-14.8630

> <Gold.Chemscore.Internal_Hbond.Weighted>
0.0000

> <Gold.Chemscore.DEClash.Weighted>
0.1520

> <Gold.Chemscore.DEInternal.Weighted>
1.9821

> <Gold.Chemscore.Rot.Weighted>
5.8480

> <Gold.Chemscore.Internal.Correction.Weighted>
   9.000000E+99

> <Gold.Protein.RotatedTorsions>
[ 6907 6896 6895 6894 ] final   15.59 input  -60.11 | X-H torsion
[ 7974 7965 7964 7962 ] final   82.36 input  175.53 | X-H torsion
[ 8008 7997 7996 7995 ] final    2.42 input   59.86 | X-H torsion
[ 10167 10162 10161 10158 ] final   -6.13 input  -65.29 | X-H torsion
[ 10718 10713 10712 10709 ] final   61.49 input   66.30 | X-H torsion
[ 10763 10752 10751 10750 ] final  -45.38 input  -60.55 | X-H torsion
[ 11005 11000 10999 10996 ] final   19.06 input  -57.11 | X-H torsion

> <Gold.Protein.ActiveResidues>
 VAL166  LYS551  ARG553  GLY616  TRP617  ASP618  TYR619  PRO620  LYS621  CYS622 
 ASP623  PHE694  ASN695  SER759  ASP760  ASP761  ALA762  ILE779  LEU786  VAL792 
 PHE793  MET794  SER795  GLU796  ALA797  LYS798  CYS799  TRP800  GLU811  SER814 

> <Gold.Protein.RotatedAtoms>
  151.8205  135.0653  160.0424 H   0  0  0  0  0  0  0  0  0  0  0  0  # atno 6907 bound_to 6896
  152.2954  133.5598  159.5593 H   0  0  0  0  0  0  0  0  0  0  0  0  # atno 6908 bound_to 6896
  150.7249  134.0284  159.3767 H   0  0  0  0  0  0  0  0  0  0  0  0  # atno 6909 bound_to 6896
  145.6260  139.2395  143.2111 H   0  0  0  0  0  0  0  0  0  0  0  0  # atno 7974 bound_to 7965
  154.6914  140.2654  155.6809 H   0  0  0  0  0  0  0  0  0  0  0  0  # atno 8008 bound_to 7997
  156.2733  140.2790  156.1417 H   0  0  0  0  0  0  0  0  0  0  0  0  # atno 8009 bound_to 7997
  155.0891  140.0373  157.2653 H   0  0  0  0  0  0  0  0  0  0  0  0  # atno 8010 bound_to 7997
  140.6986  143.6229  150.8595 H   0  0  0  0  0  0  0  0  0  0  0  0  # atno 10167 bound_to 10162
  157.5832  130.8998  149.9468 H   0  0  0  0  0  0  0  0  0  0  0  0  # atno 10718 bound_to 10713
  154.0277  135.6661  153.4778 H   0  0  0  0  0  0  0  0  0  0  0  0  # atno 10763 bound_to 10752
  153.0553  135.5059  154.7963 H   0  0  0  0  0  0  0  0  0  0  0  0  # atno 10764 bound_to 10752
  154.6898  135.3059  154.9461 H   0  0  0  0  0  0  0  0  0  0  0  0  # atno 10765 bound_to 10752
  140.4179  134.1549  155.7671 H   0  0  0  0  0  0  0  0  0  0  0  0  # atno 11005 bound_to 11000
  146.1394  140.7079  142.9374 LP  0  0  0  0  0  0  0  0  0  0  0  0  # atno 17320 bound_to 7965
  144.7212  140.4379  143.7007 LP  0  0  0  0  0  0  0  0  0  0  0  0  # atno 17321 bound_to 7965
  139.9949  143.5806  152.2897 LP  0  0  0  0  0  0  0  0  0  0  0  0  # atno 17342 bound_to 10162
  139.6475  144.7659  151.2214 LP  0  0  0  0  0  0  0  0  0  0  0  0  # atno 17343 bound_to 10162
  156.0879  130.3666  150.0452 LP  0  0  0  0  0  0  0  0  0  0  0  0  # atno 17370 bound_to 10713
  156.8587  130.9484  151.3620 LP  0  0  0  0  0  0  0  0  0  0  0  0  # atno 17371 bound_to 10713
  141.1796  133.8443  157.1305 LP  0  0  0  0  0  0  0  0  0  0  0  0  # atno 17394 bound_to 11000
  140.0221  134.9941  157.0612 LP  0  0  0  0  0  0  0  0  0  0  0  0  # atno 17395 bound_to 11000

$$$$
