AV-unprocessed.smi:1554|AV-procd|sdf|6258|dock8
  -GOLD-   22720 6443D 1   1.00000     0.00000
 Structure written by MMmdl.
 49 51  0  0  0  0  0  0  0  0  3 V2000
  152.2295  143.6199  161.3930 C   0  0  0  0  0  0  0  0  0  0  0  0
  152.0978  142.8465  160.0919 C   0  0  0  0  0  0  0  0  0  0  0  0
  151.1587  143.2922  159.1343 C   0  0  0  0  0  0  0  0  0  0  0  0
  151.0651  142.5670  157.9523 C   0  0  0  0  0  0  0  0  0  0  0  0
  150.2548  142.7460  156.8290 N   0  3  0  0  0  0  0  0  0  0  0  0
  150.5266  141.7759  155.9126 C   0  0  0  0  0  0  0  0  0  0  0  0
  151.5010  140.9811  156.4338 N   0  0  0  0  0  0  0  0  0  0  0  0
  152.1674  139.8014  155.8661 C   0  0  0  0  0  0  0  0  0  0  0  0
  151.1703  138.7681  155.3054 C   0  0  2  0  0  0  0  0  0  0  0  0
  150.5096  139.3236  154.1844 O   0  0  0  0  0  0  0  0  0  0  0  0
  150.1185  138.3506  156.3525 C   0  0  0  0  0  0  0  0  0  0  0  0
  150.7134  137.5850  157.4819 N   0  3  2  0  0  0  0  0  0  0  0  0
  151.3445  136.3074  157.0699 C   0  0  0  0  0  0  0  0  0  0  0  0
  150.2859  135.2167  156.8281 C   0  0  0  0  0  0  0  0  0  0  0  0
  149.5056  135.0466  158.0053 O   0  0  0  0  0  0  0  0  0  0  0  0
  148.7965  136.2272  158.3654 C   0  0  1  0  0  0  0  0  0  0  0  0
  147.9407  135.9129  159.5972 C   0  0  0  0  0  0  0  0  0  0  0  0
  149.8045  137.3655  158.6372 C   0  0  0  0  0  0  0  0  0  0  0  0
  151.8646  141.4341  157.7064 C   0  0  0  0  0  0  0  0  0  0  0  0
  152.7918  140.9787  158.6404 C   0  0  0  0  0  0  0  0  0  0  0  0
  152.9031  141.7036  159.8483 C   0  0  0  0  0  0  0  0  0  0  0  0
  153.9078  141.2320  160.8858 C   0  0  0  0  0  0  0  0  0  0  0  0
  151.5347  144.4594  161.4305 H   0  0  0  0  0  0  0  0  0  0  0  0
  153.2388  144.0180  161.5003 H   0  0  0  0  0  0  0  0  0  0  0  0
  152.0188  142.9746  162.2459 H   0  0  0  0  0  0  0  0  0  0  0  0
  150.5420  144.1609  159.3134 H   0  0  0  0  0  0  0  0  0  0  0  0
  150.0574  141.6624  154.9458 H   0  0  0  0  0  0  0  0  0  0  0  0
  152.8581  140.1393  155.0924 H   0  0  0  0  0  0  0  0  0  0  0  0
  152.7778  139.3563  156.6534 H   0  0  0  0  0  0  0  0  0  0  0  0
  151.7287  137.8971  154.9660 H   0  0  0  0  0  0  0  0  0  0  0  0
  150.0909  138.6267  153.7021 H   0  0  0  0  0  0  0  0  0  0  0  0
  149.5957  139.2282  156.7329 H   0  0  0  0  0  0  0  0  0  0  0  0
  149.3602  137.7442  155.8549 H   0  0  0  0  0  0  0  0  0  0  0  0
  151.9667  136.4498  156.1858 H   0  0  0  0  0  0  0  0  0  0  0  0
  152.0165  135.9848  157.8664 H   0  0  0  0  0  0  0  0  0  0  0  0
  149.6455  135.4656  155.9806 H   0  0  0  0  0  0  0  0  0  0  0  0
  150.7721  134.2705  156.5903 H   0  0  0  0  0  0  0  0  0  0  0  0
  148.1260  136.5023  157.5503 H   0  0  0  0  0  0  0  0  0  0  0  0
  147.3616  136.7838  159.9055 H   0  0  0  0  0  0  0  0  0  0  0  0
  148.5589  135.6058  160.4413 H   0  0  0  0  0  0  0  0  0  0  0  0
  147.2389  135.1053  159.3878 H   0  0  0  0  0  0  0  0  0  0  0  0
  150.4200  137.1029  159.4988 H   0  0  0  0  0  0  0  0  0  0  0  0
  149.2825  138.2818  158.9091 H   0  0  0  0  0  0  0  0  0  0  0  0
  153.4048  140.1094  158.4548 H   0  0  0  0  0  0  0  0  0  0  0  0
  154.4533  140.3524  160.5425 H   0  0  0  0  0  0  0  0  0  0  0  0
  153.4026  140.9684  161.8153 H   0  0  0  0  0  0  0  0  0  0  0  0
  154.6373  142.0142  161.0971 H   0  0  0  0  0  0  0  0  0  0  0  0
  151.4687  138.1671  157.8164 H   0  0  0  0  0  0  0  0  0  0  0  0
  149.5676  143.4768  156.6943 H   0  0  0  0  0  0  0  0  0  0  0  0
  1  2  1  0  0  0  0
  1 23  1  0  0  0  0
  1 24  1  0  0  0  0
  1 25  1  0  0  0  0
  2 21  1  0  0  0  0
  2  3  2  0  0  0  0
  3  4  1  0  0  0  0
  3 26  1  0  0  0  0
  4 19  2  0  0  0  0
  4  5  1  0  0  0  0
  5  6  2  0  0  0  0
  5 49  1  0  0  0  0
  6  7  1  0  0  0  0
  6 27  1  0  0  0  0
  7  8  1  0  0  0  0
  7 19  1  0  0  0  0
  8  9  1  0  0  0  0
  8 28  1  0  0  0  0
  8 29  1  0  0  0  0
  9 10  1  0  0  0  0
  9 11  1  0  0  0  0
  9 30  1  0  0  0  0
 10 31  1  0  0  0  0
 11 12  1  0  0  0  0
 11 32  1  0  0  0  0
 11 33  1  0  0  0  0
 12 18  1  0  0  0  0
 12 13  1  0  0  0  0
 12 48  1  0  0  0  0
 13 14  1  0  0  0  0
 13 34  1  0  0  0  0
 13 35  1  0  0  0  0
 14 15  1  0  0  0  0
 14 36  1  0  0  0  0
 14 37  1  0  0  0  0
 15 16  1  0  0  0  0
 16 17  1  0  0  0  0
 16 18  1  0  0  0  0
 16 38  1  0  0  0  0
 17 39  1  0  0  0  0
 17 40  1  0  0  0  0
 17 41  1  0  0  0  0
 18 42  1  0  0  0  0
 18 43  1  0  0  0  0
 19 20  1  0  0  0  0
 20 21  2  0  0  0  0
 20 44  1  0  0  0  0
 21 22  1  0  0  0  0
 22 45  1  0  0  0  0
 22 46  1  0  0  0  0
 22 47  1  0  0  0  0
M  CHG  1   5   1
M  CHG  1  12   1
M  END
> <s_m_source_file>
AV-unprocessed.smi

> <i_m_source_file_index>
1554

> <i_lp_mmshare_version>
43012

> <i_f3d_flags>
0

> <s_epik_input>
W0NIM11jKFtjSF0xKWMoW0NIM10pW2NIXWMoYzEyKW4oW2NIXW4yKVtDSDJdW0NASF0oW09IXSlbQ0gyXU4zW0NIMl1bQ0gyXU9bQ0BASF0oW0NIM10pW0NIMl0z

> <s_epik_cmdline>
J2VwaWtfcHl0aG9uJywgJy1waCcsICc3LjAnLCAnLXRuJywgJzgnLCAnLW1hJywgJzIwMCcsICctbWV0YWxfYmluZGluZycsICctaW1hZScsICc8aW5maWxlLm1hZT4nLCAnLW9tYWUnLCAnPG91dGZpbGUubWFlPic=

> <r_epik_Ionization_Penalty>
1.8848

> <r_epik_Ionization_Penalty_Charging>
1.88479

> <r_epik_Ionization_Penalty_Neutral>
1.42224e-05

> <r_epik_State_Penalty>
1.94551

> <r_epik_Charging_Adjusted_Penalty>
3.8303

> <i_epik_Tot_Q>
2

> <i_epik_Tot_abs_Q>
2

> <r_epik_Metal_State_Penalty>
5.95849

> <b_epik_Metal_Only>
0

> <s_lp_Force_Field>
OPLS_2005

> <r_lp_Energy>
31.481

> <b_lp_Chiralities_Consistent>
1

> <s_lp_Variant>
AV-unprocessed.smi:1554-19

> <Gold.Version>
5.8.1

> <Gold.Id.Protein>
6NUR|6NUR_protein|mol2

> <Gold.PLP.Fitness>
52.6947

> <Gold.PLP.PLP>
-41.0431

> <Gold.PLP.part.hbond>
-3.3679

> <Gold.PLP.part.metal>
0.0000

> <Gold.PLP.part.buried>
-5.5703

> <Gold.PLP.part.nonpolar>
-31.1150

> <Gold.PLP.part.repulsive>
0.0721

> <Gold.PLP.ligand.clash>
0.0000

> <Gold.PLP.ligand.torsion>
0.1858

> <Gold.PLP.Chemscore.Hbond>
4.0000

> <Gold.PLP.Chemscore.CHOScore>
0.0000

> <Gold.PLP.Chemscore.Metal>
0.0000

> <Gold.Chemscore.Hbonds>
donor molecule, donor type, donor heavy atom, donor atom, acceptor molecule, acceptor atom, score
      L1  H     5    49       P1  8028  1.95
      P1  H  6896  6907       L1    15  1.00
      P1  H  7989  7998       L1    10  1.00

> <Gold.PLP.Chemscore.Internal.Correction>
0.0233

> <Gold.Rescore>
     Score         DG    S(hbond)    S(metal)    S(lipo)     H(rot)  DE(clash)    DE(int)     intcor
     20.25     -21.61       2.59        0.00     110.19       2.11       0.19       1.18       ----

> <Gold.Chemscore.Fitness>
20.2480

> <Gold.Chemscore.DG>
-21.6120

> <Gold.Chemscore.ZeroCoef>
-5.4800

> <Gold.Chemscore.Hbond>
2.5890

> <Gold.Chemscore.Metal>
0.0000

> <Gold.Chemscore.Lipo>
110.1879

> <Gold.Chemscore.Internal_Hbond>
0.0000

> <Gold.Chemscore.DEClash>
0.1887

> <Gold.Chemscore.DEInternal>
1.1753

> <Gold.Chemscore.Rot>
2.1122

> <Gold.Chemscore.Internal.Correction>
   9.000000E+99

> <Gold.Chemscore.Hbonds>
donor molecule, donor type, donor heavy atom, donor atom, acceptor molecule, acceptor atom, score
      L1  H     5    49       P1  8028  0.93
      P1  H  6896  6907       L1    15  0.59
      P1  H  7989  7998       L1    10  0.66

> <Gold.Chemscore.Hbond.Weighted>
-8.6472

> <Gold.Chemscore.Metal.Weighted>
-0.0000

> <Gold.Chemscore.Lipo.Weighted>
-12.8920

> <Gold.Chemscore.Internal_Hbond.Weighted>
0.0000

> <Gold.Chemscore.DEClash.Weighted>
0.1887

> <Gold.Chemscore.DEInternal.Weighted>
1.1753

> <Gold.Chemscore.Rot.Weighted>
5.4073

> <Gold.Chemscore.Internal.Correction.Weighted>
   9.000000E+99

> <Gold.Protein.RotatedTorsions>
[ 6907 6896 6895 6894 ] final  -84.19 input  -60.11 | X-H torsion
[ 7974 7965 7964 7962 ] final  155.22 input  175.53 | X-H torsion
[ 8008 7997 7996 7995 ] final  -81.22 input   59.86 | X-H torsion
[ 10167 10162 10161 10158 ] final  145.28 input  -65.29 | X-H torsion
[ 10718 10713 10712 10709 ] final  -29.83 input   66.30 | X-H torsion
[ 10763 10752 10751 10750 ] final -148.19 input  -60.55 | X-H torsion
[ 11005 11000 10999 10996 ] final  -79.07 input  -57.11 | X-H torsion

> <Gold.Protein.ActiveResidues>
 VAL166  LYS551  ARG553  GLY616  TRP617  ASP618  TYR619  PRO620  LYS621  CYS622 
 ASP623  PHE694  ASN695  SER759  ASP760  ASP761  ALA762  ILE779  LEU786  VAL792 
 PHE793  MET794  SER795  GLU796  ALA797  LYS798  CYS799  TRP800  GLU811  SER814 

> <Gold.Protein.RotatedAtoms>
  150.6878  134.3396  159.4861 H   0  0  0  0  0  0  0  0  0  0  0  0  # atno 6907 bound_to 6896
  152.1251  134.9174  160.0570 H   0  0  0  0  0  0  0  0  0  0  0  0  # atno 6908 bound_to 6896
  152.0365  133.3924  159.4356 H   0  0  0  0  0  0  0  0  0  0  0  0  # atno 6909 bound_to 6896
  144.8039  139.7039  143.6170 H   0  0  0  0  0  0  0  0  0  0  0  0  # atno 7974 bound_to 7965
  154.5961  140.0651  156.9305 H   0  0  0  0  0  0  0  0  0  0  0  0  # atno 8008 bound_to 7997
  155.2211  140.3330  155.4297 H   0  0  0  0  0  0  0  0  0  0  0  0  # atno 8009 bound_to 7997
  156.2288  140.1831  156.7279 H   0  0  0  0  0  0  0  0  0  0  0  0  # atno 8010 bound_to 7997
  139.4929  144.5913  151.6676 H   0  0  0  0  0  0  0  0  0  0  0  0  # atno 10167 bound_to 10162
  156.4075  130.4402  149.7276 H   0  0  0  0  0  0  0  0  0  0  0  0  # atno 10718 bound_to 10713
  154.8246  135.3341  154.6935 H   0  0  0  0  0  0  0  0  0  0  0  0  # atno 10763 bound_to 10752
  153.7562  135.6936  153.4939 H   0  0  0  0  0  0  0  0  0  0  0  0  # atno 10764 bound_to 10752
  153.2142  135.4471  155.0364 H   0  0  0  0  0  0  0  0  0  0  0  0  # atno 10765 bound_to 10752
  141.1666  133.7090  156.8066 H   0  0  0  0  0  0  0  0  0  0  0  0  # atno 11005 bound_to 11000
  146.2326  139.5843  142.9545 LP  0  0  0  0  0  0  0  0  0  0  0  0  # atno 17320 bound_to 7965
  145.5487  141.0415  143.2290 LP  0  0  0  0  0  0  0  0  0  0  0  0  # atno 17321 bound_to 7965
  140.5540  144.0378  150.6139 LP  0  0  0  0  0  0  0  0  0  0  0  0  # atno 17342 bound_to 10162
  140.3442  143.3001  152.0556 LP  0  0  0  0  0  0  0  0  0  0  0  0  # atno 17343 bound_to 10162
  156.4268  130.7795  151.2814 LP  0  0  0  0  0  0  0  0  0  0  0  0  # atno 17370 bound_to 10713
  157.7506  131.0166  150.3551 LP  0  0  0  0  0  0  0  0  0  0  0  0  # atno 17371 bound_to 10713
  140.2217  134.8752  157.3384 LP  0  0  0  0  0  0  0  0  0  0  0  0  # atno 17394 bound_to 11000
  140.1981  134.4289  155.7678 LP  0  0  0  0  0  0  0  0  0  0  0  0  # atno 17395 bound_to 11000

$$$$
