AV-unprocessed.smi:2804|AV-procd|sdf|10810|dock5
  -GOLD-   2272015243D 1   1.00000     0.00000
 Structure written by MMmdl.
 35 36  0  0  0  0  0  0  0  0  1 V2000
  155.9981  139.8863  161.2549 C   0  0  0  0  0  0  0  0  0  0  0  0
  155.2594  140.7529  160.2300 C   0  0  0  0  0  0  0  0  0  0  0  0
  153.9192  141.2828  160.7633 C   0  0  0  0  0  0  0  0  0  0  0  0
  153.0474  141.7098  159.6719 N   0  0  0  0  0  0  0  0  0  0  0  0
  152.7138  140.9866  158.5771 C   0  0  0  0  0  0  0  0  0  0  0  0
  153.0858  139.8402  158.3272 O   0  0  0  0  0  0  0  0  0  0  0  0
  151.9091  141.7488  157.7995 N   0  0  0  0  0  0  0  0  0  0  0  0
  151.3312  141.3681  156.5089 C   0  0  0  0  0  0  0  0  0  0  0  0
  150.4009  140.1255  156.5619 C   0  0  1  0  0  0  0  0  0  0  0  0
  149.1543  140.3972  157.1802 O   0  0  0  0  0  0  0  0  0  0  0  0
  150.1506  139.4993  155.1756 C   0  0  0  0  0  0  0  0  0  0  0  0
  149.5983  140.3968  154.3586 F   0  0  0  0  0  0  0  0  0  0  0  0
  151.2870  139.0505  154.6421 F   0  0  0  0  0  0  0  0  0  0  0  0
  149.3011  138.4788  155.2955 F   0  0  0  0  0  0  0  0  0  0  0  0
  151.7337  143.0003  158.4074 C   0  0  0  0  0  0  0  0  0  0  0  0
  151.0118  144.1346  157.9970 C   0  0  0  0  0  0  0  0  0  0  0  0
  151.0457  145.2646  158.8472 C   0  0  0  0  0  0  0  0  0  0  0  0
  151.7845  145.2409  160.0588 C   0  0  0  0  0  0  0  0  0  0  0  0
  152.5049  144.0864  160.4459 C   0  0  0  0  0  0  0  0  0  0  0  0
  152.4518  142.9766  159.5847 C   0  0  0  0  0  0  0  0  0  0  0  0
  156.9418  139.5230  160.8477 H   0  0  0  0  0  0  0  0  0  0  0  0
  155.4026  139.0183  161.5391 H   0  0  0  0  0  0  0  0  0  0  0  0
  156.2218  140.4512  162.1602 H   0  0  0  0  0  0  0  0  0  0  0  0
  155.8975  141.5897  159.9428 H   0  0  0  0  0  0  0  0  0  0  0  0
  155.0894  140.1693  159.3244 H   0  0  0  0  0  0  0  0  0  0  0  0
  153.4197  140.5112  161.3515 H   0  0  0  0  0  0  0  0  0  0  0  0
  154.0865  142.1184  161.4437 H   0  0  0  0  0  0  0  0  0  0  0  0
  150.8011  142.2234  156.0879 H   0  0  0  0  0  0  0  0  0  0  0  0
  152.1457  141.1772  155.8097 H   0  0  0  0  0  0  0  0  0  0  0  0
  150.8873  139.3718  157.1826 H   0  0  0  0  0  0  0  0  0  0  0  0
  148.6293  140.9090  156.5841 H   0  0  0  0  0  0  0  0  0  0  0  0
  150.4551  144.1487  157.0718 H   0  0  0  0  0  0  0  0  0  0  0  0
  150.5039  146.1570  158.5701 H   0  0  0  0  0  0  0  0  0  0  0  0
  151.7983  146.1155  160.6925 H   0  0  0  0  0  0  0  0  0  0  0  0
  153.0720  144.0645  161.3644 H   0  0  0  0  0  0  0  0  0  0  0  0
  1  2  1  0  0  0  0
  1 21  1  0  0  0  0
  1 22  1  0  0  0  0
  1 23  1  0  0  0  0
  2  3  1  0  0  0  0
  2 24  1  0  0  0  0
  2 25  1  0  0  0  0
  3  4  1  0  0  0  0
  3 26  1  0  0  0  0
  3 27  1  0  0  0  0
  4 20  1  0  0  0  0
  4  5  1  0  0  0  0
  5  6  2  0  0  0  0
  5  7  1  0  0  0  0
  7  8  1  0  0  0  0
  7 15  1  0  0  0  0
  8  9  1  0  0  0  0
  8 28  1  0  0  0  0
  8 29  1  0  0  0  0
  9 10  1  0  0  0  0
  9 11  1  0  0  0  0
  9 30  1  0  0  0  0
 10 31  1  0  0  0  0
 11 12  1  0  0  0  0
 11 13  1  0  0  0  0
 11 14  1  0  0  0  0
 15 20  2  0  0  0  0
 15 16  1  0  0  0  0
 16 17  2  0  0  0  0
 16 32  1  0  0  0  0
 17 18  1  0  0  0  0
 17 33  1  0  0  0  0
 18 19  2  0  0  0  0
 18 34  1  0  0  0  0
 19 20  1  0  0  0  0
 19 35  1  0  0  0  0
M  END
> <s_m_source_file>
AV-unprocessed.smi

> <i_m_source_file_index>
2804

> <i_lp_mmshare_version>
43012

> <i_f3d_flags>
0

> <s_epik_input>
W2NIXTFbY0hdW2NIXVtjSF1jKGMxMiluKFtDSDJdW0NIMl1bQ0gzXSljKD1PKW4yW0NIMl1bQ0BIXShbT0hdKUMoRikoRilG

> <s_epik_cmdline>
J2VwaWtfcHl0aG9uJywgJy1waCcsICc3LjAnLCAnLXRuJywgJzgnLCAnLW1hJywgJzIwMCcsICctbWV0YWxfYmluZGluZycsICctaW1hZScsICc8aW5maWxlLm1hZT4nLCAnLW9tYWUnLCAnPG91dGZpbGUubWFlPic=

> <r_epik_Ionization_Penalty>
0.0117937

> <r_epik_Ionization_Penalty_Charging>
3.30828e-09

> <r_epik_Ionization_Penalty_Neutral>
0.0117937

> <r_epik_State_Penalty>
0.00909547

> <r_epik_Charging_Adjusted_Penalty>
0.00909547

> <i_epik_Tot_Q>
0

> <i_epik_Tot_abs_Q>
0

> <r_epik_Metal_State_Penalty>
0.00909547

> <b_epik_Metal_Only>
0

> <s_lp_Force_Field>
OPLS_2005

> <r_lp_Energy>
49.0105

> <b_lp_Chiralities_Consistent>
1

> <s_lp_Variant>
AV-unprocessed.smi:2804-2

> <Gold.Version>
5.8.1

> <Gold.Id.Protein>
6NUR|6NUR_protein|mol2

> <Gold.PLP.Fitness>
48.1968

> <Gold.PLP.PLP>
-45.7220

> <Gold.PLP.part.hbond>
-1.0000

> <Gold.PLP.part.metal>
0.0000

> <Gold.PLP.part.buried>
-2.7728

> <Gold.PLP.part.nonpolar>
-39.3671

> <Gold.PLP.part.repulsive>
0.0000

> <Gold.PLP.ligand.clash>
0.0000

> <Gold.PLP.ligand.torsion>
0.3104

> <Gold.PLP.Chemscore.Hbond>
1.0000

> <Gold.PLP.Chemscore.CHOScore>
0.0000

> <Gold.PLP.Chemscore.Metal>
0.0000

> <Gold.Chemscore.Hbonds>
donor molecule, donor type, donor heavy atom, donor atom, acceptor molecule, acceptor atom, score
      P1  H  7997  8010       L1     6  1.00

> <Gold.PLP.Chemscore.Internal.Correction>
0.0957

> <Gold.Rescore>
     Score         DG    S(hbond)    S(metal)    S(lipo)     H(rot)  DE(clash)    DE(int)     intcor
     13.97     -14.31       0.54        0.00     110.68       2.32       0.05       0.28       ----

> <Gold.Chemscore.Fitness>
13.9733

> <Gold.Chemscore.DG>
-14.3113

> <Gold.Chemscore.ZeroCoef>
-5.4800

> <Gold.Chemscore.Hbond>
0.5413

> <Gold.Chemscore.Metal>
0.0000

> <Gold.Chemscore.Lipo>
110.6836

> <Gold.Chemscore.Internal_Hbond>
0.0000

> <Gold.Chemscore.DEClash>
0.0533

> <Gold.Chemscore.DEInternal>
0.2846

> <Gold.Chemscore.Rot>
2.3152

> <Gold.Chemscore.Internal.Correction>
   9.000000E+99

> <Gold.Chemscore.Hbonds>
donor molecule, donor type, donor heavy atom, donor atom, acceptor molecule, acceptor atom, score
      P1  H  7997  8010       L1     6  0.48

> <Gold.Chemscore.Hbond.Weighted>
-1.8081

> <Gold.Chemscore.Metal.Weighted>
-0.0000

> <Gold.Chemscore.Lipo.Weighted>
-12.9500

> <Gold.Chemscore.Internal_Hbond.Weighted>
0.0000

> <Gold.Chemscore.DEClash.Weighted>
0.0533

> <Gold.Chemscore.DEInternal.Weighted>
0.2846

> <Gold.Chemscore.Rot.Weighted>
5.9268

> <Gold.Chemscore.Internal.Correction.Weighted>
   9.000000E+99

> <Gold.Protein.RotatedTorsions>
[ 6907 6896 6895 6894 ] final  124.56 input  -60.11 | X-H torsion
[ 7974 7965 7964 7962 ] final  -29.95 input  175.53 | X-H torsion
[ 8008 7997 7996 7995 ] final   33.88 input   59.86 | X-H torsion
[ 10167 10162 10161 10158 ] final   38.33 input  -65.29 | X-H torsion
[ 10718 10713 10712 10709 ] final  161.22 input   66.30 | X-H torsion
[ 10763 10752 10751 10750 ] final   24.55 input  -60.55 | X-H torsion
[ 11005 11000 10999 10996 ] final -137.08 input  -57.11 | X-H torsion

> <Gold.Protein.ActiveResidues>
 VAL166  LYS551  ARG553  GLY616  TRP617  ASP618  TYR619  PRO620  LYS621  CYS622 
 ASP623  PHE694  ASN695  SER759  ASP760  ASP761  ALA762  ILE779  LEU786  VAL792 
 PHE793  MET794  SER795  GLU796  ALA797  LYS798  CYS799  TRP800  GLU811  SER814 

> <Gold.Protein.RotatedAtoms>
  152.4068  133.6901  159.6362 H   0  0  0  0  0  0  0  0  0  0  0  0  # atno 6907 bound_to 6896
  150.7952  133.8695  159.3263 H   0  0  0  0  0  0  0  0  0  0  0  0  # atno 6908 bound_to 6896
  151.6447  135.1010  160.0200 H   0  0  0  0  0  0  0  0  0  0  0  0  # atno 6909 bound_to 6896
  146.1179  140.5478  142.8748 H   0  0  0  0  0  0  0  0  0  0  0  0  # atno 7974 bound_to 7965
  155.1458  140.3270  155.4442 H   0  0  0  0  0  0  0  0  0  0  0  0  # atno 8008 bound_to 7997
  156.2590  140.1985  156.6521 H   0  0  0  0  0  0  0  0  0  0  0  0  # atno 8009 bound_to 7997
  154.6509  140.0558  156.9941 H   0  0  0  0  0  0  0  0  0  0  0  0  # atno 8010 bound_to 7997
  140.3947  144.1805  150.6131 H   0  0  0  0  0  0  0  0  0  0  0  0  # atno 10167 bound_to 10162
  157.1396  131.0537  151.2333 H   0  0  0  0  0  0  0  0  0  0  0  0  # atno 10718 bound_to 10713
  153.0755  135.6603  154.0154 H   0  0  0  0  0  0  0  0  0  0  0  0  # atno 10763 bound_to 10752
  153.9789  135.2957  155.3423 H   0  0  0  0  0  0  0  0  0  0  0  0  # atno 10764 bound_to 10752
  154.7142  135.5192  153.8783 H   0  0  0  0  0  0  0  0  0  0  0  0  # atno 10765 bound_to 10752
  140.8744  134.2010  157.4631 H   0  0  0  0  0  0  0  0  0  0  0  0  # atno 11005 bound_to 11000
  144.7570  140.5330  143.6762 LP  0  0  0  0  0  0  0  0  0  0  0  0  # atno 17320 bound_to 7965
  145.5528  139.1477  143.3384 LP  0  0  0  0  0  0  0  0  0  0  0  0  # atno 17321 bound_to 7965
  140.4803  143.2381  151.8964 LP  0  0  0  0  0  0  0  0  0  0  0  0  # atno 17342 bound_to 10162
  139.4787  144.5276  151.8713 LP  0  0  0  0  0  0  0  0  0  0  0  0  # atno 17343 bound_to 10162
  157.4319  130.7495  149.6997 LP  0  0  0  0  0  0  0  0  0  0  0  0  # atno 17370 bound_to 10713
  155.9791  130.4043  150.3606 LP  0  0  0  0  0  0  0  0  0  0  0  0  # atno 17371 bound_to 10713
  139.8714  134.9789  156.5015 LP  0  0  0  0  0  0  0  0  0  0  0  0  # atno 17394 bound_to 11000
  140.8535  133.8114  155.9192 LP  0  0  0  0  0  0  0  0  0  0  0  0  # atno 17395 bound_to 11000

$$$$
