AV-unprocessed.smi:1604|AV-procd|sdf|6448|dock2
  -GOLD-   22720 7103D 1   1.00000     0.00000
 Structure written by MMmdl.
 46 48  0  0  0  0  0  0  0  0  1 V2000
  145.1971  137.7077  153.1028 O   0  0  0  0  0  0  0  0  0  0  0  0
  146.3055  137.2773  152.7844 C   0  0  0  0  0  0  0  0  0  0  0  0
  147.4723  137.9124  152.9830 N   0  0  0  0  0  0  0  0  0  0  0  0
  147.6854  139.2204  153.5037 C   0  0  0  0  0  0  0  0  0  0  0  0
  146.8174  140.3007  153.2124 C   0  0  0  0  0  0  0  0  0  0  0  0
  147.0689  141.5586  153.7882 C   0  0  0  0  0  0  0  0  0  0  0  0
  148.1752  141.6902  154.6451 C   0  0  0  0  0  0  0  0  0  0  0  0
  149.0010  140.6676  154.9452 N   0  0  0  0  0  0  0  0  0  0  0  0
  148.7664  139.4496  154.3983 C   0  0  0  0  0  0  0  0  0  0  0  0
  149.6642  138.4068  154.7133 N   0  0  0  0  0  0  0  0  0  0  0  0
  150.9868  138.5573  154.1132 C   0  0  0  0  0  0  0  0  0  0  0  0
  151.9818  137.9616  155.1099 C   0  0  0  0  0  0  0  0  0  0  0  0
  151.2899  138.1746  156.4503 C   0  0  0  0  0  0  0  0  0  0  0  0
  149.8166  137.9692  156.1007 C   0  0  0  0  0  0  0  0  0  0  0  0
  146.4959  136.1005  152.1699 N   0  0  0  0  0  0  0  0  0  0  0  0
  145.4423  135.1488  151.8104 C   0  0  1  0  0  0  0  0  0  0  0  0
  146.0936  134.0329  150.9615 C   0  0  0  0  0  0  0  0  0  0  0  0
  145.0972  133.2664  150.0744 C   0  0  0  0  0  0  0  0  0  0  0  0
  144.0457  132.4478  150.8384 C   0  0  0  0  0  0  0  0  0  0  0  0
  143.1131  133.3021  151.7136 C   0  0  0  0  0  0  0  0  0  0  0  0
  143.7538  133.7191  152.9539 N   0  0  0  0  0  0  0  0  0  0  0  0
  144.8200  134.5237  153.0806 C   0  0  0  0  0  0  0  0  0  0  0  0
  145.2954  134.7541  154.1925 O   0  0  0  0  0  0  0  0  0  0  0  0
  148.2922  137.4628  152.6026 H   0  0  0  0  0  0  0  0  0  0  0  0
  145.9561  140.1828  152.5728 H   0  0  0  0  0  0  0  0  0  0  0  0
  146.4246  142.4004  153.5825 H   0  0  0  0  0  0  0  0  0  0  0  0
  148.4004  142.6401  155.1066 H   0  0  0  0  0  0  0  0  0  0  0  0
  151.0444  138.0525  153.1488 H   0  0  0  0  0  0  0  0  0  0  0  0
  151.2059  139.6141  153.9517 H   0  0  0  0  0  0  0  0  0  0  0  0
  152.1006  136.8937  154.9223 H   0  0  0  0  0  0  0  0  0  0  0  0
  152.9663  138.4268  155.0562 H   0  0  0  0  0  0  0  0  0  0  0  0
  151.6415  137.4953  157.2273 H   0  0  0  0  0  0  0  0  0  0  0  0
  151.4521  139.1974  156.7926 H   0  0  0  0  0  0  0  0  0  0  0  0
  149.1609  138.4704  156.8124 H   0  0  0  0  0  0  0  0  0  0  0  0
  149.5711  136.9077  156.1399 H   0  0  0  0  0  0  0  0  0  0  0  0
  147.4429  135.8283  151.9515 H   0  0  0  0  0  0  0  0  0  0  0  0
  144.6741  135.6633  151.2302 H   0  0  0  0  0  0  0  0  0  0  0  0
  146.8325  134.4805  150.2947 H   0  0  0  0  0  0  0  0  0  0  0  0
  146.6530  133.3377  151.5902 H   0  0  0  0  0  0  0  0  0  0  0  0
  144.5954  133.9666  149.4053 H   0  0  0  0  0  0  0  0  0  0  0  0
  145.6580  132.5905  149.4284 H   0  0  0  0  0  0  0  0  0  0  0  0
  143.4383  131.9125  150.1079 H   0  0  0  0  0  0  0  0  0  0  0  0
  144.5313  131.6801  151.4425 H   0  0  0  0  0  0  0  0  0  0  0  0
  142.7385  134.1681  151.1657 H   0  0  0  0  0  0  0  0  0  0  0  0
  142.2389  132.7112  151.9877 H   0  0  0  0  0  0  0  0  0  0  0  0
  143.3670  133.3361  153.8044 H   0  0  0  0  0  0  0  0  0  0  0  0
  1  2  2  0  0  0  0
  2  3  1  0  0  0  0
  2 15  1  0  0  0  0
  3  4  1  0  0  0  0
  3 24  1  0  0  0  0
  4  9  1  0  0  0  0
  4  5  2  0  0  0  0
  5  6  1  0  0  0  0
  5 25  1  0  0  0  0
  6  7  2  0  0  0  0
  6 26  1  0  0  0  0
  7  8  1  0  0  0  0
  7 27  1  0  0  0  0
  8  9  2  0  0  0  0
  9 10  1  0  0  0  0
 10 14  1  0  0  0  0
 10 11  1  0  0  0  0
 11 12  1  0  0  0  0
 11 28  1  0  0  0  0
 11 29  1  0  0  0  0
 12 13  1  0  0  0  0
 12 30  1  0  0  0  0
 12 31  1  0  0  0  0
 13 14  1  0  0  0  0
 13 32  1  0  0  0  0
 13 33  1  0  0  0  0
 14 34  1  0  0  0  0
 14 35  1  0  0  0  0
 15 16  1  0  0  0  0
 15 36  1  0  0  0  0
 16 22  1  0  0  0  0
 16 17  1  0  0  0  0
 16 37  1  0  0  0  0
 17 18  1  0  0  0  0
 17 38  1  0  0  0  0
 17 39  1  0  0  0  0
 18 19  1  0  0  0  0
 18 40  1  0  0  0  0
 18 41  1  0  0  0  0
 19 20  1  0  0  0  0
 19 42  1  0  0  0  0
 19 43  1  0  0  0  0
 20 21  1  0  0  0  0
 20 44  1  0  0  0  0
 20 45  1  0  0  0  0
 21 22  1  0  0  0  0
 21 46  1  0  0  0  0
 22 23  2  0  0  0  0
M  END
> <s_m_source_file>
AV-unprocessed.smi

> <i_m_source_file_index>
1604

> <i_lp_mmshare_version>
43012

> <i_f3d_flags>
0

> <s_epik_input>
Tz1DMVtOSF1bQ0gyXVtDSDJdW0NIMl1bQ0gyXVtDQEhdMVtOSF1DKD1PKVtOSF1jMltjSF1bY0hdW2NIXW5jMk4zW0NIMl1bQ0gyXVtDSDJdW0NIMl0z

> <s_epik_cmdline>
J2VwaWtfcHl0aG9uJywgJy1waCcsICc3LjAnLCAnLXRuJywgJzgnLCAnLW1hJywgJzIwMCcsICctbWV0YWxfYmluZGluZycsICctaW1hZScsICc8aW5maWxlLm1hZT4nLCAnLW9tYWUnLCAnPG91dGZpbGUubWFlPic=

> <r_lp_tautomer_probability>
1

> <r_epik_Ionization_Penalty>
0.0837267

> <r_epik_Ionization_Penalty_Charging>
0

> <r_epik_Ionization_Penalty_Neutral>
0.0837267

> <r_epik_State_Penalty>
0.0738331

> <r_epik_Charging_Adjusted_Penalty>
0.0738331

> <i_epik_Tot_Q>
0

> <i_epik_Tot_abs_Q>
0

> <r_epik_Metal_State_Penalty>
0.0646802

> <b_epik_Metal_Only>
0

> <s_lp_Force_Field>
OPLS_2005

> <r_lp_Energy>
39.7297

> <b_lp_Chiralities_Consistent>
1

> <s_lp_Variant>
AV-unprocessed.smi:1604-2

> <Gold.Version>
5.8.1

> <Gold.Id.Protein>
6NUR|6NUR_protein|mol2

> <Gold.PLP.Fitness>
43.6740

> <Gold.PLP.PLP>
-32.5553

> <Gold.PLP.part.hbond>
-2.6247

> <Gold.PLP.part.metal>
0.0000

> <Gold.PLP.part.buried>
-2.3078

> <Gold.PLP.part.nonpolar>
-27.4376

> <Gold.PLP.part.repulsive>
0.6367

> <Gold.PLP.ligand.clash>
0.0000

> <Gold.PLP.ligand.torsion>
0.4681

> <Gold.PLP.Chemscore.Hbond>
2.9680

> <Gold.PLP.Chemscore.CHOScore>
1.0000

> <Gold.PLP.Chemscore.Metal>
0.0000

> <Gold.Chemscore.Hbonds>
donor molecule, donor type, donor heavy atom, donor atom, acceptor molecule, acceptor atom, score
      L1  H     3    24       P1  7948  1.00
      L1  H    15    36       P1  7948  0.99
      L1  H    21    46       P1 10957  0.96
      L1  C     7    27       P1  8028  1.00

> <Gold.PLP.Chemscore.Internal.Correction>
0.1510

> <Gold.Rescore>
     Score         DG    S(hbond)    S(metal)    S(lipo)     H(rot)  DE(clash)    DE(int)     intcor
     20.00     -21.58       2.87        0.00      82.96       1.25       0.15       1.43       ----

> <Gold.Chemscore.Fitness>
19.9985

> <Gold.Chemscore.DG>
-21.5828

> <Gold.Chemscore.ZeroCoef>
-5.4800

> <Gold.Chemscore.Hbond>
2.8703

> <Gold.Chemscore.Metal>
0.0000

> <Gold.Chemscore.Lipo>
82.9560

> <Gold.Chemscore.Internal_Hbond>
0.0000

> <Gold.Chemscore.DEClash>
0.1521

> <Gold.Chemscore.DEInternal>
1.4322

> <Gold.Chemscore.Rot>
1.2461

> <Gold.Chemscore.Internal.Correction>
   9.000000E+99

> <Gold.Chemscore.Hbonds>
donor molecule, donor type, donor heavy atom, donor atom, acceptor molecule, acceptor atom, score
      L1  H     3    24       P1  7948  0.92
      L1  H    15    36       P1  7948  0.87
      L1  H    21    46       P1 10957  0.90

> <Gold.Chemscore.Hbond.Weighted>
-9.5868

> <Gold.Chemscore.Metal.Weighted>
-0.0000

> <Gold.Chemscore.Lipo.Weighted>
-9.7059

> <Gold.Chemscore.Internal_Hbond.Weighted>
0.0000

> <Gold.Chemscore.DEClash.Weighted>
0.1521

> <Gold.Chemscore.DEInternal.Weighted>
1.4322

> <Gold.Chemscore.Rot.Weighted>
3.1899

> <Gold.Chemscore.Internal.Correction.Weighted>
   9.000000E+99

> <Gold.Protein.RotatedTorsions>
[ 6907 6896 6895 6894 ] final -161.58 input  -60.11 | X-H torsion
[ 7974 7965 7964 7962 ] final -100.90 input  175.53 | X-H torsion
[ 8008 7997 7996 7995 ] final  129.10 input   59.86 | X-H torsion
[ 10167 10162 10161 10158 ] final   23.96 input  -65.29 | X-H torsion
[ 10718 10713 10712 10709 ] final   92.64 input   66.30 | X-H torsion
[ 10763 10752 10751 10750 ] final -139.65 input  -60.55 | X-H torsion
[ 11005 11000 10999 10996 ] final  -15.42 input  -57.11 | X-H torsion

> <Gold.Protein.ActiveResidues>
 VAL166  LYS551  ARG553  GLY616  TRP617  ASP618  TYR619  PRO620  LYS621  CYS622 
 ASP623  PHE694  ASN695  SER759  ASP760  ASP761  ALA762  ILE779  LEU786  VAL792 
 PHE793  MET794  SER795  GLU796  ALA797  LYS798  CYS799  TRP800  GLU811  SER814 

> <Gold.Protein.RotatedAtoms>
  151.3668  133.3869  159.2695 H   0  0  0  0  0  0  0  0  0  0  0  0  # atno 6907 bound_to 6896
  150.9682  134.9060  159.7782 H   0  0  0  0  0  0  0  0  0  0  0  0  # atno 6908 bound_to 6896
  152.5175  134.3630  159.9343 H   0  0  0  0  0  0  0  0  0  0  0  0  # atno 6909 bound_to 6896
  145.2886  140.9346  143.2891 H   0  0  0  0  0  0  0  0  0  0  0  0  # atno 7974 bound_to 7965
  156.2929  140.2628  156.2544 H   0  0  0  0  0  0  0  0  0  0  0  0  # atno 8008 bound_to 7997
  154.9851  140.0389  157.2313 H   0  0  0  0  0  0  0  0  0  0  0  0  # atno 8009 bound_to 7997
  154.7737  140.2782  155.6123 H   0  0  0  0  0  0  0  0  0  0  0  0  # atno 8010 bound_to 7997
  140.5226  143.9976  150.6424 H   0  0  0  0  0  0  0  0  0  0  0  0  # atno 10167 bound_to 10162
  157.6958  131.0450  150.3913 H   0  0  0  0  0  0  0  0  0  0  0  0  # atno 10718 bound_to 10713
  154.8603  135.3576  154.5581 H   0  0  0  0  0  0  0  0  0  0  0  0  # atno 10763 bound_to 10752
  153.6197  135.7006  153.5320 H   0  0  0  0  0  0  0  0  0  0  0  0  # atno 10764 bound_to 10752
  153.3139  135.4170  155.1320 H   0  0  0  0  0  0  0  0  0  0  0  0  # atno 10765 bound_to 10752
  140.7965  133.8247  155.9429 H   0  0  0  0  0  0  0  0  0  0  0  0  # atno 11005 bound_to 11000
  144.9192  139.4432  143.6549 LP  0  0  0  0  0  0  0  0  0  0  0  0  # atno 17320 bound_to 7965
  146.3192  139.8043  142.8959 LP  0  0  0  0  0  0  0  0  0  0  0  0  # atno 17321 bound_to 7965
  140.3329  143.3066  152.0668 LP  0  0  0  0  0  0  0  0  0  0  0  0  # atno 17342 bound_to 10162
  139.4928  144.6496  151.6704 LP  0  0  0  0  0  0  0  0  0  0  0  0  # atno 17343 bound_to 10162
  156.4316  130.3973  149.6757 LP  0  0  0  0  0  0  0  0  0  0  0  0  # atno 17370 bound_to 10713
  156.3972  130.7656  151.2662 LP  0  0  0  0  0  0  0  0  0  0  0  0  # atno 17371 bound_to 10713
  140.9338  134.1988  157.4846 LP  0  0  0  0  0  0  0  0  0  0  0  0  # atno 17394 bound_to 11000
  139.8726  134.9843  156.5236 LP  0  0  0  0  0  0  0  0  0  0  0  0  # atno 17395 bound_to 11000

$$$$
