AV-unprocessed.smi:2916|AV-procd|sdf|11188|dock4
  -GOLD-   2272016 83D 1   1.00000     0.00000
 Structure written by MMmdl.
 38 39  0  0  0  0  0  0  0  0  2 V2000
  148.2784  139.9779  153.3339 N   0  0  0  0  0  0  0  0  0  0  0  0
  149.0984  140.0989  154.3836 C   0  0  0  0  0  0  0  0  0  0  0  0
  150.3180  140.1345  154.2318 O   0  0  0  0  0  0  0  0  0  0  0  0
  148.4617  140.2394  155.7923 C   0  0  0  0  0  0  0  0  0  0  0  0
  149.5648  140.3638  156.7843 N   0  3  0  0  0  0  0  0  0  0  0  0
  150.1977  141.6938  156.9669 C   0  0  0  0  0  0  0  0  0  0  0  0
  151.0333  141.7335  158.2580 C   0  0  0  0  0  0  0  0  0  0  0  0
  151.4180  143.0820  158.6389 N   0  0  0  0  0  0  0  0  0  0  0  0
  151.2610  144.2505  157.9233 C   0  0  0  0  0  0  0  0  0  0  0  0
  151.7864  145.2617  158.6752 C   0  0  0  0  0  0  0  0  0  0  0  0
  152.2608  144.6035  159.8440 C   0  0  0  0  0  0  0  0  0  0  0  0
  152.0429  143.2988  159.8167 N   0  0  0  0  0  0  0  0  0  0  0  0
  147.6073  141.5358  155.8906 C   0  0  0  0  0  0  0  0  0  0  0  0
  146.3264  141.4972  155.0375 C   0  0  0  0  0  0  0  0  0  0  0  0
  145.4473  140.3029  155.4293 C   0  0  0  0  0  0  0  0  0  0  0  0
  146.2306  138.9876  155.3275 C   0  0  0  0  0  0  0  0  0  0  0  0
  147.5339  139.0373  156.1513 C   0  0  0  0  0  0  0  0  0  0  0  0
  148.6687  139.8600  152.4095 H   0  0  0  0  0  0  0  0  0  0  0  0
  147.2771  139.9791  153.4637 H   0  0  0  0  0  0  0  0  0  0  0  0
  149.2084  140.0631  157.6798 H   0  0  0  0  0  0  0  0  0  0  0  0
  150.8357  141.9342  156.1170 H   0  0  0  0  0  0  0  0  0  0  0  0
  149.4336  142.4694  157.0170 H   0  0  0  0  0  0  0  0  0  0  0  0
  150.4693  141.2956  159.0824 H   0  0  0  0  0  0  0  0  0  0  0  0
  151.9355  141.1318  158.1408 H   0  0  0  0  0  0  0  0  0  0  0  0
  150.7917  144.2666  156.9506 H   0  0  0  0  0  0  0  0  0  0  0  0
  151.8305  146.3116  158.4259 H   0  0  0  0  0  0  0  0  0  0  0  0
  152.7546  145.0314  160.7040 H   0  0  0  0  0  0  0  0  0  0  0  0
  147.3178  141.6932  156.9310 H   0  0  0  0  0  0  0  0  0  0  0  0
  148.1932  142.4162  155.6238 H   0  0  0  0  0  0  0  0  0  0  0  0
  145.7668  142.4235  155.1710 H   0  0  0  0  0  0  0  0  0  0  0  0
  146.5771  141.4422  153.9777 H   0  0  0  0  0  0  0  0  0  0  0  0
  145.0853  140.4345  156.4500 H   0  0  0  0  0  0  0  0  0  0  0  0
  144.5642  140.2625  154.7908 H   0  0  0  0  0  0  0  0  0  0  0  0
  145.6081  138.1629  155.6755 H   0  0  0  0  0  0  0  0  0  0  0  0
  146.4510  138.7761  154.2811 H   0  0  0  0  0  0  0  0  0  0  0  0
  148.0531  138.0868  156.0240 H   0  0  0  0  0  0  0  0  0  0  0  0
  147.2719  139.0907  157.2092 H   0  0  0  0  0  0  0  0  0  0  0  0
  150.2956  139.7246  156.5048 H   0  0  0  0  0  0  0  0  0  0  0  0
  1  2  1  0  0  0  0
  1 18  1  0  0  0  0
  1 19  1  0  0  0  0
  2  3  2  0  0  0  0
  2  4  1  0  0  0  0
  4 17  1  0  0  0  0
  4  5  1  0  0  0  0
  4 13  1  0  0  0  0
  5  6  1  0  0  0  0
  5 20  1  0  0  0  0
  5 38  1  0  0  0  0
  6  7  1  0  0  0  0
  6 21  1  0  0  0  0
  6 22  1  0  0  0  0
  7  8  1  0  0  0  0
  7 23  1  0  0  0  0
  7 24  1  0  0  0  0
  8 12  1  0  0  0  0
  8  9  1  0  0  0  0
  9 10  2  0  0  0  0
  9 25  1  0  0  0  0
 10 11  1  0  0  0  0
 10 26  1  0  0  0  0
 11 12  2  0  0  0  0
 11 27  1  0  0  0  0
 13 14  1  0  0  0  0
 13 28  1  0  0  0  0
 13 29  1  0  0  0  0
 14 15  1  0  0  0  0
 14 30  1  0  0  0  0
 14 31  1  0  0  0  0
 15 16  1  0  0  0  0
 15 32  1  0  0  0  0
 15 33  1  0  0  0  0
 16 17  1  0  0  0  0
 16 34  1  0  0  0  0
 16 35  1  0  0  0  0
 17 36  1  0  0  0  0
 17 37  1  0  0  0  0
M  CHG  1   5   1
M  END
> <s_m_source_file>
AV-unprocessed.smi

> <i_m_source_file_index>
2916

> <i_lp_mmshare_version>
43012

> <i_f3d_flags>
0

> <s_epik_input>
W0NIMl0xW0NIMl1bQ0gyXVtDSDJdW0NIMl1DMShDKD1PKVtOSDJdKVtOSF1bQ0gyXVtDSDJdbjJbY0hdW2NIXVtjSF1uMg==

> <s_epik_cmdline>
J2VwaWtfcHl0aG9uJywgJy1waCcsICc3LjAnLCAnLXRuJywgJzgnLCAnLW1hJywgJzIwMCcsICctbWV0YWxfYmluZGluZycsICctaW1hZScsICc8aW5maWxlLm1hZT4nLCAnLW9tYWUnLCAnPG91dGZpbGUubWFlPic=

> <r_lp_tautomer_probability>
1

> <r_epik_Ionization_Penalty>
0.147888

> <r_epik_Ionization_Penalty_Charging>
0.147883

> <r_epik_Ionization_Penalty_Neutral>
4.65475e-06

> <r_epik_State_Penalty>
0.137176

> <r_epik_Charging_Adjusted_Penalty>
0.285059

> <i_epik_Tot_Q>
1

> <i_epik_Tot_abs_Q>
1

> <r_epik_Metal_State_Penalty>
0.137393

> <b_epik_Metal_Only>
0

> <s_lp_Force_Field>
OPLS_2005

> <r_lp_Energy>
14.4928

> <b_lp_Chiralities_Consistent>
1

> <s_lp_Variant>
AV-unprocessed.smi:2916-1

> <Gold.Version>
5.8.1

> <Gold.Id.Protein>
6NUR|6NUR_protein|mol2

> <Gold.PLP.Fitness>
36.8919

> <Gold.PLP.PLP>
-28.8597

> <Gold.PLP.part.hbond>
-1.9282

> <Gold.PLP.part.metal>
0.0000

> <Gold.PLP.part.buried>
-5.3502

> <Gold.PLP.part.nonpolar>
-22.4041

> <Gold.PLP.part.repulsive>
0.3110

> <Gold.PLP.ligand.clash>
0.0000

> <Gold.PLP.ligand.torsion>
0.5219

> <Gold.PLP.Chemscore.Hbond>
2.0000

> <Gold.PLP.Chemscore.CHOScore>
1.0000

> <Gold.PLP.Chemscore.Metal>
0.0000

> <Gold.Chemscore.Hbonds>
donor molecule, donor type, donor heavy atom, donor atom, acceptor molecule, acceptor atom, score
      L1  H     1    18       P1  7957  1.00
      P1  H  7989  7998       L1     3  1.00
      L1  C     9    25       P1  8028  1.00

> <Gold.PLP.Chemscore.Internal.Correction>
0.0760

> <Gold.Rescore>
     Score         DG    S(hbond)    S(metal)    S(lipo)     H(rot)  DE(clash)    DE(int)     intcor
     11.76     -14.25       1.97        0.00      68.36       2.26       0.02       2.47       ----

> <Gold.Chemscore.Fitness>
11.7632

> <Gold.Chemscore.DG>
-14.2535

> <Gold.Chemscore.ZeroCoef>
-5.4800

> <Gold.Chemscore.Hbond>
1.9660

> <Gold.Chemscore.Metal>
0.0000

> <Gold.Chemscore.Lipo>
68.3553

> <Gold.Chemscore.Internal_Hbond>
0.0000

> <Gold.Chemscore.DEClash>
0.0210

> <Gold.Chemscore.DEInternal>
2.4693

> <Gold.Chemscore.Rot>
2.2619

> <Gold.Chemscore.Internal.Correction>
   9.000000E+99

> <Gold.Chemscore.Hbonds>
donor molecule, donor type, donor heavy atom, donor atom, acceptor molecule, acceptor atom, score
      L1  H     1    18       P1  7957  0.97
      P1  H  7989  7998       L1     3  0.97

> <Gold.Chemscore.Hbond.Weighted>
-6.5664

> <Gold.Chemscore.Metal.Weighted>
-0.0000

> <Gold.Chemscore.Lipo.Weighted>
-7.9976

> <Gold.Chemscore.Internal_Hbond.Weighted>
0.0000

> <Gold.Chemscore.DEClash.Weighted>
0.0210

> <Gold.Chemscore.DEInternal.Weighted>
2.4693

> <Gold.Chemscore.Rot.Weighted>
5.7904

> <Gold.Chemscore.Internal.Correction.Weighted>
   9.000000E+99

> <Gold.Protein.RotatedTorsions>
[ 6907 6896 6895 6894 ] final -173.20 input  -60.11 | X-H torsion
[ 7974 7965 7964 7962 ] final   76.49 input  175.53 | X-H torsion
[ 8008 7997 7996 7995 ] final -128.34 input   59.86 | X-H torsion
[ 10167 10162 10161 10158 ] final   95.94 input  -65.29 | X-H torsion
[ 10718 10713 10712 10709 ] final    1.76 input   66.30 | X-H torsion
[ 10763 10752 10751 10750 ] final  137.99 input  -60.55 | X-H torsion
[ 11005 11000 10999 10996 ] final   12.72 input  -57.11 | X-H torsion

> <Gold.Protein.ActiveResidues>
 VAL166  LYS551  ARG553  GLY616  TRP617  ASP618  TYR619  PRO620  LYS621  CYS622 
 ASP623  PHE694  ASN695  SER759  ASP760  ASP761  ALA762  ILE779  LEU786  VAL792 
 PHE793  MET794  SER795  GLU796  ALA797  LYS798  CYS799  TRP800  GLU811  SER814 

> <Gold.Protein.RotatedAtoms>
  151.5524  133.3415  159.2955 H   0  0  0  0  0  0  0  0  0  0  0  0  # atno 6907 bound_to 6896
  150.8471  134.7786  159.6990 H   0  0  0  0  0  0  0  0  0  0  0  0  # atno 6908 bound_to 6896
  152.4526  134.5369  159.9879 H   0  0  0  0  0  0  0  0  0  0  0  0  # atno 6909 bound_to 6896
  145.7022  139.2586  143.1699 H   0  0  0  0  0  0  0  0  0  0  0  0  # atno 7974 bound_to 7965
  155.2610  140.0436  157.2997 H   0  0  0  0  0  0  0  0  0  0  0  0  # atno 8008 bound_to 7997
  154.5710  140.2374  155.8160 H   0  0  0  0  0  0  0  0  0  0  0  0  # atno 8009 bound_to 7997
  156.2123  140.2995  155.9767 H   0  0  0  0  0  0  0  0  0  0  0  0  # atno 8010 bound_to 7997
  139.7941  144.6840  150.9852 H   0  0  0  0  0  0  0  0  0  0  0  0  # atno 10167 bound_to 10162
  156.8530  130.5560  149.5668 H   0  0  0  0  0  0  0  0  0  0  0  0  # atno 10718 bound_to 10713
  153.8822  135.3043  155.3445 H   0  0  0  0  0  0  0  0  0  0  0  0  # atno 10763 bound_to 10752
  154.7756  135.4863  153.9740 H   0  0  0  0  0  0  0  0  0  0  0  0  # atno 10764 bound_to 10752
  153.1345  135.6811  153.9223 H   0  0  0  0  0  0  0  0  0  0  0  0  # atno 10765 bound_to 10752
  140.4888  134.0861  155.7767 H   0  0  0  0  0  0  0  0  0  0  0  0  # atno 11005 bound_to 11000
  146.0788  140.7787  142.9652 LP  0  0  0  0  0  0  0  0  0  0  0  0  # atno 17320 bound_to 7965
  144.6965  140.3456  143.7191 LP  0  0  0  0  0  0  0  0  0  0  0  0  # atno 17321 bound_to 7965
  140.7820  143.4349  151.0638 LP  0  0  0  0  0  0  0  0  0  0  0  0  # atno 17342 bound_to 10162
  139.8025  143.8064  152.3164 LP  0  0  0  0  0  0  0  0  0  0  0  0  # atno 17343 bound_to 10162
  156.0818  130.5826  150.9576 LP  0  0  0  0  0  0  0  0  0  0  0  0  # atno 17370 bound_to 10713
  157.6293  131.0922  150.8473 LP  0  0  0  0  0  0  0  0  0  0  0  0  # atno 17371 bound_to 10713
  141.1494  133.8996  157.2135 LP  0  0  0  0  0  0  0  0  0  0  0  0  # atno 17394 bound_to 11000
  139.9781  135.0107  156.9682 LP  0  0  0  0  0  0  0  0  0  0  0  0  # atno 17395 bound_to 11000

$$$$
