AV-unprocessed.smi:2226|AV-procd|sdf|9005|dock2
  -GOLD-   2272012213D 1   1.00000     0.00000
 Structure written by MMmdl.
 41 43  0  0  0  0  0  0  0  0  3 V2000
  146.2553  138.1565  152.0678 C   0  0  0  0  0  0  0  0  0  0  0  0
  147.3684  138.2602  153.0416 N   0  3  2  0  0  0  0  0  0  0  0  0
  146.9950  137.9704  154.4468 C   0  0  2  0  0  0  0  0  0  0  0  0
  146.1047  139.0916  155.0394 C   0  0  0  0  0  0  0  0  0  0  0  0
  146.6777  140.5099  154.8653 C   0  0  0  0  0  0  0  0  0  0  0  0
  147.3099  140.7264  153.4792 C   0  0  0  0  0  0  0  0  0  0  0  0
  148.1419  139.5230  152.9710 C   0  0  1  0  0  0  0  0  0  0  0  0
  149.5038  139.3238  153.6767 C   0  0  0  0  0  0  0  0  0  0  0  0
  149.4511  138.6451  155.0746 C   0  0  1  0  0  0  0  0  0  0  0  0
  149.5258  139.5946  156.1840 N   0  0  0  0  0  0  0  0  0  0  0  0
  150.5021  140.4949  156.3795 C   0  0  0  0  0  0  0  0  0  0  0  0
  151.4594  140.6385  155.6188 O   0  0  0  0  0  0  0  0  0  0  0  0
  150.3017  141.2090  157.4978 N   0  0  0  0  0  0  0  0  0  0  0  0
  151.1325  142.2510  157.9699 C   0  0  0  0  0  0  0  0  0  0  0  0
  151.1494  143.4805  157.4579 N   0  3  0  0  0  0  0  0  0  0  0  0
  152.0691  144.2317  158.1469 C   0  0  0  0  0  0  0  0  0  0  0  0
  152.6024  143.3920  159.0951 C   0  0  0  0  0  0  0  0  0  0  0  0
  152.0232  142.1427  158.9965 O   0  0  0  0  0  0  0  0  0  0  0  0
  148.2751  137.6507  155.2539 C   0  0  0  0  0  0  0  0  0  0  0  0
  145.4761  138.8967  152.2476 H   0  0  0  0  0  0  0  0  0  0  0  0
  145.7987  137.1677  152.1177 H   0  0  0  0  0  0  0  0  0  0  0  0
  146.6253  138.2966  151.0518 H   0  0  0  0  0  0  0  0  0  0  0  0
  146.3982  137.0569  154.4494 H   0  0  0  0  0  0  0  0  0  0  0  0
  145.1288  139.0554  154.5543 H   0  0  0  0  0  0  0  0  0  0  0  0
  145.9087  138.8983  156.0945 H   0  0  0  0  0  0  0  0  0  0  0  0
  145.8856  141.2428  155.0211 H   0  0  0  0  0  0  0  0  0  0  0  0
  147.4004  140.7247  155.6448 H   0  0  0  0  0  0  0  0  0  0  0  0
  146.5108  140.9269  152.7651 H   0  0  0  0  0  0  0  0  0  0  0  0
  147.9216  141.6291  153.4883 H   0  0  0  0  0  0  0  0  0  0  0  0
  148.3679  139.7143  151.9208 H   0  0  0  0  0  0  0  0  0  0  0  0
  150.0998  138.6753  153.0325 H   0  0  0  0  0  0  0  0  0  0  0  0
  150.0540  140.2647  153.7091 H   0  0  0  0  0  0  0  0  0  0  0  0
  150.3603  138.0470  155.1662 H   0  0  0  0  0  0  0  0  0  0  0  0
  148.7805  139.5502  156.8639 H   0  0  0  0  0  0  0  0  0  0  0  0
  150.5946  143.8419  156.6920 H   0  0  0  0  0  0  0  0  0  0  0  0
  152.2496  145.2680  157.8989 H   0  0  0  0  0  0  0  0  0  0  0  0
  153.3507  143.5147  159.8648 H   0  0  0  0  0  0  0  0  0  0  0  0
  148.0375  137.5119  156.3097 H   0  0  0  0  0  0  0  0  0  0  0  0
  148.6264  136.6749  154.9149 H   0  0  0  0  0  0  0  0  0  0  0  0
  148.0114  137.5294  152.7718 H   0  0  0  0  0  0  0  0  0  0  0  0
  149.4870  140.9951  158.0536 H   0  0  0  0  0  0  0  0  0  0  0  0
  1  2  1  0  0  0  0
  1 20  1  0  0  0  0
  1 21  1  0  0  0  0
  1 22  1  0  0  0  0
  2  7  1  0  0  0  0
  2  3  1  0  0  0  0
  2 40  1  0  0  0  0
  3 19  1  0  0  0  0
  3  4  1  0  0  0  0
  3 23  1  0  0  0  0
  4  5  1  0  0  0  0
  4 24  1  0  0  0  0
  4 25  1  0  0  0  0
  5  6  1  0  0  0  0
  5 26  1  0  0  0  0
  5 27  1  0  0  0  0
  6  7  1  0  0  0  0
  6 28  1  0  0  0  0
  6 29  1  0  0  0  0
  7  8  1  0  0  0  0
  7 30  1  0  0  0  0
  8  9  1  0  0  0  0
  8 31  1  0  0  0  0
  8 32  1  0  0  0  0
  9 10  1  0  0  0  0
  9 19  1  0  0  0  0
  9 33  1  0  0  0  0
 10 34  1  0  0  0  0
 10 11  1  0  0  0  0
 11 13  1  0  0  0  0
 11 12  2  0  0  0  0
 13 14  1  0  0  0  0
 13 41  1  0  0  0  0
 14 18  1  0  0  0  0
 14 15  2  0  0  0  0
 15 35  1  0  0  0  0
 15 16  1  0  0  0  0
 16 36  1  0  0  0  0
 16 17  2  0  0  0  0
 17 37  1  0  0  0  0
 17 18  1  0  0  0  0
 19 38  1  0  0  0  0
 19 39  1  0  0  0  0
M  CHG  1   2   1
M  CHG  1  15   1
M  END
> <s_m_source_file>
AV-unprocessed.smi

> <i_m_source_file_index>
2226

> <i_lp_mmshare_version>
43012

> <i_f3d_flags>
0

> <s_epik_input>
W0NIMl0xW0NIMl1bQ0gyXVtDQEhdKE4oW0NIM10pW0NIXTEyKVtDSDJdW0NASF0oW0NIMl0yKVtOSF1DKD1PKVtOSF1jM25bY0hdW2NIXW8z

> <s_epik_cmdline>
J2VwaWtfcHl0aG9uJywgJy1waCcsICc3LjAnLCAnLXRuJywgJzgnLCAnLW1hJywgJzIwMCcsICctbWV0YWxfYmluZGluZycsICctaW1hZScsICc8aW5maWxlLm1hZT4nLCAnLW9tYWUnLCAnPG91dGZpbGUubWFlPic=

> <r_epik_Ionization_Penalty>
6.92532

> <r_epik_Ionization_Penalty_Charging>
6.82059

> <r_epik_Ionization_Penalty_Neutral>
0.104727

> <r_epik_State_Penalty>
2.17671

> <r_epik_Charging_Adjusted_Penalty>
8.99731

> <i_epik_Tot_Q>
2

> <i_epik_Tot_abs_Q>
2

> <r_epik_Metal_State_Penalty>
2.20618

> <b_epik_Metal_Only>
0

> <s_lp_Force_Field>
OPLS_2005

> <r_lp_Energy>
47.9723

> <b_lp_Chiralities_Consistent>
1

> <s_lp_Variant>
AV-unprocessed.smi:2226-5

> <Gold.Version>
5.8.1

> <Gold.Id.Protein>
6NUR|6NUR_protein|mol2

> <Gold.PLP.Fitness>
38.0395

> <Gold.PLP.PLP>
-25.2541

> <Gold.PLP.part.hbond>
-3.0000

> <Gold.PLP.part.metal>
0.0000

> <Gold.PLP.part.buried>
4.4583

> <Gold.PLP.part.nonpolar>
-27.7847

> <Gold.PLP.part.repulsive>
0.1260

> <Gold.PLP.ligand.clash>
0.0000

> <Gold.PLP.ligand.torsion>
0.7396

> <Gold.PLP.Chemscore.Hbond>
4.7360

> <Gold.PLP.Chemscore.CHOScore>
0.0000

> <Gold.PLP.Chemscore.Metal>
0.0000

> <Gold.Chemscore.Hbonds>
donor molecule, donor type, donor heavy atom, donor atom, acceptor molecule, acceptor atom, score
      L1  H     2    40       P1  7948  2.00
      L1  H    15    35       P1  8028  1.33
      P1  H  7989  7998       L1    12  0.57

> <Gold.PLP.Chemscore.Internal.Correction>
0.0567

> <Gold.Rescore>
     Score         DG    S(hbond)    S(metal)    S(lipo)     H(rot)  DE(clash)    DE(int)     intcor
     16.28     -20.57       2.74        0.00      72.54       1.00       3.47       0.81       ----

> <Gold.Chemscore.Fitness>
16.2810

> <Gold.Chemscore.DG>
-20.5684

> <Gold.Chemscore.ZeroCoef>
-5.4800

> <Gold.Chemscore.Hbond>
2.7429

> <Gold.Chemscore.Metal>
0.0000

> <Gold.Chemscore.Lipo>
72.5404

> <Gold.Chemscore.Internal_Hbond>
0.0000

> <Gold.Chemscore.DEClash>
3.4749

> <Gold.Chemscore.DEInternal>
0.8126

> <Gold.Chemscore.Rot>
1.0000

> <Gold.Chemscore.Internal.Correction>
   9.000000E+99

> <Gold.Chemscore.Hbonds>
donor molecule, donor type, donor heavy atom, donor atom, acceptor molecule, acceptor atom, score
      L1  H     2    40       P1  7948  1.00
      L1  H    15    35       P1  8028  0.66
      P1  H  7989  7998       L1    12  0.57

> <Gold.Chemscore.Hbond.Weighted>
-9.1612

> <Gold.Chemscore.Metal.Weighted>
-0.0000

> <Gold.Chemscore.Lipo.Weighted>
-8.4872

> <Gold.Chemscore.Internal_Hbond.Weighted>
0.0000

> <Gold.Chemscore.DEClash.Weighted>
3.4749

> <Gold.Chemscore.DEInternal.Weighted>
0.8126

> <Gold.Chemscore.Rot.Weighted>
2.5600

> <Gold.Chemscore.Internal.Correction.Weighted>
   9.000000E+99

> <Gold.Protein.RotatedTorsions>
[ 6907 6896 6895 6894 ] final  -56.56 input  -60.11 | X-H torsion
[ 7974 7965 7964 7962 ] final  159.33 input  175.53 | X-H torsion
[ 8008 7997 7996 7995 ] final    5.67 input   59.86 | X-H torsion
[ 10167 10162 10161 10158 ] final  -37.32 input  -65.29 | X-H torsion
[ 10718 10713 10712 10709 ] final   48.51 input   66.30 | X-H torsion
[ 10763 10752 10751 10750 ] final    6.33 input  -60.55 | X-H torsion
[ 11005 11000 10999 10996 ] final  163.42 input  -57.11 | X-H torsion

> <Gold.Protein.ActiveResidues>
 VAL166  LYS551  ARG553  GLY616  TRP617  ASP618  TYR619  PRO620  LYS621  CYS622 
 ASP623  PHE694  ASN695  SER759  ASP760  ASP761  ALA762  ILE779  LEU786  VAL792 
 PHE793  MET794  SER795  GLU796  ALA797  LYS798  CYS799  TRP800  GLU811  SER814 

> <Gold.Protein.RotatedAtoms>
  150.8158  134.7338  159.6727 H   0  0  0  0  0  0  0  0  0  0  0  0  # atno 6907 bound_to 6896
  152.4276  134.5835  159.9964 H   0  0  0  0  0  0  0  0  0  0  0  0  # atno 6908 bound_to 6896
  151.6033  133.3317  159.3088 H   0  0  0  0  0  0  0  0  0  0  0  0  # atno 6909 bound_to 6896
  144.7796  139.7603  143.6265 H   0  0  0  0  0  0  0  0  0  0  0  0  # atno 7974 bound_to 7965
  154.7313  140.2731  155.6454 H   0  0  0  0  0  0  0  0  0  0  0  0  # atno 8008 bound_to 7997
  156.2850  140.2715  156.1939 H   0  0  0  0  0  0  0  0  0  0  0  0  # atno 8009 bound_to 7997
  155.0378  140.0371  157.2488 H   0  0  0  0  0  0  0  0  0  0  0  0  # atno 8010 bound_to 7997
  140.7121  143.3349  151.2485 H   0  0  0  0  0  0  0  0  0  0  0  0  # atno 10167 bound_to 10162
  157.4693  130.8245  149.7971 H   0  0  0  0  0  0  0  0  0  0  0  0  # atno 10718 bound_to 10713
  153.2490  135.6911  153.7700 H   0  0  0  0  0  0  0  0  0  0  0  0  # atno 10763 bound_to 10752
  153.6801  135.3330  155.3177 H   0  0  0  0  0  0  0  0  0  0  0  0  # atno 10764 bound_to 10752
  154.8386  135.4520  154.1440 H   0  0  0  0  0  0  0  0  0  0  0  0  # atno 10765 bound_to 10752
  140.2356  134.8090  157.3360 H   0  0  0  0  0  0  0  0  0  0  0  0  # atno 11005 bound_to 11000
  146.1996  139.5283  142.9752 LP  0  0  0  0  0  0  0  0  0  0  0  0  # atno 17320 bound_to 7965
  145.6088  141.0343  143.1978 LP  0  0  0  0  0  0  0  0  0  0  0  0  # atno 17321 bound_to 7965
  139.6842  143.9803  152.2825 LP  0  0  0  0  0  0  0  0  0  0  0  0  # atno 17342 bound_to 10162
  139.9443  144.6662  150.8235 LP  0  0  0  0  0  0  0  0  0  0  0  0  # atno 17343 bound_to 10162
  156.0066  130.3853  150.2411 LP  0  0  0  0  0  0  0  0  0  0  0  0  # atno 17370 bound_to 10713
  157.0593  131.0085  151.3228 LP  0  0  0  0  0  0  0  0  0  0  0  0  # atno 17371 bound_to 10713
  140.1706  134.4614  155.7834 LP  0  0  0  0  0  0  0  0  0  0  0  0  # atno 17394 bound_to 11000
  141.2214  133.6940  156.7700 LP  0  0  0  0  0  0  0  0  0  0  0  0  # atno 17395 bound_to 11000

$$$$
