AV-unprocessed.smi:3158|AV-procd|sdf|12046|dock7
  -GOLD-   2272017473D 1   1.00000     0.00000
 Structure written by MMmdl.
 39 39  0  0  0  0  0  0  0  0  1 V2000
  155.8201  134.2992  163.1285 C   0  0  0  0  0  0  0  0  0  0  0  0
  155.4650  135.5072  162.2492 C   0  0  0  0  0  0  0  0  0  0  0  0
  154.5365  136.5311  162.9390 C   0  0  1  0  0  0  0  0  0  0  0  0
  155.2203  137.2423  164.1206 C   0  0  0  0  0  0  0  0  0  0  0  0
  153.9483  137.4908  162.0010 N   0  0  0  0  0  0  0  0  0  0  0  0
  153.5440  137.2577  160.7403 C   0  0  0  0  0  0  0  0  0  0  0  0
  153.6194  136.1587  160.1904 O   0  0  0  0  0  0  0  0  0  0  0  0
  152.9940  138.4665  159.9659 C   0  0  2  0  0  0  0  0  0  0  0  0
  152.5640  138.0470  158.5514 C   0  0  0  0  0  0  0  0  0  0  0  0
  153.9509  139.5838  159.8846 N   0  0  0  0  0  0  0  0  0  0  0  0
  153.4396  140.7690  159.2020 C   0  0  0  0  0  0  0  0  0  0  0  0
  152.8350  141.7475  160.2218 C   0  0  0  0  0  0  0  0  0  0  0  0
  152.3532  142.9645  159.5922 N   0  0  0  0  0  0  0  0  0  0  0  0
  152.6304  144.2714  159.9345 C   0  0  0  0  0  0  0  0  0  0  0  0
  151.9635  145.0729  159.0526 C   0  0  0  0  0  0  0  0  0  0  0  0
  151.2957  144.1519  158.1979 C   0  0  0  0  0  0  0  0  0  0  0  0
  151.5308  142.8910  158.5233 N   0  0  0  0  0  0  0  0  0  0  0  0
  156.5219  133.6417  162.6150 H   0  0  0  0  0  0  0  0  0  0  0  0
  154.9376  133.7078  163.3742 H   0  0  0  0  0  0  0  0  0  0  0  0
  156.2842  134.6154  164.0630 H   0  0  0  0  0  0  0  0  0  0  0  0
  156.3901  136.0088  161.9628 H   0  0  0  0  0  0  0  0  0  0  0  0
  155.0194  135.1563  161.3179 H   0  0  0  0  0  0  0  0  0  0  0  0
  153.6922  135.9765  163.3499 H   0  0  0  0  0  0  0  0  0  0  0  0
  155.5373  136.5230  164.8760 H   0  0  0  0  0  0  0  0  0  0  0  0
  154.5408  137.9462  164.6023 H   0  0  0  0  0  0  0  0  0  0  0  0
  156.1053  137.7957  163.8057 H   0  0  0  0  0  0  0  0  0  0  0  0
  153.8435  138.4343  162.3451 H   0  0  0  0  0  0  0  0  0  0  0  0
  152.1029  138.8278  160.4826 H   0  0  0  0  0  0  0  0  0  0  0  0
  151.8428  137.2293  158.5828 H   0  0  0  0  0  0  0  0  0  0  0  0
  153.4145  137.7184  157.9523 H   0  0  0  0  0  0  0  0  0  0  0  0
  152.0919  138.8772  158.0250 H   0  0  0  0  0  0  0  0  0  0  0  0
  154.3009  139.8399  160.7975 H   0  0  0  0  0  0  0  0  0  0  0  0
  154.2583  141.2531  158.6683 H   0  0  0  0  0  0  0  0  0  0  0  0
  152.6814  140.5098  158.4623 H   0  0  0  0  0  0  0  0  0  0  0  0
  152.0225  141.2774  160.7788 H   0  0  0  0  0  0  0  0  0  0  0  0
  153.5921  142.0280  160.9548 H   0  0  0  0  0  0  0  0  0  0  0  0
  153.2748  144.5186  160.7651 H   0  0  0  0  0  0  0  0  0  0  0  0
  151.9544  146.1522  159.0223 H   0  0  0  0  0  0  0  0  0  0  0  0
  150.6519  144.3606  157.3561 H   0  0  0  0  0  0  0  0  0  0  0  0
  1  2  1  0  0  0  0
  1 18  1  0  0  0  0
  1 19  1  0  0  0  0
  1 20  1  0  0  0  0
  2  3  1  0  0  0  0
  2 21  1  0  0  0  0
  2 22  1  0  0  0  0
  3  4  1  0  0  0  0
  3  5  1  0  0  0  0
  3 23  1  0  0  0  0
  4 24  1  0  0  0  0
  4 25  1  0  0  0  0
  4 26  1  0  0  0  0
  5  6  1  0  0  0  0
  5 27  1  0  0  0  0
  6  7  2  0  0  0  0
  6  8  1  0  0  0  0
  8  9  1  0  0  0  0
  8 10  1  0  0  0  0
  8 28  1  0  0  0  0
  9 29  1  0  0  0  0
  9 30  1  0  0  0  0
  9 31  1  0  0  0  0
 10 11  1  0  0  0  0
 10 32  1  0  0  0  0
 11 12  1  0  0  0  0
 11 33  1  0  0  0  0
 11 34  1  0  0  0  0
 12 13  1  0  0  0  0
 12 35  1  0  0  0  0
 12 36  1  0  0  0  0
 13 17  1  0  0  0  0
 13 14  1  0  0  0  0
 14 15  2  0  0  0  0
 14 37  1  0  0  0  0
 15 16  1  0  0  0  0
 15 38  1  0  0  0  0
 16 17  2  0  0  0  0
 16 39  1  0  0  0  0
M  END
> <s_m_source_file>
AV-unprocessed.smi

> <i_m_source_file_index>
3158

> <i_lp_mmshare_version>
43012

> <i_f3d_flags>
0

> <s_epik_input>
W0NIM11bQ0gyXVtDQEhdKFtDSDNdKVtOSF1DKD1PKVtDQEhdKFtDSDNdKVtOSF1bQ0gyXVtDSDJdbjFbY0hdW2NIXVtjSF1uMQ==

> <s_epik_cmdline>
J2VwaWtfcHl0aG9uJywgJy1waCcsICc3LjAnLCAnLXRuJywgJzgnLCAnLW1hJywgJzIwMCcsICctbWV0YWxfYmluZGluZycsICctaW1hZScsICc8aW5maWxlLm1hZT4nLCAnLW9tYWUnLCAnPG91dGZpbGUubWFlPic=

> <r_lp_tautomer_probability>
1

> <r_epik_Ionization_Penalty>
0.724013

> <r_epik_Ionization_Penalty_Charging>
0

> <r_epik_Ionization_Penalty_Neutral>
0.724013

> <r_epik_State_Penalty>
0.74758

> <r_epik_Charging_Adjusted_Penalty>
0.74758

> <i_epik_Tot_Q>
0

> <i_epik_Tot_abs_Q>
0

> <r_epik_Metal_State_Penalty>
0.746846

> <b_epik_Metal_Only>
0

> <s_lp_Force_Field>
OPLS_2005

> <r_lp_Energy>
6.38515

> <b_lp_Chiralities_Consistent>
1

> <s_lp_Variant>
AV-unprocessed.smi:3158-6

> <Gold.Version>
5.8.1

> <Gold.Id.Protein>
6NUR|6NUR_protein|mol2

> <Gold.PLP.Fitness>
43.1159

> <Gold.PLP.PLP>
-38.3325

> <Gold.PLP.part.hbond>
-1.0000

> <Gold.PLP.part.metal>
0.0000

> <Gold.PLP.part.buried>
-4.9434

> <Gold.PLP.part.nonpolar>
-32.6612

> <Gold.PLP.part.repulsive>
0.0944

> <Gold.PLP.ligand.clash>
0.0000

> <Gold.PLP.ligand.torsion>
0.6367

> <Gold.PLP.Chemscore.Hbond>
1.0000

> <Gold.PLP.Chemscore.CHOScore>
0.9759

> <Gold.PLP.Chemscore.Metal>
0.0000

> <Gold.Chemscore.Hbonds>
donor molecule, donor type, donor heavy atom, donor atom, acceptor molecule, acceptor atom, score
      P1  H  6896  6908       L1     7  1.00
      L1  C    16    39       P1  8028  1.00

> <Gold.PLP.Chemscore.Internal.Correction>
0.1292

> <Gold.Rescore>
     Score         DG    S(hbond)    S(metal)    S(lipo)     H(rot)  DE(clash)    DE(int)     intcor
     13.14     -14.94       1.00        0.00      98.79       2.12       0.02       1.78       ----

> <Gold.Chemscore.Fitness>
13.1366

> <Gold.Chemscore.DG>
-14.9425

> <Gold.Chemscore.ZeroCoef>
-5.4800

> <Gold.Chemscore.Hbond>
1.0000

> <Gold.Chemscore.Metal>
0.0000

> <Gold.Chemscore.Lipo>
98.7899

> <Gold.Chemscore.Internal_Hbond>
0.0000

> <Gold.Chemscore.DEClash>
0.0241

> <Gold.Chemscore.DEInternal>
1.7818

> <Gold.Chemscore.Rot>
2.1234

> <Gold.Chemscore.Internal.Correction>
   9.000000E+99

> <Gold.Chemscore.Hbonds>
donor molecule, donor type, donor heavy atom, donor atom, acceptor molecule, acceptor atom, score
      P1  H  6896  6908       L1     7  1.00

> <Gold.Chemscore.Hbond.Weighted>
-3.3399

> <Gold.Chemscore.Metal.Weighted>
-0.0000

> <Gold.Chemscore.Lipo.Weighted>
-11.5584

> <Gold.Chemscore.Internal_Hbond.Weighted>
0.0000

> <Gold.Chemscore.DEClash.Weighted>
0.0241

> <Gold.Chemscore.DEInternal.Weighted>
1.7818

> <Gold.Chemscore.Rot.Weighted>
5.4359

> <Gold.Chemscore.Internal.Correction.Weighted>
   9.000000E+99

> <Gold.Protein.RotatedTorsions>
[ 6907 6896 6895 6894 ] final  -80.82 input  -60.11 | X-H torsion
[ 7974 7965 7964 7962 ] final  112.36 input  175.53 | X-H torsion
[ 8008 7997 7996 7995 ] final  -79.62 input   59.86 | X-H torsion
[ 10167 10162 10161 10158 ] final   88.16 input  -65.29 | X-H torsion
[ 10718 10713 10712 10709 ] final -116.12 input   66.30 | X-H torsion
[ 10763 10752 10751 10750 ] final -161.26 input  -60.55 | X-H torsion
[ 11005 11000 10999 10996 ] final -129.91 input  -57.11 | X-H torsion

> <Gold.Protein.ActiveResidues>
 VAL166  LYS551  ARG553  GLY616  TRP617  ASP618  TYR619  PRO620  LYS621  CYS622 
 ASP623  PHE694  ASN695  SER759  ASP760  ASP761  ALA762  ILE779  LEU786  VAL792 
 PHE793  MET794  SER795  GLU796  ALA797  LYS798  CYS799  TRP800  GLU811  SER814 

> <Gold.Protein.RotatedAtoms>
  150.6922  134.3912  159.5076 H   0  0  0  0  0  0  0  0  0  0  0  0  # atno 6907 bound_to 6896
  152.1700  134.8839  160.0544 H   0  0  0  0  0  0  0  0  0  0  0  0  # atno 6908 bound_to 6896
  151.9869  133.3742  159.4166 H   0  0  0  0  0  0  0  0  0  0  0  0  # atno 6909 bound_to 6896
  145.2306  139.2821  143.4170 H   0  0  0  0  0  0  0  0  0  0  0  0  # atno 7974 bound_to 7965
  154.5803  140.0675  156.9094 H   0  0  0  0  0  0  0  0  0  0  0  0  # atno 8008 bound_to 7997
  155.2475  140.3349  155.4267 H   0  0  0  0  0  0  0  0  0  0  0  0  # atno 8009 bound_to 7997
  156.2184  140.1788  156.7520 H   0  0  0  0  0  0  0  0  0  0  0  0  # atno 8010 bound_to 7997
  139.8700  144.6498  150.8960 H   0  0  0  0  0  0  0  0  0  0  0  0  # atno 10167 bound_to 10162
  156.0942  130.6118  150.8994 H   0  0  0  0  0  0  0  0  0  0  0  0  # atno 10718 bound_to 10713
  154.7319  135.3048  154.8877 H   0  0  0  0  0  0  0  0  0  0  0  0  # atno 10763 bound_to 10752
  153.9717  135.6741  153.4751 H   0  0  0  0  0  0  0  0  0  0  0  0  # atno 10764 bound_to 10752
  153.0926  135.4952  154.8640 H   0  0  0  0  0  0  0  0  0  0  0  0  # atno 10765 bound_to 10752
  140.9391  134.1217  157.4166 H   0  0  0  0  0  0  0  0  0  0  0  0  # atno 11005 bound_to 11000
  146.3354  140.2639  142.8603 LP  0  0  0  0  0  0  0  0  0  0  0  0  # atno 17320 bound_to 7965
  144.9680  140.8341  143.5472 LP  0  0  0  0  0  0  0  0  0  0  0  0  # atno 17321 bound_to 7965
  140.7762  143.3671  151.1718 LP  0  0  0  0  0  0  0  0  0  0  0  0  # atno 17342 bound_to 10162
  139.7292  143.9099  152.3013 LP  0  0  0  0  0  0  0  0  0  0  0  0  # atno 17343 bound_to 10162
  157.6098  131.0937  150.8814 LP  0  0  0  0  0  0  0  0  0  0  0  0  # atno 17370 bound_to 10713
  156.8956  130.5228  149.5284 LP  0  0  0  0  0  0  0  0  0  0  0  0  # atno 17371 bound_to 10713
  139.8816  135.0031  156.6165 LP  0  0  0  0  0  0  0  0  0  0  0  0  # atno 17394 bound_to 11000
  140.7758  133.8701  155.8528 LP  0  0  0  0  0  0  0  0  0  0  0  0  # atno 17395 bound_to 11000

$$$$
