AV-unprocessed.smi:17|AV-procd|sdf|106|dock8
  -GOLD-   2262015263D 1   1.00000     0.00000
 Structure written by MMmdl.
 57 59  0  0  0  0  0  0  0  0  1 V2000
  153.8147  136.3325  164.2107 C   0  0  0  0  0  0  0  0  0  0  0  0
  153.9526  136.8331  162.7632 C   0  0  0  0  0  0  0  0  0  0  0  0
  155.0182  137.8224  162.5853 N   0  0  0  0  0  0  0  0  0  0  0  0
  154.9094  138.5990  161.4763 C   0  0  0  0  0  0  0  0  0  0  0  0
  155.2883  138.0528  160.2940 N   0  0  0  0  0  0  0  0  0  0  0  0
  155.2220  138.7684  159.1684 C   0  0  0  0  0  0  0  0  0  0  0  0
  154.8150  140.0282  159.0040 N   0  0  0  0  0  0  0  0  0  0  0  0
  154.4349  140.5859  160.1892 C   0  0  0  0  0  0  0  0  0  0  0  0
  154.4572  139.9512  161.4635 C   0  0  0  0  0  0  0  0  0  0  0  0
  154.0101  140.8373  162.4362 N   0  0  0  0  0  0  0  0  0  0  0  0
  153.7385  141.9289  161.7762 C   0  0  0  0  0  0  0  0  0  0  0  0
  153.9482  141.8626  160.4172 N   0  0  0  0  0  0  0  0  0  0  0  0
  153.7278  142.9245  159.4455 C   0  0  0  0  0  0  0  0  0  0  0  0
  152.3511  143.6338  159.5699 C   0  0  1  0  0  0  0  0  0  0  0  0
  152.4034  145.1035  159.0904 C   0  0  0  0  0  0  0  0  0  0  0  0
  151.2395  145.8040  159.4758 O   0  0  0  0  0  0  0  0  0  0  0  0
  151.2138  142.8539  158.8587 C   0  0  1  0  0  0  0  0  0  0  0  0
  151.1790  143.0184  157.3483 C   0  0  0  0  0  0  0  0  0  0  0  0
  150.3209  141.8362  156.9130 C   0  0  0  0  0  0  0  0  0  0  0  0
  150.5881  140.8031  157.8537 O   0  0  0  0  0  0  0  0  0  0  0  0
  151.3191  141.3276  158.9575 C   0  0  0  0  0  0  0  0  0  0  0  0
  156.3780  137.3887  162.9447 C   0  0  1  0  0  0  0  0  0  0  0  0
  156.9937  136.4198  161.9170 C   0  0  0  0  0  0  0  0  0  0  0  0
  157.3419  138.5522  163.2644 C   0  0  0  0  0  0  0  0  0  0  0  0
  156.7101  139.6038  164.6448 S   0  0  0  0  0  0  0  0  0  0  0  0
  158.1049  139.5312  165.8403 C   0  0  0  0  0  0  0  0  0  0  0  0
  156.5782  140.9894  164.1705 O   0  0  0  0  0  0  0  0  0  0  0  0
  155.5474  138.9311  165.2437 O   0  0  0  0  0  0  0  0  0  0  0  0
  153.0632  135.5456  164.2732 H   0  0  0  0  0  0  0  0  0  0  0  0
  153.5105  137.1277  164.8916 H   0  0  0  0  0  0  0  0  0  0  0  0
  154.7568  135.9202  164.5737 H   0  0  0  0  0  0  0  0  0  0  0  0
  154.1707  135.9764  162.1248 H   0  0  0  0  0  0  0  0  0  0  0  0
  153.0009  137.2316  162.4133 H   0  0  0  0  0  0  0  0  0  0  0  0
  155.5416  138.2583  158.2717 H   0  0  0  0  0  0  0  0  0  0  0  0
  153.3710  142.8154  162.2704 H   0  0  0  0  0  0  0  0  0  0  0  0
  154.5390  143.6464  159.5409 H   0  0  0  0  0  0  0  0  0  0  0  0
  153.8396  142.4995  158.4475 H   0  0  0  0  0  0  0  0  0  0  0  0
  152.1044  143.6544  160.6326 H   0  0  0  0  0  0  0  0  0  0  0  0
  153.2851  145.6175  159.4733 H   0  0  0  0  0  0  0  0  0  0  0  0
  152.4569  145.1571  158.0038 H   0  0  0  0  0  0  0  0  0  0  0  0
  151.2974  146.6874  159.1437 H   0  0  0  0  0  0  0  0  0  0  0  0
  150.2475  143.1514  159.2679 H   0  0  0  0  0  0  0  0  0  0  0  0
  150.7661  143.9712  157.0186 H   0  0  0  0  0  0  0  0  0  0  0  0
  152.1828  142.9222  156.9319 H   0  0  0  0  0  0  0  0  0  0  0  0
  149.2624  142.0932  156.9701 H   0  0  0  0  0  0  0  0  0  0  0  0
  150.5384  141.5153  155.8943 H   0  0  0  0  0  0  0  0  0  0  0  0
  152.3566  141.0038  158.8643 H   0  0  0  0  0  0  0  0  0  0  0  0
  150.9285  140.9411  159.8988 H   0  0  0  0  0  0  0  0  0  0  0  0
  156.2789  136.8168  163.8679 H   0  0  0  0  0  0  0  0  0  0  0  0
  157.9407  136.0200  162.2803 H   0  0  0  0  0  0  0  0  0  0  0  0
  157.1950  136.9141  160.9664 H   0  0  0  0  0  0  0  0  0  0  0  0
  156.3392  135.5696  161.7244 H   0  0  0  0  0  0  0  0  0  0  0  0
  158.3015  138.1545  163.5946 H   0  0  0  0  0  0  0  0  0  0  0  0
  157.5474  139.1804  162.3987 H   0  0  0  0  0  0  0  0  0  0  0  0
  157.8538  140.1174  166.7238 H   0  0  0  0  0  0  0  0  0  0  0  0
  159.0032  139.9397  165.3780 H   0  0  0  0  0  0  0  0  0  0  0  0
  158.2831  138.4966  166.1321 H   0  0  0  0  0  0  0  0  0  0  0  0
  1  2  1  0  0  0  0
  1 29  1  0  0  0  0
  1 30  1  0  0  0  0
  1 31  1  0  0  0  0
  2  3  1  0  0  0  0
  2 32  1  0  0  0  0
  2 33  1  0  0  0  0
  3  4  1  0  0  0  0
  3 22  1  0  0  0  0
  4  9  1  0  0  0  0
  4  5  2  0  0  0  0
  5  6  1  0  0  0  0
  6  7  2  0  0  0  0
  6 34  1  0  0  0  0
  7  8  1  0  0  0  0
  8 12  1  0  0  0  0
  8  9  2  0  0  0  0
  9 10  1  0  0  0  0
 10 11  2  0  0  0  0
 11 12  1  0  0  0  0
 11 35  1  0  0  0  0
 12 13  1  0  0  0  0
 13 14  1  0  0  0  0
 13 36  1  0  0  0  0
 13 37  1  0  0  0  0
 14 15  1  0  0  0  0
 14 17  1  0  0  0  0
 14 38  1  0  0  0  0
 15 16  1  0  0  0  0
 15 39  1  0  0  0  0
 15 40  1  0  0  0  0
 16 41  1  0  0  0  0
 17 21  1  0  0  0  0
 17 18  1  0  0  0  0
 17 42  1  0  0  0  0
 18 19  1  0  0  0  0
 18 43  1  0  0  0  0
 18 44  1  0  0  0  0
 19 20  1  0  0  0  0
 19 45  1  0  0  0  0
 19 46  1  0  0  0  0
 20 21  1  0  0  0  0
 21 47  1  0  0  0  0
 21 48  1  0  0  0  0
 22 23  1  0  0  0  0
 22 24  1  0  0  0  0
 22 49  1  0  0  0  0
 23 50  1  0  0  0  0
 23 51  1  0  0  0  0
 23 52  1  0  0  0  0
 24 25  1  0  0  0  0
 24 53  1  0  0  0  0
 24 54  1  0  0  0  0
 25 26  1  0  0  0  0
 25 27  2  0  0  0  0
 25 28  2  0  0  0  0
 26 55  1  0  0  0  0
 26 56  1  0  0  0  0
 26 57  1  0  0  0  0
M  END
> <s_m_source_file>
AV-unprocessed.smi

> <i_m_source_file_index>
17

> <i_lp_mmshare_version>
43012

> <i_f3d_flags>
0

> <s_epik_input>
W0NIM11TKD1PKSg9TylbQ0gyXVtDQEBIXShbQ0gzXSlOKFtDSDJdW0NIM10pYyhuW2NIXW4xKWMoYzEyKW5bY0hdbjJbQ0gyXVtDQEhdKFtDSDJdW09IXSlbQ0BASF0zW0NIMl1bQ0gyXU9bQ0gyXTM=

> <s_epik_cmdline>
J2VwaWtfcHl0aG9uJywgJy1waCcsICc3LjAnLCAnLXRuJywgJzgnLCAnLW1hJywgJzIwMCcsICctbWV0YWxfYmluZGluZycsICctaW1hZScsICc8aW5maWxlLm1hZT4nLCAnLW9tYWUnLCAnPG91dGZpbGUubWFlPic=

> <r_lp_tautomer_probability>
1

> <r_epik_Ionization_Penalty>
0.00119955

> <r_epik_Ionization_Penalty_Charging>
0

> <r_epik_Ionization_Penalty_Neutral>
0.00119955

> <r_epik_State_Penalty>
0.000665399

> <r_epik_Charging_Adjusted_Penalty>
0.000665399

> <i_epik_Tot_Q>
0

> <i_epik_Tot_abs_Q>
0

> <r_epik_Metal_State_Penalty>
-0

> <b_epik_Metal_Only>
0

> <s_lp_Force_Field>
OPLS_2005

> <r_lp_Energy>
32.9267

> <b_lp_Chiralities_Consistent>
1

> <s_lp_Variant>
AV-unprocessed.smi:17-8

> <Gold.Version>
5.8.1

> <Gold.Id.Protein>
6NUR|6NUR_protein|mol2

> <Gold.PLP.Fitness>
46.5213

> <Gold.PLP.PLP>
-44.8741

> <Gold.PLP.part.hbond>
-2.9327

> <Gold.PLP.part.metal>
0.0000

> <Gold.PLP.part.buried>
-4.0182

> <Gold.PLP.part.nonpolar>
-38.2737

> <Gold.PLP.part.repulsive>
0.0472

> <Gold.PLP.ligand.clash>
0.0000

> <Gold.PLP.ligand.torsion>
1.3684

> <Gold.PLP.Chemscore.Hbond>
1.0000

> <Gold.PLP.Chemscore.CHOScore>
0.0000

> <Gold.PLP.Chemscore.Metal>
0.0000

> <Gold.Chemscore.Hbonds>
donor molecule, donor type, donor heavy atom, donor atom, acceptor molecule, acceptor atom, score
      P1  H  7997  8009       L1     7  0.64

> <Gold.PLP.Chemscore.Internal.Correction>
1.3840

> <Gold.Rescore>
     Score         DG    S(hbond)    S(metal)    S(lipo)     H(rot)  DE(clash)    DE(int)     intcor
      5.65     -10.36       0.82        0.00     101.30       3.79       1.06       3.64       ----

> <Gold.Chemscore.Fitness>
5.6474

> <Gold.Chemscore.DG>
-10.3556

> <Gold.Chemscore.ZeroCoef>
-5.4800

> <Gold.Chemscore.Hbond>
0.8155

> <Gold.Chemscore.Metal>
0.0000

> <Gold.Chemscore.Lipo>
101.3048

> <Gold.Chemscore.Internal_Hbond>
0.0000

> <Gold.Chemscore.DEClash>
1.0637

> <Gold.Chemscore.DEInternal>
3.6445

> <Gold.Chemscore.Rot>
3.7894

> <Gold.Chemscore.Internal.Correction>
   9.000000E+99

> <Gold.Chemscore.Hbonds>
donor molecule, donor type, donor heavy atom, donor atom, acceptor molecule, acceptor atom, score
      P1  H  7997  8009       L1     7  0.05

> <Gold.Chemscore.Hbond.Weighted>
-2.7239

> <Gold.Chemscore.Metal.Weighted>
-0.0000

> <Gold.Chemscore.Lipo.Weighted>
-11.8527

> <Gold.Chemscore.Internal_Hbond.Weighted>
0.0000

> <Gold.Chemscore.DEClash.Weighted>
1.0637

> <Gold.Chemscore.DEInternal.Weighted>
3.6445

> <Gold.Chemscore.Rot.Weighted>
9.7010

> <Gold.Chemscore.Internal.Correction.Weighted>
   9.000000E+99

> <Gold.Protein.RotatedTorsions>
[ 6907 6896 6895 6894 ] final  167.78 input  -60.11 | X-H torsion
[ 7974 7965 7964 7962 ] final  -63.90 input  175.53 | X-H torsion
[ 8008 7997 7996 7995 ] final  110.28 input   59.86 | X-H torsion
[ 10167 10162 10161 10158 ] final  -17.91 input  -65.29 | X-H torsion
[ 10718 10713 10712 10709 ] final  161.36 input   66.30 | X-H torsion
[ 10763 10752 10751 10750 ] final  167.55 input  -60.55 | X-H torsion
[ 11005 11000 10999 10996 ] final -126.07 input  -57.11 | X-H torsion

> <Gold.Protein.ActiveResidues>
 VAL166  LYS551  ARG553  GLY616  TRP617  ASP618  TYR619  PRO620  LYS621  CYS622 
 ASP623  PHE694  ASN695  SER759  ASP760  ASP761  ALA762  ILE779  LEU786  VAL792 
 PHE793  MET794  SER795  GLU796  ALA797  LYS798  CYS799  TRP800  GLU811  SER814 

> <Gold.Protein.RotatedAtoms>
  151.8580  133.3452  159.3694 H   0  0  0  0  0  0  0  0  0  0  0  0  # atno 6907 bound_to 6896
  150.7187  134.5234  159.5674 H   0  0  0  0  0  0  0  0  0  0  0  0  # atno 6908 bound_to 6896
  152.2742  134.7900  160.0460 H   0  0  0  0  0  0  0  0  0  0  0  0  # atno 6909 bound_to 6896
  145.7733  140.8801  143.0369 H   0  0  0  0  0  0  0  0  0  0  0  0  # atno 7974 bound_to 7965
  156.2041  140.3042  155.9589 H   0  0  0  0  0  0  0  0  0  0  0  0  # atno 8008 bound_to 7997
  155.2883  140.0441  157.3038 H   0  0  0  0  0  0  0  0  0  0  0  0  # atno 8009 bound_to 7997
  154.5609  140.2320  155.8345 H   0  0  0  0  0  0  0  0  0  0  0  0  # atno 8010 bound_to 7997
  140.7253  143.4969  150.9919 H   0  0  0  0  0  0  0  0  0  0  0  0  # atno 10167 bound_to 10162
  157.1376  131.0532  151.2342 H   0  0  0  0  0  0  0  0  0  0  0  0  # atno 10718 bound_to 10713
  154.3556  135.2753  155.2348 H   0  0  0  0  0  0  0  0  0  0  0  0  # atno 10763 bound_to 10752
  154.4559  135.5919  153.6226 H   0  0  0  0  0  0  0  0  0  0  0  0  # atno 10764 bound_to 10752
  152.9847  135.6053  154.3770 H   0  0  0  0  0  0  0  0  0  0  0  0  # atno 10765 bound_to 10752
  140.9711  134.0804  157.3868 H   0  0  0  0  0  0  0  0  0  0  0  0  # atno 11005 bound_to 11000
  144.6809  139.9886  143.7484 LP  0  0  0  0  0  0  0  0  0  0  0  0  # atno 17320 bound_to 7965
  146.0148  139.3200  143.0848 LP  0  0  0  0  0  0  0  0  0  0  0  0  # atno 17321 bound_to 7965
  139.8676  143.7233  152.3169 LP  0  0  0  0  0  0  0  0  0  0  0  0  # atno 17342 bound_to 10162
  139.7471  144.7544  151.0563 LP  0  0  0  0  0  0  0  0  0  0  0  0  # atno 17343 bound_to 10162
  157.4337  130.7504  149.7011 LP  0  0  0  0  0  0  0  0  0  0  0  0  # atno 17370 bound_to 10713
  155.9795  130.4039  150.3583 LP  0  0  0  0  0  0  0  0  0  0  0  0  # atno 17371 bound_to 10713
  139.8912  135.0117  156.6782 LP  0  0  0  0  0  0  0  0  0  0  0  0  # atno 17394 bound_to 11000
  140.7327  133.9045  155.8222 LP  0  0  0  0  0  0  0  0  0  0  0  0  # atno 17395 bound_to 11000

$$$$
