AV-unprocessed.smi:2928|AV-procd|sdf|11232|dock6
  -GOLD-   2272016123D 1   1.00000     0.00000
 Structure written by MMmdl.
 55 58  0  0  0  0  0  0  0  0  2 V2000
  145.4008  142.3348  155.0930 C   0  0  0  0  0  0  0  0  0  0  0  0
  145.8242  141.1200  154.3562 N   0  3  2  0  0  0  0  0  0  0  0  0
  146.0065  139.9120  155.1974 C   0  0  1  0  0  0  0  0  0  0  0  0
  146.0092  138.6633  154.2850 C   0  0  0  0  0  0  0  0  0  0  0  0
  147.0284  138.7392  153.1302 C   0  0  0  0  0  0  0  0  0  0  0  0
  147.0611  140.1307  152.4653 C   0  0  0  0  0  0  0  0  0  0  0  0
  146.9981  141.3061  153.4691 C   0  0  2  0  0  0  0  0  0  0  0  0
  148.2922  141.5288  154.2901 C   0  0  0  0  0  0  0  0  0  0  0  0
  148.5454  140.4765  155.3937 C   0  0  1  0  0  0  0  0  0  0  0  0
  149.4818  141.0293  156.3702 N   0  0  0  0  0  0  0  0  0  0  0  0
  150.3114  140.3263  157.1545 C   0  0  0  0  0  0  0  0  0  0  0  0
  150.3807  139.0974  157.1510 O   0  0  0  0  0  0  0  0  0  0  0  0
  151.0275  141.1410  157.9463 N   0  0  0  0  0  0  0  0  0  0  0  0
  152.0254  140.7957  158.9007 C   0  0  0  0  0  0  0  0  0  0  0  0
  152.6085  139.5071  158.9694 C   0  0  0  0  0  0  0  0  0  0  0  0
  153.6093  139.2580  159.9264 C   0  0  0  0  0  0  0  0  0  0  0  0
  153.9989  140.3092  160.7754 C   0  0  0  0  0  0  0  0  0  0  0  0
  153.4647  141.5459  160.7128 N   0  0  0  0  0  0  0  0  0  0  0  0
  152.4996  141.7912  159.7930 C   0  0  0  0  0  0  0  0  0  0  0  0
  151.9554  143.0873  159.7466 N   0  0  0  0  0  0  0  0  0  0  0  0
  152.3036  143.9516  160.8621 C   0  0  0  0  0  0  0  0  0  0  0  0
  151.9280  145.3659  160.4128 C   0  0  0  0  0  0  0  0  0  0  0  0
  151.8972  145.2982  158.8809 C   0  0  0  0  0  0  0  0  0  0  0  0
  152.2484  143.8468  158.5427 C   0  0  0  0  0  0  0  0  0  0  0  0
  147.2466  140.0472  156.1166 C   0  0  0  0  0  0  0  0  0  0  0  0
  146.1539  142.6716  155.8050 H   0  0  0  0  0  0  0  0  0  0  0  0
  144.4792  142.1432  155.6431 H   0  0  0  0  0  0  0  0  0  0  0  0
  145.2052  143.1515  154.3978 H   0  0  0  0  0  0  0  0  0  0  0  0
  145.1317  139.8207  155.8430 H   0  0  0  0  0  0  0  0  0  0  0  0
  146.1768  137.7606  154.8737 H   0  0  0  0  0  0  0  0  0  0  0  0
  145.0133  138.5554  153.8530 H   0  0  0  0  0  0  0  0  0  0  0  0
  148.0190  138.4618  153.4806 H   0  0  0  0  0  0  0  0  0  0  0  0
  146.7842  137.9851  152.3810 H   0  0  0  0  0  0  0  0  0  0  0  0
  147.9414  140.2199  151.8278 H   0  0  0  0  0  0  0  0  0  0  0  0
  146.2021  140.2081  151.7975 H   0  0  0  0  0  0  0  0  0  0  0  0
  146.8299  142.2080  152.8785 H   0  0  0  0  0  0  0  0  0  0  0  0
  149.1539  141.5765  153.6232 H   0  0  0  0  0  0  0  0  0  0  0  0
  148.2326  142.5162  154.7498 H   0  0  0  0  0  0  0  0  0  0  0  0
  148.9964  139.6017  154.9319 H   0  0  0  0  0  0  0  0  0  0  0  0
  149.5007  142.0350  156.4570 H   0  0  0  0  0  0  0  0  0  0  0  0
  150.7845  142.1205  157.9161 H   0  0  0  0  0  0  0  0  0  0  0  0
  152.3192  138.7133  158.2982 H   0  0  0  0  0  0  0  0  0  0  0  0
  154.0709  138.2849  160.0034 H   0  0  0  0  0  0  0  0  0  0  0  0
  154.7647  140.1553  161.5211 H   0  0  0  0  0  0  0  0  0  0  0  0
  151.7683  143.6608  161.7664 H   0  0  0  0  0  0  0  0  0  0  0  0
  153.3730  143.8974  161.0713 H   0  0  0  0  0  0  0  0  0  0  0  0
  150.9414  145.6349  160.7924 H   0  0  0  0  0  0  0  0  0  0  0  0
  152.6389  146.1056  160.7819 H   0  0  0  0  0  0  0  0  0  0  0  0
  150.8976  145.5417  158.5187 H   0  0  0  0  0  0  0  0  0  0  0  0
  152.5970  145.9966  158.4209 H   0  0  0  0  0  0  0  0  0  0  0  0
  153.3055  143.7665  158.2862 H   0  0  0  0  0  0  0  0  0  0  0  0
  151.6674  143.4796  157.6963 H   0  0  0  0  0  0  0  0  0  0  0  0
  147.0126  140.7821  156.8881 H   0  0  0  0  0  0  0  0  0  0  0  0
  147.4159  139.1137  156.6548 H   0  0  0  0  0  0  0  0  0  0  0  0
  145.0503  140.9097  153.7420 H   0  0  0  0  0  0  0  0  0  0  0  0
  1  2  1  0  0  0  0
  1 26  1  0  0  0  0
  1 27  1  0  0  0  0
  1 28  1  0  0  0  0
  2  7  1  0  0  0  0
  2  3  1  0  0  0  0
  2 55  1  0  0  0  0
  3 25  1  0  0  0  0
  3  4  1  0  0  0  0
  3 29  1  0  0  0  0
  4  5  1  0  0  0  0
  4 30  1  0  0  0  0
  4 31  1  0  0  0  0
  5  6  1  0  0  0  0
  5 32  1  0  0  0  0
  5 33  1  0  0  0  0
  6  7  1  0  0  0  0
  6 34  1  0  0  0  0
  6 35  1  0  0  0  0
  7  8  1  0  0  0  0
  7 36  1  0  0  0  0
  8  9  1  0  0  0  0
  8 37  1  0  0  0  0
  8 38  1  0  0  0  0
  9 10  1  0  0  0  0
  9 25  1  0  0  0  0
  9 39  1  0  0  0  0
 10 11  1  0  0  0  0
 10 40  1  0  0  0  0
 11 12  2  0  0  0  0
 11 13  1  0  0  0  0
 13 14  1  0  0  0  0
 13 41  1  0  0  0  0
 14 19  1  0  0  0  0
 14 15  2  0  0  0  0
 15 16  1  0  0  0  0
 15 42  1  0  0  0  0
 16 17  2  0  0  0  0
 16 43  1  0  0  0  0
 17 18  1  0  0  0  0
 17 44  1  0  0  0  0
 18 19  2  0  0  0  0
 19 20  1  0  0  0  0
 20 24  1  0  0  0  0
 20 21  1  0  0  0  0
 21 22  1  0  0  0  0
 21 45  1  0  0  0  0
 21 46  1  0  0  0  0
 22 23  1  0  0  0  0
 22 47  1  0  0  0  0
 22 48  1  0  0  0  0
 23 24  1  0  0  0  0
 23 49  1  0  0  0  0
 23 50  1  0  0  0  0
 24 51  1  0  0  0  0
 24 52  1  0  0  0  0
 25 53  1  0  0  0  0
 25 54  1  0  0  0  0
M  CHG  1   2   1
M  END
> <s_m_source_file>
AV-unprocessed.smi

> <i_m_source_file_index>
2928

> <i_lp_mmshare_version>
43012

> <i_f3d_flags>
0

> <s_epik_input>
W0NIMl0xW0NIMl1bQ0gyXVtDQEhdKE4oW0NIM10pW0NIXTEyKVtDSDJdW0NASF0oW0NIMl0yKVtOSF1DKD1PKVtOSF1jM1tjSF1bY0hdW2NIXW5jM040W0NIMl1bQ0gyXVtDSDJdW0NIMl00

> <s_epik_cmdline>
J2VwaWtfcHl0aG9uJywgJy1waCcsICc3LjAnLCAnLXRuJywgJzgnLCAnLW1hJywgJzIwMCcsICctbWV0YWxfYmluZGluZycsICctaW1hZScsICc8aW5maWxlLm1hZT4nLCAnLW9tYWUnLCAnPG91dGZpbGUubWFlPic=

> <r_lp_tautomer_probability>
1

> <r_epik_Ionization_Penalty>
0.07954

> <r_epik_Ionization_Penalty_Charging>
0.00089841

> <r_epik_Ionization_Penalty_Neutral>
0.0786416

> <r_epik_State_Penalty>
0.0689917

> <r_epik_Charging_Adjusted_Penalty>
0.0698901

> <i_epik_Tot_Q>
1

> <i_epik_Tot_abs_Q>
1

> <r_epik_Metal_State_Penalty>
0.0608947

> <b_epik_Metal_Only>
0

> <s_lp_Force_Field>
OPLS_2005

> <r_lp_Energy>
65.7965

> <b_lp_Chiralities_Consistent>
1

> <s_lp_Variant>
AV-unprocessed.smi:2928-2

> <Gold.Version>
5.8.1

> <Gold.Id.Protein>
6NUR|6NUR_protein|mol2

> <Gold.PLP.Fitness>
49.8706

> <Gold.PLP.PLP>
-44.9461

> <Gold.PLP.part.hbond>
-1.0000

> <Gold.PLP.part.metal>
0.0000

> <Gold.PLP.part.buried>
-6.2792

> <Gold.PLP.part.nonpolar>
-38.4278

> <Gold.PLP.part.repulsive>
0.1158

> <Gold.PLP.ligand.clash>
0.0000

> <Gold.PLP.ligand.torsion>
0.5528

> <Gold.PLP.Chemscore.Hbond>
2.0000

> <Gold.PLP.Chemscore.CHOScore>
0.0000

> <Gold.PLP.Chemscore.Metal>
0.0000

> <Gold.Chemscore.Hbonds>
donor molecule, donor type, donor heavy atom, donor atom, acceptor molecule, acceptor atom, score
      L1  H     2    55       P1 10175  2.00

> <Gold.PLP.Chemscore.Internal.Correction>
0.0301

> <Gold.Rescore>
     Score         DG    S(hbond)    S(metal)    S(lipo)     H(rot)  DE(clash)    DE(int)     intcor
     17.81     -19.84       0.98        0.00     120.45       1.18       0.13       1.91       ----

> <Gold.Chemscore.Fitness>
17.8066

> <Gold.Chemscore.DG>
-19.8416

> <Gold.Chemscore.ZeroCoef>
-5.4800

> <Gold.Chemscore.Hbond>
0.9831

> <Gold.Chemscore.Metal>
0.0000

> <Gold.Chemscore.Lipo>
120.4513

> <Gold.Chemscore.Internal_Hbond>
0.0000

> <Gold.Chemscore.DEClash>
0.1278

> <Gold.Chemscore.DEInternal>
1.9072

> <Gold.Chemscore.Rot>
1.1776

> <Gold.Chemscore.Internal.Correction>
   9.000000E+99

> <Gold.Chemscore.Hbonds>
donor molecule, donor type, donor heavy atom, donor atom, acceptor molecule, acceptor atom, score
      L1  H     2    55       P1 10175  0.85

> <Gold.Chemscore.Hbond.Weighted>
-3.2836

> <Gold.Chemscore.Metal.Weighted>
-0.0000

> <Gold.Chemscore.Lipo.Weighted>
-14.0928

> <Gold.Chemscore.Internal_Hbond.Weighted>
0.0000

> <Gold.Chemscore.DEClash.Weighted>
0.1278

> <Gold.Chemscore.DEInternal.Weighted>
1.9072

> <Gold.Chemscore.Rot.Weighted>
3.0147

> <Gold.Chemscore.Internal.Correction.Weighted>
   9.000000E+99

> <Gold.Protein.RotatedTorsions>
[ 6907 6896 6895 6894 ] final  -12.33 input  -60.11 | X-H torsion
[ 7974 7965 7964 7962 ] final  142.07 input  175.53 | X-H torsion
[ 8008 7997 7996 7995 ] final -129.92 input   59.86 | X-H torsion
[ 10167 10162 10161 10158 ] final -159.10 input  -65.29 | X-H torsion
[ 10718 10713 10712 10709 ] final   10.40 input   66.30 | X-H torsion
[ 10763 10752 10751 10750 ] final  155.53 input  -60.55 | X-H torsion
[ 11005 11000 10999 10996 ] final -126.53 input  -57.11 | X-H torsion

> <Gold.Protein.ActiveResidues>
 VAL166  LYS551  ARG553  GLY616  TRP617  ASP618  TYR619  PRO620  LYS621  CYS622 
 ASP623  PHE694  ASN695  SER759  ASP760  ASP761  ALA762  ILE779  LEU786  VAL792 
 PHE793  MET794  SER795  GLU796  ALA797  LYS798  CYS799  TRP800  GLU811  SER814 

> <Gold.Protein.RotatedAtoms>
  151.3722  135.0924  159.9468 H   0  0  0  0  0  0  0  0  0  0  0  0  # atno 6907 bound_to 6896
  152.5132  133.9153  159.7518 H   0  0  0  0  0  0  0  0  0  0  0  0  # atno 6908 bound_to 6896
  150.9569  133.6432  159.2790 H   0  0  0  0  0  0  0  0  0  0  0  0  # atno 6909 bound_to 6896
  144.9040  139.5383  143.5740 H   0  0  0  0  0  0  0  0  0  0  0  0  # atno 7974 bound_to 7965
  155.2872  140.0446  157.3020 H   0  0  0  0  0  0  0  0  0  0  0  0  # atno 8008 bound_to 7997
  154.5562  140.2332  155.8374 H   0  0  0  0  0  0  0  0  0  0  0  0  # atno 8009 bound_to 7997
  156.2009  140.3026  155.9532 H   0  0  0  0  0  0  0  0  0  0  0  0  # atno 8010 bound_to 7997
  139.6641  143.9860  152.2244 H   0  0  0  0  0  0  0  0  0  0  0  0  # atno 10167 bound_to 10162
  156.9804  130.6003  149.5676 H   0  0  0  0  0  0  0  0  0  0  0  0  # atno 10718 bound_to 10713
  154.1699  135.2805  155.3084 H   0  0  0  0  0  0  0  0  0  0  0  0  # atno 10763 bound_to 10752
  154.6083  135.5507  153.7449 H   0  0  0  0  0  0  0  0  0  0  0  0  # atno 10764 bound_to 10752
  153.0168  135.6409  154.1839 H   0  0  0  0  0  0  0  0  0  0  0  0  # atno 10765 bound_to 10752
  140.9674  134.0853  157.3906 H   0  0  0  0  0  0  0  0  0  0  0  0  # atno 11005 bound_to 11000
  146.3124  139.7793  142.9010 LP  0  0  0  0  0  0  0  0  0  0  0  0  # atno 17320 bound_to 7965
  145.3567  141.0318  143.3308 LP  0  0  0  0  0  0  0  0  0  0  0  0  # atno 17321 bound_to 7965
  139.9607  144.6560  150.8082 LP  0  0  0  0  0  0  0  0  0  0  0  0  # atno 17342 bound_to 10162
  140.7592  143.3124  151.2813 LP  0  0  0  0  0  0  0  0  0  0  0  0  # atno 17343 bound_to 10162
  156.0247  130.5341  150.8373 LP  0  0  0  0  0  0  0  0  0  0  0  0  # atno 17370 bound_to 10713
  157.5530  131.0944  150.9668 LP  0  0  0  0  0  0  0  0  0  0  0  0  # atno 17371 bound_to 10713
  139.8899  135.0108  156.6707 LP  0  0  0  0  0  0  0  0  0  0  0  0  # atno 17394 bound_to 11000
  140.7380  133.9002  155.8257 LP  0  0  0  0  0  0  0  0  0  0  0  0  # atno 17395 bound_to 11000

$$$$
