AV-unprocessed.smi:2804|AV-procd|sdf|10810|dock9
  -GOLD-   2272015243D 1   1.00000     0.00000
 Structure written by MMmdl.
 35 36  0  0  0  0  0  0  0  0  1 V2000
  154.8220  137.3346  162.3559 C   0  0  0  0  0  0  0  0  0  0  0  0
  154.0648  138.1826  161.3288 C   0  0  0  0  0  0  0  0  0  0  0  0
  154.6658  139.5875  161.1668 C   0  0  0  0  0  0  0  0  0  0  0  0
  153.7646  140.4659  160.4252 N   0  0  0  0  0  0  0  0  0  0  0  0
  153.3136  140.2769  159.1628 C   0  0  0  0  0  0  0  0  0  0  0  0
  153.5838  139.3228  158.4338 O   0  0  0  0  0  0  0  0  0  0  0  0
  152.5227  141.3269  158.8380 N   0  0  0  0  0  0  0  0  0  0  0  0
  151.8423  141.5411  157.5591 C   0  0  0  0  0  0  0  0  0  0  0  0
  150.3232  141.8407  157.6807 C   0  0  1  0  0  0  0  0  0  0  0  0
  150.0327  143.2283  157.6640 O   0  0  0  0  0  0  0  0  0  0  0  0
  149.4804  141.1358  156.5992 C   0  0  0  0  0  0  0  0  0  0  0  0
  149.8660  141.5312  155.3856 F   0  0  0  0  0  0  0  0  0  0  0  0
  149.5939  139.8108  156.6937 F   0  0  0  0  0  0  0  0  0  0  0  0
  148.1978  141.4677  156.7487 F   0  0  0  0  0  0  0  0  0  0  0  0
  152.4773  142.2198  159.9184 C   0  0  0  0  0  0  0  0  0  0  0  0
  151.8185  143.4519  160.0726 C   0  0  0  0  0  0  0  0  0  0  0  0
  151.9869  144.1248  161.3054 C   0  0  0  0  0  0  0  0  0  0  0  0
  152.7928  143.5689  162.3329 C   0  0  0  0  0  0  0  0  0  0  0  0
  153.4473  142.3281  162.1494 C   0  0  0  0  0  0  0  0  0  0  0  0
  153.2606  141.6790  160.9165 C   0  0  0  0  0  0  0  0  0  0  0  0
  154.3715  136.3464  162.4512 H   0  0  0  0  0  0  0  0  0  0  0  0
  154.8079  137.8027  163.3405 H   0  0  0  0  0  0  0  0  0  0  0  0
  155.8636  137.1987  162.0634 H   0  0  0  0  0  0  0  0  0  0  0  0
  154.0690  137.6678  160.3671 H   0  0  0  0  0  0  0  0  0  0  0  0
  153.0201  138.2626  161.6316 H   0  0  0  0  0  0  0  0  0  0  0  0
  154.8753  140.0196  162.1467 H   0  0  0  0  0  0  0  0  0  0  0  0
  155.6252  139.5315  160.6516 H   0  0  0  0  0  0  0  0  0  0  0  0
  152.3462  142.3412  157.0152 H   0  0  0  0  0  0  0  0  0  0  0  0
  151.9850  140.6548  156.9403 H   0  0  0  0  0  0  0  0  0  0  0  0
  149.9885  141.4745  158.6521 H   0  0  0  0  0  0  0  0  0  0  0  0
  149.5697  143.4280  156.8648 H   0  0  0  0  0  0  0  0  0  0  0  0
  151.2102  143.8724  159.2857 H   0  0  0  0  0  0  0  0  0  0  0  0
  151.4973  145.0741  161.4661 H   0  0  0  0  0  0  0  0  0  0  0  0
  152.9093  144.1003  163.2660 H   0  0  0  0  0  0  0  0  0  0  0  0
  154.0649  141.9028  162.9262 H   0  0  0  0  0  0  0  0  0  0  0  0
  1  2  1  0  0  0  0
  1 21  1  0  0  0  0
  1 22  1  0  0  0  0
  1 23  1  0  0  0  0
  2  3  1  0  0  0  0
  2 24  1  0  0  0  0
  2 25  1  0  0  0  0
  3  4  1  0  0  0  0
  3 26  1  0  0  0  0
  3 27  1  0  0  0  0
  4 20  1  0  0  0  0
  4  5  1  0  0  0  0
  5  6  2  0  0  0  0
  5  7  1  0  0  0  0
  7  8  1  0  0  0  0
  7 15  1  0  0  0  0
  8  9  1  0  0  0  0
  8 28  1  0  0  0  0
  8 29  1  0  0  0  0
  9 10  1  0  0  0  0
  9 11  1  0  0  0  0
  9 30  1  0  0  0  0
 10 31  1  0  0  0  0
 11 12  1  0  0  0  0
 11 13  1  0  0  0  0
 11 14  1  0  0  0  0
 15 20  2  0  0  0  0
 15 16  1  0  0  0  0
 16 17  2  0  0  0  0
 16 32  1  0  0  0  0
 17 18  1  0  0  0  0
 17 33  1  0  0  0  0
 18 19  2  0  0  0  0
 18 34  1  0  0  0  0
 19 20  1  0  0  0  0
 19 35  1  0  0  0  0
M  END
> <s_m_source_file>
AV-unprocessed.smi

> <i_m_source_file_index>
2804

> <i_lp_mmshare_version>
43012

> <i_f3d_flags>
0

> <s_epik_input>
W2NIXTFbY0hdW2NIXVtjSF1jKGMxMiluKFtDSDJdW0NIMl1bQ0gzXSljKD1PKW4yW0NIMl1bQ0BIXShbT0hdKUMoRikoRilG

> <s_epik_cmdline>
J2VwaWtfcHl0aG9uJywgJy1waCcsICc3LjAnLCAnLXRuJywgJzgnLCAnLW1hJywgJzIwMCcsICctbWV0YWxfYmluZGluZycsICctaW1hZScsICc8aW5maWxlLm1hZT4nLCAnLW9tYWUnLCAnPG91dGZpbGUubWFlPic=

> <r_epik_Ionization_Penalty>
0.0117937

> <r_epik_Ionization_Penalty_Charging>
3.30828e-09

> <r_epik_Ionization_Penalty_Neutral>
0.0117937

> <r_epik_State_Penalty>
0.00909547

> <r_epik_Charging_Adjusted_Penalty>
0.00909547

> <i_epik_Tot_Q>
0

> <i_epik_Tot_abs_Q>
0

> <r_epik_Metal_State_Penalty>
0.00909547

> <b_epik_Metal_Only>
0

> <s_lp_Force_Field>
OPLS_2005

> <r_lp_Energy>
49.0105

> <b_lp_Chiralities_Consistent>
1

> <s_lp_Variant>
AV-unprocessed.smi:2804-2

> <Gold.Version>
5.8.1

> <Gold.Id.Protein>
6NUR|6NUR_protein|mol2

> <Gold.PLP.Fitness>
49.3392

> <Gold.PLP.PLP>
-44.6203

> <Gold.PLP.part.hbond>
-2.0000

> <Gold.PLP.part.metal>
0.0000

> <Gold.PLP.part.buried>
-5.3260

> <Gold.PLP.part.nonpolar>
-36.9085

> <Gold.PLP.part.repulsive>
0.0000

> <Gold.PLP.ligand.clash>
0.0000

> <Gold.PLP.ligand.torsion>
0.6730

> <Gold.PLP.Chemscore.Hbond>
2.0000

> <Gold.PLP.Chemscore.CHOScore>
0.0000

> <Gold.PLP.Chemscore.Metal>
0.0000

> <Gold.Chemscore.Hbonds>
donor molecule, donor type, donor heavy atom, donor atom, acceptor molecule, acceptor atom, score
      L1  H    10    31       P1  8028  0.96
      P1  H  7997  8008       L1     6  1.00

> <Gold.PLP.Chemscore.Internal.Correction>
0.0649

> <Gold.Rescore>
     Score         DG    S(hbond)    S(metal)    S(lipo)     H(rot)  DE(clash)    DE(int)     intcor
     16.48     -17.52       1.77        0.00     103.03       2.32       0.08       0.96       ----

> <Gold.Chemscore.Fitness>
16.4783

> <Gold.Chemscore.DG>
-17.5208

> <Gold.Chemscore.ZeroCoef>
-5.4800

> <Gold.Chemscore.Hbond>
1.7705

> <Gold.Chemscore.Metal>
0.0000

> <Gold.Chemscore.Lipo>
103.0263

> <Gold.Chemscore.Internal_Hbond>
0.0000

> <Gold.Chemscore.DEClash>
0.0844

> <Gold.Chemscore.DEInternal>
0.9582

> <Gold.Chemscore.Rot>
2.3152

> <Gold.Chemscore.Internal.Correction>
   9.000000E+99

> <Gold.Chemscore.Hbonds>
donor molecule, donor type, donor heavy atom, donor atom, acceptor molecule, acceptor atom, score
      L1  H    10    31       P1  8028  0.91
      P1  H  7997  8008       L1     6  0.50

> <Gold.Chemscore.Hbond.Weighted>
-5.9136

> <Gold.Chemscore.Metal.Weighted>
-0.0000

> <Gold.Chemscore.Lipo.Weighted>
-12.0541

> <Gold.Chemscore.Internal_Hbond.Weighted>
0.0000

> <Gold.Chemscore.DEClash.Weighted>
0.0844

> <Gold.Chemscore.DEInternal.Weighted>
0.9582

> <Gold.Chemscore.Rot.Weighted>
5.9268

> <Gold.Chemscore.Internal.Correction.Weighted>
   9.000000E+99

> <Gold.Protein.RotatedTorsions>
[ 6907 6896 6895 6894 ] final  177.20 input  -60.11 | X-H torsion
[ 7974 7965 7964 7962 ] final  -36.18 input  175.53 | X-H torsion
[ 8008 7997 7996 7995 ] final  -94.59 input   59.86 | X-H torsion
[ 10167 10162 10161 10158 ] final   -8.67 input  -65.29 | X-H torsion
[ 10718 10713 10712 10709 ] final -110.50 input   66.30 | X-H torsion
[ 10763 10752 10751 10750 ] final   81.30 input  -60.55 | X-H torsion
[ 11005 11000 10999 10996 ] final  -33.27 input  -57.11 | X-H torsion

> <Gold.Protein.ActiveResidues>
 VAL166  LYS551  ARG553  GLY616  TRP617  ASP618  TYR619  PRO620  LYS621  CYS622 
 ASP623  PHE694  ASN695  SER759  ASP760  ASP761  ALA762  ILE779  LEU786  VAL792 
 PHE793  MET794  SER795  GLU796  ALA797  LYS798  CYS799  TRP800  GLU811  SER814 

> <Gold.Protein.RotatedAtoms>
  151.7078  133.3312  159.3282 H   0  0  0  0  0  0  0  0  0  0  0  0  # atno 6907 bound_to 6896
  150.7707  134.6559  159.6322 H   0  0  0  0  0  0  0  0  0  0  0  0  # atno 6908 bound_to 6896
  152.3730  134.6708  160.0221 H   0  0  0  0  0  0  0  0  0  0  0  0  # atno 6909 bound_to 6896
  146.0683  140.6248  142.8964 H   0  0  0  0  0  0  0  0  0  0  0  0  # atno 7974 bound_to 7965
  154.7503  140.0488  157.0888 H   0  0  0  0  0  0  0  0  0  0  0  0  # atno 8008 bound_to 7997
  155.0065  140.3131  155.4827 H   0  0  0  0  0  0  0  0  0  0  0  0  # atno 8009 bound_to 7997
  156.2884  140.2192  156.5178 H   0  0  0  0  0  0  0  0  0  0  0  0  # atno 8010 bound_to 7997
  140.7066  143.5943  150.8862 H   0  0  0  0  0  0  0  0  0  0  0  0  # atno 10167 bound_to 10162
  156.0594  130.5818  150.8245 H   0  0  0  0  0  0  0  0  0  0  0  0  # atno 10718 bound_to 10713
  153.1105  135.4770  154.9027 H   0  0  0  0  0  0  0  0  0  0  0  0  # atno 10763 bound_to 10752
  154.7476  135.3098  154.8619 H   0  0  0  0  0  0  0  0  0  0  0  0  # atno 10764 bound_to 10752
  153.9210  135.6855  153.4801 H   0  0  0  0  0  0  0  0  0  0  0  0  # atno 10765 bound_to 10752
  140.9621  133.7158  156.1386 H   0  0  0  0  0  0  0  0  0  0  0  0  # atno 11005 bound_to 11000
  144.7216  140.4391  143.7004 LP  0  0  0  0  0  0  0  0  0  0  0  0  # atno 17320 bound_to 7965
  145.6437  139.1554  143.2901 LP  0  0  0  0  0  0  0  0  0  0  0  0  # atno 17321 bound_to 7965
  139.9668  143.6101  152.2986 LP  0  0  0  0  0  0  0  0  0  0  0  0  # atno 17342 bound_to 10162
  139.6674  144.7662  151.1847 LP  0  0  0  0  0  0  0  0  0  0  0  0  # atno 17343 bound_to 10162
  157.5591  131.0945  150.9585 LP  0  0  0  0  0  0  0  0  0  0  0  0  # atno 17370 bound_to 10713
  156.9827  130.5533  149.5297 LP  0  0  0  0  0  0  0  0  0  0  0  0  # atno 17371 bound_to 10713
  140.7452  134.4105  157.5549 LP  0  0  0  0  0  0  0  0  0  0  0  0  # atno 17394 bound_to 11000
  139.8881  134.8864  156.2489 LP  0  0  0  0  0  0  0  0  0  0  0  0  # atno 17395 bound_to 11000

$$$$
