AV-unprocessed.smi:2752|AV-procd|sdf|10606|dock9
  -GOLD-   2272015 63D 1   1.00000     0.00000
 Structure written by MMmdl.
 34 35  0  0  0  0  0  0  0  0  1 V2000
  148.5734  138.3828  156.6306 C   0  0  0  0  0  0  0  0  0  0  0  0
  148.6924  139.7175  156.1657 O   0  0  0  0  0  0  0  0  0  0  0  0
  149.1438  139.8182  154.8175 C   0  0  1  0  0  0  0  0  0  0  0  0
  148.0760  139.2293  153.8892 C   0  0  0  0  0  0  0  0  0  0  0  0
  147.0560  140.3540  153.7346 C   0  0  0  0  0  0  0  0  0  0  0  0
  147.8900  141.6381  153.7118 C   0  0  0  0  0  0  0  0  0  0  0  0
  149.2293  141.3032  154.3975 C   0  0  1  0  0  0  0  0  0  0  0  0
  149.4912  142.2013  155.5203 N   0  0  0  0  0  0  0  0  0  0  0  0
  150.2995  141.9187  156.5517 C   0  0  0  0  0  0  0  0  0  0  0  0
  150.9270  140.8638  156.6515 O   0  0  0  0  0  0  0  0  0  0  0  0
  150.3212  142.9251  157.4429 N   0  0  0  0  0  0  0  0  0  0  0  0
  151.0516  143.0057  158.6583 C   0  0  0  0  0  0  0  0  0  0  0  0
  150.8678  144.2020  159.3886 C   0  0  0  0  0  0  0  0  0  0  0  0
  151.5490  144.3812  160.6084 C   0  0  0  0  0  0  0  0  0  0  0  0
  152.3973  143.3571  161.0653 C   0  0  0  0  0  0  0  0  0  0  0  0
  153.0728  143.4841  162.2320 F   0  0  0  0  0  0  0  0  0  0  0  0
  152.5256  142.1974  160.2787 C   0  0  0  0  0  0  0  0  0  0  0  0
  151.8733  142.0247  159.1096 N   0  0  0  0  0  0  0  0  0  0  0  0
  148.2001  138.3863  157.6546 H   0  0  0  0  0  0  0  0  0  0  0  0
  149.5424  137.8823  156.6305 H   0  0  0  0  0  0  0  0  0  0  0  0
  147.8799  137.8013  156.0229 H   0  0  0  0  0  0  0  0  0  0  0  0
  150.1131  139.3305  154.6968 H   0  0  0  0  0  0  0  0  0  0  0  0
  148.5208  139.0081  152.9182 H   0  0  0  0  0  0  0  0  0  0  0  0
  147.6301  138.3075  154.2626 H   0  0  0  0  0  0  0  0  0  0  0  0
  146.4385  140.2401  152.8432 H   0  0  0  0  0  0  0  0  0  0  0  0
  146.3914  140.3635  154.5996 H   0  0  0  0  0  0  0  0  0  0  0  0
  148.0750  141.9418  152.6809 H   0  0  0  0  0  0  0  0  0  0  0  0
  147.3565  142.4578  154.1947 H   0  0  0  0  0  0  0  0  0  0  0  0
  150.0217  141.4168  153.6551 H   0  0  0  0  0  0  0  0  0  0  0  0
  149.0070  143.0867  155.5181 H   0  0  0  0  0  0  0  0  0  0  0  0
  149.7468  143.7263  157.2272 H   0  0  0  0  0  0  0  0  0  0  0  0
  150.2116  144.9779  159.0217 H   0  0  0  0  0  0  0  0  0  0  0  0
  151.4220  145.2875  161.1817 H   0  0  0  0  0  0  0  0  0  0  0  0
  153.1672  141.3882  160.5946 H   0  0  0  0  0  0  0  0  0  0  0  0
  1  2  1  0  0  0  0
  1 19  1  0  0  0  0
  1 20  1  0  0  0  0
  1 21  1  0  0  0  0
  2  3  1  0  0  0  0
  3  7  1  0  0  0  0
  3  4  1  0  0  0  0
  3 22  1  0  0  0  0
  4  5  1  0  0  0  0
  4 23  1  0  0  0  0
  4 24  1  0  0  0  0
  5  6  1  0  0  0  0
  5 25  1  0  0  0  0
  5 26  1  0  0  0  0
  6  7  1  0  0  0  0
  6 27  1  0  0  0  0
  6 28  1  0  0  0  0
  7  8  1  0  0  0  0
  7 29  1  0  0  0  0
  8  9  1  0  0  0  0
  8 30  1  0  0  0  0
  9 10  2  0  0  0  0
  9 11  1  0  0  0  0
 11 12  1  0  0  0  0
 11 31  1  0  0  0  0
 12 18  1  0  0  0  0
 12 13  2  0  0  0  0
 13 14  1  0  0  0  0
 13 32  1  0  0  0  0
 14 15  2  0  0  0  0
 14 33  1  0  0  0  0
 15 16  1  0  0  0  0
 15 17  1  0  0  0  0
 17 18  2  0  0  0  0
 17 34  1  0  0  0  0
M  END
> <s_m_source_file>
AV-unprocessed.smi

> <i_m_source_file_index>
2752

> <i_lp_mmshare_version>
43012

> <i_f3d_flags>
0

> <s_epik_input>
W0NIM11PW0NAQEhdMVtDSDJdW0NIMl1bQ0gyXVtDQEhdMVtOSF1DKD1PKVtOSF1jMltjSF1bY0hdYyhGKVtjSF1uMg==

> <s_epik_cmdline>
J2VwaWtfcHl0aG9uJywgJy1waCcsICc3LjAnLCAnLXRuJywgJzgnLCAnLW1hJywgJzIwMCcsICctbWV0YWxfYmluZGluZycsICctaW1hZScsICc8aW5maWxlLm1hZT4nLCAnLW9tYWUnLCAnPG91dGZpbGUubWFlPic=

> <r_lp_tautomer_probability>
1

> <r_epik_Ionization_Penalty>
3.49853e-05

> <r_epik_Ionization_Penalty_Charging>
0

> <r_epik_Ionization_Penalty_Neutral>
3.49853e-05

> <r_epik_State_Penalty>
-0

> <r_epik_Charging_Adjusted_Penalty>
0

> <i_epik_Tot_Q>
0

> <i_epik_Tot_abs_Q>
0

> <r_epik_Metal_State_Penalty>
-0

> <b_epik_Metal_Only>
0

> <s_lp_Force_Field>
OPLS_2005

> <r_lp_Energy>
23.7986

> <b_lp_Chiralities_Consistent>
1

> <s_lp_Variant>
AV-unprocessed.smi:2752-2

> <Gold.Version>
5.8.1

> <Gold.Id.Protein>
6NUR|6NUR_protein|mol2

> <Gold.PLP.Fitness>
40.1870

> <Gold.PLP.PLP>
-35.2049

> <Gold.PLP.part.hbond>
-2.0000

> <Gold.PLP.part.metal>
0.0000

> <Gold.PLP.part.buried>
-4.1311

> <Gold.PLP.part.nonpolar>
-27.5112

> <Gold.PLP.part.repulsive>
0.2120

> <Gold.PLP.ligand.clash>
0.0000

> <Gold.PLP.ligand.torsion>
0.3350

> <Gold.PLP.Chemscore.Hbond>
1.8800

> <Gold.PLP.Chemscore.CHOScore>
0.0000

> <Gold.PLP.Chemscore.Metal>
0.0000

> <Gold.Chemscore.Hbonds>
donor molecule, donor type, donor heavy atom, donor atom, acceptor molecule, acceptor atom, score
      L1  H     8    30       P1  8028  1.00
      L1  H    11    31       P1  8028  0.86

> <Gold.PLP.Chemscore.Internal.Correction>
0.0120

> <Gold.Rescore>
     Score         DG    S(hbond)    S(metal)    S(lipo)     H(rot)  DE(clash)    DE(int)     intcor
     11.06     -17.92       1.91        0.00      79.85       1.28       0.86       6.00       ----

> <Gold.Chemscore.Fitness>
11.0589

> <Gold.Chemscore.DG>
-17.9197

> <Gold.Chemscore.ZeroCoef>
-5.4800

> <Gold.Chemscore.Hbond>
1.9099

> <Gold.Chemscore.Metal>
0.0000

> <Gold.Chemscore.Lipo>
79.8521

> <Gold.Chemscore.Internal_Hbond>
0.0000

> <Gold.Chemscore.DEClash>
0.8583

> <Gold.Chemscore.DEInternal>
6.0025

> <Gold.Chemscore.Rot>
1.2821

> <Gold.Chemscore.Internal.Correction>
   9.000000E+99

> <Gold.Chemscore.Hbonds>
donor molecule, donor type, donor heavy atom, donor atom, acceptor molecule, acceptor atom, score
      L1  H     8    30       P1  8028  0.98
      L1  H    11    31       P1  8028  0.68

> <Gold.Chemscore.Hbond.Weighted>
-6.3791

> <Gold.Chemscore.Metal.Weighted>
-0.0000

> <Gold.Chemscore.Lipo.Weighted>
-9.3427

> <Gold.Chemscore.Internal_Hbond.Weighted>
0.0000

> <Gold.Chemscore.DEClash.Weighted>
0.8583

> <Gold.Chemscore.DEInternal.Weighted>
6.0025

> <Gold.Chemscore.Rot.Weighted>
3.2822

> <Gold.Chemscore.Internal.Correction.Weighted>
   9.000000E+99

> <Gold.Protein.RotatedTorsions>
[ 6907 6896 6895 6894 ] final -140.30 input  -60.11 | X-H torsion
[ 7974 7965 7964 7962 ] final  -97.55 input  175.53 | X-H torsion
[ 8008 7997 7996 7995 ] final   38.20 input   59.86 | X-H torsion
[ 10167 10162 10161 10158 ] final  -49.37 input  -65.29 | X-H torsion
[ 10718 10713 10712 10709 ] final  -29.14 input   66.30 | X-H torsion
[ 10763 10752 10751 10750 ] final  178.49 input  -60.55 | X-H torsion
[ 11005 11000 10999 10996 ] final  129.19 input  -57.11 | X-H torsion

> <Gold.Protein.ActiveResidues>
 VAL166  LYS551  ARG553  GLY616  TRP617  ASP618  TYR619  PRO620  LYS621  CYS622 
 ASP623  PHE694  ASN695  SER759  ASP760  ASP761  ALA762  ILE779  LEU786  VAL792 
 PHE793  MET794  SER795  GLU796  ALA797  LYS798  CYS799  TRP800  GLU811  SER814 

> <Gold.Protein.RotatedAtoms>
  151.0589  133.5560  159.2635 H   0  0  0  0  0  0  0  0  0  0  0  0  # atno 6907 bound_to 6896
  151.2543  135.0632  159.9084 H   0  0  0  0  0  0  0  0  0  0  0  0  # atno 6908 bound_to 6896
  152.5394  134.0345  159.8093 H   0  0  0  0  0  0  0  0  0  0  0  0  # atno 6909 bound_to 6896
  145.3323  140.9444  143.2655 H   0  0  0  0  0  0  0  0  0  0  0  0  # atno 7974 bound_to 7965
  155.2162  140.3327  155.4322 H   0  0  0  0  0  0  0  0  0  0  0  0  # atno 8008 bound_to 7997
  156.2351  140.1868  156.7189 H   0  0  0  0  0  0  0  0  0  0  0  0  # atno 8009 bound_to 7997
  154.6045  140.0618  156.9398 H   0  0  0  0  0  0  0  0  0  0  0  0  # atno 8010 bound_to 7997
  140.6688  143.2700  151.4205 H   0  0  0  0  0  0  0  0  0  0  0  0  # atno 10167 bound_to 10162
  156.4162  130.4417  149.7216 H   0  0  0  0  0  0  0  0  0  0  0  0  # atno 10718 bound_to 10713
  154.5083  135.2787  155.1364 H   0  0  0  0  0  0  0  0  0  0  0  0  # atno 10763 bound_to 10752
  154.2969  135.6256  153.5412 H   0  0  0  0  0  0  0  0  0  0  0  0  # atno 10764 bound_to 10752
  152.9914  135.5687  154.5542 H   0  0  0  0  0  0  0  0  0  0  0  0  # atno 10765 bound_to 10752
  139.9602  134.9604  156.9112 H   0  0  0  0  0  0  0  0  0  0  0  0  # atno 11005 bound_to 11000
  144.8854  139.4846  143.6703 LP  0  0  0  0  0  0  0  0  0  0  0  0  # atno 17320 bound_to 7965
  146.3040  139.7520  142.9070 LP  0  0  0  0  0  0  0  0  0  0  0  0  # atno 17321 bound_to 7965
  139.5947  144.1422  152.2130 LP  0  0  0  0  0  0  0  0  0  0  0  0  # atno 17342 bound_to 10162
  140.0788  144.5718  150.7138 LP  0  0  0  0  0  0  0  0  0  0  0  0  # atno 17343 bound_to 10162
  156.4175  130.7752  151.2768 LP  0  0  0  0  0  0  0  0  0  0  0  0  # atno 17370 bound_to 10713
  157.7508  131.0193  150.3660 LP  0  0  0  0  0  0  0  0  0  0  0  0  # atno 17371 bound_to 10713
  140.5518  134.0620  155.7371 LP  0  0  0  0  0  0  0  0  0  0  0  0  # atno 17394 bound_to 11000
  141.1278  133.9353  157.2599 LP  0  0  0  0  0  0  0  0  0  0  0  0  # atno 17395 bound_to 11000

$$$$
