AV-unprocessed.smi:3030|AV-procd|sdf|11537|dock3
  -GOLD-   2272016483D 1   1.00000     0.00000
 Structure written by MMmdl.
 52 53  0  0  0  0  0  0  0  0  1 V2000
  145.2635  142.5151  154.8306 C   0  0  0  0  0  0  0  0  0  0  0  0
  146.4354  142.5743  153.8446 C   0  0  0  0  0  0  0  0  0  0  0  0
  147.3693  141.4764  154.0497 N   0  0  0  0  0  0  0  0  0  0  0  0
  148.6468  141.6972  154.5543 C   0  0  0  0  0  0  0  0  0  0  0  0
  149.5744  140.7326  154.7092 C   0  0  0  0  0  0  0  0  0  0  0  0
  149.2462  139.3445  154.3254 C   0  0  0  0  0  0  0  0  0  0  0  0
  150.0706  138.4389  154.4494 O   0  0  0  0  0  0  0  0  0  0  0  0
  147.8803  139.1084  153.7876 C   0  0  0  0  0  0  0  0  0  0  0  0
  147.5763  137.7898  153.4123 N   0  0  0  0  0  0  0  0  0  0  0  0
  146.5905  136.9884  153.8551 C   0  0  0  0  0  0  0  0  0  0  0  0
  145.7755  137.2671  154.7343 O   0  0  0  0  0  0  0  0  0  0  0  0
  146.6114  135.8105  153.2158 N   0  0  0  0  0  0  0  0  0  0  0  0
  145.6932  134.6942  153.4489 C   0  0  2  0  0  0  0  0  0  0  0  0
  145.7360  134.2572  154.9281 C   0  0  0  0  0  0  0  0  0  0  0  0
  147.0604  133.5686  155.3037 C   0  0  1  0  0  0  0  0  0  0  0  0
  147.0699  133.1337  156.7760 C   0  0  0  0  0  0  0  0  0  0  0  0
  147.3153  132.3813  154.3624 C   0  0  0  0  0  0  0  0  0  0  0  0
  147.3068  132.8124  152.8873 C   0  0  0  0  0  0  0  0  0  0  0  0
  145.9852  133.5121  152.4804 C   0  0  2  0  0  0  0  0  0  0  0  0
  145.9593  133.9177  150.9737 C   0  0  0  0  0  0  0  0  0  0  0  0
  144.7030  134.7286  150.5998 C   0  0  0  0  0  0  0  0  0  0  0  0
  146.0643  132.7046  150.0295 C   0  0  0  0  0  0  0  0  0  0  0  0
  147.0457  140.1733  153.6775 C   0  0  0  0  0  0  0  0  0  0  0  0
  144.5752  143.3436  154.6643 H   0  0  0  0  0  0  0  0  0  0  0  0
  145.6130  142.5738  155.8617 H   0  0  0  0  0  0  0  0  0  0  0  0
  144.7011  141.5877  154.7184 H   0  0  0  0  0  0  0  0  0  0  0  0
  146.0604  142.5456  152.8208 H   0  0  0  0  0  0  0  0  0  0  0  0
  146.9605  143.5244  153.9504 H   0  0  0  0  0  0  0  0  0  0  0  0
  148.8471  142.7237  154.8256 H   0  0  0  0  0  0  0  0  0  0  0  0
  150.5543  140.9509  155.1079 H   0  0  0  0  0  0  0  0  0  0  0  0
  148.2060  137.3930  152.7299 H   0  0  0  0  0  0  0  0  0  0  0  0
  147.3194  135.6695  152.5101 H   0  0  0  0  0  0  0  0  0  0  0  0
  144.6745  135.0359  153.2626 H   0  0  0  0  0  0  0  0  0  0  0  0
  145.5652  135.1186  155.5754 H   0  0  0  0  0  0  0  0  0  0  0  0
  144.9087  133.5716  155.1173 H   0  0  0  0  0  0  0  0  0  0  0  0
  147.8716  134.2859  155.1713 H   0  0  0  0  0  0  0  0  0  0  0  0
  146.2777  132.4132  156.9823 H   0  0  0  0  0  0  0  0  0  0  0  0
  146.9239  133.9881  157.4375 H   0  0  0  0  0  0  0  0  0  0  0  0
  148.0198  132.6698  157.0429 H   0  0  0  0  0  0  0  0  0  0  0  0
  148.2734  131.9176  154.5998 H   0  0  0  0  0  0  0  0  0  0  0  0
  146.5555  131.6145  154.5202 H   0  0  0  0  0  0  0  0  0  0  0  0
  148.1527  133.4736  152.6948 H   0  0  0  0  0  0  0  0  0  0  0  0
  147.4720  131.9203  152.2849 H   0  0  0  0  0  0  0  0  0  0  0  0
  145.1853  132.7840  152.6264 H   0  0  0  0  0  0  0  0  0  0  0  0
  146.8237  134.5509  150.7703 H   0  0  0  0  0  0  0  0  0  0  0  0
  143.7914  134.1853  150.8505 H   0  0  0  0  0  0  0  0  0  0  0  0
  144.6760  134.9434  149.5312 H   0  0  0  0  0  0  0  0  0  0  0  0
  144.6720  135.6922  151.1078 H   0  0  0  0  0  0  0  0  0  0  0  0
  145.2865  131.9697  150.2385 H   0  0  0  0  0  0  0  0  0  0  0  0
  147.0302  132.2073  150.1079 H   0  0  0  0  0  0  0  0  0  0  0  0
  145.9595  133.0077  148.9873 H   0  0  0  0  0  0  0  0  0  0  0  0
  146.0473  140.0964  153.2773 H   0  0  0  0  0  0  0  0  0  0  0  0
  1  2  1  0  0  0  0
  1 24  1  0  0  0  0
  1 25  1  0  0  0  0
  1 26  1  0  0  0  0
  2  3  1  0  0  0  0
  2 27  1  0  0  0  0
  2 28  1  0  0  0  0
  3 23  1  0  0  0  0
  3  4  1  0  0  0  0
  4  5  2  0  0  0  0
  4 29  1  0  0  0  0
  5  6  1  0  0  0  0
  5 30  1  0  0  0  0
  6  7  2  0  0  0  0
  6  8  1  0  0  0  0
  8  9  1  0  0  0  0
  8 23  2  0  0  0  0
  9 10  1  0  0  0  0
  9 31  1  0  0  0  0
 10 11  2  0  0  0  0
 10 12  1  0  0  0  0
 12 13  1  0  0  0  0
 12 32  1  0  0  0  0
 13 19  1  0  0  0  0
 13 14  1  0  0  0  0
 13 33  1  0  0  0  0
 14 15  1  0  0  0  0
 14 34  1  0  0  0  0
 14 35  1  0  0  0  0
 15 16  1  0  0  0  0
 15 17  1  0  0  0  0
 15 36  1  0  0  0  0
 16 37  1  0  0  0  0
 16 38  1  0  0  0  0
 16 39  1  0  0  0  0
 17 18  1  0  0  0  0
 17 40  1  0  0  0  0
 17 41  1  0  0  0  0
 18 19  1  0  0  0  0
 18 42  1  0  0  0  0
 18 43  1  0  0  0  0
 19 20  1  0  0  0  0
 19 44  1  0  0  0  0
 20 21  1  0  0  0  0
 20 22  1  0  0  0  0
 20 45  1  0  0  0  0
 21 46  1  0  0  0  0
 21 47  1  0  0  0  0
 21 48  1  0  0  0  0
 22 49  1  0  0  0  0
 22 50  1  0  0  0  0
 22 51  1  0  0  0  0
 23 52  1  0  0  0  0
M  END
> <s_m_source_file>
AV-unprocessed.smi

> <i_m_source_file_index>
3030

> <i_lp_mmshare_version>
43012

> <i_f3d_flags>
0

> <s_epik_input>
W0NIM11bQ0gyXW4xW2NIXVtjSF1jKD1PKWMoW2NIXTEpW05IXUMoPU8pW05IXVtDQEBIXTJbQ0gyXVtDQEBIXShbQ0gzXSlbQ0gyXVtDSDJdW0NASF0yW0NIXShbQ0gzXSlbQ0gzXQ==

> <s_epik_cmdline>
J2VwaWtfcHl0aG9uJywgJy1waCcsICc3LjAnLCAnLXRuJywgJzgnLCAnLW1hJywgJzIwMCcsICctbWV0YWxfYmluZGluZycsICctaW1hZScsICc8aW5maWxlLm1hZT4nLCAnLW9tYWUnLCAnPG91dGZpbGUubWFlPic=

> <r_lp_tautomer_probability>
1

> <r_epik_Ionization_Penalty>
0.00147933

> <r_epik_Ionization_Penalty_Charging>
0.00145753

> <r_epik_Ionization_Penalty_Neutral>
2.17987e-05

> <r_epik_State_Penalty>
0.00097457

> <r_epik_Charging_Adjusted_Penalty>
0.0024321

> <i_epik_Tot_Q>
0

> <i_epik_Tot_abs_Q>
0

> <r_epik_Metal_State_Penalty>
-0

> <b_epik_Metal_Only>
0

> <s_lp_Force_Field>
OPLS_2005

> <r_lp_Energy>
9.06052

> <b_lp_Chiralities_Consistent>
1

> <s_lp_Variant>
AV-unprocessed.smi:3030-5

> <Gold.Version>
5.8.1

> <Gold.Id.Protein>
6NUR|6NUR_protein|mol2

> <Gold.PLP.Fitness>
46.0703

> <Gold.PLP.PLP>
-35.5286

> <Gold.PLP.part.hbond>
-2.0000

> <Gold.PLP.part.metal>
0.0000

> <Gold.PLP.part.buried>
-2.6858

> <Gold.PLP.part.nonpolar>
-30.4676

> <Gold.PLP.part.repulsive>
0.2823

> <Gold.PLP.ligand.clash>
0.0000

> <Gold.PLP.ligand.torsion>
0.7197

> <Gold.PLP.Chemscore.Hbond>
1.9440

> <Gold.PLP.Chemscore.CHOScore>
2.0000

> <Gold.PLP.Chemscore.Metal>
0.0000

> <Gold.Chemscore.Hbonds>
donor molecule, donor type, donor heavy atom, donor atom, acceptor molecule, acceptor atom, score
      L1  H     9    31       P1  7948  1.00
      L1  H    12    32       P1  7948  0.94
      L1  C     4    29       P1  8028  1.00
      L1  C    23    52       P1 10175  1.00

> <Gold.PLP.Chemscore.Internal.Correction>
0.1490

> <Gold.Rescore>
     Score         DG    S(hbond)    S(metal)    S(lipo)     H(rot)  DE(clash)    DE(int)     intcor
     16.25     -18.00       1.90        0.00      80.48       1.27       0.07       1.67       ----

> <Gold.Chemscore.Fitness>
16.2549

> <Gold.Chemscore.DG>
-17.9954

> <Gold.Chemscore.ZeroCoef>
-5.4800

> <Gold.Chemscore.Hbond>
1.9001

> <Gold.Chemscore.Metal>
0.0000

> <Gold.Chemscore.Lipo>
80.4831

> <Gold.Chemscore.Internal_Hbond>
0.0000

> <Gold.Chemscore.DEClash>
0.0703

> <Gold.Chemscore.DEInternal>
1.6703

> <Gold.Chemscore.Rot>
1.2685

> <Gold.Chemscore.Internal.Correction>
   9.000000E+99

> <Gold.Chemscore.Hbonds>
donor molecule, donor type, donor heavy atom, donor atom, acceptor molecule, acceptor atom, score
      L1  H     9    31       P1  7948  0.99
      L1  H    12    32       P1  7948  0.91

> <Gold.Chemscore.Hbond.Weighted>
-6.3463

> <Gold.Chemscore.Metal.Weighted>
-0.0000

> <Gold.Chemscore.Lipo.Weighted>
-9.4165

> <Gold.Chemscore.Internal_Hbond.Weighted>
0.0000

> <Gold.Chemscore.DEClash.Weighted>
0.0703

> <Gold.Chemscore.DEInternal.Weighted>
1.6703

> <Gold.Chemscore.Rot.Weighted>
3.2474

> <Gold.Chemscore.Internal.Correction.Weighted>
   9.000000E+99

> <Gold.Protein.RotatedTorsions>
[ 6907 6896 6895 6894 ] final   40.68 input  -60.11 | X-H torsion
[ 7974 7965 7964 7962 ] final  111.77 input  175.53 | X-H torsion
[ 8008 7997 7996 7995 ] final  120.76 input   59.86 | X-H torsion
[ 10167 10162 10161 10158 ] final  -96.03 input  -65.29 | X-H torsion
[ 10718 10713 10712 10709 ] final -101.19 input   66.30 | X-H torsion
[ 10763 10752 10751 10750 ] final  -50.43 input  -60.55 | X-H torsion
[ 11005 11000 10999 10996 ] final    5.71 input  -57.11 | X-H torsion

> <Gold.Protein.ActiveResidues>
 VAL166  LYS551  ARG553  GLY616  TRP617  ASP618  TYR619  PRO620  LYS621  CYS622 
 ASP623  PHE694  ASN695  SER759  ASP760  ASP761  ALA762  ILE779  LEU786  VAL792 
 PHE793  MET794  SER795  GLU796  ALA797  LYS798  CYS799  TRP800  GLU811  SER814 

> <Gold.Protein.RotatedAtoms>
  152.1857  134.8716  160.0522 H   0  0  0  0  0  0  0  0  0  0  0  0  # atno 6907 bound_to 6896
  151.9624  133.3694  159.4048 H   0  0  0  0  0  0  0  0  0  0  0  0  # atno 6908 bound_to 6896
  150.6925  134.4150  159.5223 H   0  0  0  0  0  0  0  0  0  0  0  0  # atno 6909 bound_to 6896
  145.2380  139.2791  143.4133 H   0  0  0  0  0  0  0  0  0  0  0  0  # atno 7974 bound_to 7965
  156.2657  140.2823  156.1201 H   0  0  0  0  0  0  0  0  0  0  0  0  # atno 8008 bound_to 7997
  155.1165  140.0391  157.2756 H   0  0  0  0  0  0  0  0  0  0  0  0  # atno 8009 bound_to 7997
  154.6703  140.2586  155.7020 H   0  0  0  0  0  0  0  0  0  0  0  0  # atno 8010 bound_to 7997
  140.2980  143.3180  152.0278 H   0  0  0  0  0  0  0  0  0  0  0  0  # atno 10167 bound_to 10162
  156.0187  130.5362  150.6927 H   0  0  0  0  0  0  0  0  0  0  0  0  # atno 10718 bound_to 10713
  154.1103  135.6550  153.4884 H   0  0  0  0  0  0  0  0  0  0  0  0  # atno 10763 bound_to 10752
  153.0259  135.5246  154.7199 H   0  0  0  0  0  0  0  0  0  0  0  0  # atno 10764 bound_to 10752
  154.6377  135.2984  155.0111 H   0  0  0  0  0  0  0  0  0  0  0  0  # atno 10765 bound_to 10752
  140.5676  134.0133  155.7996 H   0  0  0  0  0  0  0  0  0  0  0  0  # atno 11005 bound_to 11000
  146.3336  140.2735  142.8607 LP  0  0  0  0  0  0  0  0  0  0  0  0  # atno 17320 bound_to 7965
  144.9615  140.8280  143.5510 LP  0  0  0  0  0  0  0  0  0  0  0  0  # atno 17321 bound_to 7965
  139.4922  144.6477  151.6744 LP  0  0  0  0  0  0  0  0  0  0  0  0  # atno 17342 bound_to 10162
  140.5675  144.0164  150.6200 LP  0  0  0  0  0  0  0  0  0  0  0  0  # atno 17343 bound_to 10162
  157.4605  131.0882  151.0751 LP  0  0  0  0  0  0  0  0  0  0  0  0  # atno 17370 bound_to 10713
  157.1240  130.6074  149.5512 LP  0  0  0  0  0  0  0  0  0  0  0  0  # atno 17371 bound_to 10713
  141.1076  133.9669  157.2969 LP  0  0  0  0  0  0  0  0  0  0  0  0  # atno 17394 bound_to 11000
  139.9377  135.0194  156.8609 LP  0  0  0  0  0  0  0  0  0  0  0  0  # atno 17395 bound_to 11000

$$$$
