AV-unprocessed.smi:2922|AV-procd|sdf|11200|dock5
  -GOLD-   2272016 93D 1   1.00000     0.00000
 Structure written by MMmdl.
 30 31  0  0  0  0  0  0  0  0  1 V2000
  145.0474  136.2448  149.5591 N   0  0  0  0  0  0  0  0  0  0  0  0
  144.8853  135.4588  150.6274 C   0  0  0  0  0  0  0  0  0  0  0  0
  144.4365  135.8910  151.6874 O   0  0  0  0  0  0  0  0  0  0  0  0
  145.2567  133.9750  150.4828 C   0  0  2  0  0  0  0  0  0  0  0  0
  144.0507  133.0202  150.3926 C   0  0  0  0  0  0  0  0  0  0  0  0
  144.2303  132.0907  151.5794 C   0  0  0  0  0  0  0  0  0  0  0  0
  145.7319  132.1667  151.8399 C   0  0  2  0  0  0  0  0  0  0  0  0
  146.1531  131.7611  153.2583 C   0  0  0  0  0  0  0  0  0  0  0  0
  146.0395  130.3250  153.4639 N   0  0  0  0  0  0  0  0  0  0  0  0
  146.7464  129.3800  152.7451 C   0  0  0  0  0  0  0  0  0  0  0  0
  146.3546  129.1126  151.4928 N   0  0  0  0  0  0  0  0  0  0  0  0
  147.0620  128.1840  150.8125 C   0  0  0  0  0  0  0  0  0  0  0  0
  148.1630  127.5246  151.3946 C   0  0  0  0  0  0  0  0  0  0  0  0
  149.0697  126.3367  150.5326 Cl  0  0  0  0  0  0  0  0  0  0  0  0
  148.4847  127.8862  152.7181 C   0  0  0  0  0  0  0  0  0  0  0  0
  147.7718  128.8171  153.3904 N   0  0  0  0  0  0  0  0  0  0  0  0
  145.9950  133.5433  151.6258 O   0  0  0  0  0  0  0  0  0  0  0  0
  144.8177  137.2262  149.6161 H   0  0  0  0  0  0  0  0  0  0  0  0
  145.4031  135.8517  148.6995 H   0  0  0  0  0  0  0  0  0  0  0  0
  145.8858  133.8559  149.5995 H   0  0  0  0  0  0  0  0  0  0  0  0
  143.0805  133.5176  150.4273 H   0  0  0  0  0  0  0  0  0  0  0  0
  144.0956  132.4566  149.4597 H   0  0  0  0  0  0  0  0  0  0  0  0
  143.6785  132.4786  152.4370 H   0  0  0  0  0  0  0  0  0  0  0  0
  143.8823  131.0764  151.3824 H   0  0  0  0  0  0  0  0  0  0  0  0
  146.2790  131.5868  151.0939 H   0  0  0  0  0  0  0  0  0  0  0  0
  147.1895  132.0538  153.4295 H   0  0  0  0  0  0  0  0  0  0  0  0
  145.5464  132.2862  153.9971 H   0  0  0  0  0  0  0  0  0  0  0  0
  145.3903  129.9889  154.1602 H   0  0  0  0  0  0  0  0  0  0  0  0
  146.7468  127.9676  149.8025 H   0  0  0  0  0  0  0  0  0  0  0  0
  149.3133  127.4297  153.2392 H   0  0  0  0  0  0  0  0  0  0  0  0
  1  2  1  0  0  0  0
  1 18  1  0  0  0  0
  1 19  1  0  0  0  0
  2  3  2  0  0  0  0
  2  4  1  0  0  0  0
  4 17  1  0  0  0  0
  4  5  1  0  0  0  0
  4 20  1  0  0  0  0
  5  6  1  0  0  0  0
  5 21  1  0  0  0  0
  5 22  1  0  0  0  0
  6  7  1  0  0  0  0
  6 23  1  0  0  0  0
  6 24  1  0  0  0  0
  7  8  1  0  0  0  0
  7 17  1  0  0  0  0
  7 25  1  0  0  0  0
  8  9  1  0  0  0  0
  8 26  1  0  0  0  0
  8 27  1  0  0  0  0
  9 10  1  0  0  0  0
  9 28  1  0  0  0  0
 10 16  1  0  0  0  0
 10 11  2  0  0  0  0
 11 12  1  0  0  0  0
 12 13  2  0  0  0  0
 12 29  1  0  0  0  0
 13 14  1  0  0  0  0
 13 15  1  0  0  0  0
 15 16  2  0  0  0  0
 15 30  1  0  0  0  0
M  END
> <s_m_source_file>
AV-unprocessed.smi

> <i_m_source_file_index>
2922

> <i_lp_mmshare_version>
43012

> <i_f3d_flags>
0

> <s_epik_input>
W05IMl1DKD1PKVtDQEBIXTFbQ0gyXVtDSDJdW0NASF0oTzEpW0NIMl1bTkhdYzJuW2NIXWMoQ2wpW2NIXW4y

> <s_epik_cmdline>
J2VwaWtfcHl0aG9uJywgJy1waCcsICc3LjAnLCAnLXRuJywgJzgnLCAnLW1hJywgJzIwMCcsICctbWV0YWxfYmluZGluZycsICctaW1hZScsICc8aW5maWxlLm1hZT4nLCAnLW9tYWUnLCAnPG91dGZpbGUubWFlPic=

> <r_lp_tautomer_probability>
1

> <r_epik_Ionization_Penalty>
6.13883e-06

> <r_epik_Ionization_Penalty_Charging>
0

> <r_epik_Ionization_Penalty_Neutral>
6.13883e-06

> <r_epik_State_Penalty>
-0

> <r_epik_Charging_Adjusted_Penalty>
0

> <i_epik_Tot_Q>
0

> <i_epik_Tot_abs_Q>
0

> <r_epik_Metal_State_Penalty>
-0

> <b_epik_Metal_Only>
0

> <s_lp_Force_Field>
OPLS_2005

> <r_lp_Energy>
9.86342

> <b_lp_Chiralities_Consistent>
1

> <s_lp_Variant>
AV-unprocessed.smi:2922-3

> <Gold.Version>
5.8.1

> <Gold.Id.Protein>
6NUR|6NUR_protein|mol2

> <Gold.PLP.Fitness>
39.7662

> <Gold.PLP.PLP>
-32.9655

> <Gold.PLP.part.hbond>
-3.0000

> <Gold.PLP.part.metal>
0.0000

> <Gold.PLP.part.buried>
-5.0399

> <Gold.PLP.part.nonpolar>
-25.1891

> <Gold.PLP.part.repulsive>
0.6554

> <Gold.PLP.ligand.clash>
0.0000

> <Gold.PLP.ligand.torsion>
1.1088

> <Gold.PLP.Chemscore.Hbond>
3.0000

> <Gold.PLP.Chemscore.CHOScore>
0.0000

> <Gold.PLP.Chemscore.Metal>
0.0000

> <Gold.Chemscore.Hbonds>
donor molecule, donor type, donor heavy atom, donor atom, acceptor molecule, acceptor atom, score
      L1  H     1    18       P1 10171  1.00
      L1  H     1    19       P1  7921  1.00
      L1  H     9    28       P1 10956  0.48

> <Gold.PLP.Chemscore.Internal.Correction>
0.0182

> <Gold.Rescore>
     Score         DG    S(hbond)    S(metal)    S(lipo)     H(rot)  DE(clash)    DE(int)     intcor
     16.68     -17.69       2.70        0.00      69.07       1.91       0.03       0.98       ----

> <Gold.Chemscore.Fitness>
16.6789

> <Gold.Chemscore.DG>
-17.6877

> <Gold.Chemscore.ZeroCoef>
-5.4800

> <Gold.Chemscore.Hbond>
2.7025

> <Gold.Chemscore.Metal>
0.0000

> <Gold.Chemscore.Lipo>
69.0723

> <Gold.Chemscore.Internal_Hbond>
0.0000

> <Gold.Chemscore.DEClash>
0.0291

> <Gold.Chemscore.DEInternal>
0.9797

> <Gold.Chemscore.Rot>
1.9142

> <Gold.Chemscore.Internal.Correction>
   9.000000E+99

> <Gold.Chemscore.Hbonds>
donor molecule, donor type, donor heavy atom, donor atom, acceptor molecule, acceptor atom, score
      L1  H     1    18       P1 10171  0.99
      L1  H     1    19       P1  7921  0.99
      L1  H     9    28       P1 10956  0.22

> <Gold.Chemscore.Hbond.Weighted>
-9.0265

> <Gold.Chemscore.Metal.Weighted>
-0.0000

> <Gold.Chemscore.Lipo.Weighted>
-8.0815

> <Gold.Chemscore.Internal_Hbond.Weighted>
0.0000

> <Gold.Chemscore.DEClash.Weighted>
0.0291

> <Gold.Chemscore.DEInternal.Weighted>
0.9797

> <Gold.Chemscore.Rot.Weighted>
4.9002

> <Gold.Chemscore.Internal.Correction.Weighted>
   9.000000E+99

> <Gold.Protein.RotatedTorsions>
[ 6907 6896 6895 6894 ] final  106.49 input  -60.11 | X-H torsion
[ 7974 7965 7964 7962 ] final   45.56 input  175.53 | X-H torsion
[ 8008 7997 7996 7995 ] final  172.19 input   59.86 | X-H torsion
[ 10167 10162 10161 10158 ] final   58.78 input  -65.29 | X-H torsion
[ 10718 10713 10712 10709 ] final  -11.88 input   66.30 | X-H torsion
[ 10763 10752 10751 10750 ] final  -38.34 input  -60.55 | X-H torsion
[ 11005 11000 10999 10996 ] final  167.34 input  -57.11 | X-H torsion

> <Gold.Protein.ActiveResidues>
 VAL166  LYS551  ARG553  GLY616  TRP617  ASP618  TYR619  PRO620  LYS621  CYS622 
 ASP623  PHE694  ASN695  SER759  ASP760  ASP761  ALA762  ILE779  LEU786  VAL792 
 PHE793  MET794  SER795  GLU796  ALA797  LYS798  CYS799  TRP800  GLU811  SER814 

> <Gold.Protein.RotatedAtoms>
  152.5192  133.9374  159.7609 H   0  0  0  0  0  0  0  0  0  0  0  0  # atno 6907 bound_to 6896
  150.9711  133.6335  159.2745 H   0  0  0  0  0  0  0  0  0  0  0  0  # atno 6908 bound_to 6896
  151.3546  135.0897  159.9467 H   0  0  0  0  0  0  0  0  0  0  0  0  # atno 6909 bound_to 6896
  146.0469  139.4951  142.9743 H   0  0  0  0  0  0  0  0  0  0  0  0  # atno 7974 bound_to 7965
  156.1198  140.1492  156.9221 H   0  0  0  0  0  0  0  0  0  0  0  0  # atno 8008 bound_to 7997
  154.4827  140.0874  156.7457 H   0  0  0  0  0  0  0  0  0  0  0  0  # atno 8009 bound_to 7997
  155.4448  140.3432  155.4296 H   0  0  0  0  0  0  0  0  0  0  0  0  # atno 8010 bound_to 7997
  140.1835  144.4158  150.6604 H   0  0  0  0  0  0  0  0  0  0  0  0  # atno 10167 bound_to 10162
  156.6526  130.4959  149.6057 H   0  0  0  0  0  0  0  0  0  0  0  0  # atno 10718 bound_to 10713
  153.9112  135.6792  153.4751 H   0  0  0  0  0  0  0  0  0  0  0  0  # atno 10763 bound_to 10752
  153.1077  135.4797  154.8978 H   0  0  0  0  0  0  0  0  0  0  0  0  # atno 10764 bound_to 10752
  154.7526  135.3189  154.8485 H   0  0  0  0  0  0  0  0  0  0  0  0  # atno 10765 bound_to 10752
  140.2757  134.7790  157.3715 H   0  0  0  0  0  0  0  0  0  0  0  0  # atno 11005 bound_to 11000
  145.6791  141.0196  143.1616 LP  0  0  0  0  0  0  0  0  0  0  0  0  # atno 17320 bound_to 7965
  144.7102  139.8400  143.7417 LP  0  0  0  0  0  0  0  0  0  0  0  0  # atno 17321 bound_to 7965
  140.6504  143.2223  151.6091 LP  0  0  0  0  0  0  0  0  0  0  0  0  # atno 17342 bound_to 10162
  139.5286  144.2984  152.1094 LP  0  0  0  0  0  0  0  0  0  0  0  0  # atno 17343 bound_to 10162
  156.2072  130.6657  151.1231 LP  0  0  0  0  0  0  0  0  0  0  0  0  # atno 17370 bound_to 10713
  157.7136  131.0721  150.6411 LP  0  0  0  0  0  0  0  0  0  0  0  0  # atno 17371 bound_to 10713
  140.1330  134.5070  155.8090 LP  0  0  0  0  0  0  0  0  0  0  0  0  # atno 17394 bound_to 11000
  141.2170  133.6797  156.7074 LP  0  0  0  0  0  0  0  0  0  0  0  0  # atno 17395 bound_to 11000

$$$$
