AV-unprocessed.smi:1853|AV-procd|sdf|7527|dock6
  -GOLD-   22720 9233D 1   1.00000     0.00000
 Structure written by MMmdl.
 42 44  0  0  0  0  0  0  0  0  1 V2000
  154.3805  135.2273  164.2946 C   0  0  0  0  0  0  0  0  0  0  0  0
  154.6486  136.6231  163.7705 C   0  0  0  0  0  0  0  0  0  0  0  0
  153.9445  137.1134  162.6531 C   0  0  0  0  0  0  0  0  0  0  0  0
  154.1974  138.4131  162.1740 C   0  0  0  0  0  0  0  0  0  0  0  0
  155.1509  139.2419  162.8004 C   0  0  0  0  0  0  0  0  0  0  0  0
  155.3332  140.4996  162.2667 O   0  0  0  0  0  0  0  0  0  0  0  0
  154.2295  141.1206  161.6239 C   0  0  0  0  0  0  0  0  0  0  0  0
  154.2216  140.7013  160.1491 C   0  0  0  0  0  0  0  0  0  0  0  0
  152.9771  141.0680  159.4910 N   0  0  0  0  0  0  0  0  0  0  0  0
  151.9995  140.2558  159.0119 C   0  0  0  0  0  0  0  0  0  0  0  0
  152.0833  138.7537  159.1006 C   0  0  0  0  0  0  0  0  0  0  0  0
  151.6654  138.1503  157.8376 N   0  0  0  0  0  0  0  0  0  0  0  0
  152.1922  138.4315  156.6372 C   0  0  0  0  0  0  0  0  0  0  0  0
  153.1019  139.2371  156.4471 O   0  0  0  0  0  0  0  0  0  0  0  0
  150.9477  140.8791  158.4734 N   0  0  0  0  0  0  0  0  0  0  0  0
  151.2858  142.2124  158.5909 C   0  0  0  0  0  0  0  0  0  0  0  0
  150.5875  143.3758  158.1948 C   0  0  0  0  0  0  0  0  0  0  0  0
  151.1409  144.6527  158.4233 C   0  0  0  0  0  0  0  0  0  0  0  0
  152.3975  144.7843  159.0490 C   0  0  0  0  0  0  0  0  0  0  0  0
  153.1089  143.6380  159.4519 C   0  0  0  0  0  0  0  0  0  0  0  0
  152.5519  142.3653  159.2221 C   0  0  0  0  0  0  0  0  0  0  0  0
  155.8556  138.7423  163.9249 C   0  0  0  0  0  0  0  0  0  0  0  0
  155.6037  137.4420  164.4041 C   0  0  0  0  0  0  0  0  0  0  0  0
  153.8473  134.6246  163.5589 H   0  0  0  0  0  0  0  0  0  0  0  0
  153.7766  135.2759  165.2010 H   0  0  0  0  0  0  0  0  0  0  0  0
  155.3169  134.7216  164.5317 H   0  0  0  0  0  0  0  0  0  0  0  0
  153.2077  136.4968  162.1596 H   0  0  0  0  0  0  0  0  0  0  0  0
  153.6514  138.7791  161.3169 H   0  0  0  0  0  0  0  0  0  0  0  0
  153.2965  140.8135  162.0998 H   0  0  0  0  0  0  0  0  0  0  0  0
  154.3121  142.2046  161.7018 H   0  0  0  0  0  0  0  0  0  0  0  0
  155.0622  141.1406  159.6121 H   0  0  0  0  0  0  0  0  0  0  0  0
  154.3473  139.6209  160.0721 H   0  0  0  0  0  0  0  0  0  0  0  0
  153.0893  138.4182  159.3507 H   0  0  0  0  0  0  0  0  0  0  0  0
  151.4223  138.4105  159.8964 H   0  0  0  0  0  0  0  0  0  0  0  0
  150.9137  137.4777  157.8813 H   0  0  0  0  0  0  0  0  0  0  0  0
  151.6992  137.8460  155.8459 H   0  0  0  0  0  0  0  0  0  0  0  0
  149.6248  143.2859  157.7137 H   0  0  0  0  0  0  0  0  0  0  0  0
  150.5990  145.5355  158.1165 H   0  0  0  0  0  0  0  0  0  0  0  0
  152.8149  145.7659  159.2198 H   0  0  0  0  0  0  0  0  0  0  0  0
  154.0717  143.7366  159.9307 H   0  0  0  0  0  0  0  0  0  0  0  0
  156.5956  139.3368  164.4391 H   0  0  0  0  0  0  0  0  0  0  0  0
  156.1473  137.0748  165.2624 H   0  0  0  0  0  0  0  0  0  0  0  0
  1  2  1  0  0  0  0
  1 24  1  0  0  0  0
  1 25  1  0  0  0  0
  1 26  1  0  0  0  0
  2 23  1  0  0  0  0
  2  3  2  0  0  0  0
  3  4  1  0  0  0  0
  3 27  1  0  0  0  0
  4  5  2  0  0  0  0
  4 28  1  0  0  0  0
  5  6  1  0  0  0  0
  5 22  1  0  0  0  0
  6  7  1  0  0  0  0
  7  8  1  0  0  0  0
  7 29  1  0  0  0  0
  7 30  1  0  0  0  0
  8  9  1  0  0  0  0
  8 31  1  0  0  0  0
  8 32  1  0  0  0  0
  9 21  1  0  0  0  0
  9 10  1  0  0  0  0
 10 11  1  0  0  0  0
 10 15  2  0  0  0  0
 11 12  1  0  0  0  0
 11 33  1  0  0  0  0
 11 34  1  0  0  0  0
 12 13  1  0  0  0  0
 12 35  1  0  0  0  0
 13 14  2  0  0  0  0
 13 36  1  0  0  0  0
 15 16  1  0  0  0  0
 16 21  2  0  0  0  0
 16 17  1  0  0  0  0
 17 18  2  0  0  0  0
 17 37  1  0  0  0  0
 18 19  1  0  0  0  0
 18 38  1  0  0  0  0
 19 20  2  0  0  0  0
 19 39  1  0  0  0  0
 20 21  1  0  0  0  0
 20 40  1  0  0  0  0
 22 23  2  0  0  0  0
 22 41  1  0  0  0  0
 23 42  1  0  0  0  0
M  END
> <s_m_source_file>
AV-unprocessed.smi

> <i_m_source_file_index>
1853

> <i_lp_mmshare_version>
43012

> <i_f3d_flags>
0

> <s_epik_input>
W0NIM11jMVtjSF1bY0hdYyhbY0hdW2NIXTEpT1tDSDJdW0NIMl1uKGMobjIpW0NIMl1bTkhdW0NIXT1PKWMoYzIzKVtjSF1bY0hdW2NIXVtjSF0z

> <s_epik_cmdline>
J2VwaWtfcHl0aG9uJywgJy1waCcsICc3LjAnLCAnLXRuJywgJzgnLCAnLW1hJywgJzIwMCcsICctbWV0YWxfYmluZGluZycsICctaW1hZScsICc8aW5maWxlLm1hZT4nLCAnLW9tYWUnLCAnPG91dGZpbGUubWFlPic=

> <r_lp_tautomer_probability>
1

> <r_epik_Ionization_Penalty>
0.0586177

> <r_epik_Ionization_Penalty_Charging>
0

> <r_epik_Ionization_Penalty_Neutral>
0.0586177

> <r_epik_State_Penalty>
0.0507031

> <r_epik_Charging_Adjusted_Penalty>
0.0507031

> <i_epik_Tot_Q>
0

> <i_epik_Tot_abs_Q>
0

> <r_epik_Metal_State_Penalty>
0.0461069

> <b_epik_Metal_Only>
0

> <s_lp_Force_Field>
OPLS_2005

> <r_lp_Energy>
12.744

> <b_lp_Chiralities_Consistent>
1

> <s_lp_Variant>
AV-unprocessed.smi:1853-1

> <Gold.Version>
5.8.1

> <Gold.Id.Protein>
6NUR|6NUR_protein|mol2

> <Gold.PLP.Fitness>
50.5264

> <Gold.PLP.PLP>
-49.1210

> <Gold.PLP.part.hbond>
-1.9196

> <Gold.PLP.part.metal>
0.0000

> <Gold.PLP.part.buried>
-5.7962

> <Gold.PLP.part.nonpolar>
-42.0642

> <Gold.PLP.part.repulsive>
0.0539

> <Gold.PLP.ligand.clash>
0.0000

> <Gold.PLP.ligand.torsion>
0.8532

> <Gold.PLP.Chemscore.Hbond>
1.0000

> <Gold.PLP.Chemscore.CHOScore>
0.0000

> <Gold.PLP.Chemscore.Metal>
0.0000

> <Gold.Chemscore.Hbonds>
donor molecule, donor type, donor heavy atom, donor atom, acceptor molecule, acceptor atom, score
      P1  H  7997  8009       L1    14  1.00

> <Gold.PLP.Chemscore.Internal.Correction>
0.1119

> <Gold.Rescore>
     Score         DG    S(hbond)    S(metal)    S(lipo)     H(rot)  DE(clash)    DE(int)     intcor
     18.42     -19.47       0.99        0.00     143.86       2.40       0.26       0.78       ----

> <Gold.Chemscore.Fitness>
18.4200

> <Gold.Chemscore.DG>
-19.4656

> <Gold.Chemscore.ZeroCoef>
-5.4800

> <Gold.Chemscore.Hbond>
0.9852

> <Gold.Chemscore.Metal>
0.0000

> <Gold.Chemscore.Lipo>
143.8557

> <Gold.Chemscore.Internal_Hbond>
0.0000

> <Gold.Chemscore.DEClash>
0.2638

> <Gold.Chemscore.DEInternal>
0.7818

> <Gold.Chemscore.Rot>
2.3969

> <Gold.Chemscore.Internal.Correction>
   9.000000E+99

> <Gold.Chemscore.Hbonds>
donor molecule, donor type, donor heavy atom, donor atom, acceptor molecule, acceptor atom, score
      P1  H  7997  8009       L1    14  0.93

> <Gold.Chemscore.Hbond.Weighted>
-3.2906

> <Gold.Chemscore.Metal.Weighted>
-0.0000

> <Gold.Chemscore.Lipo.Weighted>
-16.8311

> <Gold.Chemscore.Internal_Hbond.Weighted>
0.0000

> <Gold.Chemscore.DEClash.Weighted>
0.2638

> <Gold.Chemscore.DEInternal.Weighted>
0.7818

> <Gold.Chemscore.Rot.Weighted>
6.1361

> <Gold.Chemscore.Internal.Correction.Weighted>
   9.000000E+99

> <Gold.Protein.RotatedTorsions>
[ 6907 6896 6895 6894 ] final -128.85 input  -60.11 | X-H torsion
[ 7974 7965 7964 7962 ] final  130.94 input  175.53 | X-H torsion
[ 8008 7997 7996 7995 ] final  173.07 input   59.86 | X-H torsion
[ 10167 10162 10161 10158 ] final -123.91 input  -65.29 | X-H torsion
[ 10718 10713 10712 10709 ] final  104.27 input   66.30 | X-H torsion
[ 10763 10752 10751 10750 ] final  142.88 input  -60.55 | X-H torsion
[ 11005 11000 10999 10996 ] final  -29.97 input  -57.11 | X-H torsion

> <Gold.Protein.ActiveResidues>
 VAL166  LYS551  ARG553  GLY616  TRP617  ASP618  TYR619  PRO620  LYS621  CYS622 
 ASP623  PHE694  ASN695  SER759  ASP760  ASP761  ALA762  ILE779  LEU786  VAL792 
 PHE793  MET794  SER795  GLU796  ALA797  LYS798  CYS799  TRP800  GLU811  SER814 

> <Gold.Protein.RotatedAtoms>
  150.9223  133.6865  159.2828 H   0  0  0  0  0  0  0  0  0  0  0  0  # atno 6907 bound_to 6896
  151.4315  135.1009  159.9653 H   0  0  0  0  0  0  0  0  0  0  0  0  # atno 6908 bound_to 6896
  152.4986  133.8652  159.7325 H   0  0  0  0  0  0  0  0  0  0  0  0  # atno 6909 bound_to 6896
  145.0125  139.4207  143.5237 H   0  0  0  0  0  0  0  0  0  0  0  0  # atno 7974 bound_to 7965
  156.1112  140.1469  156.9336 H   0  0  0  0  0  0  0  0  0  0  0  0  # atno 8008 bound_to 7997
  154.4768  140.0892  156.7325 H   0  0  0  0  0  0  0  0  0  0  0  0  # atno 8009 bound_to 7997
  155.4593  140.3437  155.4313 H   0  0  0  0  0  0  0  0  0  0  0  0  # atno 8010 bound_to 7997
  139.9984  143.5566  152.2313 H   0  0  0  0  0  0  0  0  0  0  0  0  # atno 10167 bound_to 10162
  157.6745  131.0799  150.5681 H   0  0  0  0  0  0  0  0  0  0  0  0  # atno 10718 bound_to 10713
  153.9632  135.2958  155.3432 H   0  0  0  0  0  0  0  0  0  0  0  0  # atno 10763 bound_to 10752
  154.7363  135.5045  153.9051 H   0  0  0  0  0  0  0  0  0  0  0  0  # atno 10764 bound_to 10752
  153.0936  135.6715  153.9916 H   0  0  0  0  0  0  0  0  0  0  0  0  # atno 10765 bound_to 10752
  140.9342  133.7319  156.0981 H   0  0  0  0  0  0  0  0  0  0  0  0  # atno 11005 bound_to 11000
  146.3472  139.9577  142.8721 LP  0  0  0  0  0  0  0  0  0  0  0  0  # atno 17320 bound_to 7965
  145.2004  140.9851  143.4159 LP  0  0  0  0  0  0  0  0  0  0  0  0  # atno 17321 bound_to 7965
  139.6289  144.7641  151.2578 LP  0  0  0  0  0  0  0  0  0  0  0  0  # atno 17342 bound_to 10162
  140.7428  143.6514  150.8245 LP  0  0  0  0  0  0  0  0  0  0  0  0  # atno 17343 bound_to 10162
  156.5983  130.4347  149.5908 LP  0  0  0  0  0  0  0  0  0  0  0  0  # atno 17370 bound_to 10713
  156.2527  130.6916  151.1660 LP  0  0  0  0  0  0  0  0  0  0  0  0  # atno 17371 bound_to 10713
  140.7821  134.3713  157.5485 LP  0  0  0  0  0  0  0  0  0  0  0  0  # atno 17394 bound_to 11000
  139.8804  134.9088  156.2976 LP  0  0  0  0  0  0  0  0  0  0  0  0  # atno 17395 bound_to 11000

$$$$
