AV-unprocessed.smi:1205|AV-procd|sdf|5044|dock7
  -GOLD-   22720 4 73D 1   1.00000     0.00000
 Structure written by MMmdl.
 49 50  0  0  0  0  0  0  0  0  2 V2000
  150.6759  141.9328  156.3668 C   0  0  0  0  0  0  0  0  0  0  0  0
  150.3502  140.7193  155.5468 C   0  0  0  0  0  0  0  0  0  0  0  0
  149.1812  140.4735  154.7698 C   0  0  0  0  0  0  0  0  0  0  0  0
  149.4201  139.2307  154.2498 C   0  0  0  0  0  0  0  0  0  0  0  0
  148.6319  138.4838  153.4314 N   0  0  0  0  0  0  0  0  0  0  0  0
  147.2909  138.3916  153.4091 C   0  0  0  0  0  0  0  0  0  0  0  0
  146.5186  139.0218  154.1314 O   0  0  0  0  0  0  0  0  0  0  0  0
  146.8820  137.5091  152.4853 N   0  0  0  0  0  0  0  0  0  0  0  0
  145.4916  137.1823  152.1790 C   0  0  0  0  0  0  0  0  0  0  0  0
  144.9402  136.0353  153.0655 C   0  0  1  0  0  0  0  0  0  0  0  0
  143.5175  136.2987  153.5956 C   0  0  0  0  0  0  0  0  0  0  0  0
  145.0021  134.7007  152.4003 N   0  3  1  0  0  0  0  0  0  0  0  0
  143.7968  134.3202  151.6146 C   0  0  0  0  0  0  0  0  0  0  0  0
  143.8601  132.8403  151.2058 C   0  0  0  0  0  0  0  0  0  0  0  0
  145.1495  132.5393  150.4269 C   0  0  0  0  0  0  0  0  0  0  0  0
  146.3975  132.9989  151.2050 C   0  0  2  0  0  0  0  0  0  0  0  0
  146.7306  132.0803  152.3940 C   0  0  0  0  0  0  0  0  0  0  0  0
  146.2561  134.4749  151.6322 C   0  0  0  0  0  0  0  0  0  0  0  0
  150.6451  138.7878  154.7013 N   0  0  0  0  0  0  0  0  0  0  0  0
  151.3450  137.5451  154.4378 C   0  0  0  0  0  0  0  0  0  0  0  0
  151.2175  139.7146  155.4991 N   0  0  0  0  0  0  0  0  0  0  0  0
  149.8217  142.6074  156.4280 H   0  0  0  0  0  0  0  0  0  0  0  0
  151.5071  142.4883  155.9318 H   0  0  0  0  0  0  0  0  0  0  0  0
  150.9534  141.6576  157.3847 H   0  0  0  0  0  0  0  0  0  0  0  0
  148.3235  141.1148  154.6334 H   0  0  0  0  0  0  0  0  0  0  0  0
  149.1282  137.9218  152.7558 H   0  0  0  0  0  0  0  0  0  0  0  0
  147.5884  137.0374  151.9392 H   0  0  0  0  0  0  0  0  0  0  0  0
  144.8743  138.0774  152.2674 H   0  0  0  0  0  0  0  0  0  0  0  0
  145.4575  136.8947  151.1285 H   0  0  0  0  0  0  0  0  0  0  0  0
  145.5741  135.9737  153.9515 H   0  0  0  0  0  0  0  0  0  0  0  0
  143.4982  137.1513  154.2745 H   0  0  0  0  0  0  0  0  0  0  0  0
  143.1405  135.4408  154.1533 H   0  0  0  0  0  0  0  0  0  0  0  0
  142.8143  136.5084  152.7896 H   0  0  0  0  0  0  0  0  0  0  0  0
  142.8921  134.4902  152.1973 H   0  0  0  0  0  0  0  0  0  0  0  0
  143.7214  134.9397  150.7201 H   0  0  0  0  0  0  0  0  0  0  0  0
  143.8026  132.2089  152.0931 H   0  0  0  0  0  0  0  0  0  0  0  0
  142.9928  132.5874  150.5952 H   0  0  0  0  0  0  0  0  0  0  0  0
  145.2123  131.4758  150.1938 H   0  0  0  0  0  0  0  0  0  0  0  0
  145.1147  133.0593  149.4686 H   0  0  0  0  0  0  0  0  0  0  0  0
  147.2464  132.9361  150.5227 H   0  0  0  0  0  0  0  0  0  0  0  0
  145.9472  132.0923  153.1518 H   0  0  0  0  0  0  0  0  0  0  0  0
  147.6586  132.3883  152.8763 H   0  0  0  0  0  0  0  0  0  0  0  0
  146.8601  131.0481  152.0675 H   0  0  0  0  0  0  0  0  0  0  0  0
  146.2606  135.1142  150.7485 H   0  0  0  0  0  0  0  0  0  0  0  0
  147.1227  134.7631  152.2288 H   0  0  0  0  0  0  0  0  0  0  0  0
  150.6712  136.8114  153.9956 H   0  0  0  0  0  0  0  0  0  0  0  0
  151.7408  137.1375  155.3686 H   0  0  0  0  0  0  0  0  0  0  0  0
  152.1702  137.7291  153.7496 H   0  0  0  0  0  0  0  0  0  0  0  0
  145.0468  134.0393  153.1624 H   0  0  0  0  0  0  0  0  0  0  0  0
  1  2  1  0  0  0  0
  1 22  1  0  0  0  0
  1 23  1  0  0  0  0
  1 24  1  0  0  0  0
  2 21  2  0  0  0  0
  2  3  1  0  0  0  0
  3  4  2  0  0  0  0
  3 25  1  0  0  0  0
  4  5  1  0  0  0  0
  4 19  1  0  0  0  0
  5  6  1  0  0  0  0
  5 26  1  0  0  0  0
  6  7  2  0  0  0  0
  6  8  1  0  0  0  0
  8  9  1  0  0  0  0
  8 27  1  0  0  0  0
  9 10  1  0  0  0  0
  9 28  1  0  0  0  0
  9 29  1  0  0  0  0
 10 11  1  0  0  0  0
 10 12  1  0  0  0  0
 10 30  1  0  0  0  0
 11 31  1  0  0  0  0
 11 32  1  0  0  0  0
 11 33  1  0  0  0  0
 12 18  1  0  0  0  0
 12 13  1  0  0  0  0
 12 49  1  0  0  0  0
 13 14  1  0  0  0  0
 13 34  1  0  0  0  0
 13 35  1  0  0  0  0
 14 15  1  0  0  0  0
 14 36  1  0  0  0  0
 14 37  1  0  0  0  0
 15 16  1  0  0  0  0
 15 38  1  0  0  0  0
 15 39  1  0  0  0  0
 16 17  1  0  0  0  0
 16 18  1  0  0  0  0
 16 40  1  0  0  0  0
 17 41  1  0  0  0  0
 17 42  1  0  0  0  0
 17 43  1  0  0  0  0
 18 44  1  0  0  0  0
 18 45  1  0  0  0  0
 19 20  1  0  0  0  0
 19 21  1  0  0  0  0
 20 46  1  0  0  0  0
 20 47  1  0  0  0  0
 20 48  1  0  0  0  0
M  CHG  1  12   1
M  END
> <s_m_source_file>
AV-unprocessed.smi

> <i_m_source_file_index>
1205

> <i_lp_mmshare_version>
43012

> <i_f3d_flags>
0

> <s_epik_input>
W0NIM11jMVtjSF1jKG4objEpW0NIM10pW05IXUMoPU8pW05IXVtDSDJdW0NASF0oW0NIM10pTjJbQ0gyXVtDSDJdW0NIMl1bQ0BASF0oW0NIM10pW0NIMl0y

> <s_epik_cmdline>
J2VwaWtfcHl0aG9uJywgJy1waCcsICc3LjAnLCAnLXRuJywgJzgnLCAnLW1hJywgJzIwMCcsICctbWV0YWxfYmluZGluZycsICctaW1hZScsICc8aW5maWxlLm1hZT4nLCAnLW9tYWUnLCAnPG91dGZpbGUubWFlPic=

> <r_lp_tautomer_probability>
1

> <r_epik_Ionization_Penalty>
0.0020309

> <r_epik_Ionization_Penalty_Charging>
0.00195276

> <r_epik_Ionization_Penalty_Neutral>
7.81448e-05

> <r_epik_State_Penalty>
0.00133177

> <r_epik_Charging_Adjusted_Penalty>
0.00328452

> <i_epik_Tot_Q>
1

> <i_epik_Tot_abs_Q>
1

> <r_epik_Metal_State_Penalty>
-0

> <b_epik_Metal_Only>
0

> <s_lp_Force_Field>
OPLS_2005

> <r_lp_Energy>
25.114

> <b_lp_Chiralities_Consistent>
1

> <s_lp_Variant>
AV-unprocessed.smi:1205-6

> <Gold.Version>
5.8.1

> <Gold.Id.Protein>
6NUR|6NUR_protein|mol2

> <Gold.PLP.Fitness>
40.8562

> <Gold.PLP.PLP>
-38.0964

> <Gold.PLP.part.hbond>
-3.2466

> <Gold.PLP.part.metal>
0.0000

> <Gold.PLP.part.buried>
-2.7301

> <Gold.PLP.part.nonpolar>
-32.5943

> <Gold.PLP.part.repulsive>
0.2921

> <Gold.PLP.ligand.clash>
0.0000

> <Gold.PLP.ligand.torsion>
1.4272

> <Gold.PLP.Chemscore.Hbond>
1.8320

> <Gold.PLP.Chemscore.CHOScore>
0.0000

> <Gold.PLP.Chemscore.Metal>
0.0000

> <Gold.Chemscore.Hbonds>
donor molecule, donor type, donor heavy atom, donor atom, acceptor molecule, acceptor atom, score
      L1  H     5    26       P1  7948  0.82
      L1  H     8    27       P1  7948  1.00

> <Gold.PLP.Chemscore.Internal.Correction>
0.1181

> <Gold.Rescore>
     Score         DG    S(hbond)    S(metal)    S(lipo)     H(rot)  DE(clash)    DE(int)     intcor
     15.97     -17.26       1.87        0.00      79.37       1.47       0.05       1.24       ----

> <Gold.Chemscore.Fitness>
15.9714

> <Gold.Chemscore.DG>
-17.2606

> <Gold.Chemscore.ZeroCoef>
-5.4800

> <Gold.Chemscore.Hbond>
1.8702

> <Gold.Chemscore.Metal>
0.0000

> <Gold.Chemscore.Lipo>
79.3749

> <Gold.Chemscore.Internal_Hbond>
0.0000

> <Gold.Chemscore.DEClash>
0.0467

> <Gold.Chemscore.DEInternal>
1.2424

> <Gold.Chemscore.Rot>
1.4658

> <Gold.Chemscore.Internal.Correction>
   9.000000E+99

> <Gold.Chemscore.Hbonds>
donor molecule, donor type, donor heavy atom, donor atom, acceptor molecule, acceptor atom, score
      L1  H     5    26       P1  7948  0.80
      L1  H     8    27       P1  7948  0.93

> <Gold.Chemscore.Hbond.Weighted>
-6.2463

> <Gold.Chemscore.Metal.Weighted>
-0.0000

> <Gold.Chemscore.Lipo.Weighted>
-9.2869

> <Gold.Chemscore.Internal_Hbond.Weighted>
0.0000

> <Gold.Chemscore.DEClash.Weighted>
0.0467

> <Gold.Chemscore.DEInternal.Weighted>
1.2424

> <Gold.Chemscore.Rot.Weighted>
3.7526

> <Gold.Chemscore.Internal.Correction.Weighted>
   9.000000E+99

> <Gold.Protein.RotatedTorsions>
[ 6907 6896 6895 6894 ] final  145.66 input  -60.11 | X-H torsion
[ 7974 7965 7964 7962 ] final -170.72 input  175.53 | X-H torsion
[ 8008 7997 7996 7995 ] final  135.73 input   59.86 | X-H torsion
[ 10167 10162 10161 10158 ] final  -63.01 input  -65.29 | X-H torsion
[ 10718 10713 10712 10709 ] final  -37.97 input   66.30 | X-H torsion
[ 10763 10752 10751 10750 ] final  139.00 input  -60.55 | X-H torsion
[ 11005 11000 10999 10996 ] final   36.57 input  -57.11 | X-H torsion

> <Gold.Protein.ActiveResidues>
 VAL166  LYS551  ARG553  GLY616  TRP617  ASP618  TYR619  PRO620  LYS621  CYS622 
 ASP623  PHE694  ASN695  SER759  ASP760  ASP761  ALA762  ILE779  LEU786  VAL792 
 PHE793  MET794  SER795  GLU796  ALA797  LYS798  CYS799  TRP800  GLU811  SER814 

> <Gold.Protein.RotatedAtoms>
  152.1780  133.4688  159.4942 H   0  0  0  0  0  0  0  0  0  0  0  0  # atno 6907 bound_to 6896
  150.6930  134.1870  159.4279 H   0  0  0  0  0  0  0  0  0  0  0  0  # atno 6908 bound_to 6896
  151.9780  135.0043  160.0606 H   0  0  0  0  0  0  0  0  0  0  0  0  # atno 6909 bound_to 6896
  144.7166  140.2029  143.6336 H   0  0  0  0  0  0  0  0  0  0  0  0  # atno 7974 bound_to 7965
  156.3003  140.2463  156.3629 H   0  0  0  0  0  0  0  0  0  0  0  0  # atno 8008 bound_to 7997
  154.8860  140.0411  157.1830 H   0  0  0  0  0  0  0  0  0  0  0  0  # atno 8009 bound_to 7997
  154.8646  140.2926  155.5522 H   0  0  0  0  0  0  0  0  0  0  0  0  # atno 8010 bound_to 7997
  140.5900  143.2340  151.6160 H   0  0  0  0  0  0  0  0  0  0  0  0  # atno 10167 bound_to 10162
  156.3091  130.4250  149.8068 H   0  0  0  0  0  0  0  0  0  0  0  0  # atno 10718 bound_to 10713
  153.8990  135.3024  155.3448 H   0  0  0  0  0  0  0  0  0  0  0  0  # atno 10763 bound_to 10752
  154.7680  135.4901  153.9595 H   0  0  0  0  0  0  0  0  0  0  0  0  # atno 10764 bound_to 10752
  153.1255  135.6792  153.9363 H   0  0  0  0  0  0  0  0  0  0  0  0  # atno 10765 bound_to 10752
  140.2312  134.3525  155.7963 H   0  0  0  0  0  0  0  0  0  0  0  0  # atno 11005 bound_to 11000
  145.8663  139.2248  143.1687 LP  0  0  0  0  0  0  0  0  0  0  0  0  # atno 17320 bound_to 7965
  146.0127  140.8421  142.9963 LP  0  0  0  0  0  0  0  0  0  0  0  0  # atno 17321 bound_to 7965
  139.5221  144.3172  152.0942 LP  0  0  0  0  0  0  0  0  0  0  0  0  # atno 17342 bound_to 10162
  140.2335  144.4344  150.6290 LP  0  0  0  0  0  0  0  0  0  0  0  0  # atno 17343 bound_to 10162
  156.5418  130.8303  151.3271 LP  0  0  0  0  0  0  0  0  0  0  0  0  # atno 17370 bound_to 10713
  157.7387  130.9817  150.2266 LP  0  0  0  0  0  0  0  0  0  0  0  0  # atno 17371 bound_to 10713
  141.2217  133.7246  156.8734 LP  0  0  0  0  0  0  0  0  0  0  0  0  # atno 17394 bound_to 11000
  140.1749  134.9074  157.2878 LP  0  0  0  0  0  0  0  0  0  0  0  0  # atno 17395 bound_to 11000

$$$$
