AV-unprocessed.smi:924|AV-procd|sdf|4179|dock10
  -GOLD-   22720 2 83D 1   1.00000     0.00000
 Structure written by MMmdl.
 46 49  0  0  0  0  0  0  0  0  1 V2000
  150.6716  136.6932  158.6019 O   0  0  0  0  0  0  0  0  0  0  0  0
  149.9847  137.7150  158.5568 C   0  0  0  0  0  0  0  0  0  0  0  0
  150.6324  139.1008  158.4252 C   0  0  0  0  0  0  0  0  0  0  0  0
  150.2176  139.8197  157.2115 N   0  0  0  0  0  0  0  0  0  0  0  0
  149.9196  139.1132  156.0549 C   0  0  0  0  0  0  0  0  0  0  0  0
  149.5497  139.7038  154.8940 C   0  0  0  0  0  0  0  0  0  0  0  0
  149.4444  141.1562  154.8054 C   0  0  0  0  0  0  0  0  0  0  0  0
  149.1148  141.7832  153.8011 O   0  0  0  0  0  0  0  0  0  0  0  0
  149.7562  141.8319  155.9882 N   0  0  0  0  0  0  0  0  0  0  0  0
  150.1424  141.2296  157.1868 C   0  0  0  0  0  0  0  0  0  0  0  0
  150.4046  141.9222  158.1695 O   0  0  0  0  0  0  0  0  0  0  0  0
  148.6437  137.7005  158.6033 N   0  0  0  0  0  0  0  0  0  0  0  0
  147.8061  136.5055  158.6807 C   0  0  0  0  0  0  0  0  0  0  0  0
  147.2538  136.2335  160.1033 C   0  0  0  0  0  0  0  0  0  0  0  0
  148.3272  136.5285  161.1869 C   0  0  0  0  0  0  0  0  0  0  0  0
  147.7743  136.2096  162.5931 C   0  0  1  0  0  0  0  0  0  0  0  0
  146.5318  137.0820  162.8697 C   0  0  0  0  0  0  0  0  0  0  0  0
  145.4491  136.7745  161.8139 C   0  0  2  0  0  0  0  0  0  0  0  0
  145.0574  135.2847  161.8902 C   0  0  0  0  0  0  0  0  0  0  0  0
  146.3041  134.4191  161.6156 C   0  0  2  0  0  0  0  0  0  0  0  0
  147.3875  134.7183  162.6723 C   0  0  0  0  0  0  0  0  0  0  0  0
  146.8530  134.7382  160.2086 C   0  0  0  0  0  0  0  0  0  0  0  0
  145.9964  137.0950  160.4067 C   0  0  0  0  0  0  0  0  0  0  0  0
  149.7014  142.8399  155.9733 H   0  0  0  0  0  0  0  0  0  0  0  0
  150.3719  139.6934  159.3039 H   0  0  0  0  0  0  0  0  0  0  0  0
  151.7174  138.9897  158.4679 H   0  0  0  0  0  0  0  0  0  0  0  0
  149.9898  138.0346  156.0748 H   0  0  0  0  0  0  0  0  0  0  0  0
  149.3319  139.0986  154.0261 H   0  0  0  0  0  0  0  0  0  0  0  0
  148.1620  138.5870  158.5630 H   0  0  0  0  0  0  0  0  0  0  0  0
  146.9867  136.5637  157.9621 H   0  0  0  0  0  0  0  0  0  0  0  0
  148.4190  135.6623  158.3600 H   0  0  0  0  0  0  0  0  0  0  0  0
  149.2251  135.9383  160.9992 H   0  0  0  0  0  0  0  0  0  0  0  0
  148.6363  137.5737  161.1497 H   0  0  0  0  0  0  0  0  0  0  0  0
  148.5399  136.4241  163.3393 H   0  0  0  0  0  0  0  0  0  0  0  0
  146.1486  136.8874  163.8722 H   0  0  0  0  0  0  0  0  0  0  0  0
  146.7984  138.1394  162.8412 H   0  0  0  0  0  0  0  0  0  0  0  0
  144.5699  137.3898  162.0083 H   0  0  0  0  0  0  0  0  0  0  0  0
  144.6437  135.0521  162.8723 H   0  0  0  0  0  0  0  0  0  0  0  0
  144.2743  135.0619  161.1645 H   0  0  0  0  0  0  0  0  0  0  0  0
  146.0304  133.3648  161.6669 H   0  0  0  0  0  0  0  0  0  0  0  0
  148.2635  134.0903  162.5048 H   0  0  0  0  0  0  0  0  0  0  0  0
  147.0203  134.4751  163.6701 H   0  0  0  0  0  0  0  0  0  0  0  0
  146.1009  134.4947  159.4566 H   0  0  0  0  0  0  0  0  0  0  0  0
  147.7122  134.1005  159.9961 H   0  0  0  0  0  0  0  0  0  0  0  0
  146.2326  138.1578  160.3535 H   0  0  0  0  0  0  0  0  0  0  0  0
  145.2253  136.9155  159.6564 H   0  0  0  0  0  0  0  0  0  0  0  0
  1  2  2  0  0  0  0
  2  3  1  0  0  0  0
  2 12  1  0  0  0  0
  3  4  1  0  0  0  0
  3 25  1  0  0  0  0
  3 26  1  0  0  0  0
  4 10  1  0  0  0  0
  4  5  1  0  0  0  0
  5  6  2  0  0  0  0
  5 27  1  0  0  0  0
  6  7  1  0  0  0  0
  6 28  1  0  0  0  0
  7  8  2  0  0  0  0
  7  9  1  0  0  0  0
  9 24  1  0  0  0  0
  9 10  1  0  0  0  0
 10 11  2  0  0  0  0
 12 13  1  0  0  0  0
 12 29  1  0  0  0  0
 13 14  1  0  0  0  0
 13 30  1  0  0  0  0
 13 31  1  0  0  0  0
 14 22  1  0  0  0  0
 14 23  1  0  0  0  0
 14 15  1  0  0  0  0
 15 16  1  0  0  0  0
 15 32  1  0  0  0  0
 15 33  1  0  0  0  0
 16 21  1  0  0  0  0
 16 17  1  0  0  0  0
 16 34  1  0  0  0  0
 17 18  1  0  0  0  0
 17 35  1  0  0  0  0
 17 36  1  0  0  0  0
 18 19  1  0  0  0  0
 18 23  1  0  0  0  0
 18 37  1  0  0  0  0
 19 20  1  0  0  0  0
 19 38  1  0  0  0  0
 19 39  1  0  0  0  0
 20 21  1  0  0  0  0
 20 22  1  0  0  0  0
 20 40  1  0  0  0  0
 21 41  1  0  0  0  0
 21 42  1  0  0  0  0
 22 43  1  0  0  0  0
 22 44  1  0  0  0  0
 23 45  1  0  0  0  0
 23 46  1  0  0  0  0
M  END
> <s_m_source_file>
AV-unprocessed.smi

> <i_m_source_file_index>
924

> <i_lp_mmshare_version>
43012

> <i_f3d_flags>
0

> <s_epik_input>
Tz1jMVtuSF1jKD1PKVtjSF1bY0hdbjFbQ0gyXUMoPU8pW05IXVtDSDJdQzIzW0NIMl1bQ0BIXTRbQ0gyXVtDQEBIXShbQ0gyXTMpW0NIMl1bQ0BIXShbQ0gyXTQpW0NIMl0y

> <s_epik_cmdline>
J2VwaWtfcHl0aG9uJywgJy1waCcsICc3LjAnLCAnLXRuJywgJzgnLCAnLW1hJywgJzIwMCcsICctbWV0YWxfYmluZGluZycsICctaW1hZScsICc8aW5maWxlLm1hZT4nLCAnLW9tYWUnLCAnPG91dGZpbGUubWFlPic=

> <r_lp_tautomer_probability>
0.999537

> <r_epik_Ionization_Penalty>
0.00304541

> <r_epik_Ionization_Penalty_Charging>
0.00304539

> <r_epik_Ionization_Penalty_Neutral>
1.85865e-08

> <r_epik_State_Penalty>
0.00214042

> <r_epik_Charging_Adjusted_Penalty>
0.00518582

> <i_epik_Tot_Q>
0

> <i_epik_Tot_abs_Q>
0

> <r_epik_Metal_State_Penalty>
0.361861

> <b_epik_Metal_Only>
0

> <s_lp_Force_Field>
OPLS_2005

> <r_lp_Energy>
33.277

> <b_lp_Chiralities_Consistent>
1

> <s_lp_Variant>
AV-unprocessed.smi:924-1

> <Gold.Version>
5.8.1

> <Gold.Id.Protein>
6NUR|6NUR_protein|mol2

> <Gold.PLP.Fitness>
41.9165

> <Gold.PLP.PLP>
-35.8712

> <Gold.PLP.part.hbond>
-4.0000

> <Gold.PLP.part.metal>
0.0000

> <Gold.PLP.part.buried>
-3.1610

> <Gold.PLP.part.nonpolar>
-28.8916

> <Gold.PLP.part.repulsive>
0.5667

> <Gold.PLP.ligand.clash>
0.0000

> <Gold.PLP.ligand.torsion>
0.7934

> <Gold.PLP.Chemscore.Hbond>
2.5410

> <Gold.PLP.Chemscore.CHOScore>
0.0000

> <Gold.PLP.Chemscore.Metal>
0.0000

> <Gold.Chemscore.Hbonds>
donor molecule, donor type, donor heavy atom, donor atom, acceptor molecule, acceptor atom, score
      L1  H     9    24       P1  8028  0.89
      P1  H  6896  6908       L1     1  0.86
      P1  H  8011  8017       L1     8  0.59

> <Gold.PLP.Chemscore.Internal.Correction>
0.0091

> <Gold.Rescore>
     Score         DG    S(hbond)    S(metal)    S(lipo)     H(rot)  DE(clash)    DE(int)     intcor
     16.67     -17.36       2.46        0.00      73.91       1.94       0.03       0.66       ----

> <Gold.Chemscore.Fitness>
16.6696

> <Gold.Chemscore.DG>
-17.3573

> <Gold.Chemscore.ZeroCoef>
-5.4800

> <Gold.Chemscore.Hbond>
2.4550

> <Gold.Chemscore.Metal>
0.0000

> <Gold.Chemscore.Lipo>
73.9120

> <Gold.Chemscore.Internal_Hbond>
0.0000

> <Gold.Chemscore.DEClash>
0.0270

> <Gold.Chemscore.DEInternal>
0.6607

> <Gold.Chemscore.Rot>
1.9415

> <Gold.Chemscore.Internal.Correction>
   9.000000E+99

> <Gold.Chemscore.Hbonds>
donor molecule, donor type, donor heavy atom, donor atom, acceptor molecule, acceptor atom, score
      L1  H     9    24       P1  8028  0.86
      P1  H  6896  6908       L1     1  0.78
      P1  H  8011  8017       L1     8  0.58

> <Gold.Chemscore.Hbond.Weighted>
-8.1998

> <Gold.Chemscore.Metal.Weighted>
-0.0000

> <Gold.Chemscore.Lipo.Weighted>
-8.6477

> <Gold.Chemscore.Internal_Hbond.Weighted>
0.0000

> <Gold.Chemscore.DEClash.Weighted>
0.0270

> <Gold.Chemscore.DEInternal.Weighted>
0.6607

> <Gold.Chemscore.Rot.Weighted>
4.9701

> <Gold.Chemscore.Internal.Correction.Weighted>
   9.000000E+99

> <Gold.Protein.RotatedTorsions>
[ 6907 6896 6895 6894 ] final -158.19 input  -60.11 | X-H torsion
[ 7974 7965 7964 7962 ] final  144.19 input  175.53 | X-H torsion
[ 8008 7997 7996 7995 ] final -110.96 input   59.86 | X-H torsion
[ 10167 10162 10161 10158 ] final -102.31 input  -65.29 | X-H torsion
[ 10718 10713 10712 10709 ] final  164.26 input   66.30 | X-H torsion
[ 10763 10752 10751 10750 ] final   19.02 input  -60.55 | X-H torsion
[ 11005 11000 10999 10996 ] final  -46.64 input  -57.11 | X-H torsion

> <Gold.Protein.ActiveResidues>
 VAL166  LYS551  ARG553  GLY616  TRP617  ASP618  TYR619  PRO620  LYS621  CYS622 
 ASP623  PHE694  ASN695  SER759  ASP760  ASP761  ALA762  ILE779  LEU786  VAL792 
 PHE793  MET794  SER795  GLU796  ALA797  LYS798  CYS799  TRP800  GLU811  SER814 

> <Gold.Protein.RotatedAtoms>
  151.3144  133.4067  159.2649 H   0  0  0  0  0  0  0  0  0  0  0  0  # atno 6907 bound_to 6896
  151.0087  134.9380  159.8005 H   0  0  0  0  0  0  0  0  0  0  0  0  # atno 6908 bound_to 6896
  152.5295  134.3108  159.9165 H   0  0  0  0  0  0  0  0  0  0  0  0  # atno 6909 bound_to 6896
  144.8857  139.5632  143.5822 H   0  0  0  0  0  0  0  0  0  0  0  0  # atno 7974 bound_to 7965
  154.9825  140.0396  157.2284 H   0  0  0  0  0  0  0  0  0  0  0  0  # atno 8008 bound_to 7997
  154.7701  140.2800  155.6122 H   0  0  0  0  0  0  0  0  0  0  0  0  # atno 8009 bound_to 7997
  156.2919  140.2611  156.2501 H   0  0  0  0  0  0  0  0  0  0  0  0  # atno 8010 bound_to 7997
  140.2320  143.3600  152.0878 H   0  0  0  0  0  0  0  0  0  0  0  0  # atno 10167 bound_to 10162
  157.0968  131.0432  151.2514 H   0  0  0  0  0  0  0  0  0  0  0  0  # atno 10718 bound_to 10713
  153.1198  135.6716  153.9354 H   0  0  0  0  0  0  0  0  0  0  0  0  # atno 10763 bound_to 10752
  153.8873  135.3051  155.3448 H   0  0  0  0  0  0  0  0  0  0  0  0  # atno 10764 bound_to 10752
  154.7611  135.4987  153.9545 H   0  0  0  0  0  0  0  0  0  0  0  0  # atno 10765 bound_to 10752
  141.0591  133.6715  156.3183 H   0  0  0  0  0  0  0  0  0  0  0  0  # atno 11005 bound_to 11000
  146.3023  139.7465  142.9082 LP  0  0  0  0  0  0  0  0  0  0  0  0  # atno 17320 bound_to 7965
  145.3873  141.0367  143.3143 LP  0  0  0  0  0  0  0  0  0  0  0  0  # atno 17321 bound_to 7965
  139.5107  144.6888  151.5816 LP  0  0  0  0  0  0  0  0  0  0  0  0  # atno 17342 bound_to 10162
  140.6178  143.9316  150.6502 LP  0  0  0  0  0  0  0  0  0  0  0  0  # atno 17343 bound_to 10162
  157.4674  130.7689  149.7292 LP  0  0  0  0  0  0  0  0  0  0  0  0  # atno 17370 bound_to 10713
  155.9883  130.3960  150.3122 LP  0  0  0  0  0  0  0  0  0  0  0  0  # atno 17371 bound_to 10713
  140.5904  134.5656  157.5498 LP  0  0  0  0  0  0  0  0  0  0  0  0  # atno 17394 bound_to 11000
  139.9416  134.7776  156.0663 LP  0  0  0  0  0  0  0  0  0  0  0  0  # atno 17395 bound_to 11000

$$$$
