AV-unprocessed.smi:1033|AV-procd|sdf|4503|dock8
  -GOLD-   22720 2503D 1   1.00000     0.00000
 Structure written by MMmdl.
 57 59  0  0  0  0  0  0  0  0  3 V2000
  152.1876  145.2397  160.5036 C   0  0  0  0  0  0  0  0  0  0  0  0
  151.9548  143.9449  159.7436 C   0  0  0  0  0  0  0  0  0  0  0  0
  151.1775  143.9857  158.5638 C   0  0  0  0  0  0  0  0  0  0  0  0
  150.9831  142.7856  157.8905 C   0  0  0  0  0  0  0  0  0  0  0  0
  150.2779  142.4954  156.7202 N   0  3  0  0  0  0  0  0  0  0  0  0
  150.3747  141.1640  156.4497 C   0  0  0  0  0  0  0  0  0  0  0  0
  151.1306  140.6009  157.4310 N   0  0  0  0  0  0  0  0  0  0  0  0
  151.5384  139.2033  157.6234 C   0  0  0  0  0  0  0  0  0  0  0  0
  150.3501  138.2670  157.9168 C   0  0  1  0  0  0  0  0  0  0  0  0
  149.7143  138.6893  159.1072 O   0  0  0  0  0  0  0  0  0  0  0  0
  149.3182  138.2935  156.7723 C   0  0  0  0  0  0  0  0  0  0  0  0
  149.7551  137.6779  155.5128 N   0  0  0  0  0  0  0  0  0  0  0  0
  148.8735  136.5933  155.0819 C   0  0  0  0  0  0  0  0  0  0  0  0
  147.5039  137.0869  154.5723 C   0  0  0  0  0  0  0  0  0  0  0  0
  147.6815  138.0489  153.4542 N   0  3  0  0  0  0  0  0  0  0  0  0
  146.3856  138.5008  152.8860 C   0  0  0  0  0  0  0  0  0  0  0  0
  145.3388  137.3713  152.8169 C   0  0  2  0  0  0  0  0  0  0  0  0
  145.6545  136.3611  151.7065 C   0  0  0  0  0  0  0  0  0  0  0  0
  144.0670  137.9296  152.5549 O   0  0  0  0  0  0  0  0  0  0  0  0
  148.5784  139.1648  153.8590 C   0  0  0  0  0  0  0  0  0  0  0  0
  149.9154  138.6119  154.3942 C   0  0  0  0  0  0  0  0  0  0  0  0
  151.5320  141.5736  158.3517 C   0  0  0  0  0  0  0  0  0  0  0  0
  152.2992  141.5146  159.5124 C   0  0  0  0  0  0  0  0  0  0  0  0
  152.5074  142.7245  160.2123 C   0  0  0  0  0  0  0  0  0  0  0  0
  153.3394  142.6920  161.4831 C   0  0  0  0  0  0  0  0  0  0  0  0
  151.7102  146.0854  160.0078 H   0  0  0  0  0  0  0  0  0  0  0  0
  153.2540  145.4553  160.5756 H   0  0  0  0  0  0  0  0  0  0  0  0
  151.7788  145.1704  161.5120 H   0  0  0  0  0  0  0  0  0  0  0  0
  150.7526  144.9105  158.2015 H   0  0  0  0  0  0  0  0  0  0  0  0
  149.9297  140.6475  155.6114 H   0  0  0  0  0  0  0  0  0  0  0  0
  152.0562  138.8865  156.7169 H   0  0  0  0  0  0  0  0  0  0  0  0
  152.2736  139.1674  158.4282 H   0  0  0  0  0  0  0  0  0  0  0  0
  150.7332  137.2597  158.0717 H   0  0  0  0  0  0  0  0  0  0  0  0
  148.8961  138.2232  159.1907 H   0  0  0  0  0  0  0  0  0  0  0  0
  148.4162  137.7901  157.1236 H   0  0  0  0  0  0  0  0  0  0  0  0
  149.0193  139.3257  156.5935 H   0  0  0  0  0  0  0  0  0  0  0  0
  149.3642  136.0318  154.2856 H   0  0  0  0  0  0  0  0  0  0  0  0
  148.7315  135.8842  155.8985 H   0  0  0  0  0  0  0  0  0  0  0  0
  146.9216  136.2317  154.2276 H   0  0  0  0  0  0  0  0  0  0  0  0
  146.9323  137.5516  155.3771 H   0  0  0  0  0  0  0  0  0  0  0  0
  145.9811  139.3117  153.4941 H   0  0  0  0  0  0  0  0  0  0  0  0
  146.5587  138.9232  151.8950 H   0  0  0  0  0  0  0  0  0  0  0  0
  145.2880  136.8332  153.7627 H   0  0  0  0  0  0  0  0  0  0  0  0
  146.6218  135.8863  151.8733 H   0  0  0  0  0  0  0  0  0  0  0  0
  145.6842  136.8399  150.7270 H   0  0  0  0  0  0  0  0  0  0  0  0
  144.9036  135.5710  151.6686 H   0  0  0  0  0  0  0  0  0  0  0  0
  144.0536  138.8200  152.8732 H   0  0  0  0  0  0  0  0  0  0  0  0
  148.7849  139.8089  153.0054 H   0  0  0  0  0  0  0  0  0  0  0  0
  148.0883  139.7891  154.6068 H   0  0  0  0  0  0  0  0  0  0  0  0
  150.5743  139.4343  154.6673 H   0  0  0  0  0  0  0  0  0  0  0  0
  150.4262  138.0966  153.5795 H   0  0  0  0  0  0  0  0  0  0  0  0
  152.7197  140.5856  159.8677 H   0  0  0  0  0  0  0  0  0  0  0  0
  153.6759  141.6807  161.7139 H   0  0  0  0  0  0  0  0  0  0  0  0
  152.7569  143.0506  162.3321 H   0  0  0  0  0  0  0  0  0  0  0  0
  154.2232  143.3215  161.3780 H   0  0  0  0  0  0  0  0  0  0  0  0
  148.1546  137.5413  152.7199 H   0  0  0  0  0  0  0  0  0  0  0  0
  149.7667  143.1539  156.1468 H   0  0  0  0  0  0  0  0  0  0  0  0
  1  2  1  0  0  0  0
  1 26  1  0  0  0  0
  1 27  1  0  0  0  0
  1 28  1  0  0  0  0
  2 24  1  0  0  0  0
  2  3  2  0  0  0  0
  3  4  1  0  0  0  0
  3 29  1  0  0  0  0
  4 22  2  0  0  0  0
  4  5  1  0  0  0  0
  5  6  2  0  0  0  0
  5 57  1  0  0  0  0
  6  7  1  0  0  0  0
  6 30  1  0  0  0  0
  7  8  1  0  0  0  0
  7 22  1  0  0  0  0
  8  9  1  0  0  0  0
  8 31  1  0  0  0  0
  8 32  1  0  0  0  0
  9 10  1  0  0  0  0
  9 11  1  0  0  0  0
  9 33  1  0  0  0  0
 10 34  1  0  0  0  0
 11 12  1  0  0  0  0
 11 35  1  0  0  0  0
 11 36  1  0  0  0  0
 12 21  1  0  0  0  0
 12 13  1  0  0  0  0
 13 14  1  0  0  0  0
 13 37  1  0  0  0  0
 13 38  1  0  0  0  0
 14 15  1  0  0  0  0
 14 39  1  0  0  0  0
 14 40  1  0  0  0  0
 15 16  1  0  0  0  0
 15 20  1  0  0  0  0
 15 56  1  0  0  0  0
 16 17  1  0  0  0  0
 16 41  1  0  0  0  0
 16 42  1  0  0  0  0
 17 18  1  0  0  0  0
 17 19  1  0  0  0  0
 17 43  1  0  0  0  0
 18 44  1  0  0  0  0
 18 45  1  0  0  0  0
 18 46  1  0  0  0  0
 19 47  1  0  0  0  0
 20 21  1  0  0  0  0
 20 48  1  0  0  0  0
 20 49  1  0  0  0  0
 21 50  1  0  0  0  0
 21 51  1  0  0  0  0
 22 23  1  0  0  0  0
 23 24  2  0  0  0  0
 23 52  1  0  0  0  0
 24 25  1  0  0  0  0
 25 53  1  0  0  0  0
 25 54  1  0  0  0  0
 25 55  1  0  0  0  0
M  CHG  1   5   1
M  CHG  1  15   1
M  END
> <s_m_source_file>
AV-unprocessed.smi

> <i_m_source_file_index>
1033

> <i_lp_mmshare_version>
43012

> <i_f3d_flags>
0

> <s_epik_input>
W0NIM11jKFtjSF0xKWMoW0NIM10pW2NIXWMoYzEyKW4oW2NIXW4yKVtDSDJdW0NASF0oW09IXSlbQ0gyXU4zW0NIMl1bQ0gyXU4oW0NIMl1bQ0gyXTMpW0NIMl1bQ0BIXShbQ0gzXSlbT0hd

> <s_epik_cmdline>
J2VwaWtfcHl0aG9uJywgJy1waCcsICc3LjAnLCAnLXRuJywgJzgnLCAnLW1hJywgJzIwMCcsICctbWV0YWxfYmluZGluZycsICctaW1hZScsICc8aW5maWxlLm1hZT4nLCAnLW9tYWUnLCAnPG91dGZpbGUubWFlPic=

> <r_epik_Ionization_Penalty>
1.28617

> <r_epik_Ionization_Penalty_Charging>
1.23646

> <r_epik_Ionization_Penalty_Neutral>
0.0497112

> <r_epik_State_Penalty>
1.79157

> <r_epik_Charging_Adjusted_Penalty>
3.02803

> <i_epik_Tot_Q>
2

> <i_epik_Tot_abs_Q>
2

> <r_epik_Metal_State_Penalty>
5.81739

> <b_epik_Metal_Only>
0

> <s_lp_Force_Field>
OPLS_2005

> <r_lp_Energy>
41.025

> <b_lp_Chiralities_Consistent>
1

> <s_lp_Variant>
AV-unprocessed.smi:1033-14

> <Gold.Version>
5.8.1

> <Gold.Id.Protein>
6NUR|6NUR_protein|mol2

> <Gold.PLP.Fitness>
57.9402

> <Gold.PLP.PLP>
-44.9384

> <Gold.PLP.part.hbond>
-6.0000

> <Gold.PLP.part.metal>
0.0000

> <Gold.PLP.part.buried>
-2.9929

> <Gold.PLP.part.nonpolar>
-37.3550

> <Gold.PLP.part.repulsive>
0.1612

> <Gold.PLP.ligand.clash>
0.0000

> <Gold.PLP.ligand.torsion>
1.0652

> <Gold.PLP.Chemscore.Hbond>
4.9840

> <Gold.PLP.Chemscore.CHOScore>
0.0000

> <Gold.PLP.Chemscore.Metal>
0.0000

> <Gold.Chemscore.Hbonds>
donor molecule, donor type, donor heavy atom, donor atom, acceptor molecule, acceptor atom, score
      L1  H     5    57       P1  8028  2.00
      L1  H    15    56       P1  7948  2.00
      L1  H    19    47       P1 10175  0.88

> <Gold.PLP.Chemscore.Internal.Correction>
0.1801

> <Gold.Rescore>
     Score         DG    S(hbond)    S(metal)    S(lipo)     H(rot)  DE(clash)    DE(int)     intcor
     19.81     -21.62       2.99        0.00     121.44       3.15       0.83       0.98       ----

> <Gold.Chemscore.Fitness>
19.8142

> <Gold.Chemscore.DG>
-21.6222

> <Gold.Chemscore.ZeroCoef>
-5.4800

> <Gold.Chemscore.Hbond>
2.9921

> <Gold.Chemscore.Metal>
0.0000

> <Gold.Chemscore.Lipo>
121.4398

> <Gold.Chemscore.Internal_Hbond>
0.0000

> <Gold.Chemscore.DEClash>
0.8315

> <Gold.Chemscore.DEInternal>
0.9765

> <Gold.Chemscore.Rot>
3.1483

> <Gold.Chemscore.Internal.Correction>
   9.000000E+99

> <Gold.Chemscore.Hbonds>
donor molecule, donor type, donor heavy atom, donor atom, acceptor molecule, acceptor atom, score
      L1  H     5    57       P1  8028  0.99
      L1  H    15    56       P1  7948  1.00
      L1  H    19    47       P1 10175  0.87

> <Gold.Chemscore.Hbond.Weighted>
-9.9935

> <Gold.Chemscore.Metal.Weighted>
-0.0000

> <Gold.Chemscore.Lipo.Weighted>
-14.2085

> <Gold.Chemscore.Internal_Hbond.Weighted>
0.0000

> <Gold.Chemscore.DEClash.Weighted>
0.8315

> <Gold.Chemscore.DEInternal.Weighted>
0.9765

> <Gold.Chemscore.Rot.Weighted>
8.0597

> <Gold.Chemscore.Internal.Correction.Weighted>
   9.000000E+99

> <Gold.Protein.RotatedTorsions>
[ 6907 6896 6895 6894 ] final  144.94 input  -60.11 | X-H torsion
[ 7974 7965 7964 7962 ] final -144.36 input  175.53 | X-H torsion
[ 8008 7997 7996 7995 ] final  119.26 input   59.86 | X-H torsion
[ 10167 10162 10161 10158 ] final -149.85 input  -65.29 | X-H torsion
[ 10718 10713 10712 10709 ] final   95.76 input   66.30 | X-H torsion
[ 10763 10752 10751 10750 ] final  156.88 input  -60.55 | X-H torsion
[ 11005 11000 10999 10996 ] final   96.69 input  -57.11 | X-H torsion

> <Gold.Protein.ActiveResidues>
 VAL166  LYS551  ARG553  GLY616  TRP617  ASP618  TYR619  PRO620  LYS621  CYS622 
 ASP623  PHE694  ASN695  SER759  ASP760  ASP761  ALA762  ILE779  LEU786  VAL792 
 PHE793  MET794  SER795  GLU796  ALA797  LYS798  CYS799  TRP800  GLU811  SER814 

> <Gold.Protein.RotatedAtoms>
  152.1873  133.4748  159.4989 H   0  0  0  0  0  0  0  0  0  0  0  0  # atno 6907 bound_to 6896
  150.6945  134.1757  159.4238 H   0  0  0  0  0  0  0  0  0  0  0  0  # atno 6908 bound_to 6896
  151.9671  135.0095  160.0601 H   0  0  0  0  0  0  0  0  0  0  0  0  # atno 6909 bound_to 6896
  144.8303  140.5720  143.5519 H   0  0  0  0  0  0  0  0  0  0  0  0  # atno 7974 bound_to 7965
  156.2587  140.2857  156.0964 H   0  0  0  0  0  0  0  0  0  0  0  0  # atno 8008 bound_to 7997
  155.1407  140.0395  157.2815 H   0  0  0  0  0  0  0  0  0  0  0  0  # atno 8009 bound_to 7997
  154.6532  140.2549  155.7197 H   0  0  0  0  0  0  0  0  0  0  0  0  # atno 8010 bound_to 7997
  139.7406  143.8668  152.2561 H   0  0  0  0  0  0  0  0  0  0  0  0  # atno 10167 bound_to 10162
  157.6935  131.0556  150.4388 H   0  0  0  0  0  0  0  0  0  0  0  0  # atno 10718 bound_to 10713
  154.1913  135.2794  155.3021 H   0  0  0  0  0  0  0  0  0  0  0  0  # atno 10763 bound_to 10752
  154.5926  135.5555  153.7297 H   0  0  0  0  0  0  0  0  0  0  0  0  # atno 10764 bound_to 10752
  153.0111  135.6372  154.2052 H   0  0  0  0  0  0  0  0  0  0  0  0  # atno 10765 bound_to 10752
  139.8780  134.8963  156.4196 H   0  0  0  0  0  0  0  0  0  0  0  0  # atno 11005 bound_to 11000
  145.4909  139.1489  143.3710 LP  0  0  0  0  0  0  0  0  0  0  0  0  # atno 17320 bound_to 7965
  146.2607  140.5048  142.8855 LP  0  0  0  0  0  0  0  0  0  0  0  0  # atno 17321 bound_to 7965
  139.8617  144.7113  150.9091 LP  0  0  0  0  0  0  0  0  0  0  0  0  # atno 17342 bound_to 10162
  140.7785  143.3812  151.1474 LP  0  0  0  0  0  0  0  0  0  0  0  0  # atno 17343 bound_to 10162
  156.4749  130.4061  149.6496 LP  0  0  0  0  0  0  0  0  0  0  0  0  # atno 17370 bound_to 10713
  156.3563  130.7458  151.2424 LP  0  0  0  0  0  0  0  0  0  0  0  0  # atno 17371 bound_to 10713
  140.9143  133.7690  155.9829 LP  0  0  0  0  0  0  0  0  0  0  0  0  # atno 17394 bound_to 11000
  140.8511  134.2952  157.5275 LP  0  0  0  0  0  0  0  0  0  0  0  0  # atno 17395 bound_to 11000

$$$$
