AV-unprocessed.smi:1925|AV-procd|sdf|7792|dock8
  -GOLD-   22720 9533D 1   1.00000     0.00000
 Structure written by MMmdl.
 31 32  0  0  0  0  0  0  0  0  1 V2000
  144.6154  136.8017  152.3803 O   0  0  0  0  0  0  0  0  0  0  0  0
  145.8150  136.5798  152.2118 C   0  0  0  0  0  0  0  0  0  0  0  0
  146.7741  137.4855  152.4517 N   0  0  0  0  0  0  0  0  0  0  0  0
  146.5441  138.8427  152.9359 C   0  0  0  0  0  0  0  0  0  0  0  0
  147.8535  139.6448  153.0651 C   0  0  2  0  0  0  0  0  0  0  0  0
  148.8276  139.1167  154.1083 C   0  0  0  0  0  0  0  0  0  0  0  0
  149.5675  140.3689  154.5922 C   0  0  0  0  0  0  0  0  0  0  0  0
  148.9525  141.4725  153.9364 O   0  0  0  0  0  0  0  0  0  0  0  0
  147.6521  141.0841  153.5263 C   0  0  0  0  0  0  0  0  0  0  0  0
  146.3389  135.4218  151.7726 N   0  0  0  0  0  0  0  0  0  0  0  0
  145.6552  134.2351  151.3961 C   0  0  0  0  0  0  0  0  0  0  0  0
  146.4569  133.0722  151.3472 C   0  0  0  0  0  0  0  0  0  0  0  0
  145.8741  131.8432  150.9823 C   0  0  0  0  0  0  0  0  0  0  0  0
  144.5024  131.8085  150.6744 C   0  0  0  0  0  0  0  0  0  0  0  0
  143.7761  133.0116  150.7466 C   0  0  0  0  0  0  0  0  0  0  0  0
  144.3328  134.1904  151.0967 N   0  0  0  0  0  0  0  0  0  0  0  0
  147.7336  137.2187  152.2876 H   0  0  0  0  0  0  0  0  0  0  0  0
  145.8484  139.3601  152.2732 H   0  0  0  0  0  0  0  0  0  0  0  0
  146.0501  138.7744  153.9056 H   0  0  0  0  0  0  0  0  0  0  0  0
  148.3626  139.6716  152.1002 H   0  0  0  0  0  0  0  0  0  0  0  0
  148.2937  138.6593  154.9424 H   0  0  0  0  0  0  0  0  0  0  0  0
  149.5032  138.3678  153.6937 H   0  0  0  0  0  0  0  0  0  0  0  0
  149.4716  140.4815  155.6725 H   0  0  0  0  0  0  0  0  0  0  0  0
  150.6294  140.3373  154.3478 H   0  0  0  0  0  0  0  0  0  0  0  0
  147.2708  141.7315  152.7362 H   0  0  0  0  0  0  0  0  0  0  0  0
  146.9710  141.1372  154.3773 H   0  0  0  0  0  0  0  0  0  0  0  0
  147.3444  135.3855  151.6954 H   0  0  0  0  0  0  0  0  0  0  0  0
  147.5094  133.1164  151.5868 H   0  0  0  0  0  0  0  0  0  0  0  0
  146.4698  130.9434  150.9398 H   0  0  0  0  0  0  0  0  0  0  0  0
  144.0196  130.8852  150.3902 H   0  0  0  0  0  0  0  0  0  0  0  0
  142.7209  133.0291  150.5174 H   0  0  0  0  0  0  0  0  0  0  0  0
  1  2  2  0  0  0  0
  2  3  1  0  0  0  0
  2 10  1  0  0  0  0
  3  4  1  0  0  0  0
  3 17  1  0  0  0  0
  4  5  1  0  0  0  0
  4 18  1  0  0  0  0
  4 19  1  0  0  0  0
  5  9  1  0  0  0  0
  5  6  1  0  0  0  0
  5 20  1  0  0  0  0
  6  7  1  0  0  0  0
  6 21  1  0  0  0  0
  6 22  1  0  0  0  0
  7  8  1  0  0  0  0
  7 23  1  0  0  0  0
  7 24  1  0  0  0  0
  8  9  1  0  0  0  0
  9 25  1  0  0  0  0
  9 26  1  0  0  0  0
 10 11  1  0  0  0  0
 10 27  1  0  0  0  0
 11 16  1  0  0  0  0
 11 12  2  0  0  0  0
 12 13  1  0  0  0  0
 12 28  1  0  0  0  0
 13 14  2  0  0  0  0
 13 29  1  0  0  0  0
 14 15  1  0  0  0  0
 14 30  1  0  0  0  0
 15 16  2  0  0  0  0
 15 31  1  0  0  0  0
M  END
> <s_m_source_file>
AV-unprocessed.smi

> <i_m_source_file_index>
1925

> <i_lp_mmshare_version>
43012

> <i_f3d_flags>
0

> <s_epik_input>
bjFbY0hdW2NIXVtjSF1bY0hdYzFbTkhdQyg9TylbTkhdW0NIMl1bQ0BASF0yW0NIMl1bQ0gyXU9bQ0gyXTI=

> <s_epik_cmdline>
J2VwaWtfcHl0aG9uJywgJy1waCcsICc3LjAnLCAnLXRuJywgJzgnLCAnLW1hJywgJzIwMCcsICctbWV0YWxfYmluZGluZycsICctaW1hZScsICc8aW5maWxlLm1hZT4nLCAnLW9tYWUnLCAnPG91dGZpbGUubWFlPic=

> <r_lp_tautomer_probability>
1

> <r_epik_Ionization_Penalty>
4.81143e-05

> <r_epik_Ionization_Penalty_Charging>
0

> <r_epik_Ionization_Penalty_Neutral>
4.81143e-05

> <r_epik_State_Penalty>
-0

> <r_epik_Charging_Adjusted_Penalty>
0

> <i_epik_Tot_Q>
0

> <i_epik_Tot_abs_Q>
0

> <r_epik_Metal_State_Penalty>
-0

> <b_epik_Metal_Only>
0

> <s_lp_Force_Field>
OPLS_2005

> <r_lp_Energy>
20.9741

> <b_lp_Chiralities_Consistent>
1

> <s_lp_Variant>
AV-unprocessed.smi:1925-1

> <Gold.Version>
5.8.1

> <Gold.Id.Protein>
6NUR|6NUR_protein|mol2

> <Gold.PLP.Fitness>
39.8211

> <Gold.PLP.PLP>
-28.8785

> <Gold.PLP.part.hbond>
-3.2011

> <Gold.PLP.part.metal>
0.0000

> <Gold.PLP.part.buried>
-0.0551

> <Gold.PLP.part.nonpolar>
-25.6572

> <Gold.PLP.part.repulsive>
0.6567

> <Gold.PLP.ligand.clash>
0.0000

> <Gold.PLP.ligand.torsion>
0.0768

> <Gold.PLP.Chemscore.Hbond>
2.6978

> <Gold.PLP.Chemscore.CHOScore>
1.0000

> <Gold.PLP.Chemscore.Metal>
0.0000

> <Gold.Chemscore.Hbonds>
donor molecule, donor type, donor heavy atom, donor atom, acceptor molecule, acceptor atom, score
      L1  H     3    17       P1  7948  1.00
      L1  H    10    27       P1  7948  1.00
      P1  H  8011  8017       L1     8  0.69
      L1  C    15    31       P1 10186  1.00

> <Gold.PLP.Chemscore.Internal.Correction>
0.0027

> <Gold.Rescore>
     Score         DG    S(hbond)    S(metal)    S(lipo)     H(rot)  DE(clash)    DE(int)     intcor
     16.03     -18.83       2.55        0.00      69.18       1.27       1.55       1.26       ----

> <Gold.Chemscore.Fitness>
16.0252

> <Gold.Chemscore.DG>
-18.8348

> <Gold.Chemscore.ZeroCoef>
-5.4800

> <Gold.Chemscore.Hbond>
2.5467

> <Gold.Chemscore.Metal>
0.0000

> <Gold.Chemscore.Lipo>
69.1825

> <Gold.Chemscore.Internal_Hbond>
0.0000

> <Gold.Chemscore.DEClash>
1.5475

> <Gold.Chemscore.DEInternal>
1.2621

> <Gold.Chemscore.Rot>
1.2678

> <Gold.Chemscore.Internal.Correction>
   9.000000E+99

> <Gold.Chemscore.Hbonds>
donor molecule, donor type, donor heavy atom, donor atom, acceptor molecule, acceptor atom, score
      L1  H     3    17       P1  7948  0.98
      L1  H    10    27       P1  7948  0.92
      P1  H  8011  8017       L1     8  0.36

> <Gold.Chemscore.Hbond.Weighted>
-8.5059

> <Gold.Chemscore.Metal.Weighted>
-0.0000

> <Gold.Chemscore.Lipo.Weighted>
-8.0944

> <Gold.Chemscore.Internal_Hbond.Weighted>
0.0000

> <Gold.Chemscore.DEClash.Weighted>
1.5475

> <Gold.Chemscore.DEInternal.Weighted>
1.2621

> <Gold.Chemscore.Rot.Weighted>
3.2455

> <Gold.Chemscore.Internal.Correction.Weighted>
   9.000000E+99

> <Gold.Protein.RotatedTorsions>
[ 6907 6896 6895 6894 ] final  179.59 input  -60.11 | X-H torsion
[ 7974 7965 7964 7962 ] final   16.42 input  175.53 | X-H torsion
[ 8008 7997 7996 7995 ] final  -66.90 input   59.86 | X-H torsion
[ 10167 10162 10161 10158 ] final  -70.38 input  -65.29 | X-H torsion
[ 10718 10713 10712 10709 ] final  -22.62 input   66.30 | X-H torsion
[ 10763 10752 10751 10750 ] final -161.24 input  -60.55 | X-H torsion
[ 11005 11000 10999 10996 ] final   41.27 input  -57.11 | X-H torsion

> <Gold.Protein.ActiveResidues>
 VAL166  LYS551  ARG553  GLY616  TRP617  ASP618  TYR619  PRO620  LYS621  CYS622 
 ASP623  PHE694  ASN695  SER759  ASP760  ASP761  ALA762  ILE779  LEU786  VAL792 
 PHE793  MET794  SER795  GLU796  ALA797  LYS798  CYS799  TRP800  GLU811  SER814 

> <Gold.Protein.RotatedAtoms>
  151.6691  133.3314  159.3191 H   0  0  0  0  0  0  0  0  0  0  0  0  # atno 6907 bound_to 6896
  150.7876  134.6878  159.6489 H   0  0  0  0  0  0  0  0  0  0  0  0  # atno 6908 bound_to 6896
  152.3949  134.6385  160.0145 H   0  0  0  0  0  0  0  0  0  0  0  0  # atno 6909 bound_to 6896
  146.2250  139.8751  142.8580 H   0  0  0  0  0  0  0  0  0  0  0  0  # atno 7974 bound_to 7965
  154.4764  140.0903  156.7273 H   0  0  0  0  0  0  0  0  0  0  0  0  # atno 8008 bound_to 7997
  155.4584  140.3460  155.4291 H   0  0  0  0  0  0  0  0  0  0  0  0  # atno 8009 bound_to 7997
  156.1124  140.1451  156.9309 H   0  0  0  0  0  0  0  0  0  0  0  0  # atno 8010 bound_to 7997
  140.5357  143.2318  151.7181 H   0  0  0  0  0  0  0  0  0  0  0  0  # atno 10167 bound_to 10162
  156.5021  130.4590  149.6695 H   0  0  0  0  0  0  0  0  0  0  0  0  # atno 10718 bound_to 10713
  154.7321  135.3049  154.8873 H   0  0  0  0  0  0  0  0  0  0  0  0  # atno 10763 bound_to 10752
  153.9713  135.6741  153.4751 H   0  0  0  0  0  0  0  0  0  0  0  0  # atno 10764 bound_to 10752
  153.0928  135.4951  154.8644 H   0  0  0  0  0  0  0  0  0  0  0  0  # atno 10765 bound_to 10752
  140.1851  134.4056  155.8178 H   0  0  0  0  0  0  0  0  0  0  0  0  # atno 11005 bound_to 11000
  145.2569  141.0063  143.3849 LP  0  0  0  0  0  0  0  0  0  0  0  0  # atno 17320 bound_to 7965
  144.9329  139.4277  143.6486 LP  0  0  0  0  0  0  0  0  0  0  0  0  # atno 17321 bound_to 7965
  139.4970  144.4046  152.0145 LP  0  0  0  0  0  0  0  0  0  0  0  0  # atno 17342 bound_to 10162
  140.3152  144.3492  150.6023 LP  0  0  0  0  0  0  0  0  0  0  0  0  # atno 17343 bound_to 10162
  156.3322  130.7337  151.2269 LP  0  0  0  0  0  0  0  0  0  0  0  0  # atno 17370 bound_to 10713
  157.7461  131.0426  150.4705 LP  0  0  0  0  0  0  0  0  0  0  0  0  # atno 17371 bound_to 10713
  141.2224  133.7019  156.7998 LP  0  0  0  0  0  0  0  0  0  0  0  0  # atno 17394 bound_to 11000
  140.2223  134.8747  157.3390 LP  0  0  0  0  0  0  0  0  0  0  0  0  # atno 17395 bound_to 11000

$$$$
