AV-unprocessed.smi:2283|AV-procd|sdf|9200|dock10
  -GOLD-   2272012413D 1   1.00000     0.00000
 Structure written by MMmdl.
 37 38  0  0  0  0  0  0  0  0  1 V2000
  151.9397  144.5169  159.5936 C   0  0  0  0  0  0  0  0  0  0  0  0
  152.2473  143.0291  159.6119 C   0  0  0  0  0  0  0  0  0  0  0  0
  153.1754  142.5439  160.5588 C   0  0  0  0  0  0  0  0  0  0  0  0
  153.4813  141.1725  160.6245 C   0  0  0  0  0  0  0  0  0  0  0  0
  152.8565  140.2732  159.7434 C   0  0  0  0  0  0  0  0  0  0  0  0
  151.9319  140.7478  158.7950 C   0  0  0  0  0  0  0  0  0  0  0  0
  151.6232  142.1256  158.7107 C   0  0  0  0  0  0  0  0  0  0  0  0
  150.6081  142.6007  157.6709 C   0  0  1  0  0  0  0  0  0  0  0  0
  151.1573  143.5925  156.8251 O   0  0  0  0  0  0  0  0  0  0  0  0
  150.1198  141.4179  156.8039 C   0  0  0  0  0  0  0  0  0  0  0  0
  148.8462  141.7073  156.1211 N   0  0  0  0  0  0  0  0  0  0  0  0
  147.7527  142.0191  156.9465 C   0  0  0  0  0  0  0  0  0  0  0  0
  146.5886  142.2968  156.4580 N   0  0  0  0  0  0  0  0  0  0  0  0
  146.3951  142.2925  155.0738 C   0  0  0  0  0  0  0  0  0  0  0  0
  144.9913  142.6347  154.6069 C   0  0  0  0  0  0  0  0  0  0  0  0
  147.4123  141.9981  154.2187 C   0  0  0  0  0  0  0  0  0  0  0  0
  147.2605  141.9786  152.7028 C   0  0  0  0  0  0  0  0  0  0  0  0
  148.7430  141.6781  154.7608 C   0  0  0  0  0  0  0  0  0  0  0  0
  149.7055  141.4015  154.0426 O   0  0  0  0  0  0  0  0  0  0  0  0
  152.4177  145.0318  160.4275 H   0  0  0  0  0  0  0  0  0  0  0  0
  150.8664  144.6888  159.6719 H   0  0  0  0  0  0  0  0  0  0  0  0
  152.3013  144.9702  158.6704 H   0  0  0  0  0  0  0  0  0  0  0  0
  153.6577  143.2243  161.2455 H   0  0  0  0  0  0  0  0  0  0  0  0
  154.1916  140.8106  161.3533 H   0  0  0  0  0  0  0  0  0  0  0  0
  153.0846  139.2187  159.7952 H   0  0  0  0  0  0  0  0  0  0  0  0
  151.4561  140.0414  158.1306 H   0  0  0  0  0  0  0  0  0  0  0  0
  149.7629  143.0690  158.1731 H   0  0  0  0  0  0  0  0  0  0  0  0
  150.4680  144.1891  156.5759 H   0  0  0  0  0  0  0  0  0  0  0  0
  150.8992  141.1081  156.1052 H   0  0  0  0  0  0  0  0  0  0  0  0
  149.9751  140.5448  157.4439 H   0  0  0  0  0  0  0  0  0  0  0  0
  147.9575  142.0126  158.0184 H   0  0  0  0  0  0  0  0  0  0  0  0
  145.0052  143.5210  153.9719 H   0  0  0  0  0  0  0  0  0  0  0  0
  144.3302  142.8386  155.4500 H   0  0  0  0  0  0  0  0  0  0  0  0
  144.5646  141.8060  154.0410 H   0  0  0  0  0  0  0  0  0  0  0  0
  147.4997  140.9885  152.3133 H   0  0  0  0  0  0  0  0  0  0  0  0
  147.9447  142.6958  152.2480 H   0  0  0  0  0  0  0  0  0  0  0  0
  146.2552  142.2285  152.3680 H   0  0  0  0  0  0  0  0  0  0  0  0
  1  2  1  0  0  0  0
  1 20  1  0  0  0  0
  1 21  1  0  0  0  0
  1 22  1  0  0  0  0
  2  7  1  0  0  0  0
  2  3  2  0  0  0  0
  3  4  1  0  0  0  0
  3 23  1  0  0  0  0
  4  5  2  0  0  0  0
  4 24  1  0  0  0  0
  5  6  1  0  0  0  0
  5 25  1  0  0  0  0
  6  7  2  0  0  0  0
  6 26  1  0  0  0  0
  7  8  1  0  0  0  0
  8  9  1  0  0  0  0
  8 10  1  0  0  0  0
  8 27  1  0  0  0  0
  9 28  1  0  0  0  0
 10 11  1  0  0  0  0
 10 29  1  0  0  0  0
 10 30  1  0  0  0  0
 11 18  1  0  0  0  0
 11 12  1  0  0  0  0
 12 13  2  0  0  0  0
 12 31  1  0  0  0  0
 13 14  1  0  0  0  0
 14 15  1  0  0  0  0
 14 16  2  0  0  0  0
 15 32  1  0  0  0  0
 15 33  1  0  0  0  0
 15 34  1  0  0  0  0
 16 17  1  0  0  0  0
 16 18  1  0  0  0  0
 17 35  1  0  0  0  0
 17 36  1  0  0  0  0
 17 37  1  0  0  0  0
 18 19  2  0  0  0  0
M  END
> <s_m_source_file>
AV-unprocessed.smi

> <i_m_source_file_index>
2283

> <i_lp_mmshare_version>
43012

> <i_f3d_flags>
0

> <s_epik_input>
W0NIM11jMVtjSF1bY0hdW2NIXVtjSF1jMVtDQEhdKFtPSF0pW0NIMl1uMltjSF1uYyhbQ0gzXSljKFtDSDNdKWMyPU8=

> <s_epik_cmdline>
J2VwaWtfcHl0aG9uJywgJy1waCcsICc3LjAnLCAnLXRuJywgJzgnLCAnLW1hJywgJzIwMCcsICctbWV0YWxfYmluZGluZycsICctaW1hZScsICc8aW5maWxlLm1hZT4nLCAnLW9tYWUnLCAnPG91dGZpbGUubWFlPic=

> <r_lp_tautomer_probability>
1

> <r_epik_Ionization_Penalty>
5.07259e-05

> <r_epik_Ionization_Penalty_Charging>
7.56727e-08

> <r_epik_Ionization_Penalty_Neutral>
5.06502e-05

> <r_epik_State_Penalty>
-0

> <r_epik_Charging_Adjusted_Penalty>
7.56727e-08

> <i_epik_Tot_Q>
0

> <i_epik_Tot_abs_Q>
0

> <r_epik_Metal_State_Penalty>
-0

> <b_epik_Metal_Only>
0

> <s_lp_Force_Field>
OPLS_2005

> <r_lp_Energy>
21.1785

> <b_lp_Chiralities_Consistent>
1

> <s_lp_Variant>
AV-unprocessed.smi:2283-2

> <Gold.Version>
5.8.1

> <Gold.Id.Protein>
6NUR|6NUR_protein|mol2

> <Gold.PLP.Fitness>
44.9222

> <Gold.PLP.PLP>
-39.8521

> <Gold.PLP.part.hbond>
-3.0000

> <Gold.PLP.part.metal>
0.0000

> <Gold.PLP.part.buried>
-4.0941

> <Gold.PLP.part.nonpolar>
-32.0760

> <Gold.PLP.part.repulsive>
0.3226

> <Gold.PLP.ligand.clash>
0.0000

> <Gold.PLP.ligand.torsion>
0.1714

> <Gold.PLP.Chemscore.Hbond>
1.8018

> <Gold.PLP.Chemscore.CHOScore>
0.0000

> <Gold.PLP.Chemscore.Metal>
0.0000

> <Gold.Chemscore.Hbonds>
donor molecule, donor type, donor heavy atom, donor atom, acceptor molecule, acceptor atom, score
      L1  H     9    28       P1  8028  1.00
      P1  H  7989  7998       L1    19  0.27
      P1  H  8011  8017       L1    19  0.69

> <Gold.PLP.Chemscore.Internal.Correction>
0.0073

> <Gold.Rescore>
     Score         DG    S(hbond)    S(metal)    S(lipo)     H(rot)  DE(clash)    DE(int)     intcor
     18.17     -20.20       2.02        0.00     109.94       1.91       1.77       0.25       ----

> <Gold.Chemscore.Fitness>
18.1710

> <Gold.Chemscore.DG>
-20.1950

> <Gold.Chemscore.ZeroCoef>
-5.4800

> <Gold.Chemscore.Hbond>
2.0156

> <Gold.Chemscore.Metal>
0.0000

> <Gold.Chemscore.Lipo>
109.9361

> <Gold.Chemscore.Internal_Hbond>
0.0000

> <Gold.Chemscore.DEClash>
1.7741

> <Gold.Chemscore.DEInternal>
0.2499

> <Gold.Chemscore.Rot>
1.9061

> <Gold.Chemscore.Internal.Correction>
   9.000000E+99

> <Gold.Chemscore.Hbonds>
donor molecule, donor type, donor heavy atom, donor atom, acceptor molecule, acceptor atom, score
      L1  H     9    28       P1  8028  0.99
      P1  H  7989  7998       L1    19  0.26
      P1  H  8011  8017       L1    19  0.60

> <Gold.Chemscore.Hbond.Weighted>
-6.7323

> <Gold.Chemscore.Metal.Weighted>
-0.0000

> <Gold.Chemscore.Lipo.Weighted>
-12.8625

> <Gold.Chemscore.Internal_Hbond.Weighted>
0.0000

> <Gold.Chemscore.DEClash.Weighted>
1.7741

> <Gold.Chemscore.DEInternal.Weighted>
0.2499

> <Gold.Chemscore.Rot.Weighted>
4.8797

> <Gold.Chemscore.Internal.Correction.Weighted>
   9.000000E+99

> <Gold.Protein.RotatedTorsions>
[ 6907 6896 6895 6894 ] final   94.08 input  -60.11 | X-H torsion
[ 7974 7965 7964 7962 ] final  145.73 input  175.53 | X-H torsion
[ 8008 7997 7996 7995 ] final  153.40 input   59.86 | X-H torsion
[ 10167 10162 10161 10158 ] final -110.22 input  -65.29 | X-H torsion
[ 10718 10713 10712 10709 ] final  -86.64 input   66.30 | X-H torsion
[ 10763 10752 10751 10750 ] final -105.60 input  -60.55 | X-H torsion
[ 11005 11000 10999 10996 ] final  -15.85 input  -57.11 | X-H torsion

> <Gold.Protein.ActiveResidues>
 VAL166  LYS551  ARG553  GLY616  TRP617  ASP618  TYR619  PRO620  LYS621  CYS622 
 ASP623  PHE694  ASN695  SER759  ASP760  ASP761  ALA762  ILE779  LEU786  VAL792 
 PHE793  MET794  SER795  GLU796  ALA797  LYS798  CYS799  TRP800  GLU811  SER814 

> <Gold.Protein.RotatedAtoms>
  152.5451  134.1248  159.8413 H   0  0  0  0  0  0  0  0  0  0  0  0  # atno 6907 bound_to 6896
  151.1300  133.5036  159.2607 H   0  0  0  0  0  0  0  0  0  0  0  0  # atno 6908 bound_to 6896
  151.1685  135.0317  159.8796 H   0  0  0  0  0  0  0  0  0  0  0  0  # atno 6909 bound_to 6896
  144.8728  139.5818  143.5879 H   0  0  0  0  0  0  0  0  0  0  0  0  # atno 7974 bound_to 7965
  156.2583  140.1994  156.6484 H   0  0  0  0  0  0  0  0  0  0  0  0  # atno 8008 bound_to 7997
  154.6555  140.0567  157.0029 H   0  0  0  0  0  0  0  0  0  0  0  0  # atno 8009 bound_to 7997
  155.1353  140.3237  155.4467 H   0  0  0  0  0  0  0  0  0  0  0  0  # atno 8010 bound_to 7997
  140.1468  143.4233  152.1523 H   0  0  0  0  0  0  0  0  0  0  0  0  # atno 10167 bound_to 10162
  155.9989  130.4772  150.4746 H   0  0  0  0  0  0  0  0  0  0  0  0  # atno 10718 bound_to 10713
  154.7957  135.4743  154.0156 H   0  0  0  0  0  0  0  0  0  0  0  0  # atno 10763 bound_to 10752
  153.1700  135.6823  153.8628 H   0  0  0  0  0  0  0  0  0  0  0  0  # atno 10764 bound_to 10752
  153.8213  135.3204  155.3388 H   0  0  0  0  0  0  0  0  0  0  0  0  # atno 10765 bound_to 10752
  140.8008  133.8215  155.9468 H   0  0  0  0  0  0  0  0  0  0  0  0  # atno 11005 bound_to 11000
  146.2942  139.7229  142.9138 LP  0  0  0  0  0  0  0  0  0  0  0  0  # atno 17320 bound_to 7965
  145.4098  141.0395  143.3024 LP  0  0  0  0  0  0  0  0  0  0  0  0  # atno 17321 bound_to 7965
  139.5445  144.7286  151.4627 LP  0  0  0  0  0  0  0  0  0  0  0  0  # atno 17342 bound_to 10162
  140.6727  143.8258  150.7019 LP  0  0  0  0  0  0  0  0  0  0  0  0  # atno 17343 bound_to 10162
  157.2757  131.0596  151.2230 LP  0  0  0  0  0  0  0  0  0  0  0  0  # atno 17370 bound_to 10713
  157.3295  130.6978  149.6316 LP  0  0  0  0  0  0  0  0  0  0  0  0  # atno 17371 bound_to 10713
  140.9296  134.2038  157.4872 LP  0  0  0  0  0  0  0  0  0  0  0  0  # atno 17394 bound_to 11000
  139.8722  134.9827  156.5168 LP  0  0  0  0  0  0  0  0  0  0  0  0  # atno 17395 bound_to 11000

$$$$
