AV-unprocessed.smi:3169|AV-procd|sdf|12105|dock1
  -GOLD-   2272017543D 1   1.00000     0.00000
 Structure written by MMmdl.
 35 36  0  0  0  0  0  0  0  0  1 V2000
  146.0941  138.1141  154.6114 O   0  0  0  0  0  0  0  0  0  0  0  0
  146.8703  137.5176  153.8651 C   0  0  0  0  0  0  0  0  0  0  0  0
  146.5093  136.5146  153.0540 N   0  0  0  0  0  0  0  0  0  0  0  0
  145.1500  136.0039  152.9065 C   0  0  0  0  0  0  0  0  0  0  0  0
  144.7408  135.8501  151.4297 C   0  0  0  0  0  0  0  0  0  0  0  0
  145.1011  134.5510  150.8935 N   0  0  0  0  0  0  0  0  0  0  0  0
  146.3749  134.0059  150.8026 C   0  0  0  0  0  0  0  0  0  0  0  0
  146.2308  132.7657  150.2226 C   0  0  0  0  0  0  0  0  0  0  0  0
  144.8856  132.5281  149.9510 N   0  0  0  0  0  0  0  0  0  0  0  0
  144.2779  133.6279  150.3772 C   0  0  0  0  0  0  0  0  0  0  0  0
  148.1777  137.7924  153.7610 N   0  0  0  0  0  0  0  0  0  0  0  0
  148.8873  138.8214  154.5135 C   0  0  0  0  0  0  0  0  0  0  0  0
  150.4107  138.6937  154.3494 C   0  0  2  0  0  0  0  0  0  0  0  0
  151.0360  137.4706  155.0203 C   0  0  0  0  0  0  0  0  0  0  0  0
  152.4689  137.9214  155.1860 C   0  0  0  0  0  0  0  0  0  0  0  0
  152.2947  139.3950  155.5450 C   0  0  0  0  0  0  0  0  0  0  0  0
  151.0680  139.8080  154.9459 O   0  0  0  0  0  0  0  0  0  0  0  0
  147.2215  136.0844  152.4820 H   0  0  0  0  0  0  0  0  0  0  0  0
  145.0880  135.0404  153.4131 H   0  0  0  0  0  0  0  0  0  0  0  0
  144.4512  136.6657  153.4205 H   0  0  0  0  0  0  0  0  0  0  0  0
  143.6617  135.9716  151.3302 H   0  0  0  0  0  0  0  0  0  0  0  0
  145.1987  136.6266  150.8154 H   0  0  0  0  0  0  0  0  0  0  0  0
  147.2534  134.5319  151.1461 H   0  0  0  0  0  0  0  0  0  0  0  0
  146.9861  132.0325  149.9811 H   0  0  0  0  0  0  0  0  0  0  0  0
  143.2092  133.7688  150.3059 H   0  0  0  0  0  0  0  0  0  0  0  0
  148.7276  137.2444  153.1159 H   0  0  0  0  0  0  0  0  0  0  0  0
  148.5622  139.7905  154.1342 H   0  0  0  0  0  0  0  0  0  0  0  0
  148.6121  138.8006  155.5695 H   0  0  0  0  0  0  0  0  0  0  0  0
  150.6709  138.6926  153.2896 H   0  0  0  0  0  0  0  0  0  0  0  0
  150.5843  137.2937  155.9977 H   0  0  0  0  0  0  0  0  0  0  0  0
  150.9390  136.5610  154.4273 H   0  0  0  0  0  0  0  0  0  0  0  0
  153.0136  137.3580  155.9439 H   0  0  0  0  0  0  0  0  0  0  0  0
  153.0014  137.8252  154.2388 H   0  0  0  0  0  0  0  0  0  0  0  0
  152.2087  139.5179  156.6252 H   0  0  0  0  0  0  0  0  0  0  0  0
  153.1301  140.0052  155.2011 H   0  0  0  0  0  0  0  0  0  0  0  0
  1  2  2  0  0  0  0
  2  3  1  0  0  0  0
  2 11  1  0  0  0  0
  3  4  1  0  0  0  0
  3 18  1  0  0  0  0
  4  5  1  0  0  0  0
  4 19  1  0  0  0  0
  4 20  1  0  0  0  0
  5  6  1  0  0  0  0
  5 21  1  0  0  0  0
  5 22  1  0  0  0  0
  6 10  1  0  0  0  0
  6  7  1  0  0  0  0
  7  8  2  0  0  0  0
  7 23  1  0  0  0  0
  8  9  1  0  0  0  0
  8 24  1  0  0  0  0
  9 10  2  0  0  0  0
 10 25  1  0  0  0  0
 11 12  1  0  0  0  0
 11 26  1  0  0  0  0
 12 13  1  0  0  0  0
 12 27  1  0  0  0  0
 12 28  1  0  0  0  0
 13 17  1  0  0  0  0
 13 14  1  0  0  0  0
 13 29  1  0  0  0  0
 14 15  1  0  0  0  0
 14 30  1  0  0  0  0
 14 31  1  0  0  0  0
 15 16  1  0  0  0  0
 15 32  1  0  0  0  0
 15 33  1  0  0  0  0
 16 17  1  0  0  0  0
 16 34  1  0  0  0  0
 16 35  1  0  0  0  0
M  END
> <s_m_source_file>
AV-unprocessed.smi

> <i_m_source_file_index>
3169

> <i_lp_mmshare_version>
43012

> <i_f3d_flags>
0

> <s_epik_input>
TzFbQ0gyXVtDSDJdW0NIMl1bQ0BIXTFbQ0gyXVtOSF1DKD1PKVtOSF1bQ0gyXVtDSDJdbjJbY0hdW2NIXW5bY0hdMg==

> <s_epik_cmdline>
J2VwaWtfcHl0aG9uJywgJy1waCcsICc3LjAnLCAnLXRuJywgJzgnLCAnLW1hJywgJzIwMCcsICctbWV0YWxfYmluZGluZycsICctaW1hZScsICc8aW5maWxlLm1hZT4nLCAnLW9tYWUnLCAnPG91dGZpbGUubWFlPic=

> <r_lp_tautomer_probability>
1

> <r_epik_Ionization_Penalty>
0.620462

> <r_epik_Ionization_Penalty_Charging>
0.620414

> <r_epik_Ionization_Penalty_Neutral>
4.72016e-05

> <r_epik_State_Penalty>
0.636391

> <r_epik_Charging_Adjusted_Penalty>
1.25681

> <i_epik_Tot_Q>
0

> <i_epik_Tot_abs_Q>
0

> <r_epik_Metal_State_Penalty>
0.306539

> <b_epik_Metal_Only>
0

> <s_lp_Force_Field>
OPLS_2005

> <r_lp_Energy>
16.7898

> <b_lp_Chiralities_Consistent>
1

> <s_lp_Variant>
AV-unprocessed.smi:3169-3

> <Gold.Version>
5.8.1

> <Gold.Id.Protein>
6NUR|6NUR_protein|mol2

> <Gold.PLP.Fitness>
47.3987

> <Gold.PLP.PLP>
-30.2639

> <Gold.PLP.part.hbond>
-3.0000

> <Gold.PLP.part.metal>
0.0000

> <Gold.PLP.part.buried>
-3.7292

> <Gold.PLP.part.nonpolar>
-24.1103

> <Gold.PLP.part.repulsive>
0.3710

> <Gold.PLP.ligand.clash>
0.0000

> <Gold.PLP.ligand.torsion>
0.3291

> <Gold.PLP.Chemscore.Hbond>
2.9120

> <Gold.PLP.Chemscore.CHOScore>
2.9946

> <Gold.PLP.Chemscore.Metal>
0.0000

> <Gold.Chemscore.Hbonds>
donor molecule, donor type, donor heavy atom, donor atom, acceptor molecule, acceptor atom, score
      L1  H     3    18       P1  7948  0.91
      L1  H    11    26       P1  7948  1.00
      P1  H  7989  7998       L1    17  1.00
      L1  C     7    23       P1  7948  0.95
      L1  C     8    24       P1 10747  1.00
      L1  C    10    25       P1 10186  1.00

> <Gold.PLP.Chemscore.Internal.Correction>
0.0732

> <Gold.Rescore>
     Score         DG    S(hbond)    S(metal)    S(lipo)     H(rot)  DE(clash)    DE(int)     intcor
     14.51     -15.06       2.58        0.00      57.48       2.25       0.08       0.47       ----

> <Gold.Chemscore.Fitness>
14.5115

> <Gold.Chemscore.DG>
-15.0590

> <Gold.Chemscore.ZeroCoef>
-5.4800

> <Gold.Chemscore.Hbond>
2.5771

> <Gold.Chemscore.Metal>
0.0000

> <Gold.Chemscore.Lipo>
57.4769

> <Gold.Chemscore.Internal_Hbond>
0.0000

> <Gold.Chemscore.DEClash>
0.0811

> <Gold.Chemscore.DEInternal>
0.4664

> <Gold.Chemscore.Rot>
2.2474

> <Gold.Chemscore.Internal.Correction>
   9.000000E+99

> <Gold.Chemscore.Hbonds>
donor molecule, donor type, donor heavy atom, donor atom, acceptor molecule, acceptor atom, score
      L1  H     3    18       P1  7948  0.90
      L1  H    11    26       P1  7948  0.98
      P1  H  7989  7998       L1    17  0.20

> <Gold.Chemscore.Hbond.Weighted>
-8.6074

> <Gold.Chemscore.Metal.Weighted>
-0.0000

> <Gold.Chemscore.Lipo.Weighted>
-6.7248

> <Gold.Chemscore.Internal_Hbond.Weighted>
0.0000

> <Gold.Chemscore.DEClash.Weighted>
0.0811

> <Gold.Chemscore.DEInternal.Weighted>
0.4664

> <Gold.Chemscore.Rot.Weighted>
5.7532

> <Gold.Chemscore.Internal.Correction.Weighted>
   9.000000E+99

> <Gold.Protein.RotatedTorsions>
[ 6907 6896 6895 6894 ] final    5.66 input  -60.11 | X-H torsion
[ 7974 7965 7964 7962 ] final  130.38 input  175.53 | X-H torsion
[ 8008 7997 7996 7995 ] final  -53.92 input   59.86 | X-H torsion
[ 10167 10162 10161 10158 ] final   -0.61 input  -65.29 | X-H torsion
[ 10718 10713 10712 10709 ] final   12.63 input   66.30 | X-H torsion
[ 10763 10752 10751 10750 ] final -113.24 input  -60.55 | X-H torsion
[ 11005 11000 10999 10996 ] final  175.63 input  -57.11 | X-H torsion

> <Gold.Protein.ActiveResidues>
 VAL166  LYS551  ARG553  GLY616  TRP617  ASP618  TYR619  PRO620  LYS621  CYS622 
 ASP623  PHE694  ASN695  SER759  ASP760  ASP761  ALA762  ILE779  LEU786  VAL792 
 PHE793  MET794  SER795  GLU796  ALA797  LYS798  CYS799  TRP800  GLU811  SER814 

> <Gold.Protein.RotatedAtoms>
  151.6611  135.0989  160.0179 H   0  0  0  0  0  0  0  0  0  0  0  0  # atno 6907 bound_to 6896
  152.3946  133.6724  159.6274 H   0  0  0  0  0  0  0  0  0  0  0  0  # atno 6908 bound_to 6896
  150.7855  133.8812  159.3327 H   0  0  0  0  0  0  0  0  0  0  0  0  # atno 6909 bound_to 6896
  145.0185  139.4153  143.5209 H   0  0  0  0  0  0  0  0  0  0  0  0  # atno 7974 bound_to 7965
  154.4147  140.1188  156.5231 H   0  0  0  0  0  0  0  0  0  0  0  0  # atno 8008 bound_to 7997
  155.6682  140.3496  155.4789 H   0  0  0  0  0  0  0  0  0  0  0  0  # atno 8009 bound_to 7997
  155.9655  140.1131  157.0848 H   0  0  0  0  0  0  0  0  0  0  0  0  # atno 8010 bound_to 7997
  140.6775  143.6874  150.8055 H   0  0  0  0  0  0  0  0  0  0  0  0  # atno 10167 bound_to 10162
  157.0130  130.6124  149.5710 H   0  0  0  0  0  0  0  0  0  0  0  0  # atno 10718 bound_to 10713
  154.8387  135.4461  154.1319 H   0  0  0  0  0  0  0  0  0  0  0  0  # atno 10763 bound_to 10752
  153.2527  135.6928  153.7668 H   0  0  0  0  0  0  0  0  0  0  0  0  # atno 10764 bound_to 10752
  153.6975  135.3377  155.3192 H   0  0  0  0  0  0  0  0  0  0  0  0  # atno 10765 bound_to 10752
  140.3643  134.7086  157.4351 H   0  0  0  0  0  0  0  0  0  0  0  0  # atno 11005 bound_to 11000
  146.3482  139.9670  142.8710 LP  0  0  0  0  0  0  0  0  0  0  0  0  # atno 17320 bound_to 7965
  145.1927  140.9819  143.4201 LP  0  0  0  0  0  0  0  0  0  0  0  0  # atno 17321 bound_to 7965
  140.0570  143.5193  152.2646 LP  0  0  0  0  0  0  0  0  0  0  0  0  # atno 17342 bound_to 10162
  139.6075  144.7600  151.3027 LP  0  0  0  0  0  0  0  0  0  0  0  0  # atno 17343 bound_to 10162
  156.0129  130.5222  150.8046 LP  0  0  0  0  0  0  0  0  0  0  0  0  # atno 17370 bound_to 10713
  157.5306  131.0936  150.9959 LP  0  0  0  0  0  0  0  0  0  0  0  0  # atno 17371 bound_to 10713
  140.0602  134.6006  155.8758 LP  0  0  0  0  0  0  0  0  0  0  0  0  # atno 17394 bound_to 11000
  141.1974  133.6596  156.5742 LP  0  0  0  0  0  0  0  0  0  0  0  0  # atno 17395 bound_to 11000

$$$$
