AV-unprocessed.smi:317|AV-procd|sdf|2328|dock6
  -GOLD-   2262022233D 1   1.00000     0.00000
 Structure written by MMmdl.
 40 41  0  0  0  0  0  0  0  0  2 V2000
  152.5570  144.9700  158.2632 C   0  0  0  0  0  0  0  0  0  0  0  0
  151.1140  144.4926  158.4875 C   0  0  2  0  0  0  0  0  0  0  0  0
  150.9343  143.7991  159.8526 C   0  0  0  0  0  0  0  0  0  0  0  0
  151.1199  144.7237  160.9031 O   0  0  0  0  0  0  0  0  0  0  0  0
  150.7373  143.5890  157.4035 N   0  0  0  0  0  0  0  0  0  0  0  0
  151.2396  142.3621  157.2038 C   0  0  0  0  0  0  0  0  0  0  0  0
  152.1072  141.8562  157.9151 O   0  0  0  0  0  0  0  0  0  0  0  0
  150.6880  141.7818  156.1248 N   0  0  0  0  0  0  0  0  0  0  0  0
  150.9608  140.4963  155.5750 C   0  0  0  0  0  0  0  0  0  0  0  0
  152.2191  139.8661  155.7584 C   0  0  0  0  0  0  0  0  0  0  0  0
  152.4650  138.6045  155.1848 C   0  0  0  0  0  0  0  0  0  0  0  0
  151.4473  137.9869  154.4386 C   0  0  0  0  0  0  0  0  0  0  0  0
  150.2547  138.6013  154.2997 N   0  3  0  0  0  0  0  0  0  0  0  0
  149.9512  139.8082  154.8397 C   0  0  0  0  0  0  0  0  0  0  0  0
  148.6511  140.3181  154.6196 N   0  0  0  0  0  0  0  0  0  0  0  0
  148.4656  141.6726  154.1116 C   0  0  0  0  0  0  0  0  0  0  0  0
  147.0023  141.7378  153.6832 C   0  0  0  0  0  0  0  0  0  0  0  0
  146.7514  140.3272  153.1586 C   0  0  0  0  0  0  0  0  0  0  0  0
  147.6286  139.4443  154.0529 C   0  0  0  0  0  0  0  0  0  0  0  0
  152.8610  145.6831  159.0299 H   0  0  0  0  0  0  0  0  0  0  0  0
  152.6615  145.4655  157.2974 H   0  0  0  0  0  0  0  0  0  0  0  0
  153.2602  144.1367  158.2881 H   0  0  0  0  0  0  0  0  0  0  0  0
  150.4600  145.3664  158.4464 H   0  0  0  0  0  0  0  0  0  0  0  0
  149.9286  143.3887  159.9493 H   0  0  0  0  0  0  0  0  0  0  0  0
  151.6326  142.9693  159.9669 H   0  0  0  0  0  0  0  0  0  0  0  0
  151.8141  144.4093  161.4621 H   0  0  0  0  0  0  0  0  0  0  0  0
  150.0318  143.9245  156.7641 H   0  0  0  0  0  0  0  0  0  0  0  0
  150.0636  142.3615  155.5839 H   0  0  0  0  0  0  0  0  0  0  0  0
  153.0033  140.3281  156.3383 H   0  0  0  0  0  0  0  0  0  0  0  0
  153.4217  138.1197  155.3153 H   0  0  0  0  0  0  0  0  0  0  0  0
  151.5453  137.0233  153.9598 H   0  0  0  0  0  0  0  0  0  0  0  0
  148.6986  142.4196  154.8709 H   0  0  0  0  0  0  0  0  0  0  0  0
  149.1074  141.8469  153.2470 H   0  0  0  0  0  0  0  0  0  0  0  0
  146.3671  141.9317  154.5486 H   0  0  0  0  0  0  0  0  0  0  0  0
  146.8102  142.5118  152.9399 H   0  0  0  0  0  0  0  0  0  0  0  0
  145.6990  140.0440  153.1848 H   0  0  0  0  0  0  0  0  0  0  0  0
  147.0922  140.2561  152.1249 H   0  0  0  0  0  0  0  0  0  0  0  0
  148.0609  138.6160  153.4899 H   0  0  0  0  0  0  0  0  0  0  0  0
  147.0318  139.0303  154.8660 H   0  0  0  0  0  0  0  0  0  0  0  0
  149.5325  138.1222  153.7614 H   0  0  0  0  0  0  0  0  0  0  0  0
  1  2  1  0  0  0  0
  1 20  1  0  0  0  0
  1 21  1  0  0  0  0
  1 22  1  0  0  0  0
  2  3  1  0  0  0  0
  2  5  1  0  0  0  0
  2 23  1  0  0  0  0
  3  4  1  0  0  0  0
  3 24  1  0  0  0  0
  3 25  1  0  0  0  0
  4 26  1  0  0  0  0
  5  6  1  0  0  0  0
  5 27  1  0  0  0  0
  6  7  2  0  0  0  0
  6  8  1  0  0  0  0
  8  9  1  0  0  0  0
  8 28  1  0  0  0  0
  9 14  1  0  0  0  0
  9 10  2  0  0  0  0
 10 11  1  0  0  0  0
 10 29  1  0  0  0  0
 11 12  2  0  0  0  0
 11 30  1  0  0  0  0
 12 13  1  0  0  0  0
 12 31  1  0  0  0  0
 13 14  2  0  0  0  0
 13 40  1  0  0  0  0
 14 15  1  0  0  0  0
 15 19  1  0  0  0  0
 15 16  1  0  0  0  0
 16 17  1  0  0  0  0
 16 32  1  0  0  0  0
 16 33  1  0  0  0  0
 17 18  1  0  0  0  0
 17 34  1  0  0  0  0
 17 35  1  0  0  0  0
 18 19  1  0  0  0  0
 18 36  1  0  0  0  0
 18 37  1  0  0  0  0
 19 38  1  0  0  0  0
 19 39  1  0  0  0  0
M  CHG  1  13   1
M  END
> <s_m_source_file>
AV-unprocessed.smi

> <i_m_source_file_index>
317

> <i_lp_mmshare_version>
43012

> <i_f3d_flags>
0

> <s_epik_input>
W09IXVtDSDJdW0NAQEhdKFtDSDNdKVtOSF1DKD1PKVtOSF1jMVtjSF1bY0hdW2NIXW5jMU4yW0NIMl1bQ0gyXVtDSDJdW0NIMl0y

> <s_epik_cmdline>
J2VwaWtfcHl0aG9uJywgJy1waCcsICc3LjAnLCAnLXRuJywgJzgnLCAnLW1hJywgJzIwMCcsICctbWV0YWxfYmluZGluZycsICctaW1hZScsICc8aW5maWxlLm1hZT4nLCAnLW9tYWUnLCAnPG91dGZpbGUubWFlPic=

> <r_lp_tautomer_probability>
0.999994

> <r_epik_Ionization_Penalty>
1.11558

> <r_epik_Ionization_Penalty_Charging>
1.11556

> <r_epik_Ionization_Penalty_Neutral>
2.02999e-05

> <r_epik_State_Penalty>
1.17393

> <r_epik_Charging_Adjusted_Penalty>
2.28949

> <i_epik_Tot_Q>
1

> <i_epik_Tot_abs_Q>
1

> <r_epik_Metal_State_Penalty>
1.25924

> <b_epik_Metal_Only>
0

> <s_lp_Force_Field>
OPLS_2005

> <r_lp_Energy>
37.9657

> <b_lp_Chiralities_Consistent>
1

> <s_lp_Variant>
AV-unprocessed.smi:317-3

> <Gold.Version>
5.8.1

> <Gold.Id.Protein>
6NUR|6NUR_protein|mol2

> <Gold.PLP.Fitness>
40.7214

> <Gold.PLP.PLP>
-38.1661

> <Gold.PLP.part.hbond>
-2.0000

> <Gold.PLP.part.metal>
0.0000

> <Gold.PLP.part.buried>
-2.6730

> <Gold.PLP.part.nonpolar>
-32.8023

> <Gold.PLP.part.repulsive>
0.2847

> <Gold.PLP.ligand.clash>
0.0000

> <Gold.PLP.ligand.torsion>
0.4224

> <Gold.PLP.Chemscore.Hbond>
1.0000

> <Gold.PLP.Chemscore.CHOScore>
0.0000

> <Gold.PLP.Chemscore.Metal>
0.0000

> <Gold.Chemscore.Hbonds>
donor molecule, donor type, donor heavy atom, donor atom, acceptor molecule, acceptor atom, score
      L1  H     5    27       P1  8028  1.00

> <Gold.PLP.Chemscore.Internal.Correction>
0.4001

> <Gold.Rescore>
     Score         DG    S(hbond)    S(metal)    S(lipo)     H(rot)  DE(clash)    DE(int)     intcor
     11.55     -14.21       1.00        0.00      92.33       2.11       0.12       2.54       ----

> <Gold.Chemscore.Fitness>
11.5529

> <Gold.Chemscore.DG>
-14.2115

> <Gold.Chemscore.ZeroCoef>
-5.4800

> <Gold.Chemscore.Hbond>
0.9971

> <Gold.Chemscore.Metal>
0.0000

> <Gold.Chemscore.Lipo>
92.3312

> <Gold.Chemscore.Internal_Hbond>
0.0000

> <Gold.Chemscore.DEClash>
0.1192

> <Gold.Chemscore.DEInternal>
2.5394

> <Gold.Chemscore.Rot>
2.1099

> <Gold.Chemscore.Internal.Correction>
   9.000000E+99

> <Gold.Chemscore.Hbonds>
donor molecule, donor type, donor heavy atom, donor atom, acceptor molecule, acceptor atom, score
      L1  H     5    27       P1  8028  0.99

> <Gold.Chemscore.Hbond.Weighted>
-3.3302

> <Gold.Chemscore.Metal.Weighted>
-0.0000

> <Gold.Chemscore.Lipo.Weighted>
-10.8027

> <Gold.Chemscore.Internal_Hbond.Weighted>
0.0000

> <Gold.Chemscore.DEClash.Weighted>
0.1192

> <Gold.Chemscore.DEInternal.Weighted>
2.5394

> <Gold.Chemscore.Rot.Weighted>
5.4015

> <Gold.Chemscore.Internal.Correction.Weighted>
   9.000000E+99

> <Gold.Protein.RotatedTorsions>
[ 6907 6896 6895 6894 ] final   66.19 input  -60.11 | X-H torsion
[ 7974 7965 7964 7962 ] final   20.61 input  175.53 | X-H torsion
[ 8008 7997 7996 7995 ] final  145.45 input   59.86 | X-H torsion
[ 10167 10162 10161 10158 ] final  148.37 input  -65.29 | X-H torsion
[ 10718 10713 10712 10709 ] final   27.69 input   66.30 | X-H torsion
[ 10763 10752 10751 10750 ] final  133.08 input  -60.55 | X-H torsion
[ 11005 11000 10999 10996 ] final -144.00 input  -57.11 | X-H torsion

> <Gold.Protein.ActiveResidues>
 VAL166  LYS551  ARG553  GLY616  TRP617  ASP618  TYR619  PRO620  LYS621  CYS622 
 ASP623  PHE694  ASN695  SER759  ASP760  ASP761  ALA762  ILE779  LEU786  VAL792 
 PHE793  MET794  SER795  GLU796  ALA797  LYS798  CYS799  TRP800  GLU811  SER814 

> <Gold.Protein.RotatedAtoms>
  152.4463  134.5487  159.9860 H   0  0  0  0  0  0  0  0  0  0  0  0  # atno 6907 bound_to 6896
  151.5572  133.3403  159.2972 H   0  0  0  0  0  0  0  0  0  0  0  0  # atno 6908 bound_to 6896
  150.8380  134.7694  159.6972 H   0  0  0  0  0  0  0  0  0  0  0  0  # atno 6909 bound_to 6896
  146.2104  139.8144  142.8693 H   0  0  0  0  0  0  0  0  0  0  0  0  # atno 7974 bound_to 7965
  156.2883  140.2209  156.5217 H   0  0  0  0  0  0  0  0  0  0  0  0  # atno 8008 bound_to 7997
  154.7523  140.0479  157.0925 H   0  0  0  0  0  0  0  0  0  0  0  0  # atno 8009 bound_to 7997
  155.0094  140.3111  155.4839 H   0  0  0  0  0  0  0  0  0  0  0  0  # atno 8010 bound_to 7997
  139.4876  144.5685  151.7100 H   0  0  0  0  0  0  0  0  0  0  0  0  # atno 10167 bound_to 10162
  157.2236  130.6990  149.6281 H   0  0  0  0  0  0  0  0  0  0  0  0  # atno 10718 bound_to 10713
  153.8012  135.3141  155.3390 H   0  0  0  0  0  0  0  0  0  0  0  0  # atno 10763 bound_to 10752
  154.8088  135.4680  154.0465 H   0  0  0  0  0  0  0  0  0  0  0  0  # atno 10764 bound_to 10752
  153.1813  135.6894  153.8561 H   0  0  0  0  0  0  0  0  0  0  0  0  # atno 10765 bound_to 10752
  140.8068  134.2791  157.4957 H   0  0  0  0  0  0  0  0  0  0  0  0  # atno 11005 bound_to 11000
  145.3161  141.0232  143.3527 LP  0  0  0  0  0  0  0  0  0  0  0  0  # atno 17320 bound_to 7965
  144.8900  139.4787  143.6682 LP  0  0  0  0  0  0  0  0  0  0  0  0  # atno 17321 bound_to 7965
  140.5267  144.0794  150.6040 LP  0  0  0  0  0  0  0  0  0  0  0  0  # atno 17342 bound_to 10162
  140.3770  143.2823  152.0213 LP  0  0  0  0  0  0  0  0  0  0  0  0  # atno 17343 bound_to 10162
  155.9680  130.4512  150.5726 LP  0  0  0  0  0  0  0  0  0  0  0  0  # atno 17370 bound_to 10713
  157.3551  131.0740  151.1682 LP  0  0  0  0  0  0  0  0  0  0  0  0  # atno 17371 bound_to 10713
  139.8717  134.9461  156.3928 LP  0  0  0  0  0  0  0  0  0  0  0  0  # atno 17394 bound_to 11000
  140.9238  133.7626  155.9939 LP  0  0  0  0  0  0  0  0  0  0  0  0  # atno 17395 bound_to 11000

$$$$
