AV-unprocessed.smi:69|AV-procd|sdf|654|dock10
  -GOLD-   2262016553D 1   1.00000     0.00000
 Structure written by MMmdl.
 32 34  0  0  0  0  0  0  0  0  1 V2000
  143.4387  136.0893  156.8891 N   0  0  0  0  0  0  0  0  0  0  0  0
  143.3252  135.6800  155.6179 C   0  0  0  0  0  0  0  0  0  0  0  0
  142.0961  135.3527  155.1558 N   0  0  0  0  0  0  0  0  0  0  0  0
  141.9577  134.9401  153.8922 C   0  0  0  0  0  0  0  0  0  0  0  0
  142.8975  134.7900  152.9555 N   0  0  0  0  0  0  0  0  0  0  0  0
  144.1384  135.1192  153.4200 C   0  0  0  0  0  0  0  0  0  0  0  0
  144.4313  135.5728  154.7371 C   0  0  0  0  0  0  0  0  0  0  0  0
  145.7912  135.8171  154.8639 N   0  0  0  0  0  0  0  0  0  0  0  0
  146.2719  135.5220  153.6867 C   0  0  0  0  0  0  0  0  0  0  0  0
  145.3514  135.0894  152.7570 N   0  0  0  0  0  0  0  0  0  0  0  0
  145.6375  134.6926  151.3418 C   0  0  1  0  0  0  0  0  0  0  0  0
  145.5195  133.3099  151.2109 O   0  0  0  0  0  0  0  0  0  0  0  0
  144.8321  132.9558  150.0079 C   0  0  1  0  0  0  0  0  0  0  0  0
  143.5385  132.2099  150.3990 C   0  0  0  0  0  0  0  0  0  0  0  0
  142.7091  132.0602  149.2664 O   0  0  0  0  0  0  0  0  0  0  0  0
  144.6201  134.2939  149.2714 C   0  0  1  0  0  0  0  0  0  0  0  0
  143.4204  134.3526  148.5232 O   0  0  0  0  0  0  0  0  0  0  0  0
  144.6286  135.3268  150.3868 C   0  0  2  0  0  0  0  0  0  0  0  0
  145.0886  136.5634  149.8762 O   0  0  0  0  0  0  0  0  0  0  0  0
  146.6717  134.9891  151.1571 H   0  0  0  0  0  0  0  0  0  0  0  0
  145.4598  132.3027  149.3998 H   0  0  0  0  0  0  0  0  0  0  0  0
  145.4662  134.4601  148.6018 H   0  0  0  0  0  0  0  0  0  0  0  0
  143.6536  135.4116  150.8703 H   0  0  0  0  0  0  0  0  0  0  0  0
  144.3453  136.3381  157.2580 H   0  0  0  0  0  0  0  0  0  0  0  0
  142.6189  136.1456  157.4755 H   0  0  0  0  0  0  0  0  0  0  0  0
  140.9511  134.6945  153.5877 H   0  0  0  0  0  0  0  0  0  0  0  0
  147.3240  135.6146  153.4591 H   0  0  0  0  0  0  0  0  0  0  0  0
  143.7487  131.2441  150.8564 H   0  0  0  0  0  0  0  0  0  0  0  0
  142.9613  132.7847  151.1230 H   0  0  0  0  0  0  0  0  0  0  0  0
  142.1589  132.8251  149.1941 H   0  0  0  0  0  0  0  0  0  0  0  0
  142.6995  134.1276  149.0915 H   0  0  0  0  0  0  0  0  0  0  0  0
  144.4097  137.2096  149.9954 H   0  0  0  0  0  0  0  0  0  0  0  0
  1  2  1  0  0  0  0
  1 24  1  0  0  0  0
  1 25  1  0  0  0  0
  2  7  1  0  0  0  0
  2  3  2  0  0  0  0
  3  4  1  0  0  0  0
  4  5  2  0  0  0  0
  4 26  1  0  0  0  0
  5  6  1  0  0  0  0
  6 10  1  0  0  0  0
  6  7  2  0  0  0  0
  7  8  1  0  0  0  0
  8  9  2  0  0  0  0
  9 10  1  0  0  0  0
  9 27  1  0  0  0  0
 10 11  1  0  0  0  0
 11 20  1  0  0  0  0
 11 18  1  0  0  0  0
 11 12  1  0  0  0  0
 12 13  1  0  0  0  0
 13 21  1  0  0  0  0
 13 14  1  0  0  0  0
 13 16  1  0  0  0  0
 14 15  1  0  0  0  0
 14 28  1  0  0  0  0
 14 29  1  0  0  0  0
 15 30  1  0  0  0  0
 16 22  1  0  0  0  0
 16 17  1  0  0  0  0
 16 18  1  0  0  0  0
 17 31  1  0  0  0  0
 18 23  1  0  0  0  0
 18 19  1  0  0  0  0
 19 32  1  0  0  0  0
M  END
> <s_m_source_file>
AV-unprocessed.smi

> <i_m_source_file_index>
69

> <i_lp_mmshare_version>
43012

> <i_f3d_flags>
0

> <s_epik_input>
bjFbY0hdbmMoW05IMl0pYyhjMTIpbltjSF1uMltDQEBIXTNPW0NASF0oW0NIMl1bT0hdKVtDQEBIXShbT0hdKVtDQEhdM1tPSF0=

> <s_epik_cmdline>
J2VwaWtfcHl0aG9uJywgJy1waCcsICc3LjAnLCAnLXRuJywgJzgnLCAnLW1hJywgJzIwMCcsICctbWV0YWxfYmluZGluZycsICctaW1hZScsICc8aW5maWxlLm1hZT4nLCAnLW9tYWUnLCAnPG91dGZpbGUubWFlPic=

> <r_lp_tautomer_probability>
1

> <r_epik_Ionization_Penalty>
0.000428445

> <r_epik_Ionization_Penalty_Charging>
0

> <r_epik_Ionization_Penalty_Neutral>
0.000428445

> <r_epik_State_Penalty>
-0

> <r_epik_Charging_Adjusted_Penalty>
0

> <i_epik_Tot_Q>
0

> <i_epik_Tot_abs_Q>
0

> <r_epik_Metal_State_Penalty>
-0

> <b_epik_Metal_Only>
0

> <s_epik_Chemistry_Notes>
This compound contains an acetal/aminal-like group ( X-CH(R)-Y where X, Y are N, S, or O) that may be acid/base labile, releasing an aldehyde.

> <s_lp_Force_Field>
OPLS_2005

> <r_lp_Energy>
41.5942

> <b_lp_Chiralities_Consistent>
1

> <s_lp_Variant>
AV-unprocessed.smi:69-12

> <Gold.Version>
5.8.1

> <Gold.Id.Protein>
6NUR|6NUR_protein|mol2

> <Gold.PLP.Fitness>
39.7870

> <Gold.PLP.PLP>
-25.1199

> <Gold.PLP.part.hbond>
-8.2751

> <Gold.PLP.part.metal>
0.0000

> <Gold.PLP.part.buried>
-0.9602

> <Gold.PLP.part.nonpolar>
-16.5073

> <Gold.PLP.part.repulsive>
0.3833

> <Gold.PLP.ligand.clash>
0.0000

> <Gold.PLP.ligand.torsion>
0.3518

> <Gold.PLP.Chemscore.Hbond>
4.1212

> <Gold.PLP.Chemscore.CHOScore>
1.0000

> <Gold.PLP.Chemscore.Metal>
0.0000

> <Gold.Chemscore.Hbonds>
donor molecule, donor type, donor heavy atom, donor atom, acceptor molecule, acceptor atom, score
      L1  H    15    30       P1 10186  1.00
      L1  H    17    31       P1 10186  0.93
      L1  H    19    32       P1 10171  0.86
      P1  H 10192 10197       L1    17  0.31
      P1  H 10785 10796       L1    15  0.96
      L1  C     9    27       P1  7948  1.00

> <Gold.PLP.Chemscore.Internal.Correction>
0.0070

> <Gold.Rescore>
     Score         DG    S(hbond)    S(metal)    S(lipo)     H(rot)  DE(clash)    DE(int)     intcor
      9.61     -11.50       3.61        0.00      36.68       4.03       1.73       0.16       ----

> <Gold.Chemscore.Fitness>
9.6095

> <Gold.Chemscore.DG>
-11.5010

> <Gold.Chemscore.ZeroCoef>
-5.4800

> <Gold.Chemscore.Hbond>
3.6051

> <Gold.Chemscore.Metal>
0.0000

> <Gold.Chemscore.Lipo>
36.6753

> <Gold.Chemscore.Internal_Hbond>
0.0000

> <Gold.Chemscore.DEClash>
1.7340

> <Gold.Chemscore.DEInternal>
0.1575

> <Gold.Chemscore.Rot>
4.0277

> <Gold.Chemscore.Internal.Correction>
   9.000000E+99

> <Gold.Chemscore.Hbonds>
donor molecule, donor type, donor heavy atom, donor atom, acceptor molecule, acceptor atom, score
      L1  H    15    30       P1 10186  0.97
      L1  H    17    31       P1 10186  0.90
      L1  H    19    32       P1 10171  0.80
      P1  H 10192 10197       L1    17  0.01
      P1  H 10785 10796       L1    15  0.23

> <Gold.Chemscore.Hbond.Weighted>
-12.0409

> <Gold.Chemscore.Metal.Weighted>
-0.0000

> <Gold.Chemscore.Lipo.Weighted>
-4.2910

> <Gold.Chemscore.Internal_Hbond.Weighted>
0.0000

> <Gold.Chemscore.DEClash.Weighted>
1.7340

> <Gold.Chemscore.DEInternal.Weighted>
0.1575

> <Gold.Chemscore.Rot.Weighted>
10.3110

> <Gold.Chemscore.Internal.Correction.Weighted>
   9.000000E+99

> <Gold.Protein.RotatedTorsions>
[ 6907 6896 6895 6894 ] final  -77.24 input  -60.11 | X-H torsion
[ 7974 7965 7964 7962 ] final   64.64 input  175.53 | X-H torsion
[ 8008 7997 7996 7995 ] final -125.99 input   59.86 | X-H torsion
[ 10167 10162 10161 10158 ] final   45.31 input  -65.29 | X-H torsion
[ 10718 10713 10712 10709 ] final   20.04 input   66.30 | X-H torsion
[ 10763 10752 10751 10750 ] final  149.93 input  -60.55 | X-H torsion
[ 11005 11000 10999 10996 ] final  113.13 input  -57.11 | X-H torsion

> <Gold.Protein.ActiveResidues>
 VAL166  LYS551  ARG553  GLY616  TRP617  ASP618  TYR619  PRO620  LYS621  CYS622 
 ASP623  PHE694  ASN695  SER759  ASP760  ASP761  ALA762  ILE779  LEU786  VAL792 
 PHE793  MET794  SER795  GLU796  ALA797  LYS798  CYS799  TRP800  GLU811  SER814 

> <Gold.Protein.RotatedAtoms>
  150.7004  134.4452  159.5310 H   0  0  0  0  0  0  0  0  0  0  0  0  # atno 6907 bound_to 6896
  152.2155  134.8459  160.0501 H   0  0  0  0  0  0  0  0  0  0  0  0  # atno 6908 bound_to 6896
  151.9329  133.3581  159.3974 H   0  0  0  0  0  0  0  0  0  0  0  0  # atno 6909 bound_to 6896
  145.8478  139.3235  143.0893 H   0  0  0  0  0  0  0  0  0  0  0  0  # atno 7974 bound_to 7965
  155.2223  140.0422  157.2950 H   0  0  0  0  0  0  0  0  0  0  0  0  # atno 8008 bound_to 7997
  154.5941  140.2435  155.7851 H   0  0  0  0  0  0  0  0  0  0  0  0  # atno 8009 bound_to 7997
  156.2279  140.2948  156.0122 H   0  0  0  0  0  0  0  0  0  0  0  0  # atno 8010 bound_to 7997
  140.3255  144.2653  150.6176 H   0  0  0  0  0  0  0  0  0  0  0  0  # atno 10167 bound_to 10162
  157.1189  130.6541  149.5918 H   0  0  0  0  0  0  0  0  0  0  0  0  # atno 10718 bound_to 10713
  154.0791  135.2861  155.3294 H   0  0  0  0  0  0  0  0  0  0  0  0  # atno 10763 bound_to 10752
  154.6695  135.5304  153.8124 H   0  0  0  0  0  0  0  0  0  0  0  0  # atno 10764 bound_to 10752
  153.0455  135.6554  154.0968 H   0  0  0  0  0  0  0  0  0  0  0  0  # atno 10765 bound_to 10752
  139.8945  134.9544  156.6692 H   0  0  0  0  0  0  0  0  0  0  0  0  # atno 11005 bound_to 11000
  145.9392  140.8992  143.0316 LP  0  0  0  0  0  0  0  0  0  0  0  0  # atno 17320 bound_to 7965
  144.6730  140.1525  143.7429 LP  0  0  0  0  0  0  0  0  0  0  0  0  # atno 17321 bound_to 7965
  140.5445  143.2217  151.8030 LP  0  0  0  0  0  0  0  0  0  0  0  0  # atno 17342 bound_to 10162
  139.4866  144.4557  151.9601 LP  0  0  0  0  0  0  0  0  0  0  0  0  # atno 17343 bound_to 10162
  155.9833  130.4852  150.6926 LP  0  0  0  0  0  0  0  0  0  0  0  0  # atno 17370 bound_to 10713
  157.4494  131.0871  151.0862 LP  0  0  0  0  0  0  0  0  0  0  0  0  # atno 17371 bound_to 10713
  140.7386  133.8997  155.8262 LP  0  0  0  0  0  0  0  0  0  0  0  0  # atno 17394 bound_to 11000
  141.0096  134.1039  157.4235 LP  0  0  0  0  0  0  0  0  0  0  0  0  # atno 17395 bound_to 11000

$$$$
