AV-unprocessed.smi:1208|AV-procd|sdf|5063|dock4
  -GOLD-   22720 4103D 1   1.00000     0.00000
 Structure written by MMmdl.
 35 36  0  0  0  0  0  0  0  0  2 V2000
  152.6364  139.2417  157.9557 C   0  0  0  0  0  0  0  0  0  0  0  0
  151.4546  139.7157  158.8144 C   0  0  2  0  0  0  0  0  0  0  0  0
  150.3362  138.7914  158.6365 N   0  0  0  0  0  0  0  0  0  0  0  0
  150.2001  137.5910  159.2217 C   0  0  0  0  0  0  0  0  0  0  0  0
  151.0269  137.1202  160.0041 O   0  0  0  0  0  0  0  0  0  0  0  0
  148.9127  136.8267  158.8758 C   0  0  0  0  0  0  0  0  0  0  0  0
  148.2914  136.1501  160.0237 N   0  0  0  0  0  0  0  0  0  0  0  0
  147.7495  137.0633  161.0261 N   0  5  0  0  0  0  0  0  0  0  0  0
  147.1570  136.5512  162.1375 C   0  0  0  0  0  0  0  0  0  0  0  0
  146.6932  137.2564  163.0305 O   0  0  0  0  0  0  0  0  0  0  0  0
  147.0706  135.1056  162.2624 C   0  0  0  0  0  0  0  0  0  0  0  0
  147.5596  134.2868  161.3104 C   0  0  0  0  0  0  0  0  0  0  0  0
  148.2060  134.7914  160.1051 C   0  0  0  0  0  0  0  0  0  0  0  0
  148.6432  134.0491  159.2253 O   0  0  0  0  0  0  0  0  0  0  0  0
  151.0147  141.1488  158.4556 C   0  0  1  0  0  0  0  0  0  0  0  0
  152.1083  142.2093  158.6095 C   0  0  0  0  0  0  0  0  0  0  0  0
  151.6408  143.2763  157.6476 C   0  0  0  0  0  0  0  0  0  0  0  0
  151.0982  142.4348  156.4976 C   0  0  0  0  0  0  0  0  0  0  0  0
  150.6216  141.2274  157.0861 O   0  0  0  0  0  0  0  0  0  0  0  0
  153.5051  139.8863  158.0910 H   0  0  0  0  0  0  0  0  0  0  0  0
  152.3836  139.2428  156.8949 H   0  0  0  0  0  0  0  0  0  0  0  0
  152.9357  138.2285  158.2264 H   0  0  0  0  0  0  0  0  0  0  0  0
  151.7811  139.7153  159.8560 H   0  0  0  0  0  0  0  0  0  0  0  0
  149.5989  139.0914  158.0158 H   0  0  0  0  0  0  0  0  0  0  0  0
  148.2148  137.5349  158.4256 H   0  0  0  0  0  0  0  0  0  0  0  0
  149.1262  136.0916  158.0977 H   0  0  0  0  0  0  0  0  0  0  0  0
  146.6016  134.6789  163.1365 H   0  0  0  0  0  0  0  0  0  0  0  0
  147.4711  133.2190  161.4437 H   0  0  0  0  0  0  0  0  0  0  0  0
  150.1550  141.4403  159.0613 H   0  0  0  0  0  0  0  0  0  0  0  0
  152.2102  142.5715  159.6330 H   0  0  0  0  0  0  0  0  0  0  0  0
  153.0742  141.8158  158.2886 H   0  0  0  0  0  0  0  0  0  0  0  0
  150.8391  143.8624  158.0989 H   0  0  0  0  0  0  0  0  0  0  0  0
  152.4349  143.9574  157.3404 H   0  0  0  0  0  0  0  0  0  0  0  0
  150.3114  142.9463  155.9428 H   0  0  0  0  0  0  0  0  0  0  0  0
  151.8979  142.1851  155.7992 H   0  0  0  0  0  0  0  0  0  0  0  0
  1  2  1  0  0  0  0
  1 20  1  0  0  0  0
  1 21  1  0  0  0  0
  1 22  1  0  0  0  0
  2  3  1  0  0  0  0
  2 15  1  0  0  0  0
  2 23  1  0  0  0  0
  3  4  1  0  0  0  0
  3 24  1  0  0  0  0
  4  5  2  0  0  0  0
  4  6  1  0  0  0  0
  6 25  1  0  0  0  0
  6 26  1  0  0  0  0
  6  7  1  0  0  0  0
  7  8  1  0  0  0  0
  7 13  1  0  0  0  0
  8  9  1  0  0  0  0
  9 10  2  0  0  0  0
  9 11  1  0  0  0  0
 11 27  1  0  0  0  0
 11 12  2  0  0  0  0
 12 28  1  0  0  0  0
 12 13  1  0  0  0  0
 13 14  2  0  0  0  0
 15 19  1  0  0  0  0
 15 16  1  0  0  0  0
 15 29  1  0  0  0  0
 16 17  1  0  0  0  0
 16 30  1  0  0  0  0
 16 31  1  0  0  0  0
 17 18  1  0  0  0  0
 17 32  1  0  0  0  0
 17 33  1  0  0  0  0
 18 19  1  0  0  0  0
 18 34  1  0  0  0  0
 18 35  1  0  0  0  0
M  CHG  1   8  -1
M  END
> <s_m_source_file>
AV-unprocessed.smi

> <i_m_source_file_index>
1208

> <i_lp_mmshare_version>
43012

> <i_f3d_flags>
0

> <s_epik_input>
TzFbQ0gyXVtDSDJdW0NIMl1bQ0BIXTFbQ0BIXShbQ0gzXSlbTkhdQyg9TylbQ0gyXW4yW25IXWMoPU8pW2NIXVtjSF1jMj1P

> <s_epik_cmdline>
J2VwaWtfcHl0aG9uJywgJy1waCcsICc3LjAnLCAnLXRuJywgJzgnLCAnLW1hJywgJzIwMCcsICctbWV0YWxfYmluZGluZycsICctaW1hZScsICc8aW5maWxlLm1hZT4nLCAnLW9tYWUnLCAnPG91dGZpbGUubWFlPic=

> <r_lp_tautomer_probability>
1

> <r_epik_Ionization_Penalty>
0.0975494

> <r_epik_Ionization_Penalty_Charging>
0.0975494

> <r_epik_Ionization_Penalty_Neutral>
2.30132e-08

> <r_epik_State_Penalty>
0.034345

> <r_epik_Charging_Adjusted_Penalty>
0.131894

> <i_epik_Tot_Q>
-1

> <i_epik_Tot_abs_Q>
1

> <r_epik_Metal_State_Penalty>
0.034345

> <b_epik_Metal_Only>
0

> <s_lp_Force_Field>
OPLS_2005

> <r_lp_Energy>
33.2444

> <b_lp_Chiralities_Consistent>
1

> <s_lp_Variant>
AV-unprocessed.smi:1208-3

> <Gold.Version>
5.8.1

> <Gold.Id.Protein>
6NUR|6NUR_protein|mol2

> <Gold.PLP.Fitness>
44.3428

> <Gold.PLP.PLP>
-30.2259

> <Gold.PLP.part.hbond>
-4.1522

> <Gold.PLP.part.metal>
0.0000

> <Gold.PLP.part.buried>
-2.0309

> <Gold.PLP.part.nonpolar>
-25.3171

> <Gold.PLP.part.repulsive>
0.2407

> <Gold.PLP.ligand.clash>
0.0000

> <Gold.PLP.ligand.torsion>
0.6040

> <Gold.PLP.Chemscore.Hbond>
5.0972

> <Gold.PLP.Chemscore.CHOScore>
0.0000

> <Gold.PLP.Chemscore.Metal>
0.0000

> <Gold.Chemscore.Hbonds>
donor molecule, donor type, donor heavy atom, donor atom, acceptor molecule, acceptor atom, score
      P1  H  6896  6908       L1    14  0.94
      P1  H  6896  6909       L1     5  0.69
      P1  H  6931  6943       L1     8  1.82
      P1  H  6934  6947       L1     8  1.72

> <Gold.PLP.Chemscore.Internal.Correction>
0.0332

> <Gold.Rescore>
     Score         DG    S(hbond)    S(metal)    S(lipo)     H(rot)  DE(clash)    DE(int)     intcor
     15.73     -16.86       2.61        0.00      66.49       1.99       0.51       0.63       ----

> <Gold.Chemscore.Fitness>
15.7290

> <Gold.Chemscore.DG>
-16.8638

> <Gold.Chemscore.ZeroCoef>
-5.4800

> <Gold.Chemscore.Hbond>
2.6077

> <Gold.Chemscore.Metal>
0.0000

> <Gold.Chemscore.Lipo>
66.4852

> <Gold.Chemscore.Internal_Hbond>
0.0000

> <Gold.Chemscore.DEClash>
0.5093

> <Gold.Chemscore.DEInternal>
0.6254

> <Gold.Chemscore.Rot>
1.9940

> <Gold.Chemscore.Internal.Correction>
   9.000000E+99

> <Gold.Chemscore.Hbonds>
donor molecule, donor type, donor heavy atom, donor atom, acceptor molecule, acceptor atom, score
      P1  H  6896  6908       L1    14  0.55
      P1  H  6896  6909       L1     5  0.66
      P1  H  6931  6943       L1     8  0.18
      P1  H  6934  6947       L1     8  0.44

> <Gold.Chemscore.Hbond.Weighted>
-8.7097

> <Gold.Chemscore.Metal.Weighted>
-0.0000

> <Gold.Chemscore.Lipo.Weighted>
-7.7788

> <Gold.Chemscore.Internal_Hbond.Weighted>
0.0000

> <Gold.Chemscore.DEClash.Weighted>
0.5093

> <Gold.Chemscore.DEInternal.Weighted>
0.6254

> <Gold.Chemscore.Rot.Weighted>
5.1047

> <Gold.Chemscore.Internal.Correction.Weighted>
   9.000000E+99

> <Gold.Protein.RotatedTorsions>
[ 6907 6896 6895 6894 ] final  134.10 input  -60.11 | X-H torsion
[ 7974 7965 7964 7962 ] final -122.06 input  175.53 | X-H torsion
[ 8008 7997 7996 7995 ] final   34.12 input   59.86 | X-H torsion
[ 10167 10162 10161 10158 ] final   86.73 input  -65.29 | X-H torsion
[ 10718 10713 10712 10709 ] final   -1.97 input   66.30 | X-H torsion
[ 10763 10752 10751 10750 ] final   71.63 input  -60.55 | X-H torsion
[ 11005 11000 10999 10996 ] final   34.10 input  -57.11 | X-H torsion

> <Gold.Protein.ActiveResidues>
 VAL166  LYS551  ARG553  GLY616  TRP617  ASP618  TYR619  PRO620  LYS621  CYS622 
 ASP623  PHE694  ASN695  SER759  ASP760  ASP761  ALA762  ILE779  LEU786  VAL792 
 PHE793  MET794  SER795  GLU796  ALA797  LYS798  CYS799  TRP800  GLU811  SER814 

> <Gold.Protein.RotatedAtoms>
  152.3149  133.5792  159.5705 H   0  0  0  0  0  0  0  0  0  0  0  0  # atno 6907 bound_to 6896
  150.7341  134.0097  159.3674 H   0  0  0  0  0  0  0  0  0  0  0  0  # atno 6908 bound_to 6896
  151.7986  135.0715  160.0448 H   0  0  0  0  0  0  0  0  0  0  0  0  # atno 6909 bound_to 6896
  145.0335  140.8087  143.4309 H   0  0  0  0  0  0  0  0  0  0  0  0  # atno 7974 bound_to 7965
  155.1497  140.3273  155.4434 H   0  0  0  0  0  0  0  0  0  0  0  0  # atno 8008 bound_to 7997
  156.2578  140.1979  156.6559 H   0  0  0  0  0  0  0  0  0  0  0  0  # atno 8009 bound_to 7997
  154.6482  140.0562  156.9911 H   0  0  0  0  0  0  0  0  0  0  0  0  # atno 8010 bound_to 7997
  139.8845  144.6421  150.8806 H   0  0  0  0  0  0  0  0  0  0  0  0  # atno 10167 bound_to 10162
  156.7978  130.5383  149.5726 H   0  0  0  0  0  0  0  0  0  0  0  0  # atno 10718 bound_to 10713
  153.0410  135.5130  154.7622 H   0  0  0  0  0  0  0  0  0  0  0  0  # atno 10763 bound_to 10752
  154.6559  135.2931  154.9930 H   0  0  0  0  0  0  0  0  0  0  0  0  # atno 10764 bound_to 10752
  154.0798  135.6665  153.4889 H   0  0  0  0  0  0  0  0  0  0  0  0  # atno 10765 bound_to 10752
  140.2563  134.3244  155.7873 H   0  0  0  0  0  0  0  0  0  0  0  0  # atno 11005 bound_to 11000
  145.1739  139.2389  143.5327 LP  0  0  0  0  0  0  0  0  0  0  0  0  # atno 17320 bound_to 7965
  146.3501  140.1497  142.8592 LP  0  0  0  0  0  0  0  0  0  0  0  0  # atno 17321 bound_to 7965
  140.7738  143.3559  151.1923 LP  0  0  0  0  0  0  0  0  0  0  0  0  # atno 17342 bound_to 10162
  139.7165  143.9291  152.2969 LP  0  0  0  0  0  0  0  0  0  0  0  0  # atno 17343 bound_to 10162
  156.1120  130.6047  151.0061 LP  0  0  0  0  0  0  0  0  0  0  0  0  # atno 17370 bound_to 10713
  157.6569  131.0888  150.7927 LP  0  0  0  0  0  0  0  0  0  0  0  0  # atno 17371 bound_to 10713
  141.2195  133.7383  156.9117 LP  0  0  0  0  0  0  0  0  0  0  0  0  # atno 17394 bound_to 11000
  140.1508  134.9231  157.2590 LP  0  0  0  0  0  0  0  0  0  0  0  0  # atno 17395 bound_to 11000

$$$$
