AV-unprocessed.smi:1897|AV-procd|sdf|7692|dock5
  -GOLD-   22720 9433D 1   1.00000     0.00000
 Structure written by MMmdl.
 38 40  0  0  0  0  0  0  0  0  3 V2000
  151.3876  132.3588  156.7288 C   0  0  0  0  0  0  0  0  0  0  0  0
  150.4601  133.4971  156.4748 C   0  0  0  0  0  0  0  0  0  0  0  0
  150.1845  134.4232  157.3961 N   0  0  0  0  0  0  0  0  0  0  0  0
  149.2965  135.3796  156.9266 N   0  0  0  0  0  0  0  0  0  0  0  0
  148.9024  135.1568  155.6649 C   0  0  0  0  0  0  0  0  0  0  0  0
  148.0327  135.9614  155.0260 N   0  5  0  0  0  0  0  0  0  0  0  0
  146.8542  135.5107  154.5225 C   0  0  0  0  0  0  0  0  0  0  0  0
  145.8853  135.2205  155.2229 O   0  0  0  0  0  0  0  0  0  0  0  0
  146.7535  135.3781  153.1868 N   0  0  0  0  0  0  0  0  0  0  0  0
  145.5791  134.9109  152.4607 C   0  0  2  0  0  0  0  0  0  0  0  0
  144.3317  135.7810  152.6736 C   0  0  0  0  0  0  0  0  0  0  0  0
  143.1501  134.7922  152.7239 C   0  0  0  0  0  0  0  0  0  0  0  0
  143.7141  133.4390  152.5071 N   0  3  1  0  0  0  0  0  0  0  0  0
  143.5431  132.9808  151.1009 C   0  0  0  0  0  0  0  0  0  0  0  0
  144.3288  131.6957  150.8110 C   0  0  0  0  0  0  0  0  0  0  0  0
  145.8166  131.9128  151.0971 C   0  0  0  0  0  0  0  0  0  0  0  0
  145.9983  132.3305  152.5600 C   0  0  0  0  0  0  0  0  0  0  0  0
  145.1224  133.5392  152.9603 C   0  0  1  0  0  0  0  0  0  0  0  0
  149.6338  133.7241  154.9426 S   0  0  0  0  0  0  0  0  0  0  0  0
  150.8703  131.5731  157.2792 H   0  0  0  0  0  0  0  0  0  0  0  0
  152.2449  132.6928  157.3139 H   0  0  0  0  0  0  0  0  0  0  0  0
  151.7490  131.9478  155.7861 H   0  0  0  0  0  0  0  0  0  0  0  0
  147.5645  135.6199  152.6364 H   0  0  0  0  0  0  0  0  0  0  0  0
  145.8035  134.8529  151.3941 H   0  0  0  0  0  0  0  0  0  0  0  0
  144.3902  136.3329  153.6132 H   0  0  0  0  0  0  0  0  0  0  0  0
  144.2200  136.5114  151.8717 H   0  0  0  0  0  0  0  0  0  0  0  0
  142.6911  134.8205  153.7127 H   0  0  0  0  0  0  0  0  0  0  0  0
  142.3722  135.0400  152.0005 H   0  0  0  0  0  0  0  0  0  0  0  0
  142.4823  132.8173  150.9079 H   0  0  0  0  0  0  0  0  0  0  0  0
  143.8672  133.7638  150.4134 H   0  0  0  0  0  0  0  0  0  0  0  0
  143.9450  130.8765  151.4208 H   0  0  0  0  0  0  0  0  0  0  0  0
  144.1893  131.4017  149.7703 H   0  0  0  0  0  0  0  0  0  0  0  0
  146.3770  130.9995  150.8957 H   0  0  0  0  0  0  0  0  0  0  0  0
  146.2190  132.6784  150.4328 H   0  0  0  0  0  0  0  0  0  0  0  0
  145.7350  131.4841  153.1955 H   0  0  0  0  0  0  0  0  0  0  0  0
  147.0487  132.5420  152.7632 H   0  0  0  0  0  0  0  0  0  0  0  0
  145.0952  133.5753  154.0515 H   0  0  0  0  0  0  0  0  0  0  0  0
  143.2320  132.7772  153.0984 H   0  0  0  0  0  0  0  0  0  0  0  0
  1  2  1  0  0  0  0
  1 20  1  0  0  0  0
  1 21  1  0  0  0  0
  1 22  1  0  0  0  0
  2 19  1  0  0  0  0
  2  3  2  0  0  0  0
  3  4  1  0  0  0  0
  4  5  2  0  0  0  0
  5  6  1  0  0  0  0
  5 19  1  0  0  0  0
  6  7  1  0  0  0  0
  7  8  2  0  0  0  0
  7  9  1  0  0  0  0
  9 10  1  0  0  0  0
  9 23  1  0  0  0  0
 10 18  1  0  0  0  0
 10 11  1  0  0  0  0
 10 24  1  0  0  0  0
 11 12  1  0  0  0  0
 11 25  1  0  0  0  0
 11 26  1  0  0  0  0
 12 13  1  0  0  0  0
 12 27  1  0  0  0  0
 12 28  1  0  0  0  0
 13 18  1  0  0  0  0
 13 14  1  0  0  0  0
 13 38  1  0  0  0  0
 14 15  1  0  0  0  0
 14 29  1  0  0  0  0
 14 30  1  0  0  0  0
 15 16  1  0  0  0  0
 15 31  1  0  0  0  0
 15 32  1  0  0  0  0
 16 17  1  0  0  0  0
 16 33  1  0  0  0  0
 16 34  1  0  0  0  0
 17 18  1  0  0  0  0
 17 35  1  0  0  0  0
 17 36  1  0  0  0  0
 18 37  1  0  0  0  0
M  CHG  1   6  -1
M  CHG  1  13   1
M  END
> <s_m_source_file>
AV-unprocessed.smi

> <i_m_source_file_index>
1897

> <i_lp_mmshare_version>
43012

> <i_f3d_flags>
0

> <s_epik_input>
W0NIM11jMW5uYyhzMSlbTkhdQyg9TylbTkhdW0NASF0oW0NIMl1bQ0gyXTIpW0NAQEhdKE4yMylbQ0gyXVtDSDJdW0NIMl1bQ0gyXTM=

> <s_epik_cmdline>
J2VwaWtfcHl0aG9uJywgJy1waCcsICc3LjAnLCAnLXRuJywgJzgnLCAnLW1hJywgJzIwMCcsICctbWV0YWxfYmluZGluZycsICctaW1hZScsICc8aW5maWxlLm1hZT4nLCAnLW9tYWUnLCAnPG91dGZpbGUubWFlPic=

> <r_lp_tautomer_probability>
1

> <r_epik_Ionization_Penalty>
3.77712

> <r_epik_Ionization_Penalty_Charging>
3.67739

> <r_epik_Ionization_Penalty_Neutral>
0.0997294

> <r_epik_State_Penalty>
3.67514

> <r_epik_Charging_Adjusted_Penalty>
7.35254

> <i_epik_Tot_Q>
0

> <i_epik_Tot_abs_Q>
2

> <r_epik_Metal_State_Penalty>
0.540795

> <b_epik_Metal_Only>
1

> <s_lp_Force_Field>
OPLS_2005

> <r_lp_Energy>
31.3184

> <b_lp_Chiralities_Consistent>
1

> <s_lp_Variant>
AV-unprocessed.smi:1897-9

> <Gold.Version>
5.8.1

> <Gold.Id.Protein>
6NUR|6NUR_protein|mol2

> <Gold.PLP.Fitness>
34.6968

> <Gold.PLP.PLP>
-25.8330

> <Gold.PLP.part.hbond>
-3.0000

> <Gold.PLP.part.metal>
0.0000

> <Gold.PLP.part.buried>
-5.1630

> <Gold.PLP.part.nonpolar>
-18.8738

> <Gold.PLP.part.repulsive>
0.1289

> <Gold.PLP.ligand.clash>
0.0000

> <Gold.PLP.ligand.torsion>
1.2497

> <Gold.PLP.Chemscore.Hbond>
3.7840

> <Gold.PLP.Chemscore.CHOScore>
0.0000

> <Gold.PLP.Chemscore.Metal>
0.0000

> <Gold.Chemscore.Hbonds>
donor molecule, donor type, donor heavy atom, donor atom, acceptor molecule, acceptor atom, score
      L1  H     9    23       P1  7948  1.00
      L1  H    13    38       P1 10957  2.00
      P1  H  6896  6907       L1     3  0.78

> <Gold.PLP.Chemscore.Internal.Correction>
0.0112

> <Gold.Rescore>
     Score         DG    S(hbond)    S(metal)    S(lipo)     H(rot)  DE(clash)    DE(int)     intcor
     15.14     -18.38       2.69        0.00      55.28       1.00       0.00       3.24       ----

> <Gold.Chemscore.Fitness>
15.1360

> <Gold.Chemscore.DG>
-18.3813

> <Gold.Chemscore.ZeroCoef>
-5.4800

> <Gold.Chemscore.Hbond>
2.6927

> <Gold.Chemscore.Metal>
0.0000

> <Gold.Chemscore.Lipo>
55.2780

> <Gold.Chemscore.Internal_Hbond>
0.0000

> <Gold.Chemscore.DEClash>
0.0009

> <Gold.Chemscore.DEInternal>
3.2443

> <Gold.Chemscore.Rot>
1.0000

> <Gold.Chemscore.Internal.Correction>
   9.000000E+99

> <Gold.Chemscore.Hbonds>
donor molecule, donor type, donor heavy atom, donor atom, acceptor molecule, acceptor atom, score
      L1  H     9    23       P1  7948  1.00
      L1  H    13    38       P1 10957  0.32
      P1  H  6896  6907       L1     3  0.70

> <Gold.Chemscore.Hbond.Weighted>
-8.9937

> <Gold.Chemscore.Metal.Weighted>
-0.0000

> <Gold.Chemscore.Lipo.Weighted>
-6.4675

> <Gold.Chemscore.Internal_Hbond.Weighted>
0.0000

> <Gold.Chemscore.DEClash.Weighted>
0.0009

> <Gold.Chemscore.DEInternal.Weighted>
3.2443

> <Gold.Chemscore.Rot.Weighted>
2.5600

> <Gold.Chemscore.Internal.Correction.Weighted>
   9.000000E+99

> <Gold.Protein.RotatedTorsions>
[ 6907 6896 6895 6894 ] final -103.39 input  -60.11 | X-H torsion
[ 7974 7965 7964 7962 ] final   22.53 input  175.53 | X-H torsion
[ 8008 7997 7996 7995 ] final -120.58 input   59.86 | X-H torsion
[ 10167 10162 10161 10158 ] final  -74.75 input  -65.29 | X-H torsion
[ 10718 10713 10712 10709 ] final  -86.38 input   66.30 | X-H torsion
[ 10763 10752 10751 10750 ] final   12.82 input  -60.55 | X-H torsion
[ 11005 11000 10999 10996 ] final   -7.45 input  -57.11 | X-H torsion

> <Gold.Protein.ActiveResidues>
 VAL166  LYS551  ARG553  GLY616  TRP617  ASP618  TYR619  PRO620  LYS621  CYS622 
 ASP623  PHE694  ASN695  SER759  ASP760  ASP761  ALA762  ILE779  LEU786  VAL792 
 PHE793  MET794  SER795  GLU796  ALA797  LYS798  CYS799  TRP800  GLU811  SER814 

> <Gold.Protein.RotatedAtoms>
  150.7238  134.0436  159.3773 H   0  0  0  0  0  0  0  0  0  0  0  0  # atno 6907 bound_to 6896
  151.8410  135.0588  160.0457 H   0  0  0  0  0  0  0  0  0  0  0  0  # atno 6908 bound_to 6896
  152.2862  133.5481  159.5565 H   0  0  0  0  0  0  0  0  0  0  0  0  # atno 6909 bound_to 6896
  146.2025  139.7873  142.8751 H   0  0  0  0  0  0  0  0  0  0  0  0  # atno 7974 bound_to 7965
  155.1341  140.0400  157.2782 H   0  0  0  0  0  0  0  0  0  0  0  0  # atno 8008 bound_to 7997
  154.6521  140.2571  155.7176 H   0  0  0  0  0  0  0  0  0  0  0  0  # atno 8009 bound_to 7997
  156.2582  140.2834  156.0959 H   0  0  0  0  0  0  0  0  0  0  0  0  # atno 8010 bound_to 7997
  140.5001  143.2363  151.7767 H   0  0  0  0  0  0  0  0  0  0  0  0  # atno 10167 bound_to 10162
  155.9990  130.4763  150.4706 H   0  0  0  0  0  0  0  0  0  0  0  0  # atno 10718 bound_to 10713
  153.1783  135.6823  153.8513 H   0  0  0  0  0  0  0  0  0  0  0  0  # atno 10763 bound_to 10752
  153.7853  135.3176  155.3372 H   0  0  0  0  0  0  0  0  0  0  0  0  # atno 10764 bound_to 10752
  154.8043  135.4758  154.0448 H   0  0  0  0  0  0  0  0  0  0  0  0  # atno 10765 bound_to 10752
  140.7129  133.8893  155.8764 H   0  0  0  0  0  0  0  0  0  0  0  0  # atno 11005 bound_to 11000
  145.3435  141.0293  143.3379 LP  0  0  0  0  0  0  0  0  0  0  0  0  # atno 17320 bound_to 7965
  144.8715  139.5031  143.6765 LP  0  0  0  0  0  0  0  0  0  0  0  0  # atno 17321 bound_to 7965
  139.4870  144.4534  151.9627 LP  0  0  0  0  0  0  0  0  0  0  0  0  # atno 17342 bound_to 10162
  140.3623  144.2958  150.5931 LP  0  0  0  0  0  0  0  0  0  0  0  0  # atno 17343 bound_to 10162
  157.2722  131.0589  151.2252 LP  0  0  0  0  0  0  0  0  0  0  0  0  # atno 17370 bound_to 10713
  157.3329  130.6994  149.6335 LP  0  0  0  0  0  0  0  0  0  0  0  0  # atno 17371 bound_to 10713
  141.0069  134.1074  157.4261 LP  0  0  0  0  0  0  0  0  0  0  0  0  # atno 17394 bound_to 11000
  139.8867  135.0083  156.6514 LP  0  0  0  0  0  0  0  0  0  0  0  0  # atno 17395 bound_to 11000

$$$$
