AV-unprocessed.smi:196|AV-procd|sdf|1539|dock4
  -GOLD-   2262019393D 1   1.00000     0.00000
 Structure written by MMmdl.
 47 50  0  0  0  0  0  0  0  0  1 V2000
  151.4763  140.4008  157.2697 C   0  0  0  0  0  0  0  0  0  0  0  0
  151.6517  140.0316  155.7884 C   0  0  1  0  0  0  0  0  0  0  0  0
  152.8942  139.3461  155.6574 O   0  0  0  0  0  0  0  0  0  0  0  0
  152.8006  138.4294  154.5818 C   0  0  0  0  0  0  0  0  0  0  0  0
  151.3986  137.8656  154.7547 C   0  0  0  0  0  0  0  0  0  0  0  0
  150.5825  139.0886  155.1672 C   0  0  2  0  0  0  0  0  0  0  0  0
  150.1016  139.7046  153.9844 O   0  0  0  0  0  0  0  0  0  0  0  0
  149.3615  138.7471  156.0619 C   0  0  0  0  0  0  0  0  0  0  0  0
  148.5696  137.6347  155.5595 N   0  0  0  0  0  0  0  0  0  0  0  0
  148.6292  136.3242  155.9783 C   0  0  0  0  0  0  0  0  0  0  0  0
  147.8197  135.5047  155.3645 N   0  0  0  0  0  0  0  0  0  0  0  0
  147.1419  136.3150  154.4628 C   0  0  0  0  0  0  0  0  0  0  0  0
  146.1301  136.0779  153.4947 C   0  0  0  0  0  0  0  0  0  0  0  0
  145.6424  134.8262  153.2805 N   0  0  0  0  0  0  0  0  0  0  0  0
  146.0851  134.3007  151.9937 C   0  0  0  0  0  0  0  0  0  0  0  0
  144.9204  134.5198  151.0147 C   0  0  2  0  0  0  0  0  0  0  0  0
  145.1729  135.5428  150.1974 F   0  0  0  0  0  0  0  0  0  0  0  0
  143.7064  134.8351  151.8989 C   0  0  0  0  0  0  0  0  0  0  0  0
  144.2020  134.5347  153.3239 C   0  0  2  0  0  0  0  0  0  0  0  0
  143.3799  135.1669  154.4672 C   0  0  0  0  0  0  0  0  0  0  0  0
  142.6849  134.3344  155.2464 N   0  0  0  0  0  0  0  0  0  0  0  0
  143.4026  136.3783  154.6788 O   0  0  0  0  0  0  0  0  0  0  0  0
  145.7018  137.1401  152.7606 N   0  0  0  0  0  0  0  0  0  0  0  0
  146.2123  138.3559  152.9761 C   0  0  0  0  0  0  0  0  0  0  0  0
  147.1514  138.7242  153.8500 N   0  0  0  0  0  0  0  0  0  0  0  0
  147.5961  137.6586  154.5758 C   0  0  0  0  0  0  0  0  0  0  0  0
  144.7585  133.6408  150.3901 H   0  0  0  0  0  0  0  0  0  0  0  0
  144.1267  133.4574  153.4838 H   0  0  0  0  0  0  0  0  0  0  0  0
  150.5436  140.9389  157.4390 H   0  0  0  0  0  0  0  0  0  0  0  0
  152.2888  141.0472  157.6017 H   0  0  0  0  0  0  0  0  0  0  0  0
  151.4828  139.5166  157.9074 H   0  0  0  0  0  0  0  0  0  0  0  0
  151.7239  140.9556  155.2114 H   0  0  0  0  0  0  0  0  0  0  0  0
  152.8999  138.9587  153.6330 H   0  0  0  0  0  0  0  0  0  0  0  0
  153.5743  137.6634  154.6357 H   0  0  0  0  0  0  0  0  0  0  0  0
  151.0237  137.3639  153.8613 H   0  0  0  0  0  0  0  0  0  0  0  0
  151.4143  137.1346  155.5640 H   0  0  0  0  0  0  0  0  0  0  0  0
  150.1538  139.0797  153.2773 H   0  0  0  0  0  0  0  0  0  0  0  0
  149.6874  138.4866  157.0690 H   0  0  0  0  0  0  0  0  0  0  0  0
  148.7074  139.6142  156.1628 H   0  0  0  0  0  0  0  0  0  0  0  0
  149.3019  135.9908  156.7551 H   0  0  0  0  0  0  0  0  0  0  0  0
  147.0125  134.7487  151.6298 H   0  0  0  0  0  0  0  0  0  0  0  0
  146.2793  133.2341  152.1152 H   0  0  0  0  0  0  0  0  0  0  0  0
  143.4168  135.8820  151.7947 H   0  0  0  0  0  0  0  0  0  0  0  0
  142.8415  134.2276  151.6309 H   0  0  0  0  0  0  0  0  0  0  0  0
  142.1349  134.6993  156.0101 H   0  0  0  0  0  0  0  0  0  0  0  0
  142.7165  133.3408  155.0697 H   0  0  0  0  0  0  0  0  0  0  0  0
  145.8130  139.1465  152.3582 H   0  0  0  0  0  0  0  0  0  0  0  0
  1  2  1  0  0  0  0
  1 29  1  0  0  0  0
  1 30  1  0  0  0  0
  1 31  1  0  0  0  0
  2  6  1  0  0  0  0
  2  3  1  0  0  0  0
  2 32  1  0  0  0  0
  3  4  1  0  0  0  0
  4  5  1  0  0  0  0
  4 33  1  0  0  0  0
  4 34  1  0  0  0  0
  5  6  1  0  0  0  0
  5 35  1  0  0  0  0
  5 36  1  0  0  0  0
  6  7  1  0  0  0  0
  6  8  1  0  0  0  0
  7 37  1  0  0  0  0
  8  9  1  0  0  0  0
  8 38  1  0  0  0  0
  8 39  1  0  0  0  0
  9 26  1  0  0  0  0
  9 10  1  0  0  0  0
 10 11  2  0  0  0  0
 10 40  1  0  0  0  0
 11 12  1  0  0  0  0
 12 26  2  0  0  0  0
 12 13  1  0  0  0  0
 13 14  1  0  0  0  0
 13 23  2  0  0  0  0
 14 19  1  0  0  0  0
 14 15  1  0  0  0  0
 15 16  1  0  0  0  0
 15 41  1  0  0  0  0
 15 42  1  0  0  0  0
 16 27  1  0  0  0  0
 16 17  1  0  0  0  0
 16 18  1  0  0  0  0
 18 19  1  0  0  0  0
 18 43  1  0  0  0  0
 18 44  1  0  0  0  0
 19 28  1  0  0  0  0
 19 20  1  0  0  0  0
 20 21  1  0  0  0  0
 20 22  2  0  0  0  0
 21 45  1  0  0  0  0
 21 46  1  0  0  0  0
 23 24  1  0  0  0  0
 24 25  2  0  0  0  0
 24 47  1  0  0  0  0
 25 26  1  0  0  0  0
M  END
> <s_m_source_file>
AV-unprocessed.smi

> <i_m_source_file_index>
196

> <i_lp_mmshare_version>
43012

> <i_f3d_flags>
0

> <s_epik_input>
W0NIMl0xW0NIMl1PW0NAQEhdKFtDSDNdKVtDQEBdMShbT0hdKVtDSDJdbihbY0hdbjIpYyhjMjMpbltjSF1uYzNONFtDSDJdW0NASF0oRilbQ0gyXVtDQEhdNEMoPU8pW05IMl0=

> <s_epik_cmdline>
J2VwaWtfcHl0aG9uJywgJy1waCcsICc3LjAnLCAnLXRuJywgJzgnLCAnLW1hJywgJzIwMCcsICctbWV0YWxfYmluZGluZycsICctaW1hZScsICc8aW5maWxlLm1hZT4nLCAnLW9tYWUnLCAnPG91dGZpbGUubWFlPic=

> <r_lp_tautomer_probability>
1

> <r_epik_Ionization_Penalty>
0.000857933

> <r_epik_Ionization_Penalty_Charging>
0

> <r_epik_Ionization_Penalty_Neutral>
0.000857933

> <r_epik_State_Penalty>
0.000462053

> <r_epik_Charging_Adjusted_Penalty>
0.000462053

> <i_epik_Tot_Q>
0

> <i_epik_Tot_abs_Q>
0

> <r_epik_Metal_State_Penalty>
-0

> <b_epik_Metal_Only>
0

> <s_lp_Force_Field>
OPLS_2005

> <r_lp_Energy>
50.8061

> <b_lp_Chiralities_Consistent>
1

> <s_lp_Variant>
AV-unprocessed.smi:196-12

> <Gold.Version>
5.8.1

> <Gold.Id.Protein>
6NUR|6NUR_protein|mol2

> <Gold.PLP.Fitness>
44.2015

> <Gold.PLP.PLP>
-31.4837

> <Gold.PLP.part.hbond>
-5.0000

> <Gold.PLP.part.metal>
0.0000

> <Gold.PLP.part.buried>
-2.1189

> <Gold.PLP.part.nonpolar>
-25.4283

> <Gold.PLP.part.repulsive>
0.5825

> <Gold.PLP.ligand.clash>
0.0000

> <Gold.PLP.ligand.torsion>
0.6730

> <Gold.PLP.Chemscore.Hbond>
3.6456

> <Gold.PLP.Chemscore.CHOScore>
1.0000

> <Gold.PLP.Chemscore.Metal>
0.0000

> <Gold.Chemscore.Hbonds>
donor molecule, donor type, donor heavy atom, donor atom, acceptor molecule, acceptor atom, score
      L1  H     7    37       P1  7957  0.04
      L1  H    21    45       P1 11000  0.53
      L1  H    21    46       P1 10957  1.00
      P1  H  7989  7998       L1     7  0.94
      P1  H  7997  8009       L1     3  1.00
      L1  C    24    47       P1 10175  1.00

> <Gold.PLP.Chemscore.Internal.Correction>
0.1270

> <Gold.Rescore>
     Score         DG    S(hbond)    S(metal)    S(lipo)     H(rot)  DE(clash)    DE(int)     intcor
     10.10     -12.89       2.58        0.00      56.19       3.04       0.64       2.15       ----

> <Gold.Chemscore.Fitness>
10.1017

> <Gold.Chemscore.DG>
-12.8909

> <Gold.Chemscore.ZeroCoef>
-5.4800

> <Gold.Chemscore.Hbond>
2.5815

> <Gold.Chemscore.Metal>
0.0000

> <Gold.Chemscore.Lipo>
56.1911

> <Gold.Chemscore.Internal_Hbond>
0.0000

> <Gold.Chemscore.DEClash>
0.6436

> <Gold.Chemscore.DEInternal>
2.1456

> <Gold.Chemscore.Rot>
3.0413

> <Gold.Chemscore.Internal.Correction>
   9.000000E+99

> <Gold.Chemscore.Hbonds>
donor molecule, donor type, donor heavy atom, donor atom, acceptor molecule, acceptor atom, score
      L1  H     7    37       P1  7957  0.04
      L1  H    21    45       P1 11000  0.11
      L1  H    21    46       P1 10957  0.98
      P1  H  7989  7998       L1     7  0.07
      P1  H  7997  8009       L1     3  0.96

> <Gold.Chemscore.Hbond.Weighted>
-8.6221

> <Gold.Chemscore.Metal.Weighted>
-0.0000

> <Gold.Chemscore.Lipo.Weighted>
-6.5744

> <Gold.Chemscore.Internal_Hbond.Weighted>
0.0000

> <Gold.Chemscore.DEClash.Weighted>
0.6436

> <Gold.Chemscore.DEInternal.Weighted>
2.1456

> <Gold.Chemscore.Rot.Weighted>
7.7856

> <Gold.Chemscore.Internal.Correction.Weighted>
   9.000000E+99

> <Gold.Protein.RotatedTorsions>
[ 6907 6896 6895 6894 ] final -145.70 input  -60.11 | X-H torsion
[ 7974 7965 7964 7962 ] final  -46.63 input  175.53 | X-H torsion
[ 8008 7997 7996 7995 ] final -141.39 input   59.86 | X-H torsion
[ 10167 10162 10161 10158 ] final  -31.72 input  -65.29 | X-H torsion
[ 10718 10713 10712 10709 ] final   61.58 input   66.30 | X-H torsion
[ 10763 10752 10751 10750 ] final  -28.01 input  -60.55 | X-H torsion
[ 11005 11000 10999 10996 ] final  125.42 input  -57.11 | X-H torsion

> <Gold.Protein.ActiveResidues>
 VAL166  LYS551  ARG553  GLY616  TRP617  ASP618  TYR619  PRO620  LYS621  CYS622 
 ASP623  PHE694  ASN695  SER759  ASP760  ASP761  ALA762  ILE779  LEU786  VAL792 
 PHE793  MET794  SER795  GLU796  ALA797  LYS798  CYS799  TRP800  GLU811  SER814 

> <Gold.Protein.RotatedAtoms>
  151.1314  133.5034  159.2598 H   0  0  0  0  0  0  0  0  0  0  0  0  # atno 6907 bound_to 6896
  151.1753  135.0336  159.8779 H   0  0  0  0  0  0  0  0  0  0  0  0  # atno 6908 bound_to 6896
  152.5460  134.1173  159.8437 H   0  0  0  0  0  0  0  0  0  0  0  0  # atno 6909 bound_to 6896
  145.9700  140.7393  142.9415 H   0  0  0  0  0  0  0  0  0  0  0  0  # atno 7974 bound_to 7965
  155.4770  140.0557  157.2972 H   0  0  0  0  0  0  0  0  0  0  0  0  # atno 8008 bound_to 7997
  154.4675  140.2025  156.0032 H   0  0  0  0  0  0  0  0  0  0  0  0  # atno 8009 bound_to 7997
  156.1000  140.3220  155.7933 H   0  0  0  0  0  0  0  0  0  0  0  0  # atno 8010 bound_to 7997
  140.7232  143.3749  151.1708 H   0  0  0  0  0  0  0  0  0  0  0  0  # atno 10167 bound_to 10162
  157.5838  130.9002  149.9479 H   0  0  0  0  0  0  0  0  0  0  0  0  # atno 10718 bound_to 10713
  153.7413  135.6932  153.4966 H   0  0  0  0  0  0  0  0  0  0  0  0  # atno 10763 bound_to 10752
  153.2067  135.4417  155.0330 H   0  0  0  0  0  0  0  0  0  0  0  0  # atno 10764 bound_to 10752
  154.8219  135.3426  154.6939 H   0  0  0  0  0  0  0  0  0  0  0  0  # atno 10765 bound_to 10752
  139.9406  134.9636  156.8556 H   0  0  0  0  0  0  0  0  0  0  0  0  # atno 11005 bound_to 11000
  144.6834  140.2732  143.7303 LP  0  0  0  0  0  0  0  0  0  0  0  0  # atno 17320 bound_to 7965
  145.7920  139.1930  143.2097 LP  0  0  0  0  0  0  0  0  0  0  0  0  # atno 17321 bound_to 7965
  139.7327  143.9046  152.3025 LP  0  0  0  0  0  0  0  0  0  0  0  0  # atno 17342 bound_to 10162
  139.8841  144.7001  150.8844 LP  0  0  0  0  0  0  0  0  0  0  0  0  # atno 17343 bound_to 10162
  156.0886  130.3665  150.0440 LP  0  0  0  0  0  0  0  0  0  0  0  0  # atno 17370 bound_to 10713
  156.8574  130.9480  151.3621 LP  0  0  0  0  0  0  0  0  0  0  0  0  # atno 17371 bound_to 10713
  140.5962  134.0215  155.7519 LP  0  0  0  0  0  0  0  0  0  0  0  0  # atno 17394 bound_to 11000
  141.1038  133.9725  157.3032 LP  0  0  0  0  0  0  0  0  0  0  0  0  # atno 17395 bound_to 11000

$$$$
