AV-unprocessed.smi:1652|AV-procd|sdf|6639|dock3
  -GOLD-   22720 7343D 1   1.00000     0.00000
 Structure written by MMmdl.
 38 40  0  0  0  0  0  0  0  0  1 V2000
  153.2854  141.9750  160.8501 O   0  0  0  0  0  0  0  0  0  0  0  0
  152.8717  141.6487  159.7371 C   0  0  0  0  0  0  0  0  0  0  0  0
  151.9706  142.4860  158.9303 C   0  0  0  0  0  0  0  0  0  0  0  0
  151.5301  143.8278  159.5098 C   0  0  0  0  0  0  0  0  0  0  0  0
  151.6314  143.8482  160.8395 F   0  0  0  0  0  0  0  0  0  0  0  0
  152.2830  144.8179  159.0292 F   0  0  0  0  0  0  0  0  0  0  0  0
  150.2592  144.0791  159.1936 F   0  0  0  0  0  0  0  0  0  0  0  0
  151.5523  142.0585  157.7141 C   0  0  0  0  0  0  0  0  0  0  0  0
  151.9883  140.7760  157.1997 C   0  0  0  0  0  0  0  0  0  0  0  0
  151.5565  140.2366  155.8660 C   0  0  0  0  0  0  0  0  0  0  0  0
  150.8067  138.9311  155.7287 C   0  0  0  0  0  0  0  0  0  0  0  0
  152.2322  139.0396  155.2385 C   0  0  0  0  0  0  0  0  0  0  0  0
  152.7838  140.0458  157.9060 N   0  0  0  0  0  0  0  0  0  0  0  0
  153.2184  140.4663  159.1485 N   0  0  0  0  0  0  0  0  0  0  0  0
  154.0979  139.5051  159.8263 C   0  0  0  0  0  0  0  0  0  0  0  0
  153.6094  138.0502  159.6547 C   0  0  2  0  0  0  0  0  0  0  0  0
  152.2088  138.0525  159.4596 O   0  0  0  0  0  0  0  0  0  0  0  0
  153.9976  137.2015  160.8565 C   0  0  0  0  0  0  0  0  0  0  0  0
  153.6319  137.6131  162.1564 C   0  0  0  0  0  0  0  0  0  0  0  0
  153.9784  136.8287  163.2738 C   0  0  0  0  0  0  0  0  0  0  0  0
  154.6909  135.6269  163.0982 C   0  0  0  0  0  0  0  0  0  0  0  0
  155.0233  134.8730  164.1727 F   0  0  0  0  0  0  0  0  0  0  0  0
  155.0555  135.2089  161.8041 C   0  0  0  0  0  0  0  0  0  0  0  0
  154.7084  135.9923  160.6862 C   0  0  0  0  0  0  0  0  0  0  0  0
  150.8917  142.6595  157.1076 H   0  0  0  0  0  0  0  0  0  0  0  0
  151.2618  141.0457  155.2001 H   0  0  0  0  0  0  0  0  0  0  0  0
  150.6341  138.3366  156.6241 H   0  0  0  0  0  0  0  0  0  0  0  0
  150.0196  138.8825  154.9791 H   0  0  0  0  0  0  0  0  0  0  0  0
  152.3936  139.0610  154.1625 H   0  0  0  0  0  0  0  0  0  0  0  0
  152.9997  138.5258  155.8147 H   0  0  0  0  0  0  0  0  0  0  0  0
  155.0863  139.6004  159.3723 H   0  0  0  0  0  0  0  0  0  0  0  0
  154.2536  139.7458  160.8797 H   0  0  0  0  0  0  0  0  0  0  0  0
  154.0638  137.6098  158.7660 H   0  0  0  0  0  0  0  0  0  0  0  0
  151.9989  138.6930  158.7974 H   0  0  0  0  0  0  0  0  0  0  0  0
  153.0815  138.5311  162.3021 H   0  0  0  0  0  0  0  0  0  0  0  0
  153.6959  137.1487  164.2659 H   0  0  0  0  0  0  0  0  0  0  0  0
  155.6002  134.2861  161.6681 H   0  0  0  0  0  0  0  0  0  0  0  0
  154.9872  135.6608  159.6966 H   0  0  0  0  0  0  0  0  0  0  0  0
  1  2  2  0  0  0  0
  2 14  1  0  0  0  0
  2  3  1  0  0  0  0
  3  4  1  0  0  0  0
  3  8  2  0  0  0  0
  4  5  1  0  0  0  0
  4  6  1  0  0  0  0
  4  7  1  0  0  0  0
  8  9  1  0  0  0  0
  8 25  1  0  0  0  0
  9 10  1  0  0  0  0
  9 13  2  0  0  0  0
 10 12  1  0  0  0  0
 10 11  1  0  0  0  0
 10 26  1  0  0  0  0
 11 12  1  0  0  0  0
 11 27  1  0  0  0  0
 11 28  1  0  0  0  0
 12 29  1  0  0  0  0
 12 30  1  0  0  0  0
 13 14  1  0  0  0  0
 14 15  1  0  0  0  0
 15 16  1  0  0  0  0
 15 31  1  0  0  0  0
 15 32  1  0  0  0  0
 16 17  1  0  0  0  0
 16 18  1  0  0  0  0
 16 33  1  0  0  0  0
 17 34  1  0  0  0  0
 18 24  1  0  0  0  0
 18 19  2  0  0  0  0
 19 20  1  0  0  0  0
 19 35  1  0  0  0  0
 20 21  2  0  0  0  0
 20 36  1  0  0  0  0
 21 22  1  0  0  0  0
 21 23  1  0  0  0  0
 23 24  2  0  0  0  0
 23 37  1  0  0  0  0
 24 38  1  0  0  0  0
M  END
> <s_m_source_file>
AV-unprocessed.smi

> <i_m_source_file_index>
1652

> <i_lp_mmshare_version>
43012

> <i_f3d_flags>
0

> <s_epik_input>
Tz1jMWMoQyhGKShGKUYpW2NIXWMoW0NIXTJbQ0gyXVtDSDJdMilubjFbQ0gyXVtDQEhdKFtPSF0pYzNbY0hdW2NIXWMoRilbY0hdW2NIXTM=

> <s_epik_cmdline>
J2VwaWtfcHl0aG9uJywgJy1waCcsICc3LjAnLCAnLXRuJywgJzgnLCAnLW1hJywgJzIwMCcsICctbWV0YWxfYmluZGluZycsICctaW1hZScsICc8aW5maWxlLm1hZT4nLCAnLW9tYWUnLCAnPG91dGZpbGUubWFlPic=

> <r_lp_tautomer_probability>
1

> <r_epik_Ionization_Penalty>
9.17026e-08

> <r_epik_Ionization_Penalty_Charging>
9.677e-10

> <r_epik_Ionization_Penalty_Neutral>
9.07349e-08

> <r_epik_State_Penalty>
-0

> <r_epik_Charging_Adjusted_Penalty>
9.677e-10

> <i_epik_Tot_Q>
0

> <i_epik_Tot_abs_Q>
0

> <r_epik_Metal_State_Penalty>
-0

> <b_epik_Metal_Only>
0

> <s_lp_Force_Field>
OPLS_2005

> <r_lp_Energy>
34.1346

> <b_lp_Chiralities_Consistent>
1

> <s_lp_Variant>
AV-unprocessed.smi:1652-1

> <Gold.Version>
5.8.1

> <Gold.Id.Protein>
6NUR|6NUR_protein|mol2

> <Gold.PLP.Fitness>
49.9451

> <Gold.PLP.PLP>
-50.0291

> <Gold.PLP.part.hbond>
-1.0000

> <Gold.PLP.part.metal>
0.0000

> <Gold.PLP.part.buried>
-7.1277

> <Gold.PLP.part.nonpolar>
-41.3288

> <Gold.PLP.part.repulsive>
0.0000

> <Gold.PLP.ligand.clash>
0.0440

> <Gold.PLP.ligand.torsion>
1.8575

> <Gold.PLP.Chemscore.Hbond>
1.0000

> <Gold.PLP.Chemscore.CHOScore>
0.0000

> <Gold.PLP.Chemscore.Metal>
0.0000

> <Gold.Chemscore.Hbonds>
donor molecule, donor type, donor heavy atom, donor atom, acceptor molecule, acceptor atom, score
      P1  H  7997  8009       L1    13  0.95

> <Gold.PLP.Chemscore.Internal.Correction>
0.6751

> <Gold.Rescore>
     Score         DG    S(hbond)    S(metal)    S(lipo)     H(rot)  DE(clash)    DE(int)     intcor
      9.96     -13.14       0.16        0.00     109.21       2.20       0.12       3.07       ----

> <Gold.Chemscore.Fitness>
9.9606

> <Gold.Chemscore.DG>
-13.1435

> <Gold.Chemscore.ZeroCoef>
-5.4800

> <Gold.Chemscore.Hbond>
0.1552

> <Gold.Chemscore.Metal>
0.0000

> <Gold.Chemscore.Lipo>
109.2145

> <Gold.Chemscore.Internal_Hbond>
0.0000

> <Gold.Chemscore.DEClash>
0.1169

> <Gold.Chemscore.DEInternal>
3.0660

> <Gold.Chemscore.Rot>
2.2003

> <Gold.Chemscore.Internal.Correction>
   9.000000E+99

> <Gold.Chemscore.Hbonds>
donor molecule, donor type, donor heavy atom, donor atom, acceptor molecule, acceptor atom, score
      P1  H  7997  8009       L1    13  0.10

> <Gold.Chemscore.Hbond.Weighted>
-0.5182

> <Gold.Chemscore.Metal.Weighted>
-0.0000

> <Gold.Chemscore.Lipo.Weighted>
-12.7781

> <Gold.Chemscore.Internal_Hbond.Weighted>
0.0000

> <Gold.Chemscore.DEClash.Weighted>
0.1169

> <Gold.Chemscore.DEInternal.Weighted>
3.0660

> <Gold.Chemscore.Rot.Weighted>
5.6328

> <Gold.Chemscore.Internal.Correction.Weighted>
   9.000000E+99

> <Gold.Protein.RotatedTorsions>
[ 6907 6896 6895 6894 ] final   29.29 input  -60.11 | X-H torsion
[ 7974 7965 7964 7962 ] final -103.46 input  175.53 | X-H torsion
[ 8008 7997 7996 7995 ] final  161.04 input   59.86 | X-H torsion
[ 10167 10162 10161 10158 ] final -165.25 input  -65.29 | X-H torsion
[ 10718 10713 10712 10709 ] final   25.60 input   66.30 | X-H torsion
[ 10763 10752 10751 10750 ] final  -41.28 input  -60.55 | X-H torsion
[ 11005 11000 10999 10996 ] final -163.30 input  -57.11 | X-H torsion

> <Gold.Protein.ActiveResidues>
 VAL166  LYS551  ARG553  GLY616  TRP617  ASP618  TYR619  PRO620  LYS621  CYS622 
 ASP623  PHE694  ASN695  SER759  ASP760  ASP761  ALA762  ILE779  LEU786  VAL792 
 PHE793  MET794  SER795  GLU796  ALA797  LYS798  CYS799  TRP800  GLU811  SER814 

> <Gold.Protein.RotatedAtoms>
  152.0294  134.9776  160.0572 H   0  0  0  0  0  0  0  0  0  0  0  0  # atno 6907 bound_to 6896
  152.1259  133.4375  159.4706 H   0  0  0  0  0  0  0  0  0  0  0  0  # atno 6908 bound_to 6896
  150.6852  134.2397  159.4511 H   0  0  0  0  0  0  0  0  0  0  0  0  # atno 6909 bound_to 6896
  145.2557  140.9253  143.3070 H   0  0  0  0  0  0  0  0  0  0  0  0  # atno 7974 bound_to 7965
  156.2131  140.1788  156.7650 H   0  0  0  0  0  0  0  0  0  0  0  0  # atno 8008 bound_to 7997
  154.5751  140.0675  156.9052 H   0  0  0  0  0  0  0  0  0  0  0  0  # atno 8009 bound_to 7997
  155.2602  140.3335  155.4276 H   0  0  0  0  0  0  0  0  0  0  0  0  # atno 8010 bound_to 7997
  139.6195  144.0653  152.1919 H   0  0  0  0  0  0  0  0  0  0  0  0  # atno 10167 bound_to 10162
  157.1956  130.6866  149.6167 H   0  0  0  0  0  0  0  0  0  0  0  0  # atno 10718 bound_to 10713
  153.9598  135.6741  153.4745 H   0  0  0  0  0  0  0  0  0  0  0  0  # atno 10763 bound_to 10752
  153.0843  135.4907  154.8563 H   0  0  0  0  0  0  0  0  0  0  0  0  # atno 10764 bound_to 10752
  154.7279  135.3131  154.8900 H   0  0  0  0  0  0  0  0  0  0  0  0  # atno 10765 bound_to 10752
  140.5996  134.4961  157.5203 H   0  0  0  0  0  0  0  0  0  0  0  0  # atno 11005 bound_to 11000
  144.9463  139.4132  143.6424 LP  0  0  0  0  0  0  0  0  0  0  0  0  # atno 17320 bound_to 7965
  146.3290  139.8448  142.8884 LP  0  0  0  0  0  0  0  0  0  0  0  0  # atno 17321 bound_to 7965
  140.0291  144.6094  150.7502 LP  0  0  0  0  0  0  0  0  0  0  0  0  # atno 17342 bound_to 10162
  140.7373  143.2763  151.3731 LP  0  0  0  0  0  0  0  0  0  0  0  0  # atno 17343 bound_to 10162
  155.9706  130.4600  150.6057 LP  0  0  0  0  0  0  0  0  0  0  0  0  # atno 17370 bound_to 10713
  157.3818  131.0782  151.1470 LP  0  0  0  0  0  0  0  0  0  0  0  0  # atno 17371 bound_to 10713
  139.9238  134.8096  156.1130 LP  0  0  0  0  0  0  0  0  0  0  0  0  # atno 17394 bound_to 11000
  141.0881  133.6726  156.2480 LP  0  0  0  0  0  0  0  0  0  0  0  0  # atno 17395 bound_to 11000

$$$$
