AV-unprocessed.smi:2252|AV-procd|sdf|9110|dock5
  -GOLD-   2272012313D 1   1.00000     0.00000
 Structure written by MMmdl.
 45 47  0  0  0  0  0  0  0  0  4 V2000
  152.5981  142.9716  161.1326 C   0  0  0  0  0  0  0  0  0  0  0  0
  152.2296  143.4409  159.7962 N   0  0  0  0  0  0  0  0  0  0  0  0
  152.0111  144.7431  159.4256 C   0  0  0  0  0  0  0  0  0  0  0  0
  151.7110  144.7270  158.0891 C   0  0  0  0  0  0  0  0  0  0  0  0
  151.7590  143.4170  157.6990 N   0  3  0  0  0  0  0  0  0  0  0  0
  152.0654  142.6266  158.7381 C   0  0  0  0  0  0  0  0  0  0  0  0
  152.2092  141.1271  158.6908 C   0  0  0  0  0  0  0  0  0  0  0  0
  151.8079  140.4699  157.3515 C   0  0  0  0  0  0  0  0  0  0  0  0
  150.4388  139.9561  157.3953 N   0  5  0  0  0  0  0  0  0  0  0  0
  149.8125  139.3676  156.3354 C   0  0  0  0  0  0  0  0  0  0  0  0
  148.9217  138.5131  156.3136 O   0  0  0  0  0  0  0  0  0  0  0  0
  150.3558  139.8838  154.9869 C   0  0  1  0  0  0  0  0  0  0  0  0
  151.2400  138.8054  154.3190 C   0  0  0  0  0  0  0  0  0  0  0  0
  151.2334  137.3774  154.8219 C   0  0  0  0  0  0  0  0  0  0  0  0
  152.4524  138.2373  155.0264 C   0  0  0  0  0  0  0  0  0  0  0  0
  149.2694  140.3560  154.0791 N   0  3  0  0  0  0  0  0  0  0  0  0
  148.1966  139.3767  153.8048 C   0  0  0  0  0  0  0  0  0  0  0  0
  147.0666  140.2017  153.1985 C   0  0  0  0  0  0  0  0  0  0  0  0
  147.1661  141.5506  153.9110 C   0  0  0  0  0  0  0  0  0  0  0  0
  148.5862  141.6033  154.4933 C   0  0  0  0  0  0  0  0  0  0  0  0
  152.4868  143.7850  161.8500 H   0  0  0  0  0  0  0  0  0  0  0  0
  153.6352  142.6353  161.1207 H   0  0  0  0  0  0  0  0  0  0  0  0
  151.9479  142.1471  161.4204 H   0  0  0  0  0  0  0  0  0  0  0  0
  152.0869  145.5653  160.1225 H   0  0  0  0  0  0  0  0  0  0  0  0
  151.4751  145.5279  157.4037 H   0  0  0  0  0  0  0  0  0  0  0  0
  153.2593  140.9207  158.8989 H   0  0  0  0  0  0  0  0  0  0  0  0
  151.6440  140.7004  159.5192 H   0  0  0  0  0  0  0  0  0  0  0  0
  151.9197  141.2060  156.5551 H   0  0  0  0  0  0  0  0  0  0  0  0
  152.5274  139.6849  157.1163 H   0  0  0  0  0  0  0  0  0  0  0  0
  150.9865  140.7478  155.2053 H   0  0  0  0  0  0  0  0  0  0  0  0
  151.3269  138.9166  153.2392 H   0  0  0  0  0  0  0  0  0  0  0  0
  150.6253  137.1509  155.6957 H   0  0  0  0  0  0  0  0  0  0  0  0
  151.3023  136.5819  154.0830 H   0  0  0  0  0  0  0  0  0  0  0  0
  153.3295  138.0199  154.4204 H   0  0  0  0  0  0  0  0  0  0  0  0
  152.6587  138.5730  156.0408 H   0  0  0  0  0  0  0  0  0  0  0  0
  148.5232  138.5799  153.1359 H   0  0  0  0  0  0  0  0  0  0  0  0
  147.8657  138.9214  154.7397 H   0  0  0  0  0  0  0  0  0  0  0  0
  147.2456  140.3372  152.1309 H   0  0  0  0  0  0  0  0  0  0  0  0
  146.0905  139.7304  153.3158 H   0  0  0  0  0  0  0  0  0  0  0  0
  146.9757  142.3766  153.2249 H   0  0  0  0  0  0  0  0  0  0  0  0
  146.4311  141.6134  154.7144 H   0  0  0  0  0  0  0  0  0  0  0  0
  148.5216  141.6550  155.5808 H   0  0  0  0  0  0  0  0  0  0  0  0
  149.1390  142.4772  154.1476 H   0  0  0  0  0  0  0  0  0  0  0  0
  149.7051  140.5462  153.1876 H   0  0  0  0  0  0  0  0  0  0  0  0
  151.5785  143.0840  156.7603 H   0  0  0  0  0  0  0  0  0  0  0  0
  1  2  1  0  0  0  0
  1 21  1  0  0  0  0
  1 22  1  0  0  0  0
  1 23  1  0  0  0  0
  2  6  1  0  0  0  0
  2  3  1  0  0  0  0
  3  4  2  0  0  0  0
  3 24  1  0  0  0  0
  4  5  1  0  0  0  0
  4 25  1  0  0  0  0
  5  6  2  0  0  0  0
  5 45  1  0  0  0  0
  6  7  1  0  0  0  0
  7  8  1  0  0  0  0
  7 26  1  0  0  0  0
  7 27  1  0  0  0  0
  8  9  1  0  0  0  0
  8 28  1  0  0  0  0
  8 29  1  0  0  0  0
  9 10  1  0  0  0  0
 10 11  2  0  0  0  0
 10 12  1  0  0  0  0
 12 13  1  0  0  0  0
 12 16  1  0  0  0  0
 12 30  1  0  0  0  0
 13 15  1  0  0  0  0
 13 14  1  0  0  0  0
 13 31  1  0  0  0  0
 14 15  1  0  0  0  0
 14 32  1  0  0  0  0
 14 33  1  0  0  0  0
 15 34  1  0  0  0  0
 15 35  1  0  0  0  0
 16 20  1  0  0  0  0
 16 17  1  0  0  0  0
 16 44  1  0  0  0  0
 17 18  1  0  0  0  0
 17 36  1  0  0  0  0
 17 37  1  0  0  0  0
 18 19  1  0  0  0  0
 18 38  1  0  0  0  0
 18 39  1  0  0  0  0
 19 20  1  0  0  0  0
 19 40  1  0  0  0  0
 19 41  1  0  0  0  0
 20 42  1  0  0  0  0
 20 43  1  0  0  0  0
M  CHG  1   5   1
M  CHG  1   9  -1
M  CHG  1  16   1
M  END
> <s_m_source_file>
AV-unprocessed.smi

> <i_m_source_file_index>
2252

> <i_lp_mmshare_version>
43012

> <i_f3d_flags>
0

> <s_epik_input>
W0NIM11uMVtjSF1bY0hdbmMxW0NIMl1bQ0gyXVtOSF1DKD1PKVtDQEhdKFtDSF0yW0NIMl1bQ0gyXTIpTjNbQ0gyXVtDSDJdW0NIMl1bQ0gyXTM=

> <s_epik_cmdline>
J2VwaWtfcHl0aG9uJywgJy1waCcsICc3LjAnLCAnLXRuJywgJzgnLCAnLW1hJywgJzIwMCcsICctbWV0YWxfYmluZGluZycsICctaW1hZScsICc8aW5maWxlLm1hZT4nLCAnLW9tYWUnLCAnPG91dGZpbGUubWFlPic=

> <r_lp_tautomer_probability>
1

> <r_epik_Ionization_Penalty>
5.88052

> <r_epik_Ionization_Penalty_Charging>
5.85424

> <r_epik_Ionization_Penalty_Neutral>
0.026272

> <r_epik_State_Penalty>
5.94961

> <r_epik_Charging_Adjusted_Penalty>
11.8039

> <i_epik_Tot_Q>
1

> <i_epik_Tot_abs_Q>
3

> <r_epik_Metal_State_Penalty>
2.20001

> <b_epik_Metal_Only>
1

> <s_lp_Force_Field>
OPLS_2005

> <r_lp_Energy>
30.4817

> <b_lp_Chiralities_Consistent>
1

> <s_lp_Variant>
AV-unprocessed.smi:2252-8

> <Gold.Version>
5.8.1

> <Gold.Id.Protein>
6NUR|6NUR_protein|mol2

> <Gold.PLP.Fitness>
45.6927

> <Gold.PLP.PLP>
-45.3159

> <Gold.PLP.part.hbond>
-1.0000

> <Gold.PLP.part.metal>
0.0000

> <Gold.PLP.part.buried>
-2.1468

> <Gold.PLP.part.nonpolar>
-41.1445

> <Gold.PLP.part.repulsive>
0.1797

> <Gold.PLP.ligand.clash>
0.0000

> <Gold.PLP.ligand.torsion>
1.4832

> <Gold.PLP.Chemscore.Hbond>
0.7028

> <Gold.PLP.Chemscore.CHOScore>
0.0000

> <Gold.PLP.Chemscore.Metal>
0.0000

> <Gold.Chemscore.Hbonds>
donor molecule, donor type, donor heavy atom, donor atom, acceptor molecule, acceptor atom, score
      L1  H    16    44       P1  7957  0.74

> <Gold.PLP.Chemscore.Internal.Correction>
1.2348

> <Gold.Rescore>
     Score         DG    S(hbond)    S(metal)    S(lipo)     H(rot)  DE(clash)    DE(int)     intcor
     12.45     -16.52       0.97        0.00     110.11       1.98       0.03       4.04       ----

> <Gold.Chemscore.Fitness>
12.4495

> <Gold.Chemscore.DG>
-16.5179

> <Gold.Chemscore.ZeroCoef>
-5.4800

> <Gold.Chemscore.Hbond>
0.9659

> <Gold.Chemscore.Metal>
0.0000

> <Gold.Chemscore.Lipo>
110.1087

> <Gold.Chemscore.Internal_Hbond>
0.0000

> <Gold.Chemscore.DEClash>
0.0275

> <Gold.Chemscore.DEInternal>
4.0409

> <Gold.Chemscore.Rot>
1.9809

> <Gold.Chemscore.Internal.Correction>
   9.000000E+99

> <Gold.Chemscore.Hbonds>
donor molecule, donor type, donor heavy atom, donor atom, acceptor molecule, acceptor atom, score
      L1  H    16    44       P1  7957  0.71

> <Gold.Chemscore.Hbond.Weighted>
-3.2262

> <Gold.Chemscore.Metal.Weighted>
-0.0000

> <Gold.Chemscore.Lipo.Weighted>
-12.8827

> <Gold.Chemscore.Internal_Hbond.Weighted>
0.0000

> <Gold.Chemscore.DEClash.Weighted>
0.0275

> <Gold.Chemscore.DEInternal.Weighted>
4.0409

> <Gold.Chemscore.Rot.Weighted>
5.0711

> <Gold.Chemscore.Internal.Correction.Weighted>
   9.000000E+99

> <Gold.Protein.RotatedTorsions>
[ 6907 6896 6895 6894 ] final  123.10 input  -60.11 | X-H torsion
[ 7974 7965 7964 7962 ] final  175.13 input  175.53 | X-H torsion
[ 8008 7997 7996 7995 ] final   -9.63 input   59.86 | X-H torsion
[ 10167 10162 10161 10158 ] final  -83.00 input  -65.29 | X-H torsion
[ 10718 10713 10712 10709 ] final  156.90 input   66.30 | X-H torsion
[ 10763 10752 10751 10750 ] final -169.87 input  -60.55 | X-H torsion
[ 11005 11000 10999 10996 ] final  -17.39 input  -57.11 | X-H torsion

> <Gold.Protein.ActiveResidues>
 VAL166  LYS551  ARG553  GLY616  TRP617  ASP618  TYR619  PRO620  LYS621  CYS622 
 ASP623  PHE694  ASN695  SER759  ASP760  ASP761  ALA762  ILE779  LEU786  VAL792 
 PHE793  MET794  SER795  GLU796  ALA797  LYS798  CYS799  TRP800  GLU811  SER814 

> <Gold.Protein.RotatedAtoms>
  152.4189  133.7083  159.6463 H   0  0  0  0  0  0  0  0  0  0  0  0  # atno 6907 bound_to 6896
  150.8065  133.8489  159.3208 H   0  0  0  0  0  0  0  0  0  0  0  0  # atno 6908 bound_to 6896
  151.6211  135.1034  160.0153 H   0  0  0  0  0  0  0  0  0  0  0  0  # atno 6909 bound_to 6896
  144.7208  139.9901  143.6440 H   0  0  0  0  0  0  0  0  0  0  0  0  # atno 7974 bound_to 7965
  154.5629  140.2350  155.8308 H   0  0  0  0  0  0  0  0  0  0  0  0  # atno 8008 bound_to 7997
  156.2044  140.3044  155.9554 H   0  0  0  0  0  0  0  0  0  0  0  0  # atno 8009 bound_to 7997
  155.2856  140.0424  157.3009 H   0  0  0  0  0  0  0  0  0  0  0  0  # atno 8010 bound_to 7997
  140.4268  143.2563  151.8815 H   0  0  0  0  0  0  0  0  0  0  0  0  # atno 10167 bound_to 10162
  157.1988  131.0671  151.2037 H   0  0  0  0  0  0  0  0  0  0  0  0  # atno 10718 bound_to 10713
  154.6477  135.2907  155.0026 H   0  0  0  0  0  0  0  0  0  0  0  0  # atno 10763 bound_to 10752
  154.1130  135.6559  153.4892 H   0  0  0  0  0  0  0  0  0  0  0  0  # atno 10764 bound_to 10752
  153.0359  135.5269  154.7371 H   0  0  0  0  0  0  0  0  0  0  0  0  # atno 10765 bound_to 10752
  140.8163  133.8102  155.9614 H   0  0  0  0  0  0  0  0  0  0  0  0  # atno 11005 bound_to 11000
  146.0419  139.3429  143.0692 LP  0  0  0  0  0  0  0  0  0  0  0  0  # atno 17320 bound_to 7965
  145.8324  140.9623  143.0842 LP  0  0  0  0  0  0  0  0  0  0  0  0  # atno 17321 bound_to 7965
  139.4784  144.5378  151.8572 LP  0  0  0  0  0  0  0  0  0  0  0  0  # atno 17342 bound_to 10162
  140.4472  144.1905  150.5895 LP  0  0  0  0  0  0  0  0  0  0  0  0  # atno 17343 bound_to 10162
  157.3788  130.7220  149.6615 LP  0  0  0  0  0  0  0  0  0  0  0  0  # atno 17370 bound_to 10713
  155.9703  130.4178  150.4298 LP  0  0  0  0  0  0  0  0  0  0  0  0  # atno 17371 bound_to 10713
  140.9145  134.2219  157.4965 LP  0  0  0  0  0  0  0  0  0  0  0  0  # atno 17394 bound_to 11000
  139.8711  134.9765  156.4923 LP  0  0  0  0  0  0  0  0  0  0  0  0  # atno 17395 bound_to 11000

$$$$
