AV-unprocessed.smi:2735|AV-procd|sdf|10541|dock5
  -GOLD-   2272014593D 1   1.00000     0.00000
 Structure written by MMmdl.
 42 42  0  0  0  0  0  0  0  0  2 V2000
  154.0647  139.7892  160.5554 C   0  0  0  0  0  0  0  0  0  0  0  0
  153.1851  140.8553  159.9726 C   0  0  0  0  0  0  0  0  0  0  0  0
  153.1625  142.2435  160.2776 C   0  0  0  0  0  0  0  0  0  0  0  0
  152.1908  142.7524  159.4631 C   0  0  0  0  0  0  0  0  0  0  0  0
  151.7156  144.1606  159.3125 C   0  0  0  0  0  0  0  0  0  0  0  0
  151.6683  141.6923  158.7386 N   0  0  0  0  0  0  0  0  0  0  0  0
  150.6398  141.7142  157.6975 C   0  0  2  0  0  0  0  0  0  0  0  0
  149.2077  141.6319  158.2656 C   0  0  0  0  0  0  0  0  0  0  0  0
  150.9063  140.6038  156.6708 C   0  0  0  0  0  0  0  0  0  0  0  0
  151.4355  140.8666  155.5903 O   0  0  0  0  0  0  0  0  0  0  0  0
  150.5263  139.3659  157.0244 N   0  0  0  0  0  0  0  0  0  0  0  0
  150.6133  138.1732  156.1833 C   0  0  1  0  0  0  0  0  0  0  0  0
  149.7785  138.3958  154.8993 C   0  0  0  0  0  0  0  0  0  0  0  0
  148.2612  138.5865  155.1268 C   0  0  0  0  0  0  0  0  0  0  0  0
  147.6252  137.4084  155.8838 C   0  0  0  0  0  0  0  0  0  0  0  0
  147.5404  138.8142  153.7895 C   0  0  0  0  0  0  0  0  0  0  0  0
  152.0773  137.9481  155.7711 C   0  0  0  0  0  0  0  0  0  0  0  0
  152.3209  136.9366  155.0778 O   0  0  0  0  0  0  0  0  0  0  0  0
  152.9263  138.7890  156.1450 O   0  5  0  0  0  0  0  0  0  0  0  0
  152.2973  140.5334  159.0479 N   0  0  0  0  0  0  0  0  0  0  0  0
  150.2565  137.2922  156.7188 H   0  0  0  0  0  0  0  0  0  0  0  0
  154.7586  140.2070  161.2852 H   0  0  0  0  0  0  0  0  0  0  0  0
  154.6541  139.2989  159.7803 H   0  0  0  0  0  0  0  0  0  0  0  0
  153.4731  139.0250  161.0595 H   0  0  0  0  0  0  0  0  0  0  0  0
  153.7751  142.7871  160.9815 H   0  0  0  0  0  0  0  0  0  0  0  0
  152.2427  144.8236  159.9985 H   0  0  0  0  0  0  0  0  0  0  0  0
  150.6498  144.2378  159.5264 H   0  0  0  0  0  0  0  0  0  0  0  0
  151.8895  144.5241  158.3001 H   0  0  0  0  0  0  0  0  0  0  0  0
  150.7168  142.6751  157.1869 H   0  0  0  0  0  0  0  0  0  0  0  0
  148.4671  141.7282  157.4710 H   0  0  0  0  0  0  0  0  0  0  0  0
  149.0256  142.4362  158.9788 H   0  0  0  0  0  0  0  0  0  0  0  0
  149.0186  140.6865  158.7758 H   0  0  0  0  0  0  0  0  0  0  0  0
  150.0903  139.2456  157.9266 H   0  0  0  0  0  0  0  0  0  0  0  0
  150.1619  139.2695  154.3688 H   0  0  0  0  0  0  0  0  0  0  0  0
  149.9254  137.5520  154.2228 H   0  0  0  0  0  0  0  0  0  0  0  0
  148.1093  139.4859  155.7243 H   0  0  0  0  0  0  0  0  0  0  0  0
  147.7902  136.4654  155.3618 H   0  0  0  0  0  0  0  0  0  0  0  0
  146.5488  137.5461  155.9890 H   0  0  0  0  0  0  0  0  0  0  0  0
  148.0328  137.3104  156.8897 H   0  0  0  0  0  0  0  0  0  0  0  0
  147.6426  137.9499  153.1324 H   0  0  0  0  0  0  0  0  0  0  0  0
  147.9459  139.6803  153.2658 H   0  0  0  0  0  0  0  0  0  0  0  0
  146.4757  138.9934  153.9412 H   0  0  0  0  0  0  0  0  0  0  0  0
  1  2  1  0  0  0  0
  1 22  1  0  0  0  0
  1 23  1  0  0  0  0
  1 24  1  0  0  0  0
  2 20  2  0  0  0  0
  2  3  1  0  0  0  0
  3  4  2  0  0  0  0
  3 25  1  0  0  0  0
  4  5  1  0  0  0  0
  4  6  1  0  0  0  0
  5 26  1  0  0  0  0
  5 27  1  0  0  0  0
  5 28  1  0  0  0  0
  6  7  1  0  0  0  0
  6 20  1  0  0  0  0
  7  8  1  0  0  0  0
  7  9  1  0  0  0  0
  7 29  1  0  0  0  0
  8 30  1  0  0  0  0
  8 31  1  0  0  0  0
  8 32  1  0  0  0  0
  9 10  2  0  0  0  0
  9 11  1  0  0  0  0
 11 12  1  0  0  0  0
 11 33  1  0  0  0  0
 12 21  1  0  0  0  0
 12 13  1  0  0  0  0
 12 17  1  0  0  0  0
 13 14  1  0  0  0  0
 13 34  1  0  0  0  0
 13 35  1  0  0  0  0
 14 15  1  0  0  0  0
 14 16  1  0  0  0  0
 14 36  1  0  0  0  0
 15 37  1  0  0  0  0
 15 38  1  0  0  0  0
 15 39  1  0  0  0  0
 16 40  1  0  0  0  0
 16 41  1  0  0  0  0
 16 42  1  0  0  0  0
 17 18  2  0  0  0  0
 17 19  1  0  0  0  0
M  CHG  1  19  -1
M  END
> <s_m_source_file>
AV-unprocessed.smi

> <i_m_source_file_index>
2735

> <i_lp_mmshare_version>
43012

> <i_f3d_flags>
0

> <s_epik_input>
W0NIM11jMVtjSF1jKFtDSDNdKW4objEpW0NASF0oW0NIM10pQyg9TylbTkhdW0NASF0oQyg9TylbT0hdKVtDSDJdW0NIXShbQ0gzXSlbQ0gzXQ==

> <s_epik_cmdline>
J2VwaWtfcHl0aG9uJywgJy1waCcsICc3LjAnLCAnLXRuJywgJzgnLCAnLW1hJywgJzIwMCcsICctbWV0YWxfYmluZGluZycsICctaW1hZScsICc8aW5maWxlLm1hZT4nLCAnLW9tYWUnLCAnPG91dGZpbGUubWFlPic=

> <r_lp_tautomer_probability>
1

> <r_epik_Ionization_Penalty>
0.0012303

> <r_epik_Ionization_Penalty_Charging>
0.000186407

> <r_epik_Ionization_Penalty_Neutral>
0.0010439

> <r_epik_State_Penalty>
-0

> <r_epik_Charging_Adjusted_Penalty>
0.000186407

> <i_epik_Tot_Q>
-1

> <i_epik_Tot_abs_Q>
1

> <r_epik_Metal_State_Penalty>
-0

> <b_epik_Metal_Only>
0

> <s_lp_Force_Field>
OPLS_2005

> <r_lp_Energy>
6.85708

> <b_lp_Chiralities_Consistent>
1

> <s_lp_Variant>
AV-unprocessed.smi:2735-1

> <Gold.Version>
5.8.1

> <Gold.Id.Protein>
6NUR|6NUR_protein|mol2

> <Gold.PLP.Fitness>
43.5418

> <Gold.PLP.PLP>
-32.0608

> <Gold.PLP.part.hbond>
-2.7112

> <Gold.PLP.part.metal>
0.0000

> <Gold.PLP.part.buried>
-3.5050

> <Gold.PLP.part.nonpolar>
-26.7269

> <Gold.PLP.part.repulsive>
0.0986

> <Gold.PLP.ligand.clash>
0.0000

> <Gold.PLP.ligand.torsion>
1.1609

> <Gold.PLP.Chemscore.Hbond>
4.5600

> <Gold.PLP.Chemscore.CHOScore>
0.0000

> <Gold.PLP.Chemscore.Metal>
0.0000

> <Gold.Chemscore.Hbonds>
donor molecule, donor type, donor heavy atom, donor atom, acceptor molecule, acceptor atom, score
      P1  H  7989  7998       L1    10  0.56
      P1  H  7997  8009       L1    19  2.00
      P1  H 10752 10765       L1    18  1.66

> <Gold.PLP.Chemscore.Internal.Correction>
0.1227

> <Gold.Rescore>
     Score         DG    S(hbond)    S(metal)    S(lipo)     H(rot)  DE(clash)    DE(int)     intcor
     11.82     -17.16       2.37        0.00      81.04       2.24       0.12       5.21       ----

> <Gold.Chemscore.Fitness>
11.8225

> <Gold.Chemscore.DG>
-17.1587

> <Gold.Chemscore.ZeroCoef>
-5.4800

> <Gold.Chemscore.Hbond>
2.3739

> <Gold.Chemscore.Metal>
0.0000

> <Gold.Chemscore.Lipo>
81.0371

> <Gold.Chemscore.Internal_Hbond>
0.0000

> <Gold.Chemscore.DEClash>
0.1220

> <Gold.Chemscore.DEInternal>
5.2141

> <Gold.Chemscore.Rot>
2.2388

> <Gold.Chemscore.Internal.Correction>
   9.000000E+99

> <Gold.Chemscore.Hbonds>
donor molecule, donor type, donor heavy atom, donor atom, acceptor molecule, acceptor atom, score
      P1  H  7989  7998       L1    10  0.55
      P1  H  7997  8009       L1    19  0.98
      P1  H 10752 10765       L1    18  0.79

> <Gold.Chemscore.Hbond.Weighted>
-7.9287

> <Gold.Chemscore.Metal.Weighted>
-0.0000

> <Gold.Chemscore.Lipo.Weighted>
-9.4813

> <Gold.Chemscore.Internal_Hbond.Weighted>
0.0000

> <Gold.Chemscore.DEClash.Weighted>
0.1220

> <Gold.Chemscore.DEInternal.Weighted>
5.2141

> <Gold.Chemscore.Rot.Weighted>
5.7314

> <Gold.Chemscore.Internal.Correction.Weighted>
   9.000000E+99

> <Gold.Protein.RotatedTorsions>
[ 6907 6896 6895 6894 ] final  106.98 input  -60.11 | X-H torsion
[ 7974 7965 7964 7962 ] final  -87.87 input  175.53 | X-H torsion
[ 8008 7997 7996 7995 ] final -168.54 input   59.86 | X-H torsion
[ 10167 10162 10161 10158 ] final  -47.36 input  -65.29 | X-H torsion
[ 10718 10713 10712 10709 ] final   91.05 input   66.30 | X-H torsion
[ 10763 10752 10751 10750 ] final -177.79 input  -60.55 | X-H torsion
[ 11005 11000 10999 10996 ] final  173.29 input  -57.11 | X-H torsion

> <Gold.Protein.ActiveResidues>
 VAL166  LYS551  ARG553  GLY616  TRP617  ASP618  TYR619  PRO620  LYS621  CYS622 
 ASP623  PHE694  ASN695  SER759  ASP760  ASP761  ALA762  ILE779  LEU786  VAL792 
 PHE793  MET794  SER795  GLU796  ALA797  LYS798  CYS799  TRP800  GLU811  SER814 

> <Gold.Protein.RotatedAtoms>
  152.5173  133.9302  159.7576 H   0  0  0  0  0  0  0  0  0  0  0  0  # atno 6907 bound_to 6896
  150.9654  133.6392  159.2754 H   0  0  0  0  0  0  0  0  0  0  0  0  # atno 6908 bound_to 6896
  151.3622  135.0911  159.9491 H   0  0  0  0  0  0  0  0  0  0  0  0  # atno 6909 bound_to 6896
  145.4607  140.9561  143.1971 H   0  0  0  0  0  0  0  0  0  0  0  0  # atno 7974 bound_to 7965
  155.8928  140.1027  157.1406 H   0  0  0  0  0  0  0  0  0  0  0  0  # atno 8008 bound_to 7997
  154.4017  140.1307  156.4401 H   0  0  0  0  0  0  0  0  0  0  0  0  # atno 8009 bound_to 7997
  155.7514  140.3465  155.5154 H   0  0  0  0  0  0  0  0  0  0  0  0  # atno 8010 bound_to 7997
  140.6778  143.2788  151.3915 H   0  0  0  0  0  0  0  0  0  0  0  0  # atno 10167 bound_to 10162
  157.6960  131.0393  150.3671 H   0  0  0  0  0  0  0  0  0  0  0  0  # atno 10718 bound_to 10713
  154.5558  135.2816  155.0966 H   0  0  0  0  0  0  0  0  0  0  0  0  # atno 10763 bound_to 10752
  154.2394  135.6359  153.5205 H   0  0  0  0  0  0  0  0  0  0  0  0  # atno 10764 bound_to 10752
  153.0015  135.5556  154.6137 H   0  0  0  0  0  0  0  0  0  0  0  0  # atno 10765 bound_to 10752
  140.3389  134.7293  157.4188 H   0  0  0  0  0  0  0  0  0  0  0  0  # atno 11005 bound_to 11000
  144.8004  139.6151  143.7074 LP  0  0  0  0  0  0  0  0  0  0  0  0  # atno 17320 bound_to 7965
  146.2452  139.6084  142.9464 LP  0  0  0  0  0  0  0  0  0  0  0  0  # atno 17321 bound_to 7965
  139.6081  144.1154  152.2270 LP  0  0  0  0  0  0  0  0  0  0  0  0  # atno 17342 bound_to 10162
  140.0560  144.5895  150.7299 LP  0  0  0  0  0  0  0  0  0  0  0  0  # atno 17343 bound_to 10162
  156.4100  130.3932  149.6898 LP  0  0  0  0  0  0  0  0  0  0  0  0  # atno 17370 bound_to 10713
  156.4185  130.7757  151.2773 LP  0  0  0  0  0  0  0  0  0  0  0  0  # atno 17371 bound_to 10713
  140.0797  134.5748  155.8553 LP  0  0  0  0  0  0  0  0  0  0  0  0  # atno 17394 bound_to 11000
  141.2044  133.6638  156.6117 LP  0  0  0  0  0  0  0  0  0  0  0  0  # atno 17395 bound_to 11000

$$$$
