AV-unprocessed.smi:766|AV-procd|sdf|3652|dock3
  -GOLD-   22720 1 53D 1   1.00000     0.00000
 Structure written by MMmdl.
 47 49  0  0  0  0  0  0  0  0  2 V2000
  153.3999  142.4488  161.9756 C   0  0  0  0  0  0  0  0  0  0  0  0
  152.9236  142.0408  160.5925 C   0  0  0  0  0  0  0  0  0  0  0  0
  152.0466  142.8961  159.8880 C   0  0  0  0  0  0  0  0  0  0  0  0
  151.5811  142.5540  158.5994 C   0  0  0  0  0  0  0  0  0  0  0  0
  150.7325  143.2314  157.7407 N   0  0  0  0  0  0  0  0  0  0  0  0
  150.6865  142.4038  156.7008 C   0  0  0  0  0  0  0  0  0  0  0  0
  151.4047  141.2670  156.7851 N   0  0  0  0  0  0  0  0  0  0  0  0
  151.5124  140.2184  155.7868 C   0  0  0  0  0  0  0  0  0  0  0  0
  150.2174  140.0478  154.9697 C   0  0  1  0  0  0  0  0  0  0  0  0
  150.0934  141.1209  154.0554 O   0  0  0  0  0  0  0  0  0  0  0  0
  150.1986  138.7235  154.1894 C   0  0  0  0  0  0  0  0  0  0  0  0
  149.0791  138.6857  153.2276 N   0  3  0  0  0  0  0  0  0  0  0  0
  147.7447  138.8254  153.8450 C   0  0  0  0  0  0  0  0  0  0  0  0
  146.6199  138.6895  152.8057 C   0  0  0  0  0  0  0  0  0  0  0  0
  145.8264  137.4892  153.0022 N   0  0  0  0  0  0  0  0  0  0  0  0
  144.5280  137.2470  152.6053 C   0  0  0  0  0  0  0  0  0  0  0  0
  144.2085  135.9826  153.0099 C   0  0  0  0  0  0  0  0  0  0  0  0
  145.3917  135.5240  153.6534 C   0  0  0  0  0  0  0  0  0  0  0  0
  146.3578  136.4287  153.6484 N   0  0  0  0  0  0  0  0  0  0  0  0
  152.0195  141.3222  158.0312 C   0  0  0  0  0  0  0  0  0  0  0  0
  152.8912  140.4623  158.7222 C   0  0  0  0  0  0  0  0  0  0  0  0
  153.3485  140.8206  160.0078 C   0  0  0  0  0  0  0  0  0  0  0  0
  154.2934  139.8879  160.7447 C   0  0  0  0  0  0  0  0  0  0  0  0
  152.9684  143.4026  162.2803 H   0  0  0  0  0  0  0  0  0  0  0  0
  154.4850  142.5533  161.9905 H   0  0  0  0  0  0  0  0  0  0  0  0
  153.1131  141.7008  162.7149 H   0  0  0  0  0  0  0  0  0  0  0  0
  151.7233  143.8260  160.3323 H   0  0  0  0  0  0  0  0  0  0  0  0
  150.0942  142.6360  155.8279 H   0  0  0  0  0  0  0  0  0  0  0  0
  152.3553  140.4430  155.1313 H   0  0  0  0  0  0  0  0  0  0  0  0
  151.7582  139.2881  156.3007 H   0  0  0  0  0  0  0  0  0  0  0  0
  149.3634  140.0766  155.6482 H   0  0  0  0  0  0  0  0  0  0  0  0
  149.6273  141.8276  154.4760 H   0  0  0  0  0  0  0  0  0  0  0  0
  151.1439  138.5726  153.6657 H   0  0  0  0  0  0  0  0  0  0  0  0
  150.0811  137.8902  154.8837 H   0  0  0  0  0  0  0  0  0  0  0  0
  149.2037  139.4289  152.5551 H   0  0  0  0  0  0  0  0  0  0  0  0
  147.6204  138.0790  154.6308 H   0  0  0  0  0  0  0  0  0  0  0  0
  147.6832  139.8041  154.3224 H   0  0  0  0  0  0  0  0  0  0  0  0
  145.9526  139.5494  152.8744 H   0  0  0  0  0  0  0  0  0  0  0  0
  147.0234  138.6901  151.7917 H   0  0  0  0  0  0  0  0  0  0  0  0
  143.9455  137.9851  152.0738 H   0  0  0  0  0  0  0  0  0  0  0  0
  143.2722  135.4636  152.8664 H   0  0  0  0  0  0  0  0  0  0  0  0
  145.5751  134.5679  154.1211 H   0  0  0  0  0  0  0  0  0  0  0  0
  153.2065  139.5357  158.2662 H   0  0  0  0  0  0  0  0  0  0  0  0
  154.5490  139.0192  160.1373 H   0  0  0  0  0  0  0  0  0  0  0  0
  153.8344  139.5301  161.6665 H   0  0  0  0  0  0  0  0  0  0  0  0
  155.2209  140.4028  160.9959 H   0  0  0  0  0  0  0  0  0  0  0  0
  149.1120  137.8033  152.7357 H   0  0  0  0  0  0  0  0  0  0  0  0
  1  2  1  0  0  0  0
  1 24  1  0  0  0  0
  1 25  1  0  0  0  0
  1 26  1  0  0  0  0
  2 22  1  0  0  0  0
  2  3  2  0  0  0  0
  3  4  1  0  0  0  0
  3 27  1  0  0  0  0
  4 20  2  0  0  0  0
  4  5  1  0  0  0  0
  5  6  2  0  0  0  0
  6  7  1  0  0  0  0
  6 28  1  0  0  0  0
  7  8  1  0  0  0  0
  7 20  1  0  0  0  0
  8  9  1  0  0  0  0
  8 29  1  0  0  0  0
  8 30  1  0  0  0  0
  9 10  1  0  0  0  0
  9 11  1  0  0  0  0
  9 31  1  0  0  0  0
 10 32  1  0  0  0  0
 11 12  1  0  0  0  0
 11 33  1  0  0  0  0
 11 34  1  0  0  0  0
 12 13  1  0  0  0  0
 12 35  1  0  0  0  0
 12 47  1  0  0  0  0
 13 14  1  0  0  0  0
 13 36  1  0  0  0  0
 13 37  1  0  0  0  0
 14 15  1  0  0  0  0
 14 38  1  0  0  0  0
 14 39  1  0  0  0  0
 15 19  1  0  0  0  0
 15 16  1  0  0  0  0
 16 17  2  0  0  0  0
 16 40  1  0  0  0  0
 17 18  1  0  0  0  0
 17 41  1  0  0  0  0
 18 19  2  0  0  0  0
 18 42  1  0  0  0  0
 20 21  1  0  0  0  0
 21 22  2  0  0  0  0
 21 43  1  0  0  0  0
 22 23  1  0  0  0  0
 23 44  1  0  0  0  0
 23 45  1  0  0  0  0
 23 46  1  0  0  0  0
M  CHG  1  12   1
M  END
> <s_m_source_file>
AV-unprocessed.smi

> <i_m_source_file_index>
766

> <i_lp_mmshare_version>
43012

> <i_f3d_flags>
0

> <s_epik_input>
W0NIM11jKFtjSF0xKWMoW0NIM10pW2NIXWMoYzEyKW4oW2NIXW4yKVtDSDJdW0NASF0oW09IXSlbQ0gyXVtOSF1bQ0gyXVtDSDJdbjNbY0hdW2NIXVtjSF1uMw==

> <s_epik_cmdline>
J2VwaWtfcHl0aG9uJywgJy1waCcsICc3LjAnLCAnLXRuJywgJzgnLCAnLW1hJywgJzIwMCcsICctbWV0YWxfYmluZGluZycsICctaW1hZScsICc8aW5maWxlLm1hZT4nLCAnLW9tYWUnLCAnPG91dGZpbGUubWFlPic=

> <r_lp_tautomer_probability>
1

> <r_epik_Ionization_Penalty>
0.127222

> <r_epik_Ionization_Penalty_Charging>
0.043815

> <r_epik_Ionization_Penalty_Neutral>
0.0834074

> <r_epik_State_Penalty>
0.115563

> <r_epik_Charging_Adjusted_Penalty>
0.159378

> <i_epik_Tot_Q>
1

> <i_epik_Tot_abs_Q>
1

> <r_epik_Metal_State_Penalty>
0.102594

> <b_epik_Metal_Only>
0

> <s_lp_Force_Field>
OPLS_2005

> <r_lp_Energy>
11.1584

> <b_lp_Chiralities_Consistent>
1

> <s_lp_Variant>
AV-unprocessed.smi:766-2

> <Gold.Version>
5.8.1

> <Gold.Id.Protein>
6NUR|6NUR_protein|mol2

> <Gold.PLP.Fitness>
61.1504

> <Gold.PLP.PLP>
-44.7387

> <Gold.PLP.part.hbond>
-4.0569

> <Gold.PLP.part.metal>
0.0000

> <Gold.PLP.part.buried>
-2.4985

> <Gold.PLP.part.nonpolar>
-38.1539

> <Gold.PLP.part.repulsive>
0.3432

> <Gold.PLP.ligand.clash>
0.0226

> <Gold.PLP.ligand.torsion>
1.2405

> <Gold.PLP.Chemscore.Hbond>
3.3822

> <Gold.PLP.Chemscore.CHOScore>
2.8587

> <Gold.PLP.Chemscore.Metal>
0.0000

> <Gold.Chemscore.Hbonds>
donor molecule, donor type, donor heavy atom, donor atom, acceptor molecule, acceptor atom, score
      L1  H    12    35       P1  7957  1.00
      L1  H    12    47       P1  7948  2.00
      P1  H  7989  7998       L1    10  0.28
      P1  H  8011  8017       L1    10  0.02
      L1  C     6    28       P1  8028  0.82
      L1  C    16    40       P1 10171  1.00
      L1  C    16    40       P1 10175  1.00

> <Gold.PLP.Chemscore.Internal.Correction>
0.1924

> <Gold.Rescore>
     Score         DG    S(hbond)    S(metal)    S(lipo)     H(rot)  DE(clash)    DE(int)     intcor
     16.40     -18.55       2.30        0.00     110.25       2.93       0.12       2.03       ----

> <Gold.Chemscore.Fitness>
16.3957

> <Gold.Chemscore.DG>
-18.5505

> <Gold.Chemscore.ZeroCoef>
-5.4800

> <Gold.Chemscore.Hbond>
2.2998

> <Gold.Chemscore.Metal>
0.0000

> <Gold.Chemscore.Lipo>
110.2473

> <Gold.Chemscore.Internal_Hbond>
0.0000

> <Gold.Chemscore.DEClash>
0.1214

> <Gold.Chemscore.DEInternal>
2.0334

> <Gold.Chemscore.Rot>
2.9335

> <Gold.Chemscore.Internal.Correction>
   9.000000E+99

> <Gold.Chemscore.Hbonds>
donor molecule, donor type, donor heavy atom, donor atom, acceptor molecule, acceptor atom, score
      L1  H    12    35       P1  7957  0.94
      L1  H    12    47       P1  7948  0.99
      P1  H  7989  7998       L1    10  0.02

> <Gold.Chemscore.Hbond.Weighted>
-7.6813

> <Gold.Chemscore.Metal.Weighted>
-0.0000

> <Gold.Chemscore.Lipo.Weighted>
-12.8989

> <Gold.Chemscore.Internal_Hbond.Weighted>
0.0000

> <Gold.Chemscore.DEClash.Weighted>
0.1214

> <Gold.Chemscore.DEInternal.Weighted>
2.0334

> <Gold.Chemscore.Rot.Weighted>
7.5097

> <Gold.Chemscore.Internal.Correction.Weighted>
   9.000000E+99

> <Gold.Protein.RotatedTorsions>
[ 6907 6896 6895 6894 ] final   14.42 input  -60.11 | X-H torsion
[ 7974 7965 7964 7962 ] final  -78.52 input  175.53 | X-H torsion
[ 8008 7997 7996 7995 ] final  -76.08 input   59.86 | X-H torsion
[ 10167 10162 10161 10158 ] final -161.52 input  -65.29 | X-H torsion
[ 10718 10713 10712 10709 ] final  -89.63 input   66.30 | X-H torsion
[ 10763 10752 10751 10750 ] final  -21.90 input  -60.55 | X-H torsion
[ 11005 11000 10999 10996 ] final -178.80 input  -57.11 | X-H torsion

> <Gold.Protein.ActiveResidues>
 VAL166  LYS551  ARG553  GLY616  TRP617  ASP618  TYR619  PRO620  LYS621  CYS622 
 ASP623  PHE694  ASN695  SER759  ASP760  ASP761  ALA762  ILE779  LEU786  VAL792 
 PHE793  MET794  SER795  GLU796  ALA797  LYS798  CYS799  TRP800  GLU811  SER814 

> <Gold.Protein.RotatedAtoms>
  151.8020  135.0706  160.0401 H   0  0  0  0  0  0  0  0  0  0  0  0  # atno 6907 bound_to 6896
  152.3082  133.5721  159.5671 H   0  0  0  0  0  0  0  0  0  0  0  0  # atno 6908 bound_to 6896
  150.7306  134.0107  159.3711 H   0  0  0  0  0  0  0  0  0  0  0  0  # atno 6909 bound_to 6896
  145.5854  140.9440  143.1321 H   0  0  0  0  0  0  0  0  0  0  0  0  # atno 7974 bound_to 7965
  154.5473  140.0733  156.8610 H   0  0  0  0  0  0  0  0  0  0  0  0  # atno 8008 bound_to 7997
  155.3061  140.3387  155.4227 H   0  0  0  0  0  0  0  0  0  0  0  0  # atno 8009 bound_to 7997
  156.1930  140.1693  156.8041 H   0  0  0  0  0  0  0  0  0  0  0  0  # atno 8010 bound_to 7997
  139.6459  144.0173  152.2126 H   0  0  0  0  0  0  0  0  0  0  0  0  # atno 10167 bound_to 10162
  155.9985  130.4879  150.5201 H   0  0  0  0  0  0  0  0  0  0  0  0  # atno 10718 bound_to 10713
  153.6434  135.6984  153.5233 H   0  0  0  0  0  0  0  0  0  0  0  0  # atno 10763 bound_to 10752
  153.2764  135.4199  155.1036 H   0  0  0  0  0  0  0  0  0  0  0  0  # atno 10764 bound_to 10752
  154.8494  135.3591  154.5979 H   0  0  0  0  0  0  0  0  0  0  0  0  # atno 10765 bound_to 10752
  140.4257  134.6565  157.4686 H   0  0  0  0  0  0  0  0  0  0  0  0  # atno 11005 bound_to 11000
  144.7375  139.7544  143.7324 LP  0  0  0  0  0  0  0  0  0  0  0  0  # atno 17320 bound_to 7965
  146.1685  139.4827  142.9942 LP  0  0  0  0  0  0  0  0  0  0  0  0  # atno 17321 bound_to 7965
  139.9875  144.6385  150.7844 LP  0  0  0  0  0  0  0  0  0  0  0  0  # atno 17342 bound_to 10162
  140.7514  143.2972  151.3173 LP  0  0  0  0  0  0  0  0  0  0  0  0  # atno 17343 bound_to 10162
  157.3163  131.0673  151.1964 LP  0  0  0  0  0  0  0  0  0  0  0  0  # atno 17370 bound_to 10713
  157.2893  130.6788  149.6106 LP  0  0  0  0  0  0  0  0  0  0  0  0  # atno 17371 bound_to 10713
  140.0169  134.6606  155.9297 LP  0  0  0  0  0  0  0  0  0  0  0  0  # atno 17394 bound_to 11000
  141.1766  133.6541  156.4853 LP  0  0  0  0  0  0  0  0  0  0  0  0  # atno 17395 bound_to 11000

$$$$
