AV-unprocessed.smi:3257|AV-procd|sdf|12467|dock6
  -GOLD-   2272018363D 1   1.00000     0.00000
 Structure written by MMmdl.
 38 39  0  0  0  0  0  0  0  0  1 V2000
  152.5612  130.2159  157.4861 C   0  0  0  0  0  0  0  0  0  0  0  0
  151.6604  131.1676  156.8717 N   0  0  0  0  0  0  0  0  0  0  0  0
  151.2023  131.2022  155.5725 C   0  0  0  0  0  0  0  0  0  0  0  0
  150.3738  132.2830  155.4582 C   0  0  0  0  0  0  0  0  0  0  0  0
  149.6157  132.7635  154.2527 C   0  0  0  0  0  0  0  0  0  0  0  0
  148.6752  131.6767  153.7075 C   0  0  0  0  0  0  0  0  0  0  0  0
  147.9483  132.1382  152.5310 N   0  0  0  0  0  0  0  0  0  0  0  0
  147.0226  133.1124  152.5201 C   0  0  0  0  0  0  0  0  0  0  0  0
  146.7039  133.7212  153.5425 O   0  0  0  0  0  0  0  0  0  0  0  0
  146.4872  133.3751  151.3004 N   0  0  0  0  0  0  0  0  0  0  0  0
  146.6402  132.5560  150.0840 C   0  0  0  0  0  0  0  0  0  0  0  0
  145.3087  131.8378  149.7971 C   0  0  0  0  0  0  0  0  0  0  0  0
  144.1596  132.8565  149.6610 C   0  0  0  0  0  0  0  0  0  0  0  0
  142.9262  132.1774  149.5564 O   0  0  0  0  0  0  0  0  0  0  0  0
  144.1218  133.8297  150.8561 C   0  0  0  0  0  0  0  0  0  0  0  0
  145.5094  134.4530  151.0966 C   0  0  0  0  0  0  0  0  0  0  0  0
  150.3959  132.8553  156.7621 C   0  0  0  0  0  0  0  0  0  0  0  0
  151.1663  132.1864  157.6048 N   0  0  0  0  0  0  0  0  0  0  0  0
  152.6960  129.3540  156.8320 H   0  0  0  0  0  0  0  0  0  0  0  0
  152.1518  129.8760  158.4382 H   0  0  0  0  0  0  0  0  0  0  0  0
  153.5295  130.6860  157.6587 H   0  0  0  0  0  0  0  0  0  0  0  0
  151.4983  130.4618  154.8438 H   0  0  0  0  0  0  0  0  0  0  0  0
  149.0374  133.6549  154.4990 H   0  0  0  0  0  0  0  0  0  0  0  0
  150.3076  133.0683  153.4666 H   0  0  0  0  0  0  0  0  0  0  0  0
  149.2508  130.7966  153.4192 H   0  0  0  0  0  0  0  0  0  0  0  0
  147.9756  131.3510  154.4797 H   0  0  0  0  0  0  0  0  0  0  0  0
  148.1638  131.6835  151.6558 H   0  0  0  0  0  0  0  0  0  0  0  0
  146.8977  133.2067  149.2472 H   0  0  0  0  0  0  0  0  0  0  0  0
  147.4481  131.8267  150.1378 H   0  0  0  0  0  0  0  0  0  0  0  0
  145.3930  131.2422  148.8875 H   0  0  0  0  0  0  0  0  0  0  0  0
  145.0945  131.1397  150.6080 H   0  0  0  0  0  0  0  0  0  0  0  0
  144.3036  133.4304  148.7448 H   0  0  0  0  0  0  0  0  0  0  0  0
  142.2306  132.8171  149.5390 H   0  0  0  0  0  0  0  0  0  0  0  0
  143.3847  134.6136  150.6795 H   0  0  0  0  0  0  0  0  0  0  0  0
  143.8040  133.3016  151.7567 H   0  0  0  0  0  0  0  0  0  0  0  0
  145.4636  135.1471  151.9367 H   0  0  0  0  0  0  0  0  0  0  0  0
  145.8059  135.0530  150.2352 H   0  0  0  0  0  0  0  0  0  0  0  0
  149.8770  133.7328  157.1187 H   0  0  0  0  0  0  0  0  0  0  0  0
  1  2  1  0  0  0  0
  1 19  1  0  0  0  0
  1 20  1  0  0  0  0
  1 21  1  0  0  0  0
  2 18  1  0  0  0  0
  2  3  1  0  0  0  0
  3  4  2  0  0  0  0
  3 22  1  0  0  0  0
  4  5  1  0  0  0  0
  4 17  1  0  0  0  0
  5  6  1  0  0  0  0
  5 23  1  0  0  0  0
  5 24  1  0  0  0  0
  6  7  1  0  0  0  0
  6 25  1  0  0  0  0
  6 26  1  0  0  0  0
  7  8  1  0  0  0  0
  7 27  1  0  0  0  0
  8  9  2  0  0  0  0
  8 10  1  0  0  0  0
 10 16  1  0  0  0  0
 10 11  1  0  0  0  0
 11 12  1  0  0  0  0
 11 28  1  0  0  0  0
 11 29  1  0  0  0  0
 12 13  1  0  0  0  0
 12 30  1  0  0  0  0
 12 31  1  0  0  0  0
 13 14  1  0  0  0  0
 13 15  1  0  0  0  0
 13 32  1  0  0  0  0
 14 33  1  0  0  0  0
 15 16  1  0  0  0  0
 15 34  1  0  0  0  0
 15 35  1  0  0  0  0
 16 36  1  0  0  0  0
 16 37  1  0  0  0  0
 17 18  2  0  0  0  0
 17 38  1  0  0  0  0
M  END
> <s_m_source_file>
AV-unprocessed.smi

> <i_m_source_file_index>
3257

> <i_lp_mmshare_version>
43012

> <i_f3d_flags>
0

> <s_epik_input>
W0NIM11uMVtjSF1jKFtjSF1uMSlbQ0gyXVtDSDJdW05IXUMoPU8pTjJbQ0gyXVtDSDJdW0NIXShbT0hdKVtDSDJdW0NIMl0y

> <s_epik_cmdline>
J2VwaWtfcHl0aG9uJywgJy1waCcsICc3LjAnLCAnLXRuJywgJzgnLCAnLW1hJywgJzIwMCcsICctbWV0YWxfYmluZGluZycsICctaW1hZScsICc8aW5maWxlLm1hZT4nLCAnLW9tYWUnLCAnPG91dGZpbGUubWFlPic=

> <r_lp_tautomer_probability>
1

> <r_epik_Ionization_Penalty>
0.000563034

> <r_epik_Ionization_Penalty_Charging>
0

> <r_epik_Ionization_Penalty_Neutral>
0.000563034

> <r_epik_State_Penalty>
-0

> <r_epik_Charging_Adjusted_Penalty>
0

> <i_epik_Tot_Q>
0

> <i_epik_Tot_abs_Q>
0

> <r_epik_Metal_State_Penalty>
-0

> <b_epik_Metal_Only>
0

> <s_lp_Force_Field>
OPLS_2005

> <r_lp_Energy>
25.1646

> <b_lp_Chiralities_Consistent>
1

> <s_lp_Variant>
AV-unprocessed.smi:3257-1

> <Gold.Version>
5.8.1

> <Gold.Id.Protein>
6NUR|6NUR_protein|mol2

> <Gold.PLP.Fitness>
46.8321

> <Gold.PLP.PLP>
-35.8855

> <Gold.PLP.part.hbond>
-4.5965

> <Gold.PLP.part.metal>
0.0000

> <Gold.PLP.part.buried>
-4.3360

> <Gold.PLP.part.nonpolar>
-28.3527

> <Gold.PLP.part.repulsive>
0.0847

> <Gold.PLP.ligand.clash>
0.0000

> <Gold.PLP.ligand.torsion>
0.0571

> <Gold.PLP.Chemscore.Hbond>
3.6738

> <Gold.PLP.Chemscore.CHOScore>
0.0000

> <Gold.PLP.Chemscore.Metal>
0.0000

> <Gold.Chemscore.Hbonds>
donor molecule, donor type, donor heavy atom, donor atom, acceptor molecule, acceptor atom, score
      L1  H     7    27       P1 10747  1.00
      L1  H    14    33       P1 10186  1.00
      P1  H  6896  6908       L1    18  1.00
      P1  H 10785 10796       L1    14  0.55

> <Gold.PLP.Chemscore.Internal.Correction>
0.0395

> <Gold.Rescore>
     Score         DG    S(hbond)    S(metal)    S(lipo)     H(rot)  DE(clash)    DE(int)     intcor
     20.18     -21.33       3.55        0.00      76.58       1.95       0.99       0.17       ----

> <Gold.Chemscore.Fitness>
20.1789

> <Gold.Chemscore.DG>
-21.3304

> <Gold.Chemscore.ZeroCoef>
-5.4800

> <Gold.Chemscore.Hbond>
3.5542

> <Gold.Chemscore.Metal>
0.0000

> <Gold.Chemscore.Lipo>
76.5760

> <Gold.Chemscore.Internal_Hbond>
0.0000

> <Gold.Chemscore.DEClash>
0.9862

> <Gold.Chemscore.DEInternal>
0.1652

> <Gold.Chemscore.Rot>
1.9454

> <Gold.Chemscore.Internal.Correction>
   9.000000E+99

> <Gold.Chemscore.Hbonds>
donor molecule, donor type, donor heavy atom, donor atom, acceptor molecule, acceptor atom, score
      L1  H     7    27       P1 10747  1.00
      L1  H    14    33       P1 10186  0.95
      P1  H  6896  6908       L1    18  0.73
      P1  H 10785 10796       L1    14  0.44

> <Gold.Chemscore.Hbond.Weighted>
-11.8712

> <Gold.Chemscore.Metal.Weighted>
-0.0000

> <Gold.Chemscore.Lipo.Weighted>
-8.9594

> <Gold.Chemscore.Internal_Hbond.Weighted>
0.0000

> <Gold.Chemscore.DEClash.Weighted>
0.9862

> <Gold.Chemscore.DEInternal.Weighted>
0.1652

> <Gold.Chemscore.Rot.Weighted>
4.9802

> <Gold.Chemscore.Internal.Correction.Weighted>
   9.000000E+99

> <Gold.Protein.RotatedTorsions>
[ 6907 6896 6895 6894 ] final   64.41 input  -60.11 | X-H torsion
[ 7974 7965 7964 7962 ] final -179.32 input  175.53 | X-H torsion
[ 8008 7997 7996 7995 ] final   61.82 input   59.86 | X-H torsion
[ 10167 10162 10161 10158 ] final  165.79 input  -65.29 | X-H torsion
[ 10718 10713 10712 10709 ] final  151.80 input   66.30 | X-H torsion
[ 10763 10752 10751 10750 ] final -125.84 input  -60.55 | X-H torsion
[ 11005 11000 10999 10996 ] final  -83.97 input  -57.11 | X-H torsion

> <Gold.Protein.ActiveResidues>
 VAL166  LYS551  ARG553  GLY616  TRP617  ASP618  TYR619  PRO620  LYS621  CYS622 
 ASP623  PHE694  ASN695  SER759  ASP760  ASP761  ALA762  ILE779  LEU786  VAL792 
 PHE793  MET794  SER795  GLU796  ALA797  LYS798  CYS799  TRP800  GLU811  SER814 

> <Gold.Protein.RotatedAtoms>
  152.4329  134.5743  159.9929 H   0  0  0  0  0  0  0  0  0  0  0  0  # atno 6907 bound_to 6896
  151.5861  133.3366  159.3026 H   0  0  0  0  0  0  0  0  0  0  0  0  # atno 6908 bound_to 6896
  150.8224  134.7473  159.6848 H   0  0  0  0  0  0  0  0  0  0  0  0  # atno 6909 bound_to 6896
  144.7136  140.0736  143.6428 H   0  0  0  0  0  0  0  0  0  0  0  0  # atno 7974 bound_to 7965
  155.6045  140.3494  155.4604 H   0  0  0  0  0  0  0  0  0  0  0  0  # atno 8008 bound_to 7997
  156.0202  140.1252  157.0389 H   0  0  0  0  0  0  0  0  0  0  0  0  # atno 8009 bound_to 7997
  154.4312  140.1064  156.5939 H   0  0  0  0  0  0  0  0  0  0  0  0  # atno 8010 bound_to 7997
  139.4912  144.4095  151.9316 H   0  0  0  0  0  0  0  0  0  0  0  0  # atno 10167 bound_to 10162
  157.2660  131.0807  151.1632 H   0  0  0  0  0  0  0  0  0  0  0  0  # atno 10718 bound_to 10713
  154.8740  135.4016  154.3334 H   0  0  0  0  0  0  0  0  0  0  0  0  # atno 10763 bound_to 10752
  153.4144  135.7021  153.6342 H   0  0  0  0  0  0  0  0  0  0  0  0  # atno 10764 bound_to 10752
  153.5031  135.3723  155.2520 H   0  0  0  0  0  0  0  0  0  0  0  0  # atno 10765 bound_to 10752
  141.1654  133.7322  156.8799 H   0  0  0  0  0  0  0  0  0  0  0  0  # atno 11005 bound_to 11000
  145.9762  139.2907  143.1069 LP  0  0  0  0  0  0  0  0  0  0  0  0  # atno 17320 bound_to 7965
  145.9061  140.9211  143.0478 LP  0  0  0  0  0  0  0  0  0  0  0  0  # atno 17321 bound_to 7965
  140.3536  144.3058  150.5945 LP  0  0  0  0  0  0  0  0  0  0  0  0  # atno 17342 bound_to 10162
  140.5464  143.2214  151.8001 LP  0  0  0  0  0  0  0  0  0  0  0  0  # atno 17343 bound_to 10162
  157.3123  130.6896  149.6222 LP  0  0  0  0  0  0  0  0  0  0  0  0  # atno 17370 bound_to 10713
  155.9663  130.4360  150.5114 LP  0  0  0  0  0  0  0  0  0  0  0  0  # atno 17371 bound_to 10713
  140.1722  134.9092  157.2847 LP  0  0  0  0  0  0  0  0  0  0  0  0  # atno 17394 bound_to 11000
  140.2489  134.3707  155.7450 LP  0  0  0  0  0  0  0  0  0  0  0  0  # atno 17395 bound_to 11000

$$$$
