AV-unprocessed.smi:549|AV-procd|sdf|2892|dock3
  -GOLD-   2262023383D 1   1.00000     0.00000
 Structure written by MMmdl.
 43 44  0  0  0  0  0  0  0  0  1 V2000
  144.4260  132.6343  150.5514 C   0  0  0  0  0  0  0  0  0  0  0  0
  143.5160  133.7635  150.6659 N   0  0  0  0  0  0  0  0  0  0  0  0
  143.9150  134.9416  151.3119 C   0  0  0  0  0  0  0  0  0  0  0  0
  142.9670  135.6444  152.0832 C   0  0  0  0  0  0  0  0  0  0  0  0
  143.3652  136.8268  152.7351 C   0  0  0  0  0  0  0  0  0  0  0  0
  144.6974  137.2674  152.6075 C   0  0  0  0  0  0  0  0  0  0  0  0
  145.0684  138.4736  153.2595 N   0  0  0  0  0  0  0  0  0  0  0  0
  146.2583  138.8004  153.7916 C   0  0  0  0  0  0  0  0  0  0  0  0
  147.2429  138.0634  153.8402 O   0  0  0  0  0  0  0  0  0  0  0  0
  146.2378  140.0418  154.2966 N   0  0  0  0  0  0  0  0  0  0  0  0
  147.3597  140.6981  154.9611 C   0  0  0  0  0  0  0  0  0  0  0  0
  148.5839  140.7626  154.0324 C   0  0  0  0  0  0  0  0  0  0  0  0
  149.7975  141.3821  154.7472 C   0  0  0  0  0  0  0  0  0  0  0  0
  150.0990  140.6863  156.0145 N   0  0  0  0  0  0  0  0  0  0  0  0
  151.4062  139.5396  156.0871 S   0  0  0  0  0  0  0  0  0  0  0  0
  150.7949  138.0983  155.1213 C   0  0  0  0  0  0  0  0  0  0  0  0
  152.5528  140.1187  155.3705 O   0  0  0  0  0  0  0  0  0  0  0  0
  151.5591  139.1201  157.4886 O   0  0  0  0  0  0  0  0  0  0  0  0
  148.9512  140.5567  156.9345 C   0  0  0  0  0  0  0  0  0  0  0  0
  147.7314  139.9295  156.2372 C   0  0  0  0  0  0  0  0  0  0  0  0
  145.5707  136.4990  151.8002 C   0  0  0  0  0  0  0  0  0  0  0  0
  145.1928  135.3657  151.1708 N   0  0  0  0  0  0  0  0  0  0  0  0
  143.9410  131.8183  150.0163 H   0  0  0  0  0  0  0  0  0  0  0  0
  144.7177  132.2703  151.5370 H   0  0  0  0  0  0  0  0  0  0  0  0
  145.3245  132.9165  150.0016 H   0  0  0  0  0  0  0  0  0  0  0  0
  142.5986  133.7009  150.2485 H   0  0  0  0  0  0  0  0  0  0  0  0
  141.9512  135.2881  152.1754 H   0  0  0  0  0  0  0  0  0  0  0  0
  142.6549  137.3837  153.3289 H   0  0  0  0  0  0  0  0  0  0  0  0
  144.3266  139.1475  153.3793 H   0  0  0  0  0  0  0  0  0  0  0  0
  145.3833  140.5731  154.2162 H   0  0  0  0  0  0  0  0  0  0  0  0
  147.0684  141.7120  155.2428 H   0  0  0  0  0  0  0  0  0  0  0  0
  148.8325  139.7633  153.6764 H   0  0  0  0  0  0  0  0  0  0  0  0
  148.3504  141.3513  153.1447 H   0  0  0  0  0  0  0  0  0  0  0  0
  150.6683  141.3743  154.0924 H   0  0  0  0  0  0  0  0  0  0  0  0
  149.5913  142.4293  154.9712 H   0  0  0  0  0  0  0  0  0  0  0  0
  151.5601  137.3224  155.1196 H   0  0  0  0  0  0  0  0  0  0  0  0
  150.5938  138.3980  154.0943 H   0  0  0  0  0  0  0  0  0  0  0  0
  149.8909  137.7009  155.5789 H   0  0  0  0  0  0  0  0  0  0  0  0
  149.2299  139.9713  157.8103 H   0  0  0  0  0  0  0  0  0  0  0  0
  148.6903  141.5504  157.3001 H   0  0  0  0  0  0  0  0  0  0  0  0
  146.8855  139.9209  156.9255 H   0  0  0  0  0  0  0  0  0  0  0  0
  147.9370  138.8869  155.9967 H   0  0  0  0  0  0  0  0  0  0  0  0
  146.5934  136.7932  151.6238 H   0  0  0  0  0  0  0  0  0  0  0  0
  1  2  1  0  0  0  0
  1 23  1  0  0  0  0
  1 24  1  0  0  0  0
  1 25  1  0  0  0  0
  2  3  1  0  0  0  0
  2 26  1  0  0  0  0
  3 22  1  0  0  0  0
  3  4  2  0  0  0  0
  4  5  1  0  0  0  0
  4 27  1  0  0  0  0
  5  6  2  0  0  0  0
  5 28  1  0  0  0  0
  6  7  1  0  0  0  0
  6 21  1  0  0  0  0
  7  8  1  0  0  0  0
  7 29  1  0  0  0  0
  8  9  2  0  0  0  0
  8 10  1  0  0  0  0
 10 11  1  0  0  0  0
 10 30  1  0  0  0  0
 11 20  1  0  0  0  0
 11 12  1  0  0  0  0
 11 31  1  0  0  0  0
 12 13  1  0  0  0  0
 12 32  1  0  0  0  0
 12 33  1  0  0  0  0
 13 14  1  0  0  0  0
 13 34  1  0  0  0  0
 13 35  1  0  0  0  0
 14 15  1  0  0  0  0
 14 19  1  0  0  0  0
 15 16  1  0  0  0  0
 15 17  2  0  0  0  0
 15 18  2  0  0  0  0
 16 36  1  0  0  0  0
 16 37  1  0  0  0  0
 16 38  1  0  0  0  0
 19 20  1  0  0  0  0
 19 39  1  0  0  0  0
 19 40  1  0  0  0  0
 20 41  1  0  0  0  0
 20 42  1  0  0  0  0
 21 22  2  0  0  0  0
 21 43  1  0  0  0  0
M  END
> <s_m_source_file>
AV-unprocessed.smi

> <i_m_source_file_index>
549

> <i_lp_mmshare_version>
43012

> <i_f3d_flags>
0

> <s_epik_input>
W0NIM11bTkhdYzFbY0hdW2NIXWMoW2NIXW4xKVtOSF1DKD1PKVtOSF1bQ0hdMltDSDJdW0NIMl1OKFMoPU8pKD1PKVtDSDNdKVtDSDJdW0NIMl0y

> <s_epik_cmdline>
J2VwaWtfcHl0aG9uJywgJy1waCcsICc3LjAnLCAnLXRuJywgJzgnLCAnLW1hJywgJzIwMCcsICctbWV0YWxfYmluZGluZycsICctaW1hZScsICc8aW5maWxlLm1hZT4nLCAnLW9tYWUnLCAnPG91dGZpbGUubWFlPic=

> <r_lp_tautomer_probability>
1

> <r_epik_Ionization_Penalty>
0.374305

> <r_epik_Ionization_Penalty_Charging>
0

> <r_epik_Ionization_Penalty_Neutral>
0.374305

> <r_epik_State_Penalty>
0.371422

> <r_epik_Charging_Adjusted_Penalty>
0.371422

> <i_epik_Tot_Q>
0

> <i_epik_Tot_abs_Q>
0

> <r_epik_Metal_State_Penalty>
0.225857

> <b_epik_Metal_Only>
0

> <s_lp_Force_Field>
OPLS_2005

> <r_lp_Energy>
1.99328

> <b_lp_Chiralities_Consistent>
1

> <s_lp_Variant>
AV-unprocessed.smi:549-1

> <Gold.Version>
5.8.1

> <Gold.Id.Protein>
6NUR|6NUR_protein|mol2

> <Gold.PLP.Fitness>
40.5455

> <Gold.PLP.PLP>
-29.3606

> <Gold.PLP.part.hbond>
-4.2606

> <Gold.PLP.part.metal>
0.0000

> <Gold.PLP.part.buried>
-2.5989

> <Gold.PLP.part.nonpolar>
-22.1461

> <Gold.PLP.part.repulsive>
0.3779

> <Gold.PLP.ligand.clash>
0.0000

> <Gold.PLP.ligand.torsion>
1.5279

> <Gold.PLP.Chemscore.Hbond>
3.0592

> <Gold.PLP.Chemscore.CHOScore>
1.0000

> <Gold.PLP.Chemscore.Metal>
0.0000

> <Gold.Chemscore.Hbonds>
donor molecule, donor type, donor heavy atom, donor atom, acceptor molecule, acceptor atom, score
      L1  H     2    26       P1 10186  1.00
      L1  H     7    29       P1 10175  0.74
      P1  H  7989  7998       L1    17  0.33
      P1  H  7997  8010       L1    17  1.00
      L1  C    21    43       P1  7948  1.00

> <Gold.PLP.Chemscore.Internal.Correction>
2.0632

> <Gold.Rescore>
     Score         DG    S(hbond)    S(metal)    S(lipo)     H(rot)  DE(clash)    DE(int)     intcor
     14.81     -18.75       2.90        0.00      52.40       1.00       0.42       3.52       ----

> <Gold.Chemscore.Fitness>
14.8056

> <Gold.Chemscore.DG>
-18.7453

> <Gold.Chemscore.ZeroCoef>
-5.4800

> <Gold.Chemscore.Hbond>
2.9026

> <Gold.Chemscore.Metal>
0.0000

> <Gold.Chemscore.Lipo>
52.4000

> <Gold.Chemscore.Internal_Hbond>
0.0000

> <Gold.Chemscore.DEClash>
0.4151

> <Gold.Chemscore.DEInternal>
3.5246

> <Gold.Chemscore.Rot>
1.0000

> <Gold.Chemscore.Internal.Correction>
   9.000000E+99

> <Gold.Chemscore.Hbonds>
donor molecule, donor type, donor heavy atom, donor atom, acceptor molecule, acceptor atom, score
      L1  H     2    26       P1 10186  0.97
      L1  H     7    29       P1 10175  0.74
      L1  H    10    30       P1 10175  0.04
      P1  H  7989  7998       L1    17  0.15
      P1  H  7997  8010       L1    17  0.96

> <Gold.Chemscore.Hbond.Weighted>
-9.6945

> <Gold.Chemscore.Metal.Weighted>
-0.0000

> <Gold.Chemscore.Lipo.Weighted>
-6.1308

> <Gold.Chemscore.Internal_Hbond.Weighted>
0.0000

> <Gold.Chemscore.DEClash.Weighted>
0.4151

> <Gold.Chemscore.DEInternal.Weighted>
3.5246

> <Gold.Chemscore.Rot.Weighted>
2.5600

> <Gold.Chemscore.Internal.Correction.Weighted>
   9.000000E+99

> <Gold.Protein.RotatedTorsions>
[ 6907 6896 6895 6894 ] final  159.09 input  -60.11 | X-H torsion
[ 7974 7965 7964 7962 ] final -142.14 input  175.53 | X-H torsion
[ 8008 7997 7996 7995 ] final   85.75 input   59.86 | X-H torsion
[ 10167 10162 10161 10158 ] final   39.08 input  -65.29 | X-H torsion
[ 10718 10713 10712 10709 ] final  -84.31 input   66.30 | X-H torsion
[ 10763 10752 10751 10750 ] final  130.49 input  -60.55 | X-H torsion
[ 11005 11000 10999 10996 ] final  -24.79 input  -57.11 | X-H torsion

> <Gold.Protein.ActiveResidues>
 VAL166  LYS551  ARG553  GLY616  TRP617  ASP618  TYR619  PRO620  LYS621  CYS622 
 ASP623  PHE694  ASN695  SER759  ASP760  ASP761  ALA762  ILE779  LEU786  VAL792 
 PHE793  MET794  SER795  GLU796  ALA797  LYS798  CYS799  TRP800  GLU811  SER814 

> <Gold.Protein.RotatedAtoms>
  151.9907  133.3790  159.4143 H   0  0  0  0  0  0  0  0  0  0  0  0  # atno 6907 bound_to 6896
  150.6922  134.3940  159.5098 H   0  0  0  0  0  0  0  0  0  0  0  0  # atno 6908 bound_to 6896
  152.1672  134.8863  160.0588 H   0  0  0  0  0  0  0  0  0  0  0  0  # atno 6909 bound_to 6896
  144.8466  140.5995  143.5417 H   0  0  0  0  0  0  0  0  0  0  0  0  # atno 7974 bound_to 7965
  155.9540  140.3398  155.6433 H   0  0  0  0  0  0  0  0  0  0  0  0  # atno 8008 bound_to 7997
  155.6883  140.0746  157.2476 H   0  0  0  0  0  0  0  0  0  0  0  0  # atno 8009 bound_to 7997
  154.4128  140.1662  156.2046 H   0  0  0  0  0  0  0  0  0  0  0  0  # atno 8010 bound_to 7997
  140.3874  144.1898  150.6130 H   0  0  0  0  0  0  0  0  0  0  0  0  # atno 10167 bound_to 10162
  156.0008  130.4693  150.4390 H   0  0  0  0  0  0  0  0  0  0  0  0  # atno 10718 bound_to 10713
  153.7589  135.3199  155.3334 H   0  0  0  0  0  0  0  0  0  0  0  0  # atno 10763 bound_to 10752
  154.8237  135.4585  154.0857 H   0  0  0  0  0  0  0  0  0  0  0  0  # atno 10764 bound_to 10752
  153.2082  135.6932  153.8229 H   0  0  0  0  0  0  0  0  0  0  0  0  # atno 10765 bound_to 10752
  140.8877  133.7610  156.0382 H   0  0  0  0  0  0  0  0  0  0  0  0  # atno 11005 bound_to 11000
  145.4584  139.1515  143.3880 LP  0  0  0  0  0  0  0  0  0  0  0  0  # atno 17320 bound_to 7965
  146.2749  140.4713  142.8799 LP  0  0  0  0  0  0  0  0  0  0  0  0  # atno 17321 bound_to 7965
  140.4875  143.2358  151.8867 LP  0  0  0  0  0  0  0  0  0  0  0  0  # atno 17342 bound_to 10162
  139.4791  144.5203  151.8811 LP  0  0  0  0  0  0  0  0  0  0  0  0  # atno 17343 bound_to 10162
  157.2432  131.0530  151.2424 LP  0  0  0  0  0  0  0  0  0  0  0  0  # atno 17370 bound_to 10713
  157.3600  130.7126  149.6495 LP  0  0  0  0  0  0  0  0  0  0  0  0  # atno 17371 bound_to 10713
  140.8384  134.3095  157.5323 LP  0  0  0  0  0  0  0  0  0  0  0  0  # atno 17394 bound_to 11000
  139.8726  134.9402  156.3764 LP  0  0  0  0  0  0  0  0  0  0  0  0  # atno 17395 bound_to 11000

$$$$
