AV-unprocessed.smi:3348|AV-procd|sdf|12925|dock7
  -GOLD-   2272019353D 1   1.00000     0.00000
 Structure written by MMmdl.
 46 47  0  0  0  0  0  0  0  0  1 V2000
  144.3853  135.4018  153.2665 C   0  0  0  0  0  0  0  0  0  0  0  0
  144.3832  136.2517  151.9883 C   0  0  2  0  0  0  0  0  0  0  0  0
  145.3835  135.6629  150.9637 C   0  0  0  0  0  0  0  0  0  0  0  0
  145.2658  134.2297  150.7678 N   0  0  0  0  0  0  0  0  0  0  0  0
  144.1415  133.5008  150.4394 C   0  0  0  0  0  0  0  0  0  0  0  0
  144.5159  132.1903  150.3615 C   0  0  0  0  0  0  0  0  0  0  0  0
  145.9083  132.2192  150.6537 C   0  0  0  0  0  0  0  0  0  0  0  0
  146.3555  133.4417  150.8928 N   0  0  0  0  0  0  0  0  0  0  0  0
  144.7110  137.6370  152.3393 N   0  0  0  0  0  0  0  0  0  0  0  0
  145.9176  137.8106  153.1487 C   0  0  0  0  0  0  0  0  0  0  0  0
  146.6759  139.0735  152.7343 C   0  0  0  0  0  0  0  0  0  0  0  0
  147.7244  139.2674  153.6714 O   0  0  0  0  0  0  0  0  0  0  0  0
  148.3874  140.5236  153.5908 C   0  0  1  0  0  0  0  0  0  0  0  0
  147.3966  141.6837  153.8295 C   0  0  0  0  0  0  0  0  0  0  0  0
  146.8146  141.6474  155.2519 C   0  0  0  0  0  0  0  0  0  0  0  0
  147.9301  141.6584  156.3076 C   0  0  0  0  0  0  0  0  0  0  0  0
  148.9263  140.5102  156.0800 C   0  0  0  0  0  0  0  0  0  0  0  0
  149.5105  140.5405  154.6527 C   0  0  1  0  0  0  0  0  0  0  0  0
  150.5329  139.4147  154.4312 C   0  0  0  0  0  0  0  0  0  0  0  0
  144.1101  134.3687  153.0514 H   0  0  0  0  0  0  0  0  0  0  0  0
  143.6699  135.7845  153.9953 H   0  0  0  0  0  0  0  0  0  0  0  0
  145.3689  135.3925  153.7377 H   0  0  0  0  0  0  0  0  0  0  0  0
  143.3741  136.2066  151.5757 H   0  0  0  0  0  0  0  0  0  0  0  0
  145.2669  136.1551  149.9969 H   0  0  0  0  0  0  0  0  0  0  0  0
  146.4059  135.8650  151.2857 H   0  0  0  0  0  0  0  0  0  0  0  0
  143.1788  133.9694  150.2991 H   0  0  0  0  0  0  0  0  0  0  0  0
  143.8901  131.3409  150.1312 H   0  0  0  0  0  0  0  0  0  0  0  0
  146.6032  131.3938  150.6993 H   0  0  0  0  0  0  0  0  0  0  0  0
  144.7927  138.1941  151.4948 H   0  0  0  0  0  0  0  0  0  0  0  0
  145.6959  137.8615  154.2117 H   0  0  0  0  0  0  0  0  0  0  0  0
  146.5633  136.9423  153.0149 H   0  0  0  0  0  0  0  0  0  0  0  0
  147.1016  138.9296  151.7404 H   0  0  0  0  0  0  0  0  0  0  0  0
  146.0046  139.9309  152.6844 H   0  0  0  0  0  0  0  0  0  0  0  0
  148.8429  140.6320  152.6049 H   0  0  0  0  0  0  0  0  0  0  0  0
  147.9153  142.6316  153.6810 H   0  0  0  0  0  0  0  0  0  0  0  0
  146.5912  141.6694  153.0961 H   0  0  0  0  0  0  0  0  0  0  0  0
  146.1510  142.4989  155.4040 H   0  0  0  0  0  0  0  0  0  0  0  0
  146.2020  140.7531  155.3747 H   0  0  0  0  0  0  0  0  0  0  0  0
  148.4582  142.6120  156.2702 H   0  0  0  0  0  0  0  0  0  0  0  0
  147.4978  141.5838  157.3059 H   0  0  0  0  0  0  0  0  0  0  0  0
  149.7305  140.5765  156.8136 H   0  0  0  0  0  0  0  0  0  0  0  0
  148.4288  139.5560  156.2569 H   0  0  0  0  0  0  0  0  0  0  0  0
  150.0494  141.4828  154.5412 H   0  0  0  0  0  0  0  0  0  0  0  0
  150.0772  138.4313  154.5503 H   0  0  0  0  0  0  0  0  0  0  0  0
  151.3547  139.4861  155.1441 H   0  0  0  0  0  0  0  0  0  0  0  0
  150.9602  139.4642  153.4296 H   0  0  0  0  0  0  0  0  0  0  0  0
  1  2  1  0  0  0  0
  1 20  1  0  0  0  0
  1 21  1  0  0  0  0
  1 22  1  0  0  0  0
  2  3  1  0  0  0  0
  2  9  1  0  0  0  0
  2 23  1  0  0  0  0
  3  4  1  0  0  0  0
  3 24  1  0  0  0  0
  3 25  1  0  0  0  0
  4  8  1  0  0  0  0
  4  5  1  0  0  0  0
  5  6  2  0  0  0  0
  5 26  1  0  0  0  0
  6  7  1  0  0  0  0
  6 27  1  0  0  0  0
  7  8  2  0  0  0  0
  7 28  1  0  0  0  0
  9 10  1  0  0  0  0
  9 29  1  0  0  0  0
 10 11  1  0  0  0  0
 10 30  1  0  0  0  0
 10 31  1  0  0  0  0
 11 12  1  0  0  0  0
 11 32  1  0  0  0  0
 11 33  1  0  0  0  0
 12 13  1  0  0  0  0
 13 18  1  0  0  0  0
 13 14  1  0  0  0  0
 13 34  1  0  0  0  0
 14 15  1  0  0  0  0
 14 35  1  0  0  0  0
 14 36  1  0  0  0  0
 15 16  1  0  0  0  0
 15 37  1  0  0  0  0
 15 38  1  0  0  0  0
 16 17  1  0  0  0  0
 16 39  1  0  0  0  0
 16 40  1  0  0  0  0
 17 18  1  0  0  0  0
 17 41  1  0  0  0  0
 17 42  1  0  0  0  0
 18 19  1  0  0  0  0
 18 43  1  0  0  0  0
 19 44  1  0  0  0  0
 19 45  1  0  0  0  0
 19 46  1  0  0  0  0
M  END
> <s_m_source_file>
AV-unprocessed.smi

> <i_m_source_file_index>
3348

> <i_lp_mmshare_version>
43012

> <i_f3d_flags>
0

> <s_epik_input>
bjFbY0hdW2NIXVtjSF1uMVtDSDJdW0NAQEhdKFtDSDNdKVtOSF1bQ0gyXVtDSDJdT1tDQEBIXTJbQ0gyXVtDSDJdW0NIMl1bQ0gyXVtDQEhdMltDSDNd

> <s_epik_cmdline>
J2VwaWtfcHl0aG9uJywgJy1waCcsICc3LjAnLCAnLXRuJywgJzgnLCAnLW1hJywgJzIwMCcsICctbWV0YWxfYmluZGluZycsICctaW1hZScsICc8aW5maWxlLm1hZT4nLCAnLW9tYWUnLCAnPG91dGZpbGUubWFlPic=

> <r_lp_tautomer_probability>
1

> <r_epik_Ionization_Penalty>
2.46945

> <r_epik_Ionization_Penalty_Charging>
0

> <r_epik_Ionization_Penalty_Neutral>
2.46945

> <r_epik_State_Penalty>
2.6322

> <r_epik_Charging_Adjusted_Penalty>
2.6322

> <i_epik_Tot_Q>
0

> <i_epik_Tot_abs_Q>
0

> <r_epik_Metal_State_Penalty>
2.63217

> <b_epik_Metal_Only>
0

> <s_lp_Force_Field>
OPLS_2005

> <r_lp_Energy>
18.1509

> <b_lp_Chiralities_Consistent>
1

> <s_lp_Variant>
AV-unprocessed.smi:3348-11

> <Gold.Version>
5.8.1

> <Gold.Id.Protein>
6NUR|6NUR_protein|mol2

> <Gold.PLP.Fitness>
43.5814

> <Gold.PLP.PLP>
-35.8792

> <Gold.PLP.part.hbond>
-2.0000

> <Gold.PLP.part.metal>
0.0000

> <Gold.PLP.part.buried>
-2.0671

> <Gold.PLP.part.nonpolar>
-31.7954

> <Gold.PLP.part.repulsive>
0.3889

> <Gold.PLP.ligand.clash>
0.0000

> <Gold.PLP.ligand.torsion>
0.4583

> <Gold.PLP.Chemscore.Hbond>
0.8160

> <Gold.PLP.Chemscore.CHOScore>
2.0000

> <Gold.PLP.Chemscore.Metal>
0.0000

> <Gold.Chemscore.Hbonds>
donor molecule, donor type, donor heavy atom, donor atom, acceptor molecule, acceptor atom, score
      L1  H     9    29       P1 10171  0.85
      L1  C     5    26       P1 10186  1.00
      L1  C     7    28       P1 10747  1.00

> <Gold.PLP.Chemscore.Internal.Correction>
0.1708

> <Gold.Rescore>
     Score         DG    S(hbond)    S(metal)    S(lipo)     H(rot)  DE(clash)    DE(int)     intcor
     14.24     -14.93       0.92        0.00      92.21       1.72       0.26       0.43       ----

> <Gold.Chemscore.Fitness>
14.2443

> <Gold.Chemscore.DG>
-14.9283

> <Gold.Chemscore.ZeroCoef>
-5.4800

> <Gold.Chemscore.Hbond>
0.9198

> <Gold.Chemscore.Metal>
0.0000

> <Gold.Chemscore.Lipo>
92.2120

> <Gold.Chemscore.Internal_Hbond>
0.0000

> <Gold.Chemscore.DEClash>
0.2564

> <Gold.Chemscore.DEInternal>
0.4276

> <Gold.Chemscore.Rot>
1.7237

> <Gold.Chemscore.Internal.Correction>
   9.000000E+99

> <Gold.Chemscore.Hbonds>
donor molecule, donor type, donor heavy atom, donor atom, acceptor molecule, acceptor atom, score
      L1  H     9    29       P1 10171  0.82

> <Gold.Chemscore.Hbond.Weighted>
-3.0721

> <Gold.Chemscore.Metal.Weighted>
-0.0000

> <Gold.Chemscore.Lipo.Weighted>
-10.7888

> <Gold.Chemscore.Internal_Hbond.Weighted>
0.0000

> <Gold.Chemscore.DEClash.Weighted>
0.2564

> <Gold.Chemscore.DEInternal.Weighted>
0.4276

> <Gold.Chemscore.Rot.Weighted>
4.4126

> <Gold.Chemscore.Internal.Correction.Weighted>
   9.000000E+99

> <Gold.Protein.RotatedTorsions>
[ 6907 6896 6895 6894 ] final  158.33 input  -60.11 | X-H torsion
[ 7974 7965 7964 7962 ] final  148.59 input  175.53 | X-H torsion
[ 8008 7997 7996 7995 ] final  153.26 input   59.86 | X-H torsion
[ 10167 10162 10161 10158 ] final  141.14 input  -65.29 | X-H torsion
[ 10718 10713 10712 10709 ] final -121.70 input   66.30 | X-H torsion
[ 10763 10752 10751 10750 ] final  -60.86 input  -60.55 | X-H torsion
[ 11005 11000 10999 10996 ] final  -63.79 input  -57.11 | X-H torsion

> <Gold.Protein.ActiveResidues>
 VAL166  LYS551  ARG553  GLY616  TRP617  ASP618  TYR619  PRO620  LYS621  CYS622 
 ASP623  PHE694  ASN695  SER759  ASP760  ASP761  ALA762  ILE779  LEU786  VAL792 
 PHE793  MET794  SER795  GLU796  ALA797  LYS798  CYS799  TRP800  GLU811  SER814 

> <Gold.Protein.RotatedAtoms>
  152.0020  133.3829  159.4185 H   0  0  0  0  0  0  0  0  0  0  0  0  # atno 6907 bound_to 6896
  150.6909  134.3823  159.5049 H   0  0  0  0  0  0  0  0  0  0  0  0  # atno 6908 bound_to 6896
  152.1572  134.8941  160.0595 H   0  0  0  0  0  0  0  0  0  0  0  0  # atno 6909 bound_to 6896
  144.8502  139.6173  143.5977 H   0  0  0  0  0  0  0  0  0  0  0  0  # atno 7974 bound_to 7965
  156.2590  140.1998  156.6463 H   0  0  0  0  0  0  0  0  0  0  0  0  # atno 8008 bound_to 7997
  154.6571  140.0565  157.0045 H   0  0  0  0  0  0  0  0  0  0  0  0  # atno 8009 bound_to 7997
  155.1331  140.3235  155.4472 H   0  0  0  0  0  0  0  0  0  0  0  0  # atno 8010 bound_to 7997
  139.5029  144.6190  151.6095 H   0  0  0  0  0  0  0  0  0  0  0  0  # atno 10167 bound_to 10162
  156.1358  130.6429  150.9694 H   0  0  0  0  0  0  0  0  0  0  0  0  # atno 10718 bound_to 10713
  154.2757  135.6281  153.5327 H   0  0  0  0  0  0  0  0  0  0  0  0  # atno 10763 bound_to 10752
  152.9873  135.5621  154.5551 H   0  0  0  0  0  0  0  0  0  0  0  0  # atno 10764 bound_to 10752
  154.5131  135.2878  155.1302 H   0  0  0  0  0  0  0  0  0  0  0  0  # atno 10765 bound_to 10752
  141.1404  133.6657  156.5735 H   0  0  0  0  0  0  0  0  0  0  0  0  # atno 11005 bound_to 11000
  146.2778  139.6799  142.9250 LP  0  0  0  0  0  0  0  0  0  0  0  0  # atno 17320 bound_to 7965
  145.4515  141.0428  143.2802 LP  0  0  0  0  0  0  0  0  0  0  0  0  # atno 17321 bound_to 7965
  140.5887  143.9818  150.6311 LP  0  0  0  0  0  0  0  0  0  0  0  0  # atno 17342 bound_to 10162
  140.2992  143.3272  152.0988 LP  0  0  0  0  0  0  0  0  0  0  0  0  # atno 17343 bound_to 10162
  157.6531  131.0894  150.8007 LP  0  0  0  0  0  0  0  0  0  0  0  0  # atno 17370 bound_to 10713
  156.8087  130.4945  149.5359 LP  0  0  0  0  0  0  0  0  0  0  0  0  # atno 17371 bound_to 10713
  140.3894  134.7453  157.4712 LP  0  0  0  0  0  0  0  0  0  0  0  0  # atno 17394 bound_to 11000
  140.0577  134.6039  155.8785 LP  0  0  0  0  0  0  0  0  0  0  0  0  # atno 17395 bound_to 11000

$$$$
