AV-unprocessed.smi:2925|AV-procd|sdf|11222|dock4
  -GOLD-   2272016113D 1   1.00000     0.00000
 Structure written by MMmdl.
 44 45  0  0  0  0  0  0  0  0  1 V2000
  146.6139  137.3692  155.5364 C   0  0  0  0  0  0  0  0  0  0  0  0
  145.7234  138.2579  154.6557 C   0  0  0  0  0  0  0  0  0  0  0  0
  146.2398  138.4429  153.2113 C   0  0  2  0  0  0  0  0  0  0  0  0
  146.6332  137.1526  152.6454 N   0  0  0  0  0  0  0  0  0  0  0  0
  145.8056  136.1381  152.3556 C   0  0  0  0  0  0  0  0  0  0  0  0
  144.5924  136.1581  152.5673 O   0  0  0  0  0  0  0  0  0  0  0  0
  146.4770  135.0933  151.8395 N   0  0  0  0  0  0  0  0  0  0  0  0
  145.9317  133.8492  151.4852 C   0  0  0  0  0  0  0  0  0  0  0  0
  144.9018  133.8130  150.5990 C   0  0  0  0  0  0  0  0  0  0  0  0
  144.3576  135.0769  149.9522 C   0  0  0  0  0  0  0  0  0  0  0  0
  144.3225  132.5341  150.2438 C   0  0  0  0  0  0  0  0  0  0  0  0
  144.8036  131.4152  150.8015 C   0  0  0  0  0  0  0  0  0  0  0  0
  145.8485  131.4483  151.7360 N   0  0  0  0  0  0  0  0  0  0  0  0
  146.2932  130.1721  152.3024 C   0  0  0  0  0  0  0  0  0  0  0  0
  146.4283  132.6148  152.1414 C   0  0  0  0  0  0  0  0  0  0  0  0
  147.2975  132.6161  153.0162 O   0  0  0  0  0  0  0  0  0  0  0  0
  147.4485  139.3984  153.1476 C   0  0  2  0  0  0  0  0  0  0  0  0
  148.6396  138.9915  154.0183 C   0  0  0  0  0  0  0  0  0  0  0  0
  149.3412  140.3084  154.3158 C   0  0  0  0  0  0  0  0  0  0  0  0
  148.3311  141.3757  153.8877 C   0  0  0  0  0  0  0  0  0  0  0  0
  147.1160  140.6694  153.6866 O   0  0  0  0  0  0  0  0  0  0  0  0
  146.1573  137.2136  156.5139 H   0  0  0  0  0  0  0  0  0  0  0  0
  147.5932  137.8182  155.7015 H   0  0  0  0  0  0  0  0  0  0  0  0
  146.7652  136.3903  155.0806 H   0  0  0  0  0  0  0  0  0  0  0  0
  144.7286  137.8133  154.6292 H   0  0  0  0  0  0  0  0  0  0  0  0
  145.6049  139.2314  155.1329 H   0  0  0  0  0  0  0  0  0  0  0  0
  145.4386  138.8803  152.6126 H   0  0  0  0  0  0  0  0  0  0  0  0
  147.6139  137.0343  152.4383 H   0  0  0  0  0  0  0  0  0  0  0  0
  147.4842  135.1524  151.8239 H   0  0  0  0  0  0  0  0  0  0  0  0
  143.5501  134.8486  149.2560 H   0  0  0  0  0  0  0  0  0  0  0  0
  145.1426  135.5914  149.3969 H   0  0  0  0  0  0  0  0  0  0  0  0
  143.9658  135.7563  150.7096 H   0  0  0  0  0  0  0  0  0  0  0  0
  143.5135  132.4760  149.5302 H   0  0  0  0  0  0  0  0  0  0  0  0
  144.4141  130.4337  150.5736 H   0  0  0  0  0  0  0  0  0  0  0  0
  147.3576  130.0205  152.1170 H   0  0  0  0  0  0  0  0  0  0  0  0
  145.7657  129.3162  151.8800 H   0  0  0  0  0  0  0  0  0  0  0  0
  146.1304  130.1551  153.3810 H   0  0  0  0  0  0  0  0  0  0  0  0
  147.7741  139.5318  152.1138 H   0  0  0  0  0  0  0  0  0  0  0  0
  148.2908  138.5475  154.9517 H   0  0  0  0  0  0  0  0  0  0  0  0
  149.2920  138.2694  153.5265 H   0  0  0  0  0  0  0  0  0  0  0  0
  149.5820  140.3863  155.3767 H   0  0  0  0  0  0  0  0  0  0  0  0
  150.2693  140.4067  153.7521 H   0  0  0  0  0  0  0  0  0  0  0  0
  148.2111  142.1641  154.6312 H   0  0  0  0  0  0  0  0  0  0  0  0
  148.6373  141.8377  152.9479 H   0  0  0  0  0  0  0  0  0  0  0  0
  1  2  1  0  0  0  0
  1 22  1  0  0  0  0
  1 23  1  0  0  0  0
  1 24  1  0  0  0  0
  2  3  1  0  0  0  0
  2 25  1  0  0  0  0
  2 26  1  0  0  0  0
  3  4  1  0  0  0  0
  3 17  1  0  0  0  0
  3 27  1  0  0  0  0
  4  5  1  0  0  0  0
  4 28  1  0  0  0  0
  5  6  2  0  0  0  0
  5  7  1  0  0  0  0
  7  8  1  0  0  0  0
  7 29  1  0  0  0  0
  8 15  1  0  0  0  0
  8  9  2  0  0  0  0
  9 10  1  0  0  0  0
  9 11  1  0  0  0  0
 10 30  1  0  0  0  0
 10 31  1  0  0  0  0
 10 32  1  0  0  0  0
 11 12  2  0  0  0  0
 11 33  1  0  0  0  0
 12 13  1  0  0  0  0
 12 34  1  0  0  0  0
 13 14  1  0  0  0  0
 13 15  1  0  0  0  0
 14 35  1  0  0  0  0
 14 36  1  0  0  0  0
 14 37  1  0  0  0  0
 15 16  2  0  0  0  0
 17 21  1  0  0  0  0
 17 18  1  0  0  0  0
 17 38  1  0  0  0  0
 18 19  1  0  0  0  0
 18 39  1  0  0  0  0
 18 40  1  0  0  0  0
 19 20  1  0  0  0  0
 19 41  1  0  0  0  0
 19 42  1  0  0  0  0
 20 21  1  0  0  0  0
 20 43  1  0  0  0  0
 20 44  1  0  0  0  0
M  END
> <s_m_source_file>
AV-unprocessed.smi

> <i_m_source_file_index>
2925

> <i_lp_mmshare_version>
43012

> <i_f3d_flags>
0

> <s_epik_input>
TzFbQ0gyXVtDSDJdW0NIMl1bQ0BIXTFbQ0BIXShbQ0gyXVtDSDNdKVtOSF1DKD1PKVtOSF1jMmMoW0NIM10pW2NIXVtjSF1uKFtDSDNdKWMyPU8=

> <s_epik_cmdline>
J2VwaWtfcHl0aG9uJywgJy1waCcsICc3LjAnLCAnLXRuJywgJzgnLCAnLW1hJywgJzIwMCcsICctbWV0YWxfYmluZGluZycsICctaW1hZScsICc8aW5maWxlLm1hZT4nLCAnLW9tYWUnLCAnPG91dGZpbGUubWFlPic=

> <r_lp_tautomer_probability>
1

> <r_epik_Ionization_Penalty>
2.58789e-05

> <r_epik_Ionization_Penalty_Charging>
6.72534e-06

> <r_epik_Ionization_Penalty_Neutral>
1.91535e-05

> <r_epik_State_Penalty>
-0

> <r_epik_Charging_Adjusted_Penalty>
6.72534e-06

> <i_epik_Tot_Q>
0

> <i_epik_Tot_abs_Q>
0

> <r_epik_Metal_State_Penalty>
-0

> <b_epik_Metal_Only>
0

> <s_lp_Force_Field>
OPLS_2005

> <r_lp_Energy>
35.6543

> <b_lp_Chiralities_Consistent>
1

> <s_lp_Variant>
AV-unprocessed.smi:2925-1

> <Gold.Version>
5.8.1

> <Gold.Id.Protein>
6NUR|6NUR_protein|mol2

> <Gold.PLP.Fitness>
39.2893

> <Gold.PLP.PLP>
-34.1723

> <Gold.PLP.part.hbond>
-2.0000

> <Gold.PLP.part.metal>
0.0000

> <Gold.PLP.part.buried>
-2.5685

> <Gold.PLP.part.nonpolar>
-29.5298

> <Gold.PLP.part.repulsive>
0.4714

> <Gold.PLP.ligand.clash>
0.0066

> <Gold.PLP.ligand.torsion>
0.7175

> <Gold.PLP.Chemscore.Hbond>
1.9920

> <Gold.PLP.Chemscore.CHOScore>
0.0000

> <Gold.PLP.Chemscore.Metal>
0.0000

> <Gold.Chemscore.Hbonds>
donor molecule, donor type, donor heavy atom, donor atom, acceptor molecule, acceptor atom, score
      L1  H     4    28       P1  7948  1.00
      L1  H     7    29       P1  7948  0.96

> <Gold.PLP.Chemscore.Internal.Correction>
0.5827

> <Gold.Rescore>
     Score         DG    S(hbond)    S(metal)    S(lipo)     H(rot)  DE(clash)    DE(int)     intcor
     15.86     -16.93       1.93        0.00      72.54       1.36       0.16       0.92       ----

> <Gold.Chemscore.Fitness>
15.8564

> <Gold.Chemscore.DG>
-16.9339

> <Gold.Chemscore.ZeroCoef>
-5.4800

> <Gold.Chemscore.Hbond>
1.9291

> <Gold.Chemscore.Metal>
0.0000

> <Gold.Chemscore.Lipo>
72.5399

> <Gold.Chemscore.Internal_Hbond>
0.0000

> <Gold.Chemscore.DEClash>
0.1567

> <Gold.Chemscore.DEInternal>
0.9208

> <Gold.Chemscore.Rot>
1.3579

> <Gold.Chemscore.Internal.Correction>
   9.000000E+99

> <Gold.Chemscore.Hbonds>
donor molecule, donor type, donor heavy atom, donor atom, acceptor molecule, acceptor atom, score
      L1  H     4    28       P1  7948  0.98
      L1  H     7    29       P1  7948  0.84

> <Gold.Chemscore.Hbond.Weighted>
-6.4431

> <Gold.Chemscore.Metal.Weighted>
-0.0000

> <Gold.Chemscore.Lipo.Weighted>
-8.4872

> <Gold.Chemscore.Internal_Hbond.Weighted>
0.0000

> <Gold.Chemscore.DEClash.Weighted>
0.1567

> <Gold.Chemscore.DEInternal.Weighted>
0.9208

> <Gold.Chemscore.Rot.Weighted>
3.4763

> <Gold.Chemscore.Internal.Correction.Weighted>
   9.000000E+99

> <Gold.Protein.RotatedTorsions>
[ 6907 6896 6895 6894 ] final  -14.54 input  -60.11 | X-H torsion
[ 7974 7965 7964 7962 ] final   56.91 input  175.53 | X-H torsion
[ 8008 7997 7996 7995 ] final  -57.14 input   59.86 | X-H torsion
[ 10167 10162 10161 10158 ] final   68.07 input  -65.29 | X-H torsion
[ 10718 10713 10712 10709 ] final   -7.81 input   66.30 | X-H torsion
[ 10763 10752 10751 10750 ] final  117.10 input  -60.55 | X-H torsion
[ 11005 11000 10999 10996 ] final  -77.64 input  -57.11 | X-H torsion

> <Gold.Protein.ActiveResidues>
 VAL166  LYS551  ARG553  GLY616  TRP617  ASP618  TYR619  PRO620  LYS621  CYS622 
 ASP623  PHE694  ASN695  SER759  ASP760  ASP761  ALA762  ILE779  LEU786  VAL792 
 PHE793  MET794  SER795  GLU796  ALA797  LYS798  CYS799  TRP800  GLU811  SER814 

> <Gold.Protein.RotatedAtoms>
  151.3378  135.0856  159.9360 H   0  0  0  0  0  0  0  0  0  0  0  0  # atno 6907 bound_to 6896
  152.5219  133.9478  159.7667 H   0  0  0  0  0  0  0  0  0  0  0  0  # atno 6908 bound_to 6896
  150.9829  133.6174  159.2749 H   0  0  0  0  0  0  0  0  0  0  0  0  # atno 6909 bound_to 6896
  145.9347  139.3837  143.0400 H   0  0  0  0  0  0  0  0  0  0  0  0  # atno 7974 bound_to 7965
  154.4256  140.1113  156.5749 H   0  0  0  0  0  0  0  0  0  0  0  0  # atno 8008 bound_to 7997
  155.6173  140.3495  155.4622 H   0  0  0  0  0  0  0  0  0  0  0  0  # atno 8009 bound_to 7997
  156.0052  140.1207  157.0498 H   0  0  0  0  0  0  0  0  0  0  0  0  # atno 8010 bound_to 7997
  140.0827  144.5057  150.7151 H   0  0  0  0  0  0  0  0  0  0  0  0  # atno 10167 bound_to 10162
  156.7118  130.5124  149.5890 H   0  0  0  0  0  0  0  0  0  0  0  0  # atno 10718 bound_to 10713
  153.5472  135.3547  155.2744 H   0  0  0  0  0  0  0  0  0  0  0  0  # atno 10763 bound_to 10752
  154.8711  135.4105  154.2977 H   0  0  0  0  0  0  0  0  0  0  0  0  # atno 10764 bound_to 10752
  153.3696  135.7063  153.6716 H   0  0  0  0  0  0  0  0  0  0  0  0  # atno 10765 bound_to 10752
  141.1661  133.7031  156.7851 H   0  0  0  0  0  0  0  0  0  0  0  0  # atno 11005 bound_to 11000
  145.8380  140.9596  143.0814 LP  0  0  0  0  0  0  0  0  0  0  0  0  # atno 17320 bound_to 7965
  144.6770  140.0247  143.7483 LP  0  0  0  0  0  0  0  0  0  0  0  0  # atno 17321 bound_to 7965
  140.7069  143.2475  151.4698 LP  0  0  0  0  0  0  0  0  0  0  0  0  # atno 17342 bound_to 10162
  139.5770  144.1796  152.1917 LP  0  0  0  0  0  0  0  0  0  0  0  0  # atno 17343 bound_to 10162
  156.1656  130.6403  151.0774 LP  0  0  0  0  0  0  0  0  0  0  0  0  # atno 17370 bound_to 10713
  157.6933  131.0802  150.7043 LP  0  0  0  0  0  0  0  0  0  0  0  0  # atno 17371 bound_to 10713
  140.2366  134.8645  157.3531 LP  0  0  0  0  0  0  0  0  0  0  0  0  # atno 17394 bound_to 11000
  140.1838  134.4457  155.7756 LP  0  0  0  0  0  0  0  0  0  0  0  0  # atno 17395 bound_to 11000

$$$$
