AV-unprocessed.smi:2217|AV-procd|sdf|8968|dock10
  -GOLD-   2272012183D 1   1.00000     0.00000
 Structure written by MMmdl.
 45 48  0  0  0  0  0  0  0  0  1 V2000
  149.1618  131.0204  153.9604 C   0  0  0  0  0  0  0  0  0  0  0  0
  149.7132  132.1482  154.8072 C   0  0  0  0  0  0  0  0  0  0  0  0
  149.6197  133.4869  154.3834 C   0  0  0  0  0  0  0  0  0  0  0  0
  150.1457  134.4987  155.2095 C   0  0  0  0  0  0  0  0  0  0  0  0
  150.7525  134.1539  156.4384 C   0  0  0  0  0  0  0  0  0  0  0  0
  151.2410  135.2654  157.1872 N   0  0  0  0  0  0  0  0  0  0  0  0
  151.6973  136.4752  156.7981 C   0  0  0  0  0  0  0  0  0  0  0  0
  151.7420  136.7840  155.6086 O   0  0  0  0  0  0  0  0  0  0  0  0
  152.0882  137.3048  157.7773 N   0  0  0  0  0  0  0  0  0  0  0  0
  152.5383  138.6770  157.5840 C   0  0  2  0  0  0  0  0  0  0  0  0
  152.3403  139.5361  158.8326 C   0  0  1  0  0  0  0  0  0  0  0  0
  153.2604  140.1887  159.8014 C   0  0  0  0  0  0  0  0  0  0  0  0
  152.5879  141.5863  159.8299 C   0  0  0  0  0  0  0  0  0  0  0  0
  151.6238  141.5857  158.7496 O   0  0  0  0  0  0  0  0  0  0  0  0
  152.1485  140.6532  157.8263 C   0  0  2  0  0  0  0  0  0  0  0  0
  151.4528  139.6118  156.9260 C   0  0  0  0  0  0  0  0  0  0  0  0
  151.5581  139.8238  155.4093 C   0  0  0  0  0  0  0  0  0  0  0  0
  150.1574  139.7136  154.8027 C   0  0  0  0  0  0  0  0  0  0  0  0
  149.3568  138.9142  155.8206 C   0  0  0  0  0  0  0  0  0  0  0  0
  149.9525  139.3354  157.1597 C   0  0  0  0  0  0  0  0  0  0  0  0
  150.8324  132.8588  156.8379 N   0  0  0  0  0  0  0  0  0  0  0  0
  150.3288  131.8888  156.0463 C   0  0  0  0  0  0  0  0  0  0  0  0
  149.1588  131.2919  152.9044 H   0  0  0  0  0  0  0  0  0  0  0  0
  148.1392  130.7909  154.2603 H   0  0  0  0  0  0  0  0  0  0  0  0
  149.7649  130.1194  154.0765 H   0  0  0  0  0  0  0  0  0  0  0  0
  149.1533  133.7384  153.4420 H   0  0  0  0  0  0  0  0  0  0  0  0
  150.0805  135.5311  154.8973 H   0  0  0  0  0  0  0  0  0  0  0  0
  151.2923  135.1040  158.1822 H   0  0  0  0  0  0  0  0  0  0  0  0
  152.0253  136.9728  158.7297 H   0  0  0  0  0  0  0  0  0  0  0  0
  153.5383  138.7657  157.1488 H   0  0  0  0  0  0  0  0  0  0  0  0
  151.4090  139.2645  159.3394 H   0  0  0  0  0  0  0  0  0  0  0  0
  153.2608  139.7037  160.7780 H   0  0  0  0  0  0  0  0  0  0  0  0
  154.2832  140.2350  159.4251 H   0  0  0  0  0  0  0  0  0  0  0  0
  152.0770  141.7737  160.7748 H   0  0  0  0  0  0  0  0  0  0  0  0
  153.3262  142.3752  159.6810 H   0  0  0  0  0  0  0  0  0  0  0  0
  153.0821  141.0247  157.3882 H   0  0  0  0  0  0  0  0  0  0  0  0
  152.0065  140.7862  155.1611 H   0  0  0  0  0  0  0  0  0  0  0  0
  152.2017  139.0626  154.9679 H   0  0  0  0  0  0  0  0  0  0  0  0
  149.7247  140.7099  154.7027 H   0  0  0  0  0  0  0  0  0  0  0  0
  150.1612  139.2524  153.8146 H   0  0  0  0  0  0  0  0  0  0  0  0
  148.2845  139.0986  155.7563 H   0  0  0  0  0  0  0  0  0  0  0  0
  149.5246  137.8476  155.6649 H   0  0  0  0  0  0  0  0  0  0  0  0
  149.7589  138.5772  157.9186 H   0  0  0  0  0  0  0  0  0  0  0  0
  149.4587  140.2468  157.4994 H   0  0  0  0  0  0  0  0  0  0  0  0
  150.4205  130.8776  156.4153 H   0  0  0  0  0  0  0  0  0  0  0  0
  1  2  1  0  0  0  0
  1 23  1  0  0  0  0
  1 24  1  0  0  0  0
  1 25  1  0  0  0  0
  2 22  1  0  0  0  0
  2  3  2  0  0  0  0
  3  4  1  0  0  0  0
  3 26  1  0  0  0  0
  4  5  2  0  0  0  0
  4 27  1  0  0  0  0
  5  6  1  0  0  0  0
  5 21  1  0  0  0  0
  6  7  1  0  0  0  0
  6 28  1  0  0  0  0
  7  8  2  0  0  0  0
  7  9  1  0  0  0  0
  9 10  1  0  0  0  0
  9 29  1  0  0  0  0
 10 16  1  0  0  0  0
 10 11  1  0  0  0  0
 10 30  1  0  0  0  0
 11 15  1  0  0  0  0
 11 12  1  0  0  0  0
 11 31  1  0  0  0  0
 12 13  1  0  0  0  0
 12 32  1  0  0  0  0
 12 33  1  0  0  0  0
 13 14  1  0  0  0  0
 13 34  1  0  0  0  0
 13 35  1  0  0  0  0
 14 15  1  0  0  0  0
 15 16  1  0  0  0  0
 15 36  1  0  0  0  0
 16 20  1  0  0  0  0
 16 17  1  0  0  0  0
 17 18  1  0  0  0  0
 17 37  1  0  0  0  0
 17 38  1  0  0  0  0
 18 19  1  0  0  0  0
 18 39  1  0  0  0  0
 18 40  1  0  0  0  0
 19 20  1  0  0  0  0
 19 41  1  0  0  0  0
 19 42  1  0  0  0  0
 20 43  1  0  0  0  0
 20 44  1  0  0  0  0
 21 22  2  0  0  0  0
 22 45  1  0  0  0  0
M  END
> <s_m_source_file>
AV-unprocessed.smi

> <i_m_source_file_index>
2217

> <i_lp_mmshare_version>
43012

> <i_f3d_flags>
0

> <s_epik_input>
W0NIM11jMVtjSF1bY0hdYyhuW2NIXTEpW05IXUMoPU8pW05IXVtDQEBIXTJbQ0BASF0oW0NIMl1bQ0gyXU8zKVtDQEhdM0MyNFtDSDJdW0NIMl1bQ0gyXVtDSDJdNA==

> <s_epik_cmdline>
J2VwaWtfcHl0aG9uJywgJy1waCcsICc3LjAnLCAnLXRuJywgJzgnLCAnLW1hJywgJzIwMCcsICctbWV0YWxfYmluZGluZycsICctaW1hZScsICc8aW5maWxlLm1hZT4nLCAnLW9tYWUnLCAnPG91dGZpbGUubWFlPic=

> <r_lp_tautomer_probability>
1

> <r_epik_Ionization_Penalty>
6.14796e-05

> <r_epik_Ionization_Penalty_Charging>
0

> <r_epik_Ionization_Penalty_Neutral>
6.14796e-05

> <r_epik_State_Penalty>
-0

> <r_epik_Charging_Adjusted_Penalty>
0

> <i_epik_Tot_Q>
0

> <i_epik_Tot_abs_Q>
0

> <r_epik_Metal_State_Penalty>
-0

> <b_epik_Metal_Only>
0

> <s_lp_Force_Field>
OPLS_2005

> <r_lp_Energy>
79.4862

> <b_lp_Chiralities_Consistent>
1

> <s_lp_Variant>
AV-unprocessed.smi:2217-1

> <Gold.Version>
5.8.1

> <Gold.Id.Protein>
6NUR|6NUR_protein|mol2

> <Gold.PLP.Fitness>
34.4596

> <Gold.PLP.PLP>
-31.8653

> <Gold.PLP.part.hbond>
-1.0000

> <Gold.PLP.part.metal>
0.0000

> <Gold.PLP.part.buried>
-1.5887

> <Gold.PLP.part.nonpolar>
-29.0447

> <Gold.PLP.part.repulsive>
0.3373

> <Gold.PLP.ligand.clash>
0.0000

> <Gold.PLP.ligand.torsion>
0.3435

> <Gold.PLP.Chemscore.Hbond>
1.0000

> <Gold.PLP.Chemscore.CHOScore>
0.0000

> <Gold.PLP.Chemscore.Metal>
0.0000

> <Gold.Chemscore.Hbonds>
donor molecule, donor type, donor heavy atom, donor atom, acceptor molecule, acceptor atom, score
      P1  H 10752 10765       L1     8  1.00

> <Gold.PLP.Chemscore.Internal.Correction>
0.2814

> <Gold.Rescore>
     Score         DG    S(hbond)    S(metal)    S(lipo)     H(rot)  DE(clash)    DE(int)     intcor
     14.40     -16.14       0.99        0.00      84.64       1.00       0.06       1.69       ----

> <Gold.Chemscore.Fitness>
14.3965

> <Gold.Chemscore.DG>
-16.1445

> <Gold.Chemscore.ZeroCoef>
-5.4800

> <Gold.Chemscore.Hbond>
0.9943

> <Gold.Chemscore.Metal>
0.0000

> <Gold.Chemscore.Lipo>
84.6450

> <Gold.Chemscore.Internal_Hbond>
0.0000

> <Gold.Chemscore.DEClash>
0.0605

> <Gold.Chemscore.DEInternal>
1.6875

> <Gold.Chemscore.Rot>
1.0000

> <Gold.Chemscore.Internal.Correction>
   9.000000E+99

> <Gold.Chemscore.Hbonds>
donor molecule, donor type, donor heavy atom, donor atom, acceptor molecule, acceptor atom, score
      P1  H 10752 10765       L1     8  0.69

> <Gold.Chemscore.Hbond.Weighted>
-3.3210

> <Gold.Chemscore.Metal.Weighted>
-0.0000

> <Gold.Chemscore.Lipo.Weighted>
-9.9035

> <Gold.Chemscore.Internal_Hbond.Weighted>
0.0000

> <Gold.Chemscore.DEClash.Weighted>
0.0605

> <Gold.Chemscore.DEInternal.Weighted>
1.6875

> <Gold.Chemscore.Rot.Weighted>
2.5600

> <Gold.Chemscore.Internal.Correction.Weighted>
   9.000000E+99

> <Gold.Protein.RotatedTorsions>
[ 6907 6896 6895 6894 ] final  -20.29 input  -60.11 | X-H torsion
[ 7974 7965 7964 7962 ] final   69.87 input  175.53 | X-H torsion
[ 8008 7997 7996 7995 ] final  171.37 input   59.86 | X-H torsion
[ 10167 10162 10161 10158 ] final -133.04 input  -65.29 | X-H torsion
[ 10718 10713 10712 10709 ] final  145.39 input   66.30 | X-H torsion
[ 10763 10752 10751 10750 ] final -174.80 input  -60.55 | X-H torsion
[ 11005 11000 10999 10996 ] final  152.72 input  -57.11 | X-H torsion

> <Gold.Protein.ActiveResidues>
 VAL166  LYS551  ARG553  GLY616  TRP617  ASP618  TYR619  PRO620  LYS621  CYS622 
 ASP623  PHE694  ASN695  SER759  ASP760  ASP761  ALA762  ILE779  LEU786  VAL792 
 PHE793  MET794  SER795  GLU796  ALA797  LYS798  CYS799  TRP800  GLU811  SER814 

> <Gold.Protein.RotatedAtoms>
  151.2504  135.0620  159.9059 H   0  0  0  0  0  0  0  0  0  0  0  0  # atno 6907 bound_to 6896
  152.5381  134.0338  159.8047 H   0  0  0  0  0  0  0  0  0  0  0  0  # atno 6908 bound_to 6896
  151.0545  133.5546  159.2670 H   0  0  0  0  0  0  0  0  0  0  0  0  # atno 6909 bound_to 6896
  145.7851  139.2906  143.1243 H   0  0  0  0  0  0  0  0  0  0  0  0  # atno 7974 bound_to 7965
  156.1278  140.1514  156.9111 H   0  0  0  0  0  0  0  0  0  0  0  0  # atno 8008 bound_to 7997
  154.4885  140.0858  156.7581 H   0  0  0  0  0  0  0  0  0  0  0  0  # atno 8009 bound_to 7997
  155.4312  140.3427  155.4282 H   0  0  0  0  0  0  0  0  0  0  0  0  # atno 8010 bound_to 7997
  139.9023  143.6592  152.2592 H   0  0  0  0  0  0  0  0  0  0  0  0  # atno 10167 bound_to 10162
  157.3458  131.0943  151.1043 H   0  0  0  0  0  0  0  0  0  0  0  0  # atno 10718 bound_to 10713
  154.5920  135.2846  155.0626 H   0  0  0  0  0  0  0  0  0  0  0  0  # atno 10763 bound_to 10752
  154.1923  135.6438  153.5067 H   0  0  0  0  0  0  0  0  0  0  0  0  # atno 10764 bound_to 10752
  153.0124  135.5449  154.6609 H   0  0  0  0  0  0  0  0  0  0  0  0  # atno 10765 bound_to 10752
  140.1333  134.8788  157.2233 H   0  0  0  0  0  0  0  0  0  0  0  0  # atno 11005 bound_to 11000
  146.0034  140.8500  143.0007 LP  0  0  0  0  0  0  0  0  0  0  0  0  # atno 17320 bound_to 7965
  144.6790  140.2385  143.7346 LP  0  0  0  0  0  0  0  0  0  0  0  0  # atno 17321 bound_to 7965
  139.7014  144.7634  151.1266 LP  0  0  0  0  0  0  0  0  0  0  0  0  # atno 17342 bound_to 10162
  140.7704  143.5452  150.9266 LP  0  0  0  0  0  0  0  0  0  0  0  0  # atno 17343 bound_to 10162
  157.2237  130.6493  149.5821 LP  0  0  0  0  0  0  0  0  0  0  0  0  # atno 17370 bound_to 10713
  155.9714  130.4621  150.6133 LP  0  0  0  0  0  0  0  0  0  0  0  0  # atno 17371 bound_to 10713
  140.2815  134.3345  155.7342 LP  0  0  0  0  0  0  0  0  0  0  0  0  # atno 17394 bound_to 11000
  141.2174  133.7481  156.9370 LP  0  0  0  0  0  0  0  0  0  0  0  0  # atno 17395 bound_to 11000

$$$$
