AV-unprocessed.smi:2502|AV-procd|sdf|9845|dock3
  -GOLD-   2272013473D 1   1.00000     0.00000
 Structure written by MMmdl.
 39 41  0  0  0  0  0  0  0  0  1 V2000
  147.7734  140.3765  153.2182 O   0  0  0  0  0  0  0  0  0  0  0  0
  148.0358  140.8408  154.5282 C   0  0  2  0  0  0  0  0  0  0  0  0
  146.8522  141.6952  155.0100 C   0  0  0  0  0  0  0  0  0  0  0  0
  146.3793  142.5164  153.9507 O   0  0  0  0  0  0  0  0  0  0  0  0
  145.6684  143.6742  154.3702 C   0  0  0  0  0  0  0  0  0  0  0  0
  144.4103  143.3076  155.1769 C   0  0  0  0  0  0  0  0  0  0  0  0
  143.5573  144.5590  155.4420 C   0  0  0  0  0  0  0  0  0  0  0  0
  143.2171  145.1897  154.2116 O   0  0  0  0  0  0  0  0  0  0  0  0
  144.3550  145.6424  153.4854 C   0  0  0  0  0  0  0  0  0  0  0  0
  145.2484  144.4477  153.1136 C   0  0  0  0  0  0  0  0  0  0  0  0
  149.3960  141.5624  154.6093 C   0  0  0  0  0  0  0  0  0  0  0  0
  150.2920  140.9445  155.5707 N   0  0  0  0  0  0  0  0  0  0  0  0
  150.5675  139.6136  155.4673 N   0  0  0  0  0  0  0  0  0  0  0  0
  151.3923  139.2844  156.4161 N   0  0  0  0  0  0  0  0  0  0  0  0
  151.6637  140.4200  157.1609 C   0  0  0  0  0  0  0  0  0  0  0  0
  152.4858  140.6317  158.2901 C   0  0  0  0  0  0  0  0  0  0  0  0
  152.5876  141.9159  158.8685 C   0  0  0  0  0  0  0  0  0  0  0  0
  153.6043  142.1347  160.2484 Cl  0  0  0  0  0  0  0  0  0  0  0  0
  151.8666  143.0051  158.3219 C   0  0  0  0  0  0  0  0  0  0  0  0
  151.9788  144.5821  159.0186 Cl  0  0  0  0  0  0  0  0  0  0  0  0
  151.0447  142.8090  157.1940 C   0  0  0  0  0  0  0  0  0  0  0  0
  150.9570  141.5229  156.6343 C   0  0  0  0  0  0  0  0  0  0  0  0
  148.5464  140.5100  152.6913 H   0  0  0  0  0  0  0  0  0  0  0  0
  148.0753  139.9524  155.1597 H   0  0  0  0  0  0  0  0  0  0  0  0
  146.0628  141.0561  155.4061 H   0  0  0  0  0  0  0  0  0  0  0  0
  147.1868  142.3346  155.8283 H   0  0  0  0  0  0  0  0  0  0  0  0
  146.3196  144.3149  154.9679 H   0  0  0  0  0  0  0  0  0  0  0  0
  143.8187  142.5761  154.6251 H   0  0  0  0  0  0  0  0  0  0  0  0
  144.6763  142.8434  156.1260 H   0  0  0  0  0  0  0  0  0  0  0  0
  142.6393  144.2828  155.9608 H   0  0  0  0  0  0  0  0  0  0  0  0
  144.0876  145.2610  156.0873 H   0  0  0  0  0  0  0  0  0  0  0  0
  144.0161  146.1519  152.5831 H   0  0  0  0  0  0  0  0  0  0  0  0
  144.9084  146.3747  154.0755 H   0  0  0  0  0  0  0  0  0  0  0  0
  146.1296  144.7909  152.5708 H   0  0  0  0  0  0  0  0  0  0  0  0
  144.7032  143.7866  152.4388 H   0  0  0  0  0  0  0  0  0  0  0  0
  149.8877  141.5692  153.6356 H   0  0  0  0  0  0  0  0  0  0  0  0
  149.2525  142.6063  154.8915 H   0  0  0  0  0  0  0  0  0  0  0  0
  153.0391  139.8054  158.7114 H   0  0  0  0  0  0  0  0  0  0  0  0
  150.4914  143.6320  156.7661 H   0  0  0  0  0  0  0  0  0  0  0  0
  1  2  1  0  0  0  0
  1 23  1  0  0  0  0
  2  3  1  0  0  0  0
  2 11  1  0  0  0  0
  2 24  1  0  0  0  0
  3  4  1  0  0  0  0
  3 25  1  0  0  0  0
  3 26  1  0  0  0  0
  4  5  1  0  0  0  0
  5 10  1  0  0  0  0
  5  6  1  0  0  0  0
  5 27  1  0  0  0  0
  6  7  1  0  0  0  0
  6 28  1  0  0  0  0
  6 29  1  0  0  0  0
  7  8  1  0  0  0  0
  7 30  1  0  0  0  0
  7 31  1  0  0  0  0
  8  9  1  0  0  0  0
  9 10  1  0  0  0  0
  9 32  1  0  0  0  0
  9 33  1  0  0  0  0
 10 34  1  0  0  0  0
 10 35  1  0  0  0  0
 11 12  1  0  0  0  0
 11 36  1  0  0  0  0
 11 37  1  0  0  0  0
 12 22  1  0  0  0  0
 12 13  1  0  0  0  0
 13 14  2  0  0  0  0
 14 15  1  0  0  0  0
 15 22  2  0  0  0  0
 15 16  1  0  0  0  0
 16 17  2  0  0  0  0
 16 38  1  0  0  0  0
 17 18  1  0  0  0  0
 17 19  1  0  0  0  0
 19 20  1  0  0  0  0
 19 21  2  0  0  0  0
 21 22  1  0  0  0  0
 21 39  1  0  0  0  0
M  END
> <s_m_source_file>
AV-unprocessed.smi

> <i_m_source_file_index>
2502

> <i_lp_mmshare_version>
43012

> <i_f3d_flags>
0

> <s_epik_input>
W2NIXTFjKENsKWMoQ2wpW2NIXWMoYzEyKW4obm4yKVtDSDJdW0NASF0oW09IXSlbQ0gyXU9bQ0hdM1tDSDJdW0NIMl1PW0NIMl1bQ0gyXTM=

> <s_epik_cmdline>
J2VwaWtfcHl0aG9uJywgJy1waCcsICc3LjAnLCAnLXRuJywgJzgnLCAnLW1hJywgJzIwMCcsICctbWV0YWxfYmluZGluZycsICctaW1hZScsICc8aW5maWxlLm1hZT4nLCAnLW9tYWUnLCAnPG91dGZpbGUubWFlPic=

> <r_lp_tautomer_probability>
1

> <r_epik_Ionization_Penalty>
2.65748e-06

> <r_epik_Ionization_Penalty_Charging>
0

> <r_epik_Ionization_Penalty_Neutral>
2.65748e-06

> <r_epik_State_Penalty>
-0

> <r_epik_Charging_Adjusted_Penalty>
0

> <i_epik_Tot_Q>
0

> <i_epik_Tot_abs_Q>
0

> <r_epik_Metal_State_Penalty>
-0

> <b_epik_Metal_Only>
0

> <s_lp_Force_Field>
OPLS_2005

> <r_lp_Energy>
14.9544

> <b_lp_Chiralities_Consistent>
1

> <s_lp_Variant>
AV-unprocessed.smi:2502-1

> <Gold.Version>
5.8.1

> <Gold.Id.Protein>
6NUR|6NUR_protein|mol2

> <Gold.PLP.Fitness>
48.1220

> <Gold.PLP.PLP>
-47.2919

> <Gold.PLP.part.hbond>
-1.4974

> <Gold.PLP.part.metal>
0.0000

> <Gold.PLP.part.buried>
-3.6227

> <Gold.PLP.part.nonpolar>
-42.4468

> <Gold.PLP.part.repulsive>
0.3093

> <Gold.PLP.ligand.clash>
0.0000

> <Gold.PLP.ligand.torsion>
1.1219

> <Gold.PLP.Chemscore.Hbond>
1.0000

> <Gold.PLP.Chemscore.CHOScore>
0.0000

> <Gold.PLP.Chemscore.Metal>
0.0000

> <Gold.Chemscore.Hbonds>
donor molecule, donor type, donor heavy atom, donor atom, acceptor molecule, acceptor atom, score
      L1  H     1    23       P1  7957  0.99

> <Gold.PLP.Chemscore.Internal.Correction>
0.0739

> <Gold.Rescore>
     Score         DG    S(hbond)    S(metal)    S(lipo)     H(rot)  DE(clash)    DE(int)     intcor
     16.86     -18.22       0.96        0.00     129.79       2.21       0.16       1.20       ----

> <Gold.Chemscore.Fitness>
16.8581

> <Gold.Chemscore.DG>
-18.2156

> <Gold.Chemscore.ZeroCoef>
-5.4800

> <Gold.Chemscore.Hbond>
0.9576

> <Gold.Chemscore.Metal>
0.0000

> <Gold.Chemscore.Lipo>
129.7939

> <Gold.Chemscore.Internal_Hbond>
0.0000

> <Gold.Chemscore.DEClash>
0.1588

> <Gold.Chemscore.DEInternal>
1.1988

> <Gold.Chemscore.Rot>
2.2065

> <Gold.Chemscore.Internal.Correction>
   9.000000E+99

> <Gold.Chemscore.Hbonds>
donor molecule, donor type, donor heavy atom, donor atom, acceptor molecule, acceptor atom, score
      L1  H     1    23       P1  7957  0.93

> <Gold.Chemscore.Hbond.Weighted>
-3.1983

> <Gold.Chemscore.Metal.Weighted>
-0.0000

> <Gold.Chemscore.Lipo.Weighted>
-15.1859

> <Gold.Chemscore.Internal_Hbond.Weighted>
0.0000

> <Gold.Chemscore.DEClash.Weighted>
0.1588

> <Gold.Chemscore.DEInternal.Weighted>
1.1988

> <Gold.Chemscore.Rot.Weighted>
5.6485

> <Gold.Chemscore.Internal.Correction.Weighted>
   9.000000E+99

> <Gold.Protein.RotatedTorsions>
[ 6907 6896 6895 6894 ] final   83.42 input  -60.11 | X-H torsion
[ 7974 7965 7964 7962 ] final    6.82 input  175.53 | X-H torsion
[ 8008 7997 7996 7995 ] final -171.76 input   59.86 | X-H torsion
[ 10167 10162 10161 10158 ] final  -83.00 input  -65.29 | X-H torsion
[ 10718 10713 10712 10709 ] final   37.51 input   66.30 | X-H torsion
[ 10763 10752 10751 10750 ] final  -69.40 input  -60.55 | X-H torsion
[ 11005 11000 10999 10996 ] final   18.99 input  -57.11 | X-H torsion

> <Gold.Protein.ActiveResidues>
 VAL166  LYS551  ARG553  GLY616  TRP617  ASP618  TYR619  PRO620  LYS621  CYS622 
 ASP623  PHE694  ASN695  SER759  ASP760  ASP761  ALA762  ILE779  LEU786  VAL792 
 PHE793  MET794  SER795  GLU796  ALA797  LYS798  CYS799  TRP800  GLU811  SER814 

> <Gold.Protein.RotatedAtoms>
  152.5326  134.2898  159.9038 H   0  0  0  0  0  0  0  0  0  0  0  0  # atno 6907 bound_to 6896
  151.2851  133.4185  159.2637 H   0  0  0  0  0  0  0  0  0  0  0  0  # atno 6908 bound_to 6896
  151.0250  134.9512  159.8137 H   0  0  0  0  0  0  0  0  0  0  0  0  # atno 6909 bound_to 6896
  146.2432  140.0177  142.8401 H   0  0  0  0  0  0  0  0  0  0  0  0  # atno 7974 bound_to 7965
  155.9357  140.1099  157.1096 H   0  0  0  0  0  0  0  0  0  0  0  0  # atno 8008 bound_to 7997
  154.4079  140.1229  156.4927 H   0  0  0  0  0  0  0  0  0  0  0  0  # atno 8009 bound_to 7997
  155.7024  140.3472  155.4941 H   0  0  0  0  0  0  0  0  0  0  0  0  # atno 8010 bound_to 7997
  140.4267  143.2564  151.8816 H   0  0  0  0  0  0  0  0  0  0  0  0  # atno 10167 bound_to 10162
  157.3478  130.7582  149.6957 H   0  0  0  0  0  0  0  0  0  0  0  0  # atno 10718 bound_to 10713
  154.4029  135.6027  153.5907 H   0  0  0  0  0  0  0  0  0  0  0  0  # atno 10763 bound_to 10752
  152.9788  135.5911  154.4163 H   0  0  0  0  0  0  0  0  0  0  0  0  # atno 10764 bound_to 10752
  154.3964  135.2842  155.2102 H   0  0  0  0  0  0  0  0  0  0  0  0  # atno 10765 bound_to 10752
  140.4186  134.1542  155.7671 H   0  0  0  0  0  0  0  0  0  0  0  0  # atno 11005 bound_to 11000
  145.1270  140.9496  143.4567 LP  0  0  0  0  0  0  0  0  0  0  0  0  # atno 17320 bound_to 7965
  145.0425  139.3248  143.5969 LP  0  0  0  0  0  0  0  0  0  0  0  0  # atno 17321 bound_to 7965
  139.4783  144.5379  151.8571 LP  0  0  0  0  0  0  0  0  0  0  0  0  # atno 17342 bound_to 10162
  140.4473  144.1904  150.5895 LP  0  0  0  0  0  0  0  0  0  0  0  0  # atno 17343 bound_to 10162
  155.9717  130.4149  150.4155 LP  0  0  0  0  0  0  0  0  0  0  0  0  # atno 17370 bound_to 10713
  157.2213  131.0483  151.2544 LP  0  0  0  0  0  0  0  0  0  0  0  0  # atno 17371 bound_to 10713
  141.1793  133.8448  157.1314 LP  0  0  0  0  0  0  0  0  0  0  0  0  # atno 17394 bound_to 11000
  140.0216  134.9943  157.0603 LP  0  0  0  0  0  0  0  0  0  0  0  0  # atno 17395 bound_to 11000

$$$$
