AV-unprocessed.smi:414|AV-procd|sdf|2517|dock9
  -GOLD-   2262022463D 1   1.00000     0.00000
 Structure written by MMmdl.
 37 38  0  0  0  0  0  0  0  0  2 V2000
  153.6627  142.2746  161.2257 C   0  0  0  0  0  0  0  0  0  0  0  0
  152.8694  143.4217  160.5839 C   0  0  2  0  0  0  0  0  0  0  0  0
  151.3657  143.3133  160.9012 C   0  0  0  0  0  0  0  0  0  0  0  0
  150.5648  144.4587  160.2566 C   0  0  0  0  0  0  0  0  0  0  0  0
  150.7943  144.5467  158.7333 C   0  0  2  0  0  0  0  0  0  0  0  0
  150.1833  143.4158  158.0374 N   0  0  0  0  0  0  0  0  0  0  0  0
  148.9984  142.8625  158.3372 C   0  0  0  0  0  0  0  0  0  0  0  0
  148.2887  143.2455  159.2682 O   0  0  0  0  0  0  0  0  0  0  0  0
  148.5701  141.6719  157.4695 C   0  0  0  0  0  0  0  0  0  0  0  0
  149.7136  140.9850  156.8484 N   0  0  0  0  0  0  0  0  0  0  0  0
  150.7015  140.4554  157.6973 C   0  0  0  0  0  0  0  0  0  0  0  0
  151.7790  139.8070  157.2155 C   0  0  0  0  0  0  0  0  0  0  0  0
  151.9082  139.6617  155.7707 C   0  0  0  0  0  0  0  0  0  0  0  0
  152.8889  139.0787  155.3125 O   0  0  0  0  0  0  0  0  0  0  0  0
  150.9204  140.1881  154.9889 N   0  5  0  0  0  0  0  0  0  0  0  0
  149.8281  140.8417  155.4933 C   0  0  0  0  0  0  0  0  0  0  0  0
  148.9461  141.3061  154.7699 O   0  0  0  0  0  0  0  0  0  0  0  0
  152.2986  144.6224  158.4089 C   0  0  0  0  0  0  0  0  0  0  0  0
  153.0951  143.4781  159.0610 C   0  0  0  0  0  0  0  0  0  0  0  0
  153.3363  141.3058  160.8462 H   0  0  0  0  0  0  0  0  0  0  0  0
  153.5367  142.2674  162.3087 H   0  0  0  0  0  0  0  0  0  0  0  0
  154.7291  142.3708  161.0189 H   0  0  0  0  0  0  0  0  0  0  0  0
  153.2371  144.3552  161.0126 H   0  0  0  0  0  0  0  0  0  0  0  0
  150.9815  142.3552  160.5485 H   0  0  0  0  0  0  0  0  0  0  0  0
  151.2111  143.3256  161.9807 H   0  0  0  0  0  0  0  0  0  0  0  0
  149.5030  144.3416  160.4765 H   0  0  0  0  0  0  0  0  0  0  0  0
  150.8643  145.4017  160.7156 H   0  0  0  0  0  0  0  0  0  0  0  0
  150.3305  145.4634  158.3644 H   0  0  0  0  0  0  0  0  0  0  0  0
  150.6973  143.0315  157.2578 H   0  0  0  0  0  0  0  0  0  0  0  0
  147.9835  140.9663  158.0615 H   0  0  0  0  0  0  0  0  0  0  0  0
  147.8856  142.0402  156.7044 H   0  0  0  0  0  0  0  0  0  0  0  0
  150.5271  140.6007  158.7534 H   0  0  0  0  0  0  0  0  0  0  0  0
  152.5265  139.4018  157.8816 H   0  0  0  0  0  0  0  0  0  0  0  0
  152.4522  144.6165  157.3290 H   0  0  0  0  0  0  0  0  0  0  0  0
  152.6919  145.5755  158.7648 H   0  0  0  0  0  0  0  0  0  0  0  0
  154.1564  143.6076  158.8467 H   0  0  0  0  0  0  0  0  0  0  0  0
  152.8068  142.5277  158.6099 H   0  0  0  0  0  0  0  0  0  0  0  0
  1  2  1  0  0  0  0
  1 20  1  0  0  0  0
  1 21  1  0  0  0  0
  1 22  1  0  0  0  0
  2 19  1  0  0  0  0
  2  3  1  0  0  0  0
  2 23  1  0  0  0  0
  3  4  1  0  0  0  0
  3 24  1  0  0  0  0
  3 25  1  0  0  0  0
  4  5  1  0  0  0  0
  4 26  1  0  0  0  0
  4 27  1  0  0  0  0
  5  6  1  0  0  0  0
  5 18  1  0  0  0  0
  5 28  1  0  0  0  0
  6  7  1  0  0  0  0
  6 29  1  0  0  0  0
  7  8  2  0  0  0  0
  7  9  1  0  0  0  0
  9 10  1  0  0  0  0
  9 30  1  0  0  0  0
  9 31  1  0  0  0  0
 10 16  1  0  0  0  0
 10 11  1  0  0  0  0
 11 12  2  0  0  0  0
 11 32  1  0  0  0  0
 12 13  1  0  0  0  0
 12 33  1  0  0  0  0
 13 14  2  0  0  0  0
 13 15  1  0  0  0  0
 15 16  1  0  0  0  0
 16 17  2  0  0  0  0
 18 19  1  0  0  0  0
 18 34  1  0  0  0  0
 18 35  1  0  0  0  0
 19 36  1  0  0  0  0
 19 37  1  0  0  0  0
M  CHG  1  15  -1
M  END
> <s_m_source_file>
AV-unprocessed.smi

> <i_m_source_file_index>
414

> <i_lp_mmshare_version>
43012

> <i_f3d_flags>
0

> <s_epik_input>
W0NIM11bQ0BASF0xW0NIMl1bQ0gyXVtDQEhdKFtDSDJdW0NIMl0xKVtOSF1DKD1PKVtDSDJdbjJbY0hdW2NIXWMoPU8pW25IXWMyPU8=

> <s_epik_cmdline>
J2VwaWtfcHl0aG9uJywgJy1waCcsICc3LjAnLCAnLXRuJywgJzgnLCAnLW1hJywgJzIwMCcsICctbWV0YWxfYmluZGluZycsICctaW1hZScsICc8aW5maWxlLm1hZT4nLCAnLW9tYWUnLCAnPG91dGZpbGUubWFlPic=

> <r_lp_tautomer_probability>
0.999537

> <r_epik_Ionization_Penalty>
3.11551

> <r_epik_Ionization_Penalty_Charging>
2.90498e-08

> <r_epik_Ionization_Penalty_Neutral>
3.11551

> <r_epik_State_Penalty>
3.11459

> <r_epik_Charging_Adjusted_Penalty>
3.11459

> <i_epik_Tot_Q>
-1

> <i_epik_Tot_abs_Q>
1

> <r_epik_Metal_State_Penalty>
0.463083

> <b_epik_Metal_Only>
1

> <s_lp_Force_Field>
OPLS_2005

> <r_lp_Energy>
16.6581

> <b_lp_Chiralities_Consistent>
1

> <s_lp_Variant>
AV-unprocessed.smi:414-4

> <Gold.Version>
5.8.1

> <Gold.Id.Protein>
6NUR|6NUR_protein|mol2

> <Gold.PLP.Fitness>
43.5744

> <Gold.PLP.PLP>
-38.4480

> <Gold.PLP.part.hbond>
-3.9083

> <Gold.PLP.part.metal>
0.0000

> <Gold.PLP.part.buried>
-3.3739

> <Gold.PLP.part.nonpolar>
-31.7687

> <Gold.PLP.part.repulsive>
0.3960

> <Gold.PLP.ligand.clash>
0.0000

> <Gold.PLP.ligand.torsion>
0.6139

> <Gold.PLP.Chemscore.Hbond>
2.1154

> <Gold.PLP.Chemscore.CHOScore>
0.0000

> <Gold.PLP.Chemscore.Metal>
0.0000

> <Gold.Chemscore.Hbonds>
donor molecule, donor type, donor heavy atom, donor atom, acceptor molecule, acceptor atom, score
      P1  H  6933  6944       L1     8  0.13
      P1  H  7989  7998       L1    15  1.00
      P1  H  7997  8009       L1    14  1.00

> <Gold.PLP.Chemscore.Internal.Correction>
0.0080

> <Gold.Rescore>
     Score         DG    S(hbond)    S(metal)    S(lipo)     H(rot)  DE(clash)    DE(int)     intcor
     16.84     -19.23       2.11        0.00      93.36       1.65       0.32       2.07       ----

> <Gold.Chemscore.Fitness>
16.8430

> <Gold.Chemscore.DG>
-19.2255

> <Gold.Chemscore.ZeroCoef>
-5.4800

> <Gold.Chemscore.Hbond>
2.1134

> <Gold.Chemscore.Metal>
0.0000

> <Gold.Chemscore.Lipo>
93.3607

> <Gold.Chemscore.Internal_Hbond>
0.0000

> <Gold.Chemscore.DEClash>
0.3151

> <Gold.Chemscore.DEInternal>
2.0674

> <Gold.Chemscore.Rot>
1.6549

> <Gold.Chemscore.Internal.Correction>
   9.000000E+99

> <Gold.Chemscore.Hbonds>
donor molecule, donor type, donor heavy atom, donor atom, acceptor molecule, acceptor atom, score
      P1  H  6933  6944       L1     8  0.14
      P1  H  7989  7998       L1    15  0.69
      P1  H  7997  8009       L1    14  0.34

> <Gold.Chemscore.Hbond.Weighted>
-7.0587

> <Gold.Chemscore.Metal.Weighted>
-0.0000

> <Gold.Chemscore.Lipo.Weighted>
-10.9232

> <Gold.Chemscore.Internal_Hbond.Weighted>
0.0000

> <Gold.Chemscore.DEClash.Weighted>
0.3151

> <Gold.Chemscore.DEInternal.Weighted>
2.0674

> <Gold.Chemscore.Rot.Weighted>
4.2364

> <Gold.Chemscore.Internal.Correction.Weighted>
   9.000000E+99

> <Gold.Protein.RotatedTorsions>
[ 6907 6896 6895 6894 ] final   68.36 input  -60.11 | X-H torsion
[ 7974 7965 7964 7962 ] final  136.62 input  175.53 | X-H torsion
[ 8008 7997 7996 7995 ] final -145.36 input   59.86 | X-H torsion
[ 10167 10162 10161 10158 ] final  169.84 input  -65.29 | X-H torsion
[ 10718 10713 10712 10709 ] final   59.62 input   66.30 | X-H torsion
[ 10763 10752 10751 10750 ] final  -37.80 input  -60.55 | X-H torsion
[ 11005 11000 10999 10996 ] final  -10.93 input  -57.11 | X-H torsion

> <Gold.Protein.ActiveResidues>
 VAL166  LYS551  ARG553  GLY616  TRP617  ASP618  TYR619  PRO620  LYS621  CYS622 
 ASP623  PHE694  ASN695  SER759  ASP760  ASP761  ALA762  ILE779  LEU786  VAL792 
 PHE793  MET794  SER795  GLU796  ALA797  LYS798  CYS799  TRP800  GLU811  SER814 

> <Gold.Protein.RotatedAtoms>
  152.4615  134.5174  159.9771 H   0  0  0  0  0  0  0  0  0  0  0  0  # atno 6907 bound_to 6896
  151.5222  133.3458  159.2911 H   0  0  0  0  0  0  0  0  0  0  0  0  # atno 6908 bound_to 6896
  150.8579  134.7953  159.7122 H   0  0  0  0  0  0  0  0  0  0  0  0  # atno 6909 bound_to 6896
  144.9547  139.4778  143.5508 H   0  0  0  0  0  0  0  0  0  0  0  0  # atno 7974 bound_to 7965
  155.5419  140.0609  157.2868 H   0  0  0  0  0  0  0  0  0  0  0  0  # atno 8008 bound_to 7997
  154.4449  140.1917  156.0644 H   0  0  0  0  0  0  0  0  0  0  0  0  # atno 8009 bound_to 7997
  156.0578  140.3276  155.7430 H   0  0  0  0  0  0  0  0  0  0  0  0  # atno 8010 bound_to 7997
  139.5002  144.3662  151.9772 H   0  0  0  0  0  0  0  0  0  0  0  0  # atno 10167 bound_to 10162
  157.5690  130.8892  149.9234 H   0  0  0  0  0  0  0  0  0  0  0  0  # atno 10718 bound_to 10713
  153.9023  135.6801  153.4754 H   0  0  0  0  0  0  0  0  0  0  0  0  # atno 10763 bound_to 10752
  153.1122  135.4777  154.9053 H   0  0  0  0  0  0  0  0  0  0  0  0  # atno 10764 bound_to 10752
  154.7569  135.3200  154.8408 H   0  0  0  0  0  0  0  0  0  0  0  0  # atno 10765 bound_to 10752
  140.7500  133.8600  155.9037 H   0  0  0  0  0  0  0  0  0  0  0  0  # atno 11005 bound_to 11000
  146.3333  139.8657  142.8848 LP  0  0  0  0  0  0  0  0  0  0  0  0  # atno 17320 bound_to 7965
  145.2790  141.0132  143.3728 LP  0  0  0  0  0  0  0  0  0  0  0  0  # atno 17321 bound_to 7965
  140.3098  144.3550  150.6037 LP  0  0  0  0  0  0  0  0  0  0  0  0  # atno 17342 bound_to 10162
  140.5807  143.2173  151.7433 LP  0  0  0  0  0  0  0  0  0  0  0  0  # atno 17343 bound_to 10162
  156.0736  130.3682  150.0724 LP  0  0  0  0  0  0  0  0  0  0  0  0  # atno 17370 bound_to 10713
  156.8879  130.9579  151.3592 LP  0  0  0  0  0  0  0  0  0  0  0  0  # atno 17371 bound_to 10713
  140.9760  134.1469  157.4536 LP  0  0  0  0  0  0  0  0  0  0  0  0  # atno 17394 bound_to 11000
  139.8789  134.9994  156.5955 LP  0  0  0  0  0  0  0  0  0  0  0  0  # atno 17395 bound_to 11000

$$$$
