AV-unprocessed.smi:110|AV-procd|sdf|1064|dock10
  -GOLD-   2262018143D 1   1.00000     0.00000
 Structure written by MMmdl.
 46 50  0  0  0  0  0  0  0  0  1 V2000
  148.0408  139.9940  153.2268 O   0  0  0  0  0  0  0  0  0  0  0  0
  148.1356  138.6330  153.5902 C   0  0  0  0  0  0  0  0  0  0  0  0
  149.1747  138.3536  154.6972 C   0  0  2  0  0  0  0  0  0  0  0  0
  150.4722  138.8407  154.3879 O   0  0  0  0  0  0  0  0  0  0  0  0
  151.3736  138.3481  155.3365 C   0  0  1  0  0  0  0  0  0  0  0  0
  151.5832  139.4106  156.3723 N   0  0  0  0  0  0  0  0  0  0  0  0
  151.0098  140.6599  156.4784 C   0  0  0  0  0  0  0  0  0  0  0  0
  151.4027  141.3674  157.5027 N   0  0  0  0  0  0  0  0  0  0  0  0
  152.3412  140.5623  158.1380 C   0  0  0  0  0  0  0  0  0  0  0  0
  153.1581  140.6977  159.2972 C   0  0  0  0  0  0  0  0  0  0  0  0
  153.1758  141.7832  160.1055 N   0  0  0  0  0  0  0  0  0  0  0  0
  153.4472  141.6014  161.5389 C   0  0  0  0  0  0  0  0  0  0  0  0
  152.9429  142.8587  162.2721 C   0  0  0  0  0  0  0  0  0  0  0  0
  152.5065  143.7052  161.1203 C   0  0  0  0  0  0  0  0  0  0  0  0
  152.0058  145.0179  161.1697 C   0  0  0  0  0  0  0  0  0  0  0  0
  151.6730  145.6488  159.9519 C   0  0  0  0  0  0  0  0  0  0  0  0
  151.8531  144.9714  158.7235 C   0  0  0  0  0  0  0  0  0  0  0  0
  152.3599  143.6533  158.6984 C   0  0  0  0  0  0  0  0  0  0  0  0
  152.6693  143.0206  159.9201 C   0  0  0  0  0  0  0  0  0  0  0  0
  153.9369  139.6412  159.6439 N   0  0  0  0  0  0  0  0  0  0  0  0
  153.9524  138.5403  158.8873 C   0  0  0  0  0  0  0  0  0  0  0  0
  153.2644  138.2845  157.7733 N   0  0  0  0  0  0  0  0  0  0  0  0
  152.4548  139.3292  157.4364 C   0  0  0  0  0  0  0  0  0  0  0  0
  150.7251  137.1020  155.9839 C   0  0  2  0  0  0  0  0  0  0  0  0
  151.5572  135.9575  155.9420 O   0  0  0  0  0  0  0  0  0  0  0  0
  149.4239  136.9237  155.1945 C   0  0  2  0  0  0  0  0  0  0  0  0
  149.5665  136.0017  154.1280 O   0  0  0  0  0  0  0  0  0  0  0  0
  148.8397  138.9283  155.5627 H   0  0  0  0  0  0  0  0  0  0  0  0
  152.3601  138.1815  154.9020 H   0  0  0  0  0  0  0  0  0  0  0  0
  150.4828  137.3194  157.0255 H   0  0  0  0  0  0  0  0  0  0  0  0
  148.6102  136.5778  155.8326 H   0  0  0  0  0  0  0  0  0  0  0  0
  148.7712  140.2077  152.6663 H   0  0  0  0  0  0  0  0  0  0  0  0
  147.1521  138.2858  153.9081 H   0  0  0  0  0  0  0  0  0  0  0  0
  148.3948  138.0665  152.6955 H   0  0  0  0  0  0  0  0  0  0  0  0
  150.2826  141.0382  155.7751 H   0  0  0  0  0  0  0  0  0  0  0  0
  152.9521  140.7055  161.9164 H   0  0  0  0  0  0  0  0  0  0  0  0
  154.5204  141.4768  161.6884 H   0  0  0  0  0  0  0  0  0  0  0  0
  152.0982  142.6401  162.9260 H   0  0  0  0  0  0  0  0  0  0  0  0
  153.7310  143.3472  162.8460 H   0  0  0  0  0  0  0  0  0  0  0  0
  151.8834  145.5309  162.1121 H   0  0  0  0  0  0  0  0  0  0  0  0
  151.2868  146.6575  159.9576 H   0  0  0  0  0  0  0  0  0  0  0  0
  151.6058  145.4674  157.7965 H   0  0  0  0  0  0  0  0  0  0  0  0
  152.5093  143.1481  157.7557 H   0  0  0  0  0  0  0  0  0  0  0  0
  154.6084  137.7510  159.2235 H   0  0  0  0  0  0  0  0  0  0  0  0
  151.0121  135.1950  155.8232 H   0  0  0  0  0  0  0  0  0  0  0  0
  149.3427  136.4399  153.3206 H   0  0  0  0  0  0  0  0  0  0  0  0
  1  2  1  0  0  0  0
  1 32  1  0  0  0  0
  2  3  1  0  0  0  0
  2 33  1  0  0  0  0
  2 34  1  0  0  0  0
  3 28  1  0  0  0  0
  3 26  1  0  0  0  0
  3  4  1  0  0  0  0
  4  5  1  0  0  0  0
  5 29  1  0  0  0  0
  5  6  1  0  0  0  0
  5 24  1  0  0  0  0
  6 23  1  0  0  0  0
  6  7  1  0  0  0  0
  7  8  2  0  0  0  0
  7 35  1  0  0  0  0
  8  9  1  0  0  0  0
  9 23  2  0  0  0  0
  9 10  1  0  0  0  0
 10 11  1  0  0  0  0
 10 20  2  0  0  0  0
 11 19  1  0  0  0  0
 11 12  1  0  0  0  0
 12 13  1  0  0  0  0
 12 36  1  0  0  0  0
 12 37  1  0  0  0  0
 13 14  1  0  0  0  0
 13 38  1  0  0  0  0
 13 39  1  0  0  0  0
 14 19  2  0  0  0  0
 14 15  1  0  0  0  0
 15 16  2  0  0  0  0
 15 40  1  0  0  0  0
 16 17  1  0  0  0  0
 16 41  1  0  0  0  0
 17 18  2  0  0  0  0
 17 42  1  0  0  0  0
 18 19  1  0  0  0  0
 18 43  1  0  0  0  0
 20 21  1  0  0  0  0
 21 22  2  0  0  0  0
 21 44  1  0  0  0  0
 22 23  1  0  0  0  0
 24 30  1  0  0  0  0
 24 25  1  0  0  0  0
 24 26  1  0  0  0  0
 25 45  1  0  0  0  0
 26 31  1  0  0  0  0
 26 27  1  0  0  0  0
 27 46  1  0  0  0  0
M  END
> <s_m_source_file>
AV-unprocessed.smi

> <i_m_source_file_index>
110

> <i_lp_mmshare_version>
43012

> <i_f3d_flags>
0

> <s_epik_input>
W09IXVtDSDJdW0NASF0xT1tDQEhdKFtDQEhdKFtPSF0pW0NAQEhdMVtPSF0pbihbY0hdbjIpYyhjMjMpbltjSF1uYzNOKFtDSDJdW0NIMl00KWMoYzQ1KVtjSF1bY0hdW2NIXVtjSF01

> <s_epik_cmdline>
J2VwaWtfcHl0aG9uJywgJy1waCcsICc3LjAnLCAnLXRuJywgJzgnLCAnLW1hJywgJzIwMCcsICctbWV0YWxfYmluZGluZycsICctaW1hZScsICc8aW5maWxlLm1hZT4nLCAnLW9tYWUnLCAnPG91dGZpbGUubWFlPic=

> <r_lp_tautomer_probability>
1

> <r_epik_Ionization_Penalty>
0.00068475

> <r_epik_Ionization_Penalty_Charging>
0

> <r_epik_Ionization_Penalty_Neutral>
0.00068475

> <r_epik_State_Penalty>
0.000417442

> <r_epik_Charging_Adjusted_Penalty>
0.000417442

> <i_epik_Tot_Q>
0

> <i_epik_Tot_abs_Q>
0

> <r_epik_Metal_State_Penalty>
-0

> <b_epik_Metal_Only>
0

> <s_epik_Chemistry_Notes>
This compound contains an acetal/aminal-like group ( X-CH(R)-Y where X, Y are N, S, or O) that may be acid/base labile, releasing an aldehyde.

> <s_lp_Force_Field>
OPLS_2005

> <r_lp_Energy>
64.7575

> <b_lp_Chiralities_Consistent>
1

> <s_lp_Variant>
AV-unprocessed.smi:110-2

> <Gold.Version>
5.8.1

> <Gold.Id.Protein>
6NUR|6NUR_protein|mol2

> <Gold.PLP.Fitness>
60.9518

> <Gold.PLP.PLP>
-52.4101

> <Gold.PLP.part.hbond>
-3.8781

> <Gold.PLP.part.metal>
0.0000

> <Gold.PLP.part.buried>
-2.5256

> <Gold.PLP.part.nonpolar>
-46.6348

> <Gold.PLP.part.repulsive>
0.1900

> <Gold.PLP.ligand.clash>
0.0000

> <Gold.PLP.ligand.torsion>
0.2780

> <Gold.PLP.Chemscore.Hbond>
3.0000

> <Gold.PLP.Chemscore.CHOScore>
0.0000

> <Gold.PLP.Chemscore.Metal>
0.0000

> <Gold.Chemscore.Hbonds>
donor molecule, donor type, donor heavy atom, donor atom, acceptor molecule, acceptor atom, score
      L1  H     1    32       P1  7957  0.99
      L1  H    27    46       P1  7948  0.80
      P1  H 10752 10765       L1    25  1.00

> <Gold.PLP.Chemscore.Internal.Correction>
0.0976

> <Gold.Rescore>
     Score         DG    S(hbond)    S(metal)    S(lipo)     H(rot)  DE(clash)    DE(int)     intcor
     16.74     -19.34       2.57        0.00     119.22       3.38       0.82       1.78       ----

> <Gold.Chemscore.Fitness>
16.7417

> <Gold.Chemscore.DG>
-19.3436

> <Gold.Chemscore.ZeroCoef>
-5.4800

> <Gold.Chemscore.Hbond>
2.5679

> <Gold.Chemscore.Metal>
0.0000

> <Gold.Chemscore.Lipo>
119.2216

> <Gold.Chemscore.Internal_Hbond>
0.0000

> <Gold.Chemscore.DEClash>
0.8223

> <Gold.Chemscore.DEInternal>
1.7796

> <Gold.Chemscore.Rot>
3.3837

> <Gold.Chemscore.Internal.Correction>
   9.000000E+99

> <Gold.Chemscore.Hbonds>
donor molecule, donor type, donor heavy atom, donor atom, acceptor molecule, acceptor atom, score
      L1  H     1    32       P1  7957  0.94
      L1  H    27    46       P1  7948  0.63
      P1  H  7989  7998       L1     4  0.01
      P1  H 10752 10765       L1    25  0.30

> <Gold.Chemscore.Hbond.Weighted>
-8.5768

> <Gold.Chemscore.Metal.Weighted>
-0.0000

> <Gold.Chemscore.Lipo.Weighted>
-13.9489

> <Gold.Chemscore.Internal_Hbond.Weighted>
0.0000

> <Gold.Chemscore.DEClash.Weighted>
0.8223

> <Gold.Chemscore.DEInternal.Weighted>
1.7796

> <Gold.Chemscore.Rot.Weighted>
8.6622

> <Gold.Chemscore.Internal.Correction.Weighted>
   9.000000E+99

> <Gold.Protein.RotatedTorsions>
[ 6907 6896 6895 6894 ] final  -55.36 input  -60.11 | X-H torsion
[ 7974 7965 7964 7962 ] final  101.88 input  175.53 | X-H torsion
[ 8008 7997 7996 7995 ] final  -20.62 input   59.86 | X-H torsion
[ 10167 10162 10161 10158 ] final  -69.85 input  -65.29 | X-H torsion
[ 10718 10713 10712 10709 ] final   89.47 input   66.30 | X-H torsion
[ 10763 10752 10751 10750 ] final -159.30 input  -60.55 | X-H torsion
[ 11005 11000 10999 10996 ] final   39.80 input  -57.11 | X-H torsion

> <Gold.Protein.ActiveResidues>
 VAL166  LYS551  ARG553  GLY616  TRP617  ASP618  TYR619  PRO620  LYS621  CYS622 
 ASP623  PHE694  ASN695  SER759  ASP760  ASP761  ALA762  ILE779  LEU786  VAL792 
 PHE793  MET794  SER795  GLU796  ALA797  LYS798  CYS799  TRP800  GLU811  SER814 

> <Gold.Protein.RotatedAtoms>
  150.8259  134.7489  159.6811 H   0  0  0  0  0  0  0  0  0  0  0  0  # atno 6907 bound_to 6896
  152.4369  134.5664  159.9918 H   0  0  0  0  0  0  0  0  0  0  0  0  # atno 6908 bound_to 6896
  151.5837  133.3337  159.3049 H   0  0  0  0  0  0  0  0  0  0  0  0  # atno 6909 bound_to 6896
  145.3665  139.2407  143.3478 H   0  0  0  0  0  0  0  0  0  0  0  0  # atno 7974 bound_to 7965
  154.4758  140.2057  155.9882 H   0  0  0  0  0  0  0  0  0  0  0  0  # atno 8008 bound_to 7997
  156.1086  140.3232  155.8011 H   0  0  0  0  0  0  0  0  0  0  0  0  # atno 8009 bound_to 7997
  155.4674  140.0528  157.2974 H   0  0  0  0  0  0  0  0  0  0  0  0  # atno 8010 bound_to 7997
  140.5399  143.2315  151.7109 H   0  0  0  0  0  0  0  0  0  0  0  0  # atno 10167 bound_to 10162
  157.6955  131.0334  150.3431 H   0  0  0  0  0  0  0  0  0  0  0  0  # atno 10718 bound_to 10713
  154.7486  135.3086  154.8599 H   0  0  0  0  0  0  0  0  0  0  0  0  # atno 10763 bound_to 10752
  153.9392  135.6776  153.4748 H   0  0  0  0  0  0  0  0  0  0  0  0  # atno 10764 bound_to 10752
  153.1082  135.4879  154.8916 H   0  0  0  0  0  0  0  0  0  0  0  0  # atno 10765 bound_to 10752
  140.1992  134.3891  155.8105 H   0  0  0  0  0  0  0  0  0  0  0  0  # atno 11005 bound_to 11000
  146.2904  140.4308  142.8741 LP  0  0  0  0  0  0  0  0  0  0  0  0  # atno 17320 bound_to 7965
  144.8608  140.7136  143.6108 LP  0  0  0  0  0  0  0  0  0  0  0  0  # atno 17321 bound_to 7965
  139.4985  144.3985  152.0206 LP  0  0  0  0  0  0  0  0  0  0  0  0  # atno 17342 bound_to 10162
  140.3093  144.3556  150.6038 LP  0  0  0  0  0  0  0  0  0  0  0  0  # atno 17343 bound_to 10162
  156.3889  130.3894  149.7044 LP  0  0  0  0  0  0  0  0  0  0  0  0  # atno 17370 bound_to 10713
  156.4401  130.7857  151.2878 LP  0  0  0  0  0  0  0  0  0  0  0  0  # atno 17371 bound_to 10713
  141.2227  133.7085  156.8229 LP  0  0  0  0  0  0  0  0  0  0  0  0  # atno 17394 bound_to 11000
  140.2073  134.8853  157.3235 LP  0  0  0  0  0  0  0  0  0  0  0  0  # atno 17395 bound_to 11000

$$$$
