AV-unprocessed.smi:160|AV-procd|sdf|1362|dock2
  -GOLD-   2262019 73D 1   1.00000     0.00000
 Structure written by MMmdl.
 28 29  0  0  0  0  0  0  0  0  2 V2000
  153.8553  136.9185  156.5890 N   0  5  0  0  0  0  0  0  0  0  0  0
  153.1103  138.0398  156.7017 C   0  0  0  0  0  0  0  0  0  0  0  0
  153.4001  139.0434  157.3522 O   0  0  0  0  0  0  0  0  0  0  0  0
  151.8070  138.0063  155.9391 C   0  0  0  0  0  0  0  0  0  0  0  0
  151.5574  137.0159  155.0289 N   0  0  0  0  0  0  0  0  0  0  0  0
  150.3490  137.3916  154.6324 C   0  0  0  0  0  0  0  0  0  0  0  0
  149.8984  138.5010  155.2245 N   0  0  0  0  0  0  0  0  0  0  0  0
  148.5989  139.2222  155.0503 C   0  0  1  0  0  0  0  0  0  0  0  0
  148.1591  139.6115  156.3167 O   0  0  0  0  0  0  0  0  0  0  0  0
  147.7711  140.9834  156.3092 C   0  0  1  0  0  0  0  0  0  0  0  0
  147.9047  141.6011  157.7124 C   0  0  0  0  0  0  0  0  0  0  0  0
  147.6451  142.9880  157.6609 O   0  0  0  0  0  0  0  0  0  0  0  0
  148.6492  141.6153  155.2197 C   0  0  1  0  0  0  0  0  0  0  0  0
  149.9202  141.9755  155.7326 O   0  0  0  0  0  0  0  0  0  0  0  0
  148.7240  140.4956  154.1890 C   0  0  1  0  0  0  0  0  0  0  0  0
  149.8650  140.5730  153.3503 O   0  0  0  0  0  0  0  0  0  0  0  0
  150.8442  138.9194  156.1006 N   0  0  0  0  0  0  0  0  0  0  0  0
  147.9307  138.4775  154.6161 H   0  0  0  0  0  0  0  0  0  0  0  0
  146.7337  141.0382  155.9733 H   0  0  0  0  0  0  0  0  0  0  0  0
  148.1908  142.5117  154.8012 H   0  0  0  0  0  0  0  0  0  0  0  0
  147.8335  140.5398  153.5604 H   0  0  0  0  0  0  0  0  0  0  0  0
  154.4747  136.6638  157.3676 H   0  0  0  0  0  0  0  0  0  0  0  0
  149.7820  136.8488  153.8906 H   0  0  0  0  0  0  0  0  0  0  0  0
  147.2353  141.1164  158.4239 H   0  0  0  0  0  0  0  0  0  0  0  0
  148.9221  141.4753  158.0841 H   0  0  0  0  0  0  0  0  0  0  0  0
  148.1919  143.3691  156.9912 H   0  0  0  0  0  0  0  0  0  0  0  0
  149.9308  142.9101  155.8743 H   0  0  0  0  0  0  0  0  0  0  0  0
  149.7608  139.9577  152.6410 H   0  0  0  0  0  0  0  0  0  0  0  0
  1  2  1  0  0  0  0
  1 22  1  0  0  0  0
  2  3  2  0  0  0  0
  2  4  1  0  0  0  0
  4 17  2  0  0  0  0
  4  5  1  0  0  0  0
  5  6  2  0  0  0  0
  6  7  1  0  0  0  0
  6 23  1  0  0  0  0
  7  8  1  0  0  0  0
  7 17  1  0  0  0  0
  8 18  1  0  0  0  0
  8 15  1  0  0  0  0
  8  9  1  0  0  0  0
  9 10  1  0  0  0  0
 10 19  1  0  0  0  0
 10 11  1  0  0  0  0
 10 13  1  0  0  0  0
 11 12  1  0  0  0  0
 11 24  1  0  0  0  0
 11 25  1  0  0  0  0
 12 26  1  0  0  0  0
 13 20  1  0  0  0  0
 13 14  1  0  0  0  0
 13 15  1  0  0  0  0
 14 27  1  0  0  0  0
 15 21  1  0  0  0  0
 15 16  1  0  0  0  0
 16 28  1  0  0  0  0
M  CHG  1   1  -1
M  END
> <s_m_source_file>
AV-unprocessed.smi

> <i_m_source_file_index>
160

> <i_lp_mmshare_version>
43012

> <i_f3d_flags>
0

> <s_epik_input>
W05IMl1DKD1PKWMxbltjSF1uKG4xKVtDQEBIXTJPW0NASF0oW0NIMl1bT0hdKVtDQEBIXShbT0hdKVtDQEhdMltPSF0=

> <s_epik_cmdline>
J2VwaWtfcHl0aG9uJywgJy1waCcsICc3LjAnLCAnLXRuJywgJzgnLCAnLW1hJywgJzIwMCcsICctbWV0YWxfYmluZGluZycsICctaW1hZScsICc8aW5maWxlLm1hZT4nLCAnLW9tYWUnLCAnPG91dGZpbGUubWFlPic=

> <r_lp_tautomer_probability>
1

> <r_epik_Ionization_Penalty>
6.6993

> <r_epik_Ionization_Penalty_Charging>
6.6993

> <r_epik_Ionization_Penalty_Neutral>
6.01698e-06

> <r_epik_State_Penalty>
6.69929

> <r_epik_Charging_Adjusted_Penalty>
13.3986

> <i_epik_Tot_Q>
-1

> <i_epik_Tot_abs_Q>
1

> <r_epik_Metal_State_Penalty>
2.62798

> <b_epik_Metal_Only>
1

> <s_epik_Chemistry_Notes>
This compound contains an acetal/aminal-like group ( X-CH(R)-Y where X, Y are N, S, or O) that may be acid/base labile, releasing an aldehyde.

> <s_lp_Force_Field>
OPLS_2005

> <r_lp_Energy>
51.4857

> <b_lp_Chiralities_Consistent>
1

> <s_lp_Variant>
AV-unprocessed.smi:160-20

> <Gold.Version>
5.8.1

> <Gold.Id.Protein>
6NUR|6NUR_protein|mol2

> <Gold.PLP.Fitness>
39.0155

> <Gold.PLP.PLP>
-18.1868

> <Gold.PLP.part.hbond>
-7.5422

> <Gold.PLP.part.metal>
0.0000

> <Gold.PLP.part.buried>
0.7358

> <Gold.PLP.part.nonpolar>
-11.3554

> <Gold.PLP.part.repulsive>
0.1138

> <Gold.PLP.ligand.clash>
0.0000

> <Gold.PLP.ligand.torsion>
0.5705

> <Gold.PLP.Chemscore.Hbond>
6.3216

> <Gold.PLP.Chemscore.CHOScore>
1.0000

> <Gold.PLP.Chemscore.Metal>
0.0000

> <Gold.Chemscore.Hbonds>
donor molecule, donor type, donor heavy atom, donor atom, acceptor molecule, acceptor atom, score
      L1  H    12    26       P1  8028  0.70
      L1  H    14    27       P1  8028  0.77
      L1  H    16    28       P1  7957  0.64
      P1  H  7989  7998       L1    16  0.38
      P1  H  7997  8009       L1     3  1.00
      P1  H  8011  8017       L1    16  0.83
      P1  H 10752 10764       L1     5  0.83
      P1  H 10752 10765       L1     1  1.03
      L1  C     6    23       P1  7948  1.00

> <Gold.PLP.Chemscore.Internal.Correction>
0.0050

> <Gold.Rescore>
     Score         DG    S(hbond)    S(metal)    S(lipo)     H(rot)  DE(clash)    DE(int)     intcor
      9.19      -9.83       3.79        0.00      17.56       4.04       0.06       0.58       ----

> <Gold.Chemscore.Fitness>
9.1931

> <Gold.Chemscore.DG>
-9.8342

> <Gold.Chemscore.ZeroCoef>
-5.4800

> <Gold.Chemscore.Hbond>
3.7851

> <Gold.Chemscore.Metal>
0.0000

> <Gold.Chemscore.Lipo>
17.5642

> <Gold.Chemscore.Internal_Hbond>
0.0000

> <Gold.Chemscore.DEClash>
0.0617

> <Gold.Chemscore.DEInternal>
0.5794

> <Gold.Chemscore.Rot>
4.0403

> <Gold.Chemscore.Internal.Correction>
   9.000000E+99

> <Gold.Chemscore.Hbonds>
donor molecule, donor type, donor heavy atom, donor atom, acceptor molecule, acceptor atom, score
      L1  H    12    26       P1  8028  0.07
      L1  H    14    27       P1  8028  0.72
      L1  H    16    28       P1  7957  0.63
      P1  H  7989  7998       L1    16  0.19
      P1  H  7997  8009       L1     3  0.93
      P1  H  8011  8017       L1    16  0.17
      P1  H 10752 10764       L1     5  0.77
      P1  H 10752 10765       L1     1  0.12

> <Gold.Chemscore.Hbond.Weighted>
-12.6422

> <Gold.Chemscore.Metal.Weighted>
-0.0000

> <Gold.Chemscore.Lipo.Weighted>
-2.0550

> <Gold.Chemscore.Internal_Hbond.Weighted>
0.0000

> <Gold.Chemscore.DEClash.Weighted>
0.0617

> <Gold.Chemscore.DEInternal.Weighted>
0.5794

> <Gold.Chemscore.Rot.Weighted>
10.3431

> <Gold.Chemscore.Internal.Correction.Weighted>
   9.000000E+99

> <Gold.Protein.RotatedTorsions>
[ 6907 6896 6895 6894 ] final   88.65 input  -60.11 | X-H torsion
[ 7974 7965 7964 7962 ] final -143.96 input  175.53 | X-H torsion
[ 8008 7997 7996 7995 ] final  166.10 input   59.86 | X-H torsion
[ 10167 10162 10161 10158 ] final    7.01 input  -65.29 | X-H torsion
[ 10718 10713 10712 10709 ] final    2.78 input   66.30 | X-H torsion
[ 10763 10752 10751 10750 ] final  -80.56 input  -60.55 | X-H torsion
[ 11005 11000 10999 10996 ] final  -47.67 input  -57.11 | X-H torsion

> <Gold.Protein.ActiveResidues>
 VAL166  LYS551  ARG553  GLY616  TRP617  ASP618  TYR619  PRO620  LYS621  CYS622 
 ASP623  PHE694  ASN695  SER759  ASP760  ASP761  ALA762  ILE779  LEU786  VAL792 
 PHE793  MET794  SER795  GLU796  ALA797  LYS798  CYS799  TRP800  GLU811  SER814 

> <Gold.Protein.RotatedAtoms>
  152.5427  134.2088  159.8741 H   0  0  0  0  0  0  0  0  0  0  0  0  # atno 6907 bound_to 6896
  151.2072  133.4570  159.2605 H   0  0  0  0  0  0  0  0  0  0  0  0  # atno 6908 bound_to 6896
  151.0931  134.9941  159.8468 H   0  0  0  0  0  0  0  0  0  0  0  0  # atno 6909 bound_to 6896
  144.8331  140.5769  143.5502 H   0  0  0  0  0  0  0  0  0  0  0  0  # atno 7974 bound_to 7965
  156.1746  140.1652  156.8385 H   0  0  0  0  0  0  0  0  0  0  0  0  # atno 8008 bound_to 7997
  154.5293  140.0760  156.8350 H   0  0  0  0  0  0  0  0  0  0  0  0  # atno 8009 bound_to 7997
  155.3440  140.3386  155.4241 H   0  0  0  0  0  0  0  0  0  0  0  0  # atno 8010 bound_to 7997
  140.6396  143.7806  150.7408 H   0  0  0  0  0  0  0  0  0  0  0  0  # atno 10167 bound_to 10162
  156.8681  130.5610  149.5659 H   0  0  0  0  0  0  0  0  0  0  0  0  # atno 10718 bound_to 10713
  154.5527  135.5657  153.6937 H   0  0  0  0  0  0  0  0  0  0  0  0  # atno 10763 bound_to 10752
  152.9994  135.6255  154.2352 H   0  0  0  0  0  0  0  0  0  0  0  0  # atno 10764 bound_to 10752
  154.2287  135.2867  155.2878 H   0  0  0  0  0  0  0  0  0  0  0  0  # atno 10765 bound_to 10752
  141.0654  133.6695  156.3330 H   0  0  0  0  0  0  0  0  0  0  0  0  # atno 11005 bound_to 11000
  145.4852  139.1492  143.3740 LP  0  0  0  0  0  0  0  0  0  0  0  0  # atno 17320 bound_to 7965
  146.2632  140.4989  142.8844 LP  0  0  0  0  0  0  0  0  0  0  0  0  # atno 17321 bound_to 7965
  140.1435  143.4420  152.2178 LP  0  0  0  0  0  0  0  0  0  0  0  0  # atno 17342 bound_to 10162
  139.5605  144.7402  151.4169 LP  0  0  0  0  0  0  0  0  0  0  0  0  # atno 17343 bound_to 10162
  156.0741  130.5767  150.9440 LP  0  0  0  0  0  0  0  0  0  0  0  0  # atno 17370 bound_to 10713
  157.6212  131.0929  150.8619 LP  0  0  0  0  0  0  0  0  0  0  0  0  # atno 17371 bound_to 10713
  140.5783  134.5771  157.5473 LP  0  0  0  0  0  0  0  0  0  0  0  0  # atno 17394 bound_to 11000
  139.9472  134.7681  156.0534 LP  0  0  0  0  0  0  0  0  0  0  0  0  # atno 17395 bound_to 11000

$$$$
