AV-unprocessed.smi:2225|AV-procd|sdf|9000|dock8
  -GOLD-   2272012213D 1   1.00000     0.00000
 Structure written by MMmdl.
 33 34  0  0  0  0  0  0  0  0  1 V2000
  150.4533  140.9346  158.2510 O   0  0  0  0  0  0  0  0  0  0  0  0
  150.5765  141.9845  157.6217 C   0  0  0  0  0  0  0  0  0  0  0  0
  151.6143  143.0185  158.0925 C   0  0  0  0  0  0  0  0  0  0  0  0
  152.3318  142.6628  159.3310 N   0  0  0  0  0  0  0  0  0  0  0  0
  152.1826  143.5376  160.4219 C   0  0  0  0  0  0  0  0  0  0  0  0
  152.7876  143.3119  161.5955 C   0  0  0  0  0  0  0  0  0  0  0  0
  153.6132  142.1358  161.7219 C   0  0  0  0  0  0  0  0  0  0  0  0
  153.7726  141.2732  160.6916 C   0  0  0  0  0  0  0  0  0  0  0  0
  154.6398  140.0220  160.8102 C   0  0  0  0  0  0  0  0  0  0  0  0
  153.9130  138.9240  160.5982 F   0  0  0  0  0  0  0  0  0  0  0  0
  155.6250  140.0498  159.9120 F   0  0  0  0  0  0  0  0  0  0  0  0
  155.1927  139.9159  162.0195 F   0  0  0  0  0  0  0  0  0  0  0  0
  153.0922  141.5265  159.4050 C   0  0  0  0  0  0  0  0  0  0  0  0
  153.1924  140.7621  158.4441 O   0  0  0  0  0  0  0  0  0  0  0  0
  149.8444  142.2656  156.5306 N   0  0  0  0  0  0  0  0  0  0  0  0
  148.8329  141.3901  155.9491 C   0  0  1  0  0  0  0  0  0  0  0  0
  147.4658  142.0685  155.8930 C   0  0  0  0  0  0  0  0  0  0  0  0
  147.1544  142.1578  154.4008 C   0  0  0  0  0  0  0  0  0  0  0  0
  147.8702  141.0669  153.8484 O   0  0  0  0  0  0  0  0  0  0  0  0
  149.1386  141.0543  154.4825 C   0  0  0  0  0  0  0  0  0  0  0  0
  152.3199  143.1946  157.2788 H   0  0  0  0  0  0  0  0  0  0  0  0
  151.0999  143.9719  158.2228 H   0  0  0  0  0  0  0  0  0  0  0  0
  151.5435  144.3908  160.2452 H   0  0  0  0  0  0  0  0  0  0  0  0
  152.6591  143.9912  162.4253 H   0  0  0  0  0  0  0  0  0  0  0  0
  154.1075  141.9558  162.6649 H   0  0  0  0  0  0  0  0  0  0  0  0
  150.0046  143.1476  156.0661 H   0  0  0  0  0  0  0  0  0  0  0  0
  148.7481  140.4733  156.5354 H   0  0  0  0  0  0  0  0  0  0  0  0
  146.7254  141.4393  156.3882 H   0  0  0  0  0  0  0  0  0  0  0  0
  147.4393  143.0477  156.3734 H   0  0  0  0  0  0  0  0  0  0  0  0
  146.0874  142.0910  154.1872 H   0  0  0  0  0  0  0  0  0  0  0  0
  147.5320  143.0916  153.9805 H   0  0  0  0  0  0  0  0  0  0  0  0
  149.7697  141.8154  154.0197 H   0  0  0  0  0  0  0  0  0  0  0  0
  149.6334  140.0896  154.3683 H   0  0  0  0  0  0  0  0  0  0  0  0
  1  2  2  0  0  0  0
  2  3  1  0  0  0  0
  2 15  1  0  0  0  0
  3  4  1  0  0  0  0
  3 21  1  0  0  0  0
  3 22  1  0  0  0  0
  4 13  1  0  0  0  0
  4  5  1  0  0  0  0
  5  6  2  0  0  0  0
  5 23  1  0  0  0  0
  6  7  1  0  0  0  0
  6 24  1  0  0  0  0
  7  8  2  0  0  0  0
  7 25  1  0  0  0  0
  8  9  1  0  0  0  0
  8 13  1  0  0  0  0
  9 10  1  0  0  0  0
  9 11  1  0  0  0  0
  9 12  1  0  0  0  0
 13 14  2  0  0  0  0
 15 16  1  0  0  0  0
 15 26  1  0  0  0  0
 16 20  1  0  0  0  0
 16 17  1  0  0  0  0
 16 27  1  0  0  0  0
 17 18  1  0  0  0  0
 17 28  1  0  0  0  0
 17 29  1  0  0  0  0
 18 19  1  0  0  0  0
 18 30  1  0  0  0  0
 18 31  1  0  0  0  0
 19 20  1  0  0  0  0
 20 32  1  0  0  0  0
 20 33  1  0  0  0  0
M  END
> <s_m_source_file>
AV-unprocessed.smi

> <i_m_source_file_index>
2225

> <i_lp_mmshare_version>
43012

> <i_f3d_flags>
0

> <s_epik_input>
W0NIMl0xT1tDSDJdW0NIMl1bQ0BIXTFbTkhdQyg9TylbQ0gyXW4yW2NIXVtjSF1bY0hdYyhDKEYpKEYpRiljMj1P

> <s_epik_cmdline>
J2VwaWtfcHl0aG9uJywgJy1waCcsICc3LjAnLCAnLXRuJywgJzgnLCAnLW1hJywgJzIwMCcsICctbWV0YWxfYmluZGluZycsICctaW1hZScsICc8aW5maWxlLm1hZT4nLCAnLW9tYWUnLCAnPG91dGZpbGUubWFlPic=

> <r_lp_tautomer_probability>
1

> <r_epik_Ionization_Penalty>
3.32109e-08

> <r_epik_Ionization_Penalty_Charging>
1.91399e-09

> <r_epik_Ionization_Penalty_Neutral>
3.1297e-08

> <r_epik_State_Penalty>
-0

> <r_epik_Charging_Adjusted_Penalty>
1.91399e-09

> <i_epik_Tot_Q>
0

> <i_epik_Tot_abs_Q>
0

> <r_epik_Metal_State_Penalty>
-0

> <b_epik_Metal_Only>
0

> <s_lp_Force_Field>
OPLS_2005

> <r_lp_Energy>
24.9921

> <b_lp_Chiralities_Consistent>
1

> <s_lp_Variant>
AV-unprocessed.smi:2225-2

> <Gold.Version>
5.8.1

> <Gold.Id.Protein>
6NUR|6NUR_protein|mol2

> <Gold.PLP.Fitness>
47.5126

> <Gold.PLP.PLP>
-44.2793

> <Gold.PLP.part.hbond>
-2.0000

> <Gold.PLP.part.metal>
0.0000

> <Gold.PLP.part.buried>
-2.5498

> <Gold.PLP.part.nonpolar>
-39.8403

> <Gold.PLP.part.repulsive>
0.2740

> <Gold.PLP.ligand.clash>
0.3381

> <Gold.PLP.ligand.torsion>
0.0134

> <Gold.PLP.Chemscore.Hbond>
1.0790

> <Gold.PLP.Chemscore.CHOScore>
0.0000

> <Gold.PLP.Chemscore.Metal>
0.0000

> <Gold.Chemscore.Hbonds>
donor molecule, donor type, donor heavy atom, donor atom, acceptor molecule, acceptor atom, score
      L1  H    15    26       P1  8028  0.70
      P1  H  7997  8008       L1    14  0.53

> <Gold.PLP.Chemscore.Internal.Correction>
0.3614

> <Gold.Rescore>
     Score         DG    S(hbond)    S(metal)    S(lipo)     H(rot)  DE(clash)    DE(int)     intcor
      9.45     -15.71       1.43        0.00      82.45       1.64       0.15       6.12       ----

> <Gold.Chemscore.Fitness>
9.4470

> <Gold.Chemscore.DG>
-15.7143

> <Gold.Chemscore.ZeroCoef>
-5.4800

> <Gold.Chemscore.Hbond>
1.4320

> <Gold.Chemscore.Metal>
0.0000

> <Gold.Chemscore.Lipo>
82.4530

> <Gold.Chemscore.Internal_Hbond>
0.0000

> <Gold.Chemscore.DEClash>
0.1480

> <Gold.Chemscore.DEInternal>
6.1193

> <Gold.Chemscore.Rot>
1.6389

> <Gold.Chemscore.Internal.Correction>
   9.000000E+99

> <Gold.Chemscore.Hbonds>
donor molecule, donor type, donor heavy atom, donor atom, acceptor molecule, acceptor atom, score
      L1  H    15    26       P1  8028  0.69
      P1  H  7997  8008       L1    14  0.53

> <Gold.Chemscore.Hbond.Weighted>
-4.7829

> <Gold.Chemscore.Metal.Weighted>
-0.0000

> <Gold.Chemscore.Lipo.Weighted>
-9.6470

> <Gold.Chemscore.Internal_Hbond.Weighted>
0.0000

> <Gold.Chemscore.DEClash.Weighted>
0.1480

> <Gold.Chemscore.DEInternal.Weighted>
6.1193

> <Gold.Chemscore.Rot.Weighted>
4.1956

> <Gold.Chemscore.Internal.Correction.Weighted>
   9.000000E+99

> <Gold.Protein.RotatedTorsions>
[ 6907 6896 6895 6894 ] final -142.85 input  -60.11 | X-H torsion
[ 7974 7965 7964 7962 ] final   18.42 input  175.53 | X-H torsion
[ 8008 7997 7996 7995 ] final  -88.65 input   59.86 | X-H torsion
[ 10167 10162 10161 10158 ] final  130.27 input  -65.29 | X-H torsion
[ 10718 10713 10712 10709 ] final -152.47 input   66.30 | X-H torsion
[ 10763 10752 10751 10750 ] final  127.47 input  -60.55 | X-H torsion
[ 11005 11000 10999 10996 ] final -124.38 input  -57.11 | X-H torsion

> <Gold.Protein.ActiveResidues>
 VAL166  LYS551  ARG553  GLY616  TRP617  ASP618  TYR619  PRO620  LYS621  CYS622 
 ASP623  PHE694  ASN695  SER759  ASP760  ASP761  ALA762  ILE779  LEU786  VAL792 
 PHE793  MET794  SER795  GLU796  ALA797  LYS798  CYS799  TRP800  GLU811  SER814 

> <Gold.Protein.RotatedAtoms>
  151.0926  133.5304  159.2613 H   0  0  0  0  0  0  0  0  0  0  0  0  # atno 6907 bound_to 6896
  151.2165  135.0501  159.8942 H   0  0  0  0  0  0  0  0  0  0  0  0  # atno 6908 bound_to 6896
  152.5435  134.0735  159.8258 H   0  0  0  0  0  0  0  0  0  0  0  0  # atno 6909 bound_to 6896
  146.2185  139.8459  142.8632 H   0  0  0  0  0  0  0  0  0  0  0  0  # atno 7974 bound_to 7965
  154.6773  140.0551  157.0229 H   0  0  0  0  0  0  0  0  0  0  0  0  # atno 8008 bound_to 7997
  155.1002  140.3228  155.4530 H   0  0  0  0  0  0  0  0  0  0  0  0  # atno 8009 bound_to 7997
  156.2681  140.2032  156.6128 H   0  0  0  0  0  0  0  0  0  0  0  0  # atno 8010 bound_to 7997
  139.5438  144.6755  151.4539 H   0  0  0  0  0  0  0  0  0  0  0  0  # atno 10167 bound_to 10162
  156.4730  130.8267  151.2496 H   0  0  0  0  0  0  0  0  0  0  0  0  # atno 10718 bound_to 10713
  153.7100  135.3270  155.3244 H   0  0  0  0  0  0  0  0  0  0  0  0  # atno 10763 bound_to 10752
  154.8388  135.4474  154.1324 H   0  0  0  0  0  0  0  0  0  0  0  0  # atno 10764 bound_to 10752
  153.2415  135.6971  153.7857 H   0  0  0  0  0  0  0  0  0  0  0  0  # atno 10765 bound_to 10752
  140.9846  134.0625  157.3726 H   0  0  0  0  0  0  0  0  0  0  0  0  # atno 11005 bound_to 11000
  145.2851  141.0150  143.3695 LP  0  0  0  0  0  0  0  0  0  0  0  0  # atno 17320 bound_to 7965
  144.9120  139.4517  143.6582 LP  0  0  0  0  0  0  0  0  0  0  0  0  # atno 17321 bound_to 7965
  140.6678  143.8359  150.6963 LP  0  0  0  0  0  0  0  0  0  0  0  0  # atno 17342 bound_to 10162
  140.1774  143.4143  152.1957 LP  0  0  0  0  0  0  0  0  0  0  0  0  # atno 17343 bound_to 10162
  157.7490  131.0070  150.3173 LP  0  0  0  0  0  0  0  0  0  0  0  0  # atno 17370 bound_to 10713
  156.3599  130.3845  149.7260 LP  0  0  0  0  0  0  0  0  0  0  0  0  # atno 17371 bound_to 10713
  139.8965  135.0146  156.7053 LP  0  0  0  0  0  0  0  0  0  0  0  0  # atno 17394 bound_to 11000
  140.7134  133.9203  155.8099 LP  0  0  0  0  0  0  0  0  0  0  0  0  # atno 17395 bound_to 11000

$$$$
