AV-unprocessed.smi:1386|AV-procd|sdf|5637|dock1
  -GOLD-   22720 5253D 1   1.00000     0.00000
 Structure written by MMmdl.
 36 37  0  0  0  0  0  0  0  0  2 V2000
  149.2236  140.4286  157.7853 C   0  0  0  0  0  0  0  0  0  0  0  0
  150.5089  140.6665  156.9821 C   0  0  1  0  0  0  0  0  0  0  0  0
  150.2093  141.3587  155.6350 C   0  0  0  0  0  0  0  0  0  0  0  0
  149.4127  140.5243  154.7273 N   0  0  0  0  0  0  0  0  0  0  0  0
  148.1497  140.7776  154.2567 C   0  0  0  0  0  0  0  0  0  0  0  0
  147.8089  139.7147  153.4604 C   0  0  0  0  0  0  0  0  0  0  0  0
  148.8810  138.8632  153.4700 N   0  3  0  0  0  0  0  0  0  0  0  0
  149.8576  139.3603  154.2354 C   0  0  0  0  0  0  0  0  0  0  0  0
  151.4312  141.4704  157.7839 N   0  0  0  0  0  0  0  0  0  0  0  0
  151.1438  142.6455  158.3725 C   0  0  0  0  0  0  0  0  0  0  0  0
  150.0579  143.2069  158.2220 O   0  0  0  0  0  0  0  0  0  0  0  0
  152.1302  143.1422  159.1603 N   0  0  0  0  0  0  0  0  0  0  0  0
  153.3533  142.4290  159.5611 C   0  0  0  0  0  0  0  0  0  0  0  0
  153.1085  141.7428  160.9156 C   0  0  0  0  0  0  0  0  0  0  0  0
  152.7456  142.9670  162.2138 S   0  0  0  0  0  0  0  0  0  0  0  0
  151.4747  143.9612  161.3695 C   0  0  0  0  0  0  0  0  0  0  0  0
  151.9315  144.3590  159.9555 C   0  0  0  0  0  0  0  0  0  0  0  0
  148.5243  139.8030  157.2298 H   0  0  0  0  0  0  0  0  0  0  0  0
  148.7187  141.3672  158.0164 H   0  0  0  0  0  0  0  0  0  0  0  0
  149.4368  139.9242  158.7283 H   0  0  0  0  0  0  0  0  0  0  0  0
  150.9482  139.6875  156.7820 H   0  0  0  0  0  0  0  0  0  0  0  0
  149.6494  142.2802  155.7991 H   0  0  0  0  0  0  0  0  0  0  0  0
  151.1357  141.6374  155.1295 H   0  0  0  0  0  0  0  0  0  0  0  0
  147.5970  141.6658  154.5264 H   0  0  0  0  0  0  0  0  0  0  0  0
  146.9075  139.5060  152.9025 H   0  0  0  0  0  0  0  0  0  0  0  0
  150.8128  138.9048  154.4261 H   0  0  0  0  0  0  0  0  0  0  0  0
  152.3500  141.0821  157.9411 H   0  0  0  0  0  0  0  0  0  0  0  0
  153.6802  141.6978  158.8214 H   0  0  0  0  0  0  0  0  0  0  0  0
  154.1841  143.1312  159.6449 H   0  0  0  0  0  0  0  0  0  0  0  0
  152.2752  141.0435  160.8433 H   0  0  0  0  0  0  0  0  0  0  0  0
  153.9841  141.1663  161.2142 H   0  0  0  0  0  0  0  0  0  0  0  0
  150.5475  143.3883  161.3235 H   0  0  0  0  0  0  0  0  0  0  0  0
  151.2706  144.8495  161.9674 H   0  0  0  0  0  0  0  0  0  0  0  0
  152.8562  144.9357  160.0057 H   0  0  0  0  0  0  0  0  0  0  0  0
  151.1994  145.0275  159.4998 H   0  0  0  0  0  0  0  0  0  0  0  0
  148.9309  137.9849  152.9688 H   0  0  0  0  0  0  0  0  0  0  0  0
  1  2  1  0  0  0  0
  1 18  1  0  0  0  0
  1 19  1  0  0  0  0
  1 20  1  0  0  0  0
  2  3  1  0  0  0  0
  2  9  1  0  0  0  0
  2 21  1  0  0  0  0
  3  4  1  0  0  0  0
  3 22  1  0  0  0  0
  3 23  1  0  0  0  0
  4  8  1  0  0  0  0
  4  5  1  0  0  0  0
  5  6  2  0  0  0  0
  5 24  1  0  0  0  0
  6  7  1  0  0  0  0
  6 25  1  0  0  0  0
  7  8  2  0  0  0  0
  7 36  1  0  0  0  0
  8 26  1  0  0  0  0
  9 10  1  0  0  0  0
  9 27  1  0  0  0  0
 10 11  2  0  0  0  0
 10 12  1  0  0  0  0
 12 17  1  0  0  0  0
 12 13  1  0  0  0  0
 13 14  1  0  0  0  0
 13 28  1  0  0  0  0
 13 29  1  0  0  0  0
 14 15  1  0  0  0  0
 14 30  1  0  0  0  0
 14 31  1  0  0  0  0
 15 16  1  0  0  0  0
 16 17  1  0  0  0  0
 16 32  1  0  0  0  0
 16 33  1  0  0  0  0
 17 34  1  0  0  0  0
 17 35  1  0  0  0  0
M  CHG  1   7   1
M  END
> <s_m_source_file>
AV-unprocessed.smi

> <i_m_source_file_index>
1386

> <i_lp_mmshare_version>
43012

> <i_f3d_flags>
0

> <s_epik_input>
W2NIXTFuW2NIXVtjSF1uMVtDSDJdW0NAQEhdKFtDSDNdKVtOSF1DKD1PKU4yW0NIMl1bQ0gyXVNbQ0gyXVtDSDJdMg==

> <s_epik_cmdline>
J2VwaWtfcHl0aG9uJywgJy1waCcsICc3LjAnLCAnLXRuJywgJzgnLCAnLW1hJywgJzIwMCcsICctbWV0YWxfYmluZGluZycsICctaW1hZScsICc8aW5maWxlLm1hZT4nLCAnLW9tYWUnLCAnPG91dGZpbGUubWFlPic=

> <r_lp_tautomer_probability>
1

> <r_epik_Ionization_Penalty>
0.254941

> <r_epik_Ionization_Penalty_Charging>
0

> <r_epik_Ionization_Penalty_Neutral>
0.254941

> <r_epik_State_Penalty>
0.246388

> <r_epik_Charging_Adjusted_Penalty>
0.246388

> <i_epik_Tot_Q>
1

> <i_epik_Tot_abs_Q>
1

> <r_epik_Metal_State_Penalty>
0.536262

> <b_epik_Metal_Only>
0

> <s_lp_Force_Field>
OPLS_2005

> <r_lp_Energy>
25.7972

> <b_lp_Chiralities_Consistent>
1

> <s_lp_Variant>
AV-unprocessed.smi:1386-2

> <Gold.Version>
5.8.1

> <Gold.Id.Protein>
6NUR|6NUR_protein|mol2

> <Gold.PLP.Fitness>
47.2867

> <Gold.PLP.PLP>
-41.4377

> <Gold.PLP.part.hbond>
-2.0000

> <Gold.PLP.part.metal>
0.0000

> <Gold.PLP.part.buried>
-2.7354

> <Gold.PLP.part.nonpolar>
-37.4720

> <Gold.PLP.part.repulsive>
0.7385

> <Gold.PLP.ligand.clash>
0.0000

> <Gold.PLP.ligand.torsion>
0.1327

> <Gold.PLP.Chemscore.Hbond>
2.0000

> <Gold.PLP.Chemscore.CHOScore>
0.0000

> <Gold.PLP.Chemscore.Metal>
0.0000

> <Gold.Chemscore.Hbonds>
donor molecule, donor type, donor heavy atom, donor atom, acceptor molecule, acceptor atom, score
      L1  H     7    36       P1  7948  1.92

> <Gold.PLP.Chemscore.Internal.Correction>
0.1145

> <Gold.Rescore>
     Score         DG    S(hbond)    S(metal)    S(lipo)     H(rot)  DE(clash)    DE(int)     intcor
     13.14     -14.76       1.00        0.00      86.72       1.64       0.46       1.16       ----

> <Gold.Chemscore.Fitness>
13.1406

> <Gold.Chemscore.DG>
-14.7589

> <Gold.Chemscore.ZeroCoef>
-5.4800

> <Gold.Chemscore.Hbond>
0.9975

> <Gold.Chemscore.Metal>
0.0000

> <Gold.Chemscore.Lipo>
86.7240

> <Gold.Chemscore.Internal_Hbond>
0.0000

> <Gold.Chemscore.DEClash>
0.4580

> <Gold.Chemscore.DEInternal>
1.1603

> <Gold.Chemscore.Rot>
1.6404

> <Gold.Chemscore.Internal.Correction>
   9.000000E+99

> <Gold.Chemscore.Hbonds>
donor molecule, donor type, donor heavy atom, donor atom, acceptor molecule, acceptor atom, score
      L1  H     7    36       P1  7948  0.91

> <Gold.Chemscore.Hbond.Weighted>
-3.3316

> <Gold.Chemscore.Metal.Weighted>
-0.0000

> <Gold.Chemscore.Lipo.Weighted>
-10.1467

> <Gold.Chemscore.Internal_Hbond.Weighted>
0.0000

> <Gold.Chemscore.DEClash.Weighted>
0.4580

> <Gold.Chemscore.DEInternal.Weighted>
1.1603

> <Gold.Chemscore.Rot.Weighted>
4.1995

> <Gold.Chemscore.Internal.Correction.Weighted>
   9.000000E+99

> <Gold.Protein.RotatedTorsions>
[ 6907 6896 6895 6894 ] final  137.34 input  -60.11 | X-H torsion
[ 7974 7965 7964 7962 ] final  -18.21 input  175.53 | X-H torsion
[ 8008 7997 7996 7995 ] final  -34.90 input   59.86 | X-H torsion
[ 10167 10162 10161 10158 ] final  103.72 input  -65.29 | X-H torsion
[ 10718 10713 10712 10709 ] final -120.21 input   66.30 | X-H torsion
[ 10763 10752 10751 10750 ] final  132.03 input  -60.55 | X-H torsion
[ 11005 11000 10999 10996 ] final   81.13 input  -57.11 | X-H torsion

> <Gold.Protein.ActiveResidues>
 VAL166  LYS551  ARG553  GLY616  TRP617  ASP618  TYR619  PRO620  LYS621  CYS622 
 ASP623  PHE694  ASN695  SER759  ASP760  ASP761  ALA762  ILE779  LEU786  VAL792 
 PHE793  MET794  SER795  GLU796  ALA797  LYS798  CYS799  TRP800  GLU811  SER814 

> <Gold.Protein.RotatedAtoms>
  152.2792  133.5454  159.5486 H   0  0  0  0  0  0  0  0  0  0  0  0  # atno 6907 bound_to 6896
  150.7189  134.0588  159.3833 H   0  0  0  0  0  0  0  0  0  0  0  0  # atno 6908 bound_to 6896
  151.8499  135.0561  160.0508 H   0  0  0  0  0  0  0  0  0  0  0  0  # atno 6909 bound_to 6896
  146.1903  140.3889  142.8460 H   0  0  0  0  0  0  0  0  0  0  0  0  # atno 7974 bound_to 7965
  154.4109  140.1671  156.2124 H   0  0  0  0  0  0  0  0  0  0  0  0  # atno 8008 bound_to 7997
  155.9433  140.3406  155.6322 H   0  0  0  0  0  0  0  0  0  0  0  0  # atno 8009 bound_to 7997
  155.6962  140.0739  157.2419 H   0  0  0  0  0  0  0  0  0  0  0  0  # atno 8010 bound_to 7997
  139.7239  144.7052  151.0829 H   0  0  0  0  0  0  0  0  0  0  0  0  # atno 10167 bound_to 10162
  156.1241  130.6345  150.9512 H   0  0  0  0  0  0  0  0  0  0  0  0  # atno 10718 bound_to 10713
  153.7841  135.3164  155.3370 H   0  0  0  0  0  0  0  0  0  0  0  0  # atno 10763 bound_to 10752
  154.8150  135.4642  154.0622 H   0  0  0  0  0  0  0  0  0  0  0  0  # atno 10764 bound_to 10752
  153.1920  135.6910  153.8426 H   0  0  0  0  0  0  0  0  0  0  0  0  # atno 10765 bound_to 10752
  139.9109  134.7973  156.2000 H   0  0  0  0  0  0  0  0  0  0  0  0  # atno 11005 bound_to 11000
  144.8474  140.6950  143.6190 LP  0  0  0  0  0  0  0  0  0  0  0  0  # atno 17320 bound_to 7965
  145.3812  139.1636  143.4279 LP  0  0  0  0  0  0  0  0  0  0  0  0  # atno 17321 bound_to 7965
  140.7759  143.5130  150.9629 LP  0  0  0  0  0  0  0  0  0  0  0  0  # atno 17342 bound_to 10162
  139.8818  143.7063  152.3156 LP  0  0  0  0  0  0  0  0  0  0  0  0  # atno 17343 bound_to 10162
  157.6423  131.0908  150.8226 LP  0  0  0  0  0  0  0  0  0  0  0  0  # atno 17370 bound_to 10713
  156.8318  130.5018  149.5330 LP  0  0  0  0  0  0  0  0  0  0  0  0  # atno 17371 bound_to 10713
  141.0531  133.6879  156.1808 LP  0  0  0  0  0  0  0  0  0  0  0  0  # atno 17394 bound_to 11000
  140.6780  134.4798  157.5588 LP  0  0  0  0  0  0  0  0  0  0  0  0  # atno 17395 bound_to 11000

$$$$
