AV-unprocessed.smi:60|AV-procd|sdf|594|dock10
  -GOLD-   2262016493D 1   1.00000     0.00000
 Structure written by MMmdl.
 35 36  0  0  0  0  0  0  0  0  2 V2000
  152.5225  140.0652  155.5769 O   0  0  0  0  0  0  0  0  0  0  0  0
  151.3504  140.4313  155.6595 C   0  0  0  0  0  0  0  0  0  0  0  0
  150.5370  140.5106  154.5658 N   0  5  0  0  0  0  0  0  0  0  0  0
  149.2258  140.8966  154.6227 C   0  0  0  0  0  0  0  0  0  0  0  0
  148.5170  140.9672  153.6178 O   0  0  0  0  0  0  0  0  0  0  0  0
  148.6919  141.2097  155.8399 N   0  0  0  0  0  0  0  0  0  0  0  0
  147.3080  141.6533  155.9571 C   0  0  0  0  0  0  0  0  0  0  0  0
  146.8813  141.6607  157.2870 O   0  0  0  0  0  0  0  0  0  0  0  0
  145.7963  142.5342  157.5751 C   0  0  0  0  0  0  0  0  0  0  0  0
  145.5133  142.4961  159.0815 C   0  0  0  0  0  0  0  0  0  0  0  0
  146.0008  141.2946  159.6403 O   0  0  0  0  0  0  0  0  0  0  0  0
  149.4902  141.1692  156.9948 C   0  0  0  0  0  0  0  0  0  0  0  0
  150.7862  140.7957  156.9644 C   0  0  0  0  0  0  0  0  0  0  0  0
  151.6455  140.7689  158.2206 C   0  0  0  0  0  0  0  0  0  0  0  0
  151.8061  142.1340  158.8645 C   0  0  0  0  0  0  0  0  0  0  0  0
  151.3162  143.2886  158.2179 C   0  0  0  0  0  0  0  0  0  0  0  0
  151.4655  144.5536  158.8194 C   0  0  0  0  0  0  0  0  0  0  0  0
  152.1032  144.6688  160.0698 C   0  0  0  0  0  0  0  0  0  0  0  0
  152.5922  143.5183  160.7186 C   0  0  0  0  0  0  0  0  0  0  0  0
  152.4450  142.2536  160.1167 C   0  0  0  0  0  0  0  0  0  0  0  0
  147.2327  142.6648  155.5544 H   0  0  0  0  0  0  0  0  0  0  0  0
  146.6578  141.0137  155.3583 H   0  0  0  0  0  0  0  0  0  0  0  0
  145.9994  143.5522  157.2383 H   0  0  0  0  0  0  0  0  0  0  0  0
  144.9075  142.1889  157.0457 H   0  0  0  0  0  0  0  0  0  0  0  0
  146.0289  143.3206  159.5742 H   0  0  0  0  0  0  0  0  0  0  0  0
  144.4489  142.6108  159.2878 H   0  0  0  0  0  0  0  0  0  0  0  0
  145.7644  140.5801  159.0689 H   0  0  0  0  0  0  0  0  0  0  0  0
  148.9905  141.4647  157.9056 H   0  0  0  0  0  0  0  0  0  0  0  0
  151.2505  140.0672  158.9563 H   0  0  0  0  0  0  0  0  0  0  0  0
  152.6298  140.3830  157.9522 H   0  0  0  0  0  0  0  0  0  0  0  0
  150.8236  143.2081  157.2599 H   0  0  0  0  0  0  0  0  0  0  0  0
  151.0901  145.4354  158.3215 H   0  0  0  0  0  0  0  0  0  0  0  0
  152.2172  145.6389  160.5308 H   0  0  0  0  0  0  0  0  0  0  0  0
  153.0802  143.6051  161.6780 H   0  0  0  0  0  0  0  0  0  0  0  0
  152.8212  141.3740  160.6190 H   0  0  0  0  0  0  0  0  0  0  0  0
  1  2  2  0  0  0  0
  2 13  1  0  0  0  0
  2  3  1  0  0  0  0
  3  4  1  0  0  0  0
  4  5  2  0  0  0  0
  4  6  1  0  0  0  0
  6  7  1  0  0  0  0
  6 12  1  0  0  0  0
  7  8  1  0  0  0  0
  7 21  1  0  0  0  0
  7 22  1  0  0  0  0
  8  9  1  0  0  0  0
  9 10  1  0  0  0  0
  9 23  1  0  0  0  0
  9 24  1  0  0  0  0
 10 11  1  0  0  0  0
 10 25  1  0  0  0  0
 10 26  1  0  0  0  0
 11 27  1  0  0  0  0
 12 13  2  0  0  0  0
 12 28  1  0  0  0  0
 13 14  1  0  0  0  0
 14 15  1  0  0  0  0
 14 29  1  0  0  0  0
 14 30  1  0  0  0  0
 15 20  1  0  0  0  0
 15 16  2  0  0  0  0
 16 17  1  0  0  0  0
 16 31  1  0  0  0  0
 17 18  2  0  0  0  0
 17 32  1  0  0  0  0
 18 19  1  0  0  0  0
 18 33  1  0  0  0  0
 19 20  2  0  0  0  0
 19 34  1  0  0  0  0
 20 35  1  0  0  0  0
M  CHG  1   3  -1
M  END
> <s_m_source_file>
AV-unprocessed.smi

> <i_m_source_file_index>
60

> <i_lp_mmshare_version>
43012

> <i_f3d_flags>
0

> <s_epik_input>
W09IXVtDSDJdW0NIMl1PW0NIMl1uKGMoPU8pW25IXWMxPU8pW2NIXWMxW0NIMl1jMltjSF1bY0hdW2NIXVtjSF1bY0hdMg==

> <s_epik_cmdline>
J2VwaWtfcHl0aG9uJywgJy1waCcsICc3LjAnLCAnLXRuJywgJzgnLCAnLW1hJywgJzIwMCcsICctbWV0YWxfYmluZGluZycsICctaW1hZScsICc8aW5maWxlLm1hZT4nLCAnLW9tYWUnLCAnPG91dGZpbGUubWFlPic=

> <r_lp_tautomer_probability>
0.999537

> <r_epik_Ionization_Penalty>
3.13547

> <r_epik_Ionization_Penalty_Charging>
5.3765e-08

> <r_epik_Ionization_Penalty_Neutral>
3.13547

> <r_epik_State_Penalty>
3.13458

> <r_epik_Charging_Adjusted_Penalty>
3.13458

> <i_epik_Tot_Q>
-1

> <i_epik_Tot_abs_Q>
1

> <r_epik_Metal_State_Penalty>
0.106912

> <b_epik_Metal_Only>
1

> <s_epik_Chemistry_Notes>
This compound contains an acetal/aminal-like group ( X-CH(R)-Y where X, Y are N, S, or O) that may be acid/base labile, releasing an aldehyde.

> <s_lp_Force_Field>
OPLS_2005

> <r_lp_Energy>
15.9602

> <b_lp_Chiralities_Consistent>
1

> <s_lp_Variant>
AV-unprocessed.smi:60-2

> <Gold.Version>
5.8.1

> <Gold.Id.Protein>
6NUR|6NUR_protein|mol2

> <Gold.PLP.Fitness>
47.9219

> <Gold.PLP.PLP>
-37.6153

> <Gold.PLP.part.hbond>
-4.0147

> <Gold.PLP.part.metal>
0.0000

> <Gold.PLP.part.buried>
-3.1412

> <Gold.PLP.part.nonpolar>
-32.4364

> <Gold.PLP.part.repulsive>
2.9306

> <Gold.PLP.ligand.clash>
0.0000

> <Gold.PLP.ligand.torsion>
0.6051

> <Gold.PLP.Chemscore.Hbond>
3.8268

> <Gold.PLP.Chemscore.CHOScore>
0.0000

> <Gold.PLP.Chemscore.Metal>
0.0000

> <Gold.Chemscore.Hbonds>
donor molecule, donor type, donor heavy atom, donor atom, acceptor molecule, acceptor atom, score
      P1  H  6934  6946       L1    11  0.74
      P1  H  7989  7998       L1     3  0.95
      P1  H  7997  8008       L1     1  1.00
      P1  H  8011  8017       L1     5  0.26

> <Gold.PLP.Chemscore.Internal.Correction>
0.0364

> <Gold.Rescore>
     Score         DG    S(hbond)    S(metal)    S(lipo)     H(rot)  DE(clash)    DE(int)     intcor
     14.01     -17.51       3.07        0.00      85.52       3.22       1.95       1.55       ----

> <Gold.Chemscore.Fitness>
14.0098

> <Gold.Chemscore.DG>
-17.5091

> <Gold.Chemscore.ZeroCoef>
-5.4800

> <Gold.Chemscore.Hbond>
3.0699

> <Gold.Chemscore.Metal>
0.0000

> <Gold.Chemscore.Lipo>
85.5225

> <Gold.Chemscore.Internal_Hbond>
0.0000

> <Gold.Chemscore.DEClash>
1.9452

> <Gold.Chemscore.DEInternal>
1.5541

> <Gold.Chemscore.Rot>
3.2151

> <Gold.Chemscore.Internal.Correction>
   9.000000E+99

> <Gold.Chemscore.Hbonds>
donor molecule, donor type, donor heavy atom, donor atom, acceptor molecule, acceptor atom, score
      P1  H  6934  6946       L1    11  0.53
      P1  H  7989  7998       L1     3  0.20
      P1  H  7997  8008       L1     1  1.00
      P1  H  8011  8017       L1     5  0.07

> <Gold.Chemscore.Hbond.Weighted>
-10.2536

> <Gold.Chemscore.Metal.Weighted>
-0.0000

> <Gold.Chemscore.Lipo.Weighted>
-10.0061

> <Gold.Chemscore.Internal_Hbond.Weighted>
0.0000

> <Gold.Chemscore.DEClash.Weighted>
1.9452

> <Gold.Chemscore.DEInternal.Weighted>
1.5541

> <Gold.Chemscore.Rot.Weighted>
8.2306

> <Gold.Chemscore.Internal.Correction.Weighted>
   9.000000E+99

> <Gold.Protein.RotatedTorsions>
[ 6907 6896 6895 6894 ] final  137.05 input  -60.11 | X-H torsion
[ 7974 7965 7964 7962 ] final   22.09 input  175.53 | X-H torsion
[ 8008 7997 7996 7995 ] final  -32.25 input   59.86 | X-H torsion
[ 10167 10162 10161 10158 ] final   12.77 input  -65.29 | X-H torsion
[ 10718 10713 10712 10709 ] final -100.11 input   66.30 | X-H torsion
[ 10763 10752 10751 10750 ] final   35.06 input  -60.55 | X-H torsion
[ 11005 11000 10999 10996 ] final  -80.55 input  -57.11 | X-H torsion

> <Gold.Protein.ActiveResidues>
 VAL166  LYS551  ARG553  GLY616  TRP617  ASP618  TYR619  PRO620  LYS621  CYS622 
 ASP623  PHE694  ASN695  SER759  ASP760  ASP761  ALA762  ILE779  LEU786  VAL792 
 PHE793  MET794  SER795  GLU796  ALA797  LYS798  CYS799  TRP800  GLU811  SER814 

> <Gold.Protein.RotatedAtoms>
  152.2824  133.5483  159.5505 H   0  0  0  0  0  0  0  0  0  0  0  0  # atno 6907 bound_to 6896
  150.7201  134.0545  159.3818 H   0  0  0  0  0  0  0  0  0  0  0  0  # atno 6908 bound_to 6896
  151.8455  135.0576  160.0504 H   0  0  0  0  0  0  0  0  0  0  0  0  # atno 6909 bound_to 6896
  146.2044  139.7935  142.8737 H   0  0  0  0  0  0  0  0  0  0  0  0  # atno 7974 bound_to 7965
  154.4186  140.1742  156.1697 H   0  0  0  0  0  0  0  0  0  0  0  0  # atno 8008 bound_to 7997
  155.9770  140.3381  155.6604 H   0  0  0  0  0  0  0  0  0  0  0  0  # atno 8009 bound_to 7997
  155.6550  140.0694  157.2564 H   0  0  0  0  0  0  0  0  0  0  0  0  # atno 8010 bound_to 7997
  140.6046  143.8534  150.7000 H   0  0  0  0  0  0  0  0  0  0  0  0  # atno 10167 bound_to 10162
  156.0153  130.5312  150.6768 H   0  0  0  0  0  0  0  0  0  0  0  0  # atno 10718 bound_to 10713
  153.0136  135.6343  154.1767 H   0  0  0  0  0  0  0  0  0  0  0  0  # atno 10763 bound_to 10752
  154.1508  135.2829  155.3137 H   0  0  0  0  0  0  0  0  0  0  0  0  # atno 10764 bound_to 10752
  154.6055  135.5573  153.7479 H   0  0  0  0  0  0  0  0  0  0  0  0  # atno 10765 bound_to 10752
  141.1668  133.7155  156.8290 H   0  0  0  0  0  0  0  0  0  0  0  0  # atno 11005 bound_to 11000
  145.3372  141.0280  143.3413 LP  0  0  0  0  0  0  0  0  0  0  0  0  # atno 17320 bound_to 7965
  144.8757  139.4974  143.6747 LP  0  0  0  0  0  0  0  0  0  0  0  0  # atno 17321 bound_to 7965
  140.2088  143.3900  152.1734 LP  0  0  0  0  0  0  0  0  0  0  0  0  # atno 17342 bound_to 10162
  139.5315  144.7164  151.5038 LP  0  0  0  0  0  0  0  0  0  0  0  0  # atno 17343 bound_to 10162
  157.4479  131.0869  151.0876 LP  0  0  0  0  0  0  0  0  0  0  0  0  # atno 17370 bound_to 10713
  157.1401  130.6139  149.5553 LP  0  0  0  0  0  0  0  0  0  0  0  0  # atno 17371 bound_to 10713
  140.2065  134.8859  157.3227 LP  0  0  0  0  0  0  0  0  0  0  0  0  # atno 17394 bound_to 11000
  140.2132  134.4113  155.7602 LP  0  0  0  0  0  0  0  0  0  0  0  0  # atno 17395 bound_to 11000

$$$$
