AV-unprocessed.smi:3141|AV-procd|sdf|11967|dock2
  -GOLD-   2272017363D 1   1.00000     0.00000
 Structure written by MMmdl.
 35 37  0  0  0  0  0  0  0  0  1 V2000
  146.9061  141.9191  159.3871 O   0  0  0  0  0  0  0  0  0  0  0  0
  147.3725  142.8223  158.6921 C   0  0  0  0  0  0  0  0  0  0  0  0
  147.4040  144.1115  159.0532 N   0  0  0  0  0  0  0  0  0  0  0  0
  146.9310  144.6337  160.2938 C   0  0  0  0  0  0  0  0  0  0  0  0
  147.0299  146.1278  160.5128 C   0  0  0  0  0  0  0  0  0  0  0  0
  147.9570  145.2017  161.2502 C   0  0  0  0  0  0  0  0  0  0  0  0
  147.9331  142.6320  157.4889 N   0  0  0  0  0  0  0  0  0  0  0  0
  148.1089  141.3361  156.8292 C   0  0  1  0  0  0  0  0  0  0  0  0
  147.2802  141.2912  155.5273 C   0  0  0  0  0  0  0  0  0  0  0  0
  148.2709  141.0802  154.3739 C   0  0  0  0  0  0  0  0  0  0  0  0
  149.6249  141.5222  154.9231 C   0  0  0  0  0  0  0  0  0  0  0  0
  149.5683  141.0723  156.3859 C   0  0  1  0  0  0  0  0  0  0  0  0
  150.6036  141.6341  157.2479 N   0  0  0  0  0  0  0  0  0  0  0  0
  150.9161  142.9724  157.4724 C   0  0  0  0  0  0  0  0  0  0  0  0
  151.9354  142.9913  158.3968 C   0  0  0  0  0  0  0  0  0  0  0  0
  152.2570  141.6887  158.7668 N   0  0  0  0  0  0  0  0  0  0  0  0
  151.4240  140.9433  158.0526 C   0  0  0  0  0  0  0  0  0  0  0  0
  147.8121  144.7738  158.4099 H   0  0  0  0  0  0  0  0  0  0  0  0
  146.0760  144.1381  160.7516 H   0  0  0  0  0  0  0  0  0  0  0  0
  147.4549  146.7330  159.7144 H   0  0  0  0  0  0  0  0  0  0  0  0
  146.2361  146.6038  161.0852 H   0  0  0  0  0  0  0  0  0  0  0  0
  147.7826  145.0595  162.3147 H   0  0  0  0  0  0  0  0  0  0  0  0
  149.0015  145.1878  160.9443 H   0  0  0  0  0  0  0  0  0  0  0  0
  148.2893  143.4400  156.9997 H   0  0  0  0  0  0  0  0  0  0  0  0
  147.7808  140.5365  157.4961 H   0  0  0  0  0  0  0  0  0  0  0  0
  146.5399  140.4909  155.5530 H   0  0  0  0  0  0  0  0  0  0  0  0
  146.7316  142.2224  155.3760 H   0  0  0  0  0  0  0  0  0  0  0  0
  148.3121  140.0204  154.1181 H   0  0  0  0  0  0  0  0  0  0  0  0
  147.9877  141.6253  153.4732 H   0  0  0  0  0  0  0  0  0  0  0  0
  150.4622  141.0835  154.3796 H   0  0  0  0  0  0  0  0  0  0  0  0
  149.7017  142.6067  154.8452 H   0  0  0  0  0  0  0  0  0  0  0  0
  149.7153  139.9905  156.3855 H   0  0  0  0  0  0  0  0  0  0  0  0
  150.4035  143.7842  156.9792 H   0  0  0  0  0  0  0  0  0  0  0  0
  152.4512  143.8367  158.8278 H   0  0  0  0  0  0  0  0  0  0  0  0
  151.4052  139.8655  158.1213 H   0  0  0  0  0  0  0  0  0  0  0  0
  1  2  2  0  0  0  0
  2  3  1  0  0  0  0
  2  7  1  0  0  0  0
  3  4  1  0  0  0  0
  3 18  1  0  0  0  0
  4  6  1  0  0  0  0
  4  5  1  0  0  0  0
  4 19  1  0  0  0  0
  5  6  1  0  0  0  0
  5 20  1  0  0  0  0
  5 21  1  0  0  0  0
  6 22  1  0  0  0  0
  6 23  1  0  0  0  0
  7  8  1  0  0  0  0
  7 24  1  0  0  0  0
  8 12  1  0  0  0  0
  8  9  1  0  0  0  0
  8 25  1  0  0  0  0
  9 10  1  0  0  0  0
  9 26  1  0  0  0  0
  9 27  1  0  0  0  0
 10 11  1  0  0  0  0
 10 28  1  0  0  0  0
 10 29  1  0  0  0  0
 11 12  1  0  0  0  0
 11 30  1  0  0  0  0
 11 31  1  0  0  0  0
 12 13  1  0  0  0  0
 12 32  1  0  0  0  0
 13 17  1  0  0  0  0
 13 14  1  0  0  0  0
 14 15  2  0  0  0  0
 14 33  1  0  0  0  0
 15 16  1  0  0  0  0
 15 34  1  0  0  0  0
 16 17  2  0  0  0  0
 17 35  1  0  0  0  0
M  END
> <s_m_source_file>
AV-unprocessed.smi

> <i_m_source_file_index>
3141

> <i_lp_mmshare_version>
43012

> <i_f3d_flags>
0

> <s_epik_input>
W0NIMl0xW0NIMl1bQ0hdMVtOSF1DKD1PKVtOSF1bQ0BASF0yW0NIMl1bQ0gyXVtDSDJdW0NASF0ybjNbY0hdW2NIXW5bY0hdMw==

> <s_epik_cmdline>
J2VwaWtfcHl0aG9uJywgJy1waCcsICc3LjAnLCAnLXRuJywgJzgnLCAnLW1hJywgJzIwMCcsICctbWV0YWxfYmluZGluZycsICctaW1hZScsICc8aW5maWxlLm1hZT4nLCAnLW9tYWUnLCAnPG91dGZpbGUubWFlPic=

> <r_lp_tautomer_probability>
1

> <r_epik_Ionization_Penalty>
0.728419

> <r_epik_Ionization_Penalty_Charging>
0.728357

> <r_epik_Ionization_Penalty_Neutral>
6.27871e-05

> <r_epik_State_Penalty>
0.753408

> <r_epik_Charging_Adjusted_Penalty>
1.48176

> <i_epik_Tot_Q>
0

> <i_epik_Tot_abs_Q>
0

> <r_epik_Metal_State_Penalty>
0.332413

> <b_epik_Metal_Only>
0

> <s_lp_Force_Field>
OPLS_2005

> <r_lp_Energy>
36.0261

> <b_lp_Chiralities_Consistent>
1

> <s_lp_Variant>
AV-unprocessed.smi:3141-6

> <Gold.Version>
5.8.1

> <Gold.Id.Protein>
6NUR|6NUR_protein|mol2

> <Gold.PLP.Fitness>
41.3908

> <Gold.PLP.PLP>
-30.7927

> <Gold.PLP.part.hbond>
-3.2473

> <Gold.PLP.part.metal>
0.0000

> <Gold.PLP.part.buried>
-4.7541

> <Gold.PLP.part.nonpolar>
-22.9335

> <Gold.PLP.part.repulsive>
0.1348

> <Gold.PLP.ligand.clash>
0.0000

> <Gold.PLP.ligand.torsion>
0.1812

> <Gold.PLP.Chemscore.Hbond>
2.6320

> <Gold.PLP.Chemscore.CHOScore>
1.0000

> <Gold.PLP.Chemscore.Metal>
0.0000

> <Gold.Chemscore.Hbonds>
donor molecule, donor type, donor heavy atom, donor atom, acceptor molecule, acceptor atom, score
      L1  H     3    18       P1  8029  1.00
      L1  H     7    24       P1  8028  0.70
      P1  H  6934  6946       L1     1  0.75
      L1  C    14    33       P1  8028  1.00

> <Gold.PLP.Chemscore.Internal.Correction>
0.0645

> <Gold.Rescore>
     Score         DG    S(hbond)    S(metal)    S(lipo)     H(rot)  DE(clash)    DE(int)     intcor
     14.43     -14.94       1.91        0.00      60.57       1.57       0.07       0.44       ----

> <Gold.Chemscore.Fitness>
14.4289

> <Gold.Chemscore.DG>
-14.9395

> <Gold.Chemscore.ZeroCoef>
-5.4800

> <Gold.Chemscore.Hbond>
1.9142

> <Gold.Chemscore.Metal>
0.0000

> <Gold.Chemscore.Lipo>
60.5709

> <Gold.Chemscore.Internal_Hbond>
0.0000

> <Gold.Chemscore.DEClash>
0.0681

> <Gold.Chemscore.DEInternal>
0.4425

> <Gold.Chemscore.Rot>
1.5705

> <Gold.Chemscore.Internal.Correction>
   9.000000E+99

> <Gold.Chemscore.Hbonds>
donor molecule, donor type, donor heavy atom, donor atom, acceptor molecule, acceptor atom, score
      L1  H     3    18       P1  8029  0.95
      L1  H     7    24       P1  8028  0.07
      P1  H  6934  6946       L1     1  0.76

> <Gold.Chemscore.Hbond.Weighted>
-6.3933

> <Gold.Chemscore.Metal.Weighted>
-0.0000

> <Gold.Chemscore.Lipo.Weighted>
-7.0868

> <Gold.Chemscore.Internal_Hbond.Weighted>
0.0000

> <Gold.Chemscore.DEClash.Weighted>
0.0681

> <Gold.Chemscore.DEInternal.Weighted>
0.4425

> <Gold.Chemscore.Rot.Weighted>
4.0206

> <Gold.Chemscore.Internal.Correction.Weighted>
   9.000000E+99

> <Gold.Protein.RotatedTorsions>
[ 6907 6896 6895 6894 ] final   14.66 input  -60.11 | X-H torsion
[ 7974 7965 7964 7962 ] final -146.92 input  175.53 | X-H torsion
[ 8008 7997 7996 7995 ] final -172.28 input   59.86 | X-H torsion
[ 10167 10162 10161 10158 ] final  142.54 input  -65.29 | X-H torsion
[ 10718 10713 10712 10709 ] final  -55.80 input   66.30 | X-H torsion
[ 10763 10752 10751 10750 ] final   72.41 input  -60.55 | X-H torsion
[ 11005 11000 10999 10996 ] final -148.25 input  -57.11 | X-H torsion

> <Gold.Protein.ActiveResidues>
 VAL166  LYS551  ARG553  GLY616  TRP617  ASP618  TYR619  PRO620  LYS621  CYS622 
 ASP623  PHE694  ASN695  SER759  ASP760  ASP761  ALA762  ILE779  LEU786  VAL792 
 PHE793  MET794  SER795  GLU796  ALA797  LYS798  CYS799  TRP800  GLU811  SER814 

> <Gold.Protein.RotatedAtoms>
  151.8057  135.0695  160.0406 H   0  0  0  0  0  0  0  0  0  0  0  0  # atno 6907 bound_to 6896
  152.3057  133.5696  159.5656 H   0  0  0  0  0  0  0  0  0  0  0  0  # atno 6908 bound_to 6896
  150.7295  134.0143  159.3722 H   0  0  0  0  0  0  0  0  0  0  0  0  # atno 6909 bound_to 6896
  144.8127  140.5393  143.5631 H   0  0  0  0  0  0  0  0  0  0  0  0  # atno 7974 bound_to 7965
  155.9425  140.1111  157.1044 H   0  0  0  0  0  0  0  0  0  0  0  0  # atno 8008 bound_to 7997
  154.4092  140.1216  156.5012 H   0  0  0  0  0  0  0  0  0  0  0  0  # atno 8009 bound_to 7997
  155.6944  140.3472  155.4909 H   0  0  0  0  0  0  0  0  0  0  0  0  # atno 8010 bound_to 7997
  139.4991  144.6100  151.6293 H   0  0  0  0  0  0  0  0  0  0  0  0  # atno 10167 bound_to 10162
  156.1339  130.4158  150.0220 H   0  0  0  0  0  0  0  0  0  0  0  0  # atno 10718 bound_to 10713
  153.0457  135.5101  154.7739 H   0  0  0  0  0  0  0  0  0  0  0  0  # atno 10763 bound_to 10752
  154.6641  135.2943  154.9831 H   0  0  0  0  0  0  0  0  0  0  0  0  # atno 10764 bound_to 10752
  154.0671  135.6682  153.4872 H   0  0  0  0  0  0  0  0  0  0  0  0  # atno 10765 bound_to 10752
  140.7631  134.3275  157.5096 H   0  0  0  0  0  0  0  0  0  0  0  0  # atno 11005 bound_to 11000
  145.5286  139.1475  143.3512 LP  0  0  0  0  0  0  0  0  0  0  0  0  # atno 17320 bound_to 7965
  146.2427  140.5427  142.8927 LP  0  0  0  0  0  0  0  0  0  0  0  0  # atno 17321 bound_to 7965
  140.5772  144.0008  150.6248 LP  0  0  0  0  0  0  0  0  0  0  0  0  # atno 17342 bound_to 10162
  140.3145  143.3176  152.0845 LP  0  0  0  0  0  0  0  0  0  0  0  0  # atno 17343 bound_to 10162
  156.8124  130.9329  151.3644 LP  0  0  0  0  0  0  0  0  0  0  0  0  # atno 17370 bound_to 10713
  157.6514  130.8887  149.9641 LP  0  0  0  0  0  0  0  0  0  0  0  0  # atno 17371 bound_to 10713
  139.8767  134.9215  156.3276 LP  0  0  0  0  0  0  0  0  0  0  0  0  # atno 17394 bound_to 11000
  140.9644  133.7368  156.0446 LP  0  0  0  0  0  0  0  0  0  0  0  0  # atno 17395 bound_to 11000

$$$$
