AV-unprocessed.smi:2337|AV-procd|sdf|9333|dock4
  -GOLD-   2272012553D 1   1.00000     0.00000
 Structure written by MMmdl.
 45 46  0  0  0  0  0  0  0  0  1 V2000
  149.3245  139.9191  154.3523 C   0  0  0  0  0  0  0  0  0  0  0  0
  149.2034  138.5471  154.7046 O   0  0  0  0  0  0  0  0  0  0  0  0
  150.3377  137.9642  155.3473 C   0  0  0  0  0  0  0  0  0  0  0  0
  150.0445  136.5425  155.8463 C   0  0  0  0  0  0  0  0  0  0  0  0
  149.4501  135.7373  154.7876 N   0  0  0  0  0  0  0  0  0  0  0  0
  149.1149  134.4470  154.9125 C   0  0  0  0  0  0  0  0  0  0  0  0
  149.2823  133.8007  155.9471 O   0  0  0  0  0  0  0  0  0  0  0  0
  148.5775  133.9720  153.7757 N   0  0  0  0  0  0  0  0  0  0  0  0
  148.1258  132.6534  153.5061 C   0  0  0  0  0  0  0  0  0  0  0  0
  148.9132  131.6208  154.0534 C   0  0  0  0  0  0  0  0  0  0  0  0
  148.5229  130.2898  153.8302 C   0  0  0  0  0  0  0  0  0  0  0  0
  147.3550  130.0658  153.0665 C   0  0  0  0  0  0  0  0  0  0  0  0
  146.8100  128.6608  152.7527 C   0  0  0  0  0  0  0  0  0  0  0  0
  145.4964  128.7767  151.9517 C   0  0  0  0  0  0  0  0  0  0  0  0
  146.5556  127.8963  154.0682 C   0  0  0  0  0  0  0  0  0  0  0  0
  147.7949  127.8202  151.9088 C   0  0  0  0  0  0  0  0  0  0  0  0
  146.6377  131.1019  152.5671 N   0  0  0  0  0  0  0  0  0  0  0  0
  147.0156  132.3656  152.7814 N   0  0  0  0  0  0  0  0  0  0  0  0
  151.5590  138.1621  154.4295 C   0  0  0  0  0  0  0  0  0  0  0  0
  152.3556  138.6206  155.6525 C   0  0  0  0  0  0  0  0  0  0  0  0
  151.0161  138.9629  156.3066 C   0  0  0  0  0  0  0  0  0  0  0  0
  148.4442  140.2210  153.7852 H   0  0  0  0  0  0  0  0  0  0  0  0
  150.1988  140.1047  153.7283 H   0  0  0  0  0  0  0  0  0  0  0  0
  149.3787  140.5601  155.2317 H   0  0  0  0  0  0  0  0  0  0  0  0
  150.9672  136.0658  156.1811 H   0  0  0  0  0  0  0  0  0  0  0  0
  149.3816  136.5527  156.7116 H   0  0  0  0  0  0  0  0  0  0  0  0
  149.2780  136.1994  153.9065 H   0  0  0  0  0  0  0  0  0  0  0  0
  148.4865  134.6273  153.0137 H   0  0  0  0  0  0  0  0  0  0  0  0
  149.7982  131.8397  154.6330 H   0  0  0  0  0  0  0  0  0  0  0  0
  149.1149  129.4881  154.2430 H   0  0  0  0  0  0  0  0  0  0  0  0
  145.0964  127.7939  151.6996 H   0  0  0  0  0  0  0  0  0  0  0  0
  145.6496  129.3189  151.0178 H   0  0  0  0  0  0  0  0  0  0  0  0
  144.7232  129.3022  152.5133 H   0  0  0  0  0  0  0  0  0  0  0  0
  145.8120  128.3964  154.6899 H   0  0  0  0  0  0  0  0  0  0  0  0
  147.4696  127.8081  154.6567 H   0  0  0  0  0  0  0  0  0  0  0  0
  146.1880  126.8875  153.8778 H   0  0  0  0  0  0  0  0  0  0  0  0
  147.3888  126.8303  151.6970 H   0  0  0  0  0  0  0  0  0  0  0  0
  148.7432  127.6698  152.4263 H   0  0  0  0  0  0  0  0  0  0  0  0
  148.0052  128.2904  150.9473 H   0  0  0  0  0  0  0  0  0  0  0  0
  151.9370  137.2522  153.9619 H   0  0  0  0  0  0  0  0  0  0  0  0
  151.4233  138.9597  153.6969 H   0  0  0  0  0  0  0  0  0  0  0  0
  152.8758  137.8020  156.1524 H   0  0  0  0  0  0  0  0  0  0  0  0
  153.0117  139.4738  155.4784 H   0  0  0  0  0  0  0  0  0  0  0  0
  150.7236  139.9999  156.1314 H   0  0  0  0  0  0  0  0  0  0  0  0
  150.9488  138.7009  157.3629 H   0  0  0  0  0  0  0  0  0  0  0  0
  1  2  1  0  0  0  0
  1 22  1  0  0  0  0
  1 23  1  0  0  0  0
  1 24  1  0  0  0  0
  2  3  1  0  0  0  0
  3 21  1  0  0  0  0
  3  4  1  0  0  0  0
  3 19  1  0  0  0  0
  4  5  1  0  0  0  0
  4 25  1  0  0  0  0
  4 26  1  0  0  0  0
  5  6  1  0  0  0  0
  5 27  1  0  0  0  0
  6  7  2  0  0  0  0
  6  8  1  0  0  0  0
  8  9  1  0  0  0  0
  8 28  1  0  0  0  0
  9 18  1  0  0  0  0
  9 10  2  0  0  0  0
 10 11  1  0  0  0  0
 10 29  1  0  0  0  0
 11 12  2  0  0  0  0
 11 30  1  0  0  0  0
 12 13  1  0  0  0  0
 12 17  1  0  0  0  0
 13 14  1  0  0  0  0
 13 15  1  0  0  0  0
 13 16  1  0  0  0  0
 14 31  1  0  0  0  0
 14 32  1  0  0  0  0
 14 33  1  0  0  0  0
 15 34  1  0  0  0  0
 15 35  1  0  0  0  0
 15 36  1  0  0  0  0
 16 37  1  0  0  0  0
 16 38  1  0  0  0  0
 16 39  1  0  0  0  0
 17 18  2  0  0  0  0
 19 20  1  0  0  0  0
 19 40  1  0  0  0  0
 19 41  1  0  0  0  0
 20 21  1  0  0  0  0
 20 42  1  0  0  0  0
 20 43  1  0  0  0  0
 21 44  1  0  0  0  0
 21 45  1  0  0  0  0
M  END
> <s_m_source_file>
AV-unprocessed.smi

> <i_m_source_file_index>
2337

> <i_lp_mmshare_version>
43012

> <i_f3d_flags>
0

> <s_epik_input>
W0NIMl0xW0NIMl1bQ0gyXUMxKE9bQ0gzXSlbQ0gyXVtOSF1DKD1PKVtOSF1jMltjSF1bY0hdYyhubjIpQyhbQ0gzXSkoW0NIM10pW0NIM10=

> <s_epik_cmdline>
J2VwaWtfcHl0aG9uJywgJy1waCcsICc3LjAnLCAnLXRuJywgJzgnLCAnLW1hJywgJzIwMCcsICctbWV0YWxfYmluZGluZycsICctaW1hZScsICc8aW5maWxlLm1hZT4nLCAnLW9tYWUnLCAnPG91dGZpbGUubWFlPic=

> <r_lp_tautomer_probability>
1

> <r_epik_Ionization_Penalty>
0.00977348

> <r_epik_Ionization_Penalty_Charging>
0

> <r_epik_Ionization_Penalty_Neutral>
0.00977348

> <r_epik_State_Penalty>
-0

> <r_epik_Charging_Adjusted_Penalty>
0

> <i_epik_Tot_Q>
0

> <i_epik_Tot_abs_Q>
0

> <r_epik_Metal_State_Penalty>
-0

> <b_epik_Metal_Only>
0

> <s_lp_Force_Field>
OPLS_2005

> <r_lp_Energy>
23.2497

> <b_lp_Chiralities_Consistent>
1

> <s_lp_Variant>
AV-unprocessed.smi:2337-1

> <Gold.Version>
5.8.1

> <Gold.Id.Protein>
6NUR|6NUR_protein|mol2

> <Gold.PLP.Fitness>
43.2605

> <Gold.PLP.PLP>
-38.0354

> <Gold.PLP.part.hbond>
-2.0000

> <Gold.PLP.part.metal>
0.0000

> <Gold.PLP.part.buried>
-4.9470

> <Gold.PLP.part.nonpolar>
-31.3668

> <Gold.PLP.part.repulsive>
0.4915

> <Gold.PLP.ligand.clash>
0.0000

> <Gold.PLP.ligand.torsion>
0.5375

> <Gold.PLP.Chemscore.Hbond>
2.0000

> <Gold.PLP.Chemscore.CHOScore>
0.0000

> <Gold.PLP.Chemscore.Metal>
0.0000

> <Gold.Chemscore.Hbonds>
donor molecule, donor type, donor heavy atom, donor atom, acceptor molecule, acceptor atom, score
      L1  H     5    27       P1  7948  0.96
      L1  H     8    28       P1  7948  1.00

> <Gold.PLP.Chemscore.Internal.Correction>
0.3001

> <Gold.Rescore>
     Score         DG    S(hbond)    S(metal)    S(lipo)     H(rot)  DE(clash)    DE(int)     intcor
     14.43     -16.52       1.54        0.00      84.51       1.56       0.06       2.03       ----

> <Gold.Chemscore.Fitness>
14.4275

> <Gold.Chemscore.DG>
-16.5195

> <Gold.Chemscore.ZeroCoef>
-5.4800

> <Gold.Chemscore.Hbond>
1.5406

> <Gold.Chemscore.Metal>
0.0000

> <Gold.Chemscore.Lipo>
84.5051

> <Gold.Chemscore.Internal_Hbond>
0.0000

> <Gold.Chemscore.DEClash>
0.0613

> <Gold.Chemscore.DEInternal>
2.0308

> <Gold.Chemscore.Rot>
1.5599

> <Gold.Chemscore.Internal.Correction>
   9.000000E+99

> <Gold.Chemscore.Hbonds>
donor molecule, donor type, donor heavy atom, donor atom, acceptor molecule, acceptor atom, score
      L1  H     5    27       P1  7948  0.78
      L1  H     8    28       P1  7948  0.33

> <Gold.Chemscore.Hbond.Weighted>
-5.1457

> <Gold.Chemscore.Metal.Weighted>
-0.0000

> <Gold.Chemscore.Lipo.Weighted>
-9.8871

> <Gold.Chemscore.Internal_Hbond.Weighted>
0.0000

> <Gold.Chemscore.DEClash.Weighted>
0.0613

> <Gold.Chemscore.DEInternal.Weighted>
2.0308

> <Gold.Chemscore.Rot.Weighted>
3.9933

> <Gold.Chemscore.Internal.Correction.Weighted>
   9.000000E+99

> <Gold.Protein.RotatedTorsions>
[ 6907 6896 6895 6894 ] final -158.51 input  -60.11 | X-H torsion
[ 7974 7965 7964 7962 ] final   -6.36 input  175.53 | X-H torsion
[ 8008 7997 7996 7995 ] final   -5.03 input   59.86 | X-H torsion
[ 10167 10162 10161 10158 ] final -120.30 input  -65.29 | X-H torsion
[ 10718 10713 10712 10709 ] final -162.57 input   66.30 | X-H torsion
[ 10763 10752 10751 10750 ] final  -92.90 input  -60.55 | X-H torsion
[ 11005 11000 10999 10996 ] final  -50.51 input  -57.11 | X-H torsion

> <Gold.Protein.ActiveResidues>
 VAL166  LYS551  ARG553  GLY616  TRP617  ASP618  TYR619  PRO620  LYS621  CYS622 
 ASP623  PHE694  ASN695  SER759  ASP760  ASP761  ALA762  ILE779  LEU786  VAL792 
 PHE793  MET794  SER795  GLU796  ALA797  LYS798  CYS799  TRP800  GLU811  SER814 

> <Gold.Protein.RotatedAtoms>
  151.3194  133.4046  159.2652 H   0  0  0  0  0  0  0  0  0  0  0  0  # atno 6907 bound_to 6896
  151.0047  134.9351  159.7984 H   0  0  0  0  0  0  0  0  0  0  0  0  # atno 6908 bound_to 6896
  152.5285  134.3158  159.9183 H   0  0  0  0  0  0  0  0  0  0  0  0  # atno 6909 bound_to 6896
  146.2332  140.2159  142.8336 H   0  0  0  0  0  0  0  0  0  0  0  0  # atno 7974 bound_to 7965
  154.6081  140.2469  155.7704 H   0  0  0  0  0  0  0  0  0  0  0  0  # atno 8008 bound_to 7997
  156.2354  140.2952  156.0249 H   0  0  0  0  0  0  0  0  0  0  0  0  # atno 8009 bound_to 7997
  155.2097  140.0397  157.2922 H   0  0  0  0  0  0  0  0  0  0  0  0  # atno 8010 bound_to 7997
  140.0373  143.5188  152.2147 H   0  0  0  0  0  0  0  0  0  0  0  0  # atno 10167 bound_to 10162
  156.6124  130.8856  151.2939 H   0  0  0  0  0  0  0  0  0  0  0  0  # atno 10718 bound_to 10713
  154.6906  135.5214  153.8388 H   0  0  0  0  0  0  0  0  0  0  0  0  # atno 10763 bound_to 10752
  153.0630  135.6575  154.0429 H   0  0  0  0  0  0  0  0  0  0  0  0  # atno 10764 bound_to 10752
  154.0304  135.2986  155.3349 H   0  0  0  0  0  0  0  0  0  0  0  0  # atno 10765 bound_to 10752
  141.0820  133.6651  156.3742 H   0  0  0  0  0  0  0  0  0  0  0  0  # atno 11005 bound_to 11000
  144.9670  140.8331  143.5478 LP  0  0  0  0  0  0  0  0  0  0  0  0  # atno 17320 bound_to 7965
  145.2136  139.2192  143.5130 LP  0  0  0  0  0  0  0  0  0  0  0  0  # atno 17321 bound_to 7965
  139.6036  144.7590  151.3113 LP  0  0  0  0  0  0  0  0  0  0  0  0  # atno 17342 bound_to 10162
  140.7275  143.6960  150.7883 LP  0  0  0  0  0  0  0  0  0  0  0  0  # atno 17343 bound_to 10162
  157.7250  130.9611  150.1599 LP  0  0  0  0  0  0  0  0  0  0  0  0  # atno 17370 bound_to 10713
  156.2379  130.3688  149.8370 LP  0  0  0  0  0  0  0  0  0  0  0  0  # atno 17371 bound_to 10713
  140.5447  134.6086  157.5390 LP  0  0  0  0  0  0  0  0  0  0  0  0  # atno 17394 bound_to 11000
  139.9635  134.7413  156.0188 LP  0  0  0  0  0  0  0  0  0  0  0  0  # atno 17395 bound_to 11000

$$$$
