AV-unprocessed.smi:2997|AV-procd|sdf|11415|dock10
  -GOLD-   2272016343D 1   1.00000     0.00000
 Structure written by MMmdl.
 39 41  0  0  0  0  0  0  0  0  2 V2000
  152.1158  143.6188  160.5781 C   0  0  0  0  0  0  0  0  0  0  0  0
  151.9443  142.6874  159.3901 C   0  0  0  0  0  0  0  0  0  0  0  0
  151.0350  143.0535  158.3719 C   0  0  0  0  0  0  0  0  0  0  0  0
  150.8980  142.1796  157.2999 C   0  0  0  0  0  0  0  0  0  0  0  0
  150.0974  142.2492  156.1576 N   0  3  0  0  0  0  0  0  0  0  0  0
  150.3069  141.1453  155.3877 C   0  0  0  0  0  0  0  0  0  0  0  0
  151.2306  140.3731  156.0217 N   0  0  0  0  0  0  0  0  0  0  0  0
  151.8094  139.0794  155.6366 C   0  0  0  0  0  0  0  0  0  0  0  0
  150.9960  138.3692  154.5379 C   0  0  1  0  0  0  0  0  0  0  0  0
  151.7511  137.2930  154.0121 O   0  0  0  0  0  0  0  0  0  0  0  0
  149.6416  137.8557  155.0627 C   0  0  0  0  0  0  0  0  0  0  0  0
  148.5430  138.7487  154.7403 N   0  0  0  0  0  0  0  0  0  0  0  0
  148.0226  139.0572  153.5011 C   0  0  0  0  0  0  0  0  0  0  0  0
  146.9995  139.9397  153.6987 C   0  0  0  0  0  0  0  0  0  0  0  0
  146.9687  140.1106  155.1111 C   0  0  0  0  0  0  0  0  0  0  0  0
  147.8912  139.3935  155.7323 N   0  0  0  0  0  0  0  0  0  0  0  0
  151.6279  140.9782  157.2183 C   0  0  0  0  0  0  0  0  0  0  0  0
  152.5281  140.6020  158.2120 C   0  0  0  0  0  0  0  0  0  0  0  0
  152.6813  141.4771  159.3110 C   0  0  0  0  0  0  0  0  0  0  0  0
  153.6547  141.0926  160.4124 C   0  0  0  0  0  0  0  0  0  0  0  0
  151.5046  144.5157  160.4732 H   0  0  0  0  0  0  0  0  0  0  0  0
  153.1552  143.9342  160.6722 H   0  0  0  0  0  0  0  0  0  0  0  0
  151.8196  143.1187  161.5005 H   0  0  0  0  0  0  0  0  0  0  0  0
  150.4696  143.9723  158.4260 H   0  0  0  0  0  0  0  0  0  0  0  0
  149.8239  140.9208  154.4477 H   0  0  0  0  0  0  0  0  0  0  0  0
  152.8301  139.2622  155.2977 H   0  0  0  0  0  0  0  0  0  0  0  0
  151.8860  138.4581  156.5298 H   0  0  0  0  0  0  0  0  0  0  0  0
  150.8139  139.0703  153.7226 H   0  0  0  0  0  0  0  0  0  0  0  0
  151.4978  137.1590  153.1118 H   0  0  0  0  0  0  0  0  0  0  0  0
  149.4213  136.8697  154.6513 H   0  0  0  0  0  0  0  0  0  0  0  0
  149.6781  137.7392  156.1469 H   0  0  0  0  0  0  0  0  0  0  0  0
  148.4199  138.6300  152.5922 H   0  0  0  0  0  0  0  0  0  0  0  0
  146.3692  140.3941  152.9488 H   0  0  0  0  0  0  0  0  0  0  0  0
  146.3070  140.7291  155.6995 H   0  0  0  0  0  0  0  0  0  0  0  0
  153.0864  139.6794  158.1519 H   0  0  0  0  0  0  0  0  0  0  0  0
  154.1381  140.1380  160.2024 H   0  0  0  0  0  0  0  0  0  0  0  0
  153.1356  140.9997  161.3666 H   0  0  0  0  0  0  0  0  0  0  0  0
  154.4364  141.8457  160.5138 H   0  0  0  0  0  0  0  0  0  0  0  0
  149.4525  142.9919  155.9199 H   0  0  0  0  0  0  0  0  0  0  0  0
  1  2  1  0  0  0  0
  1 21  1  0  0  0  0
  1 22  1  0  0  0  0
  1 23  1  0  0  0  0
  2 19  1  0  0  0  0
  2  3  2  0  0  0  0
  3  4  1  0  0  0  0
  3 24  1  0  0  0  0
  4 17  2  0  0  0  0
  4  5  1  0  0  0  0
  5  6  2  0  0  0  0
  5 39  1  0  0  0  0
  6  7  1  0  0  0  0
  6 25  1  0  0  0  0
  7  8  1  0  0  0  0
  7 17  1  0  0  0  0
  8  9  1  0  0  0  0
  8 26  1  0  0  0  0
  8 27  1  0  0  0  0
  9 10  1  0  0  0  0
  9 11  1  0  0  0  0
  9 28  1  0  0  0  0
 10 29  1  0  0  0  0
 11 12  1  0  0  0  0
 11 30  1  0  0  0  0
 11 31  1  0  0  0  0
 12 16  1  0  0  0  0
 12 13  1  0  0  0  0
 13 14  2  0  0  0  0
 13 32  1  0  0  0  0
 14 15  1  0  0  0  0
 14 33  1  0  0  0  0
 15 16  2  0  0  0  0
 15 34  1  0  0  0  0
 17 18  1  0  0  0  0
 18 19  2  0  0  0  0
 18 35  1  0  0  0  0
 19 20  1  0  0  0  0
 20 36  1  0  0  0  0
 20 37  1  0  0  0  0
 20 38  1  0  0  0  0
M  CHG  1   5   1
M  END
> <s_m_source_file>
AV-unprocessed.smi

> <i_m_source_file_index>
2997

> <i_lp_mmshare_version>
43012

> <i_f3d_flags>
0

> <s_epik_input>
W0NIM11jKFtjSF0xKWMoW0NIM10pW2NIXWMoYzEyKW4oW2NIXW4yKVtDSDJdW0NASF0oW09IXSlbQ0gyXW4zW2NIXVtjSF1bY0hdbjM=

> <s_epik_cmdline>
J2VwaWtfcHl0aG9uJywgJy1waCcsICc3LjAnLCAnLXRuJywgJzgnLCAnLW1hJywgJzIwMCcsICctbWV0YWxfYmluZGluZycsICctaW1hZScsICc8aW5maWxlLm1hZT4nLCAnLW9tYWUnLCAnPG91dGZpbGUubWFlPic=

> <r_lp_tautomer_probability>
1

> <r_epik_Ionization_Penalty>
1.09215

> <r_epik_Ionization_Penalty_Charging>
1.09214

> <r_epik_Ionization_Penalty_Neutral>
1.42327e-05

> <r_epik_State_Penalty>
1.14852

> <r_epik_Charging_Adjusted_Penalty>
2.24066

> <i_epik_Tot_Q>
1

> <i_epik_Tot_abs_Q>
1

> <r_epik_Metal_State_Penalty>
1.23686

> <b_epik_Metal_Only>
0

> <s_lp_Force_Field>
OPLS_2005

> <r_lp_Energy>
12.1799

> <b_lp_Chiralities_Consistent>
1

> <s_lp_Variant>
AV-unprocessed.smi:2997-4

> <Gold.Version>
5.8.1

> <Gold.Id.Protein>
6NUR|6NUR_protein|mol2

> <Gold.PLP.Fitness>
54.6267

> <Gold.PLP.PLP>
-39.0946

> <Gold.PLP.part.hbond>
-3.0000

> <Gold.PLP.part.metal>
0.0000

> <Gold.PLP.part.buried>
-3.1717

> <Gold.PLP.part.nonpolar>
-33.2031

> <Gold.PLP.part.repulsive>
0.1033

> <Gold.PLP.ligand.clash>
0.0000

> <Gold.PLP.ligand.torsion>
0.8776

> <Gold.PLP.Chemscore.Hbond>
3.9913

> <Gold.PLP.Chemscore.CHOScore>
1.7688

> <Gold.PLP.Chemscore.Metal>
0.0000

> <Gold.Chemscore.Hbonds>
donor molecule, donor type, donor heavy atom, donor atom, acceptor molecule, acceptor atom, score
      L1  H     5    39       P1  8028  2.00
      L1  H    10    29       P1  7949  1.00
      P1  H 10752 10763       L1    10  0.99
      L1  C    13    32       P1  7948  0.99
      L1  C    13    32       P1  7957  0.77

> <Gold.PLP.Chemscore.Internal.Correction>
0.0073

> <Gold.Rescore>
     Score         DG    S(hbond)    S(metal)    S(lipo)     H(rot)  DE(clash)    DE(int)     intcor
     17.70     -19.05       2.05        0.00     105.78       2.21       0.48       0.87       ----

> <Gold.Chemscore.Fitness>
17.6964

> <Gold.Chemscore.DG>
-19.0486

> <Gold.Chemscore.ZeroCoef>
-5.4800

> <Gold.Chemscore.Hbond>
2.0529

> <Gold.Chemscore.Metal>
0.0000

> <Gold.Chemscore.Lipo>
105.7833

> <Gold.Chemscore.Internal_Hbond>
0.0000

> <Gold.Chemscore.DEClash>
0.4845

> <Gold.Chemscore.DEInternal>
0.8677

> <Gold.Chemscore.Rot>
2.2129

> <Gold.Chemscore.Internal.Correction>
   9.000000E+99

> <Gold.Chemscore.Hbonds>
donor molecule, donor type, donor heavy atom, donor atom, acceptor molecule, acceptor atom, score
      L1  H     5    39       P1  8028  0.99
      L1  H    10    29       P1  7949  0.80
      P1  H 10752 10763       L1    10  0.23

> <Gold.Chemscore.Hbond.Weighted>
-6.8568

> <Gold.Chemscore.Metal.Weighted>
-0.0000

> <Gold.Chemscore.Lipo.Weighted>
-12.3767

> <Gold.Chemscore.Internal_Hbond.Weighted>
0.0000

> <Gold.Chemscore.DEClash.Weighted>
0.4845

> <Gold.Chemscore.DEInternal.Weighted>
0.8677

> <Gold.Chemscore.Rot.Weighted>
5.6649

> <Gold.Chemscore.Internal.Correction.Weighted>
   9.000000E+99

> <Gold.Protein.RotatedTorsions>
[ 6907 6896 6895 6894 ] final  -10.65 input  -60.11 | X-H torsion
[ 7974 7965 7964 7962 ] final   33.53 input  175.53 | X-H torsion
[ 8008 7997 7996 7995 ] final  159.46 input   59.86 | X-H torsion
[ 10167 10162 10161 10158 ] final  132.66 input  -65.29 | X-H torsion
[ 10718 10713 10712 10709 ] final  150.14 input   66.30 | X-H torsion
[ 10763 10752 10751 10750 ] final   42.20 input  -60.55 | X-H torsion
[ 11005 11000 10999 10996 ] final -144.06 input  -57.11 | X-H torsion

> <Gold.Protein.ActiveResidues>
 VAL166  LYS551  ARG553  GLY616  TRP617  ASP618  TYR619  PRO620  LYS621  CYS622 
 ASP623  PHE694  ASN695  SER759  ASP760  ASP761  ALA762  ILE779  LEU786  VAL792 
 PHE793  MET794  SER795  GLU796  ALA797  LYS798  CYS799  TRP800  GLU811  SER814 

> <Gold.Protein.RotatedAtoms>
  151.3986  135.0967  159.9548 H   0  0  0  0  0  0  0  0  0  0  0  0  # atno 6907 bound_to 6896
  152.5057  133.8910  159.7404 H   0  0  0  0  0  0  0  0  0  0  0  0  # atno 6908 bound_to 6896
  150.9379  133.6634  159.2825 H   0  0  0  0  0  0  0  0  0  0  0  0  # atno 6909 bound_to 6896
  146.1414  139.6385  142.9160 H   0  0  0  0  0  0  0  0  0  0  0  0  # atno 7974 bound_to 7965
  156.2237  140.1831  156.7414 H   0  0  0  0  0  0  0  0  0  0  0  0  # atno 8008 bound_to 7997
  154.5907  140.0651  156.9262 H   0  0  0  0  0  0  0  0  0  0  0  0  # atno 8009 bound_to 7997
  155.2342  140.3317  155.4302 H   0  0  0  0  0  0  0  0  0  0  0  0  # atno 8010 bound_to 7997
  139.5330  144.6652  151.4884 H   0  0  0  0  0  0  0  0  0  0  0  0  # atno 10167 bound_to 10162
  157.2872  131.0846  151.1488 H   0  0  0  0  0  0  0  0  0  0  0  0  # atno 10718 bound_to 10713
  152.9889  135.6139  154.2911 H   0  0  0  0  0  0  0  0  0  0  0  0  # atno 10763 bound_to 10752
  154.2636  135.2781  155.2769 H   0  0  0  0  0  0  0  0  0  0  0  0  # atno 10764 bound_to 10752
  154.5184  135.5822  153.6717 H   0  0  0  0  0  0  0  0  0  0  0  0  # atno 10765 bound_to 10752
  140.8062  134.2798  157.4959 H   0  0  0  0  0  0  0  0  0  0  0  0  # atno 11005 bound_to 11000
  145.5037  141.0437  143.2526 LP  0  0  0  0  0  0  0  0  0  0  0  0  # atno 17320 bound_to 7965
  144.7797  139.6553  143.7159 LP  0  0  0  0  0  0  0  0  0  0  0  0  # atno 17321 bound_to 7965
  140.6520  143.8677  150.6795 LP  0  0  0  0  0  0  0  0  0  0  0  0  # atno 17342 bound_to 10162
  140.2045  143.3933  152.1766 LP  0  0  0  0  0  0  0  0  0  0  0  0  # atno 17343 bound_to 10162
  157.2899  130.6791  149.6109 LP  0  0  0  0  0  0  0  0  0  0  0  0  # atno 17370 bound_to 10713
  155.9666  130.4424  150.5379 LP  0  0  0  0  0  0  0  0  0  0  0  0  # atno 17371 bound_to 10713
  139.8717  134.9457  156.3918 LP  0  0  0  0  0  0  0  0  0  0  0  0  # atno 17394 bound_to 11000
  140.9244  133.7622  155.9947 LP  0  0  0  0  0  0  0  0  0  0  0  0  # atno 17395 bound_to 11000

$$$$
