AV-unprocessed.smi:2646|AV-procd|sdf|10281|dock1
  -GOLD-   2272014293D 1   1.00000     0.00000
 Structure written by MMmdl.
 43 44  0  0  0  0  0  0  0  0  1 V2000
  149.3386  132.0121  154.3401 C   0  0  0  0  0  0  0  0  0  0  0  0
  148.1800  133.0187  154.1218 C   0  0  1  0  0  0  0  0  0  0  0  0
  147.2652  133.0001  155.3820 C   0  0  0  0  0  0  0  0  0  0  0  0
  147.9858  133.2389  156.5745 O   0  0  0  0  0  0  0  0  0  0  0  0
  148.7240  134.3733  153.9372 N   0  0  0  0  0  0  0  0  0  0  0  0
  149.5134  135.0865  154.7572 C   0  0  0  0  0  0  0  0  0  0  0  0
  149.9171  134.6862  155.8481 O   0  0  0  0  0  0  0  0  0  0  0  0
  149.7779  136.2949  154.2318 N   0  0  0  0  0  0  0  0  0  0  0  0
  150.5768  137.3372  154.7738 C   0  0  0  0  0  0  0  0  0  0  0  0
  151.3000  137.0706  155.9545 C   0  0  0  0  0  0  0  0  0  0  0  0
  152.0851  138.0913  156.5232 C   0  0  0  0  0  0  0  0  0  0  0  0
  152.1092  139.3490  155.8902 C   0  0  0  0  0  0  0  0  0  0  0  0
  151.4108  139.6264  154.7692 N   0  0  0  0  0  0  0  0  0  0  0  0
  150.6608  138.6423  154.2278 C   0  0  0  0  0  0  0  0  0  0  0  0
  147.3812  132.6549  152.8199 C   0  0  0  0  0  0  0  0  0  0  0  0
  146.3628  133.7467  152.3909 C   0  0  0  0  0  0  0  0  0  0  0  0
  145.6360  133.3860  151.0855 C   0  0  0  0  0  0  0  0  0  0  0  0
  144.9271  132.0308  151.1973 C   0  0  0  0  0  0  0  0  0  0  0  0
  145.9205  130.9337  151.5988 C   0  0  0  0  0  0  0  0  0  0  0  0
  146.6490  131.2880  152.9047 C   0  0  0  0  0  0  0  0  0  0  0  0
  148.9847  130.9826  154.2759 H   0  0  0  0  0  0  0  0  0  0  0  0
  149.7982  132.1270  155.3217 H   0  0  0  0  0  0  0  0  0  0  0  0
  150.1346  132.1345  153.6062 H   0  0  0  0  0  0  0  0  0  0  0  0
  146.4873  133.7606  155.3150 H   0  0  0  0  0  0  0  0  0  0  0  0
  146.7428  132.0483  155.4782 H   0  0  0  0  0  0  0  0  0  0  0  0
  148.1741  132.4071  156.9816 H   0  0  0  0  0  0  0  0  0  0  0  0
  148.4604  134.8206  153.0715 H   0  0  0  0  0  0  0  0  0  0  0  0
  149.3055  136.5162  153.3676 H   0  0  0  0  0  0  0  0  0  0  0  0
  151.2592  136.0960  156.4186 H   0  0  0  0  0  0  0  0  0  0  0  0
  152.6555  137.9147  157.4231 H   0  0  0  0  0  0  0  0  0  0  0  0
  152.7008  140.1550  156.2987 H   0  0  0  0  0  0  0  0  0  0  0  0
  150.1050  138.9320  153.3499 H   0  0  0  0  0  0  0  0  0  0  0  0
  148.1033  132.5756  152.0058 H   0  0  0  0  0  0  0  0  0  0  0  0
  145.6227  133.9060  153.1758 H   0  0  0  0  0  0  0  0  0  0  0  0
  146.8614  134.7032  152.2407 H   0  0  0  0  0  0  0  0  0  0  0  0
  144.9122  134.1630  150.8374 H   0  0  0  0  0  0  0  0  0  0  0  0
  146.3528  133.3580  150.2637 H   0  0  0  0  0  0  0  0  0  0  0  0
  144.1273  132.0924  151.9366 H   0  0  0  0  0  0  0  0  0  0  0  0
  144.4548  131.7769  150.2478 H   0  0  0  0  0  0  0  0  0  0  0  0
  145.3976  129.9837  151.7124 H   0  0  0  0  0  0  0  0  0  0  0  0
  146.6508  130.7910  150.8011 H   0  0  0  0  0  0  0  0  0  0  0  0
  147.3525  130.4853  153.1202 H   0  0  0  0  0  0  0  0  0  0  0  0
  145.9298  131.2944  153.7245 H   0  0  0  0  0  0  0  0  0  0  0  0
  1  2  1  0  0  0  0
  1 21  1  0  0  0  0
  1 22  1  0  0  0  0
  1 23  1  0  0  0  0
  2  3  1  0  0  0  0
  2  5  1  0  0  0  0
  2 15  1  0  0  0  0
  3  4  1  0  0  0  0
  3 24  1  0  0  0  0
  3 25  1  0  0  0  0
  4 26  1  0  0  0  0
  5  6  1  0  0  0  0
  5 27  1  0  0  0  0
  6  7  2  0  0  0  0
  6  8  1  0  0  0  0
  8  9  1  0  0  0  0
  8 28  1  0  0  0  0
  9 14  1  0  0  0  0
  9 10  2  0  0  0  0
 10 11  1  0  0  0  0
 10 29  1  0  0  0  0
 11 12  2  0  0  0  0
 11 30  1  0  0  0  0
 12 13  1  0  0  0  0
 12 31  1  0  0  0  0
 13 14  2  0  0  0  0
 14 32  1  0  0  0  0
 15 20  1  0  0  0  0
 15 16  1  0  0  0  0
 15 33  1  0  0  0  0
 16 17  1  0  0  0  0
 16 34  1  0  0  0  0
 16 35  1  0  0  0  0
 17 18  1  0  0  0  0
 17 36  1  0  0  0  0
 17 37  1  0  0  0  0
 18 19  1  0  0  0  0
 18 38  1  0  0  0  0
 18 39  1  0  0  0  0
 19 20  1  0  0  0  0
 19 40  1  0  0  0  0
 19 41  1  0  0  0  0
 20 42  1  0  0  0  0
 20 43  1  0  0  0  0
M  END
> <s_m_source_file>
AV-unprocessed.smi

> <i_m_source_file_index>
2646

> <i_lp_mmshare_version>
43012

> <i_f3d_flags>
0

> <s_epik_input>
W0NIMl0xW0NIMl1bQ0gyXVtDSDJdW0NIMl1bQ0hdMVtDQF0oW0NIM10pKFtDSDJdW09IXSlbTkhdQyg9TylbTkhdYzJbY0hdW2NIXVtjSF1uW2NIXTI=

> <s_epik_cmdline>
J2VwaWtfcHl0aG9uJywgJy1waCcsICc3LjAnLCAnLXRuJywgJzgnLCAnLW1hJywgJzIwMCcsICctbWV0YWxfYmluZGluZycsICctaW1hZScsICc8aW5maWxlLm1hZT4nLCAnLW9tYWUnLCAnPG91dGZpbGUubWFlPic=

> <r_epik_Ionization_Penalty>
0.00498697

> <r_epik_Ionization_Penalty_Charging>
0

> <r_epik_Ionization_Penalty_Neutral>
0.00498697

> <r_epik_State_Penalty>
0.00359645

> <r_epik_Charging_Adjusted_Penalty>
0.00359645

> <i_epik_Tot_Q>
0

> <i_epik_Tot_abs_Q>
0

> <r_epik_Metal_State_Penalty>
-0

> <b_epik_Metal_Only>
0

> <s_lp_Force_Field>
OPLS_2005

> <r_lp_Energy>
21.3241

> <b_lp_Chiralities_Consistent>
1

> <s_lp_Variant>
AV-unprocessed.smi:2646-1

> <Gold.Version>
5.8.1

> <Gold.Id.Protein>
6NUR|6NUR_protein|mol2

> <Gold.PLP.Fitness>
43.5539

> <Gold.PLP.PLP>
-32.1829

> <Gold.PLP.part.hbond>
-3.7444

> <Gold.PLP.part.metal>
0.0000

> <Gold.PLP.part.buried>
-2.5701

> <Gold.PLP.part.nonpolar>
-26.0881

> <Gold.PLP.part.repulsive>
0.1600

> <Gold.PLP.ligand.clash>
0.0000

> <Gold.PLP.ligand.torsion>
0.1252

> <Gold.PLP.Chemscore.Hbond>
2.8400

> <Gold.PLP.Chemscore.CHOScore>
1.0000

> <Gold.PLP.Chemscore.Metal>
0.0000

> <Gold.Chemscore.Hbonds>
donor molecule, donor type, donor heavy atom, donor atom, acceptor molecule, acceptor atom, score
      L1  H     5    27       P1  7948  0.86
      L1  H     8    28       P1  7948  1.00
      P1  H  7989  7998       L1    13  1.00
      L1  C    14    32       P1  7957  1.00

> <Gold.PLP.Chemscore.Internal.Correction>
0.1012

> <Gold.Rescore>
     Score         DG    S(hbond)    S(metal)    S(lipo)     H(rot)  DE(clash)    DE(int)     intcor
     13.44     -17.14       2.11        0.00      82.86       1.98       0.40       3.30       ----

> <Gold.Chemscore.Fitness>
13.4411

> <Gold.Chemscore.DG>
-17.1387

> <Gold.Chemscore.ZeroCoef>
-5.4800

> <Gold.Chemscore.Hbond>
2.1055

> <Gold.Chemscore.Metal>
0.0000

> <Gold.Chemscore.Lipo>
82.8580

> <Gold.Chemscore.Internal_Hbond>
0.0000

> <Gold.Chemscore.DEClash>
0.4008

> <Gold.Chemscore.DEInternal>
3.2968

> <Gold.Chemscore.Rot>
1.9798

> <Gold.Chemscore.Internal.Correction>
   9.000000E+99

> <Gold.Chemscore.Hbonds>
donor molecule, donor type, donor heavy atom, donor atom, acceptor molecule, acceptor atom, score
      L1  H     5    27       P1  7948  0.51
      L1  H     8    28       P1  7948  0.82
      P1  H  7989  7998       L1    13  0.60

> <Gold.Chemscore.Hbond.Weighted>
-7.0325

> <Gold.Chemscore.Metal.Weighted>
-0.0000

> <Gold.Chemscore.Lipo.Weighted>
-9.6944

> <Gold.Chemscore.Internal_Hbond.Weighted>
0.0000

> <Gold.Chemscore.DEClash.Weighted>
0.4008

> <Gold.Chemscore.DEInternal.Weighted>
3.2968

> <Gold.Chemscore.Rot.Weighted>
5.0682

> <Gold.Chemscore.Internal.Correction.Weighted>
   9.000000E+99

> <Gold.Protein.RotatedTorsions>
[ 6907 6896 6895 6894 ] final  -57.16 input  -60.11 | X-H torsion
[ 7974 7965 7964 7962 ] final -138.54 input  175.53 | X-H torsion
[ 8008 7997 7996 7995 ] final   85.42 input   59.86 | X-H torsion
[ 10167 10162 10161 10158 ] final   60.10 input  -65.29 | X-H torsion
[ 10718 10713 10712 10709 ] final   19.55 input   66.30 | X-H torsion
[ 10763 10752 10751 10750 ] final   45.82 input  -60.55 | X-H torsion
[ 11005 11000 10999 10996 ] final   44.79 input  -57.11 | X-H torsion

> <Gold.Protein.ActiveResidues>
 VAL166  LYS551  ARG553  GLY616  TRP617  ASP618  TYR619  PRO620  LYS621  CYS622 
 ASP623  PHE694  ASN695  SER759  ASP760  ASP761  ALA762  ILE779  LEU786  VAL792 
 PHE793  MET794  SER795  GLU796  ALA797  LYS798  CYS799  TRP800  GLU811  SER814 

> <Gold.Protein.RotatedAtoms>
  150.8108  134.7262  159.6686 H   0  0  0  0  0  0  0  0  0  0  0  0  # atno 6907 bound_to 6896
  152.4228  134.5920  159.9986 H   0  0  0  0  0  0  0  0  0  0  0  0  # atno 6908 bound_to 6896
  151.6130  133.3308  159.3107 H   0  0  0  0  0  0  0  0  0  0  0  0  # atno 6909 bound_to 6896
  144.8750  140.6424  143.5242 H   0  0  0  0  0  0  0  0  0  0  0  0  # atno 7974 bound_to 7965
  155.9498  140.3402  155.6398 H   0  0  0  0  0  0  0  0  0  0  0  0  # atno 8008 bound_to 7997
  155.6934  140.0751  157.2457 H   0  0  0  0  0  0  0  0  0  0  0  0  # atno 8009 bound_to 7997
  154.4119  140.1653  156.2099 H   0  0  0  0  0  0  0  0  0  0  0  0  # atno 8010 bound_to 7997
  140.1692  144.4293  150.6669 H   0  0  0  0  0  0  0  0  0  0  0  0  # atno 10167 bound_to 10162
  157.1120  130.6513  149.5900 H   0  0  0  0  0  0  0  0  0  0  0  0  # atno 10718 bound_to 10713
  152.9819  135.6027  154.3500 H   0  0  0  0  0  0  0  0  0  0  0  0  # atno 10763 bound_to 10752
  154.3190  135.2770  155.2531 H   0  0  0  0  0  0  0  0  0  0  0  0  # atno 10764 bound_to 10752
  154.4706  135.5942  153.6375 H   0  0  0  0  0  0  0  0  0  0  0  0  # atno 10765 bound_to 10752
  140.1519  134.4451  155.8376 H   0  0  0  0  0  0  0  0  0  0  0  0  # atno 11005 bound_to 11000
  145.4059  139.1589  143.4152 LP  0  0  0  0  0  0  0  0  0  0  0  0  # atno 17320 bound_to 7965
  146.2956  140.4159  142.8723 LP  0  0  0  0  0  0  0  0  0  0  0  0  # atno 17321 bound_to 7965
  140.6593  143.2247  151.5895 LP  0  0  0  0  0  0  0  0  0  0  0  0  # atno 17342 bound_to 10162
  139.5345  144.2819  152.1222 LP  0  0  0  0  0  0  0  0  0  0  0  0  # atno 17343 bound_to 10162
  155.9848  130.4875  150.7001 LP  0  0  0  0  0  0  0  0  0  0  0  0  # atno 17370 bound_to 10713
  157.4550  131.0877  151.0805 LP  0  0  0  0  0  0  0  0  0  0  0  0  # atno 17371 bound_to 10713
  141.2200  133.6876  156.7437 LP  0  0  0  0  0  0  0  0  0  0  0  0  # atno 17394 bound_to 11000
  140.2594  134.8478  157.3744 LP  0  0  0  0  0  0  0  0  0  0  0  0  # atno 17395 bound_to 11000

$$$$
