AV-unprocessed.smi:2391|AV-procd|sdf|9484|dock4
  -GOLD-   2272013113D 1   1.00000     0.00000
 Structure written by MMmdl.
 35 36  0  0  0  0  0  0  0  0  1 V2000
  149.3606  135.7496  158.6293 O   0  0  0  0  0  0  0  0  0  0  0  0
  148.9563  136.8135  159.1071 C   0  0  0  0  0  0  0  0  0  0  0  0
  148.1532  137.0155  160.2234 N   0  0  0  0  0  0  0  0  0  0  0  0
  147.7331  136.0364  160.9703 C   0  0  0  0  0  0  0  0  0  0  0  0
  146.8869  136.2915  162.1236 C   0  0  0  0  0  0  0  0  0  0  0  0
  146.4441  135.2830  162.9095 C   0  0  0  0  0  0  0  0  0  0  0  0
  146.8341  133.9264  162.5795 C   0  0  0  0  0  0  0  0  0  0  0  0
  147.5839  133.6533  161.5647 N   0  0  0  0  0  0  0  0  0  0  0  0
  148.0187  134.6658  160.7871 N   0  0  0  0  0  0  0  0  0  0  0  0
  149.2696  137.9965  158.5569 N   0  0  0  0  0  0  0  0  0  0  0  0
  150.0994  138.2163  157.3695 C   0  0  1  0  0  0  0  0  0  0  0  0
  149.5609  139.4377  156.5808 C   0  0  0  0  0  0  0  0  0  0  0  0
  148.0903  139.3235  156.1591 C   0  0  0  0  0  0  0  0  0  0  0  0
  147.9205  140.3936  155.0821 C   0  0  0  0  0  0  0  0  0  0  0  0
  149.2741  140.4710  154.3663 C   0  0  0  0  0  0  0  0  0  0  0  0
  150.2780  139.7181  155.2517 C   0  0  0  0  0  0  0  0  0  0  0  0
  151.5731  138.3604  157.8138 C   0  0  0  0  0  0  0  0  0  0  0  0
  151.7675  139.5666  158.3489 F   0  0  0  0  0  0  0  0  0  0  0  0
  151.8855  137.4523  158.7375 F   0  0  0  0  0  0  0  0  0  0  0  0
  152.3942  138.2180  156.7726 F   0  0  0  0  0  0  0  0  0  0  0  0
  146.5869  137.2962  162.3840 H   0  0  0  0  0  0  0  0  0  0  0  0
  145.8136  135.4719  163.7659 H   0  0  0  0  0  0  0  0  0  0  0  0
  146.4528  133.1517  163.2447 H   0  0  0  0  0  0  0  0  0  0  0  0
  148.9049  138.8255  159.0037 H   0  0  0  0  0  0  0  0  0  0  0  0
  150.0430  137.3444  156.7157 H   0  0  0  0  0  0  0  0  0  0  0  0
  149.6530  140.3281  157.2050 H   0  0  0  0  0  0  0  0  0  0  0  0
  147.8984  138.3382  155.7312 H   0  0  0  0  0  0  0  0  0  0  0  0
  147.3989  139.4651  156.9906 H   0  0  0  0  0  0  0  0  0  0  0  0
  147.0994  140.1696  154.4005 H   0  0  0  0  0  0  0  0  0  0  0  0
  147.7029  141.3525  155.5546 H   0  0  0  0  0  0  0  0  0  0  0  0
  149.2203  140.0084  153.3800 H   0  0  0  0  0  0  0  0  0  0  0  0
  149.5726  141.5101  154.2228 H   0  0  0  0  0  0  0  0  0  0  0  0
  151.1964  140.2882  155.3952 H   0  0  0  0  0  0  0  0  0  0  0  0
  150.5484  138.7792  154.7663 H   0  0  0  0  0  0  0  0  0  0  0  0
  148.6012  134.4069  160.0034 H   0  0  0  0  0  0  0  0  0  0  0  0
  1  2  2  0  0  0  0
  2  3  1  0  0  0  0
  2 10  1  0  0  0  0
  3  4  2  0  0  0  0
  4  9  1  0  0  0  0
  4  5  1  0  0  0  0
  5  6  2  0  0  0  0
  5 21  1  0  0  0  0
  6  7  1  0  0  0  0
  6 22  1  0  0  0  0
  7  8  2  0  0  0  0
  7 23  1  0  0  0  0
  8  9  1  0  0  0  0
  9 35  1  0  0  0  0
 10 11  1  0  0  0  0
 10 24  1  0  0  0  0
 11 12  1  0  0  0  0
 11 17  1  0  0  0  0
 11 25  1  0  0  0  0
 12 16  1  0  0  0  0
 12 13  1  0  0  0  0
 12 26  1  0  0  0  0
 13 14  1  0  0  0  0
 13 27  1  0  0  0  0
 13 28  1  0  0  0  0
 14 15  1  0  0  0  0
 14 29  1  0  0  0  0
 14 30  1  0  0  0  0
 15 16  1  0  0  0  0
 15 31  1  0  0  0  0
 15 32  1  0  0  0  0
 16 33  1  0  0  0  0
 16 34  1  0  0  0  0
 17 18  1  0  0  0  0
 17 19  1  0  0  0  0
 17 20  1  0  0  0  0
M  END
> <s_m_source_file>
AV-unprocessed.smi

> <i_m_source_file_index>
2391

> <i_lp_mmshare_version>
43012

> <i_f3d_flags>
0

> <s_epik_input>
W0NIMl0xW0NIMl1bQ0gyXVtDSDJdW0NIXTFbQ0BIXShDKEYpKEYpRilbTkhdQyg9TylbTkhdYzJbY0hdW2NIXVtjSF1ubjI=

> <s_epik_cmdline>
J2VwaWtfcHl0aG9uJywgJy1waCcsICc3LjAnLCAnLXRuJywgJzgnLCAnLW1hJywgJzIwMCcsICctbWV0YWxfYmluZGluZycsICctaW1hZScsICc8aW5maWxlLm1hZT4nLCAnLW9tYWUnLCAnPG91dGZpbGUubWFlPic=

> <r_epik_Ionization_Penalty>
0.0611197

> <r_epik_Ionization_Penalty_Charging>
0.0611196

> <r_epik_Ionization_Penalty_Neutral>
6.50554e-08

> <r_epik_State_Penalty>
2.29873

> <r_epik_Charging_Adjusted_Penalty>
2.35985

> <i_epik_Tot_Q>
0

> <i_epik_Tot_abs_Q>
0

> <r_epik_Metal_State_Penalty>
2.32932

> <b_epik_Metal_Only>
0

> <s_lp_Force_Field>
OPLS_2005

> <r_lp_Energy>
50.064

> <b_lp_Chiralities_Consistent>
1

> <s_lp_Variant>
AV-unprocessed.smi:2391-4

> <Gold.Version>
5.8.1

> <Gold.Id.Protein>
6NUR|6NUR_protein|mol2

> <Gold.PLP.Fitness>
36.8637

> <Gold.PLP.PLP>
-31.3646

> <Gold.PLP.part.hbond>
-3.0000

> <Gold.PLP.part.metal>
0.0000

> <Gold.PLP.part.buried>
-4.4365

> <Gold.PLP.part.nonpolar>
-25.2436

> <Gold.PLP.part.repulsive>
0.3154

> <Gold.PLP.ligand.clash>
0.0000

> <Gold.PLP.ligand.torsion>
0.7141

> <Gold.PLP.Chemscore.Hbond>
2.2005

> <Gold.PLP.Chemscore.CHOScore>
0.0000

> <Gold.PLP.Chemscore.Metal>
0.0000

> <Gold.Chemscore.Hbonds>
donor molecule, donor type, donor heavy atom, donor atom, acceptor molecule, acceptor atom, score
      P1  H  6896  6909       L1     1  1.00
      P1  H  6931  6943       L1     3  0.27
      P1  H  6934  6947       L1     3  0.19

> <Gold.PLP.Chemscore.Internal.Correction>
0.3258

> <Gold.Rescore>
     Score         DG    S(hbond)    S(metal)    S(lipo)     H(rot)  DE(clash)    DE(int)     intcor
     13.41     -14.28       1.78        0.00      53.65       1.33       0.09       0.79       ----

> <Gold.Chemscore.Fitness>
13.4057

> <Gold.Chemscore.DG>
-14.2794

> <Gold.Chemscore.ZeroCoef>
-5.4800

> <Gold.Chemscore.Hbond>
1.7750

> <Gold.Chemscore.Metal>
0.0000

> <Gold.Chemscore.Lipo>
53.6460

> <Gold.Chemscore.Internal_Hbond>
0.0000

> <Gold.Chemscore.DEClash>
0.0869

> <Gold.Chemscore.DEInternal>
0.7868

> <Gold.Chemscore.Rot>
1.3304

> <Gold.Chemscore.Internal.Correction>
   9.000000E+99

> <Gold.Chemscore.Hbonds>
donor molecule, donor type, donor heavy atom, donor atom, acceptor molecule, acceptor atom, score
      P1  H  6896  6909       L1     1  0.96
      P1  H  6931  6943       L1     3  0.04
      P1  H  6934  6947       L1     3  0.14

> <Gold.Chemscore.Hbond.Weighted>
-5.9286

> <Gold.Chemscore.Metal.Weighted>
-0.0000

> <Gold.Chemscore.Lipo.Weighted>
-6.2766

> <Gold.Chemscore.Internal_Hbond.Weighted>
0.0000

> <Gold.Chemscore.DEClash.Weighted>
0.0869

> <Gold.Chemscore.DEInternal.Weighted>
0.7868

> <Gold.Chemscore.Rot.Weighted>
3.4057

> <Gold.Chemscore.Internal.Correction.Weighted>
   9.000000E+99

> <Gold.Protein.RotatedTorsions>
[ 6907 6896 6895 6894 ] final   53.07 input  -60.11 | X-H torsion
[ 7974 7965 7964 7962 ] final  138.14 input  175.53 | X-H torsion
[ 8008 7997 7996 7995 ] final -119.82 input   59.86 | X-H torsion
[ 10167 10162 10161 10158 ] final  148.32 input  -65.29 | X-H torsion
[ 10718 10713 10712 10709 ] final -126.78 input   66.30 | X-H torsion
[ 10763 10752 10751 10750 ] final  -97.91 input  -60.55 | X-H torsion
[ 11005 11000 10999 10996 ] final  116.70 input  -57.11 | X-H torsion

> <Gold.Protein.ActiveResidues>
 VAL166  LYS551  ARG553  GLY616  TRP617  ASP618  TYR619  PRO620  LYS621  CYS622 
 ASP623  PHE694  ASN695  SER759  ASP760  ASP761  ALA762  ILE779  LEU786  VAL792 
 PHE793  MET794  SER795  GLU796  ALA797  LYS798  CYS799  TRP800  GLU811  SER814 

> <Gold.Protein.RotatedAtoms>
  152.3299  134.7273  160.0292 H   0  0  0  0  0  0  0  0  0  0  0  0  # atno 6907 bound_to 6896
  151.7693  133.3334  159.3448 H   0  0  0  0  0  0  0  0  0  0  0  0  # atno 6908 bound_to 6896
  150.7417  134.5965  159.6059 H   0  0  0  0  0  0  0  0  0  0  0  0  # atno 6909 bound_to 6896
  144.9400  139.4942  143.5576 H   0  0  0  0  0  0  0  0  0  0  0  0  # atno 7974 bound_to 7965
  155.1219  140.0399  157.2752 H   0  0  0  0  0  0  0  0  0  0  0  0  # atno 8008 bound_to 7997
  154.6607  140.2590  155.7086 H   0  0  0  0  0  0  0  0  0  0  0  0  # atno 8009 bound_to 7997
  156.2618  140.2817  156.1078 H   0  0  0  0  0  0  0  0  0  0  0  0  # atno 8010 bound_to 7997
  139.4876  144.5688  151.7094 H   0  0  0  0  0  0  0  0  0  0  0  0  # atno 10167 bound_to 10162
  156.1797  130.6723  151.0288 H   0  0  0  0  0  0  0  0  0  0  0  0  # atno 10718 bound_to 10713
  154.7369  135.5029  153.9056 H   0  0  0  0  0  0  0  0  0  0  0  0  # atno 10763 bound_to 10752
  153.1004  135.6683  153.9692 H   0  0  0  0  0  0  0  0  0  0  0  0  # atno 10764 bound_to 10752
  153.9479  135.3061  155.3419 H   0  0  0  0  0  0  0  0  0  0  0  0  # atno 10765 bound_to 10752
  139.9050  134.9601  156.7238 H   0  0  0  0  0  0  0  0  0  0  0  0  # atno 11005 bound_to 11000
  146.3282  139.8413  142.8890 LP  0  0  0  0  0  0  0  0  0  0  0  0  # atno 17320 bound_to 7965
  145.3005  141.0193  143.3611 LP  0  0  0  0  0  0  0  0  0  0  0  0  # atno 17321 bound_to 7965
  140.5271  144.0788  150.6041 LP  0  0  0  0  0  0  0  0  0  0  0  0  # atno 17342 bound_to 10162
  140.3766  143.2825  152.0218 LP  0  0  0  0  0  0  0  0  0  0  0  0  # atno 17343 bound_to 10162
  157.6859  131.0825  150.7243 LP  0  0  0  0  0  0  0  0  0  0  0  0  # atno 17370 bound_to 10713
  156.7300  130.4706  149.5502 LP  0  0  0  0  0  0  0  0  0  0  0  0  # atno 17371 bound_to 10713
  140.6979  133.9332  155.8006 LP  0  0  0  0  0  0  0  0  0  0  0  0  # atno 17394 bound_to 11000
  141.0393  134.0644  157.3921 LP  0  0  0  0  0  0  0  0  0  0  0  0  # atno 17395 bound_to 11000

$$$$
