AV-unprocessed.smi:2999|AV-procd|sdf|11422|dock10
  -GOLD-   2272016343D 1   1.00000     0.00000
 Structure written by MMmdl.
 38 40  0  0  0  0  0  0  0  0  2 V2000
  145.6079  137.4163  154.1412 O   0  0  0  0  0  0  0  0  0  0  0  0
  146.5835  137.1174  153.4531 C   0  0  0  0  0  0  0  0  0  0  0  0
  146.7292  135.9238  152.8600 N   0  0  0  0  0  0  0  0  0  0  0  0
  145.7892  134.8096  152.9578 C   0  0  0  0  0  0  0  0  0  0  0  0
  146.1818  133.6106  152.0724 C   0  0  1  0  0  0  0  0  0  0  0  0
  145.9188  132.2306  152.7126 C   0  0  0  0  0  0  0  0  0  0  0  0
  146.3178  131.1501  151.7833 N   0  3  1  0  0  0  0  0  0  0  0  0
  146.1258  129.8048  152.3666 C   0  0  0  0  0  0  0  0  0  0  0  0
  147.4043  129.1686  152.8600 C   0  0  0  0  0  0  0  0  0  0  0  0
  146.7738  128.6981  151.5679 C   0  0  0  0  0  0  0  0  0  0  0  0
  145.6298  131.3055  150.4815 C   0  0  0  0  0  0  0  0  0  0  0  0
  145.8883  132.7073  149.9047 C   0  0  0  0  0  0  0  0  0  0  0  0
  145.4731  133.6971  150.8392 O   0  0  0  0  0  0  0  0  0  0  0  0
  147.6234  137.9237  153.1875 N   0  0  0  0  0  0  0  0  0  0  0  0
  147.8124  139.2629  153.6099 C   0  0  0  0  0  0  0  0  0  0  0  0
  146.8365  140.1484  153.4013 N   0  0  0  0  0  0  0  0  0  0  0  0
  147.1714  141.4201  153.8759 C   0  0  0  0  0  0  0  0  0  0  0  0
  148.4177  141.4851  154.4480 C   0  0  0  0  0  0  0  0  0  0  0  0
  149.2288  139.9425  154.4154 S   0  0  0  0  0  0  0  0  0  0  0  0
  147.5601  135.7671  152.3081 H   0  0  0  0  0  0  0  0  0  0  0  0
  145.7572  134.4932  154.0007 H   0  0  0  0  0  0  0  0  0  0  0  0
  144.7770  135.1367  152.7145 H   0  0  0  0  0  0  0  0  0  0  0  0
  147.2491  133.7005  151.8617 H   0  0  0  0  0  0  0  0  0  0  0  0
  146.4768  132.1401  153.6453 H   0  0  0  0  0  0  0  0  0  0  0  0
  144.8629  132.1094  152.9567 H   0  0  0  0  0  0  0  0  0  0  0  0
  145.1872  129.6331  152.8910 H   0  0  0  0  0  0  0  0  0  0  0  0
  148.3270  129.7416  152.7888 H   0  0  0  0  0  0  0  0  0  0  0  0
  147.3347  128.5045  153.7190 H   0  0  0  0  0  0  0  0  0  0  0  0
  146.2905  127.7232  151.5756 H   0  0  0  0  0  0  0  0  0  0  0  0
  147.2794  128.9584  150.6396 H   0  0  0  0  0  0  0  0  0  0  0  0
  145.9834  130.5455  149.7840 H   0  0  0  0  0  0  0  0  0  0  0  0
  144.5580  131.1475  150.6121 H   0  0  0  0  0  0  0  0  0  0  0  0
  146.9439  132.8397  149.6614 H   0  0  0  0  0  0  0  0  0  0  0  0
  145.3298  132.8413  148.9781 H   0  0  0  0  0  0  0  0  0  0  0  0
  148.3590  137.5421  152.6112 H   0  0  0  0  0  0  0  0  0  0  0  0
  146.4599  142.2250  153.7654 H   0  0  0  0  0  0  0  0  0  0  0  0
  148.9058  142.3434  154.8852 H   0  0  0  0  0  0  0  0  0  0  0  0
  147.3070  131.2590  151.6107 H   0  0  0  0  0  0  0  0  0  0  0  0
  1  2  2  0  0  0  0
  2  3  1  0  0  0  0
  2 14  1  0  0  0  0
  3  4  1  0  0  0  0
  3 20  1  0  0  0  0
  4  5  1  0  0  0  0
  4 21  1  0  0  0  0
  4 22  1  0  0  0  0
  5 13  1  0  0  0  0
  5  6  1  0  0  0  0
  5 23  1  0  0  0  0
  6  7  1  0  0  0  0
  6 24  1  0  0  0  0
  6 25  1  0  0  0  0
  7  8  1  0  0  0  0
  7 11  1  0  0  0  0
  7 38  1  0  0  0  0
  8 10  1  0  0  0  0
  8  9  1  0  0  0  0
  8 26  1  0  0  0  0
  9 10  1  0  0  0  0
  9 27  1  0  0  0  0
  9 28  1  0  0  0  0
 10 29  1  0  0  0  0
 10 30  1  0  0  0  0
 11 12  1  0  0  0  0
 11 31  1  0  0  0  0
 11 32  1  0  0  0  0
 12 13  1  0  0  0  0
 12 33  1  0  0  0  0
 12 34  1  0  0  0  0
 14 15  1  0  0  0  0
 14 35  1  0  0  0  0
 15 19  1  0  0  0  0
 15 16  2  0  0  0  0
 16 17  1  0  0  0  0
 17 18  2  0  0  0  0
 17 36  1  0  0  0  0
 18 19  1  0  0  0  0
 18 37  1  0  0  0  0
M  CHG  1   7   1
M  END
> <s_m_source_file>
AV-unprocessed.smi

> <i_m_source_file_index>
2999

> <i_lp_mmshare_version>
43012

> <i_f3d_flags>
0

> <s_epik_input>
czFbY0hdW2NIXW5jMVtOSF1DKD1PKVtOSF1bQ0gyXVtDQEBIXTJbQ0gyXU4oW0NIMl1bQ0gyXU8yKVtDSF0zW0NIMl1bQ0gyXTM=

> <s_epik_cmdline>
J2VwaWtfcHl0aG9uJywgJy1waCcsICc3LjAnLCAnLXRuJywgJzgnLCAnLW1hJywgJzIwMCcsICctbWV0YWxfYmluZGluZycsICctaW1hZScsICc8aW5maWxlLm1hZT4nLCAnLW9tYWUnLCAnPG91dGZpbGUubWFlPic=

> <r_lp_tautomer_probability>
0.999

> <r_epik_Ionization_Penalty>
1.55235

> <r_epik_Ionization_Penalty_Charging>
1.55221

> <r_epik_Ionization_Penalty_Neutral>
0.000139685

> <r_epik_State_Penalty>
1.64652

> <r_epik_Charging_Adjusted_Penalty>
3.19873

> <i_epik_Tot_Q>
1

> <i_epik_Tot_abs_Q>
1

> <r_epik_Metal_State_Penalty>
1.68612

> <b_epik_Metal_Only>
0

> <s_lp_Force_Field>
OPLS_2005

> <r_lp_Energy>
20.9615

> <b_lp_Chiralities_Consistent>
1

> <s_lp_Variant>
AV-unprocessed.smi:2999-6

> <Gold.Version>
5.8.1

> <Gold.Id.Protein>
6NUR|6NUR_protein|mol2

> <Gold.PLP.Fitness>
38.5734

> <Gold.PLP.PLP>
-30.2555

> <Gold.PLP.part.hbond>
-2.5692

> <Gold.PLP.part.metal>
0.0000

> <Gold.PLP.part.buried>
-2.5987

> <Gold.PLP.part.nonpolar>
-25.3335

> <Gold.PLP.part.repulsive>
0.5068

> <Gold.PLP.ligand.clash>
0.0000

> <Gold.PLP.ligand.torsion>
1.6568

> <Gold.PLP.Chemscore.Hbond>
2.4565

> <Gold.PLP.Chemscore.CHOScore>
1.0000

> <Gold.PLP.Chemscore.Metal>
0.0000

> <Gold.Chemscore.Hbonds>
donor molecule, donor type, donor heavy atom, donor atom, acceptor molecule, acceptor atom, score
      L1  H     3    20       P1  7948  0.96
      L1  H     7    38       P1 10747  0.59
      L1  H    14    35       P1  7948  0.96
      L1  C    18    37       P1  8028  1.00

> <Gold.PLP.Chemscore.Internal.Correction>
1.2620

> <Gold.Rescore>
     Score         DG    S(hbond)    S(metal)    S(lipo)     H(rot)  DE(clash)    DE(int)     intcor
     17.79     -20.01       2.67        0.00      82.42       1.58       0.49       1.73       ----

> <Gold.Chemscore.Fitness>
17.7919

> <Gold.Chemscore.DG>
-20.0108

> <Gold.Chemscore.ZeroCoef>
-5.4800

> <Gold.Chemscore.Hbond>
2.6739

> <Gold.Chemscore.Metal>
0.0000

> <Gold.Chemscore.Lipo>
82.4240

> <Gold.Chemscore.Internal_Hbond>
0.0000

> <Gold.Chemscore.DEClash>
0.4894

> <Gold.Chemscore.DEInternal>
1.7295

> <Gold.Chemscore.Rot>
1.5795

> <Gold.Chemscore.Internal.Correction>
   9.000000E+99

> <Gold.Chemscore.Hbonds>
donor molecule, donor type, donor heavy atom, donor atom, acceptor molecule, acceptor atom, score
      L1  H     3    20       P1  7948  0.87
      L1  H     7    38       P1 10747  0.59
      L1  H    14    35       P1  7948  0.91

> <Gold.Chemscore.Hbond.Weighted>
-8.9307

> <Gold.Chemscore.Metal.Weighted>
-0.0000

> <Gold.Chemscore.Lipo.Weighted>
-9.6436

> <Gold.Chemscore.Internal_Hbond.Weighted>
0.0000

> <Gold.Chemscore.DEClash.Weighted>
0.4894

> <Gold.Chemscore.DEInternal.Weighted>
1.7295

> <Gold.Chemscore.Rot.Weighted>
4.0434

> <Gold.Chemscore.Internal.Correction.Weighted>
   9.000000E+99

> <Gold.Protein.RotatedTorsions>
[ 6907 6896 6895 6894 ] final -176.11 input  -60.11 | X-H torsion
[ 7974 7965 7964 7962 ] final -136.36 input  175.53 | X-H torsion
[ 8008 7997 7996 7995 ] final  -43.17 input   59.86 | X-H torsion
[ 10167 10162 10161 10158 ] final  111.62 input  -65.29 | X-H torsion
[ 10718 10713 10712 10709 ] final   70.53 input   66.30 | X-H torsion
[ 10763 10752 10751 10750 ] final  157.77 input  -60.55 | X-H torsion
[ 11005 11000 10999 10996 ] final  152.51 input  -57.11 | X-H torsion

> <Gold.Protein.ActiveResidues>
 VAL166  LYS551  ARG553  GLY616  TRP617  ASP618  TYR619  PRO620  LYS621  CYS622 
 ASP623  PHE694  ASN695  SER759  ASP760  ASP761  ALA762  ILE779  LEU786  VAL792 
 PHE793  MET794  SER795  GLU796  ALA797  LYS798  CYS799  TRP800  GLU811  SER814 

> <Gold.Protein.RotatedAtoms>
  151.5995  133.3358  159.3044 H   0  0  0  0  0  0  0  0  0  0  0  0  # atno 6907 bound_to 6896
  150.8216  134.7429  159.6788 H   0  0  0  0  0  0  0  0  0  0  0  0  # atno 6908 bound_to 6896
  152.4309  134.5786  159.9993 H   0  0  0  0  0  0  0  0  0  0  0  0  # atno 6909 bound_to 6896
  144.8933  140.6672  143.5131 H   0  0  0  0  0  0  0  0  0  0  0  0  # atno 7974 bound_to 7965
  154.3997  140.1454  156.3475 H   0  0  0  0  0  0  0  0  0  0  0  0  # atno 8008 bound_to 7997
  155.8300  140.3466  155.5545 H   0  0  0  0  0  0  0  0  0  0  0  0  # atno 8009 bound_to 7997
  155.8198  140.0896  157.1846 H   0  0  0  0  0  0  0  0  0  0  0  0  # atno 8010 bound_to 7997
  139.6597  144.7129  151.1888 H   0  0  0  0  0  0  0  0  0  0  0  0  # atno 10167 bound_to 10162
  157.6404  130.9482  150.0663 H   0  0  0  0  0  0  0  0  0  0  0  0  # atno 10718 bound_to 10713
  154.2055  135.2788  155.2976 H   0  0  0  0  0  0  0  0  0  0  0  0  # atno 10763 bound_to 10752
  154.5820  135.5586  153.7198 H   0  0  0  0  0  0  0  0  0  0  0  0  # atno 10764 bound_to 10752
  153.0077  135.6347  154.2194 H   0  0  0  0  0  0  0  0  0  0  0  0  # atno 10765 bound_to 10752
  140.1314  134.8799  157.2209 H   0  0  0  0  0  0  0  0  0  0  0  0  # atno 11005 bound_to 11000
  145.3744  139.1651  143.4314 LP  0  0  0  0  0  0  0  0  0  0  0  0  # atno 17320 bound_to 7965
  146.3067  140.3819  142.8685 LP  0  0  0  0  0  0  0  0  0  0  0  0  # atno 17321 bound_to 7965
  140.7575  143.6014  150.8696 LP  0  0  0  0  0  0  0  0  0  0  0  0  # atno 17342 bound_to 10162
  139.9670  143.6099  152.2985 LP  0  0  0  0  0  0  0  0  0  0  0  0  # atno 17343 bound_to 10162
  156.1681  130.3645  149.9204 LP  0  0  0  0  0  0  0  0  0  0  0  0  # atno 17370 bound_to 10713
  156.7186  130.8998  151.3616 LP  0  0  0  0  0  0  0  0  0  0  0  0  # atno 17371 bound_to 10713
  140.2837  134.3320  155.7335 LP  0  0  0  0  0  0  0  0  0  0  0  0  # atno 17394 bound_to 11000
  141.2171  133.7493  156.9402 LP  0  0  0  0  0  0  0  0  0  0  0  0  # atno 17395 bound_to 11000

$$$$
