AV-unprocessed.smi:1624|AV-procd|sdf|6504|dock4
  -GOLD-   22720 7173D 1   1.00000     0.00000
 Structure written by MMmdl.
 35 36  0  0  0  0  0  0  0  0  2 V2000
  156.5892  140.0561  158.7276 O   0  0  0  0  0  0  0  0  0  0  0  0
  156.9334  140.1607  159.9074 C   0  0  0  0  0  0  0  0  0  0  0  0
  156.0142  140.4066  160.8524 N   0  0  0  0  0  0  0  0  0  0  0  0
  154.5816  140.5620  160.6264 C   0  0  0  0  0  0  0  0  0  0  0  0
  154.2597  141.9081  159.9515 C   0  0  0  0  0  0  0  0  0  0  0  0
  152.8662  141.9585  159.4963 N   0  0  0  0  0  0  0  0  0  0  0  0
  152.0835  143.1167  159.9540 C   0  0  0  0  0  0  0  0  0  0  0  0
  151.7736  144.1344  158.8335 C   0  0  0  0  0  0  0  0  0  0  0  0
  151.5917  143.5495  157.4190 C   0  0  0  0  0  0  0  0  0  0  0  0
  150.6030  142.3686  157.3227 C   0  0  0  0  0  0  0  0  0  0  0  0
  150.8775  141.1540  158.2437 C   0  0  0  0  0  0  0  0  0  0  0  0
  152.3413  141.0030  158.6909 C   0  0  0  0  0  0  0  0  0  0  0  0
  152.9804  140.0238  158.3053 O   0  0  0  0  0  0  0  0  0  0  0  0
  158.1931  140.0456  160.3867 N   0  5  0  0  0  0  0  0  0  0  0  0
  159.2118  140.6382  159.7424 C   0  0  0  0  0  0  0  0  0  0  0  0
  159.0314  141.3776  158.6361 N   0  0  0  0  0  0  0  0  0  0  0  0
  160.2140  141.9009  158.1303 N   0  0  0  0  0  0  0  0  0  0  0  0
  161.2599  141.5486  158.8774 C   0  0  0  0  0  0  0  0  0  0  0  0
  160.8954  140.5480  160.2673 S   0  0  0  0  0  0  0  0  0  0  0  0
  156.3376  140.4850  161.8055 H   0  0  0  0  0  0  0  0  0  0  0  0
  154.2470  139.7358  159.9989 H   0  0  0  0  0  0  0  0  0  0  0  0
  154.0449  140.4688  161.5721 H   0  0  0  0  0  0  0  0  0  0  0  0
  154.4519  142.7323  160.6398 H   0  0  0  0  0  0  0  0  0  0  0  0
  154.9377  142.0763  159.1130 H   0  0  0  0  0  0  0  0  0  0  0  0
  151.1531  142.7670  160.4016 H   0  0  0  0  0  0  0  0  0  0  0  0
  152.5903  143.6287  160.7732 H   0  0  0  0  0  0  0  0  0  0  0  0
  150.8858  144.7031  159.1113 H   0  0  0  0  0  0  0  0  0  0  0  0
  152.5861  144.8603  158.7904 H   0  0  0  0  0  0  0  0  0  0  0  0
  151.2576  144.3446  156.7518 H   0  0  0  0  0  0  0  0  0  0  0  0
  152.5626  143.2431  157.0267 H   0  0  0  0  0  0  0  0  0  0  0  0
  149.5959  142.7350  157.5236 H   0  0  0  0  0  0  0  0  0  0  0  0
  150.5859  142.0241  156.2881 H   0  0  0  0  0  0  0  0  0  0  0  0
  150.2446  141.2055  159.1294 H   0  0  0  0  0  0  0  0  0  0  0  0
  150.5653  140.2419  157.7335 H   0  0  0  0  0  0  0  0  0  0  0  0
  162.2516  141.8823  158.6106 H   0  0  0  0  0  0  0  0  0  0  0  0
  1  2  2  0  0  0  0
  2  3  1  0  0  0  0
  2 14  1  0  0  0  0
  3  4  1  0  0  0  0
  3 20  1  0  0  0  0
  4  5  1  0  0  0  0
  4 21  1  0  0  0  0
  4 22  1  0  0  0  0
  5  6  1  0  0  0  0
  5 23  1  0  0  0  0
  5 24  1  0  0  0  0
  6 12  1  0  0  0  0
  6  7  1  0  0  0  0
  7  8  1  0  0  0  0
  7 25  1  0  0  0  0
  7 26  1  0  0  0  0
  8  9  1  0  0  0  0
  8 27  1  0  0  0  0
  8 28  1  0  0  0  0
  9 10  1  0  0  0  0
  9 29  1  0  0  0  0
  9 30  1  0  0  0  0
 10 11  1  0  0  0  0
 10 31  1  0  0  0  0
 10 32  1  0  0  0  0
 11 12  1  0  0  0  0
 11 33  1  0  0  0  0
 11 34  1  0  0  0  0
 12 13  2  0  0  0  0
 14 15  1  0  0  0  0
 15 19  1  0  0  0  0
 15 16  2  0  0  0  0
 16 17  1  0  0  0  0
 17 18  2  0  0  0  0
 18 19  1  0  0  0  0
 18 35  1  0  0  0  0
M  CHG  1  14  -1
M  END
> <s_m_source_file>
AV-unprocessed.smi

> <i_m_source_file_index>
1624

> <i_lp_mmshare_version>
43012

> <i_f3d_flags>
0

> <s_epik_input>
czFbY0hdbm5jMVtOSF1DKD1PKVtOSF1bQ0gyXVtDSDJdTjJbQ0gyXVtDSDJdW0NIMl1bQ0gyXVtDSDJdQzI9Tw==

> <s_epik_cmdline>
J2VwaWtfcHl0aG9uJywgJy1waCcsICc3LjAnLCAnLXRuJywgJzgnLCAnLW1hJywgJzIwMCcsICctbWV0YWxfYmluZGluZycsICctaW1hZScsICc8aW5maWxlLm1hZT4nLCAnLW9tYWUnLCAnPG91dGZpbGUubWFlPic=

> <r_lp_tautomer_probability>
1

> <r_epik_Ionization_Penalty>
3.35684

> <r_epik_Ionization_Penalty_Charging>
3.31562

> <r_epik_Ionization_Penalty_Neutral>
0.0412242

> <r_epik_State_Penalty>
3.31341

> <r_epik_Charging_Adjusted_Penalty>
6.62903

> <i_epik_Tot_Q>
-1

> <i_epik_Tot_abs_Q>
1

> <r_epik_Metal_State_Penalty>
0.484053

> <b_epik_Metal_Only>
1

> <s_lp_Force_Field>
OPLS_2005

> <r_lp_Energy>
19.6576

> <b_lp_Chiralities_Consistent>
1

> <s_lp_Variant>
AV-unprocessed.smi:1624-2

> <Gold.Version>
5.8.1

> <Gold.Id.Protein>
6NUR|6NUR_protein|mol2

> <Gold.PLP.Fitness>
38.3876

> <Gold.PLP.PLP>
-36.2083

> <Gold.PLP.part.hbond>
-4.0000

> <Gold.PLP.part.metal>
0.0000

> <Gold.PLP.part.buried>
-5.1060

> <Gold.PLP.part.nonpolar>
-26.8383

> <Gold.PLP.part.repulsive>
0.4330

> <Gold.PLP.ligand.clash>
0.0000

> <Gold.PLP.ligand.torsion>
0.5031

> <Gold.PLP.Chemscore.Hbond>
1.0552

> <Gold.PLP.Chemscore.CHOScore>
0.0000

> <Gold.PLP.Chemscore.Metal>
0.0000

> <Gold.Chemscore.Hbonds>
donor molecule, donor type, donor heavy atom, donor atom, acceptor molecule, acceptor atom, score
      P1  H  7997  8008       L1     1  0.08
      P1  H  7997  8009       L1    13  0.89

> <Gold.PLP.Chemscore.Internal.Correction>
0.0200

> <Gold.Rescore>
     Score         DG    S(hbond)    S(metal)    S(lipo)     H(rot)  DE(clash)    DE(int)     intcor
      9.41     -12.69       0.96        0.00      72.22       1.73       0.11       3.17       ----

> <Gold.Chemscore.Fitness>
9.4150

> <Gold.Chemscore.DG>
-12.6926

> <Gold.Chemscore.ZeroCoef>
-5.4800

> <Gold.Chemscore.Hbond>
0.9591

> <Gold.Chemscore.Metal>
0.0000

> <Gold.Chemscore.Lipo>
72.2200

> <Gold.Chemscore.Internal_Hbond>
0.0000

> <Gold.Chemscore.DEClash>
0.1055

> <Gold.Chemscore.DEInternal>
3.1721

> <Gold.Chemscore.Rot>
1.7346

> <Gold.Chemscore.Internal.Correction>
   9.000000E+99

> <Gold.Chemscore.Hbonds>
donor molecule, donor type, donor heavy atom, donor atom, acceptor molecule, acceptor atom, score
      P1  H  7997  8008       L1     1  0.10
      P1  H  7997  8009       L1    13  0.82

> <Gold.Chemscore.Hbond.Weighted>
-3.2035

> <Gold.Chemscore.Metal.Weighted>
-0.0000

> <Gold.Chemscore.Lipo.Weighted>
-8.4497

> <Gold.Chemscore.Internal_Hbond.Weighted>
0.0000

> <Gold.Chemscore.DEClash.Weighted>
0.1055

> <Gold.Chemscore.DEInternal.Weighted>
3.1721

> <Gold.Chemscore.Rot.Weighted>
4.4406

> <Gold.Chemscore.Internal.Correction.Weighted>
   9.000000E+99

> <Gold.Protein.RotatedTorsions>
[ 6907 6896 6895 6894 ] final   -4.26 input  -60.11 | X-H torsion
[ 7974 7965 7964 7962 ] final   21.65 input  175.53 | X-H torsion
[ 8008 7997 7996 7995 ] final  146.58 input   59.86 | X-H torsion
[ 10167 10162 10161 10158 ] final   -9.52 input  -65.29 | X-H torsion
[ 10718 10713 10712 10709 ] final  123.96 input   66.30 | X-H torsion
[ 10763 10752 10751 10750 ] final  -32.95 input  -60.55 | X-H torsion
[ 11005 11000 10999 10996 ] final   94.77 input  -57.11 | X-H torsion

> <Gold.Protein.ActiveResidues>
 VAL166  LYS551  ARG553  GLY616  TRP617  ASP618  TYR619  PRO620  LYS621  CYS622 
 ASP623  PHE694  ASN695  SER759  ASP760  ASP761  ALA762  ILE779  LEU786  VAL792 
 PHE793  MET794  SER795  GLU796  ALA797  LYS798  CYS799  TRP800  GLU811  SER814 

> <Gold.Protein.RotatedAtoms>
  151.5005  135.1061  159.9827 H   0  0  0  0  0  0  0  0  0  0  0  0  # atno 6907 bound_to 6896
  152.4704  133.8012  159.6964 H   0  0  0  0  0  0  0  0  0  0  0  0  # atno 6908 bound_to 6896
  150.8709  133.7443  159.2987 H   0  0  0  0  0  0  0  0  0  0  0  0  # atno 6909 bound_to 6896
  146.2062  139.7997  142.8724 H   0  0  0  0  0  0  0  0  0  0  0  0  # atno 7974 bound_to 7965
  156.2851  140.2178  156.5400 H   0  0  0  0  0  0  0  0  0  0  0  0  # atno 8008 bound_to 7997
  154.7378  140.0490  157.0806 H   0  0  0  0  0  0  0  0  0  0  0  0  # atno 8009 bound_to 7997
  155.0270  140.3130  155.4775 H   0  0  0  0  0  0  0  0  0  0  0  0  # atno 8010 bound_to 7997
  140.7089  143.5849  150.8954 H   0  0  0  0  0  0  0  0  0  0  0  0  # atno 10167 bound_to 10162
  157.5623  131.1089  150.8516 H   0  0  0  0  0  0  0  0  0  0  0  0  # atno 10718 bound_to 10713
  153.8223  135.6873  153.4825 H   0  0  0  0  0  0  0  0  0  0  0  0  # atno 10763 bound_to 10752
  153.1562  135.4598  154.9705 H   0  0  0  0  0  0  0  0  0  0  0  0  # atno 10764 bound_to 10752
  154.7922  135.3306  154.7694 H   0  0  0  0  0  0  0  0  0  0  0  0  # atno 10765 bound_to 10752
  139.8795  134.8863  156.3913 H   0  0  0  0  0  0  0  0  0  0  0  0  # atno 11005 bound_to 11000
  145.3310  141.0266  143.3446 LP  0  0  0  0  0  0  0  0  0  0  0  0  # atno 17320 bound_to 7965
  144.8799  139.4918  143.6728 LP  0  0  0  0  0  0  0  0  0  0  0  0  # atno 17321 bound_to 7965
  139.9574  143.6202  152.3012 LP  0  0  0  0  0  0  0  0  0  0  0  0  # atno 17342 bound_to 10162
  139.6743  144.7659  151.1726 LP  0  0  0  0  0  0  0  0  0  0  0  0  # atno 17343 bound_to 10162
  156.9011  130.5247  149.5283 LP  0  0  0  0  0  0  0  0  0  0  0  0  # atno 17370 bound_to 10713
  156.0674  130.5714  150.9316 LP  0  0  0  0  0  0  0  0  0  0  0  0  # atno 17371 bound_to 10713
  140.9331  133.7565  156.0050 LP  0  0  0  0  0  0  0  0  0  0  0  0  # atno 17394 bound_to 11000
  140.8307  134.3181  157.5349 LP  0  0  0  0  0  0  0  0  0  0  0  0  # atno 17395 bound_to 11000

$$$$
