AV-unprocessed.smi:1535|AV-procd|sdf|6180|dock9
  -GOLD-   22720 6343D 1   1.00000     0.00000
 Structure written by MMmdl.
 47 48  0  0  0  0  0  0  0  0  2 V2000
  153.5890  142.3725  161.3325 C   0  0  0  0  0  0  0  0  0  0  0  0
  152.8137  142.1876  160.0398 C   0  0  0  0  0  0  0  0  0  0  0  0
  153.0398  141.0293  159.2627 C   0  0  0  0  0  0  0  0  0  0  0  0
  152.3398  140.8196  158.0546 C   0  0  0  0  0  0  0  0  0  0  0  0
  152.4036  139.7755  157.1481 N   0  0  0  0  0  0  0  0  0  0  0  0
  151.5168  140.1579  156.2345 C   0  0  0  0  0  0  0  0  0  0  0  0
  150.8952  141.3364  156.4346 N   0  0  0  0  0  0  0  0  0  0  0  0
  149.9091  141.9637  155.5738 C   0  0  0  0  0  0  0  0  0  0  0  0
  149.1313  140.9399  154.7232 C   0  0  2  0  0  0  0  0  0  0  0  0
  149.4984  141.1273  153.3715 O   0  0  0  0  0  0  0  0  0  0  0  0
  147.5982  141.0749  154.8379 C   0  0  0  0  0  0  0  0  0  0  0  0
  147.1882  142.4896  155.0288 N   0  3  1  0  0  0  0  0  0  0  0  0
  146.2962  142.9709  153.9478 C   0  0  0  0  0  0  0  0  0  0  0  0
  146.6302  142.7636  156.3768 C   0  0  0  0  0  0  0  0  0  0  0  0
  145.7071  141.6321  156.8700 C   0  0  2  0  0  0  0  0  0  0  0  0
  144.3709  141.6281  156.1169 C   0  0  0  0  0  0  0  0  0  0  0  0
  145.4884  141.7164  158.3231 C   0  0  0  0  0  0  0  0  0  0  0  0
  145.3122  141.7830  159.4639 N   0  0  0  0  0  0  0  0  0  0  0  0
  151.4006  141.8092  157.6410 C   0  0  0  0  0  0  0  0  0  0  0  0
  151.1631  142.9633  158.4083 C   0  0  0  0  0  0  0  0  0  0  0  0
  151.8715  143.1573  159.6123 C   0  0  0  0  0  0  0  0  0  0  0  0
  151.6099  144.4080  160.4328 C   0  0  0  0  0  0  0  0  0  0  0  0
  154.2799  141.5467  161.5043 H   0  0  0  0  0  0  0  0  0  0  0  0
  152.9076  142.4207  162.1821 H   0  0  0  0  0  0  0  0  0  0  0  0
  154.1711  143.2938  161.3016 H   0  0  0  0  0  0  0  0  0  0  0  0
  153.7552  140.2889  159.5897 H   0  0  0  0  0  0  0  0  0  0  0  0
  151.3160  139.5514  155.3635 H   0  0  0  0  0  0  0  0  0  0  0  0
  149.2218  142.5394  156.1961 H   0  0  0  0  0  0  0  0  0  0  0  0
  150.4252  142.6791  154.9321 H   0  0  0  0  0  0  0  0  0  0  0  0
  149.4400  139.9364  155.0150 H   0  0  0  0  0  0  0  0  0  0  0  0
  149.2705  140.3490  152.8849 H   0  0  0  0  0  0  0  0  0  0  0  0
  147.0967  140.6862  153.9507 H   0  0  0  0  0  0  0  0  0  0  0  0
  147.2545  140.4499  155.6622 H   0  0  0  0  0  0  0  0  0  0  0  0
  145.3342  142.4572  153.9775 H   0  0  0  0  0  0  0  0  0  0  0  0
  146.7385  142.8057  152.9653 H   0  0  0  0  0  0  0  0  0  0  0  0
  146.1137  144.0413  154.0473 H   0  0  0  0  0  0  0  0  0  0  0  0
  147.4489  142.8675  157.0906 H   0  0  0  0  0  0  0  0  0  0  0  0
  146.1054  143.7202  156.3682 H   0  0  0  0  0  0  0  0  0  0  0  0
  146.1839  140.6680  156.6979 H   0  0  0  0  0  0  0  0  0  0  0  0
  143.7346  140.8105  156.4566 H   0  0  0  0  0  0  0  0  0  0  0  0
  144.5236  141.5043  155.0444 H   0  0  0  0  0  0  0  0  0  0  0  0
  143.8261  142.5598  156.2728 H   0  0  0  0  0  0  0  0  0  0  0  0
  150.4411  143.6938  158.0745 H   0  0  0  0  0  0  0  0  0  0  0  0
  150.8456  145.0342  159.9717 H   0  0  0  0  0  0  0  0  0  0  0  0
  152.5194  145.0022  160.5232 H   0  0  0  0  0  0  0  0  0  0  0  0
  151.2665  144.1446  161.4335 H   0  0  0  0  0  0  0  0  0  0  0  0
  148.0337  143.0397  154.9650 H   0  0  0  0  0  0  0  0  0  0  0  0
  1  2  1  0  0  0  0
  1 23  1  0  0  0  0
  1 24  1  0  0  0  0
  1 25  1  0  0  0  0
  2 21  1  0  0  0  0
  2  3  2  0  0  0  0
  3  4  1  0  0  0  0
  3 26  1  0  0  0  0
  4 19  2  0  0  0  0
  4  5  1  0  0  0  0
  5  6  2  0  0  0  0
  6  7  1  0  0  0  0
  6 27  1  0  0  0  0
  7  8  1  0  0  0  0
  7 19  1  0  0  0  0
  8  9  1  0  0  0  0
  8 28  1  0  0  0  0
  8 29  1  0  0  0  0
  9 10  1  0  0  0  0
  9 11  1  0  0  0  0
  9 30  1  0  0  0  0
 10 31  1  0  0  0  0
 11 12  1  0  0  0  0
 11 32  1  0  0  0  0
 11 33  1  0  0  0  0
 12 13  1  0  0  0  0
 12 14  1  0  0  0  0
 12 47  1  0  0  0  0
 13 34  1  0  0  0  0
 13 35  1  0  0  0  0
 13 36  1  0  0  0  0
 14 15  1  0  0  0  0
 14 37  1  0  0  0  0
 14 38  1  0  0  0  0
 15 16  1  0  0  0  0
 15 17  1  0  0  0  0
 15 39  1  0  0  0  0
 16 40  1  0  0  0  0
 16 41  1  0  0  0  0
 16 42  1  0  0  0  0
 17 18  3  0  0  0  0
 19 20  1  0  0  0  0
 20 21  2  0  0  0  0
 20 43  1  0  0  0  0
 21 22  1  0  0  0  0
 22 44  1  0  0  0  0
 22 45  1  0  0  0  0
 22 46  1  0  0  0  0
M  CHG  1  12   1
M  END
> <s_m_source_file>
AV-unprocessed.smi

> <i_m_source_file_index>
1535

> <i_lp_mmshare_version>
43012

> <i_f3d_flags>
0

> <s_epik_input>
W0NIM11jKFtjSF0xKWMoW0NIM10pW2NIXWMoYzEyKW4oW2NIXW4yKVtDSDJdW0NASF0oW09IXSlbQ0gyXU4oW0NIM10pW0NIMl1bQ0BIXShbQ0gzXSlDI04=

> <s_epik_cmdline>
J2VwaWtfcHl0aG9uJywgJy1waCcsICc3LjAnLCAnLXRuJywgJzgnLCAnLW1hJywgJzIwMCcsICctbWV0YWxfYmluZGluZycsICctaW1hZScsICc8aW5maWxlLm1hZT4nLCAnLW9tYWUnLCAnPG91dGZpbGUubWFlPic=

> <r_epik_Ionization_Penalty>
2.21058

> <r_epik_Ionization_Penalty_Charging>
2.12381

> <r_epik_Ionization_Penalty_Neutral>
0.0867699

> <r_epik_State_Penalty>
2.36208

> <r_epik_Charging_Adjusted_Penalty>
4.48589

> <i_epik_Tot_Q>
1

> <i_epik_Tot_abs_Q>
1

> <r_epik_Metal_State_Penalty>
2.2818

> <b_epik_Metal_Only>
0

> <s_lp_Force_Field>
OPLS_2005

> <r_lp_Energy>
13.2218

> <b_lp_Chiralities_Consistent>
1

> <s_lp_Variant>
AV-unprocessed.smi:1535-11

> <Gold.Version>
5.8.1

> <Gold.Id.Protein>
6NUR|6NUR_protein|mol2

> <Gold.PLP.Fitness>
55.5470

> <Gold.PLP.PLP>
-43.6871

> <Gold.PLP.part.hbond>
-5.9264

> <Gold.PLP.part.metal>
0.0000

> <Gold.PLP.part.buried>
-2.3434

> <Gold.PLP.part.nonpolar>
-34.1851

> <Gold.PLP.part.repulsive>
0.0895

> <Gold.PLP.ligand.clash>
0.0000

> <Gold.PLP.ligand.torsion>
2.4875

> <Gold.PLP.Chemscore.Hbond>
5.5637

> <Gold.PLP.Chemscore.CHOScore>
0.0000

> <Gold.PLP.Chemscore.Metal>
0.0000

> <Gold.Chemscore.Hbonds>
donor molecule, donor type, donor heavy atom, donor atom, acceptor molecule, acceptor atom, score
      L1  H    10    31       P1  7957  0.53
      L1  H    12    47       P1  8028  1.66
      P1  H  6934  6946       L1    18  0.54
      P1  H  7989  7998       L1    10  0.14
      P1  H  7997  8008       L1     5  0.79
      P1  H  8011  8017       L1    10  1.00

> <Gold.PLP.Chemscore.Internal.Correction>
0.1437

> <Gold.Rescore>
     Score         DG    S(hbond)    S(metal)    S(lipo)     H(rot)  DE(clash)    DE(int)     intcor
     18.93     -21.65       3.06        0.00     107.75       2.60       0.12       2.60       ----

> <Gold.Chemscore.Fitness>
18.9271

> <Gold.Chemscore.DG>
-21.6470

> <Gold.Chemscore.ZeroCoef>
-5.4800

> <Gold.Chemscore.Hbond>
3.0610

> <Gold.Chemscore.Metal>
0.0000

> <Gold.Chemscore.Lipo>
107.7546

> <Gold.Chemscore.Internal_Hbond>
0.0000

> <Gold.Chemscore.DEClash>
0.1209

> <Gold.Chemscore.DEInternal>
2.5990

> <Gold.Chemscore.Rot>
2.6031

> <Gold.Chemscore.Internal.Correction>
   9.000000E+99

> <Gold.Chemscore.Hbonds>
donor molecule, donor type, donor heavy atom, donor atom, acceptor molecule, acceptor atom, score
      L1  H    10    31       P1  7957  0.52
      L1  H    12    47       P1  8028  0.74
      P1  H  6934  6946       L1    18  0.46
      P1  H  7989  7998       L1    10  0.01
      P1  H  7997  8008       L1     5  0.11
      P1  H  8011  8017       L1    10  0.77

> <Gold.Chemscore.Hbond.Weighted>
-10.2237

> <Gold.Chemscore.Metal.Weighted>
-0.0000

> <Gold.Chemscore.Lipo.Weighted>
-12.6073

> <Gold.Chemscore.Internal_Hbond.Weighted>
0.0000

> <Gold.Chemscore.DEClash.Weighted>
0.1209

> <Gold.Chemscore.DEInternal.Weighted>
2.5990

> <Gold.Chemscore.Rot.Weighted>
6.6640

> <Gold.Chemscore.Internal.Correction.Weighted>
   9.000000E+99

> <Gold.Protein.RotatedTorsions>
[ 6907 6896 6895 6894 ] final   75.43 input  -60.11 | X-H torsion
[ 7974 7965 7964 7962 ] final   28.91 input  175.53 | X-H torsion
[ 8008 7997 7996 7995 ] final  -48.70 input   59.86 | X-H torsion
[ 10167 10162 10161 10158 ] final -140.58 input  -65.29 | X-H torsion
[ 10718 10713 10712 10709 ] final  -57.83 input   66.30 | X-H torsion
[ 10763 10752 10751 10750 ] final  145.52 input  -60.55 | X-H torsion
[ 11005 11000 10999 10996 ] final  179.68 input  -57.11 | X-H torsion

> <Gold.Protein.ActiveResidues>
 VAL166  LYS551  ARG553  GLY616  TRP617  ASP618  TYR619  PRO620  LYS621  CYS622 
 ASP623  PHE694  ASN695  SER759  ASP760  ASP761  ALA762  ILE779  LEU786  VAL792 
 PHE793  MET794  SER795  GLU796  ALA797  LYS798  CYS799  TRP800  GLU811  SER814 

> <Gold.Protein.RotatedAtoms>
  152.5025  134.4122  159.9452 H   0  0  0  0  0  0  0  0  0  0  0  0  # atno 6907 bound_to 6896
  151.4091  133.3727  159.2749 H   0  0  0  0  0  0  0  0  0  0  0  0  # atno 6908 bound_to 6896
  150.9305  134.8742  159.7607 H   0  0  0  0  0  0  0  0  0  0  0  0  # atno 6909 bound_to 6896
  146.1702  139.6992  142.8973 H   0  0  0  0  0  0  0  0  0  0  0  0  # atno 7974 bound_to 7965
  154.4033  140.1315  156.4382 H   0  0  0  0  0  0  0  0  0  0  0  0  # atno 8008 bound_to 7997
  155.7484  140.3488  155.5118 H   0  0  0  0  0  0  0  0  0  0  0  0  # atno 8009 bound_to 7997
  155.8972  140.1013  157.1366 H   0  0  0  0  0  0  0  0  0  0  0  0  # atno 8010 bound_to 7997
  139.8268  143.7500  152.2666 H   0  0  0  0  0  0  0  0  0  0  0  0  # atno 10167 bound_to 10162
  156.1181  130.4168  150.0494 H   0  0  0  0  0  0  0  0  0  0  0  0  # atno 10718 bound_to 10713
  154.0068  135.2918  155.3397 H   0  0  0  0  0  0  0  0  0  0  0  0  # atno 10763 bound_to 10752
  154.7127  135.5142  153.8694 H   0  0  0  0  0  0  0  0  0  0  0  0  # atno 10764 bound_to 10752
  153.0741  135.6657  154.0303 H   0  0  0  0  0  0  0  0  0  0  0  0  # atno 10765 bound_to 10752
  140.4088  134.6710  157.4603 H   0  0  0  0  0  0  0  0  0  0  0  0  # atno 11005 bound_to 11000
  145.4361  141.0419  143.2883 LP  0  0  0  0  0  0  0  0  0  0  0  0  # atno 17320 bound_to 7965
  144.8151  139.5891  143.7012 LP  0  0  0  0  0  0  0  0  0  0  0  0  # atno 17321 bound_to 7965
  139.7695  144.7481  151.0245 LP  0  0  0  0  0  0  0  0  0  0  0  0  # atno 17342 bound_to 10162
  140.7809  143.4661  151.0211 LP  0  0  0  0  0  0  0  0  0  0  0  0  # atno 17343 bound_to 10162
  156.8439  130.9435  151.3630 LP  0  0  0  0  0  0  0  0  0  0  0  0  # atno 17370 bound_to 10713
  157.6364  130.8770  149.9367 LP  0  0  0  0  0  0  0  0  0  0  0  0  # atno 17371 bound_to 10713
  140.0282  134.6445  155.9143 LP  0  0  0  0  0  0  0  0  0  0  0  0  # atno 17394 bound_to 11000
  141.1829  133.6550  156.5094 LP  0  0  0  0  0  0  0  0  0  0  0  0  # atno 17395 bound_to 11000

$$$$
