AV-unprocessed.smi:422|AV-procd|sdf|2536|dock1
  -GOLD-   2262022493D 1   1.00000     0.00000
 Structure written by MMmdl.
 43 45  0  0  0  0  0  0  0  0  1 V2000
  153.8022  141.2483  161.5884 C   0  0  0  0  0  0  0  0  0  0  0  0
  153.1468  141.1266  160.2919 N   0  0  0  0  0  0  0  0  0  0  0  0
  152.9407  139.9891  159.5875 C   0  0  0  0  0  0  0  0  0  0  0  0
  153.2693  138.8534  159.9301 O   0  0  0  0  0  0  0  0  0  0  0  0
  152.2918  140.3160  158.4456 N   0  0  0  0  0  0  0  0  0  0  0  0
  151.8496  139.3926  157.4044 C   0  0  0  0  0  0  0  0  0  0  0  0
  151.5065  138.0056  157.9906 C   0  0  2  0  0  0  0  0  0  0  0  0
  151.0246  137.1779  156.9519 O   0  0  0  0  0  0  0  0  0  0  0  0
  150.4144  138.0830  159.0677 C   0  0  0  0  0  0  0  0  0  0  0  0
  150.1711  136.7713  159.5471 O   0  0  0  0  0  0  0  0  0  0  0  0
  148.8957  136.2697  159.1901 C   0  0  0  0  0  0  0  0  0  0  0  0
  148.2508  135.5441  160.3547 C   0  0  0  0  0  0  0  0  0  0  0  0
  147.9313  136.2425  161.5384 C   0  0  0  0  0  0  0  0  0  0  0  0
  147.3271  135.5678  162.6173 C   0  0  0  0  0  0  0  0  0  0  0  0
  147.0422  134.1924  162.5179 C   0  0  0  0  0  0  0  0  0  0  0  0
  147.3636  133.4911  161.3399 C   0  0  0  0  0  0  0  0  0  0  0  0
  147.9685  134.1638  160.2603 C   0  0  0  0  0  0  0  0  0  0  0  0
  148.2765  133.4787  159.1328 F   0  0  0  0  0  0  0  0  0  0  0  0
  152.0499  141.6974  158.4325 C   0  0  0  0  0  0  0  0  0  0  0  0
  151.3944  142.5154  157.4957 C   0  0  0  0  0  0  0  0  0  0  0  0
  151.3125  143.8966  157.7886 C   0  0  0  0  0  0  0  0  0  0  0  0
  151.8723  144.4209  158.9830 C   0  0  0  0  0  0  0  0  0  0  0  0
  152.5243  143.5744  159.9105 C   0  0  0  0  0  0  0  0  0  0  0  0
  152.5908  142.2067  159.5940 C   0  0  0  0  0  0  0  0  0  0  0  0
  154.3209  140.3313  161.8719 H   0  0  0  0  0  0  0  0  0  0  0  0
  153.0665  141.4751  162.3603 H   0  0  0  0  0  0  0  0  0  0  0  0
  154.5368  142.0538  161.5682 H   0  0  0  0  0  0  0  0  0  0  0  0
  150.9728  139.8299  156.9255 H   0  0  0  0  0  0  0  0  0  0  0  0
  152.5961  139.3187  156.6114 H   0  0  0  0  0  0  0  0  0  0  0  0
  152.3902  137.5326  158.4220 H   0  0  0  0  0  0  0  0  0  0  0  0
  151.5384  137.3418  156.1755 H   0  0  0  0  0  0  0  0  0  0  0  0
  150.7237  138.7425  159.8803 H   0  0  0  0  0  0  0  0  0  0  0  0
  149.4922  138.4872  158.6465 H   0  0  0  0  0  0  0  0  0  0  0  0
  148.2419  137.0892  158.8880 H   0  0  0  0  0  0  0  0  0  0  0  0
  148.9875  135.5982  158.3352 H   0  0  0  0  0  0  0  0  0  0  0  0
  148.1450  137.2980  161.6230 H   0  0  0  0  0  0  0  0  0  0  0  0
  147.0819  136.1059  163.5212 H   0  0  0  0  0  0  0  0  0  0  0  0
  146.5787  133.6752  163.3449 H   0  0  0  0  0  0  0  0  0  0  0  0
  147.1466  132.4358  161.2644 H   0  0  0  0  0  0  0  0  0  0  0  0
  150.9674  142.1123  156.5903 H   0  0  0  0  0  0  0  0  0  0  0  0
  150.8167  144.5596  157.0947 H   0  0  0  0  0  0  0  0  0  0  0  0
  151.7978  145.4785  159.1874 H   0  0  0  0  0  0  0  0  0  0  0  0
  152.9495  143.9652  160.8230 H   0  0  0  0  0  0  0  0  0  0  0  0
  1  2  1  0  0  0  0
  1 25  1  0  0  0  0
  1 26  1  0  0  0  0
  1 27  1  0  0  0  0
  2 24  1  0  0  0  0
  2  3  1  0  0  0  0
  3  4  2  0  0  0  0
  3  5  1  0  0  0  0
  5  6  1  0  0  0  0
  5 19  1  0  0  0  0
  6  7  1  0  0  0  0
  6 28  1  0  0  0  0
  6 29  1  0  0  0  0
  7  8  1  0  0  0  0
  7  9  1  0  0  0  0
  7 30  1  0  0  0  0
  8 31  1  0  0  0  0
  9 10  1  0  0  0  0
  9 32  1  0  0  0  0
  9 33  1  0  0  0  0
 10 11  1  0  0  0  0
 11 12  1  0  0  0  0
 11 34  1  0  0  0  0
 11 35  1  0  0  0  0
 12 17  1  0  0  0  0
 12 13  2  0  0  0  0
 13 14  1  0  0  0  0
 13 36  1  0  0  0  0
 14 15  2  0  0  0  0
 14 37  1  0  0  0  0
 15 16  1  0  0  0  0
 15 38  1  0  0  0  0
 16 17  2  0  0  0  0
 16 39  1  0  0  0  0
 17 18  1  0  0  0  0
 19 24  2  0  0  0  0
 19 20  1  0  0  0  0
 20 21  2  0  0  0  0
 20 40  1  0  0  0  0
 21 22  1  0  0  0  0
 21 41  1  0  0  0  0
 22 23  2  0  0  0  0
 22 42  1  0  0  0  0
 23 24  1  0  0  0  0
 23 43  1  0  0  0  0
M  END
> <s_m_source_file>
AV-unprocessed.smi

> <i_m_source_file_index>
422

> <i_lp_mmshare_version>
43012

> <i_f3d_flags>
0

> <s_epik_input>
W2NIXTFbY0hdW2NIXVtjSF1jKGMxMiluKFtDSDNdKWMoPU8pbjJbQ0gyXVtDQEhdKFtPSF0pW0NIMl1PW0NIMl1jM1tjSF1bY0hdW2NIXVtjSF1jM0Y=

> <s_epik_cmdline>
J2VwaWtfcHl0aG9uJywgJy1waCcsICc3LjAnLCAnLXRuJywgJzgnLCAnLW1hJywgJzIwMCcsICctbWV0YWxfYmluZGluZycsICctaW1hZScsICc8aW5maWxlLm1hZT4nLCAnLW9tYWUnLCAnPG91dGZpbGUubWFlPic=

> <r_lp_tautomer_probability>
1

> <r_epik_Ionization_Penalty>
1.0795e-06

> <r_epik_Ionization_Penalty_Charging>
2.82452e-09

> <r_epik_Ionization_Penalty_Neutral>
1.07667e-06

> <r_epik_State_Penalty>
-0

> <r_epik_Charging_Adjusted_Penalty>
2.82452e-09

> <i_epik_Tot_Q>
0

> <i_epik_Tot_abs_Q>
0

> <r_epik_Metal_State_Penalty>
-0

> <b_epik_Metal_Only>
0

> <s_lp_Force_Field>
OPLS_2005

> <r_lp_Energy>
45.4687

> <b_lp_Chiralities_Consistent>
1

> <s_lp_Variant>
AV-unprocessed.smi:422-1

> <Gold.Version>
5.8.1

> <Gold.Id.Protein>
6NUR|6NUR_protein|mol2

> <Gold.PLP.Fitness>
55.4299

> <Gold.PLP.PLP>
-54.3453

> <Gold.PLP.part.hbond>
-1.0000

> <Gold.PLP.part.metal>
0.0000

> <Gold.PLP.part.buried>
-5.5699

> <Gold.PLP.part.nonpolar>
-47.6224

> <Gold.PLP.part.repulsive>
0.0000

> <Gold.PLP.ligand.clash>
0.0000

> <Gold.PLP.ligand.torsion>
1.0409

> <Gold.PLP.Chemscore.Hbond>
1.0000

> <Gold.PLP.Chemscore.CHOScore>
0.0000

> <Gold.PLP.Chemscore.Metal>
0.0000

> <Gold.Chemscore.Hbonds>
donor molecule, donor type, donor heavy atom, donor atom, acceptor molecule, acceptor atom, score
      P1  H  6896  6909       L1    10  0.90

> <Gold.PLP.Chemscore.Internal.Correction>
0.1664

> <Gold.Rescore>
     Score         DG    S(hbond)    S(metal)    S(lipo)     H(rot)  DE(clash)    DE(int)     intcor
     16.20     -18.63       0.86        0.00     139.85       2.38       0.06       2.38       ----

> <Gold.Chemscore.Fitness>
16.1950

> <Gold.Chemscore.DG>
-18.6342

> <Gold.Chemscore.ZeroCoef>
-5.4800

> <Gold.Chemscore.Hbond>
0.8644

> <Gold.Chemscore.Metal>
0.0000

> <Gold.Chemscore.Lipo>
139.8464

> <Gold.Chemscore.Internal_Hbond>
0.0000

> <Gold.Chemscore.DEClash>
0.0621

> <Gold.Chemscore.DEInternal>
2.3771

> <Gold.Chemscore.Rot>
2.3809

> <Gold.Chemscore.Internal.Correction>
   9.000000E+99

> <Gold.Chemscore.Hbonds>
donor molecule, donor type, donor heavy atom, donor atom, acceptor molecule, acceptor atom, score
      P1  H  6896  6909       L1    10  0.18

> <Gold.Chemscore.Hbond.Weighted>
-2.8872

> <Gold.Chemscore.Metal.Weighted>
-0.0000

> <Gold.Chemscore.Lipo.Weighted>
-16.3620

> <Gold.Chemscore.Internal_Hbond.Weighted>
0.0000

> <Gold.Chemscore.DEClash.Weighted>
0.0621

> <Gold.Chemscore.DEInternal.Weighted>
2.3771

> <Gold.Chemscore.Rot.Weighted>
6.0951

> <Gold.Chemscore.Internal.Correction.Weighted>
   9.000000E+99

> <Gold.Protein.RotatedTorsions>
[ 6907 6896 6895 6894 ] final   87.93 input  -60.11 | X-H torsion
[ 7974 7965 7964 7962 ] final   42.83 input  175.53 | X-H torsion
[ 8008 7997 7996 7995 ] final  -12.74 input   59.86 | X-H torsion
[ 10167 10162 10161 10158 ] final   33.67 input  -65.29 | X-H torsion
[ 10718 10713 10712 10709 ] final -111.56 input   66.30 | X-H torsion
[ 10763 10752 10751 10750 ] final   19.18 input  -60.55 | X-H torsion
[ 11005 11000 10999 10996 ] final  170.64 input  -57.11 | X-H torsion

> <Gold.Protein.ActiveResidues>
 VAL166  LYS551  ARG553  GLY616  TRP617  ASP618  TYR619  PRO620  LYS621  CYS622 
 ASP623  PHE694  ASN695  SER759  ASP760  ASP761  ALA762  ILE779  LEU786  VAL792 
 PHE793  MET794  SER795  GLU796  ALA797  LYS798  CYS799  TRP800  GLU811  SER814 

> <Gold.Protein.RotatedAtoms>
  152.5418  134.2199  159.8783 H   0  0  0  0  0  0  0  0  0  0  0  0  # atno 6907 bound_to 6896
  151.2177  133.4513  159.2607 H   0  0  0  0  0  0  0  0  0  0  0  0  # atno 6908 bound_to 6896
  151.0836  134.9886  159.8424 H   0  0  0  0  0  0  0  0  0  0  0  0  # atno 6909 bound_to 6896
  146.0707  139.5255  142.9599 H   0  0  0  0  0  0  0  0  0  0  0  0  # atno 7974 bound_to 7965
  154.5351  140.2268  155.8736 H   0  0  0  0  0  0  0  0  0  0  0  0  # atno 8008 bound_to 7997
  156.1803  140.3101  155.9100 H   0  0  0  0  0  0  0  0  0  0  0  0  # atno 8009 bound_to 7997
  155.3371  140.0448  157.3034 H   0  0  0  0  0  0  0  0  0  0  0  0  # atno 8010 bound_to 7997
  140.4386  144.1220  150.6170 H   0  0  0  0  0  0  0  0  0  0  0  0  # atno 10167 bound_to 10162
  156.0654  130.5874  150.8390 H   0  0  0  0  0  0  0  0  0  0  0  0  # atno 10718 bound_to 10713
  153.1185  135.6713  153.9377 H   0  0  0  0  0  0  0  0  0  0  0  0  # atno 10763 bound_to 10752
  153.8899  135.3048  155.3448 H   0  0  0  0  0  0  0  0  0  0  0  0  # atno 10764 bound_to 10752
  154.7599  135.4993  153.9523 H   0  0  0  0  0  0  0  0  0  0  0  0  # atno 10765 bound_to 10752
  140.3105  134.7521  157.3987 H   0  0  0  0  0  0  0  0  0  0  0  0  # atno 11005 bound_to 11000
  145.6396  141.0287  143.1819 LP  0  0  0  0  0  0  0  0  0  0  0  0  # atno 17320 bound_to 7965
  144.7230  139.7968  143.7375 LP  0  0  0  0  0  0  0  0  0  0  0  0  # atno 17321 bound_to 7965
  140.4344  143.2554  151.9554 LP  0  0  0  0  0  0  0  0  0  0  0  0  # atno 17342 bound_to 10162
  139.4788  144.5713  151.8083 LP  0  0  0  0  0  0  0  0  0  0  0  0  # atno 17343 bound_to 10162
  157.5692  131.0946  150.9443 LP  0  0  0  0  0  0  0  0  0  0  0  0  # atno 17370 bound_to 10713
  156.9663  130.5474  149.5288 LP  0  0  0  0  0  0  0  0  0  0  0  0  # atno 17371 bound_to 10713
  140.1029  134.5448  155.8336 LP  0  0  0  0  0  0  0  0  0  0  0  0  # atno 17394 bound_to 11000
  141.2109  133.6700  156.6544 LP  0  0  0  0  0  0  0  0  0  0  0  0  # atno 17395 bound_to 11000

$$$$
