AV-unprocessed.smi:1920|AV-procd|sdf|7783|dock6
  -GOLD-   22720 9523D 1   1.00000     0.00000
 Structure written by MMmdl.
 36 37  0  0  0  0  0  0  0  0  1 V2000
  150.8266  139.2225  155.0086 C   0  0  0  0  0  0  0  0  0  0  0  0
  150.3376  140.2711  156.0255 C   0  0  2  0  0  0  0  0  0  0  0  0
  149.8427  141.5717  155.3620 C   0  0  0  0  0  0  0  0  0  0  0  0
  148.5385  141.4263  154.7430 N   0  0  0  0  0  0  0  0  0  0  0  0
  148.1711  140.5004  153.7755 C   0  0  0  0  0  0  0  0  0  0  0  0
  146.8441  140.7331  153.4928 C   0  0  0  0  0  0  0  0  0  0  0  0
  146.3764  141.7878  154.2731 N   0  0  0  0  0  0  0  0  0  0  0  0
  147.4345  142.1448  154.9897 C   0  0  0  0  0  0  0  0  0  0  0  0
  151.4035  140.5950  156.9694 N   0  0  0  0  0  0  0  0  0  0  0  0
  151.3774  141.5987  157.8601 C   0  0  0  0  0  0  0  0  0  0  0  0
  150.4300  142.3758  157.9775 O   0  0  0  0  0  0  0  0  0  0  0  0
  152.6110  141.7482  158.7567 C   0  0  0  0  0  0  0  0  0  0  0  0
  152.8355  143.1904  159.2614 C   0  0  1  0  0  0  0  0  0  0  0  0
  152.4272  144.2502  158.2664 C   0  0  0  0  0  0  0  0  0  0  0  0
  151.5749  145.1351  158.7782 C   0  0  0  0  0  0  0  0  0  0  0  0
  151.2401  144.8478  160.2153 C   0  0  0  0  0  0  0  0  0  0  0  0
  151.9943  143.5336  160.5177 C   0  0  0  0  0  0  0  0  0  0  0  0
  150.0267  138.9159  154.3345 H   0  0  0  0  0  0  0  0  0  0  0  0
  151.1846  138.3223  155.5094 H   0  0  0  0  0  0  0  0  0  0  0  0
  151.6441  139.6119  154.4012 H   0  0  0  0  0  0  0  0  0  0  0  0
  149.5017  139.8422  156.5816 H   0  0  0  0  0  0  0  0  0  0  0  0
  149.7777  142.3721  156.1006 H   0  0  0  0  0  0  0  0  0  0  0  0
  150.5520  141.9046  154.6025 H   0  0  0  0  0  0  0  0  0  0  0  0
  148.8657  139.7748  153.3780 H   0  0  0  0  0  0  0  0  0  0  0  0
  146.1947  140.2254  152.7949 H   0  0  0  0  0  0  0  0  0  0  0  0
  147.4066  142.9509  155.7082 H   0  0  0  0  0  0  0  0  0  0  0  0
  152.2248  140.0081  156.9458 H   0  0  0  0  0  0  0  0  0  0  0  0
  152.5290  141.0698  159.6077 H   0  0  0  0  0  0  0  0  0  0  0  0
  153.4813  141.4215  158.1866 H   0  0  0  0  0  0  0  0  0  0  0  0
  153.8927  143.3426  159.4848 H   0  0  0  0  0  0  0  0  0  0  0  0
  152.8128  144.2755  157.2574 H   0  0  0  0  0  0  0  0  0  0  0  0
  151.1630  145.9816  158.2491 H   0  0  0  0  0  0  0  0  0  0  0  0
  151.5856  145.6658  160.8480 H   0  0  0  0  0  0  0  0  0  0  0  0
  150.1630  144.7367  160.3438 H   0  0  0  0  0  0  0  0  0  0  0  0
  151.2773  142.7413  160.7370 H   0  0  0  0  0  0  0  0  0  0  0  0
  152.6291  143.6382  161.3982 H   0  0  0  0  0  0  0  0  0  0  0  0
  1  2  1  0  0  0  0
  1 18  1  0  0  0  0
  1 19  1  0  0  0  0
  1 20  1  0  0  0  0
  2  3  1  0  0  0  0
  2  9  1  0  0  0  0
  2 21  1  0  0  0  0
  3  4  1  0  0  0  0
  3 22  1  0  0  0  0
  3 23  1  0  0  0  0
  4  8  1  0  0  0  0
  4  5  1  0  0  0  0
  5  6  2  0  0  0  0
  5 24  1  0  0  0  0
  6  7  1  0  0  0  0
  6 25  1  0  0  0  0
  7  8  2  0  0  0  0
  8 26  1  0  0  0  0
  9 10  1  0  0  0  0
  9 27  1  0  0  0  0
 10 11  2  0  0  0  0
 10 12  1  0  0  0  0
 12 13  1  0  0  0  0
 12 28  1  0  0  0  0
 12 29  1  0  0  0  0
 13 17  1  0  0  0  0
 13 14  1  0  0  0  0
 13 30  1  0  0  0  0
 14 15  2  0  0  0  0
 14 31  1  0  0  0  0
 15 16  1  0  0  0  0
 15 32  1  0  0  0  0
 16 17  1  0  0  0  0
 16 33  1  0  0  0  0
 16 34  1  0  0  0  0
 17 35  1  0  0  0  0
 17 36  1  0  0  0  0
M  END
> <s_m_source_file>
AV-unprocessed.smi

> <i_m_source_file_index>
1920

> <i_lp_mmshare_version>
43012

> <i_f3d_flags>
0

> <s_epik_input>
W2NIXTFuW2NIXVtjSF1uMVtDSDJdW0NAQEhdKFtDSDNdKVtOSF1DKD1PKVtDSDJdW0NAQEhdMltDSF09W0NIXVtDSDJdW0NIMl0y

> <s_epik_cmdline>
J2VwaWtfcHl0aG9uJywgJy1waCcsICc3LjAnLCAnLXRuJywgJzgnLCAnLW1hJywgJzIwMCcsICctbWV0YWxfYmluZGluZycsICctaW1hZScsICc8aW5maWxlLm1hZT4nLCAnLW9tYWUnLCAnPG91dGZpbGUubWFlPic=

> <r_lp_tautomer_probability>
1

> <r_epik_Ionization_Penalty>
0.635367

> <r_epik_Ionization_Penalty_Charging>
0.635367

> <r_epik_Ionization_Penalty_Neutral>
2.1249e-08

> <r_epik_State_Penalty>
0.65258

> <r_epik_Charging_Adjusted_Penalty>
1.28795

> <i_epik_Tot_Q>
0

> <i_epik_Tot_abs_Q>
0

> <r_epik_Metal_State_Penalty>
0.310403

> <b_epik_Metal_Only>
0

> <s_lp_Force_Field>
OPLS_2005

> <r_lp_Energy>
18.7511

> <b_lp_Chiralities_Consistent>
1

> <s_lp_Variant>
AV-unprocessed.smi:1920-7

> <Gold.Version>
5.8.1

> <Gold.Id.Protein>
6NUR|6NUR_protein|mol2

> <Gold.PLP.Fitness>
45.2740

> <Gold.PLP.PLP>
-39.2399

> <Gold.PLP.part.hbond>
0.0000

> <Gold.PLP.part.metal>
0.0000

> <Gold.PLP.part.buried>
-2.1639

> <Gold.PLP.part.nonpolar>
-38.4449

> <Gold.PLP.part.repulsive>
0.3785

> <Gold.PLP.ligand.clash>
0.0000

> <Gold.PLP.ligand.torsion>
0.9135

> <Gold.PLP.Chemscore.Hbond>
0.0000

> <Gold.PLP.Chemscore.CHOScore>
2.6024

> <Gold.PLP.Chemscore.Metal>
0.0000

> <Gold.Chemscore.Hbonds>
donor molecule, donor type, donor heavy atom, donor atom, acceptor molecule, acceptor atom, score
      L1  C     5    24       P1  7957  0.77
      L1  C     6    25       P1 10175  0.96
      L1  C     8    26       P1  8028  0.78

> <Gold.PLP.Chemscore.Internal.Correction>
0.0539

> <Gold.Rescore>
     Score         DG    S(hbond)    S(metal)    S(lipo)     H(rot)  DE(clash)    DE(int)     intcor
      8.32     -12.87       0.00        0.00     105.44       1.93       0.38       4.17       ----

> <Gold.Chemscore.Fitness>
8.3189

> <Gold.Chemscore.DG>
-12.8735

> <Gold.Chemscore.ZeroCoef>
-5.4800

> <Gold.Chemscore.Hbond>
0.0000

> <Gold.Chemscore.Metal>
0.0000

> <Gold.Chemscore.Lipo>
105.4355

> <Gold.Chemscore.Internal_Hbond>
0.0000

> <Gold.Chemscore.DEClash>
0.3809

> <Gold.Chemscore.DEInternal>
4.1738

> <Gold.Chemscore.Rot>
1.9306

> <Gold.Chemscore.Internal.Correction>
   9.000000E+99

> <Gold.Chemscore.Hbond.Weighted>
-0.0000

> <Gold.Chemscore.Metal.Weighted>
-0.0000

> <Gold.Chemscore.Lipo.Weighted>
-12.3360

> <Gold.Chemscore.Internal_Hbond.Weighted>
0.0000

> <Gold.Chemscore.DEClash.Weighted>
0.3809

> <Gold.Chemscore.DEInternal.Weighted>
4.1738

> <Gold.Chemscore.Rot.Weighted>
4.9424

> <Gold.Chemscore.Internal.Correction.Weighted>
   9.000000E+99

> <Gold.Protein.RotatedTorsions>
[ 6907 6896 6895 6894 ] final   46.95 input  -60.11 | X-H torsion
[ 7974 7965 7964 7962 ] final  128.48 input  175.53 | X-H torsion
[ 8008 7997 7996 7995 ] final   -5.49 input   59.86 | X-H torsion
[ 10167 10162 10161 10158 ] final   68.45 input  -65.29 | X-H torsion
[ 10718 10713 10712 10709 ] final   97.00 input   66.30 | X-H torsion
[ 10763 10752 10751 10750 ] final -122.75 input  -60.55 | X-H torsion
[ 11005 11000 10999 10996 ] final -160.23 input  -57.11 | X-H torsion

> <Gold.Protein.ActiveResidues>
 VAL166  LYS551  ARG553  GLY616  TRP617  ASP618  TYR619  PRO620  LYS621  CYS622 
 ASP623  PHE694  ASN695  SER759  ASP760  ASP761  ALA762  ILE779  LEU786  VAL792 
 PHE793  MET794  SER795  GLU796  ALA797  LYS798  CYS799  TRP800  GLU811  SER814 

> <Gold.Protein.RotatedAtoms>
  152.2624  134.8020  160.0428 H   0  0  0  0  0  0  0  0  0  0  0  0  # atno 6907 bound_to 6896
  151.8662  133.3461  159.3728 H   0  0  0  0  0  0  0  0  0  0  0  0  # atno 6908 bound_to 6896
  150.7121  134.5085  159.5640 H   0  0  0  0  0  0  0  0  0  0  0  0  # atno 6909 bound_to 6896
  145.0391  139.3978  143.5111 H   0  0  0  0  0  0  0  0  0  0  0  0  # atno 7974 bound_to 7965
  154.6034  140.2457  155.7762 H   0  0  0  0  0  0  0  0  0  0  0  0  # atno 8008 bound_to 7997
  156.2325  140.2961  156.0178 H   0  0  0  0  0  0  0  0  0  0  0  0  # atno 8009 bound_to 7997
  155.2173  140.0399  157.2933 H   0  0  0  0  0  0  0  0  0  0  0  0  # atno 8010 bound_to 7997
  140.0785  144.5091  150.7178 H   0  0  0  0  0  0  0  0  0  0  0  0  # atno 10167 bound_to 10162
  157.6919  131.0596  150.4577 H   0  0  0  0  0  0  0  0  0  0  0  0  # atno 10718 bound_to 10713
  154.8695  135.4122  154.2832 H   0  0  0  0  0  0  0  0  0  0  0  0  # atno 10763 bound_to 10752
  153.3721  135.7008  153.6635 H   0  0  0  0  0  0  0  0  0  0  0  0  # atno 10764 bound_to 10752
  153.5493  135.3632  155.2724 H   0  0  0  0  0  0  0  0  0  0  0  0  # atno 10765 bound_to 10752
  140.6338  134.4623  157.5231 H   0  0  0  0  0  0  0  0  0  0  0  0  # atno 11005 bound_to 11000
  146.3507  139.9983  142.8678 LP  0  0  0  0  0  0  0  0  0  0  0  0  # atno 17320 bound_to 7965
  145.1670  140.9702  143.4343 LP  0  0  0  0  0  0  0  0  0  0  0  0  # atno 17321 bound_to 7965
  140.7090  143.2490  151.4640 LP  0  0  0  0  0  0  0  0  0  0  0  0  # atno 17342 bound_to 10162
  139.5793  144.1745  152.1947 LP  0  0  0  0  0  0  0  0  0  0  0  0  # atno 17343 bound_to 10162
  156.4923  130.4098  149.6399 LP  0  0  0  0  0  0  0  0  0  0  0  0  # atno 17370 bound_to 10713
  156.3405  130.7379  151.2324 LP  0  0  0  0  0  0  0  0  0  0  0  0  # atno 17371 bound_to 10713
  139.9106  134.8354  156.1543 LP  0  0  0  0  0  0  0  0  0  0  0  0  # atno 17394 bound_to 11000
  141.0656  133.6821  156.2038 LP  0  0  0  0  0  0  0  0  0  0  0  0  # atno 17395 bound_to 11000

$$$$
