AV-unprocessed.smi:2966|AV-procd|sdf|11325|dock3
  -GOLD-   2272016233D 1   1.00000     0.00000
 Structure written by MMmdl.
 41 43  0  0  0  0  0  0  0  0  2 V2000
  154.3470  138.3606  159.2373 C   0  0  0  0  0  0  0  0  0  0  0  0
  152.9971  138.3671  159.6664 O   0  0  0  0  0  0  0  0  0  0  0  0
  152.3714  139.6254  159.4751 C   0  0  0  0  0  0  0  0  0  0  0  0
  152.4256  140.0166  157.9921 C   0  0  0  0  0  0  0  0  0  0  0  0
  151.6832  141.2548  157.7143 N   0  0  0  0  0  0  0  0  0  0  0  0
  150.7780  141.5360  156.7373 C   0  0  0  0  0  0  0  0  0  0  0  0
  150.2344  140.4395  155.4693 S   0  0  0  0  0  0  0  0  0  0  0  0
  149.1469  141.4583  154.4338 C   0  0  0  0  0  0  0  0  0  0  0  0
  147.8255  140.7610  154.1146 C   0  0  0  0  0  0  0  0  0  0  0  0
  146.9999  140.5726  155.0077 O   0  0  0  0  0  0  0  0  0  0  0  0
  147.6321  140.4091  152.8350 N   0  0  0  0  0  0  0  0  0  0  0  0
  146.4548  139.7957  152.3128 C   0  0  0  0  0  0  0  0  0  0  0  0
  146.0906  138.4213  152.8303 C   0  0  0  0  0  0  0  0  0  0  0  0
  146.6305  138.5754  151.4352 C   0  0  0  0  0  0  0  0  0  0  0  0
  150.3855  142.8296  156.8913 N   0  3  0  0  0  0  0  0  0  0  0  0
  151.0400  143.3842  157.9924 C   0  0  0  0  0  0  0  0  0  0  0  0
  150.9672  144.6582  158.5472 C   0  0  0  0  0  0  0  0  0  0  0  0
  151.7708  144.9019  159.6803 C   0  0  0  0  0  0  0  0  0  0  0  0
  152.6039  143.9000  160.2191 C   0  0  0  0  0  0  0  0  0  0  0  0
  152.6708  142.6124  159.6475 C   0  0  0  0  0  0  0  0  0  0  0  0
  151.8742  142.3788  158.5268 C   0  0  0  0  0  0  0  0  0  0  0  0
  154.7789  137.3735  159.4018 H   0  0  0  0  0  0  0  0  0  0  0  0
  154.9413  139.0860  159.7944 H   0  0  0  0  0  0  0  0  0  0  0  0
  154.4236  138.5879  158.1732 H   0  0  0  0  0  0  0  0  0  0  0  0
  151.3328  139.5807  159.8061 H   0  0  0  0  0  0  0  0  0  0  0  0
  152.8728  140.3858  160.0761 H   0  0  0  0  0  0  0  0  0  0  0  0
  153.4549  140.1289  157.6518 H   0  0  0  0  0  0  0  0  0  0  0  0
  151.9888  139.2252  157.3833 H   0  0  0  0  0  0  0  0  0  0  0  0
  148.9494  142.4023  154.9425 H   0  0  0  0  0  0  0  0  0  0  0  0
  149.6677  141.6978  153.5060 H   0  0  0  0  0  0  0  0  0  0  0  0
  148.3702  140.6078  152.1750 H   0  0  0  0  0  0  0  0  0  0  0  0
  145.6185  140.4478  152.0641 H   0  0  0  0  0  0  0  0  0  0  0  0
  146.7434  137.9668  153.5732 H   0  0  0  0  0  0  0  0  0  0  0  0
  145.0328  138.1890  152.9364 H   0  0  0  0  0  0  0  0  0  0  0  0
  145.9340  138.4483  150.6090 H   0  0  0  0  0  0  0  0  0  0  0  0
  147.6429  138.2217  151.2484 H   0  0  0  0  0  0  0  0  0  0  0  0
  150.3289  145.4273  158.1373 H   0  0  0  0  0  0  0  0  0  0  0  0
  151.7470  145.8764  160.1463 H   0  0  0  0  0  0  0  0  0  0  0  0
  153.2037  144.1227  161.0897 H   0  0  0  0  0  0  0  0  0  0  0  0
  153.3087  141.8514  160.0720 H   0  0  0  0  0  0  0  0  0  0  0  0
  149.7198  143.2950  156.2883 H   0  0  0  0  0  0  0  0  0  0  0  0
  1  2  1  0  0  0  0
  1 22  1  0  0  0  0
  1 23  1  0  0  0  0
  1 24  1  0  0  0  0
  2  3  1  0  0  0  0
  3  4  1  0  0  0  0
  3 25  1  0  0  0  0
  3 26  1  0  0  0  0
  4  5  1  0  0  0  0
  4 27  1  0  0  0  0
  4 28  1  0  0  0  0
  5 21  1  0  0  0  0
  5  6  1  0  0  0  0
  6  7  1  0  0  0  0
  6 15  2  0  0  0  0
  7  8  1  0  0  0  0
  8  9  1  0  0  0  0
  8 29  1  0  0  0  0
  8 30  1  0  0  0  0
  9 10  2  0  0  0  0
  9 11  1  0  0  0  0
 11 12  1  0  0  0  0
 11 31  1  0  0  0  0
 12 14  1  0  0  0  0
 12 13  1  0  0  0  0
 12 32  1  0  0  0  0
 13 14  1  0  0  0  0
 13 33  1  0  0  0  0
 13 34  1  0  0  0  0
 14 35  1  0  0  0  0
 14 36  1  0  0  0  0
 15 16  1  0  0  0  0
 15 41  1  0  0  0  0
 16 21  2  0  0  0  0
 16 17  1  0  0  0  0
 17 18  2  0  0  0  0
 17 37  1  0  0  0  0
 18 19  1  0  0  0  0
 18 38  1  0  0  0  0
 19 20  2  0  0  0  0
 19 39  1  0  0  0  0
 20 21  1  0  0  0  0
 20 40  1  0  0  0  0
M  CHG  1  15   1
M  END
> <s_m_source_file>
AV-unprocessed.smi

> <i_m_source_file_index>
2966

> <i_lp_mmshare_version>
43012

> <i_f3d_flags>
0

> <s_epik_input>
W2NIXTFbY0hdW2NIXVtjSF1jKGMxMiluKFtDSDJdW0NIMl1PW0NIM10pYyhuMilTW0NIMl1DKD1PKVtOSF1bQ0hdM1tDSDJdW0NIMl0z

> <s_epik_cmdline>
J2VwaWtfcHl0aG9uJywgJy1waCcsICc3LjAnLCAnLXRuJywgJzgnLCAnLW1hJywgJzIwMCcsICctbWV0YWxfYmluZGluZycsICctaW1hZScsICc8aW5maWxlLm1hZT4nLCAnLW9tYWUnLCAnPG91dGZpbGUubWFlPic=

> <r_epik_Ionization_Penalty>
1.66257

> <r_epik_Ionization_Penalty_Charging>
1.66257

> <r_epik_Ionization_Penalty_Neutral>
8.69326e-08

> <r_epik_State_Penalty>
1.76557

> <r_epik_Charging_Adjusted_Penalty>
3.42813

> <i_epik_Tot_Q>
1

> <i_epik_Tot_abs_Q>
1

> <r_epik_Metal_State_Penalty>
1.80073

> <b_epik_Metal_Only>
0

> <s_lp_Force_Field>
OPLS_2005

> <r_lp_Energy>
20.3811

> <b_lp_Chiralities_Consistent>
1

> <s_lp_Variant>
AV-unprocessed.smi:2966-2

> <Gold.Version>
5.8.1

> <Gold.Id.Protein>
6NUR|6NUR_protein|mol2

> <Gold.PLP.Fitness>
51.6883

> <Gold.PLP.PLP>
-43.7940

> <Gold.PLP.part.hbond>
-1.9108

> <Gold.PLP.part.metal>
0.0000

> <Gold.PLP.part.buried>
0.9495

> <Gold.PLP.part.nonpolar>
-42.8159

> <Gold.PLP.part.repulsive>
0.2142

> <Gold.PLP.ligand.clash>
0.0000

> <Gold.PLP.ligand.torsion>
0.6255

> <Gold.PLP.Chemscore.Hbond>
3.0000

> <Gold.PLP.Chemscore.CHOScore>
0.0000

> <Gold.PLP.Chemscore.Metal>
0.0000

> <Gold.Chemscore.Hbonds>
donor molecule, donor type, donor heavy atom, donor atom, acceptor molecule, acceptor atom, score
      L1  H    11    31       P1  7957  0.99
      L1  H    15    41       P1  8028  2.00

> <Gold.PLP.Chemscore.Internal.Correction>
0.1453

> <Gold.Rescore>
     Score         DG    S(hbond)    S(metal)    S(lipo)     H(rot)  DE(clash)    DE(int)     intcor
     19.30     -20.20       1.88        0.00     120.65       2.21       0.44       0.46       ----

> <Gold.Chemscore.Fitness>
19.3033

> <Gold.Chemscore.DG>
-20.1988

> <Gold.Chemscore.ZeroCoef>
-5.4800

> <Gold.Chemscore.Hbond>
1.8780

> <Gold.Chemscore.Metal>
0.0000

> <Gold.Chemscore.Lipo>
120.6511

> <Gold.Chemscore.Internal_Hbond>
0.0000

> <Gold.Chemscore.DEClash>
0.4389

> <Gold.Chemscore.DEInternal>
0.4565

> <Gold.Chemscore.Rot>
2.2149

> <Gold.Chemscore.Internal.Correction>
   9.000000E+99

> <Gold.Chemscore.Hbonds>
donor molecule, donor type, donor heavy atom, donor atom, acceptor molecule, acceptor atom, score
      L1  H    11    31       P1  7957  0.94
      L1  H    15    41       P1  8028  0.97

> <Gold.Chemscore.Hbond.Weighted>
-6.2726

> <Gold.Chemscore.Metal.Weighted>
-0.0000

> <Gold.Chemscore.Lipo.Weighted>
-14.1162

> <Gold.Chemscore.Internal_Hbond.Weighted>
0.0000

> <Gold.Chemscore.DEClash.Weighted>
0.4389

> <Gold.Chemscore.DEInternal.Weighted>
0.4565

> <Gold.Chemscore.Rot.Weighted>
5.6700

> <Gold.Chemscore.Internal.Correction.Weighted>
   9.000000E+99

> <Gold.Protein.RotatedTorsions>
[ 6907 6896 6895 6894 ] final  -47.34 input  -60.11 | X-H torsion
[ 7974 7965 7964 7962 ] final  -63.51 input  175.53 | X-H torsion
[ 8008 7997 7996 7995 ] final   80.55 input   59.86 | X-H torsion
[ 10167 10162 10161 10158 ] final  -79.16 input  -65.29 | X-H torsion
[ 10718 10713 10712 10709 ] final   74.59 input   66.30 | X-H torsion
[ 10763 10752 10751 10750 ] final  -26.93 input  -60.55 | X-H torsion
[ 11005 11000 10999 10996 ] final   54.64 input  -57.11 | X-H torsion

> <Gold.Protein.ActiveResidues>
 VAL166  LYS551  ARG553  GLY616  TRP617  ASP618  TYR619  PRO620  LYS621  CYS622 
 ASP623  PHE694  ASN695  SER759  ASP760  ASP761  ALA762  ILE779  LEU786  VAL792 
 PHE793  MET794  SER795  GLU796  ALA797  LYS798  CYS799  TRP800  GLU811  SER814 

> <Gold.Protein.RotatedAtoms>
  150.9019  134.8431  159.7365 H   0  0  0  0  0  0  0  0  0  0  0  0  # atno 6907 bound_to 6896
  152.4897  134.4490  159.9578 H   0  0  0  0  0  0  0  0  0  0  0  0  # atno 6908 bound_to 6896
  151.4541  133.3570  159.2835 H   0  0  0  0  0  0  0  0  0  0  0  0  # atno 6909 bound_to 6896
  145.7782  140.8776  143.0344 H   0  0  0  0  0  0  0  0  0  0  0  0  # atno 7974 bound_to 7965
  155.8851  140.3442  155.5915 H   0  0  0  0  0  0  0  0  0  0  0  0  # atno 8008 bound_to 7997
  155.7675  140.0841  157.2143 H   0  0  0  0  0  0  0  0  0  0  0  0  # atno 8009 bound_to 7997
  154.4028  140.1524  156.2891 H   0  0  0  0  0  0  0  0  0  0  0  0  # atno 8010 bound_to 7997
  140.4618  143.2451  151.8337 H   0  0  0  0  0  0  0  0  0  0  0  0  # atno 10167 bound_to 10162
  157.6598  130.9685  150.1232 H   0  0  0  0  0  0  0  0  0  0  0  0  # atno 10718 bound_to 10713
  153.7240  135.6943  153.5006 H   0  0  0  0  0  0  0  0  0  0  0  0  # atno 10763 bound_to 10752
  153.2183  135.4378  155.0459 H   0  0  0  0  0  0  0  0  0  0  0  0  # atno 10764 bound_to 10752
  154.8275  135.3454  154.6772 H   0  0  0  0  0  0  0  0  0  0  0  0  # atno 10765 bound_to 10752
  140.0670  134.5522  155.9088 H   0  0  0  0  0  0  0  0  0  0  0  0  # atno 11005 bound_to 11000
  144.6801  139.9951  143.7484 LP  0  0  0  0  0  0  0  0  0  0  0  0  # atno 17320 bound_to 7965
  146.0101  139.3162  143.0875 LP  0  0  0  0  0  0  0  0  0  0  0  0  # atno 17321 bound_to 7965
  139.4807  144.4999  151.9075 LP  0  0  0  0  0  0  0  0  0  0  0  0  # atno 17342 bound_to 10162
  140.4084  144.2401  150.5890 LP  0  0  0  0  0  0  0  0  0  0  0  0  # atno 17343 bound_to 10162
  156.2098  130.3666  149.8684 LP  0  0  0  0  0  0  0  0  0  0  0  0  # atno 17370 bound_to 10713
  156.6566  130.8765  151.3540 LP  0  0  0  0  0  0  0  0  0  0  0  0  # atno 17371 bound_to 10713
  141.1997  133.6608  156.5857 LP  0  0  0  0  0  0  0  0  0  0  0  0  # atno 17394 bound_to 11000
  140.3683  134.7628  157.4581 LP  0  0  0  0  0  0  0  0  0  0  0  0  # atno 17395 bound_to 11000

$$$$
