AV-unprocessed.smi:2772|AV-procd|sdf|10673|dock6
  -GOLD-   2272015123D 1   1.00000     0.00000
 Structure written by MMmdl.
 56 58  0  0  0  0  0  0  0  0  4 V2000
  151.4652  131.5856  157.8219 C   0  0  0  0  0  0  0  0  0  0  0  0
  150.7274  131.6001  156.5000 C   0  0  0  0  0  0  0  0  0  0  0  0
  150.7573  130.5091  155.6064 C   0  0  0  0  0  0  0  0  0  0  0  0
  150.0448  130.5945  154.3926 C   0  0  0  0  0  0  0  0  0  0  0  0
  149.3070  131.7607  154.0926 C   0  0  0  0  0  0  0  0  0  0  0  0
  148.6140  131.8046  152.8518 N   0  0  0  0  0  0  0  0  0  0  0  0
  147.3994  132.3181  152.5898 C   0  0  0  0  0  0  0  0  0  0  0  0
  146.6560  132.8409  153.4191 O   0  0  0  0  0  0  0  0  0  0  0  0
  147.0834  132.1740  151.2947 N   0  0  0  0  0  0  0  0  0  0  0  0
  145.8367  132.6049  150.6668 C   0  0  2  0  0  0  0  0  0  0  0  0
  145.7769  134.1434  150.6229 C   0  0  0  0  0  0  0  0  0  0  0  0
  144.3992  134.6347  150.1375 C   0  0  0  0  0  0  0  0  0  0  0  0
  143.2908  134.1023  150.9817 N   0  3  2  0  0  0  0  0  0  0  0  0
  143.1944  134.6893  152.3635 C   0  0  2  0  0  0  0  0  0  0  0  0
  141.7797  134.5237  152.9755 C   0  0  0  0  0  0  0  0  0  0  0  0
  141.6501  135.1931  154.3544 C   0  0  0  0  0  0  0  0  0  0  0  0
  141.9983  136.6305  154.2864 N   0  3  1  0  0  0  0  0  0  0  0  0
  141.7638  137.3302  155.5681 C   0  0  0  0  0  0  0  0  0  0  0  0
  143.3750  136.8267  153.7782 C   0  0  0  0  0  0  0  0  0  0  0  0
  143.5480  136.1983  152.3846 C   0  0  0  0  0  0  0  0  0  0  0  0
  143.3077  132.6122  150.9189 C   0  0  0  0  0  0  0  0  0  0  0  0
  144.6360  132.0322  151.4424 C   0  0  0  0  0  0  0  0  0  0  0  0
  149.3262  132.8277  155.0254 C   0  0  0  0  0  0  0  0  0  0  0  0
  150.0228  132.7067  156.1765 N   0  3  0  0  0  0  0  0  0  0  0  0
  151.9792  130.6362  157.9747 H   0  0  0  0  0  0  0  0  0  0  0  0
  150.7687  131.7316  158.6482 H   0  0  0  0  0  0  0  0  0  0  0  0
  152.2077  132.3834  157.8516 H   0  0  0  0  0  0  0  0  0  0  0  0
  151.3185  129.6172  155.8443 H   0  0  0  0  0  0  0  0  0  0  0  0
  150.0627  129.7644  153.7010 H   0  0  0  0  0  0  0  0  0  0  0  0
  149.0768  131.3454  152.0810 H   0  0  0  0  0  0  0  0  0  0  0  0
  147.7609  131.7279  150.6937 H   0  0  0  0  0  0  0  0  0  0  0  0
  145.7766  132.2384  149.6403 H   0  0  0  0  0  0  0  0  0  0  0  0
  145.9946  134.5595  151.6072 H   0  0  0  0  0  0  0  0  0  0  0  0
  146.5542  134.5214  149.9577 H   0  0  0  0  0  0  0  0  0  0  0  0
  144.3760  135.7194  150.0609 H   0  0  0  0  0  0  0  0  0  0  0  0
  144.2423  134.2870  149.1153 H   0  0  0  0  0  0  0  0  0  0  0  0
  143.9000  134.1728  153.0144 H   0  0  0  0  0  0  0  0  0  0  0  0
  141.0317  134.9380  152.2978 H   0  0  0  0  0  0  0  0  0  0  0  0
  141.5323  133.4721  153.1120 H   0  0  0  0  0  0  0  0  0  0  0  0
  140.6270  135.0828  154.7167 H   0  0  0  0  0  0  0  0  0  0  0  0
  142.2971  134.6932  155.0772 H   0  0  0  0  0  0  0  0  0  0  0  0
  142.4043  136.9319  156.3563 H   0  0  0  0  0  0  0  0  0  0  0  0
  140.7253  137.2203  155.8825 H   0  0  0  0  0  0  0  0  0  0  0  0
  141.9677  138.3969  155.4675 H   0  0  0  0  0  0  0  0  0  0  0  0
  143.5951  137.8938  153.7251 H   0  0  0  0  0  0  0  0  0  0  0  0
  144.0897  136.3908  154.4782 H   0  0  0  0  0  0  0  0  0  0  0  0
  144.5837  136.3632  152.0912 H   0  0  0  0  0  0  0  0  0  0  0  0
  142.9283  136.7344  151.6642 H   0  0  0  0  0  0  0  0  0  0  0  0
  142.4574  132.1670  151.4310 H   0  0  0  0  0  0  0  0  0  0  0  0
  143.1811  132.3159  149.8763 H   0  0  0  0  0  0  0  0  0  0  0  0
  144.6225  130.9457  151.3470 H   0  0  0  0  0  0  0  0  0  0  0  0
  144.7384  132.2400  152.5080 H   0  0  0  0  0  0  0  0  0  0  0  0
  148.8263  133.7757  154.8987 H   0  0  0  0  0  0  0  0  0  0  0  0
  142.4385  134.3817  150.5164 H   0  0  0  0  0  0  0  0  0  0  0  0
  141.3739  137.0526  153.6136 H   0  0  0  0  0  0  0  0  0  0  0  0
  150.0178  133.4896  156.8307 H   0  0  0  0  0  0  0  0  0  0  0  0
  1  2  1  0  0  0  0
  1 25  1  0  0  0  0
  1 26  1  0  0  0  0
  1 27  1  0  0  0  0
  2 24  1  0  0  0  0
  2  3  2  0  0  0  0
  3  4  1  0  0  0  0
  3 28  1  0  0  0  0
  4  5  2  0  0  0  0
  4 29  1  0  0  0  0
  5  6  1  0  0  0  0
  5 23  1  0  0  0  0
  6  7  1  0  0  0  0
  6 30  1  0  0  0  0
  7  8  2  0  0  0  0
  7  9  1  0  0  0  0
  9 10  1  0  0  0  0
  9 31  1  0  0  0  0
 10 22  1  0  0  0  0
 10 11  1  0  0  0  0
 10 32  1  0  0  0  0
 11 12  1  0  0  0  0
 11 33  1  0  0  0  0
 11 34  1  0  0  0  0
 12 13  1  0  0  0  0
 12 35  1  0  0  0  0
 12 36  1  0  0  0  0
 13 14  1  0  0  0  0
 13 21  1  0  0  0  0
 13 54  1  0  0  0  0
 14 20  1  0  0  0  0
 14 15  1  0  0  0  0
 14 37  1  0  0  0  0
 15 16  1  0  0  0  0
 15 38  1  0  0  0  0
 15 39  1  0  0  0  0
 16 17  1  0  0  0  0
 16 40  1  0  0  0  0
 16 41  1  0  0  0  0
 17 18  1  0  0  0  0
 17 19  1  0  0  0  0
 17 55  1  0  0  0  0
 18 42  1  0  0  0  0
 18 43  1  0  0  0  0
 18 44  1  0  0  0  0
 19 20  1  0  0  0  0
 19 45  1  0  0  0  0
 19 46  1  0  0  0  0
 20 47  1  0  0  0  0
 20 48  1  0  0  0  0
 21 22  1  0  0  0  0
 21 49  1  0  0  0  0
 21 50  1  0  0  0  0
 22 51  1  0  0  0  0
 22 52  1  0  0  0  0
 23 24  2  0  0  0  0
 23 53  1  0  0  0  0
 24 56  1  0  0  0  0
M  CHG  1  13   1
M  CHG  1  17   1
M  CHG  1  24   1
M  END
> <s_m_source_file>
AV-unprocessed.smi

> <i_m_source_file_index>
2772

> <i_lp_mmshare_version>
43012

> <i_f3d_flags>
0

> <s_epik_input>
W0NIM11jMVtjSF1bY0hdYyhbY0hdbjEpW05IXUMoPU8pW05IXVtDSF0yW0NIMl1bQ0gyXU4oW0NIMl1bQ0gyXTIpW0NIXTNbQ0gyXVtDSDJdTihbQ0gzXSlbQ0gyXVtDSDJdMw==

> <s_epik_cmdline>
J2VwaWtfcHl0aG9uJywgJy1waCcsICc3LjAnLCAnLXRuJywgJzgnLCAnLW1hJywgJzIwMCcsICctbWV0YWxfYmluZGluZycsICctaW1hZScsICc8aW5maWxlLm1hZT4nLCAnLW9tYWUnLCAnPG91dGZpbGUubWFlPic=

> <r_epik_Ionization_Penalty>
2.34117

> <r_epik_Ionization_Penalty_Charging>
2.34115

> <r_epik_Ionization_Penalty_Neutral>
2.22786e-05

> <r_epik_State_Penalty>
2.43944

> <r_epik_Charging_Adjusted_Penalty>
4.78059

> <i_epik_Tot_Q>
3

> <i_epik_Tot_abs_Q>
3

> <r_epik_Metal_State_Penalty>
2.45906

> <b_epik_Metal_Only>
0

> <s_lp_Force_Field>
OPLS_2005

> <r_lp_Energy>
52.8488

> <b_lp_Chiralities_Consistent>
1

> <s_lp_Variant>
AV-unprocessed.smi:2772-10

> <Gold.Version>
5.8.1

> <Gold.Id.Protein>
6NUR|6NUR_protein|mol2

> <Gold.PLP.Fitness>
46.8358

> <Gold.PLP.PLP>
-36.3131

> <Gold.PLP.part.hbond>
-2.9700

> <Gold.PLP.part.metal>
0.0000

> <Gold.PLP.part.buried>
0.3710

> <Gold.PLP.part.nonpolar>
-34.2368

> <Gold.PLP.part.repulsive>
0.2001

> <Gold.PLP.ligand.clash>
0.0000

> <Gold.PLP.ligand.torsion>
0.6999

> <Gold.PLP.Chemscore.Hbond>
3.9600

> <Gold.PLP.Chemscore.CHOScore>
0.0000

> <Gold.PLP.Chemscore.Metal>
0.0000

> <Gold.Chemscore.Hbonds>
donor molecule, donor type, donor heavy atom, donor atom, acceptor molecule, acceptor atom, score
      L1  H     6    30       P1 10747  0.96
      L1  H     9    31       P1 10747  1.00
      L1  H    13    54       P1 10186  2.00

> <Gold.PLP.Chemscore.Internal.Correction>
0.0425

> <Gold.Rescore>
     Score         DG    S(hbond)    S(metal)    S(lipo)     H(rot)  DE(clash)    DE(int)     intcor
     17.69     -21.30       2.18        0.00      99.85       1.22       1.67       1.94       ----

> <Gold.Chemscore.Fitness>
17.6898

> <Gold.Chemscore.DG>
-21.3011

> <Gold.Chemscore.ZeroCoef>
-5.4800

> <Gold.Chemscore.Hbond>
2.1759

> <Gold.Chemscore.Metal>
0.0000

> <Gold.Chemscore.Lipo>
99.8503

> <Gold.Chemscore.Internal_Hbond>
0.0000

> <Gold.Chemscore.DEClash>
1.6742

> <Gold.Chemscore.DEInternal>
1.9372

> <Gold.Chemscore.Rot>
1.2222

> <Gold.Chemscore.Internal.Correction>
   9.000000E+99

> <Gold.Chemscore.Hbonds>
donor molecule, donor type, donor heavy atom, donor atom, acceptor molecule, acceptor atom, score
      L1  H     6    30       P1 10747  0.51
      L1  H     9    31       P1 10747  0.95
      L1  H    13    54       P1 10186  0.40

> <Gold.Chemscore.Hbond.Weighted>
-7.2675

> <Gold.Chemscore.Metal.Weighted>
-0.0000

> <Gold.Chemscore.Lipo.Weighted>
-11.6825

> <Gold.Chemscore.Internal_Hbond.Weighted>
0.0000

> <Gold.Chemscore.DEClash.Weighted>
1.6742

> <Gold.Chemscore.DEInternal.Weighted>
1.9372

> <Gold.Chemscore.Rot.Weighted>
3.1289

> <Gold.Chemscore.Internal.Correction.Weighted>
   9.000000E+99

> <Gold.Protein.RotatedTorsions>
[ 6907 6896 6895 6894 ] final   89.30 input  -60.11 | X-H torsion
[ 7974 7965 7964 7962 ] final   73.62 input  175.53 | X-H torsion
[ 8008 7997 7996 7995 ] final -114.04 input   59.86 | X-H torsion
[ 10167 10162 10161 10158 ] final   93.24 input  -65.29 | X-H torsion
[ 10718 10713 10712 10709 ] final   23.31 input   66.30 | X-H torsion
[ 10763 10752 10751 10750 ] final  170.37 input  -60.55 | X-H torsion
[ 11005 11000 10999 10996 ] final  -80.43 input  -57.11 | X-H torsion

> <Gold.Protein.ActiveResidues>
 VAL166  LYS551  ARG553  GLY616  TRP617  ASP618  TYR619  PRO620  LYS621  CYS622 
 ASP623  PHE694  ASN695  SER759  ASP760  ASP761  ALA762  ILE779  LEU786  VAL792 
 PHE793  MET794  SER795  GLU796  ALA797  LYS798  CYS799  TRP800  GLU811  SER814 

> <Gold.Protein.RotatedAtoms>
  152.5435  134.1988  159.8703 H   0  0  0  0  0  0  0  0  0  0  0  0  # atno 6907 bound_to 6896
  151.1978  133.4621  159.2603 H   0  0  0  0  0  0  0  0  0  0  0  0  # atno 6908 bound_to 6896
  151.1019  134.9989  159.8508 H   0  0  0  0  0  0  0  0  0  0  0  0  # atno 6909 bound_to 6896
  145.7385  139.2711  143.1500 H   0  0  0  0  0  0  0  0  0  0  0  0  # atno 7974 bound_to 7965
  155.0301  140.0393  157.2470 H   0  0  0  0  0  0  0  0  0  0  0  0  # atno 8008 bound_to 7997
  154.7304  140.2729  155.6438 H   0  0  0  0  0  0  0  0  0  0  0  0  # atno 8009 bound_to 7997
  156.2840  140.2685  156.2002 H   0  0  0  0  0  0  0  0  0  0  0  0  # atno 8010 bound_to 7997
  139.8199  144.6736  150.9532 H   0  0  0  0  0  0  0  0  0  0  0  0  # atno 10167 bound_to 10162
  157.1643  130.6731  149.6055 H   0  0  0  0  0  0  0  0  0  0  0  0  # atno 10718 bound_to 10713
  154.3967  135.2754  155.2122 H   0  0  0  0  0  0  0  0  0  0  0  0  # atno 10763 bound_to 10752
  154.4165  135.6010  153.5987 H   0  0  0  0  0  0  0  0  0  0  0  0  # atno 10764 bound_to 10752
  152.9831  135.5962  154.4229 H   0  0  0  0  0  0  0  0  0  0  0  0  # atno 10765 bound_to 10752
  141.1668  133.7150  156.8272 H   0  0  0  0  0  0  0  0  0  0  0  0  # atno 11005 bound_to 11000
  146.0470  140.8108  142.9800 LP  0  0  0  0  0  0  0  0  0  0  0  0  # atno 17320 bound_to 7965
  144.6876  140.2996  143.7265 LP  0  0  0  0  0  0  0  0  0  0  0  0  # atno 17321 bound_to 7965
  140.7814  143.4102  151.1006 LP  0  0  0  0  0  0  0  0  0  0  0  0  # atno 17342 bound_to 10162
  139.7763  143.8421  152.3130 LP  0  0  0  0  0  0  0  0  0  0  0  0  # atno 17343 bound_to 10162
  155.9748  130.4701  150.6417 LP  0  0  0  0  0  0  0  0  0  0  0  0  # atno 17370 bound_to 10713
  157.4103  131.0822  151.1227 LP  0  0  0  0  0  0  0  0  0  0  0  0  # atno 17371 bound_to 10713
  140.2077  134.8850  157.3240 LP  0  0  0  0  0  0  0  0  0  0  0  0  # atno 17394 bound_to 11000
  140.2120  134.4127  155.7608 LP  0  0  0  0  0  0  0  0  0  0  0  0  # atno 17395 bound_to 11000

$$$$
