AV-unprocessed.smi:1613|AV-procd|sdf|6479|dock10
  -GOLD-   22720 7143D 1   1.00000     0.00000
 Structure written by MMmdl.
 53 55  0  0  0  0  0  0  0  0  2 V2000
  146.8546  139.4241  152.3474 O   0  0  0  0  0  0  0  0  0  0  0  0
  146.6085  139.0333  153.4873 C   0  0  0  0  0  0  0  0  0  0  0  0
  146.4991  137.5236  153.7664 C   0  0  0  0  0  0  0  0  0  0  0  0
  145.5020  136.8196  152.9366 N   0  0  0  0  0  0  0  0  0  0  0  0
  145.9773  135.8643  152.0220 C   0  0  0  0  0  0  0  0  0  0  0  0
  145.1337  135.2039  151.2158 C   0  0  0  0  0  0  0  0  0  0  0  0
  143.7092  135.5367  151.3473 C   0  0  0  0  0  0  0  0  0  0  0  0
  143.2729  136.4057  152.1803 N   0  0  0  0  0  0  0  0  0  0  0  0
  144.1593  137.0957  153.0279 C   0  0  0  0  0  0  0  0  0  0  0  0
  143.7463  137.9388  153.8242 O   0  0  0  0  0  0  0  0  0  0  0  0
  146.4533  139.8673  154.5279 N   0  0  0  0  0  0  0  0  0  0  0  0
  146.6369  141.3153  154.5219 C   0  0  2  0  0  0  0  0  0  0  0  0
  147.9205  141.7136  153.7660 C   0  0  0  0  0  0  0  0  0  0  0  0
  149.1817  141.1989  154.4832 C   0  0  0  0  0  0  0  0  0  0  0  0
  149.2297  141.6718  155.8908 N   0  3  2  0  0  0  0  0  0  0  0  0
  150.5004  141.3610  156.5996 C   0  0  0  0  0  0  0  0  0  0  0  0
  150.7513  142.1820  157.8937 C   0  0  0  0  0  0  0  0  0  0  0  0
  151.1562  143.6325  157.5577 C   0  0  0  0  0  0  0  0  0  0  0  0
  151.4021  144.4656  158.8260 C   0  0  0  0  0  0  0  0  0  0  0  0
  152.4674  143.8154  159.7204 C   0  0  0  0  0  0  0  0  0  0  0  0
  152.0910  142.3667  160.0626 C   0  0  0  0  0  0  0  0  0  0  0  0
  151.8356  141.5412  158.7910 C   0  0  0  0  0  0  0  0  0  0  0  0
  148.0115  141.3162  156.6671 C   0  0  0  0  0  0  0  0  0  0  0  0
  146.7357  141.8272  155.9694 C   0  0  0  0  0  0  0  0  0  0  0  0
  147.4875  137.0829  153.6283 H   0  0  0  0  0  0  0  0  0  0  0  0
  146.2697  137.3808  154.8240 H   0  0  0  0  0  0  0  0  0  0  0  0
  147.0471  135.7134  152.0172 H   0  0  0  0  0  0  0  0  0  0  0  0
  145.4318  134.4609  150.4912 H   0  0  0  0  0  0  0  0  0  0  0  0
  143.0372  134.9900  150.6808 H   0  0  0  0  0  0  0  0  0  0  0  0
  146.2369  139.4460  155.4197 H   0  0  0  0  0  0  0  0  0  0  0  0
  145.7715  141.7744  154.0407 H   0  0  0  0  0  0  0  0  0  0  0  0
  147.8962  141.3390  152.7421 H   0  0  0  0  0  0  0  0  0  0  0  0
  147.9695  142.8003  153.6869 H   0  0  0  0  0  0  0  0  0  0  0  0
  149.1991  140.1095  154.4537 H   0  0  0  0  0  0  0  0  0  0  0  0
  150.0689  141.5463  153.9530 H   0  0  0  0  0  0  0  0  0  0  0  0
  150.5268  140.2933  156.8204 H   0  0  0  0  0  0  0  0  0  0  0  0
  151.3125  141.5212  155.8890 H   0  0  0  0  0  0  0  0  0  0  0  0
  149.8309  142.2428  158.4728 H   0  0  0  0  0  0  0  0  0  0  0  0
  152.0568  143.6320  156.9422 H   0  0  0  0  0  0  0  0  0  0  0  0
  150.3759  144.1087  156.9628 H   0  0  0  0  0  0  0  0  0  0  0  0
  151.7124  145.4748  158.5536 H   0  0  0  0  0  0  0  0  0  0  0  0
  150.4702  144.5694  159.3827 H   0  0  0  0  0  0  0  0  0  0  0  0
  153.4321  143.8322  159.2117 H   0  0  0  0  0  0  0  0  0  0  0  0
  152.5900  144.3950  160.6357 H   0  0  0  0  0  0  0  0  0  0  0  0
  152.8860  141.9066  160.6502 H   0  0  0  0  0  0  0  0  0  0  0  0
  151.2013  142.3590  160.6919 H   0  0  0  0  0  0  0  0  0  0  0  0
  151.5532  140.5293  159.0776 H   0  0  0  0  0  0  0  0  0  0  0  0
  152.7682  141.4491  158.2325 H   0  0  0  0  0  0  0  0  0  0  0  0
  147.9499  140.2367  156.8055 H   0  0  0  0  0  0  0  0  0  0  0  0
  148.0749  141.7539  157.6638 H   0  0  0  0  0  0  0  0  0  0  0  0
  146.7376  142.9179  155.9676 H   0  0  0  0  0  0  0  0  0  0  0  0
  145.8543  141.5267  156.5375 H   0  0  0  0  0  0  0  0  0  0  0  0
  149.2114  142.6799  155.8287 H   0  0  0  0  0  0  0  0  0  0  0  0
  1  2  2  0  0  0  0
  2  3  1  0  0  0  0
  2 11  1  0  0  0  0
  3  4  1  0  0  0  0
  3 25  1  0  0  0  0
  3 26  1  0  0  0  0
  4  9  1  0  0  0  0
  4  5  1  0  0  0  0
  5  6  2  0  0  0  0
  5 27  1  0  0  0  0
  6  7  1  0  0  0  0
  6 28  1  0  0  0  0
  7  8  2  0  0  0  0
  7 29  1  0  0  0  0
  8  9  1  0  0  0  0
  9 10  2  0  0  0  0
 11 12  1  0  0  0  0
 11 30  1  0  0  0  0
 12 24  1  0  0  0  0
 12 13  1  0  0  0  0
 12 31  1  0  0  0  0
 13 14  1  0  0  0  0
 13 32  1  0  0  0  0
 13 33  1  0  0  0  0
 14 15  1  0  0  0  0
 14 34  1  0  0  0  0
 14 35  1  0  0  0  0
 15 16  1  0  0  0  0
 15 23  1  0  0  0  0
 15 53  1  0  0  0  0
 16 17  1  0  0  0  0
 16 36  1  0  0  0  0
 16 37  1  0  0  0  0
 17 22  1  0  0  0  0
 17 18  1  0  0  0  0
 17 38  1  0  0  0  0
 18 19  1  0  0  0  0
 18 39  1  0  0  0  0
 18 40  1  0  0  0  0
 19 20  1  0  0  0  0
 19 41  1  0  0  0  0
 19 42  1  0  0  0  0
 20 21  1  0  0  0  0
 20 43  1  0  0  0  0
 20 44  1  0  0  0  0
 21 22  1  0  0  0  0
 21 45  1  0  0  0  0
 21 46  1  0  0  0  0
 22 47  1  0  0  0  0
 22 48  1  0  0  0  0
 23 24  1  0  0  0  0
 23 49  1  0  0  0  0
 23 50  1  0  0  0  0
 24 51  1  0  0  0  0
 24 52  1  0  0  0  0
M  CHG  1  15   1
M  END
> <s_m_source_file>
AV-unprocessed.smi

> <i_m_source_file_index>
1613

> <i_lp_mmshare_version>
43012

> <i_f3d_flags>
0

> <s_epik_input>
Tz1jMW5bY0hdW2NIXVtjSF1uMVtDSDJdQyg9TylbTkhdW0NIXTJbQ0gyXVtDSDJdTihbQ0gyXVtDSDJdMilbQ0gyXVtDSF0zW0NIMl1bQ0gyXVtDSDJdW0NIMl1bQ0gyXTM=

> <s_epik_cmdline>
J2VwaWtfcHl0aG9uJywgJy1waCcsICc3LjAnLCAnLXRuJywgJzgnLCAnLW1hJywgJzIwMCcsICctbWV0YWxfYmluZGluZycsICctaW1hZScsICc8aW5maWxlLm1hZT4nLCAnLW9tYWUnLCAnPG91dGZpbGUubWFlPic=

> <r_lp_tautomer_probability>
1

> <r_epik_Ionization_Penalty>
0.00530026

> <r_epik_Ionization_Penalty_Charging>
0.00529416

> <r_epik_Ionization_Penalty_Neutral>
6.10215e-06

> <r_epik_State_Penalty>
0.00386377

> <r_epik_Charging_Adjusted_Penalty>
0.00915793

> <i_epik_Tot_Q>
1

> <i_epik_Tot_abs_Q>
1

> <r_epik_Metal_State_Penalty>
-0

> <b_epik_Metal_Only>
0

> <s_lp_Force_Field>
OPLS_2005

> <r_lp_Energy>
26.8521

> <b_lp_Chiralities_Consistent>
1

> <s_lp_Variant>
AV-unprocessed.smi:1613-2

> <Gold.Version>
5.8.1

> <Gold.Id.Protein>
6NUR|6NUR_protein|mol2

> <Gold.PLP.Fitness>
50.4343

> <Gold.PLP.PLP>
-40.6122

> <Gold.PLP.part.hbond>
-1.0000

> <Gold.PLP.part.metal>
0.0000

> <Gold.PLP.part.buried>
-3.6633

> <Gold.PLP.part.nonpolar>
-37.0216

> <Gold.PLP.part.repulsive>
1.0697

> <Gold.PLP.ligand.clash>
0.0000

> <Gold.PLP.ligand.torsion>
0.4409

> <Gold.PLP.Chemscore.Hbond>
2.0000

> <Gold.PLP.Chemscore.CHOScore>
1.5465

> <Gold.PLP.Chemscore.Metal>
0.0000

> <Gold.Chemscore.Hbonds>
donor molecule, donor type, donor heavy atom, donor atom, acceptor molecule, acceptor atom, score
      L1  H    15    53       P1  8028  1.79
      L1  C     5    27       P1  7948  0.81
      L1  C     7    29       P1 10186  0.75

> <Gold.PLP.Chemscore.Internal.Correction>
0.0644

> <Gold.Rescore>
     Score         DG    S(hbond)    S(metal)    S(lipo)     H(rot)  DE(clash)    DE(int)     intcor
     16.03     -17.44       1.00        0.00     114.03       1.84       0.09       1.32       ----

> <Gold.Chemscore.Fitness>
16.0333

> <Gold.Chemscore.DG>
-17.4422

> <Gold.Chemscore.ZeroCoef>
-5.4800

> <Gold.Chemscore.Hbond>
0.9987

> <Gold.Chemscore.Metal>
0.0000

> <Gold.Chemscore.Lipo>
114.0281

> <Gold.Chemscore.Internal_Hbond>
0.0000

> <Gold.Chemscore.DEClash>
0.0894

> <Gold.Chemscore.DEInternal>
1.3195

> <Gold.Chemscore.Rot>
1.8417

> <Gold.Chemscore.Internal.Correction>
   9.000000E+99

> <Gold.Chemscore.Hbonds>
donor molecule, donor type, donor heavy atom, donor atom, acceptor molecule, acceptor atom, score
      L1  H    15    53       P1  8028  0.87

> <Gold.Chemscore.Hbond.Weighted>
-3.3356

> <Gold.Chemscore.Metal.Weighted>
-0.0000

> <Gold.Chemscore.Lipo.Weighted>
-13.3413

> <Gold.Chemscore.Internal_Hbond.Weighted>
0.0000

> <Gold.Chemscore.DEClash.Weighted>
0.0894

> <Gold.Chemscore.DEInternal.Weighted>
1.3195

> <Gold.Chemscore.Rot.Weighted>
4.7147

> <Gold.Chemscore.Internal.Correction.Weighted>
   9.000000E+99

> <Gold.Protein.RotatedTorsions>
[ 6907 6896 6895 6894 ] final -123.01 input  -60.11 | X-H torsion
[ 7974 7965 7964 7962 ] final -136.02 input  175.53 | X-H torsion
[ 8008 7997 7996 7995 ] final  -26.89 input   59.86 | X-H torsion
[ 10167 10162 10161 10158 ] final  -29.93 input  -65.29 | X-H torsion
[ 10718 10713 10712 10709 ] final  -55.93 input   66.30 | X-H torsion
[ 10763 10752 10751 10750 ] final  173.16 input  -60.55 | X-H torsion
[ 11005 11000 10999 10996 ] final  -45.59 input  -57.11 | X-H torsion

> <Gold.Protein.ActiveResidues>
 VAL166  LYS551  ARG553  GLY616  TRP617  ASP618  TYR619  PRO620  LYS621  CYS622 
 ASP623  PHE694  ASN695  SER759  ASP760  ASP761  ALA762  ILE779  LEU786  VAL792 
 PHE793  MET794  SER795  GLU796  ALA797  LYS798  CYS799  TRP800  GLU811  SER814 

> <Gold.Protein.RotatedAtoms>
  150.8630  133.7615  159.2985 H   0  0  0  0  0  0  0  0  0  0  0  0  # atno 6907 bound_to 6896
  151.5252  135.1066  159.9898 H   0  0  0  0  0  0  0  0  0  0  0  0  # atno 6908 bound_to 6896
  152.4640  133.7839  159.6921 H   0  0  0  0  0  0  0  0  0  0  0  0  # atno 6909 bound_to 6896
  144.8963  140.6711  143.5113 H   0  0  0  0  0  0  0  0  0  0  0  0  # atno 7974 bound_to 7965
  154.4403  140.1887  156.0846 H   0  0  0  0  0  0  0  0  0  0  0  0  # atno 8008 bound_to 7997
  156.0412  140.3319  155.7220 H   0  0  0  0  0  0  0  0  0  0  0  0  # atno 8009 bound_to 7997
  155.5696  140.0611  157.2800 H   0  0  0  0  0  0  0  0  0  0  0  0  # atno 8010 bound_to 7997
  140.7255  143.3889  151.1465 H   0  0  0  0  0  0  0  0  0  0  0  0  # atno 10167 bound_to 10162
  156.1329  130.4158  150.0237 H   0  0  0  0  0  0  0  0  0  0  0  0  # atno 10718 bound_to 10713
  154.4361  135.2761  155.1879 H   0  0  0  0  0  0  0  0  0  0  0  0  # atno 10763 bound_to 10752
  154.3765  135.6097  153.5771 H   0  0  0  0  0  0  0  0  0  0  0  0  # atno 10764 bound_to 10752
  152.9838  135.5870  154.4681 H   0  0  0  0  0  0  0  0  0  0  0  0  # atno 10765 bound_to 10752
  141.0525  133.6738  156.3034 H   0  0  0  0  0  0  0  0  0  0  0  0  # atno 11005 bound_to 11000
  145.3694  139.1662  143.4340 LP  0  0  0  0  0  0  0  0  0  0  0  0  # atno 17320 bound_to 7965
  146.3083  140.3764  142.8679 LP  0  0  0  0  0  0  0  0  0  0  0  0  # atno 17321 bound_to 7965
  139.7491  143.8807  152.3071 LP  0  0  0  0  0  0  0  0  0  0  0  0  # atno 17342 bound_to 10162
  139.8654  144.7096  150.9050 LP  0  0  0  0  0  0  0  0  0  0  0  0  # atno 17343 bound_to 10162
  156.8145  130.9336  151.3643 LP  0  0  0  0  0  0  0  0  0  0  0  0  # atno 17370 bound_to 10713
  157.6505  130.8880  149.9623 LP  0  0  0  0  0  0  0  0  0  0  0  0  # atno 17371 bound_to 10713
  140.6028  134.5537  157.5520 LP  0  0  0  0  0  0  0  0  0  0  0  0  # atno 17394 bound_to 11000
  139.9362  134.7871  156.0797 LP  0  0  0  0  0  0  0  0  0  0  0  0  # atno 17395 bound_to 11000

$$$$
