AV-unprocessed.smi:2063|AV-procd|sdf|8413|dock5
  -GOLD-   2272011103D 1   1.00000     0.00000
 Structure written by MMmdl.
 38 39  0  0  0  0  0  0  0  0  2 V2000
  152.8496  142.9587  162.1087 C   0  0  0  0  0  0  0  0  0  0  0  0
  152.5798  143.5627  160.7230 C   0  0  0  0  0  0  0  0  0  0  0  0
  151.3839  144.5257  160.7073 C   0  0  0  0  0  0  0  0  0  0  0  0
  152.4738  142.5119  159.6623 C   0  0  0  0  0  0  0  0  0  0  0  0
  151.4734  142.4652  158.7770 N   0  0  0  0  0  0  0  0  0  0  0  0
  151.5955  141.3945  157.9036 N   0  0  0  0  0  0  0  0  0  0  0  0
  152.6772  140.6402  158.1443 C   0  0  0  0  0  0  0  0  0  0  0  0
  152.9753  139.5526  157.4142 N   0  5  0  0  0  0  0  0  0  0  0  0
  152.5216  139.4477  156.1439 C   0  0  0  0  0  0  0  0  0  0  0  0
  153.2090  139.2641  155.1367 O   0  0  0  0  0  0  0  0  0  0  0  0
  151.1900  139.5627  156.0341 N   0  0  0  0  0  0  0  0  0  0  0  0
  150.4174  139.5031  154.7946 C   0  0  1  0  0  0  0  0  0  0  0  0
  150.6016  138.1239  154.1364 C   0  0  0  0  0  0  0  0  0  0  0  0
  148.9387  139.8092  155.1037 C   0  0  2  0  0  0  0  0  0  0  0  0
  148.0128  139.7789  153.8872 C   0  0  0  0  0  0  0  0  0  0  0  0
  146.8547  140.6256  154.3628 C   0  0  0  0  0  0  0  0  0  0  0  0
  147.5611  141.7042  155.1797 C   0  0  0  0  0  0  0  0  0  0  0  0
  148.7955  141.1348  155.6095 O   0  0  0  0  0  0  0  0  0  0  0  0
  153.6608  141.2295  159.4836 S   0  0  0  0  0  0  0  0  0  0  0  0
  153.7525  142.3472  162.1002 H   0  0  0  0  0  0  0  0  0  0  0  0
  152.0225  142.3268  162.4339 H   0  0  0  0  0  0  0  0  0  0  0  0
  152.9860  143.7390  162.8577 H   0  0  0  0  0  0  0  0  0  0  0  0
  153.4570  144.1612  160.4745 H   0  0  0  0  0  0  0  0  0  0  0  0
  151.2742  144.9980  159.7306 H   0  0  0  0  0  0  0  0  0  0  0  0
  151.5082  145.3184  161.4456 H   0  0  0  0  0  0  0  0  0  0  0  0
  150.4526  144.0050  160.9326 H   0  0  0  0  0  0  0  0  0  0  0  0
  150.6696  139.7184  156.8851 H   0  0  0  0  0  0  0  0  0  0  0  0
  150.7850  140.2693  154.1097 H   0  0  0  0  0  0  0  0  0  0  0  0
  150.0679  138.0598  153.1883 H   0  0  0  0  0  0  0  0  0  0  0  0
  150.2337  137.3255  154.7814 H   0  0  0  0  0  0  0  0  0  0  0  0
  151.6528  137.9234  153.9274 H   0  0  0  0  0  0  0  0  0  0  0  0
  148.5590  139.1197  155.8599 H   0  0  0  0  0  0  0  0  0  0  0  0
  148.4915  140.2496  153.0274 H   0  0  0  0  0  0  0  0  0  0  0  0
  147.7120  138.7701  153.6037 H   0  0  0  0  0  0  0  0  0  0  0  0
  146.2550  141.0317  153.5479 H   0  0  0  0  0  0  0  0  0  0  0  0
  146.2018  140.0347  155.0064 H   0  0  0  0  0  0  0  0  0  0  0  0
  147.7791  142.5753  154.5612 H   0  0  0  0  0  0  0  0  0  0  0  0
  146.9612  142.0335  156.0282 H   0  0  0  0  0  0  0  0  0  0  0  0
  1  2  1  0  0  0  0
  1 20  1  0  0  0  0
  1 21  1  0  0  0  0
  1 22  1  0  0  0  0
  2  3  1  0  0  0  0
  2  4  1  0  0  0  0
  2 23  1  0  0  0  0
  3 24  1  0  0  0  0
  3 25  1  0  0  0  0
  3 26  1  0  0  0  0
  4 19  1  0  0  0  0
  4  5  2  0  0  0  0
  5  6  1  0  0  0  0
  6  7  2  0  0  0  0
  7  8  1  0  0  0  0
  7 19  1  0  0  0  0
  8  9  1  0  0  0  0
  9 10  2  0  0  0  0
  9 11  1  0  0  0  0
 11 12  1  0  0  0  0
 11 27  1  0  0  0  0
 12 13  1  0  0  0  0
 12 14  1  0  0  0  0
 12 28  1  0  0  0  0
 13 29  1  0  0  0  0
 13 30  1  0  0  0  0
 13 31  1  0  0  0  0
 14 18  1  0  0  0  0
 14 15  1  0  0  0  0
 14 32  1  0  0  0  0
 15 16  1  0  0  0  0
 15 33  1  0  0  0  0
 15 34  1  0  0  0  0
 16 17  1  0  0  0  0
 16 35  1  0  0  0  0
 16 36  1  0  0  0  0
 17 18  1  0  0  0  0
 17 37  1  0  0  0  0
 17 38  1  0  0  0  0
M  CHG  1   8  -1
M  END
> <s_m_source_file>
AV-unprocessed.smi

> <i_m_source_file_index>
2063

> <i_lp_mmshare_version>
43012

> <i_f3d_flags>
0

> <s_epik_input>
W0NIM11bQ0hdKFtDSDNdKWMxbm5jKHMxKVtOSF1DKD1PKVtOSF1bQ0BIXShbQ0gzXSlbQ0BASF0yW0NIMl1bQ0gyXVtDSDJdTzI=

> <s_epik_cmdline>
J2VwaWtfcHl0aG9uJywgJy1waCcsICc3LjAnLCAnLXRuJywgJzgnLCAnLW1hJywgJzIwMCcsICctbWV0YWxfYmluZGluZycsICctaW1hZScsICc8aW5maWxlLm1hZT4nLCAnLW9tYWUnLCAnPG91dGZpbGUubWFlPic=

> <r_lp_tautomer_probability>
1

> <r_epik_Ionization_Penalty>
4.37022

> <r_epik_Ionization_Penalty_Charging>
4.21437

> <r_epik_Ionization_Penalty_Neutral>
0.15585

> <r_epik_State_Penalty>
4.21389

> <r_epik_Charging_Adjusted_Penalty>
8.42826

> <i_epik_Tot_Q>
-1

> <i_epik_Tot_abs_Q>
1

> <r_epik_Metal_State_Penalty>
0.693772

> <b_epik_Metal_Only>
1

> <s_lp_Force_Field>
OPLS_2005

> <r_lp_Energy>
10.2416

> <b_lp_Chiralities_Consistent>
1

> <s_lp_Variant>
AV-unprocessed.smi:2063-6

> <Gold.Version>
5.8.1

> <Gold.Id.Protein>
6NUR|6NUR_protein|mol2

> <Gold.PLP.Fitness>
38.3953

> <Gold.PLP.PLP>
-35.1278

> <Gold.PLP.part.hbond>
-2.0000

> <Gold.PLP.part.metal>
0.0000

> <Gold.PLP.part.buried>
-2.0289

> <Gold.PLP.part.nonpolar>
-31.1917

> <Gold.PLP.part.repulsive>
0.2166

> <Gold.PLP.ligand.clash>
0.0000

> <Gold.PLP.ligand.torsion>
0.7952

> <Gold.PLP.Chemscore.Hbond>
1.5840

> <Gold.PLP.Chemscore.CHOScore>
0.0000

> <Gold.PLP.Chemscore.Metal>
0.0000

> <Gold.Chemscore.Hbonds>
donor molecule, donor type, donor heavy atom, donor atom, acceptor molecule, acceptor atom, score
      P1  H  7997  8008       L1    10  0.61
      P1  H  7997  8010       L1     8  0.96

> <Gold.PLP.Chemscore.Internal.Correction>
0.1058

> <Gold.Rescore>
     Score         DG    S(hbond)    S(metal)    S(lipo)     H(rot)  DE(clash)    DE(int)     intcor
     12.60     -14.18       0.36        0.00      94.47       1.39       0.78       0.80       ----

> <Gold.Chemscore.Fitness>
12.6038

> <Gold.Chemscore.DG>
-14.1772

> <Gold.Chemscore.ZeroCoef>
-5.4800

> <Gold.Chemscore.Hbond>
0.3597

> <Gold.Chemscore.Metal>
0.0000

> <Gold.Chemscore.Lipo>
94.4664

> <Gold.Chemscore.Internal_Hbond>
0.0000

> <Gold.Chemscore.DEClash>
0.7782

> <Gold.Chemscore.DEInternal>
0.7953

> <Gold.Chemscore.Rot>
1.3893

> <Gold.Chemscore.Internal.Correction>
   9.000000E+99

> <Gold.Chemscore.Hbonds>
donor molecule, donor type, donor heavy atom, donor atom, acceptor molecule, acceptor atom, score
      P1  H  7997  8008       L1    10  0.24
      P1  H  7997  8010       L1     8  0.02

> <Gold.Chemscore.Hbond.Weighted>
-1.2014

> <Gold.Chemscore.Metal.Weighted>
-0.0000

> <Gold.Chemscore.Lipo.Weighted>
-11.0526

> <Gold.Chemscore.Internal_Hbond.Weighted>
0.0000

> <Gold.Chemscore.DEClash.Weighted>
0.7782

> <Gold.Chemscore.DEInternal.Weighted>
0.7953

> <Gold.Chemscore.Rot.Weighted>
3.5567

> <Gold.Chemscore.Internal.Correction.Weighted>
   9.000000E+99

> <Gold.Protein.RotatedTorsions>
[ 6907 6896 6895 6894 ] final  -56.39 input  -60.11 | X-H torsion
[ 7974 7965 7964 7962 ] final   66.08 input  175.53 | X-H torsion
[ 8008 7997 7996 7995 ] final   17.68 input   59.86 | X-H torsion
[ 10167 10162 10161 10158 ] final  -93.36 input  -65.29 | X-H torsion
[ 10718 10713 10712 10709 ] final  117.27 input   66.30 | X-H torsion
[ 10763 10752 10751 10750 ] final  175.40 input  -60.55 | X-H torsion
[ 11005 11000 10999 10996 ] final -123.11 input  -57.11 | X-H torsion

> <Gold.Protein.ActiveResidues>
 VAL166  LYS551  ARG553  GLY616  TRP617  ASP618  TYR619  PRO620  LYS621  CYS622 
 ASP623  PHE694  ASN695  SER759  ASP760  ASP761  ALA762  ILE779  LEU786  VAL792 
 PHE793  MET794  SER795  GLU796  ALA797  LYS798  CYS799  TRP800  GLU811  SER814 

> <Gold.Protein.RotatedAtoms>
  150.8172  134.7360  159.6739 H   0  0  0  0  0  0  0  0  0  0  0  0  # atno 6907 bound_to 6896
  152.4290  134.5811  159.9958 H   0  0  0  0  0  0  0  0  0  0  0  0  # atno 6908 bound_to 6896
  151.6005  133.3319  159.3082 H   0  0  0  0  0  0  0  0  0  0  0  0  # atno 6909 bound_to 6896
  145.8308  139.3138  143.0988 H   0  0  0  0  0  0  0  0  0  0  0  0  # atno 7974 bound_to 7965
  154.8949  140.2992  155.5350 H   0  0  0  0  0  0  0  0  0  0  0  0  # atno 8008 bound_to 7997
  156.3020  140.2417  156.3904 H   0  0  0  0  0  0  0  0  0  0  0  0  # atno 8009 bound_to 7997
  154.8580  140.0406  157.1636 H   0  0  0  0  0  0  0  0  0  0  0  0  # atno 8010 bound_to 7997
  140.3254  143.3025  152.0000 H   0  0  0  0  0  0  0  0  0  0  0  0  # atno 10167 bound_to 10162
  157.6107  131.1035  150.7592 H   0  0  0  0  0  0  0  0  0  0  0  0  # atno 10718 bound_to 10713
  154.4671  135.2770  155.1670 H   0  0  0  0  0  0  0  0  0  0  0  0  # atno 10763 bound_to 10752
  154.3434  135.6165  153.5611 H   0  0  0  0  0  0  0  0  0  0  0  0  # atno 10764 bound_to 10752
  152.9860  135.5794  154.5045 H   0  0  0  0  0  0  0  0  0  0  0  0  # atno 10765 bound_to 10752
  140.9944  134.0492  157.3615 H   0  0  0  0  0  0  0  0  0  0  0  0  # atno 11005 bound_to 11000
  145.9572  140.8863  143.0229 LP  0  0  0  0  0  0  0  0  0  0  0  0  # atno 17320 bound_to 7965
  144.6740  140.1762  143.7410 LP  0  0  0  0  0  0  0  0  0  0  0  0  # atno 17321 bound_to 7965
  139.4866  144.6277  151.7131 LP  0  0  0  0  0  0  0  0  0  0  0  0  # atno 17342 bound_to 10162
  140.5445  144.0525  150.6101 LP  0  0  0  0  0  0  0  0  0  0  0  0  # atno 17343 bound_to 10162
  156.7970  130.4908  149.5376 LP  0  0  0  0  0  0  0  0  0  0  0  0  # atno 17370 bound_to 10713
  156.1209  130.6109  151.0191 LP  0  0  0  0  0  0  0  0  0  0  0  0  # atno 17371 bound_to 10713
  139.9008  135.0163  156.7257 LP  0  0  0  0  0  0  0  0  0  0  0  0  # atno 17394 bound_to 11000
  140.6989  133.9324  155.8012 LP  0  0  0  0  0  0  0  0  0  0  0  0  # atno 17395 bound_to 11000

$$$$
