AV-unprocessed.smi:3117|AV-procd|sdf|11883|dock6
  -GOLD-   2272017273D 1   1.00000     0.00000
 Structure written by MMmdl.
 36 36  0  0  0  0  0  0  0  0  1 V2000
  151.5504  143.3510  157.5675 C   0  0  0  0  0  0  0  0  0  0  0  0
  151.3160  141.8851  157.9989 C   0  0  1  0  0  0  0  0  0  0  0  0
  151.1597  141.0121  156.8289 N   0  0  0  0  0  0  0  0  0  0  0  0
  150.4064  141.5715  155.7043 C   0  0  0  0  0  0  0  0  0  0  0  0
  149.8133  140.4743  154.7933 C   0  0  0  0  0  0  0  0  0  0  0  0
  150.7611  139.2755  154.5940 C   0  0  0  0  0  0  0  0  0  0  0  0
  148.4681  139.9954  155.3636 C   0  0  0  0  0  0  0  0  0  0  0  0
  149.5305  141.0491  153.5319 O   0  0  0  0  0  0  0  0  0  0  0  0
  152.4547  141.3329  158.9001 C   0  0  2  0  0  0  0  0  0  0  0  0
  152.3066  139.8227  159.1718 C   0  0  0  0  0  0  0  0  0  0  0  0
  152.5740  142.0564  160.1607 N   0  0  0  0  0  0  0  0  0  0  0  0
  153.4131  141.7858  161.2220 C   0  0  0  0  0  0  0  0  0  0  0  0
  153.1782  142.7292  162.1807 C   0  0  0  0  0  0  0  0  0  0  0  0
  152.1652  143.5476  161.6081 C   0  0  0  0  0  0  0  0  0  0  0  0
  151.8063  143.1444  160.4003 N   0  0  0  0  0  0  0  0  0  0  0  0
  151.6407  144.0170  158.4253 H   0  0  0  0  0  0  0  0  0  0  0  0
  150.7246  143.7417  156.9744 H   0  0  0  0  0  0  0  0  0  0  0  0
  152.4617  143.4479  156.9767 H   0  0  0  0  0  0  0  0  0  0  0  0
  150.3937  141.8602  158.5808 H   0  0  0  0  0  0  0  0  0  0  0  0
  152.0710  140.7064  156.5023 H   0  0  0  0  0  0  0  0  0  0  0  0
  149.5971  142.1934  156.0887 H   0  0  0  0  0  0  0  0  0  0  0  0
  151.0385  142.2246  155.1031 H   0  0  0  0  0  0  0  0  0  0  0  0
  151.0252  138.8222  155.5501 H   0  0  0  0  0  0  0  0  0  0  0  0
  151.6888  139.5657  154.0994 H   0  0  0  0  0  0  0  0  0  0  0  0
  150.2979  138.5023  153.9800 H   0  0  0  0  0  0  0  0  0  0  0  0
  148.5994  139.5316  156.3419 H   0  0  0  0  0  0  0  0  0  0  0  0
  147.9965  139.2585  154.7124 H   0  0  0  0  0  0  0  0  0  0  0  0
  147.7685  140.8237  155.4844 H   0  0  0  0  0  0  0  0  0  0  0  0
  149.5096  140.3596  152.8862 H   0  0  0  0  0  0  0  0  0  0  0  0
  153.3992  141.4786  158.3729 H   0  0  0  0  0  0  0  0  0  0  0  0
  152.3542  139.2436  158.2495 H   0  0  0  0  0  0  0  0  0  0  0  0
  151.3560  139.5942  159.6549 H   0  0  0  0  0  0  0  0  0  0  0  0
  153.1047  139.4619  159.8213 H   0  0  0  0  0  0  0  0  0  0  0  0
  154.1011  140.9534  161.2067 H   0  0  0  0  0  0  0  0  0  0  0  0
  153.6572  142.8211  163.1440 H   0  0  0  0  0  0  0  0  0  0  0  0
  151.6834  144.4165  162.0311 H   0  0  0  0  0  0  0  0  0  0  0  0
  1  2  1  0  0  0  0
  1 16  1  0  0  0  0
  1 17  1  0  0  0  0
  1 18  1  0  0  0  0
  2  3  1  0  0  0  0
  2  9  1  0  0  0  0
  2 19  1  0  0  0  0
  3  4  1  0  0  0  0
  3 20  1  0  0  0  0
  4  5  1  0  0  0  0
  4 21  1  0  0  0  0
  4 22  1  0  0  0  0
  5  6  1  0  0  0  0
  5  7  1  0  0  0  0
  5  8  1  0  0  0  0
  6 23  1  0  0  0  0
  6 24  1  0  0  0  0
  6 25  1  0  0  0  0
  7 26  1  0  0  0  0
  7 27  1  0  0  0  0
  7 28  1  0  0  0  0
  8 29  1  0  0  0  0
  9 10  1  0  0  0  0
  9 11  1  0  0  0  0
  9 30  1  0  0  0  0
 10 31  1  0  0  0  0
 10 32  1  0  0  0  0
 10 33  1  0  0  0  0
 11 15  1  0  0  0  0
 11 12  1  0  0  0  0
 12 13  2  0  0  0  0
 12 34  1  0  0  0  0
 13 14  1  0  0  0  0
 13 35  1  0  0  0  0
 14 15  2  0  0  0  0
 14 36  1  0  0  0  0
M  END
> <s_m_source_file>
AV-unprocessed.smi

> <i_m_source_file_index>
3117

> <i_lp_mmshare_version>
43012

> <i_f3d_flags>
0

> <s_epik_input>
W0NIM11DKFtDSDNdKShbT0hdKVtDSDJdW05IXVtDQEBIXShbQ0gzXSlbQ0BIXShbQ0gzXSluMVtjSF1bY0hdW2NIXW4x

> <s_epik_cmdline>
J2VwaWtfcHl0aG9uJywgJy1waCcsICc3LjAnLCAnLXRuJywgJzgnLCAnLW1hJywgJzIwMCcsICctbWV0YWxfYmluZGluZycsICctaW1hZScsICc8aW5maWxlLm1hZT4nLCAnLW9tYWUnLCAnPG91dGZpbGUubWFlPic=

> <r_lp_tautomer_probability>
1

> <r_epik_Ionization_Penalty>
2.13419

> <r_epik_Ionization_Penalty_Charging>
0

> <r_epik_Ionization_Penalty_Neutral>
2.13419

> <r_epik_State_Penalty>
2.27148

> <r_epik_Charging_Adjusted_Penalty>
2.27148

> <i_epik_Tot_Q>
0

> <i_epik_Tot_abs_Q>
0

> <r_epik_Metal_State_Penalty>
2.27029

> <b_epik_Metal_Only>
0

> <s_lp_Force_Field>
OPLS_2005

> <r_lp_Energy>
18.8486

> <b_lp_Chiralities_Consistent>
1

> <s_lp_Variant>
AV-unprocessed.smi:3117-6

> <Gold.Version>
5.8.1

> <Gold.Id.Protein>
6NUR|6NUR_protein|mol2

> <Gold.PLP.Fitness>
41.8516

> <Gold.PLP.PLP>
-38.3875

> <Gold.PLP.part.hbond>
-3.0000

> <Gold.PLP.part.metal>
0.0000

> <Gold.PLP.part.buried>
-3.5371

> <Gold.PLP.part.nonpolar>
-29.7373

> <Gold.PLP.part.repulsive>
0.0515

> <Gold.PLP.ligand.clash>
0.0000

> <Gold.PLP.ligand.torsion>
0.8094

> <Gold.PLP.Chemscore.Hbond>
1.6480

> <Gold.PLP.Chemscore.CHOScore>
0.0000

> <Gold.PLP.Chemscore.Metal>
0.0000

> <Gold.Chemscore.Hbonds>
donor molecule, donor type, donor heavy atom, donor atom, acceptor molecule, acceptor atom, score
      L1  H     8    29       P1  7957  0.86
      P1  H  8011  8017       L1     8  0.80

> <Gold.PLP.Chemscore.Internal.Correction>
0.1389

> <Gold.Rescore>
     Score         DG    S(hbond)    S(metal)    S(lipo)     H(rot)  DE(clash)    DE(int)     intcor
     12.89     -15.06       1.26        0.00      93.73       2.19       0.09       2.07       ----

> <Gold.Chemscore.Fitness>
12.8942

> <Gold.Chemscore.DG>
-15.0614

> <Gold.Chemscore.ZeroCoef>
-5.4800

> <Gold.Chemscore.Hbond>
1.2625

> <Gold.Chemscore.Metal>
0.0000

> <Gold.Chemscore.Lipo>
93.7302

> <Gold.Chemscore.Internal_Hbond>
0.0000

> <Gold.Chemscore.DEClash>
0.0946

> <Gold.Chemscore.DEInternal>
2.0726

> <Gold.Chemscore.Rot>
2.1882

> <Gold.Chemscore.Internal.Correction>
   9.000000E+99

> <Gold.Chemscore.Hbonds>
donor molecule, donor type, donor heavy atom, donor atom, acceptor molecule, acceptor atom, score
      L1  H     8    29       P1  7957  0.85
      P1  H  8011  8017       L1     8  0.11

> <Gold.Chemscore.Hbond.Weighted>
-4.2167

> <Gold.Chemscore.Metal.Weighted>
-0.0000

> <Gold.Chemscore.Lipo.Weighted>
-10.9664

> <Gold.Chemscore.Internal_Hbond.Weighted>
0.0000

> <Gold.Chemscore.DEClash.Weighted>
0.0946

> <Gold.Chemscore.DEInternal.Weighted>
2.0726

> <Gold.Chemscore.Rot.Weighted>
5.6018

> <Gold.Chemscore.Internal.Correction.Weighted>
   9.000000E+99

> <Gold.Protein.RotatedTorsions>
[ 6907 6896 6895 6894 ] final  -77.68 input  -60.11 | X-H torsion
[ 7974 7965 7964 7962 ] final  -50.23 input  175.53 | X-H torsion
[ 8008 7997 7996 7995 ] final   25.83 input   59.86 | X-H torsion
[ 10167 10162 10161 10158 ] final -130.30 input  -65.29 | X-H torsion
[ 10718 10713 10712 10709 ] final   99.34 input   66.30 | X-H torsion
[ 10763 10752 10751 10750 ] final  108.94 input  -60.55 | X-H torsion
[ 11005 11000 10999 10996 ] final   63.68 input  -57.11 | X-H torsion

> <Gold.Protein.ActiveResidues>
 VAL166  LYS551  ARG553  GLY616  TRP617  ASP618  TYR619  PRO620  LYS621  CYS622 
 ASP623  PHE694  ASN695  SER759  ASP760  ASP761  ALA762  ILE779  LEU786  VAL792 
 PHE793  MET794  SER795  GLU796  ALA797  LYS798  CYS799  TRP800  GLU811  SER814 

> <Gold.Protein.RotatedAtoms>
  150.6992  134.4385  159.5281 H   0  0  0  0  0  0  0  0  0  0  0  0  # atno 6907 bound_to 6896
  152.2099  134.8508  160.0507 H   0  0  0  0  0  0  0  0  0  0  0  0  # atno 6908 bound_to 6896
  151.9397  133.3599  159.3997 H   0  0  0  0  0  0  0  0  0  0  0  0  # atno 6909 bound_to 6896
  145.9321  140.7740  142.9594 H   0  0  0  0  0  0  0  0  0  0  0  0  # atno 7974 bound_to 7965
  155.0178  140.3144  155.4805 H   0  0  0  0  0  0  0  0  0  0  0  0  # atno 8008 bound_to 7997
  156.2897  140.2203  156.5237 H   0  0  0  0  0  0  0  0  0  0  0  0  # atno 8009 bound_to 7997
  154.7478  140.0468  157.0855 H   0  0  0  0  0  0  0  0  0  0  0  0  # atno 8010 bound_to 7997
  139.9308  143.6274  152.2530 H   0  0  0  0  0  0  0  0  0  0  0  0  # atno 10167 bound_to 10162
  157.6878  131.0667  150.4934 H   0  0  0  0  0  0  0  0  0  0  0  0  # atno 10718 bound_to 10713
  153.4277  135.3796  155.2151 H   0  0  0  0  0  0  0  0  0  0  0  0  # atno 10763 bound_to 10752
  154.8748  135.3832  154.4306 H   0  0  0  0  0  0  0  0  0  0  0  0  # atno 10764 bound_to 10752
  153.4834  135.7088  153.5988 H   0  0  0  0  0  0  0  0  0  0  0  0  # atno 10765 bound_to 10752
  140.0009  134.6444  155.9933 H   0  0  0  0  0  0  0  0  0  0  0  0  # atno 11005 bound_to 11000
  144.6766  140.2143  143.7373 LP  0  0  0  0  0  0  0  0  0  0  0  0  # atno 17320 bound_to 7965
  145.8413  139.2131  143.1826 LP  0  0  0  0  0  0  0  0  0  0  0  0  # atno 17321 bound_to 7965
  139.6784  144.7657  151.1654 LP  0  0  0  0  0  0  0  0  0  0  0  0  # atno 17342 bound_to 10162
  140.7638  143.5761  150.8944 LP  0  0  0  0  0  0  0  0  0  0  0  0  # atno 17343 bound_to 10162
  156.5259  130.4173  149.6226 LP  0  0  0  0  0  0  0  0  0  0  0  0  # atno 17370 bound_to 10713
  156.3112  130.7230  151.2123 LP  0  0  0  0  0  0  0  0  0  0  0  0  # atno 17371 bound_to 10713
  141.1641  133.6537  156.4418 LP  0  0  0  0  0  0  0  0  0  0  0  0  # atno 17394 bound_to 11000
  140.4730  134.6735  157.5138 LP  0  0  0  0  0  0  0  0  0  0  0  0  # atno 17395 bound_to 11000

$$$$
