AV-unprocessed.smi:102|AV-procd|sdf|973|dock5
  -GOLD-   2262017523D 1   1.00000     0.00000
 Structure written by MMmdl.
 43 44  0  0  0  0  0  0  0  0  2 V2000
  144.6398  137.5853  161.0208 C   0  0  0  0  0  0  0  0  0  0  0  0
  145.2753  137.5093  159.6384 C   0  0  0  0  0  0  0  0  0  0  0  0
  145.4167  138.5146  158.9421 O   0  0  0  0  0  0  0  0  0  0  0  0
  145.6330  136.2601  159.3048 O   0  0  0  0  0  0  0  0  0  0  0  0
  146.1281  135.9887  158.0030 C   0  0  0  0  0  0  0  0  0  0  0  0
  147.4400  136.7598  157.7722 C   0  0  2  0  0  0  0  0  0  0  0  0
  147.6044  136.8952  156.3592 O   0  0  0  0  0  0  0  0  0  0  0  0
  148.7271  136.1921  155.9053 C   0  0  1  0  0  0  0  0  0  0  0  0
  149.8385  137.1667  155.5700 N   0  0  0  0  0  0  0  0  0  0  0  0
  149.6474  138.5371  155.6501 C   0  0  0  0  0  0  0  0  0  0  0  0
  150.6444  139.4006  155.3703 C   0  0  0  0  0  0  0  0  0  0  0  0
  150.4282  140.7243  155.4611 F   0  0  0  0  0  0  0  0  0  0  0  0
  151.9545  138.8889  154.9741 C   0  0  0  0  0  0  0  0  0  0  0  0
  152.8601  139.6817  154.7206 O   0  0  0  0  0  0  0  0  0  0  0  0
  152.1159  137.5361  154.9037 N   0  5  0  0  0  0  0  0  0  0  0  0
  151.1108  136.6577  155.1902 C   0  0  0  0  0  0  0  0  0  0  0  0
  151.2517  135.4361  155.1404 O   0  0  0  0  0  0  0  0  0  0  0  0
  149.1763  135.2693  157.0434 C   0  0  2  0  0  0  0  0  0  0  0  0
  148.5004  134.0207  156.9319 O   0  0  0  0  0  0  0  0  0  0  0  0
  148.8190  132.9927  157.7363 C   0  0  0  0  0  0  0  0  0  0  0  0
  147.9245  131.7808  157.5098 C   0  0  0  0  0  0  0  0  0  0  0  0
  149.7138  132.9776  158.5808 O   0  0  0  0  0  0  0  0  0  0  0  0
  148.7152  136.0520  158.2595 C   0  0  2  0  0  0  0  0  0  0  0  0
  148.5624  135.2131  159.3997 O   0  0  0  0  0  0  0  0  0  0  0  0
  148.0370  135.7019  160.5360 C   0  0  0  0  0  0  0  0  0  0  0  0
  147.7779  134.6142  161.5693 C   0  0  0  0  0  0  0  0  0  0  0  0
  147.7620  136.8804  160.7610 O   0  0  0  0  0  0  0  0  0  0  0  0
  144.5774  136.5968  161.4769 H   0  0  0  0  0  0  0  0  0  0  0  0
  143.6322  137.9949  160.9497 H   0  0  0  0  0  0  0  0  0  0  0  0
  145.2303  138.2296  161.6721 H   0  0  0  0  0  0  0  0  0  0  0  0
  146.2787  134.9200  157.8468 H   0  0  0  0  0  0  0  0  0  0  0  0
  145.3758  136.3150  157.2840 H   0  0  0  0  0  0  0  0  0  0  0  0
  147.3594  137.7534  158.2144 H   0  0  0  0  0  0  0  0  0  0  0  0
  148.4930  135.6816  154.9693 H   0  0  0  0  0  0  0  0  0  0  0  0
  148.6907  138.9399  155.9449 H   0  0  0  0  0  0  0  0  0  0  0  0
  150.2598  135.1415  157.0445 H   0  0  0  0  0  0  0  0  0  0  0  0
  147.4909  131.8007  156.5096 H   0  0  0  0  0  0  0  0  0  0  0  0
  147.1141  131.7706  158.2386 H   0  0  0  0  0  0  0  0  0  0  0  0
  148.4985  130.8604  157.6182 H   0  0  0  0  0  0  0  0  0  0  0  0
  149.4756  136.8098  158.4553 H   0  0  0  0  0  0  0  0  0  0  0  0
  148.5874  133.8838  161.5675 H   0  0  0  0  0  0  0  0  0  0  0  0
  146.8445  134.0981  161.3453 H   0  0  0  0  0  0  0  0  0  0  0  0
  147.7046  135.0453  162.5679 H   0  0  0  0  0  0  0  0  0  0  0  0
  1  2  1  0  0  0  0
  1 28  1  0  0  0  0
  1 29  1  0  0  0  0
  1 30  1  0  0  0  0
  2  3  2  0  0  0  0
  2  4  1  0  0  0  0
  4  5  1  0  0  0  0
  5  6  1  0  0  0  0
  5 31  1  0  0  0  0
  5 32  1  0  0  0  0
  6 23  1  0  0  0  0
  6  7  1  0  0  0  0
  6 33  1  0  0  0  0
  7  8  1  0  0  0  0
  8  9  1  0  0  0  0
  8 18  1  0  0  0  0
  8 34  1  0  0  0  0
  9 16  1  0  0  0  0
  9 10  1  0  0  0  0
 10 11  2  0  0  0  0
 10 35  1  0  0  0  0
 11 12  1  0  0  0  0
 11 13  1  0  0  0  0
 13 14  2  0  0  0  0
 13 15  1  0  0  0  0
 15 16  1  0  0  0  0
 16 17  2  0  0  0  0
 18 19  1  0  0  0  0
 18 23  1  0  0  0  0
 18 36  1  0  0  0  0
 19 20  1  0  0  0  0
 20 21  1  0  0  0  0
 20 22  2  0  0  0  0
 21 37  1  0  0  0  0
 21 38  1  0  0  0  0
 21 39  1  0  0  0  0
 23 24  1  0  0  0  0
 23 40  1  0  0  0  0
 24 25  1  0  0  0  0
 25 26  1  0  0  0  0
 25 27  2  0  0  0  0
 26 41  1  0  0  0  0
 26 42  1  0  0  0  0
 26 43  1  0  0  0  0
M  CHG  1  15  -1
M  END
> <s_m_source_file>
AV-unprocessed.smi

> <i_m_source_file_index>
102

> <i_lp_mmshare_version>
43012

> <i_f3d_flags>
0

> <s_epik_input>
W0NIM11DKD1PKU9bQ0gyXVtDQEBIXTFPW0NASF0oW0NAQEhdKE9DKD1PKVtDSDNdKVtDQEhdMU9DKD1PKVtDSDNdKW4yW2NIXWMoRiljKD1PKVtuSF1jMj1P

> <s_epik_cmdline>
J2VwaWtfcHl0aG9uJywgJy1waCcsICc3LjAnLCAnLXRuJywgJzgnLCAnLW1hJywgJzIwMCcsICctbWV0YWxfYmluZGluZycsICctaW1hZScsICc8aW5maWxlLm1hZT4nLCAnLW9tYWUnLCAnPG91dGZpbGUubWFlPic=

> <r_epik_Ionization_Penalty>
1.40304

> <r_epik_Ionization_Penalty_Charging>
1.43915e-08

> <r_epik_Ionization_Penalty_Neutral>
1.40304

> <r_epik_State_Penalty>
1.48536

> <r_epik_Charging_Adjusted_Penalty>
1.48536

> <i_epik_Tot_Q>
-1

> <i_epik_Tot_abs_Q>
1

> <r_epik_Metal_State_Penalty>
0.00663881

> <b_epik_Metal_Only>
0

> <s_epik_Chemistry_Notes>
This compound has an ester and may undergo hydrolysis at high or low pH. This compound contains an acetal/aminal-like group ( X-CH(R)-Y where X, Y are N, S, or O) that may be acid/base labile, releasing an aldehyde.

> <s_lp_Force_Field>
OPLS_2005

> <r_lp_Energy>
27.0853

> <b_lp_Chiralities_Consistent>
1

> <s_lp_Variant>
AV-unprocessed.smi:102-29

> <Gold.Version>
5.8.1

> <Gold.Id.Protein>
6NUR|6NUR_protein|mol2

> <Gold.PLP.Fitness>
41.9140

> <Gold.PLP.PLP>
-28.2352

> <Gold.PLP.part.hbond>
-7.7775

> <Gold.PLP.part.metal>
0.0000

> <Gold.PLP.part.buried>
-3.7089

> <Gold.PLP.part.nonpolar>
-17.3189

> <Gold.PLP.part.repulsive>
0.2499

> <Gold.PLP.ligand.clash>
0.0000

> <Gold.PLP.ligand.torsion>
0.4773

> <Gold.PLP.Chemscore.Hbond>
4.8405

> <Gold.PLP.Chemscore.CHOScore>
0.0000

> <Gold.PLP.Chemscore.Metal>
0.0000

> <Gold.Chemscore.Hbonds>
donor molecule, donor type, donor heavy atom, donor atom, acceptor molecule, acceptor atom, score
      P1  H  6896  6908       L1    22  0.99
      P1  H  6931  6943       L1    27  0.58
      P1  H  6934  6947       L1    27  0.48
      P1  H  7989  7998       L1    14  0.30
      P1  H  7997  8008       L1    14  0.98
      P1  H 10752 10765       L1    17  0.73

> <Gold.PLP.Chemscore.Internal.Correction>
0.1118

> <Gold.Rescore>
     Score         DG    S(hbond)    S(metal)    S(lipo)     H(rot)  DE(clash)    DE(int)     intcor
      6.63     -10.86       3.79        0.00      25.29       4.00       0.01       4.21       ----

> <Gold.Chemscore.Fitness>
6.6346

> <Gold.Chemscore.DG>
-10.8557

> <Gold.Chemscore.ZeroCoef>
-5.4800

> <Gold.Chemscore.Hbond>
3.7857

> <Gold.Chemscore.Metal>
0.0000

> <Gold.Chemscore.Lipo>
25.2901

> <Gold.Chemscore.Internal_Hbond>
0.0000

> <Gold.Chemscore.DEClash>
0.0073

> <Gold.Chemscore.DEInternal>
4.2138

> <Gold.Chemscore.Rot>
3.9951

> <Gold.Chemscore.Internal.Correction>
   9.000000E+99

> <Gold.Chemscore.Hbonds>
donor molecule, donor type, donor heavy atom, donor atom, acceptor molecule, acceptor atom, score
      P1  H  6896  6908       L1    22  0.91
      P1  H  6931  6943       L1    27  0.55
      P1  H  6934  6947       L1    27  0.47
      P1  H  7989  7998       L1    14  0.04
      P1  H  7997  8008       L1    14  0.92
      P1  H 10752 10765       L1    17  0.09

> <Gold.Chemscore.Hbond.Weighted>
-12.6441

> <Gold.Chemscore.Metal.Weighted>
-0.0000

> <Gold.Chemscore.Lipo.Weighted>
-2.9589

> <Gold.Chemscore.Internal_Hbond.Weighted>
0.0000

> <Gold.Chemscore.DEClash.Weighted>
0.0073

> <Gold.Chemscore.DEInternal.Weighted>
4.2138

> <Gold.Chemscore.Rot.Weighted>
10.2274

> <Gold.Chemscore.Internal.Correction.Weighted>
   9.000000E+99

> <Gold.Protein.RotatedTorsions>
[ 6907 6896 6895 6894 ] final  103.14 input  -60.11 | X-H torsion
[ 7974 7965 7964 7962 ] final  -76.88 input  175.53 | X-H torsion
[ 8008 7997 7996 7995 ] final   -8.24 input   59.86 | X-H torsion
[ 10167 10162 10161 10158 ] final -142.82 input  -65.29 | X-H torsion
[ 10718 10713 10712 10709 ] final  -43.45 input   66.30 | X-H torsion
[ 10763 10752 10751 10750 ] final -162.47 input  -60.55 | X-H torsion
[ 11005 11000 10999 10996 ] final   79.68 input  -57.11 | X-H torsion

> <Gold.Protein.ActiveResidues>
 VAL166  LYS551  ARG553  GLY616  TRP617  ASP618  TYR619  PRO620  LYS621  CYS622 
 ASP623  PHE694  ASN695  SER759  ASP760  ASP761  ALA762  ILE779  LEU786  VAL792 
 PHE793  MET794  SER795  GLU796  ALA797  LYS798  CYS799  TRP800  GLU811  SER814 

> <Gold.Protein.RotatedAtoms>
  152.5304  133.9870  159.7832 H   0  0  0  0  0  0  0  0  0  0  0  0  # atno 6907 bound_to 6896
  151.0113  133.5955  159.2689 H   0  0  0  0  0  0  0  0  0  0  0  0  # atno 6908 bound_to 6896
  151.3028  135.0780  159.9298 H   0  0  0  0  0  0  0  0  0  0  0  0  # atno 6909 bound_to 6896
  145.6070  140.9395  143.1210 H   0  0  0  0  0  0  0  0  0  0  0  0  # atno 7974 bound_to 7965
  154.5760  140.2386  155.8121 H   0  0  0  0  0  0  0  0  0  0  0  0  # atno 8008 bound_to 7997
  156.2144  140.3016  155.9762 H   0  0  0  0  0  0  0  0  0  0  0  0  # atno 8009 bound_to 7997
  155.2625  140.0415  157.2989 H   0  0  0  0  0  0  0  0  0  0  0  0  # atno 8010 bound_to 7997
  139.8052  143.7778  152.2660 H   0  0  0  0  0  0  0  0  0  0  0  0  # atno 10167 bound_to 10162
  156.2489  130.4186  149.8673 H   0  0  0  0  0  0  0  0  0  0  0  0  # atno 10718 bound_to 10713
  154.7211  135.3026  154.9046 H   0  0  0  0  0  0  0  0  0  0  0  0  # atno 10763 bound_to 10752
  153.9918  135.6718  153.4758 H   0  0  0  0  0  0  0  0  0  0  0  0  # atno 10764 bound_to 10752
  153.0835  135.4996  154.8467 H   0  0  0  0  0  0  0  0  0  0  0  0  # atno 10765 bound_to 10752
  139.9163  134.7861  156.1810 H   0  0  0  0  0  0  0  0  0  0  0  0  # atno 11005 bound_to 11000
  144.7286  139.7798  143.7356 LP  0  0  0  0  0  0  0  0  0  0  0  0  # atno 17320 bound_to 7965
  146.1533  139.4623  143.0035 LP  0  0  0  0  0  0  0  0  0  0  0  0  # atno 17321 bound_to 7965
  139.7911  144.7410  150.9954 LP  0  0  0  0  0  0  0  0  0  0  0  0  # atno 17342 bound_to 10162
  140.7819  143.4442  151.0507 LP  0  0  0  0  0  0  0  0  0  0  0  0  # atno 17343 bound_to 10162
  156.6228  130.8633  151.3479 LP  0  0  0  0  0  0  0  0  0  0  0  0  # atno 17370 bound_to 10713
  157.7206  130.9554  150.1425 LP  0  0  0  0  0  0  0  0  0  0  0  0  # atno 17371 bound_to 10713
  141.0642  133.6827  156.2012 LP  0  0  0  0  0  0  0  0  0  0  0  0  # atno 17394 bound_to 11000
  140.6612  134.4966  157.5583 LP  0  0  0  0  0  0  0  0  0  0  0  0  # atno 17395 bound_to 11000

$$$$
