AV-unprocessed.smi:886|AV-procd|sdf|4051|dock5
  -GOLD-   22720 1543D 1   1.00000     0.00000
 Structure written by MMmdl.
 35 37  0  0  0  0  0  0  0  0  1 V2000
  155.3451  140.3625  160.6983 C   0  0  0  0  0  0  0  0  0  0  0  0
  154.2979  141.3082  160.3450 N   0  0  0  0  0  0  0  0  0  0  0  0
  153.4319  141.1332  159.3349 C   0  0  0  0  0  0  0  0  0  0  0  0
  153.4521  140.1516  158.5910 O   0  0  0  0  0  0  0  0  0  0  0  0
  152.4370  142.2493  159.1408 C   0  0  0  0  0  0  0  0  0  0  0  0
  152.6298  143.4785  159.8144 C   0  0  0  0  0  0  0  0  0  0  0  0
  151.6904  144.5129  159.6572 C   0  0  0  0  0  0  0  0  0  0  0  0
  150.5781  144.2802  158.8308 C   0  0  0  0  0  0  0  0  0  0  0  0
  150.3717  143.1149  158.1856 N   0  0  0  0  0  0  0  0  0  0  0  0
  151.2712  142.1113  158.3324 C   0  0  0  0  0  0  0  0  0  0  0  0
  151.0212  140.9231  157.6230 N   0  0  0  0  0  0  0  0  0  0  0  0
  151.2024  140.8719  156.1753 C   0  0  1  0  0  0  0  0  0  0  0  0
  152.2008  139.7964  155.7398 C   0  0  0  0  0  0  0  0  0  0  0  0
  151.3757  138.9895  154.7278 C   0  0  1  0  0  0  0  0  0  0  0  0
  150.3311  138.1098  155.4271 C   0  0  0  0  0  0  0  0  0  0  0  0
  149.3043  139.1467  155.8772 C   0  0  0  0  0  0  0  0  0  0  0  0
  149.9413  140.4589  155.3881 C   0  0  2  0  0  0  0  0  0  0  0  0
  150.5446  140.0039  154.1886 O   0  0  0  0  0  0  0  0  0  0  0  0
  155.9002  140.7279  161.5622 H   0  0  0  0  0  0  0  0  0  0  0  0
  156.0460  140.2333  159.8726 H   0  0  0  0  0  0  0  0  0  0  0  0
  154.9212  139.3899  160.9516 H   0  0  0  0  0  0  0  0  0  0  0  0
  154.2268  142.1489  160.8999 H   0  0  0  0  0  0  0  0  0  0  0  0
  153.4860  143.6342  160.4549 H   0  0  0  0  0  0  0  0  0  0  0  0
  151.8179  145.4597  160.1604 H   0  0  0  0  0  0  0  0  0  0  0  0
  149.8343  145.0492  158.6840 H   0  0  0  0  0  0  0  0  0  0  0  0
  150.3357  140.2934  158.0154 H   0  0  0  0  0  0  0  0  0  0  0  0
  151.5586  141.8390  155.8170 H   0  0  0  0  0  0  0  0  0  0  0  0
  153.0641  140.2565  155.2580 H   0  0  0  0  0  0  0  0  0  0  0  0
  152.5641  139.1740  156.5588 H   0  0  0  0  0  0  0  0  0  0  0  0
  151.9767  138.4589  153.9891 H   0  0  0  0  0  0  0  0  0  0  0  0
  149.8816  137.4046  154.7272 H   0  0  0  0  0  0  0  0  0  0  0  0
  150.7540  137.5447  156.2586 H   0  0  0  0  0  0  0  0  0  0  0  0
  148.3511  138.9763  155.3757 H   0  0  0  0  0  0  0  0  0  0  0  0
  149.1229  139.1307  156.9518 H   0  0  0  0  0  0  0  0  0  0  0  0
  149.2245  141.2679  155.2443 H   0  0  0  0  0  0  0  0  0  0  0  0
  1  2  1  0  0  0  0
  1 19  1  0  0  0  0
  1 20  1  0  0  0  0
  1 21  1  0  0  0  0
  2  3  1  0  0  0  0
  2 22  1  0  0  0  0
  3  4  2  0  0  0  0
  3  5  1  0  0  0  0
  5 10  1  0  0  0  0
  5  6  2  0  0  0  0
  6  7  1  0  0  0  0
  6 23  1  0  0  0  0
  7  8  2  0  0  0  0
  7 24  1  0  0  0  0
  8  9  1  0  0  0  0
  8 25  1  0  0  0  0
  9 10  2  0  0  0  0
 10 11  1  0  0  0  0
 11 12  1  0  0  0  0
 11 26  1  0  0  0  0
 12 17  1  0  0  0  0
 12 13  1  0  0  0  0
 12 27  1  0  0  0  0
 13 14  1  0  0  0  0
 13 28  1  0  0  0  0
 13 29  1  0  0  0  0
 14 18  1  0  0  0  0
 14 15  1  0  0  0  0
 14 30  1  0  0  0  0
 15 16  1  0  0  0  0
 15 31  1  0  0  0  0
 15 32  1  0  0  0  0
 16 17  1  0  0  0  0
 16 33  1  0  0  0  0
 16 34  1  0  0  0  0
 17 18  1  0  0  0  0
 17 35  1  0  0  0  0
M  END
> <s_m_source_file>
AV-unprocessed.smi

> <i_m_source_file_index>
886

> <i_lp_mmshare_version>
43012

> <i_f3d_flags>
0

> <s_epik_input>
W0NIM11bTkhdQyg9TyljMVtjSF1bY0hdW2NIXW5jMVtOSF1bQ0BIXShbQ0gyXVtDQEhdMjMpW0NASF0oTzMpW0NIMl1bQ0gyXTI=

> <s_epik_cmdline>
J2VwaWtfcHl0aG9uJywgJy1waCcsICc3LjAnLCAnLXRuJywgJzgnLCAnLW1hJywgJzIwMCcsICctbWV0YWxfYmluZGluZycsICctaW1hZScsICc8aW5maWxlLm1hZT4nLCAnLW9tYWUnLCAnPG91dGZpbGUubWFlPic=

> <r_lp_tautomer_probability>
1

> <r_epik_Ionization_Penalty>
0.0065447

> <r_epik_Ionization_Penalty_Charging>
0

> <r_epik_Ionization_Penalty_Neutral>
0.0065447

> <r_epik_State_Penalty>
0.00484214

> <r_epik_Charging_Adjusted_Penalty>
0.00484214

> <i_epik_Tot_Q>
0

> <i_epik_Tot_abs_Q>
0

> <r_epik_Metal_State_Penalty>
-0

> <b_epik_Metal_Only>
0

> <s_lp_Force_Field>
OPLS_2005

> <r_lp_Energy>
46.6605

> <b_lp_Chiralities_Consistent>
1

> <s_lp_Variant>
AV-unprocessed.smi:886-4

> <Gold.Version>
5.8.1

> <Gold.Id.Protein>
6NUR|6NUR_protein|mol2

> <Gold.PLP.Fitness>
42.7311

> <Gold.PLP.PLP>
-35.3575

> <Gold.PLP.part.hbond>
-1.9455

> <Gold.PLP.part.metal>
0.0000

> <Gold.PLP.part.buried>
-4.4915

> <Gold.PLP.part.nonpolar>
-28.9469

> <Gold.PLP.part.repulsive>
0.3927

> <Gold.PLP.ligand.clash>
0.0000

> <Gold.PLP.ligand.torsion>
0.7845

> <Gold.PLP.Chemscore.Hbond>
1.9760

> <Gold.PLP.Chemscore.CHOScore>
1.0000

> <Gold.PLP.Chemscore.Metal>
0.0000

> <Gold.Chemscore.Hbonds>
donor molecule, donor type, donor heavy atom, donor atom, acceptor molecule, acceptor atom, score
      P1  H  7989  7998       L1    18  1.00
      P1  H  7997  8010       L1     4  0.96
      L1  C     8    25       P1  8029  0.95

> <Gold.PLP.Chemscore.Internal.Correction>
0.0146

> <Gold.Rescore>
     Score         DG    S(hbond)    S(metal)    S(lipo)     H(rot)  DE(clash)    DE(int)     intcor
     17.87     -18.84       1.79        0.00      84.85       1.00       0.08       0.89       ----

> <Gold.Chemscore.Fitness>
17.8713

> <Gold.Chemscore.DG>
-18.8369

> <Gold.Chemscore.ZeroCoef>
-5.4800

> <Gold.Chemscore.Hbond>
1.7933

> <Gold.Chemscore.Metal>
0.0000

> <Gold.Chemscore.Lipo>
84.8477

> <Gold.Chemscore.Internal_Hbond>
0.0000

> <Gold.Chemscore.DEClash>
0.0775

> <Gold.Chemscore.DEInternal>
0.8881

> <Gold.Chemscore.Rot>
1.0000

> <Gold.Chemscore.Internal.Correction>
   9.000000E+99

> <Gold.Chemscore.Hbonds>
donor molecule, donor type, donor heavy atom, donor atom, acceptor molecule, acceptor atom, score
      P1  H  7989  7998       L1    18  0.24
      P1  H  7997  8010       L1     4  0.90

> <Gold.Chemscore.Hbond.Weighted>
-5.9898

> <Gold.Chemscore.Metal.Weighted>
-0.0000

> <Gold.Chemscore.Lipo.Weighted>
-9.9272

> <Gold.Chemscore.Internal_Hbond.Weighted>
0.0000

> <Gold.Chemscore.DEClash.Weighted>
0.0775

> <Gold.Chemscore.DEInternal.Weighted>
0.8881

> <Gold.Chemscore.Rot.Weighted>
2.5600

> <Gold.Chemscore.Internal.Correction.Weighted>
   9.000000E+99

> <Gold.Protein.RotatedTorsions>
[ 6907 6896 6895 6894 ] final  127.71 input  -60.11 | X-H torsion
[ 7974 7965 7964 7962 ] final  -59.01 input  175.53 | X-H torsion
[ 8008 7997 7996 7995 ] final   22.10 input   59.86 | X-H torsion
[ 10167 10162 10161 10158 ] final  -28.14 input  -65.29 | X-H torsion
[ 10718 10713 10712 10709 ] final   26.46 input   66.30 | X-H torsion
[ 10763 10752 10751 10750 ] final  -32.72 input  -60.55 | X-H torsion
[ 11005 11000 10999 10996 ] final -171.13 input  -57.11 | X-H torsion

> <Gold.Protein.ActiveResidues>
 VAL166  LYS551  ARG553  GLY616  TRP617  ASP618  TYR619  PRO620  LYS621  CYS622 
 ASP623  PHE694  ASN695  SER759  ASP760  ASP761  ALA762  ILE779  LEU786  VAL792 
 PHE793  MET794  SER795  GLU796  ALA797  LYS798  CYS799  TRP800  GLU811  SER814 

> <Gold.Protein.RotatedAtoms>
  152.3787  133.6516  159.6143 H   0  0  0  0  0  0  0  0  0  0  0  0  # atno 6907 bound_to 6896
  150.7724  133.9150  159.3390 H   0  0  0  0  0  0  0  0  0  0  0  0  # atno 6908 bound_to 6896
  151.6960  135.0939  160.0293 H   0  0  0  0  0  0  0  0  0  0  0  0  # atno 6909 bound_to 6896
  145.8325  140.8470  143.0076 H   0  0  0  0  0  0  0  0  0  0  0  0  # atno 7974 bound_to 7965
  154.9605  140.3077  155.5033 H   0  0  0  0  0  0  0  0  0  0  0  0  # atno 8008 bound_to 7997
  156.2977  140.2302  156.4629 H   0  0  0  0  0  0  0  0  0  0  0  0  # atno 8009 bound_to 7997
  154.7969  140.0436  157.1232 H   0  0  0  0  0  0  0  0  0  0  0  0  # atno 8010 bound_to 7997
  140.7272  143.4034  151.1226 H   0  0  0  0  0  0  0  0  0  0  0  0  # atno 10167 bound_to 10162
  157.2071  130.6916  149.6212 H   0  0  0  0  0  0  0  0  0  0  0  0  # atno 10718 bound_to 10713
  153.8184  135.6876  153.4830 H   0  0  0  0  0  0  0  0  0  0  0  0  # atno 10763 bound_to 10752
  153.1584  135.4589  154.9736 H   0  0  0  0  0  0  0  0  0  0  0  0  # atno 10764 bound_to 10752
  154.7938  135.3311  154.7658 H   0  0  0  0  0  0  0  0  0  0  0  0  # atno 10765 bound_to 10752
  140.5117  134.5795  157.5021 H   0  0  0  0  0  0  0  0  0  0  0  0  # atno 11005 bound_to 11000
  144.6739  140.0693  143.7473 LP  0  0  0  0  0  0  0  0  0  0  0  0  # atno 17320 bound_to 7965
  145.9555  139.2763  143.1187 LP  0  0  0  0  0  0  0  0  0  0  0  0  # atno 17321 bound_to 7965
  139.7657  143.8568  152.3110 LP  0  0  0  0  0  0  0  0  0  0  0  0  # atno 17342 bound_to 10162
  139.8469  144.7183  150.9261 LP  0  0  0  0  0  0  0  0  0  0  0  0  # atno 17343 bound_to 10162
  155.9694  130.4563  150.5922 LP  0  0  0  0  0  0  0  0  0  0  0  0  # atno 17370 bound_to 10713
  157.3710  131.0765  151.1558 LP  0  0  0  0  0  0  0  0  0  0  0  0  # atno 17371 bound_to 10713
  139.9655  134.7380  156.0147 LP  0  0  0  0  0  0  0  0  0  0  0  0  # atno 17394 bound_to 11000
  141.1382  133.6570  156.3654 LP  0  0  0  0  0  0  0  0  0  0  0  0  # atno 17395 bound_to 11000

$$$$
