AV-unprocessed.smi:2410|AV-procd|sdf|9526|dock2
  -GOLD-   2272013153D 1   1.00000     0.00000
 Structure written by MMmdl.
 46 48  0  0  0  0  0  0  0  0  1 V2000
  153.4246  142.4240  161.7329 C   0  0  0  0  0  0  0  0  0  0  0  0
  152.7977  142.1749  160.3725 C   0  0  0  0  0  0  0  0  0  0  0  0
  153.1234  140.9913  159.6720 C   0  0  0  0  0  0  0  0  0  0  0  0
  152.5580  140.7196  158.4068 C   0  0  0  0  0  0  0  0  0  0  0  0
  152.7304  139.6403  157.5565 N   0  0  0  0  0  0  0  0  0  0  0  0
  151.9342  139.9679  156.5426 C   0  0  0  0  0  0  0  0  0  0  0  0
  151.2651  141.1330  156.6365 N   0  0  0  0  0  0  0  0  0  0  0  0
  150.3422  141.7014  155.6713 C   0  0  0  0  0  0  0  0  0  0  0  0
  149.5137  140.6199  154.9516 C   0  0  2  0  0  0  0  0  0  0  0  0
  150.3333  140.0078  153.9739 O   0  0  0  0  0  0  0  0  0  0  0  0
  148.2696  141.2137  154.2565 C   0  0  0  0  0  0  0  0  0  0  0  0
  147.2839  141.7159  155.2279 N   0  0  0  0  0  0  0  0  0  0  0  0
  147.2888  141.1053  156.4923 C   0  0  0  0  0  0  0  0  0  0  0  0
  146.4630  141.4615  157.4214 N   0  0  0  0  0  0  0  0  0  0  0  0
  145.5403  142.4834  157.1799 C   0  0  0  0  0  0  0  0  0  0  0  0
  144.6134  142.8170  158.3355 C   0  0  0  0  0  0  0  0  0  0  0  0
  145.4944  143.1261  155.9808 C   0  0  0  0  0  0  0  0  0  0  0  0
  144.5147  144.2485  155.6619 C   0  0  0  0  0  0  0  0  0  0  0  0
  146.4316  142.7350  154.9155 C   0  0  0  0  0  0  0  0  0  0  0  0
  146.4565  143.2835  153.8117 O   0  0  0  0  0  0  0  0  0  0  0  0
  151.6509  141.6723  157.8581 C   0  0  0  0  0  0  0  0  0  0  0  0
  151.3219  142.8552  158.5430 C   0  0  0  0  0  0  0  0  0  0  0  0
  151.8956  143.1109  159.8058 C   0  0  0  0  0  0  0  0  0  0  0  0
  151.5304  144.3896  160.5390 C   0  0  0  0  0  0  0  0  0  0  0  0
  154.0692  141.5971  162.0317 H   0  0  0  0  0  0  0  0  0  0  0  0
  152.6523  142.5379  162.4941 H   0  0  0  0  0  0  0  0  0  0  0  0
  154.0300  143.3304  161.7141 H   0  0  0  0  0  0  0  0  0  0  0  0
  153.8108  140.2786  160.1032 H   0  0  0  0  0  0  0  0  0  0  0  0
  151.8272  139.3218  155.6835 H   0  0  0  0  0  0  0  0  0  0  0  0
  149.6827  142.3861  156.2061 H   0  0  0  0  0  0  0  0  0  0  0  0
  150.9024  142.3028  154.9538 H   0  0  0  0  0  0  0  0  0  0  0  0
  149.2172  139.8625  155.6784 H   0  0  0  0  0  0  0  0  0  0  0  0
  149.8420  139.9377  153.1698 H   0  0  0  0  0  0  0  0  0  0  0  0
  148.5712  142.0481  153.6205 H   0  0  0  0  0  0  0  0  0  0  0  0
  147.8358  140.4943  153.5586 H   0  0  0  0  0  0  0  0  0  0  0  0
  148.0336  140.3202  156.6323 H   0  0  0  0  0  0  0  0  0  0  0  0
  143.5732  142.6645  158.0469 H   0  0  0  0  0  0  0  0  0  0  0  0
  144.7428  143.8556  158.6416 H   0  0  0  0  0  0  0  0  0  0  0  0
  144.8149  142.1854  159.2017 H   0  0  0  0  0  0  0  0  0  0  0  0
  145.0576  145.1615  155.4143 H   0  0  0  0  0  0  0  0  0  0  0  0
  143.8434  144.4804  156.4871 H   0  0  0  0  0  0  0  0  0  0  0  0
  143.8978  143.9774  154.8042 H   0  0  0  0  0  0  0  0  0  0  0  0
  150.6306  143.5573  158.1005 H   0  0  0  0  0  0  0  0  0  0  0  0
  150.8754  145.0200  159.9366 H   0  0  0  0  0  0  0  0  0  0  0  0
  152.4246  144.9673  160.7736 H   0  0  0  0  0  0  0  0  0  0  0  0
  151.0118  144.1594  161.4699 H   0  0  0  0  0  0  0  0  0  0  0  0
  1  2  1  0  0  0  0
  1 25  1  0  0  0  0
  1 26  1  0  0  0  0
  1 27  1  0  0  0  0
  2 23  1  0  0  0  0
  2  3  2  0  0  0  0
  3  4  1  0  0  0  0
  3 28  1  0  0  0  0
  4 21  2  0  0  0  0
  4  5  1  0  0  0  0
  5  6  2  0  0  0  0
  6  7  1  0  0  0  0
  6 29  1  0  0  0  0
  7  8  1  0  0  0  0
  7 21  1  0  0  0  0
  8  9  1  0  0  0  0
  8 30  1  0  0  0  0
  8 31  1  0  0  0  0
  9 10  1  0  0  0  0
  9 11  1  0  0  0  0
  9 32  1  0  0  0  0
 10 33  1  0  0  0  0
 11 12  1  0  0  0  0
 11 34  1  0  0  0  0
 11 35  1  0  0  0  0
 12 19  1  0  0  0  0
 12 13  1  0  0  0  0
 13 14  2  0  0  0  0
 13 36  1  0  0  0  0
 14 15  1  0  0  0  0
 15 16  1  0  0  0  0
 15 17  2  0  0  0  0
 16 37  1  0  0  0  0
 16 38  1  0  0  0  0
 16 39  1  0  0  0  0
 17 18  1  0  0  0  0
 17 19  1  0  0  0  0
 18 40  1  0  0  0  0
 18 41  1  0  0  0  0
 18 42  1  0  0  0  0
 19 20  2  0  0  0  0
 21 22  1  0  0  0  0
 22 23  2  0  0  0  0
 22 43  1  0  0  0  0
 23 24  1  0  0  0  0
 24 44  1  0  0  0  0
 24 45  1  0  0  0  0
 24 46  1  0  0  0  0
M  END
> <s_m_source_file>
AV-unprocessed.smi

> <i_m_source_file_index>
2410

> <i_lp_mmshare_version>
43012

> <i_f3d_flags>
0

> <s_epik_input>
W0NIM11jKFtjSF0xKWMoW0NIM10pW2NIXWMoYzEyKW4oW2NIXW4yKVtDSDJdW0NASF0oW09IXSlbQ0gyXW4zW2NIXW5jKFtDSDNdKWMoW0NIM10pYzM9Tw==

> <s_epik_cmdline>
J2VwaWtfcHl0aG9uJywgJy1waCcsICc3LjAnLCAnLXRuJywgJzgnLCAnLW1hJywgJzIwMCcsICctbWV0YWxfYmluZGluZycsICctaW1hZScsICc8aW5maWxlLm1hZT4nLCAnLW9tYWUnLCAnPG91dGZpbGUubWFlPic=

> <r_lp_tautomer_probability>
1

> <r_epik_Ionization_Penalty>
0.113377

> <r_epik_Ionization_Penalty_Charging>
7.56033e-08

> <r_epik_Ionization_Penalty_Neutral>
0.113377

> <r_epik_State_Penalty>
0.103025

> <r_epik_Charging_Adjusted_Penalty>
0.103025

> <i_epik_Tot_Q>
0

> <i_epik_Tot_abs_Q>
0

> <r_epik_Metal_State_Penalty>
0.0863476

> <b_epik_Metal_Only>
0

> <s_lp_Force_Field>
OPLS_2005

> <r_lp_Energy>
18.2684

> <b_lp_Chiralities_Consistent>
1

> <s_lp_Variant>
AV-unprocessed.smi:2410-1

> <Gold.Version>
5.8.1

> <Gold.Id.Protein>
6NUR|6NUR_protein|mol2

> <Gold.PLP.Fitness>
54.5899

> <Gold.PLP.PLP>
-47.2825

> <Gold.PLP.part.hbond>
-3.8837

> <Gold.PLP.part.metal>
0.0000

> <Gold.PLP.part.buried>
-5.8426

> <Gold.PLP.part.nonpolar>
-38.1040

> <Gold.PLP.part.repulsive>
0.2589

> <Gold.PLP.ligand.clash>
0.0151

> <Gold.PLP.ligand.torsion>
0.8851

> <Gold.PLP.Chemscore.Hbond>
3.0000

> <Gold.PLP.Chemscore.CHOScore>
0.0000

> <Gold.PLP.Chemscore.Metal>
0.0000

> <Gold.Chemscore.Hbonds>
donor molecule, donor type, donor heavy atom, donor atom, acceptor molecule, acceptor atom, score
      L1  H    10    33       P1  7957  1.00
      P1  H  7989  7998       L1    10  1.00
      P1  H  7997  8010       L1     5  1.00

> <Gold.PLP.Chemscore.Internal.Correction>
0.0928

> <Gold.Rescore>
     Score         DG    S(hbond)    S(metal)    S(lipo)     H(rot)  DE(clash)    DE(int)     intcor
     17.20     -18.98       2.05        0.00     108.19       2.35       0.08       1.70       ----

> <Gold.Chemscore.Fitness>
17.2048

> <Gold.Chemscore.DG>
-18.9792

> <Gold.Chemscore.ZeroCoef>
-5.4800

> <Gold.Chemscore.Hbond>
2.0515

> <Gold.Chemscore.Metal>
0.0000

> <Gold.Chemscore.Lipo>
108.1858

> <Gold.Chemscore.Internal_Hbond>
0.0000

> <Gold.Chemscore.DEClash>
0.0791

> <Gold.Chemscore.DEInternal>
1.6953

> <Gold.Chemscore.Rot>
2.3479

> <Gold.Chemscore.Internal.Correction>
   9.000000E+99

> <Gold.Chemscore.Hbonds>
donor molecule, donor type, donor heavy atom, donor atom, acceptor molecule, acceptor atom, score
      L1  H    10    33       P1  7957  0.92
      P1  H  7989  7998       L1    10  0.26
      P1  H  7997  8010       L1     5  0.09

> <Gold.Chemscore.Hbond.Weighted>
-6.8520

> <Gold.Chemscore.Metal.Weighted>
-0.0000

> <Gold.Chemscore.Lipo.Weighted>
-12.6577

> <Gold.Chemscore.Internal_Hbond.Weighted>
0.0000

> <Gold.Chemscore.DEClash.Weighted>
0.0791

> <Gold.Chemscore.DEInternal.Weighted>
1.6953

> <Gold.Chemscore.Rot.Weighted>
6.0106

> <Gold.Chemscore.Internal.Correction.Weighted>
   9.000000E+99

> <Gold.Protein.RotatedTorsions>
[ 6907 6896 6895 6894 ] final  135.28 input  -60.11 | X-H torsion
[ 7974 7965 7964 7962 ] final  -83.98 input  175.53 | X-H torsion
[ 8008 7997 7996 7995 ] final   46.30 input   59.86 | X-H torsion
[ 10167 10162 10161 10158 ] final  136.47 input  -65.29 | X-H torsion
[ 10718 10713 10712 10709 ] final    5.17 input   66.30 | X-H torsion
[ 10763 10752 10751 10750 ] final  153.77 input  -60.55 | X-H torsion
[ 11005 11000 10999 10996 ] final  -48.18 input  -57.11 | X-H torsion

> <Gold.Protein.ActiveResidues>
 VAL166  LYS551  ARG553  GLY616  TRP617  ASP618  TYR619  PRO620  LYS621  CYS622 
 ASP623  PHE694  ASN695  SER759  ASP760  ASP761  ALA762  ILE779  LEU786  VAL792 
 PHE793  MET794  SER795  GLU796  ALA797  LYS798  CYS799  TRP800  GLU811  SER814 

> <Gold.Protein.RotatedAtoms>
  152.3021  133.5666  159.5625 H   0  0  0  0  0  0  0  0  0  0  0  0  # atno 6907 bound_to 6896
  150.7282  134.0276  159.3731 H   0  0  0  0  0  0  0  0  0  0  0  0  # atno 6908 bound_to 6896
  151.8175  135.0662  160.0471 H   0  0  0  0  0  0  0  0  0  0  0  0  # atno 6909 bound_to 6896
  145.5127  140.9538  143.1698 H   0  0  0  0  0  0  0  0  0  0  0  0  # atno 7974 bound_to 7965
  155.3502  140.3413  155.4239 H   0  0  0  0  0  0  0  0  0  0  0  0  # atno 8008 bound_to 7997
  156.1768  140.1650  156.8384 H   0  0  0  0  0  0  0  0  0  0  0  0  # atno 8009 bound_to 7997
  154.5290  140.0749  156.8294 H   0  0  0  0  0  0  0  0  0  0  0  0  # atno 8010 bound_to 7997
  139.5179  144.6463  151.5431 H   0  0  0  0  0  0  0  0  0  0  0  0  # atno 10167 bound_to 10162
  156.9034  130.5730  149.5648 H   0  0  0  0  0  0  0  0  0  0  0  0  # atno 10718 bound_to 10713
  154.1416  135.2820  155.3159 H   0  0  0  0  0  0  0  0  0  0  0  0  # atno 10763 bound_to 10752
  154.6283  135.5444  153.7655 H   0  0  0  0  0  0  0  0  0  0  0  0  # atno 10764 bound_to 10752
  153.0249  135.6456  154.1562 H   0  0  0  0  0  0  0  0  0  0  0  0  # atno 10765 bound_to 10752
  141.0685  133.6686  156.3404 H   0  0  0  0  0  0  0  0  0  0  0  0  # atno 11005 bound_to 11000
  144.7719  139.6717  143.7191 LP  0  0  0  0  0  0  0  0  0  0  0  0  # atno 17320 bound_to 7965
  146.2156  139.5544  142.9652 LP  0  0  0  0  0  0  0  0  0  0  0  0  # atno 17321 bound_to 7965
  140.6249  143.9188  150.6556 LP  0  0  0  0  0  0  0  0  0  0  0  0  # atno 17342 bound_to 10162
  140.2473  143.3619  152.1435 LP  0  0  0  0  0  0  0  0  0  0  0  0  # atno 17343 bound_to 10162
  156.0571  130.5630  150.9114 LP  0  0  0  0  0  0  0  0  0  0  0  0  # atno 17370 bound_to 10713
  157.6012  131.0941  150.8956 LP  0  0  0  0  0  0  0  0  0  0  0  0  # atno 17371 bound_to 10713
  140.5722  134.5828  157.5460 LP  0  0  0  0  0  0  0  0  0  0  0  0  # atno 17394 bound_to 11000
  139.9500  134.7634  156.0471 LP  0  0  0  0  0  0  0  0  0  0  0  0  # atno 17395 bound_to 11000

$$$$
