AV-unprocessed.smi:371|AV-procd|sdf|2441|dock6
  -GOLD-   2262022383D 1   1.00000     0.00000
 Structure written by MMmdl.
 39 40  0  0  0  0  0  0  0  0  1 V2000
  144.5323  142.8910  154.8827 C   0  0  0  0  0  0  0  0  0  0  0  0
  145.8008  142.6190  155.6822 C   0  0  0  0  0  0  0  0  0  0  0  0
  146.9132  142.0039  154.9964 C   0  0  0  0  0  0  0  0  0  0  0  0
  148.0412  141.6832  155.6499 C   0  0  0  0  0  0  0  0  0  0  0  0
  149.2025  141.0211  154.9166 C   0  0  0  0  0  0  0  0  0  0  0  0
  148.1771  141.9661  157.0373 N   0  0  0  0  0  0  0  0  0  0  0  0
  149.4246  141.5878  157.7438 C   0  0  0  0  0  0  0  0  0  0  0  0
  150.4189  142.7692  157.8484 C   0  0  2  0  0  0  0  0  0  0  0  0
  150.9559  143.0372  156.5678 O   0  0  0  0  0  0  0  0  0  0  0  0
  151.5299  142.4643  158.8455 C   0  0  0  0  0  0  0  0  0  0  0  0
  152.2845  141.2758  158.7207 C   0  0  0  0  0  0  0  0  0  0  0  0
  153.3127  140.9837  159.6374 C   0  0  0  0  0  0  0  0  0  0  0  0
  153.5932  141.8770  160.6881 C   0  0  0  0  0  0  0  0  0  0  0  0
  152.8438  143.0611  160.8215 C   0  0  0  0  0  0  0  0  0  0  0  0
  151.8154  143.3564  159.9051 C   0  0  0  0  0  0  0  0  0  0  0  0
  151.1086  144.5027  160.0519 F   0  0  0  0  0  0  0  0  0  0  0  0
  147.1888  142.5947  157.7518 C   0  0  0  0  0  0  0  0  0  0  0  0
  147.3732  142.8992  158.9347 O   0  0  0  0  0  0  0  0  0  0  0  0
  145.9313  142.8877  157.0096 C   0  0  0  0  0  0  0  0  0  0  0  0
  144.8381  143.5126  157.7810 C   0  0  0  0  0  0  0  0  0  0  0  0
  145.1834  144.6016  158.4816 N   0  0  0  0  0  0  0  0  0  0  0  0
  143.6970  143.0629  157.8734 O   0  0  0  0  0  0  0  0  0  0  0  0
  144.5825  142.4311  153.8954 H   0  0  0  0  0  0  0  0  0  0  0  0
  144.3911  143.9627  154.7413 H   0  0  0  0  0  0  0  0  0  0  0  0
  143.6551  142.4840  155.3866 H   0  0  0  0  0  0  0  0  0  0  0  0
  146.8311  141.7886  153.9407 H   0  0  0  0  0  0  0  0  0  0  0  0
  148.8856  140.6634  153.9365 H   0  0  0  0  0  0  0  0  0  0  0  0
  149.5931  140.1580  155.4521 H   0  0  0  0  0  0  0  0  0  0  0  0
  150.0100  141.7360  154.7572 H   0  0  0  0  0  0  0  0  0  0  0  0
  149.1808  141.2259  158.7414 H   0  0  0  0  0  0  0  0  0  0  0  0
  149.9153  140.7193  157.3005 H   0  0  0  0  0  0  0  0  0  0  0  0
  149.8926  143.6695  158.1652 H   0  0  0  0  0  0  0  0  0  0  0  0
  150.3057  143.4994  156.0612 H   0  0  0  0  0  0  0  0  0  0  0  0
  152.0757  140.5827  157.9189 H   0  0  0  0  0  0  0  0  0  0  0  0
  153.8860  140.0742  159.5341 H   0  0  0  0  0  0  0  0  0  0  0  0
  154.3822  141.6544  161.3913 H   0  0  0  0  0  0  0  0  0  0  0  0
  153.0586  143.7459  161.6286 H   0  0  0  0  0  0  0  0  0  0  0  0
  144.4961  145.0736  159.0514 H   0  0  0  0  0  0  0  0  0  0  0  0
  146.1361  144.9345  158.4535 H   0  0  0  0  0  0  0  0  0  0  0  0
  1  2  1  0  0  0  0
  1 23  1  0  0  0  0
  1 24  1  0  0  0  0
  1 25  1  0  0  0  0
  2 19  2  0  0  0  0
  2  3  1  0  0  0  0
  3  4  2  0  0  0  0
  3 26  1  0  0  0  0
  4  5  1  0  0  0  0
  4  6  1  0  0  0  0
  5 27  1  0  0  0  0
  5 28  1  0  0  0  0
  5 29  1  0  0  0  0
  6  7  1  0  0  0  0
  6 17  1  0  0  0  0
  7  8  1  0  0  0  0
  7 30  1  0  0  0  0
  7 31  1  0  0  0  0
  8  9  1  0  0  0  0
  8 10  1  0  0  0  0
  8 32  1  0  0  0  0
  9 33  1  0  0  0  0
 10 15  1  0  0  0  0
 10 11  2  0  0  0  0
 11 12  1  0  0  0  0
 11 34  1  0  0  0  0
 12 13  2  0  0  0  0
 12 35  1  0  0  0  0
 13 14  1  0  0  0  0
 13 36  1  0  0  0  0
 14 15  2  0  0  0  0
 14 37  1  0  0  0  0
 15 16  1  0  0  0  0
 17 18  2  0  0  0  0
 17 19  1  0  0  0  0
 19 20  1  0  0  0  0
 20 21  1  0  0  0  0
 20 22  2  0  0  0  0
 21 38  1  0  0  0  0
 21 39  1  0  0  0  0
M  END
> <s_m_source_file>
AV-unprocessed.smi

> <i_m_source_file_index>
371

> <i_lp_mmshare_version>
43012

> <i_f3d_flags>
0

> <s_epik_input>
W0NIM11jMVtjSF1jKFtDSDNdKW4oYyg9TyljMUMoPU8pW05IMl0pW0NIMl1bQ0BIXShbT0hdKWMyW2NIXVtjSF1bY0hdW2NIXWMyRg==

> <s_epik_cmdline>
J2VwaWtfcHl0aG9uJywgJy1waCcsICc3LjAnLCAnLXRuJywgJzgnLCAnLW1hJywgJzIwMCcsICctbWV0YWxfYmluZGluZycsICctaW1hZScsICc8aW5maWxlLm1hZT4nLCAnLW9tYWUnLCAnPG91dGZpbGUubWFlPic=

> <r_lp_tautomer_probability>
1

> <r_epik_Ionization_Penalty>
3.46512e-07

> <r_epik_Ionization_Penalty_Charging>
1.35363e-07

> <r_epik_Ionization_Penalty_Neutral>
2.11149e-07

> <r_epik_State_Penalty>
-0

> <r_epik_Charging_Adjusted_Penalty>
1.35363e-07

> <i_epik_Tot_Q>
0

> <i_epik_Tot_abs_Q>
0

> <r_epik_Metal_State_Penalty>
-0

> <b_epik_Metal_Only>
0

> <s_lp_Force_Field>
OPLS_2005

> <r_lp_Energy>
40.8148

> <b_lp_Chiralities_Consistent>
1

> <s_lp_Variant>
AV-unprocessed.smi:371-1

> <Gold.Version>
5.8.1

> <Gold.Id.Protein>
6NUR|6NUR_protein|mol2

> <Gold.PLP.Fitness>
41.9393

> <Gold.PLP.PLP>
-38.6025

> <Gold.PLP.part.hbond>
-2.0000

> <Gold.PLP.part.metal>
0.0000

> <Gold.PLP.part.buried>
-4.1186

> <Gold.PLP.part.nonpolar>
-32.4683

> <Gold.PLP.part.repulsive>
0.1577

> <Gold.PLP.ligand.clash>
0.0000

> <Gold.PLP.ligand.torsion>
1.4864

> <Gold.PLP.Chemscore.Hbond>
2.0000

> <Gold.PLP.Chemscore.CHOScore>
0.0000

> <Gold.PLP.Chemscore.Metal>
0.0000

> <Gold.Chemscore.Hbonds>
donor molecule, donor type, donor heavy atom, donor atom, acceptor molecule, acceptor atom, score
      L1  H     9    33       P1  8028  1.00
      L1  H    21    39       P1  8029  0.30

> <Gold.PLP.Chemscore.Internal.Correction>
0.3097

> <Gold.Rescore>
     Score         DG    S(hbond)    S(metal)    S(lipo)     H(rot)  DE(clash)    DE(int)     intcor
     15.86     -17.36       1.91        0.00      91.58       2.04       0.00       1.50       ----

> <Gold.Chemscore.Fitness>
15.8642

> <Gold.Chemscore.DG>
-17.3641

> <Gold.Chemscore.ZeroCoef>
-5.4800

> <Gold.Chemscore.Hbond>
1.9133

> <Gold.Chemscore.Metal>
0.0000

> <Gold.Chemscore.Lipo>
91.5818

> <Gold.Chemscore.Internal_Hbond>
0.0000

> <Gold.Chemscore.DEClash>
0.0000

> <Gold.Chemscore.DEInternal>
1.4999

> <Gold.Chemscore.Rot>
2.0396

> <Gold.Chemscore.Internal.Correction>
   9.000000E+99

> <Gold.Chemscore.Hbonds>
donor molecule, donor type, donor heavy atom, donor atom, acceptor molecule, acceptor atom, score
      L1  H     9    33       P1  8028  0.99
      L1  H    21    39       P1  8029  0.28

> <Gold.Chemscore.Hbond.Weighted>
-6.3904

> <Gold.Chemscore.Metal.Weighted>
-0.0000

> <Gold.Chemscore.Lipo.Weighted>
-10.7151

> <Gold.Chemscore.Internal_Hbond.Weighted>
0.0000

> <Gold.Chemscore.DEClash.Weighted>
0.0000

> <Gold.Chemscore.DEInternal.Weighted>
1.4999

> <Gold.Chemscore.Rot.Weighted>
5.2214

> <Gold.Chemscore.Internal.Correction.Weighted>
   9.000000E+99

> <Gold.Protein.RotatedTorsions>
[ 6907 6896 6895 6894 ] final  -57.98 input  -60.11 | X-H torsion
[ 7974 7965 7964 7962 ] final -154.38 input  175.53 | X-H torsion
[ 8008 7997 7996 7995 ] final -107.23 input   59.86 | X-H torsion
[ 10167 10162 10161 10158 ] final  111.44 input  -65.29 | X-H torsion
[ 10718 10713 10712 10709 ] final   12.46 input   66.30 | X-H torsion
[ 10763 10752 10751 10750 ] final  126.26 input  -60.55 | X-H torsion
[ 11005 11000 10999 10996 ] final  -80.69 input  -57.11 | X-H torsion

> <Gold.Protein.ActiveResidues>
 VAL166  LYS551  ARG553  GLY616  TRP617  ASP618  TYR619  PRO620  LYS621  CYS622 
 ASP623  PHE694  ASN695  SER759  ASP760  ASP761  ALA762  ILE779  LEU786  VAL792 
 PHE793  MET794  SER795  GLU796  ALA797  LYS798  CYS799  TRP800  GLU811  SER814 

> <Gold.Protein.RotatedAtoms>
  150.8043  134.7157  159.6629 H   0  0  0  0  0  0  0  0  0  0  0  0  # atno 6907 bound_to 6896
  152.4162  134.6035  160.0016 H   0  0  0  0  0  0  0  0  0  0  0  0  # atno 6908 bound_to 6896
  151.6263  133.3298  159.3135 H   0  0  0  0  0  0  0  0  0  0  0  0  # atno 6909 bound_to 6896
  144.7692  140.4396  143.5919 H   0  0  0  0  0  0  0  0  0  0  0  0  # atno 7974 bound_to 7965
  154.9263  140.0406  157.2024 H   0  0  0  0  0  0  0  0  0  0  0  0  # atno 8008 bound_to 7997
  154.8205  140.2883  155.5769 H   0  0  0  0  0  0  0  0  0  0  0  0  # atno 8009 bound_to 7997
  156.2979  140.2520  156.3111 H   0  0  0  0  0  0  0  0  0  0  0  0  # atno 8010 bound_to 7997
  139.6611  144.7128  151.1863 H   0  0  0  0  0  0  0  0  0  0  0  0  # atno 10167 bound_to 10162
  157.0104  130.6115  149.5707 H   0  0  0  0  0  0  0  0  0  0  0  0  # atno 10718 bound_to 10713
  153.6905  135.3299  155.3201 H   0  0  0  0  0  0  0  0  0  0  0  0  # atno 10763 bound_to 10752
  154.8441  135.4430  154.1513 H   0  0  0  0  0  0  0  0  0  0  0  0  # atno 10764 bound_to 10752
  153.2553  135.6985  153.7713 H   0  0  0  0  0  0  0  0  0  0  0  0  # atno 10765 bound_to 10752
  141.1667  133.7162  156.8311 H   0  0  0  0  0  0  0  0  0  0  0  0  # atno 11005 bound_to 11000
  145.6375  139.1545  143.2934 LP  0  0  0  0  0  0  0  0  0  0  0  0  # atno 17320 bound_to 7965
  146.1825  140.6474  142.9182 LP  0  0  0  0  0  0  0  0  0  0  0  0  # atno 17321 bound_to 7965
  140.7580  143.5992  150.8717 LP  0  0  0  0  0  0  0  0  0  0  0  0  # atno 17342 bound_to 10162
  139.9650  143.6121  152.2991 LP  0  0  0  0  0  0  0  0  0  0  0  0  # atno 17343 bound_to 10162
  156.0138  130.5231  150.8071 LP  0  0  0  0  0  0  0  0  0  0  0  0  # atno 17370 bound_to 10713
  157.5324  131.0937  150.9937 LP  0  0  0  0  0  0  0  0  0  0  0  0  # atno 17371 bound_to 10713
  140.2050  134.8869  157.3212 LP  0  0  0  0  0  0  0  0  0  0  0  0  # atno 17394 bound_to 11000
  140.2146  134.4096  155.7595 LP  0  0  0  0  0  0  0  0  0  0  0  0  # atno 17395 bound_to 11000

$$$$
