AV-unprocessed.smi:2066|AV-procd|sdf|8422|dock9
  -GOLD-   2272011113D 1   1.00000     0.00000
 Structure written by MMmdl.
 39 40  0  0  0  0  0  0  0  0  3 V2000
  148.0770  137.5116  154.8566 C   0  0  0  0  0  0  0  0  0  0  0  0
  147.9307  135.9892  155.1044 C   0  0  0  0  0  0  0  0  0  0  0  0
  149.3471  135.4788  155.4710 C   0  0  0  0  0  0  0  0  0  0  0  0
  146.9525  135.7142  156.2867 C   0  0  0  0  0  0  0  0  0  0  0  0
  147.3668  136.3415  157.5411 N   0  0  0  0  0  0  0  0  0  0  0  0
  148.2665  135.8629  158.4126 C   0  0  0  0  0  0  0  0  0  0  0  0
  148.8414  134.7965  158.1831 O   0  0  0  0  0  0  0  0  0  0  0  0
  148.4335  136.6451  159.5021 N   0  5  0  0  0  0  0  0  0  0  0  0
  147.8753  136.2929  160.6717 C   0  0  0  0  0  0  0  0  0  0  0  0
  147.7599  137.1306  161.7085 N   0  0  0  0  0  0  0  0  0  0  0  0
  147.1469  136.5537  162.8221 C   0  0  0  0  0  0  0  0  0  0  0  0
  146.7772  135.2496  162.6249 C   0  0  0  0  0  0  0  0  0  0  0  0
  147.1920  134.7033  161.0253 S   0  0  0  0  0  0  0  0  0  0  0  0
  147.4568  135.3255  153.8368 N   0  3  0  0  0  0  0  0  0  0  0  0
  147.5286  133.8371  153.8137 C   0  0  0  0  0  0  0  0  0  0  0  0
  147.2002  133.3023  152.4096 C   0  0  0  0  0  0  0  0  0  0  0  0
  145.9119  133.7502  152.0126 O   0  0  0  0  0  0  0  0  0  0  0  0
  145.8477  135.1676  151.9437 C   0  0  0  0  0  0  0  0  0  0  0  0
  146.1249  135.7660  153.3325 C   0  0  0  0  0  0  0  0  0  0  0  0
  148.6147  138.0037  155.6678 H   0  0  0  0  0  0  0  0  0  0  0  0
  147.1136  138.0154  154.7842 H   0  0  0  0  0  0  0  0  0  0  0  0
  148.6330  137.7147  153.9406 H   0  0  0  0  0  0  0  0  0  0  0  0
  149.7996  136.0782  156.2620 H   0  0  0  0  0  0  0  0  0  0  0  0
  150.0200  135.5216  154.6138 H   0  0  0  0  0  0  0  0  0  0  0  0
  149.3357  134.4537  155.8405 H   0  0  0  0  0  0  0  0  0  0  0  0
  145.9373  136.0261  156.0419 H   0  0  0  0  0  0  0  0  0  0  0  0
  146.8926  134.6452  156.4875 H   0  0  0  0  0  0  0  0  0  0  0  0
  146.9277  137.2199  157.7750 H   0  0  0  0  0  0  0  0  0  0  0  0
  147.0124  137.1462  163.7148 H   0  0  0  0  0  0  0  0  0  0  0  0
  146.2889  134.5809  163.3174 H   0  0  0  0  0  0  0  0  0  0  0  0
  148.5213  133.4781  154.0769 H   0  0  0  0  0  0  0  0  0  0  0  0
  146.8301  133.4137  154.5357 H   0  0  0  0  0  0  0  0  0  0  0  0
  147.9504  133.6235  151.6849 H   0  0  0  0  0  0  0  0  0  0  0  0
  147.2084  132.2123  152.4123 H   0  0  0  0  0  0  0  0  0  0  0  0
  146.5592  135.5438  151.2070 H   0  0  0  0  0  0  0  0  0  0  0  0
  144.8538  135.4575  151.6026 H   0  0  0  0  0  0  0  0  0  0  0  0
  145.3370  135.4535  154.0179 H   0  0  0  0  0  0  0  0  0  0  0  0
  146.0657  136.8493  153.2478 H   0  0  0  0  0  0  0  0  0  0  0  0
  148.1164  135.6296  153.1353 H   0  0  0  0  0  0  0  0  0  0  0  0
  1  2  1  0  0  0  0
  1 20  1  0  0  0  0
  1 21  1  0  0  0  0
  1 22  1  0  0  0  0
  2  3  1  0  0  0  0
  2  4  1  0  0  0  0
  2 14  1  0  0  0  0
  3 23  1  0  0  0  0
  3 24  1  0  0  0  0
  3 25  1  0  0  0  0
  4  5  1  0  0  0  0
  4 26  1  0  0  0  0
  4 27  1  0  0  0  0
  5  6  1  0  0  0  0
  5 28  1  0  0  0  0
  6  7  2  0  0  0  0
  6  8  1  0  0  0  0
  8  9  1  0  0  0  0
  9 13  1  0  0  0  0
  9 10  2  0  0  0  0
 10 11  1  0  0  0  0
 11 12  2  0  0  0  0
 11 29  1  0  0  0  0
 12 13  1  0  0  0  0
 12 30  1  0  0  0  0
 14 19  1  0  0  0  0
 14 15  1  0  0  0  0
 14 39  1  0  0  0  0
 15 16  1  0  0  0  0
 15 31  1  0  0  0  0
 15 32  1  0  0  0  0
 16 17  1  0  0  0  0
 16 33  1  0  0  0  0
 16 34  1  0  0  0  0
 17 18  1  0  0  0  0
 18 19  1  0  0  0  0
 18 35  1  0  0  0  0
 18 36  1  0  0  0  0
 19 37  1  0  0  0  0
 19 38  1  0  0  0  0
M  CHG  1   8  -1
M  CHG  1  14   1
M  END
> <s_m_source_file>
AV-unprocessed.smi

> <i_m_source_file_index>
2066

> <i_lp_mmshare_version>
43012

> <i_f3d_flags>
0

> <s_epik_input>
W0NIMl0xW0NIMl1PW0NIMl1bQ0gyXU4xQyhbQ0gzXSkoW0NIM10pW0NIMl1bTkhdQyg9TylbTkhdYzJuW2NIXVtjSF1zMg==

> <s_epik_cmdline>
J2VwaWtfcHl0aG9uJywgJy1waCcsICc3LjAnLCAnLXRuJywgJzgnLCAnLW1hJywgJzIwMCcsICctbWV0YWxfYmluZGluZycsICctaW1hZScsICc8aW5maWxlLm1hZT4nLCAnLW9tYWUnLCAnPG91dGZpbGUubWFlPic=

> <r_lp_tautomer_probability>
0.999

> <r_epik_Ionization_Penalty>
6.71078

> <r_epik_Ionization_Penalty_Charging>
5.8797

> <r_epik_Ionization_Penalty_Neutral>
0.831074

> <r_epik_State_Penalty>
6.07743

> <r_epik_Charging_Adjusted_Penalty>
11.9571

> <i_epik_Tot_Q>
0

> <i_epik_Tot_abs_Q>
2

> <r_epik_Metal_State_Penalty>
2.08929

> <b_epik_Metal_Only>
1

> <s_lp_Force_Field>
OPLS_2005

> <r_lp_Energy>
15.1529

> <b_lp_Chiralities_Consistent>
1

> <s_lp_Variant>
AV-unprocessed.smi:2066-4

> <Gold.Version>
5.8.1

> <Gold.Id.Protein>
6NUR|6NUR_protein|mol2

> <Gold.PLP.Fitness>
41.0047

> <Gold.PLP.PLP>
-28.8214

> <Gold.PLP.part.hbond>
-4.0000

> <Gold.PLP.part.metal>
0.0000

> <Gold.PLP.part.buried>
-3.0902

> <Gold.PLP.part.nonpolar>
-21.6500

> <Gold.PLP.part.repulsive>
0.1258

> <Gold.PLP.ligand.clash>
0.0000

> <Gold.PLP.ligand.torsion>
0.9882

> <Gold.PLP.Chemscore.Hbond>
4.6750

> <Gold.PLP.Chemscore.CHOScore>
0.0000

> <Gold.PLP.Chemscore.Metal>
0.0000

> <Gold.Chemscore.Hbonds>
donor molecule, donor type, donor heavy atom, donor atom, acceptor molecule, acceptor atom, score
      L1  H    14    39       P1  7948  2.00
      P1  H  6896  6908       L1     7  0.41
      P1  H  6931  6943       L1    10  1.00
      P1  H  6934  6947       L1    10  0.55

> <Gold.PLP.Chemscore.Internal.Correction>
0.1349

> <Gold.Rescore>
     Score         DG    S(hbond)    S(metal)    S(lipo)     H(rot)  DE(clash)    DE(int)     intcor
     16.31     -18.71       3.30        0.00      53.54       1.59       0.09       2.30       ----

> <Gold.Chemscore.Fitness>
16.3145

> <Gold.Chemscore.DG>
-18.7053

> <Gold.Chemscore.ZeroCoef>
-5.4800

> <Gold.Chemscore.Hbond>
3.3048

> <Gold.Chemscore.Metal>
0.0000

> <Gold.Chemscore.Lipo>
53.5421

> <Gold.Chemscore.Internal_Hbond>
0.0000

> <Gold.Chemscore.DEClash>
0.0930

> <Gold.Chemscore.DEInternal>
2.2979

> <Gold.Chemscore.Rot>
1.5926

> <Gold.Chemscore.Internal.Correction>
   9.000000E+99

> <Gold.Chemscore.Hbonds>
donor molecule, donor type, donor heavy atom, donor atom, acceptor molecule, acceptor atom, score
      L1  H    14    39       P1  7948  0.99
      P1  H  6896  6908       L1     7  0.34
      P1  H  6931  6943       L1    10  0.88
      P1  H  6934  6947       L1    10  0.35

> <Gold.Chemscore.Hbond.Weighted>
-11.0379

> <Gold.Chemscore.Metal.Weighted>
-0.0000

> <Gold.Chemscore.Lipo.Weighted>
-6.2644

> <Gold.Chemscore.Internal_Hbond.Weighted>
0.0000

> <Gold.Chemscore.DEClash.Weighted>
0.0930

> <Gold.Chemscore.DEInternal.Weighted>
2.2979

> <Gold.Chemscore.Rot.Weighted>
4.0770

> <Gold.Chemscore.Internal.Correction.Weighted>
   9.000000E+99

> <Gold.Protein.RotatedTorsions>
[ 6907 6896 6895 6894 ] final  165.50 input  -60.11 | X-H torsion
[ 7974 7965 7964 7962 ] final  104.26 input  175.53 | X-H torsion
[ 8008 7997 7996 7995 ] final  -91.68 input   59.86 | X-H torsion
[ 10167 10162 10161 10158 ] final  -18.78 input  -65.29 | X-H torsion
[ 10718 10713 10712 10709 ] final  -63.24 input   66.30 | X-H torsion
[ 10763 10752 10751 10750 ] final    1.30 input  -60.55 | X-H torsion
[ 11005 11000 10999 10996 ] final  -12.42 input  -57.11 | X-H torsion

> <Gold.Protein.ActiveResidues>
 VAL166  LYS551  ARG553  GLY616  TRP617  ASP618  TYR619  PRO620  LYS621  CYS622 
 ASP623  PHE694  ASN695  SER759  ASP760  ASP761  ALA762  ILE779  LEU786  VAL792 
 PHE793  MET794  SER795  GLU796  ALA797  LYS798  CYS799  TRP800  GLU811  SER814 

> <Gold.Protein.RotatedAtoms>
  151.8934  133.3521  159.3805 H   0  0  0  0  0  0  0  0  0  0  0  0  # atno 6907 bound_to 6896
  150.7097  134.4901  159.5521 H   0  0  0  0  0  0  0  0  0  0  0  0  # atno 6908 bound_to 6896
  152.2476  134.8166  160.0502 H   0  0  0  0  0  0  0  0  0  0  0  0  # atno 6909 bound_to 6896
  145.3351  139.2476  143.3640 H   0  0  0  0  0  0  0  0  0  0  0  0  # atno 7974 bound_to 7965
  154.7137  140.0517  157.0574 H   0  0  0  0  0  0  0  0  0  0  0  0  # atno 8008 bound_to 7997
  155.0520  140.3180  155.4670 H   0  0  0  0  0  0  0  0  0  0  0  0  # atno 8009 bound_to 7997
  156.2797  140.2114  156.5646 H   0  0  0  0  0  0  0  0  0  0  0  0  # atno 8010 bound_to 7997
  140.7262  143.4883  151.0026 H   0  0  0  0  0  0  0  0  0  0  0  0  # atno 10167 bound_to 10162
  156.0803  130.4218  150.1250 H   0  0  0  0  0  0  0  0  0  0  0  0  # atno 10718 bound_to 10713
  153.3098  135.6962  153.7126 H   0  0  0  0  0  0  0  0  0  0  0  0  # atno 10763 bound_to 10752
  153.6008  135.3462  155.2945 H   0  0  0  0  0  0  0  0  0  0  0  0  # atno 10764 bound_to 10752
  154.8572  135.4340  154.2233 H   0  0  0  0  0  0  0  0  0  0  0  0  # atno 10765 bound_to 10752
  140.7656  133.8480  155.9162 H   0  0  0  0  0  0  0  0  0  0  0  0  # atno 11005 bound_to 11000
  146.3030  140.3937  142.8697 LP  0  0  0  0  0  0  0  0  0  0  0  0  # atno 17320 bound_to 7965
  144.8834  140.7430  143.5972 LP  0  0  0  0  0  0  0  0  0  0  0  0  # atno 17321 bound_to 7965
  139.8586  143.7345  152.3174 LP  0  0  0  0  0  0  0  0  0  0  0  0  # atno 17342 bound_to 10162
  139.7552  144.7523  151.0446 LP  0  0  0  0  0  0  0  0  0  0  0  0  # atno 17343 bound_to 10162
  156.9282  130.9705  151.3537 LP  0  0  0  0  0  0  0  0  0  0  0  0  # atno 17370 bound_to 10713
  157.5917  130.8448  149.8669 LP  0  0  0  0  0  0  0  0  0  0  0  0  # atno 17371 bound_to 10713
  140.9623  134.1640  157.4644 LP  0  0  0  0  0  0  0  0  0  0  0  0  # atno 17394 bound_to 11000
  139.8764  134.9949  156.5716 LP  0  0  0  0  0  0  0  0  0  0  0  0  # atno 17395 bound_to 11000

$$$$
