AV-unprocessed.smi:3017|AV-procd|sdf|11475|dock10
  -GOLD-   2272016413D 1   1.00000     0.00000
 Structure written by MMmdl.
 37 38  0  0  0  0  0  0  0  0  1 V2000
  151.5176  145.5768  160.8249 C   0  0  0  0  0  0  0  0  0  0  0  0
  151.8560  144.1160  160.4954 C   0  0  2  0  0  0  0  0  0  0  0  0
  152.5134  143.4048  161.6936 C   0  0  0  0  0  0  0  0  0  0  0  0
  152.8602  141.9445  161.3628 C   0  0  0  0  0  0  0  0  0  0  0  0
  153.7538  141.8519  160.1157 C   0  0  0  0  0  0  0  0  0  0  0  0
  153.1116  142.5550  158.9016 C   0  0  1  0  0  0  0  0  0  0  0  0
  151.9124  141.9034  158.5009 O   0  0  0  0  0  0  0  0  0  0  0  0
  151.1446  142.6059  157.5328 C   0  0  0  0  0  0  0  0  0  0  0  0
  150.3740  141.5982  156.6802 C   0  0  0  0  0  0  0  0  0  0  0  0
  150.4764  140.3968  156.9275 O   0  0  0  0  0  0  0  0  0  0  0  0
  149.6332  142.1133  155.6807 N   0  0  0  0  0  0  0  0  0  0  0  0
  148.8042  141.4249  154.7571 C   0  0  0  0  0  0  0  0  0  0  0  0
  147.6538  142.1254  154.3240 C   0  0  0  0  0  0  0  0  0  0  0  0
  146.7656  141.6003  153.4509 N   0  0  0  0  0  0  0  0  0  0  0  0
  147.0265  140.3547  153.0002 C   0  0  0  0  0  0  0  0  0  0  0  0
  148.1676  139.6424  153.4197 C   0  0  0  0  0  0  0  0  0  0  0  0
  149.0515  140.1733  154.2926 N   0  0  0  0  0  0  0  0  0  0  0  0
  152.7550  144.0131  159.2456 C   0  0  0  0  0  0  0  0  0  0  0  0
  152.4159  146.1505  161.0551 H   0  0  0  0  0  0  0  0  0  0  0  0
  150.8512  145.6407  161.6856 H   0  0  0  0  0  0  0  0  0  0  0  0
  151.0177  146.0619  159.9860 H   0  0  0  0  0  0  0  0  0  0  0  0
  150.9159  143.6068  160.2782 H   0  0  0  0  0  0  0  0  0  0  0  0
  153.4207  143.9354  161.9851 H   0  0  0  0  0  0  0  0  0  0  0  0
  151.8476  143.4350  162.5567 H   0  0  0  0  0  0  0  0  0  0  0  0
  153.3612  141.4813  162.2131 H   0  0  0  0  0  0  0  0  0  0  0  0
  151.9429  141.3775  161.1995 H   0  0  0  0  0  0  0  0  0  0  0  0
  154.7143  142.3213  160.3313 H   0  0  0  0  0  0  0  0  0  0  0  0
  153.9765  140.8091  159.8929 H   0  0  0  0  0  0  0  0  0  0  0  0
  153.8148  142.5644  158.0670 H   0  0  0  0  0  0  0  0  0  0  0  0
  150.4342  143.2741  158.0214 H   0  0  0  0  0  0  0  0  0  0  0  0
  151.7830  143.2094  156.8875 H   0  0  0  0  0  0  0  0  0  0  0  0
  149.6531  143.1184  155.5859 H   0  0  0  0  0  0  0  0  0  0  0  0
  147.4398  143.1219  154.6826 H   0  0  0  0  0  0  0  0  0  0  0  0
  146.3231  139.9246  152.3027 H   0  0  0  0  0  0  0  0  0  0  0  0
  148.3712  138.6463  153.0557 H   0  0  0  0  0  0  0  0  0  0  0  0
  152.2634  144.4806  158.3915 H   0  0  0  0  0  0  0  0  0  0  0  0
  153.6743  144.5759  159.4133 H   0  0  0  0  0  0  0  0  0  0  0  0
  1  2  1  0  0  0  0
  1 19  1  0  0  0  0
  1 20  1  0  0  0  0
  1 21  1  0  0  0  0
  2 18  1  0  0  0  0
  2  3  1  0  0  0  0
  2 22  1  0  0  0  0
  3  4  1  0  0  0  0
  3 23  1  0  0  0  0
  3 24  1  0  0  0  0
  4  5  1  0  0  0  0
  4 25  1  0  0  0  0
  4 26  1  0  0  0  0
  5  6  1  0  0  0  0
  5 27  1  0  0  0  0
  5 28  1  0  0  0  0
  6  7  1  0  0  0  0
  6 18  1  0  0  0  0
  6 29  1  0  0  0  0
  7  8  1  0  0  0  0
  8  9  1  0  0  0  0
  8 30  1  0  0  0  0
  8 31  1  0  0  0  0
  9 10  2  0  0  0  0
  9 11  1  0  0  0  0
 11 12  1  0  0  0  0
 11 32  1  0  0  0  0
 12 17  1  0  0  0  0
 12 13  2  0  0  0  0
 13 14  1  0  0  0  0
 13 33  1  0  0  0  0
 14 15  2  0  0  0  0
 15 16  1  0  0  0  0
 15 34  1  0  0  0  0
 16 17  2  0  0  0  0
 16 35  1  0  0  0  0
 18 36  1  0  0  0  0
 18 37  1  0  0  0  0
M  END
> <s_m_source_file>
AV-unprocessed.smi

> <i_m_source_file_index>
3017

> <i_lp_mmshare_version>
43012

> <i_f3d_flags>
0

> <s_epik_input>
W0NIM11bQ0BASF0xW0NIMl1bQ0gyXVtDSDJdW0NASF0oW0NIMl0xKU9bQ0gyXUMoPU8pW05IXWMyW2NIXW5bY0hdW2NIXW4y

> <s_epik_cmdline>
J2VwaWtfcHl0aG9uJywgJy1waCcsICc3LjAnLCAnLXRuJywgJzgnLCAnLW1hJywgJzIwMCcsICctbWV0YWxfYmluZGluZycsICctaW1hZScsICc8aW5maWxlLm1hZT4nLCAnLW9tYWUnLCAnPG91dGZpbGUubWFlPic=

> <r_lp_tautomer_probability>
1

> <r_epik_Ionization_Penalty>
2.89243e-06

> <r_epik_Ionization_Penalty_Charging>
0

> <r_epik_Ionization_Penalty_Neutral>
2.89243e-06

> <r_epik_State_Penalty>
-0

> <r_epik_Charging_Adjusted_Penalty>
0

> <i_epik_Tot_Q>
0

> <i_epik_Tot_abs_Q>
0

> <r_epik_Metal_State_Penalty>
-0

> <b_epik_Metal_Only>
0

> <s_lp_Force_Field>
OPLS_2005

> <r_lp_Energy>
20.5488

> <b_lp_Chiralities_Consistent>
1

> <s_lp_Variant>
AV-unprocessed.smi:3017-1

> <Gold.Version>
5.8.1

> <Gold.Id.Protein>
6NUR|6NUR_protein|mol2

> <Gold.PLP.Fitness>
49.2010

> <Gold.PLP.PLP>
-41.6166

> <Gold.PLP.part.hbond>
-1.0000

> <Gold.PLP.part.metal>
0.0000

> <Gold.PLP.part.buried>
-2.4243

> <Gold.PLP.part.nonpolar>
-38.0288

> <Gold.PLP.part.repulsive>
0.4630

> <Gold.PLP.ligand.clash>
0.3652

> <Gold.PLP.ligand.torsion>
0.4583

> <Gold.PLP.Chemscore.Hbond>
0.9120

> <Gold.PLP.Chemscore.CHOScore>
2.0405

> <Gold.PLP.Chemscore.Metal>
0.0000

> <Gold.Chemscore.Hbonds>
donor molecule, donor type, donor heavy atom, donor atom, acceptor molecule, acceptor atom, score
      L1  H    11    32       P1  8028  1.00
      L1  C    13    33       P1  8028  1.00
      L1  C    15    34       P1 10175  0.49
      L1  C    16    35       P1  7948  0.50
      L1  C    16    35       P1  7957  0.03

> <Gold.PLP.Chemscore.Internal.Correction>
0.0089

> <Gold.Rescore>
     Score         DG    S(hbond)    S(metal)    S(lipo)     H(rot)  DE(clash)    DE(int)     intcor
     15.31     -18.11       0.98        0.00     112.92       1.51       1.34       1.46       ----

> <Gold.Chemscore.Fitness>
15.3076

> <Gold.Chemscore.DG>
-18.1096

> <Gold.Chemscore.ZeroCoef>
-5.4800

> <Gold.Chemscore.Hbond>
0.9846

> <Gold.Chemscore.Metal>
0.0000

> <Gold.Chemscore.Lipo>
112.9205

> <Gold.Chemscore.Internal_Hbond>
0.0000

> <Gold.Chemscore.DEClash>
1.3442

> <Gold.Chemscore.DEInternal>
1.4578

> <Gold.Chemscore.Rot>
1.5119

> <Gold.Chemscore.Internal.Correction>
   9.000000E+99

> <Gold.Chemscore.Hbonds>
donor molecule, donor type, donor heavy atom, donor atom, acceptor molecule, acceptor atom, score
      L1  H    11    32       P1  8028  0.97

> <Gold.Chemscore.Hbond.Weighted>
-3.2885

> <Gold.Chemscore.Metal.Weighted>
-0.0000

> <Gold.Chemscore.Lipo.Weighted>
-13.2117

> <Gold.Chemscore.Internal_Hbond.Weighted>
0.0000

> <Gold.Chemscore.DEClash.Weighted>
1.3442

> <Gold.Chemscore.DEInternal.Weighted>
1.4578

> <Gold.Chemscore.Rot.Weighted>
3.8706

> <Gold.Chemscore.Internal.Correction.Weighted>
   9.000000E+99

> <Gold.Protein.RotatedTorsions>
[ 6907 6896 6895 6894 ] final  130.93 input  -60.11 | X-H torsion
[ 7974 7965 7964 7962 ] final   24.08 input  175.53 | X-H torsion
[ 8008 7997 7996 7995 ] final   48.86 input   59.86 | X-H torsion
[ 10167 10162 10161 10158 ] final   -2.08 input  -65.29 | X-H torsion
[ 10718 10713 10712 10709 ] final  -68.36 input   66.30 | X-H torsion
[ 10763 10752 10751 10750 ] final   32.61 input  -60.55 | X-H torsion
[ 11005 11000 10999 10996 ] final -172.37 input  -57.11 | X-H torsion

> <Gold.Protein.ActiveResidues>
 VAL166  LYS551  ARG553  GLY616  TRP617  ASP618  TYR619  PRO620  LYS621  CYS622 
 ASP623  PHE694  ASN695  SER759  ASP760  ASP761  ALA762  ILE779  LEU786  VAL792 
 PHE793  MET794  SER795  GLU796  ALA797  LYS798  CYS799  TRP800  GLU811  SER814 

> <Gold.Protein.RotatedAtoms>
  152.3477  133.6142  159.5921 H   0  0  0  0  0  0  0  0  0  0  0  0  # atno 6907 bound_to 6896
  150.7518  133.9623  159.3528 H   0  0  0  0  0  0  0  0  0  0  0  0  # atno 6908 bound_to 6896
  151.7479  135.0840  160.0377 H   0  0  0  0  0  0  0  0  0  0  0  0  # atno 6909 bound_to 6896
  146.1954  139.7654  142.8801 H   0  0  0  0  0  0  0  0  0  0  0  0  # atno 7974 bound_to 7965
  155.3927  140.3434  155.4252 H   0  0  0  0  0  0  0  0  0  0  0  0  # atno 8008 bound_to 7997
  156.1548  140.1582  156.8742 H   0  0  0  0  0  0  0  0  0  0  0  0  # atno 8009 bound_to 7997
  154.5085  140.0796  156.7924 H   0  0  0  0  0  0  0  0  0  0  0  0  # atno 8010 bound_to 7997
  140.6836  143.6699  150.8194 H   0  0  0  0  0  0  0  0  0  0  0  0  # atno 10167 bound_to 10162
  156.0509  130.4293  150.1990 H   0  0  0  0  0  0  0  0  0  0  0  0  # atno 10718 bound_to 10713
  153.0254  135.6409  154.1381 H   0  0  0  0  0  0  0  0  0  0  0  0  # atno 10763 bound_to 10752
  154.1111  135.2853  155.3232 H   0  0  0  0  0  0  0  0  0  0  0  0  # atno 10764 bound_to 10752
  154.6331  135.5486  153.7765 H   0  0  0  0  0  0  0  0  0  0  0  0  # atno 10765 bound_to 10752
  140.4978  134.5923  157.4977 H   0  0  0  0  0  0  0  0  0  0  0  0  # atno 11005 bound_to 11000
  145.3659  141.0334  143.3258 LP  0  0  0  0  0  0  0  0  0  0  0  0  # atno 17320 bound_to 7965
  144.8570  139.5234  143.6830 LP  0  0  0  0  0  0  0  0  0  0  0  0  # atno 17321 bound_to 7965
  140.0403  143.5352  152.2720 LP  0  0  0  0  0  0  0  0  0  0  0  0  # atno 17342 bound_to 10162
  139.6177  144.7623  151.2809 LP  0  0  0  0  0  0  0  0  0  0  0  0  # atno 17343 bound_to 10162
  157.0073  130.9940  151.3375 LP  0  0  0  0  0  0  0  0  0  0  0  0  # atno 17370 bound_to 10713
  157.5434  130.8135  149.8056 LP  0  0  0  0  0  0  0  0  0  0  0  0  # atno 17371 bound_to 10713
  139.9731  134.7260  156.0002 LP  0  0  0  0  0  0  0  0  0  0  0  0  # atno 17394 bound_to 11000
  141.1451  133.6557  156.3844 LP  0  0  0  0  0  0  0  0  0  0  0  0  # atno 17395 bound_to 11000

$$$$
