AV-unprocessed.smi:122|AV-procd|sdf|1141|dock7
  -GOLD-   2262018273D 1   1.00000     0.00000
 Structure written by MMmdl.
 48 50  0  0  0  0  0  0  0  0  1 V2000
  145.5920  143.7747  153.6381 C   0  0  0  0  0  0  0  0  0  0  0  0
  145.4894  142.5118  154.9715 S   0  0  0  0  0  0  0  0  0  0  0  0
  146.0164  143.1018  156.2115 O   0  0  0  0  0  0  0  0  0  0  0  0
  144.1414  141.9236  154.9521 O   0  0  0  0  0  0  0  0  0  0  0  0
  146.6089  141.2998  154.4390 N   0  0  0  0  0  0  0  0  0  0  0  0
  146.3332  139.8894  154.7972 C   0  0  0  0  0  0  0  0  0  0  0  0
  147.2166  138.9130  153.9995 C   0  0  0  0  0  0  0  0  0  0  0  0
  148.6156  139.3082  154.1574 N   0  0  0  0  0  0  0  0  0  0  0  0
  149.5082  138.6083  154.8970 C   0  0  0  0  0  0  0  0  0  0  0  0
  149.2144  137.5390  155.4354 O   0  0  0  0  0  0  0  0  0  0  0  0
  150.9332  139.1732  155.0730 C   0  0  0  0  0  0  0  0  0  0  0  0
  151.2183  139.6493  156.4450 N   0  0  0  0  0  0  0  0  0  0  0  0
  151.7244  138.7270  157.3945 C   0  0  0  0  0  0  0  0  0  0  0  0
  151.9348  137.5514  157.0928 O   0  0  0  0  0  0  0  0  0  0  0  0
  151.9617  139.2640  158.7296 C   0  0  0  0  0  0  0  0  0  0  0  0
  152.4424  138.4607  159.6936 F   0  0  0  0  0  0  0  0  0  0  0  0
  151.7038  140.5569  159.0155 C   0  0  0  0  0  0  0  0  0  0  0  0
  151.2071  141.4462  158.0789 N   0  0  0  0  0  0  0  0  0  0  0  0
  150.9065  142.8907  158.4195 C   0  0  2  0  0  0  0  0  0  0  0  0
  151.7640  143.8406  157.5616 C   0  0  0  0  0  0  0  0  0  0  0  0
  152.3794  144.7611  158.5965 C   0  0  0  0  0  0  0  0  0  0  0  0
  152.4616  143.8530  159.8139 C   0  0  0  0  0  0  0  0  0  0  0  0
  151.2319  143.1421  159.7574 O   0  0  0  0  0  0  0  0  0  0  0  0
  150.9431  141.0000  156.7656 C   0  0  0  0  0  0  0  0  0  0  0  0
  150.4801  141.7714  155.9221 O   0  0  0  0  0  0  0  0  0  0  0  0
  148.8377  140.6155  153.5385 C   0  0  0  0  0  0  0  0  0  0  0  0
  148.0369  141.6732  154.3187 C   0  0  0  0  0  0  0  0  0  0  0  0
  144.9294  144.6058  153.8781 H   0  0  0  0  0  0  0  0  0  0  0  0
  145.2869  143.3336  152.6897 H   0  0  0  0  0  0  0  0  0  0  0  0
  146.6147  144.1419  153.5579 H   0  0  0  0  0  0  0  0  0  0  0  0
  146.5054  139.7577  155.8660 H   0  0  0  0  0  0  0  0  0  0  0  0
  145.2830  139.6617  154.6146 H   0  0  0  0  0  0  0  0  0  0  0  0
  147.0269  137.8899  154.3266 H   0  0  0  0  0  0  0  0  0  0  0  0
  146.9456  138.9383  152.9429 H   0  0  0  0  0  0  0  0  0  0  0  0
  151.6509  138.4074  154.7754 H   0  0  0  0  0  0  0  0  0  0  0  0
  151.0846  139.9820  154.3563 H   0  0  0  0  0  0  0  0  0  0  0  0
  151.8981  140.8891  160.0237 H   0  0  0  0  0  0  0  0  0  0  0  0
  149.8304  143.0100  158.2809 H   0  0  0  0  0  0  0  0  0  0  0  0
  152.5429  143.2805  157.0411 H   0  0  0  0  0  0  0  0  0  0  0  0
  151.1526  144.3647  156.8264 H   0  0  0  0  0  0  0  0  0  0  0  0
  153.3481  145.1594  158.2937 H   0  0  0  0  0  0  0  0  0  0  0  0
  151.7109  145.5988  158.8006 H   0  0  0  0  0  0  0  0  0  0  0  0
  153.3012  143.1618  159.7266 H   0  0  0  0  0  0  0  0  0  0  0  0
  152.5639  144.4053  160.7482 H   0  0  0  0  0  0  0  0  0  0  0  0
  149.8862  140.9044  153.4880 H   0  0  0  0  0  0  0  0  0  0  0  0
  148.4997  140.5866  152.5015 H   0  0  0  0  0  0  0  0  0  0  0  0
  148.1237  142.6375  153.8183 H   0  0  0  0  0  0  0  0  0  0  0  0
  148.4551  141.7953  155.3185 H   0  0  0  0  0  0  0  0  0  0  0  0
  1  2  1  0  0  0  0
  1 28  1  0  0  0  0
  1 29  1  0  0  0  0
  1 30  1  0  0  0  0
  2  3  2  0  0  0  0
  2  4  2  0  0  0  0
  2  5  1  0  0  0  0
  5 27  1  0  0  0  0
  5  6  1  0  0  0  0
  6  7  1  0  0  0  0
  6 31  1  0  0  0  0
  6 32  1  0  0  0  0
  7  8  1  0  0  0  0
  7 33  1  0  0  0  0
  7 34  1  0  0  0  0
  8  9  1  0  0  0  0
  8 26  1  0  0  0  0
  9 10  2  0  0  0  0
  9 11  1  0  0  0  0
 11 12  1  0  0  0  0
 11 35  1  0  0  0  0
 11 36  1  0  0  0  0
 12 24  1  0  0  0  0
 12 13  1  0  0  0  0
 13 14  2  0  0  0  0
 13 15  1  0  0  0  0
 15 16  1  0  0  0  0
 15 17  2  0  0  0  0
 17 18  1  0  0  0  0
 17 37  1  0  0  0  0
 18 19  1  0  0  0  0
 18 24  1  0  0  0  0
 19 23  1  0  0  0  0
 19 20  1  0  0  0  0
 19 38  1  0  0  0  0
 20 21  1  0  0  0  0
 20 39  1  0  0  0  0
 20 40  1  0  0  0  0
 21 22  1  0  0  0  0
 21 41  1  0  0  0  0
 21 42  1  0  0  0  0
 22 23  1  0  0  0  0
 22 43  1  0  0  0  0
 22 44  1  0  0  0  0
 24 25  2  0  0  0  0
 26 27  1  0  0  0  0
 26 45  1  0  0  0  0
 26 46  1  0  0  0  0
 27 47  1  0  0  0  0
 27 48  1  0  0  0  0
M  END
> <s_m_source_file>
AV-unprocessed.smi

> <i_m_source_file_index>
122

> <i_lp_mmshare_version>
43012

> <i_f3d_flags>
0

> <s_epik_input>
W0NIM11TKD1PKSg9TylOMVtDSDJdW0NIMl1OKFtDSDJdW0NIMl0xKUMoPU8pW0NIMl1uMmMoPU8pYyhGKVtjSF1uKGMyPU8pW0NAQEhdM1tDSDJdW0NIMl1bQ0gyXU8z

> <s_epik_cmdline>
J2VwaWtfcHl0aG9uJywgJy1waCcsICc3LjAnLCAnLXRuJywgJzgnLCAnLW1hJywgJzIwMCcsICctbWV0YWxfYmluZGluZycsICctaW1hZScsICc8aW5maWxlLm1hZT4nLCAnLW9tYWUnLCAnPG91dGZpbGUubWFlPic=

> <r_lp_tautomer_probability>
1

> <r_epik_Ionization_Penalty>
4.55442e-09

> <r_epik_Ionization_Penalty_Charging>
4.02834e-09

> <r_epik_Ionization_Penalty_Neutral>
5.2608e-10

> <r_epik_State_Penalty>
-0

> <r_epik_Charging_Adjusted_Penalty>
4.02834e-09

> <i_epik_Tot_Q>
0

> <i_epik_Tot_abs_Q>
0

> <r_epik_Metal_State_Penalty>
-0

> <b_epik_Metal_Only>
0

> <s_epik_Chemistry_Notes>
This compound contains an acetal/aminal-like group ( X-CH(R)-Y where X, Y are N, S, or O) that may be acid/base labile, releasing an aldehyde.

> <s_lp_Force_Field>
OPLS_2005

> <r_lp_Energy>
39.2384

> <b_lp_Chiralities_Consistent>
1

> <s_lp_Variant>
AV-unprocessed.smi:122-1

> <Gold.Version>
5.8.1

> <Gold.Id.Protein>
6NUR|6NUR_protein|mol2

> <Gold.PLP.Fitness>
44.7545

> <Gold.PLP.PLP>
-45.8627

> <Gold.PLP.part.hbond>
-0.5220

> <Gold.PLP.part.metal>
0.0000

> <Gold.PLP.part.buried>
-3.0563

> <Gold.PLP.part.nonpolar>
-44.1721

> <Gold.PLP.part.repulsive>
0.8781

> <Gold.PLP.ligand.clash>
0.0000

> <Gold.PLP.ligand.torsion>
1.5924

> <Gold.PLP.Chemscore.Hbond>
0.0000

> <Gold.PLP.Chemscore.CHOScore>
0.0000

> <Gold.PLP.Chemscore.Metal>
0.0000

> <Gold.PLP.Chemscore.Internal.Correction>
2.0765

> <Gold.Rescore>
     Score         DG    S(hbond)    S(metal)    S(lipo)     H(rot)  DE(clash)    DE(int)     intcor
      7.99     -10.90       0.00        0.00      83.32       1.69       0.09       2.82       ----

> <Gold.Chemscore.Fitness>
7.9947

> <Gold.Chemscore.DG>
-10.9042

> <Gold.Chemscore.ZeroCoef>
-5.4800

> <Gold.Chemscore.Hbond>
0.0000

> <Gold.Chemscore.Metal>
0.0000

> <Gold.Chemscore.Lipo>
83.3166

> <Gold.Chemscore.Internal_Hbond>
0.0000

> <Gold.Chemscore.DEClash>
0.0867

> <Gold.Chemscore.DEInternal>
2.8228

> <Gold.Chemscore.Rot>
1.6890

> <Gold.Chemscore.Internal.Correction>
   9.000000E+99

> <Gold.Chemscore.Hbond.Weighted>
-0.0000

> <Gold.Chemscore.Metal.Weighted>
-0.0000

> <Gold.Chemscore.Lipo.Weighted>
-9.7480

> <Gold.Chemscore.Internal_Hbond.Weighted>
0.0000

> <Gold.Chemscore.DEClash.Weighted>
0.0867

> <Gold.Chemscore.DEInternal.Weighted>
2.8228

> <Gold.Chemscore.Rot.Weighted>
4.3239

> <Gold.Chemscore.Internal.Correction.Weighted>
   9.000000E+99

> <Gold.Protein.RotatedTorsions>
[ 6907 6896 6895 6894 ] final  -22.69 input  -60.11 | X-H torsion
[ 7974 7965 7964 7962 ] final  122.69 input  175.53 | X-H torsion
[ 8008 7997 7996 7995 ] final   61.09 input   59.86 | X-H torsion
[ 10167 10162 10161 10158 ] final  -46.00 input  -65.29 | X-H torsion
[ 10718 10713 10712 10709 ] final  126.54 input   66.30 | X-H torsion
[ 10763 10752 10751 10750 ] final -162.14 input  -60.55 | X-H torsion
[ 11005 11000 10999 10996 ] final  -84.46 input  -57.11 | X-H torsion

> <Gold.Protein.ActiveResidues>
 VAL166  LYS551  ARG553  GLY616  TRP617  ASP618  TYR619  PRO620  LYS621  CYS622 
 ASP623  PHE694  ASN695  SER759  ASP760  ASP761  ALA762  ILE779  LEU786  VAL792 
 PHE793  MET794  SER795  GLU796  ALA797  LYS798  CYS799  TRP800  GLU811  SER814 

> <Gold.Protein.RotatedAtoms>
  151.2150  135.0496  159.8926 H   0  0  0  0  0  0  0  0  0  0  0  0  # atno 6907 bound_to 6896
  152.5421  134.0703  159.8201 H   0  0  0  0  0  0  0  0  0  0  0  0  # atno 6908 bound_to 6896
  151.0862  133.5303  159.2649 H   0  0  0  0  0  0  0  0  0  0  0  0  # atno 6909 bound_to 6896
  145.1046  139.3495  143.4794 H   0  0  0  0  0  0  0  0  0  0  0  0  # atno 7974 bound_to 7965
  155.5928  140.3493  155.4571 H   0  0  0  0  0  0  0  0  0  0  0  0  # atno 8008 bound_to 7997
  156.0288  140.1270  157.0305 H   0  0  0  0  0  0  0  0  0  0  0  0  # atno 8009 bound_to 7997
  154.4344  140.1047  156.6056 H   0  0  0  0  0  0  0  0  0  0  0  0  # atno 8010 bound_to 7997
  140.6835  143.2852  151.3720 H   0  0  0  0  0  0  0  0  0  0  0  0  # atno 10167 bound_to 10162
  157.5410  131.1097  150.8858 H   0  0  0  0  0  0  0  0  0  0  0  0  # atno 10718 bound_to 10713
  154.7240  135.3032  154.9000 H   0  0  0  0  0  0  0  0  0  0  0  0  # atno 10763 bound_to 10752
  153.9863  135.6724  153.4756 H   0  0  0  0  0  0  0  0  0  0  0  0  # atno 10764 bound_to 10752
  153.0859  135.4984  154.8514 H   0  0  0  0  0  0  0  0  0  0  0  0  # atno 10765 bound_to 10752
  141.1650  133.7347  156.8871 H   0  0  0  0  0  0  0  0  0  0  0  0  # atno 11005 bound_to 11000
  146.3528  140.0938  142.8611 LP  0  0  0  0  0  0  0  0  0  0  0  0  # atno 17320 bound_to 7965
  145.0917  140.9288  143.4765 LP  0  0  0  0  0  0  0  0  0  0  0  0  # atno 17321 bound_to 7965
  139.6175  144.0972  152.2360 LP  0  0  0  0  0  0  0  0  0  0  0  0  # atno 17342 bound_to 10162
  140.0406  144.6010  150.7414 LP  0  0  0  0  0  0  0  0  0  0  0  0  # atno 17343 bound_to 10162
  156.9411  130.5385  149.5280 LP  0  0  0  0  0  0  0  0  0  0  0  0  # atno 17370 bound_to 10713
  156.0497  130.5568  150.8961 LP  0  0  0  0  0  0  0  0  0  0  0  0  # atno 17371 bound_to 10713
  140.1674  134.9123  157.2791 LP  0  0  0  0  0  0  0  0  0  0  0  0  # atno 17394 bound_to 11000
  140.2541  134.3648  155.7431 LP  0  0  0  0  0  0  0  0  0  0  0  0  # atno 17395 bound_to 11000

$$$$
