AV-unprocessed.smi:1006|AV-procd|sdf|4392|dock10
  -GOLD-   22720 2323D 1   1.00000     0.00000
 Structure written by MMmdl.
 46 48  0  0  0  0  0  0  0  0  2 V2000
  149.2707  133.1680  153.4124 C   0  0  0  0  0  0  0  0  0  0  0  0
  148.9792  134.1523  154.5253 C   0  0  0  0  0  0  0  0  0  0  0  0
  149.1401  133.8143  155.8845 C   0  0  0  0  0  0  0  0  0  0  0  0
  148.8395  134.8137  156.8264 C   0  0  0  0  0  0  0  0  0  0  0  0
  148.9714  134.5736  158.1916 N   0  0  0  0  0  0  0  0  0  0  0  0
  148.4163  136.0352  156.4460 N   0  0  0  0  0  0  0  0  0  0  0  0
  148.2841  136.2903  155.1376 C   0  0  0  0  0  0  0  0  0  0  0  0
  147.7445  137.9056  154.6064 S   0  0  0  0  0  0  0  0  0  0  0  0
  149.1196  138.9750  155.1349 C   0  0  0  0  0  0  0  0  0  0  0  0
  148.8377  140.4589  154.8496 C   0  0  2  0  0  0  0  0  0  0  0  0
  148.1766  140.5700  153.6034 O   0  0  0  0  0  0  0  0  0  0  0  0
  150.1304  141.2971  154.8284 C   0  0  0  0  0  0  0  0  0  0  0  0
  151.0337  140.9561  155.9134 N   0  0  0  0  0  0  0  0  0  0  0  0
  151.8494  139.8866  155.9832 C   0  0  0  0  0  0  0  0  0  0  0  0
  152.5988  139.7619  157.0747 N   0  0  0  0  0  0  0  0  0  0  0  0
  152.2272  140.8829  157.7972 C   0  0  0  0  0  0  0  0  0  0  0  0
  152.6596  141.3441  159.0600 C   0  0  0  0  0  0  0  0  0  0  0  0
  152.1384  142.5349  159.6144 C   0  0  0  0  0  0  0  0  0  0  0  0
  152.6335  142.9952  160.9742 C   0  0  0  0  0  0  0  0  0  0  0  0
  151.1668  143.2837  158.9027 C   0  0  0  0  0  0  0  0  0  0  0  0
  150.5936  144.5669  159.4775 C   0  0  0  0  0  0  0  0  0  0  0  0
  150.7225  142.8363  157.6408 C   0  0  0  0  0  0  0  0  0  0  0  0
  151.2503  141.6511  157.0986 C   0  0  0  0  0  0  0  0  0  0  0  0
  148.5543  135.3933  154.1786 N   0  3  0  0  0  0  0  0  0  0  0  0
  149.4251  132.1636  153.8079 H   0  0  0  0  0  0  0  0  0  0  0  0
  150.1696  133.4643  152.8711 H   0  0  0  0  0  0  0  0  0  0  0  0
  148.4400  133.1302  152.7071 H   0  0  0  0  0  0  0  0  0  0  0  0
  149.4795  132.8340  156.1877 H   0  0  0  0  0  0  0  0  0  0  0  0
  149.2846  133.6812  158.5457 H   0  0  0  0  0  0  0  0  0  0  0  0
  148.7750  135.2918  158.8741 H   0  0  0  0  0  0  0  0  0  0  0  0
  149.2706  138.8273  156.2049 H   0  0  0  0  0  0  0  0  0  0  0  0
  150.0389  138.6673  154.6350 H   0  0  0  0  0  0  0  0  0  0  0  0
  148.1742  140.8527  155.6209 H   0  0  0  0  0  0  0  0  0  0  0  0
  148.8277  140.6106  152.9197 H   0  0  0  0  0  0  0  0  0  0  0  0
  150.6597  141.1487  153.8865 H   0  0  0  0  0  0  0  0  0  0  0  0
  149.8965  142.3608  154.8886 H   0  0  0  0  0  0  0  0  0  0  0  0
  151.8942  139.1573  155.1877 H   0  0  0  0  0  0  0  0  0  0  0  0
  153.3995  140.7733  159.6015 H   0  0  0  0  0  0  0  0  0  0  0  0
  153.1124  143.9713  160.8945 H   0  0  0  0  0  0  0  0  0  0  0  0
  153.3613  142.2980  161.3902 H   0  0  0  0  0  0  0  0  0  0  0  0
  151.8044  143.0718  161.6779 H   0  0  0  0  0  0  0  0  0  0  0  0
  149.8572  145.0094  158.8060 H   0  0  0  0  0  0  0  0  0  0  0  0
  151.3845  145.3003  159.6370 H   0  0  0  0  0  0  0  0  0  0  0  0
  150.1022  144.3733  160.4313 H   0  0  0  0  0  0  0  0  0  0  0  0
  149.9811  143.3956  157.0896 H   0  0  0  0  0  0  0  0  0  0  0  0
  148.4429  135.6338  153.1935 H   0  0  0  0  0  0  0  0  0  0  0  0
  1  2  1  0  0  0  0
  1 25  1  0  0  0  0
  1 26  1  0  0  0  0
  1 27  1  0  0  0  0
  2 24  1  0  0  0  0
  2  3  2  0  0  0  0
  3  4  1  0  0  0  0
  3 28  1  0  0  0  0
  4  5  1  0  0  0  0
  4  6  2  0  0  0  0
  5 29  1  0  0  0  0
  5 30  1  0  0  0  0
  6  7  1  0  0  0  0
  7  8  1  0  0  0  0
  7 24  2  0  0  0  0
  8  9  1  0  0  0  0
  9 10  1  0  0  0  0
  9 31  1  0  0  0  0
  9 32  1  0  0  0  0
 10 11  1  0  0  0  0
 10 12  1  0  0  0  0
 10 33  1  0  0  0  0
 11 34  1  0  0  0  0
 12 13  1  0  0  0  0
 12 35  1  0  0  0  0
 12 36  1  0  0  0  0
 13 23  1  0  0  0  0
 13 14  1  0  0  0  0
 14 15  2  0  0  0  0
 14 37  1  0  0  0  0
 15 16  1  0  0  0  0
 16 23  2  0  0  0  0
 16 17  1  0  0  0  0
 17 18  2  0  0  0  0
 17 38  1  0  0  0  0
 18 19  1  0  0  0  0
 18 20  1  0  0  0  0
 19 39  1  0  0  0  0
 19 40  1  0  0  0  0
 19 41  1  0  0  0  0
 20 21  1  0  0  0  0
 20 22  2  0  0  0  0
 21 42  1  0  0  0  0
 21 43  1  0  0  0  0
 21 44  1  0  0  0  0
 22 23  1  0  0  0  0
 22 45  1  0  0  0  0
 24 46  1  0  0  0  0
M  CHG  1  24   1
M  END
> <s_m_source_file>
AV-unprocessed.smi

> <i_m_source_file_index>
1006

> <i_lp_mmshare_version>
43012

> <i_f3d_flags>
0

> <s_epik_input>
W0NIM11jMVtjSF1jKFtOSDJdKW5jKG4xKVNbQ0gyXVtDQEhdKFtPSF0pW0NIMl1uKFtjSF1uMiljKGMyMylbY0hdYyhbQ0gzXSljKFtjSF0zKVtDSDNd

> <s_epik_cmdline>
J2VwaWtfcHl0aG9uJywgJy1waCcsICc3LjAnLCAnLXRuJywgJzgnLCAnLW1hJywgJzIwMCcsICctbWV0YWxfYmluZGluZycsICctaW1hZScsICc8aW5maWxlLm1hZT4nLCAnLW9tYWUnLCAnPG91dGZpbGUubWFlPic=

> <r_lp_tautomer_probability>
0.999762

> <r_epik_Ionization_Penalty>
0.549885

> <r_epik_Ionization_Penalty_Charging>
0.440405

> <r_epik_Ionization_Penalty_Neutral>
0.10948

> <r_epik_State_Penalty>
0.546419

> <r_epik_Charging_Adjusted_Penalty>
0.986823

> <i_epik_Tot_Q>
1

> <i_epik_Tot_abs_Q>
1

> <r_epik_Metal_State_Penalty>
0.699827

> <b_epik_Metal_Only>
0

> <s_lp_Force_Field>
OPLS_2005

> <r_lp_Energy>
10.4004

> <b_lp_Chiralities_Consistent>
1

> <s_lp_Variant>
AV-unprocessed.smi:1006-3

> <Gold.Version>
5.8.1

> <Gold.Id.Protein>
6NUR|6NUR_protein|mol2

> <Gold.PLP.Fitness>
49.7704

> <Gold.PLP.PLP>
-38.8967

> <Gold.PLP.part.hbond>
-3.0000

> <Gold.PLP.part.metal>
0.0000

> <Gold.PLP.part.buried>
-2.9380

> <Gold.PLP.part.nonpolar>
-32.8038

> <Gold.PLP.part.repulsive>
0.2077

> <Gold.PLP.ligand.clash>
0.0000

> <Gold.PLP.ligand.torsion>
0.6002

> <Gold.PLP.Chemscore.Hbond>
4.0000

> <Gold.PLP.Chemscore.CHOScore>
0.0000

> <Gold.PLP.Chemscore.Metal>
0.0000

> <Gold.Chemscore.Hbonds>
donor molecule, donor type, donor heavy atom, donor atom, acceptor molecule, acceptor atom, score
      L1  H    11    34       P1  7957  1.00
      L1  H    24    46       P1  7948  2.00
      P1  H  7997  8008       L1    15  1.00

> <Gold.PLP.Chemscore.Internal.Correction>
0.0740

> <Gold.Rescore>
     Score         DG    S(hbond)    S(metal)    S(lipo)     H(rot)  DE(clash)    DE(int)     intcor
     16.65     -18.99       2.77        0.00      99.75       2.89       1.59       0.75       ----

> <Gold.Chemscore.Fitness>
16.6545

> <Gold.Chemscore.DG>
-18.9931

> <Gold.Chemscore.ZeroCoef>
-5.4800

> <Gold.Chemscore.Hbond>
2.7668

> <Gold.Chemscore.Metal>
0.0000

> <Gold.Chemscore.Lipo>
99.7485

> <Gold.Chemscore.Internal_Hbond>
0.0000

> <Gold.Chemscore.DEClash>
1.5918

> <Gold.Chemscore.DEInternal>
0.7468

> <Gold.Chemscore.Rot>
2.8901

> <Gold.Chemscore.Internal.Correction>
   9.000000E+99

> <Gold.Chemscore.Hbonds>
donor molecule, donor type, donor heavy atom, donor atom, acceptor molecule, acceptor atom, score
      L1  H    11    34       P1  7957  0.93
      L1  H    24    46       P1  7948  0.90
      P1  H  7997  8008       L1    15  0.29

> <Gold.Chemscore.Hbond.Weighted>
-9.2411

> <Gold.Chemscore.Metal.Weighted>
-0.0000

> <Gold.Chemscore.Lipo.Weighted>
-11.6706

> <Gold.Chemscore.Internal_Hbond.Weighted>
0.0000

> <Gold.Chemscore.DEClash.Weighted>
1.5918

> <Gold.Chemscore.DEInternal.Weighted>
0.7468

> <Gold.Chemscore.Rot.Weighted>
7.3986

> <Gold.Chemscore.Internal.Correction.Weighted>
   9.000000E+99

> <Gold.Protein.RotatedTorsions>
[ 6907 6896 6895 6894 ] final  121.69 input  -60.11 | X-H torsion
[ 7974 7965 7964 7962 ] final -168.45 input  175.53 | X-H torsion
[ 8008 7997 7996 7995 ] final  -58.12 input   59.86 | X-H torsion
[ 10167 10162 10161 10158 ] final  -68.37 input  -65.29 | X-H torsion
[ 10718 10713 10712 10709 ] final -109.64 input   66.30 | X-H torsion
[ 10763 10752 10751 10750 ] final  133.51 input  -60.55 | X-H torsion
[ 11005 11000 10999 10996 ] final -166.41 input  -57.11 | X-H torsion

> <Gold.Protein.ActiveResidues>
 VAL166  LYS551  ARG553  GLY616  TRP617  ASP618  TYR619  PRO620  LYS621  CYS622 
 ASP623  PHE694  ASN695  SER759  ASP760  ASP761  ALA762  ILE779  LEU786  VAL792 
 PHE793  MET794  SER795  GLU796  ALA797  LYS798  CYS799  TRP800  GLU811  SER814 

> <Gold.Protein.RotatedAtoms>
  152.4302  133.7264  159.6562 H   0  0  0  0  0  0  0  0  0  0  0  0  # atno 6907 bound_to 6896
  150.8180  133.8292  159.3157 H   0  0  0  0  0  0  0  0  0  0  0  0  # atno 6908 bound_to 6896
  151.5982  135.1051  160.0106 H   0  0  0  0  0  0  0  0  0  0  0  0  # atno 6909 bound_to 6896
  144.7203  140.2368  143.6297 H   0  0  0  0  0  0  0  0  0  0  0  0  # atno 7974 bound_to 7965
  154.4295  140.1091  156.5906 H   0  0  0  0  0  0  0  0  0  0  0  0  # atno 8008 bound_to 7997
  155.6016  140.3493  155.4577 H   0  0  0  0  0  0  0  0  0  0  0  0  # atno 8009 bound_to 7997
  156.0169  140.1231  157.0387 H   0  0  0  0  0  0  0  0  0  0  0  0  # atno 8010 bound_to 7997
  140.5512  143.2312  151.6907 H   0  0  0  0  0  0  0  0  0  0  0  0  # atno 10167 bound_to 10162
  156.0548  130.5774  150.8128 H   0  0  0  0  0  0  0  0  0  0  0  0  # atno 10718 bound_to 10713
  153.8082  135.3132  155.3398 H   0  0  0  0  0  0  0  0  0  0  0  0  # atno 10763 bound_to 10752
  154.8062  135.4696  154.0400 H   0  0  0  0  0  0  0  0  0  0  0  0  # atno 10764 bound_to 10752
  153.1770  135.6887  153.8617 H   0  0  0  0  0  0  0  0  0  0  0  0  # atno 10765 bound_to 10752
  140.5648  134.5297  157.5150 H   0  0  0  0  0  0  0  0  0  0  0  0  # atno 11005 bound_to 11000
  145.8358  139.2106  143.1856 LP  0  0  0  0  0  0  0  0  0  0  0  0  # atno 17320 bound_to 7965
  146.0391  140.8183  142.9838 LP  0  0  0  0  0  0  0  0  0  0  0  0  # atno 17321 bound_to 7965
  139.5028  144.3815  152.0371 LP  0  0  0  0  0  0  0  0  0  0  0  0  # atno 17342 bound_to 10162
  140.2932  144.3730  150.6082 LP  0  0  0  0  0  0  0  0  0  0  0  0  # atno 17343 bound_to 10162
  157.5508  131.0944  150.9698 LP  0  0  0  0  0  0  0  0  0  0  0  0  # atno 17370 bound_to 10713
  156.9959  130.5581  149.5307 LP  0  0  0  0  0  0  0  0  0  0  0  0  # atno 17371 bound_to 10713
  139.9390  134.7821  156.0727 LP  0  0  0  0  0  0  0  0  0  0  0  0  # atno 17394 bound_to 11000
  141.1092  133.6649  156.2938 LP  0  0  0  0  0  0  0  0  0  0  0  0  # atno 17395 bound_to 11000

$$$$
