AV-unprocessed.smi:616|AV-procd|sdf|3072|dock4
  -GOLD-   2262023593D 1   1.00000     0.00000
 Structure written by MMmdl.
 34 35  0  0  0  0  0  0  0  0  1 V2000
  149.8915  135.2697  155.1533 C   0  0  0  0  0  0  0  0  0  0  0  0
  150.0320  133.7586  155.0696 C   0  0  0  0  0  0  0  0  0  0  0  0
  150.8810  133.1165  155.9026 C   0  0  0  0  0  0  0  0  0  0  0  0
  151.0668  131.6649  155.8801 C   0  0  0  0  0  0  0  0  0  0  0  0
  151.8471  131.0899  156.6394 O   0  0  0  0  0  0  0  0  0  0  0  0
  150.3189  130.9922  154.9629 N   0  0  0  0  0  0  0  0  0  0  0  0
  150.4309  129.5347  154.8591 C   0  0  0  0  0  0  0  0  0  0  0  0
  149.4373  131.6477  154.0865 C   0  0  0  0  0  0  0  0  0  0  0  0
  149.2615  132.9882  154.1009 C   0  0  0  0  0  0  0  0  0  0  0  0
  148.3996  133.6900  153.2398 N   0  0  0  0  0  0  0  0  0  0  0  0
  147.2499  133.2978  152.6585 C   0  0  0  0  0  0  0  0  0  0  0  0
  146.7017  132.2049  152.7989 O   0  0  0  0  0  0  0  0  0  0  0  0
  146.7511  134.2735  151.8865 N   0  0  0  0  0  0  0  0  0  0  0  0
  145.5119  134.1849  151.1249 C   0  0  0  0  0  0  0  0  0  0  0  0
  145.4112  132.9816  150.2074 C   0  0  0  0  0  0  0  0  0  0  0  0
  144.0697  132.4452  149.7637 C   0  0  0  0  0  0  0  0  0  0  0  0
  144.9111  131.6583  150.7382 C   0  0  0  0  0  0  0  0  0  0  0  0
  150.5363  135.6939  155.9237 H   0  0  0  0  0  0  0  0  0  0  0  0
  148.8625  135.5418  155.3902 H   0  0  0  0  0  0  0  0  0  0  0  0
  150.1596  135.7289  154.2015 H   0  0  0  0  0  0  0  0  0  0  0  0
  151.4516  133.6878  156.6204 H   0  0  0  0  0  0  0  0  0  0  0  0
  149.7117  129.1030  154.1625 H   0  0  0  0  0  0  0  0  0  0  0  0
  150.2591  129.0633  155.8280 H   0  0  0  0  0  0  0  0  0  0  0  0
  151.4281  129.2544  154.5171 H   0  0  0  0  0  0  0  0  0  0  0  0
  148.9351  130.9757  153.4105 H   0  0  0  0  0  0  0  0  0  0  0  0
  148.6967  134.6325  153.0335 H   0  0  0  0  0  0  0  0  0  0  0  0
  147.2620  135.1421  151.8249 H   0  0  0  0  0  0  0  0  0  0  0  0
  144.6907  134.1343  151.8401 H   0  0  0  0  0  0  0  0  0  0  0  0
  145.3593  135.1005  150.5505 H   0  0  0  0  0  0  0  0  0  0  0  0
  146.2204  132.9155  149.4824 H   0  0  0  0  0  0  0  0  0  0  0  0
  143.1758  132.9306  150.1501 H   0  0  0  0  0  0  0  0  0  0  0  0
  143.9924  132.0689  148.7459 H   0  0  0  0  0  0  0  0  0  0  0  0
  145.3937  130.7551  150.3708 H   0  0  0  0  0  0  0  0  0  0  0  0
  144.5739  131.6199  151.7722 H   0  0  0  0  0  0  0  0  0  0  0  0
  1  2  1  0  0  0  0
  1 18  1  0  0  0  0
  1 19  1  0  0  0  0
  1 20  1  0  0  0  0
  2  9  1  0  0  0  0
  2  3  2  0  0  0  0
  3  4  1  0  0  0  0
  3 21  1  0  0  0  0
  4  5  2  0  0  0  0
  4  6  1  0  0  0  0
  6  7  1  0  0  0  0
  6  8  1  0  0  0  0
  7 22  1  0  0  0  0
  7 23  1  0  0  0  0
  7 24  1  0  0  0  0
  8  9  2  0  0  0  0
  8 25  1  0  0  0  0
  9 10  1  0  0  0  0
 10 11  1  0  0  0  0
 10 26  1  0  0  0  0
 11 12  2  0  0  0  0
 11 13  1  0  0  0  0
 13 14  1  0  0  0  0
 13 27  1  0  0  0  0
 14 15  1  0  0  0  0
 14 28  1  0  0  0  0
 14 29  1  0  0  0  0
 15 17  1  0  0  0  0
 15 16  1  0  0  0  0
 15 30  1  0  0  0  0
 16 17  1  0  0  0  0
 16 31  1  0  0  0  0
 16 32  1  0  0  0  0
 17 33  1  0  0  0  0
 17 34  1  0  0  0  0
M  END
> <s_m_source_file>
AV-unprocessed.smi

> <i_m_source_file_index>
616

> <i_lp_mmshare_version>
43012

> <i_f3d_flags>
0

> <s_epik_input>
W0NIM11jMVtjSF1jKD1PKW4oW0NIM10pW2NIXWMxW05IXUMoPU8pW05IXVtDSDJdW0NIXTJbQ0gyXVtDSDJdMg==

> <s_epik_cmdline>
J2VwaWtfcHl0aG9uJywgJy1waCcsICc3LjAnLCAnLXRuJywgJzgnLCAnLW1hJywgJzIwMCcsICctbWV0YWxfYmluZGluZycsICctaW1hZScsICc8aW5maWxlLm1hZT4nLCAnLW9tYWUnLCAnPG91dGZpbGUubWFlPic=

> <r_lp_tautomer_probability>
1

> <r_epik_Ionization_Penalty>
2.97505e-05

> <r_epik_Ionization_Penalty_Charging>
8.23988e-06

> <r_epik_Ionization_Penalty_Neutral>
2.15106e-05

> <r_epik_State_Penalty>
-0

> <r_epik_Charging_Adjusted_Penalty>
8.23988e-06

> <i_epik_Tot_Q>
0

> <i_epik_Tot_abs_Q>
0

> <r_epik_Metal_State_Penalty>
-0

> <b_epik_Metal_Only>
0

> <s_lp_Force_Field>
OPLS_2005

> <r_lp_Energy>
26.2007

> <b_lp_Chiralities_Consistent>
1

> <s_lp_Variant>
AV-unprocessed.smi:616-1

> <Gold.Version>
5.8.1

> <Gold.Id.Protein>
6NUR|6NUR_protein|mol2

> <Gold.PLP.Fitness>
39.6278

> <Gold.PLP.PLP>
-34.1823

> <Gold.PLP.part.hbond>
-2.0000

> <Gold.PLP.part.metal>
0.0000

> <Gold.PLP.part.buried>
-5.2102

> <Gold.PLP.part.nonpolar>
-26.7626

> <Gold.PLP.part.repulsive>
0.1564

> <Gold.PLP.ligand.clash>
0.0000

> <Gold.PLP.ligand.torsion>
0.4718

> <Gold.PLP.Chemscore.Hbond>
1.9500

> <Gold.PLP.Chemscore.CHOScore>
0.0000

> <Gold.PLP.Chemscore.Metal>
0.0000

> <Gold.Chemscore.Hbonds>
donor molecule, donor type, donor heavy atom, donor atom, acceptor molecule, acceptor atom, score
      L1  H    10    26       P1  7948  0.90
      L1  H    13    27       P1  7948  1.00

> <Gold.PLP.Chemscore.Internal.Correction>
0.5391

> <Gold.Rescore>
     Score         DG    S(hbond)    S(metal)    S(lipo)     H(rot)  DE(clash)    DE(int)     intcor
     12.40     -14.06       1.25        0.00      63.57       1.18       0.01       1.65       ----

> <Gold.Chemscore.Fitness>
12.4009

> <Gold.Chemscore.DG>
-14.0584

> <Gold.Chemscore.ZeroCoef>
-5.4800

> <Gold.Chemscore.Hbond>
1.2493

> <Gold.Chemscore.Metal>
0.0000

> <Gold.Chemscore.Lipo>
63.5702

> <Gold.Chemscore.Internal_Hbond>
0.0000

> <Gold.Chemscore.DEClash>
0.0106

> <Gold.Chemscore.DEInternal>
1.6469

> <Gold.Chemscore.Rot>
1.1844

> <Gold.Chemscore.Internal.Correction>
   9.000000E+99

> <Gold.Chemscore.Hbonds>
donor molecule, donor type, donor heavy atom, donor atom, acceptor molecule, acceptor atom, score
      L1  H    10    26       P1  7948  0.17
      L1  H    13    27       P1  7948  0.91

> <Gold.Chemscore.Hbond.Weighted>
-4.1726

> <Gold.Chemscore.Metal.Weighted>
-0.0000

> <Gold.Chemscore.Lipo.Weighted>
-7.4377

> <Gold.Chemscore.Internal_Hbond.Weighted>
0.0000

> <Gold.Chemscore.DEClash.Weighted>
0.0106

> <Gold.Chemscore.DEInternal.Weighted>
1.6469

> <Gold.Chemscore.Rot.Weighted>
3.0320

> <Gold.Chemscore.Internal.Correction.Weighted>
   9.000000E+99

> <Gold.Protein.RotatedTorsions>
[ 6907 6896 6895 6894 ] final  -50.41 input  -60.11 | X-H torsion
[ 7974 7965 7964 7962 ] final  -44.43 input  175.53 | X-H torsion
[ 8008 7997 7996 7995 ] final    3.95 input   59.86 | X-H torsion
[ 10167 10162 10161 10158 ] final   26.95 input  -65.29 | X-H torsion
[ 10718 10713 10712 10709 ] final  157.54 input   66.30 | X-H torsion
[ 10763 10752 10751 10750 ] final  161.12 input  -60.55 | X-H torsion
[ 11005 11000 10999 10996 ] final   98.59 input  -57.11 | X-H torsion

> <Gold.Protein.ActiveResidues>
 VAL166  LYS551  ARG553  GLY616  TRP617  ASP618  TYR619  PRO620  LYS621  CYS622 
 ASP623  PHE694  ASN695  SER759  ASP760  ASP761  ALA762  ILE779  LEU786  VAL792 
 PHE793  MET794  SER795  GLU796  ALA797  LYS798  CYS799  TRP800  GLU811  SER814 

> <Gold.Protein.RotatedAtoms>
  150.8710  134.8083  159.7154 H   0  0  0  0  0  0  0  0  0  0  0  0  # atno 6907 bound_to 6896
  152.4714  134.4947  159.9716 H   0  0  0  0  0  0  0  0  0  0  0  0  # atno 6908 bound_to 6896
  151.5036  133.3461  159.2908 H   0  0  0  0  0  0  0  0  0  0  0  0  # atno 6909 bound_to 6896
  145.9921  140.7169  142.9312 H   0  0  0  0  0  0  0  0  0  0  0  0  # atno 7974 bound_to 7965
  154.7099  140.2690  155.6639 H   0  0  0  0  0  0  0  0  0  0  0  0  # atno 8008 bound_to 7997
  156.2792  140.2755  156.1662 H   0  0  0  0  0  0  0  0  0  0  0  0  # atno 8009 bound_to 7997
  155.0649  140.0371  157.2579 H   0  0  0  0  0  0  0  0  0  0  0  0  # atno 8010 bound_to 7997
  140.4980  144.0361  150.6322 H   0  0  0  0  0  0  0  0  0  0  0  0  # atno 10167 bound_to 10162
  157.1900  131.0652  151.2084 H   0  0  0  0  0  0  0  0  0  0  0  0  # atno 10718 bound_to 10713
  154.2580  135.2769  155.2789 H   0  0  0  0  0  0  0  0  0  0  0  0  # atno 10763 bound_to 10752
  154.5408  135.5703  153.6841 H   0  0  0  0  0  0  0  0  0  0  0  0  # atno 10764 bound_to 10752
  152.9967  135.6250  154.2730 H   0  0  0  0  0  0  0  0  0  0  0  0  # atno 10765 bound_to 10752
  139.8772  134.9056  156.4478 H   0  0  0  0  0  0  0  0  0  0  0  0  # atno 11005 bound_to 11000
  144.6892  140.3088  143.7251 LP  0  0  0  0  0  0  0  0  0  0  0  0  # atno 17320 bound_to 7965
  145.7614  139.1826  143.2265 LP  0  0  0  0  0  0  0  0  0  0  0  0  # atno 17321 bound_to 7965
  140.3649  143.2887  152.0343 LP  0  0  0  0  0  0  0  0  0  0  0  0  # atno 17342 bound_to 10162
  139.4865  144.6275  151.7136 LP  0  0  0  0  0  0  0  0  0  0  0  0  # atno 17343 bound_to 10162
  157.3869  130.7261  149.6670 LP  0  0  0  0  0  0  0  0  0  0  0  0  # atno 17370 bound_to 10713
  155.9713  130.4157  150.4194 LP  0  0  0  0  0  0  0  0  0  0  0  0  # atno 17371 bound_to 10713
  140.8953  133.7818  155.9618 LP  0  0  0  0  0  0  0  0  0  0  0  0  # atno 17394 bound_to 11000
  140.8709  134.2727  157.5191 LP  0  0  0  0  0  0  0  0  0  0  0  0  # atno 17395 bound_to 11000

$$$$
