AV-unprocessed.smi:2494|AV-procd|sdf|9822|dock5
  -GOLD-   2272013453D 1   1.00000     0.00000
 Structure written by MMmdl.
 30 31  0  0  0  0  0  0  0  0  1 V2000
  149.5679  140.7870  153.5017 O   0  0  0  0  0  0  0  0  0  0  0  0
  149.1431  141.3516  154.7235 C   0  0  0  0  0  0  0  0  0  0  0  0
  150.3642  141.6595  155.6058 C   0  0  0  0  0  0  0  0  0  0  0  0
  150.7337  140.5232  156.5968 C   0  0  1  0  0  0  0  0  0  0  0  0
  151.0760  139.2241  155.8252 C   0  0  0  0  0  0  0  0  0  0  0  0
  151.4848  138.1924  156.7132 O   0  0  0  0  0  0  0  0  0  0  0  0
  152.6582  138.5542  157.4243 C   0  0  0  0  0  0  0  0  0  0  0  0
  152.3477  139.7815  158.2885 C   0  0  0  0  0  0  0  0  0  0  0  0
  151.8587  140.8894  157.4726 N   0  0  0  0  0  0  0  0  0  0  0  0
  151.8448  142.0932  158.1658 C   0  0  0  0  0  0  0  0  0  0  0  0
  151.9751  142.0504  159.4989 N   0  0  0  0  0  0  0  0  0  0  0  0
  151.9896  143.2314  160.1542 C   0  0  0  0  0  0  0  0  0  0  0  0
  151.8827  144.4569  159.4673 C   0  0  0  0  0  0  0  0  0  0  0  0
  151.9029  145.9681  160.2989 Cl  0  0  0  0  0  0  0  0  0  0  0  0
  151.7613  144.3834  158.0655 C   0  0  0  0  0  0  0  0  0  0  0  0
  151.7478  143.1980  157.4180 N   0  0  0  0  0  0  0  0  0  0  0  0
  148.9069  140.1801  153.2048 H   0  0  0  0  0  0  0  0  0  0  0  0
  148.5792  142.2615  154.5162 H   0  0  0  0  0  0  0  0  0  0  0  0
  148.4678  140.6470  155.2075 H   0  0  0  0  0  0  0  0  0  0  0  0
  151.2240  141.8871  154.9739 H   0  0  0  0  0  0  0  0  0  0  0  0
  150.1436  142.5787  156.1473 H   0  0  0  0  0  0  0  0  0  0  0  0
  149.8734  140.3253  157.2380 H   0  0  0  0  0  0  0  0  0  0  0  0
  150.2061  138.8571  155.2823 H   0  0  0  0  0  0  0  0  0  0  0  0
  151.8578  139.4034  155.0849 H   0  0  0  0  0  0  0  0  0  0  0  0
  152.9645  137.7187  158.0538 H   0  0  0  0  0  0  0  0  0  0  0  0
  153.4793  138.7542  156.7339 H   0  0  0  0  0  0  0  0  0  0  0  0
  151.5938  139.5300  159.0359 H   0  0  0  0  0  0  0  0  0  0  0  0
  153.2459  140.0797  158.8308 H   0  0  0  0  0  0  0  0  0  0  0  0
  152.0899  143.1965  161.2289 H   0  0  0  0  0  0  0  0  0  0  0  0
  151.6773  145.2747  157.4615 H   0  0  0  0  0  0  0  0  0  0  0  0
  1  2  1  0  0  0  0
  1 17  1  0  0  0  0
  2  3  1  0  0  0  0
  2 18  1  0  0  0  0
  2 19  1  0  0  0  0
  3  4  1  0  0  0  0
  3 20  1  0  0  0  0
  3 21  1  0  0  0  0
  4  9  1  0  0  0  0
  4  5  1  0  0  0  0
  4 22  1  0  0  0  0
  5  6  1  0  0  0  0
  5 23  1  0  0  0  0
  5 24  1  0  0  0  0
  6  7  1  0  0  0  0
  7  8  1  0  0  0  0
  7 25  1  0  0  0  0
  7 26  1  0  0  0  0
  8  9  1  0  0  0  0
  8 27  1  0  0  0  0
  8 28  1  0  0  0  0
  9 10  1  0  0  0  0
 10 16  1  0  0  0  0
 10 11  2  0  0  0  0
 11 12  1  0  0  0  0
 12 13  2  0  0  0  0
 12 29  1  0  0  0  0
 13 14  1  0  0  0  0
 13 15  1  0  0  0  0
 15 16  2  0  0  0  0
 15 30  1  0  0  0  0
M  END
> <s_m_source_file>
AV-unprocessed.smi

> <i_m_source_file_index>
2494

> <i_lp_mmshare_version>
43012

> <i_f3d_flags>
0

> <s_epik_input>
W09IXVtDSDJdW0NIMl1bQ0BASF0xW0NIMl1PW0NIMl1bQ0gyXU4xYzJuW2NIXWMoQ2wpW2NIXW4y

> <s_epik_cmdline>
J2VwaWtfcHl0aG9uJywgJy1waCcsICc3LjAnLCAnLXRuJywgJzgnLCAnLW1hJywgJzIwMCcsICctbWV0YWxfYmluZGluZycsICctaW1hZScsICc8aW5maWxlLm1hZT4nLCAnLW9tYWUnLCAnPG91dGZpbGUubWFlPic=

> <r_lp_tautomer_probability>
1

> <r_epik_Ionization_Penalty>
3.66811e-07

> <r_epik_Ionization_Penalty_Charging>
0

> <r_epik_Ionization_Penalty_Neutral>
3.66811e-07

> <r_epik_State_Penalty>
-0

> <r_epik_Charging_Adjusted_Penalty>
0

> <i_epik_Tot_Q>
0

> <i_epik_Tot_abs_Q>
0

> <r_epik_Metal_State_Penalty>
-0

> <b_epik_Metal_Only>
0

> <s_lp_Force_Field>
OPLS_2005

> <r_lp_Energy>
15.3646

> <b_lp_Chiralities_Consistent>
1

> <s_lp_Variant>
AV-unprocessed.smi:2494-2

> <Gold.Version>
5.8.1

> <Gold.Id.Protein>
6NUR|6NUR_protein|mol2

> <Gold.PLP.Fitness>
35.8750

> <Gold.PLP.PLP>
-32.3558

> <Gold.PLP.part.hbond>
-2.7398

> <Gold.PLP.part.metal>
0.0000

> <Gold.PLP.part.buried>
-2.2456

> <Gold.PLP.part.nonpolar>
-27.0301

> <Gold.PLP.part.repulsive>
0.0824

> <Gold.PLP.ligand.clash>
0.0000

> <Gold.PLP.ligand.torsion>
0.4273

> <Gold.PLP.Chemscore.Hbond>
1.3520

> <Gold.PLP.Chemscore.CHOScore>
0.0000

> <Gold.PLP.Chemscore.Metal>
0.0000

> <Gold.Chemscore.Hbonds>
donor molecule, donor type, donor heavy atom, donor atom, acceptor molecule, acceptor atom, score
      P1  H  7989  7998       L1     1  0.35
      P1  H  8011  8017       L1     1  1.00

> <Gold.PLP.Chemscore.Internal.Correction>
0.3177

> <Gold.Rescore>
     Score         DG    S(hbond)    S(metal)    S(lipo)     H(rot)  DE(clash)    DE(int)     intcor
     12.01     -14.12       1.15        0.00      85.85       2.04       0.09       2.02       ----

> <Gold.Chemscore.Fitness>
12.0148

> <Gold.Chemscore.DG>
-14.1214

> <Gold.Chemscore.ZeroCoef>
-5.4800

> <Gold.Chemscore.Hbond>
1.1454

> <Gold.Chemscore.Metal>
0.0000

> <Gold.Chemscore.Lipo>
85.8488

> <Gold.Chemscore.Internal_Hbond>
0.0000

> <Gold.Chemscore.DEClash>
0.0904

> <Gold.Chemscore.DEInternal>
2.0161

> <Gold.Chemscore.Rot>
2.0424

> <Gold.Chemscore.Internal.Correction>
   9.000000E+99

> <Gold.Chemscore.Hbonds>
donor molecule, donor type, donor heavy atom, donor atom, acceptor molecule, acceptor atom, score
      L1  H     1    17       P1  7957  0.02
      P1  H  7989  7998       L1     1  0.19
      P1  H  8011  8017       L1     1  0.34

> <Gold.Chemscore.Hbond.Weighted>
-3.8255

> <Gold.Chemscore.Metal.Weighted>
-0.0000

> <Gold.Chemscore.Lipo.Weighted>
-10.0443

> <Gold.Chemscore.Internal_Hbond.Weighted>
0.0000

> <Gold.Chemscore.DEClash.Weighted>
0.0904

> <Gold.Chemscore.DEInternal.Weighted>
2.0161

> <Gold.Chemscore.Rot.Weighted>
5.2285

> <Gold.Chemscore.Internal.Correction.Weighted>
   9.000000E+99

> <Gold.Protein.RotatedTorsions>
[ 6907 6896 6895 6894 ] final  162.58 input  -60.11 | X-H torsion
[ 7974 7965 7964 7962 ] final  117.25 input  175.53 | X-H torsion
[ 8008 7997 7996 7995 ] final -156.35 input   59.86 | X-H torsion
[ 10167 10162 10161 10158 ] final  167.87 input  -65.29 | X-H torsion
[ 10718 10713 10712 10709 ] final  104.69 input   66.30 | X-H torsion
[ 10763 10752 10751 10750 ] final  132.59 input  -60.55 | X-H torsion
[ 11005 11000 10999 10996 ] final   79.23 input  -57.11 | X-H torsion

> <Gold.Protein.ActiveResidues>
 VAL166  LYS551  ARG553  GLY616  TRP617  ASP618  TYR619  PRO620  LYS621  CYS622 
 ASP623  PHE694  ASN695  SER759  ASP760  ASP761  ALA762  ILE779  LEU786  VAL792 
 PHE793  MET794  SER795  GLU796  ALA797  LYS798  CYS799  TRP800  GLU811  SER814 

> <Gold.Protein.RotatedAtoms>
  151.9383  133.3630  159.3955 H   0  0  0  0  0  0  0  0  0  0  0  0  # atno 6907 bound_to 6896
  150.7003  134.4465  159.5326 H   0  0  0  0  0  0  0  0  0  0  0  0  # atno 6908 bound_to 6896
  152.2118  134.8494  160.0547 H   0  0  0  0  0  0  0  0  0  0  0  0  # atno 6909 bound_to 6896
  145.1697  139.3108  143.4474 H   0  0  0  0  0  0  0  0  0  0  0  0  # atno 7974 bound_to 7965
  155.7159  140.0784  157.2351 H   0  0  0  0  0  0  0  0  0  0  0  0  # atno 8008 bound_to 7997
  154.4052  140.1621  156.2401 H   0  0  0  0  0  0  0  0  0  0  0  0  # atno 8009 bound_to 7997
  155.9241  140.3396  155.6199 H   0  0  0  0  0  0  0  0  0  0  0  0  # atno 8010 bound_to 7997
  139.4955  144.3876  151.9553 H   0  0  0  0  0  0  0  0  0  0  0  0  # atno 10167 bound_to 10162
  157.6732  131.0810  150.5744 H   0  0  0  0  0  0  0  0  0  0  0  0  # atno 10718 bound_to 10713
  153.7933  135.3152  155.3381 H   0  0  0  0  0  0  0  0  0  0  0  0  # atno 10763 bound_to 10752
  154.8117  135.4662  154.0538 H   0  0  0  0  0  0  0  0  0  0  0  0  # atno 10764 bound_to 10752
  153.1863  135.6901  153.8498 H   0  0  0  0  0  0  0  0  0  0  0  0  # atno 10765 bound_to 10752
  139.9181  134.7826  156.1752 H   0  0  0  0  0  0  0  0  0  0  0  0  # atno 11005 bound_to 11000
  146.3470  140.1838  142.8589 LP  0  0  0  0  0  0  0  0  0  0  0  0  # atno 17320 bound_to 7965
  145.0245  140.8821  143.5146 LP  0  0  0  0  0  0  0  0  0  0  0  0  # atno 17321 bound_to 7965
  140.3313  144.3313  150.5987 LP  0  0  0  0  0  0  0  0  0  0  0  0  # atno 17342 bound_to 10162
  140.5643  143.2188  151.7711 LP  0  0  0  0  0  0  0  0  0  0  0  0  # atno 17343 bound_to 10162
  156.6045  130.4363  149.5884 LP  0  0  0  0  0  0  0  0  0  0  0  0  # atno 17370 bound_to 10713
  156.2480  130.6890  151.1618 LP  0  0  0  0  0  0  0  0  0  0  0  0  # atno 17371 bound_to 10713
  141.0676  133.6812  156.2075 LP  0  0  0  0  0  0  0  0  0  0  0  0  # atno 17394 bound_to 11000
  140.6560  134.5018  157.5580 LP  0  0  0  0  0  0  0  0  0  0  0  0  # atno 17395 bound_to 11000

$$$$
