AV-unprocessed.smi:2451|AV-procd|sdf|9674|dock2
  -GOLD-   2272013313D 1   1.00000     0.00000
 Structure written by MMmdl.
 38 39  0  0  0  0  0  0  0  0  1 V2000
  152.5299  144.5773  159.3810 C   0  0  0  0  0  0  0  0  0  0  0  0
  151.6118  143.3599  159.1673 C   0  0  1  0  0  0  0  0  0  0  0  0
  150.9217  143.4695  157.7929 C   0  0  0  0  0  0  0  0  0  0  0  0
  149.9645  142.2995  157.5430 C   0  0  0  0  0  0  0  0  0  0  0  0
  150.7135  140.9676  157.6325 C   0  0  0  0  0  0  0  0  0  0  0  0
  151.4177  140.8114  158.9915 C   0  0  1  0  0  0  0  0  0  0  0  0
  152.1772  139.5571  158.9775 N   0  0  0  0  0  0  0  0  0  0  0  0
  151.3277  138.0730  158.7562 S   0  0  0  0  0  0  0  0  0  0  0  0
  151.7404  137.1583  159.8323 O   0  0  0  0  0  0  0  0  0  0  0  0
  149.9049  138.3985  158.5748 O   0  0  0  0  0  0  0  0  0  0  0  0
  152.0183  137.4560  157.1644 C   0  0  0  0  0  0  0  0  0  0  0  0
  151.5221  138.3113  156.0345 C   0  0  0  0  0  0  0  0  0  0  0  0
  150.4606  138.0447  155.1259 C   0  0  0  0  0  0  0  0  0  0  0  0
  150.4483  139.1453  154.3186 C   0  0  0  0  0  0  0  0  0  0  0  0
  151.4193  140.0175  154.6898 O   0  0  0  0  0  0  0  0  0  0  0  0
  152.1013  139.4752  155.7852 N   0  0  0  0  0  0  0  0  0  0  0  0
  152.3567  142.0027  159.3197 C   0  0  2  0  0  0  0  0  0  0  0  0
  152.9620  141.8431  160.7318 C   0  0  0  0  0  0  0  0  0  0  0  0
  153.3898  144.5479  158.7112 H   0  0  0  0  0  0  0  0  0  0  0  0
  152.9012  144.6334  160.4037 H   0  0  0  0  0  0  0  0  0  0  0  0
  151.9954  145.5086  159.1914 H   0  0  0  0  0  0  0  0  0  0  0  0
  150.8305  143.4025  159.9278 H   0  0  0  0  0  0  0  0  0  0  0  0
  150.3675  144.4067  157.7273 H   0  0  0  0  0  0  0  0  0  0  0  0
  151.6734  143.5012  157.0027 H   0  0  0  0  0  0  0  0  0  0  0  0
  149.1552  142.3195  158.2741 H   0  0  0  0  0  0  0  0  0  0  0  0
  149.5004  142.4006  156.5614 H   0  0  0  0  0  0  0  0  0  0  0  0
  150.0169  140.1434  157.4740 H   0  0  0  0  0  0  0  0  0  0  0  0
  151.4463  140.9129  156.8262 H   0  0  0  0  0  0  0  0  0  0  0  0
  150.6521  140.7550  159.7668 H   0  0  0  0  0  0  0  0  0  0  0  0
  152.9838  139.6199  158.3567 H   0  0  0  0  0  0  0  0  0  0  0  0
  153.1065  137.4657  157.2306 H   0  0  0  0  0  0  0  0  0  0  0  0
  151.7017  136.4214  157.0337 H   0  0  0  0  0  0  0  0  0  0  0  0
  149.8094  137.1847  155.0778 H   0  0  0  0  0  0  0  0  0  0  0  0
  149.8403  139.4415  153.4766 H   0  0  0  0  0  0  0  0  0  0  0  0
  153.1776  141.9902  158.6007 H   0  0  0  0  0  0  0  0  0  0  0  0
  152.1916  141.9036  161.5011 H   0  0  0  0  0  0  0  0  0  0  0  0
  153.7088  142.6071  160.9430 H   0  0  0  0  0  0  0  0  0  0  0  0
  153.4668  140.8844  160.8500 H   0  0  0  0  0  0  0  0  0  0  0  0
  1  2  1  0  0  0  0
  1 19  1  0  0  0  0
  1 20  1  0  0  0  0
  1 21  1  0  0  0  0
  2 17  1  0  0  0  0
  2  3  1  0  0  0  0
  2 22  1  0  0  0  0
  3  4  1  0  0  0  0
  3 23  1  0  0  0  0
  3 24  1  0  0  0  0
  4  5  1  0  0  0  0
  4 25  1  0  0  0  0
  4 26  1  0  0  0  0
  5  6  1  0  0  0  0
  5 27  1  0  0  0  0
  5 28  1  0  0  0  0
  6  7  1  0  0  0  0
  6 17  1  0  0  0  0
  6 29  1  0  0  0  0
  7  8  1  0  0  0  0
  7 30  1  0  0  0  0
  8  9  2  0  0  0  0
  8 10  2  0  0  0  0
  8 11  1  0  0  0  0
 11 12  1  0  0  0  0
 11 31  1  0  0  0  0
 11 32  1  0  0  0  0
 12 16  2  0  0  0  0
 12 13  1  0  0  0  0
 13 14  2  0  0  0  0
 13 33  1  0  0  0  0
 14 15  1  0  0  0  0
 14 34  1  0  0  0  0
 15 16  1  0  0  0  0
 17 18  1  0  0  0  0
 17 35  1  0  0  0  0
 18 36  1  0  0  0  0
 18 37  1  0  0  0  0
 18 38  1  0  0  0  0
M  END
> <s_m_source_file>
AV-unprocessed.smi

> <i_m_source_file_index>
2451

> <i_lp_mmshare_version>
43012

> <i_f3d_flags>
0

> <s_epik_input>
W0NIM11bQ0BASF0xW0NIMl1bQ0gyXVtDSDJdW0NASF0oW0NASF0xW0NIM10pW05IXVMoPU8pKD1PKVtDSDJdYzJbY0hdW2NIXW9uMg==

> <s_epik_cmdline>
J2VwaWtfcHl0aG9uJywgJy1waCcsICc3LjAnLCAnLXRuJywgJzgnLCAnLW1hJywgJzIwMCcsICctbWV0YWxfYmluZGluZycsICctaW1hZScsICc8aW5maWxlLm1hZT4nLCAnLW9tYWUnLCAnPG91dGZpbGUubWFlPic=

> <r_lp_tautomer_probability>
1

> <r_epik_Ionization_Penalty>
8.73668e-05

> <r_epik_Ionization_Penalty_Charging>
0

> <r_epik_Ionization_Penalty_Neutral>
8.73668e-05

> <r_epik_State_Penalty>
-0

> <r_epik_Charging_Adjusted_Penalty>
0

> <i_epik_Tot_Q>
0

> <i_epik_Tot_abs_Q>
0

> <r_epik_Metal_State_Penalty>
0.0716439

> <b_epik_Metal_Only>
0

> <s_lp_Force_Field>
OPLS_2005

> <r_lp_Energy>
6.58047

> <b_lp_Chiralities_Consistent>
1

> <s_lp_Variant>
AV-unprocessed.smi:2451-6

> <Gold.Version>
5.8.1

> <Gold.Id.Protein>
6NUR|6NUR_protein|mol2

> <Gold.PLP.Fitness>
45.3581

> <Gold.PLP.PLP>
-34.3832

> <Gold.PLP.part.hbond>
-2.7853

> <Gold.PLP.part.metal>
0.0000

> <Gold.PLP.part.buried>
-5.4225

> <Gold.PLP.part.nonpolar>
-26.2744

> <Gold.PLP.part.repulsive>
0.0691

> <Gold.PLP.ligand.clash>
0.0000

> <Gold.PLP.ligand.torsion>
0.5138

> <Gold.PLP.Chemscore.Hbond>
3.0000

> <Gold.PLP.Chemscore.CHOScore>
0.9462

> <Gold.PLP.Chemscore.Metal>
0.0000

> <Gold.Chemscore.Hbonds>
donor molecule, donor type, donor heavy atom, donor atom, acceptor molecule, acceptor atom, score
      P1  H  6896  6908       L1     9  1.00
      P1  H  7989  7998       L1    15  0.86
      P1  H  7997  8009       L1    16  0.10
      L1  C    14    34       P1  7957  1.00

> <Gold.PLP.Chemscore.Internal.Correction>
0.1636

> <Gold.Rescore>
     Score         DG    S(hbond)    S(metal)    S(lipo)     H(rot)  DE(clash)    DE(int)     intcor
     18.50     -20.31       2.52        0.00      91.26       1.66       0.00       1.81       ----

> <Gold.Chemscore.Fitness>
18.5019

> <Gold.Chemscore.DG>
-20.3132

> <Gold.Chemscore.ZeroCoef>
-5.4800

> <Gold.Chemscore.Hbond>
2.5155

> <Gold.Chemscore.Metal>
0.0000

> <Gold.Chemscore.Lipo>
91.2648

> <Gold.Chemscore.Internal_Hbond>
0.0000

> <Gold.Chemscore.DEClash>
0.0021

> <Gold.Chemscore.DEInternal>
1.8091

> <Gold.Chemscore.Rot>
1.6588

> <Gold.Chemscore.Internal.Correction>
   9.000000E+99

> <Gold.Chemscore.Hbonds>
donor molecule, donor type, donor heavy atom, donor atom, acceptor molecule, acceptor atom, score
      P1  H  6896  6908       L1     9  0.95
      P1  H  7989  7998       L1    15  0.42
      P1  H  7997  8009       L1    16  0.12

> <Gold.Chemscore.Hbond.Weighted>
-8.4018

> <Gold.Chemscore.Metal.Weighted>
-0.0000

> <Gold.Chemscore.Lipo.Weighted>
-10.6780

> <Gold.Chemscore.Internal_Hbond.Weighted>
0.0000

> <Gold.Chemscore.DEClash.Weighted>
0.0021

> <Gold.Chemscore.DEInternal.Weighted>
1.8091

> <Gold.Chemscore.Rot.Weighted>
4.2466

> <Gold.Chemscore.Internal.Correction.Weighted>
   9.000000E+99

> <Gold.Protein.RotatedTorsions>
[ 6907 6896 6895 6894 ] final -110.70 input  -60.11 | X-H torsion
[ 7974 7965 7964 7962 ] final  101.30 input  175.53 | X-H torsion
[ 8008 7997 7996 7995 ] final -147.52 input   59.86 | X-H torsion
[ 10167 10162 10161 10158 ] final  -34.31 input  -65.29 | X-H torsion
[ 10718 10713 10712 10709 ] final  -82.02 input   66.30 | X-H torsion
[ 10763 10752 10751 10750 ] final -152.10 input  -60.55 | X-H torsion
[ 11005 11000 10999 10996 ] final -120.11 input  -57.11 | X-H torsion

> <Gold.Protein.ActiveResidues>
 VAL166  LYS551  ARG553  GLY616  TRP617  ASP618  TYR619  PRO620  LYS621  CYS622 
 ASP623  PHE694  ASN695  SER759  ASP760  ASP761  ALA762  ILE779  LEU786  VAL792 
 PHE793  MET794  SER795  GLU796  ALA797  LYS798  CYS799  TRP800  GLU811  SER814 

> <Gold.Protein.RotatedAtoms>
  150.7642  133.9343  159.3436 H   0  0  0  0  0  0  0  0  0  0  0  0  # atno 6907 bound_to 6896
  151.7245  135.0885  160.0299 H   0  0  0  0  0  0  0  0  0  0  0  0  # atno 6908 bound_to 6896
  152.3629  133.6282  159.6064 H   0  0  0  0  0  0  0  0  0  0  0  0  # atno 6909 bound_to 6896
  145.3741  139.2392  143.3439 H   0  0  0  0  0  0  0  0  0  0  0  0  # atno 7974 bound_to 7965
  155.5769  140.0639  157.2793 H   0  0  0  0  0  0  0  0  0  0  0  0  # atno 8008 bound_to 7997
  154.4344  140.1859  156.0983 H   0  0  0  0  0  0  0  0  0  0  0  0  # atno 8009 bound_to 7997
  156.0334  140.3304  155.7168 H   0  0  0  0  0  0  0  0  0  0  0  0  # atno 8010 bound_to 7997
  140.7188  143.3557  151.2064 H   0  0  0  0  0  0  0  0  0  0  0  0  # atno 10167 bound_to 10162
  156.0040  130.4621  150.4042 H   0  0  0  0  0  0  0  0  0  0  0  0  # atno 10718 bound_to 10713
  154.8016  135.3244  154.7536 H   0  0  0  0  0  0  0  0  0  0  0  0  # atno 10763 bound_to 10752
  153.8203  135.6888  153.4832 H   0  0  0  0  0  0  0  0  0  0  0  0  # atno 10764 bound_to 10752
  153.1736  135.4613  154.9879 H   0  0  0  0  0  0  0  0  0  0  0  0  # atno 10765 bound_to 10752
  141.0167  134.0185  157.3339 H   0  0  0  0  0  0  0  0  0  0  0  0  # atno 11005 bound_to 11000
  146.2872  140.4398  142.8753 LP  0  0  0  0  0  0  0  0  0  0  0  0  # atno 17320 bound_to 7965
  144.8555  140.7063  143.6141 LP  0  0  0  0  0  0  0  0  0  0  0  0  # atno 17321 bound_to 7965
  139.7098  143.9395  152.2942 LP  0  0  0  0  0  0  0  0  0  0  0  0  # atno 17342 bound_to 10162
  139.9116  144.6853  150.8556 LP  0  0  0  0  0  0  0  0  0  0  0  0  # atno 17343 bound_to 10162
  157.2109  131.0460  151.2600 LP  0  0  0  0  0  0  0  0  0  0  0  0  # atno 17370 bound_to 10713
  157.3890  130.7271  149.6683 LP  0  0  0  0  0  0  0  0  0  0  0  0  # atno 17371 bound_to 10713
  139.9121  135.0192  156.7735 LP  0  0  0  0  0  0  0  0  0  0  0  0  # atno 17394 bound_to 11000
  140.6642  133.9617  155.7821 LP  0  0  0  0  0  0  0  0  0  0  0  0  # atno 17395 bound_to 11000

$$$$
