AV-unprocessed.smi:1|AV-procd|sdf|7|dock7
  -GOLD-   2262015 93D 1   1.00000     0.00000
 Structure written by MMmdl.
 57 62  0  0  0  0  0  0  0  0  1 V2000
  151.3357  141.3417  156.8431 O   0  0  0  0  0  0  0  0  0  0  0  0
  151.8617  141.3955  157.9554 C   0  0  0  0  0  0  0  0  0  0  0  0
  152.5189  140.2483  158.5558 N   0  0  0  0  0  0  0  0  0  0  0  0
  152.7407  139.0315  158.0064 C   0  0  0  0  0  0  0  0  0  0  0  0
  153.9917  138.5318  157.8228 N   0  0  0  0  0  0  0  0  0  0  0  0
  154.1602  137.3228  157.2791 C   0  0  0  0  0  0  0  0  0  0  0  0
  153.2313  136.4636  156.8559 N   0  0  0  0  0  0  0  0  0  0  0  0
  151.9728  136.9542  157.0448 C   0  0  0  0  0  0  0  0  0  0  0  0
  151.6474  138.2178  157.6109 C   0  0  0  0  0  0  0  0  0  0  0  0
  150.2675  138.3754  157.6469 N   0  0  0  0  0  0  0  0  0  0  0  0
  149.8088  137.2662  157.1313 C   0  0  0  0  0  0  0  0  0  0  0  0
  150.7670  136.3586  156.7388 N   0  0  0  0  0  0  0  0  0  0  0  0
  150.5572  135.0179  156.1221 C   0  0  2  0  0  0  0  0  0  0  0  0
  149.8883  135.1729  154.9119 O   0  0  0  0  0  0  0  0  0  0  0  0
  148.9704  134.0980  154.7000 C   0  0  2  0  0  0  0  0  0  0  0  0
  147.5704  134.6979  154.5147 C   0  0  0  0  0  0  0  0  0  0  0  0
  147.0400  134.2643  153.2716 O   0  0  0  0  0  0  0  0  0  0  0  0
  145.7503  134.5019  152.9556 C   0  0  0  0  0  0  0  0  0  0  0  0
  145.0489  135.3426  153.5223 O   0  0  0  0  0  0  0  0  0  0  0  0
  145.2587  133.6373  151.8446 C   0  0  0  0  0  0  0  0  0  0  0  0
  143.8712  133.3928  151.7188 C   0  0  0  0  0  0  0  0  0  0  0  0
  143.3772  132.5808  150.6793 C   0  0  0  0  0  0  0  0  0  0  0  0
  144.2646  132.0042  149.7522 C   0  0  0  0  0  0  0  0  0  0  0  0
  145.6470  132.2404  149.8658 C   0  0  0  0  0  0  0  0  0  0  0  0
  146.1429  133.0519  150.9048 C   0  0  0  0  0  0  0  0  0  0  0  0
  149.0563  133.2167  155.9528 C   0  0  1  0  0  0  0  0  0  0  0  0
  149.9369  132.1274  155.7338 O   0  0  0  0  0  0  0  0  0  0  0  0
  150.8690  131.9222  157.1058 S   0  0  0  0  0  0  0  0  0  0  0  0
  150.3102  130.8045  157.8813 O   0  0  0  0  0  0  0  0  0  0  0  0
  152.2852  131.9871  156.7141 O   0  0  0  0  0  0  0  0  0  0  0  0
  150.4731  133.3472  157.8843 O   0  0  0  0  0  0  0  0  0  0  0  0
  149.6850  134.1304  157.0058 C   0  0  1  0  0  0  0  0  0  0  0  0
  151.7777  142.6268  158.8094 C   0  0  0  0  0  0  0  0  0  0  0  0
  151.1987  143.8077  158.2925 C   0  0  0  0  0  0  0  0  0  0  0  0
  151.1306  144.9727  159.0812 C   0  0  0  0  0  0  0  0  0  0  0  0
  151.6487  144.9693  160.3899 C   0  0  0  0  0  0  0  0  0  0  0  0
  152.2372  143.8006  160.9089 C   0  0  0  0  0  0  0  0  0  0  0  0
  152.3051  142.6347  160.1216 C   0  0  0  0  0  0  0  0  0  0  0  0
  152.8552  140.3764  159.4992 H   0  0  0  0  0  0  0  0  0  0  0  0
  155.1843  136.9975  157.1671 H   0  0  0  0  0  0  0  0  0  0  0  0
  148.7505  137.0797  157.0192 H   0  0  0  0  0  0  0  0  0  0  0  0
  151.5553  134.6158  155.9428 H   0  0  0  0  0  0  0  0  0  0  0  0
  149.2526  133.5327  153.8108 H   0  0  0  0  0  0  0  0  0  0  0  0
  146.9061  134.3637  155.3120 H   0  0  0  0  0  0  0  0  0  0  0  0
  147.6257  135.7849  154.5771 H   0  0  0  0  0  0  0  0  0  0  0  0
  143.1706  133.8245  152.4191 H   0  0  0  0  0  0  0  0  0  0  0  0
  142.3158  132.4000  150.5944 H   0  0  0  0  0  0  0  0  0  0  0  0
  143.8855  131.3819  148.9550 H   0  0  0  0  0  0  0  0  0  0  0  0
  146.3294  131.7982  149.1551 H   0  0  0  0  0  0  0  0  0  0  0  0
  147.2093  133.2135  150.9621 H   0  0  0  0  0  0  0  0  0  0  0  0
  148.0889  132.8244  156.2686 H   0  0  0  0  0  0  0  0  0  0  0  0
  148.9291  134.7193  157.5268 H   0  0  0  0  0  0  0  0  0  0  0  0
  150.7977  143.8267  157.2892 H   0  0  0  0  0  0  0  0  0  0  0  0
  150.6823  145.8698  158.6804 H   0  0  0  0  0  0  0  0  0  0  0  0
  151.5979  145.8633  160.9939 H   0  0  0  0  0  0  0  0  0  0  0  0
  152.6403  143.7991  161.9108 H   0  0  0  0  0  0  0  0  0  0  0  0
  152.7701  141.7517  160.5357 H   0  0  0  0  0  0  0  0  0  0  0  0
  1  2  2  0  0  0  0
  2  3  1  0  0  0  0
  2 33  1  0  0  0  0
  3  4  1  0  0  0  0
  3 39  1  0  0  0  0
  4  9  1  0  0  0  0
  4  5  2  0  0  0  0
  5  6  1  0  0  0  0
  6  7  2  0  0  0  0
  6 40  1  0  0  0  0
  7  8  1  0  0  0  0
  8 12  1  0  0  0  0
  8  9  2  0  0  0  0
  9 10  1  0  0  0  0
 10 11  2  0  0  0  0
 11 12  1  0  0  0  0
 11 41  1  0  0  0  0
 12 13  1  0  0  0  0
 13 32  1  0  0  0  0
 13 14  1  0  0  0  0
 13 42  1  0  0  0  0
 14 15  1  0  0  0  0
 15 16  1  0  0  0  0
 15 26  1  0  0  0  0
 15 43  1  0  0  0  0
 16 17  1  0  0  0  0
 16 44  1  0  0  0  0
 16 45  1  0  0  0  0
 17 18  1  0  0  0  0
 18 19  2  0  0  0  0
 18 20  1  0  0  0  0
 20 25  1  0  0  0  0
 20 21  2  0  0  0  0
 21 22  1  0  0  0  0
 21 46  1  0  0  0  0
 22 23  2  0  0  0  0
 22 47  1  0  0  0  0
 23 24  1  0  0  0  0
 23 48  1  0  0  0  0
 24 25  2  0  0  0  0
 24 49  1  0  0  0  0
 25 50  1  0  0  0  0
 26 32  1  0  0  0  0
 26 27  1  0  0  0  0
 26 51  1  0  0  0  0
 27 28  1  0  0  0  0
 28 29  2  0  0  0  0
 28 30  2  0  0  0  0
 28 31  1  0  0  0  0
 31 32  1  0  0  0  0
 32 52  1  0  0  0  0
 33 38  1  0  0  0  0
 33 34  2  0  0  0  0
 34 35  1  0  0  0  0
 34 53  1  0  0  0  0
 35 36  2  0  0  0  0
 35 54  1  0  0  0  0
 36 37  1  0  0  0  0
 36 55  1  0  0  0  0
 37 38  2  0  0  0  0
 37 56  1  0  0  0  0
 38 57  1  0  0  0  0
M  END
> <s_m_source_file>
AV-unprocessed.smi

> <i_m_source_file_index>
1

> <i_lp_mmshare_version>
43012

> <i_f3d_flags>
0

> <s_epik_input>
W2NIXTFbY0hdW2NIXVtjSF1bY0hdYzFDKD1PKVtOSF1jKG5bY0hdbjIpYyhjMjMpbltjSF1uM1tDQEBIXShbQ0BIXShbQ0BIXTQ1KU9TKE81KSg9Tyk9TylPW0NASF00W0NIMl1PQyg9TyljNltjSF1bY0hdW2NIXVtjSF1bY0hdNg==

> <s_epik_cmdline>
J2VwaWtfcHl0aG9uJywgJy1waCcsICc3LjAnLCAnLXRuJywgJzgnLCAnLW1hJywgJzIwMCcsICctbWV0YWxfYmluZGluZycsICctaW1hZScsICc8aW5maWxlLm1hZT4nLCAnLW9tYWUnLCAnPG91dGZpbGUubWFlPic=

> <r_lp_tautomer_probability>
1

> <r_epik_Ionization_Penalty>
0.00195722

> <r_epik_Ionization_Penalty_Charging>
0

> <r_epik_Ionization_Penalty_Neutral>
0.00195722

> <r_epik_State_Penalty>
0.00633741

> <r_epik_Charging_Adjusted_Penalty>
0.00633741

> <i_epik_Tot_Q>
0

> <i_epik_Tot_abs_Q>
0

> <r_epik_Metal_State_Penalty>
0.341185

> <b_epik_Metal_Only>
0

> <s_epik_Chemistry_Notes>
This compound has an ester and may undergo hydrolysis at high or low pH. This compound contains an acetal/aminal-like group ( X-CH(R)-Y where X, Y are N, S, or O) that may be acid/base labile, releasing an aldehyde.

> <s_lp_Force_Field>
OPLS_2005

> <r_lp_Energy>
42.4074

> <b_lp_Chiralities_Consistent>
1

> <s_lp_Variant>
AV-unprocessed.smi:1-7

> <Gold.Version>
5.8.1

> <Gold.Id.Protein>
6NUR|6NUR_protein|mol2

> <Gold.PLP.Fitness>
56.8804

> <Gold.PLP.PLP>
-54.4312

> <Gold.PLP.part.hbond>
-2.8089

> <Gold.PLP.part.metal>
0.0000

> <Gold.PLP.part.buried>
-5.7207

> <Gold.PLP.part.nonpolar>
-46.0629

> <Gold.PLP.part.repulsive>
1.9460

> <Gold.PLP.ligand.clash>
0.0000

> <Gold.PLP.ligand.torsion>
1.8437

> <Gold.PLP.Chemscore.Hbond>
1.9920

> <Gold.PLP.Chemscore.CHOScore>
0.0000

> <Gold.PLP.Chemscore.Metal>
0.0000

> <Gold.Chemscore.Hbonds>
donor molecule, donor type, donor heavy atom, donor atom, acceptor molecule, acceptor atom, score
      P1  H  7997  8009       L1     5  0.95
      P1  H 10752 10763       L1     7  1.00

> <Gold.PLP.Chemscore.Internal.Correction>
0.1606

> <Gold.Rescore>
     Score         DG    S(hbond)    S(metal)    S(lipo)     H(rot)  DE(clash)    DE(int)     intcor
     17.13     -20.91       1.56        0.00     133.95       2.13       1.97       1.82       ----

> <Gold.Chemscore.Fitness>
17.1261

> <Gold.Chemscore.DG>
-20.9150

> <Gold.Chemscore.ZeroCoef>
-5.4800

> <Gold.Chemscore.Hbond>
1.5642

> <Gold.Chemscore.Metal>
0.0000

> <Gold.Chemscore.Lipo>
133.9476

> <Gold.Chemscore.Internal_Hbond>
0.0000

> <Gold.Chemscore.DEClash>
1.9711

> <Gold.Chemscore.DEInternal>
1.8178

> <Gold.Chemscore.Rot>
2.1333

> <Gold.Chemscore.Internal.Correction>
   9.000000E+99

> <Gold.Chemscore.Hbonds>
donor molecule, donor type, donor heavy atom, donor atom, acceptor molecule, acceptor atom, score
      P1  H  7997  8009       L1     5  0.20
      P1  H 10752 10763       L1     7  0.93

> <Gold.Chemscore.Hbond.Weighted>
-5.2245

> <Gold.Chemscore.Metal.Weighted>
-0.0000

> <Gold.Chemscore.Lipo.Weighted>
-15.6719

> <Gold.Chemscore.Internal_Hbond.Weighted>
0.0000

> <Gold.Chemscore.DEClash.Weighted>
1.9711

> <Gold.Chemscore.DEInternal.Weighted>
1.8178

> <Gold.Chemscore.Rot.Weighted>
5.4614

> <Gold.Chemscore.Internal.Correction.Weighted>
   9.000000E+99

> <Gold.Protein.RotatedTorsions>
[ 6907 6896 6895 6894 ] final  -21.00 input  -60.11 | X-H torsion
[ 7974 7965 7964 7962 ] final   10.04 input  175.53 | X-H torsion
[ 8008 7997 7996 7995 ] final  140.29 input   59.86 | X-H torsion
[ 10167 10162 10161 10158 ] final   40.37 input  -65.29 | X-H torsion
[ 10718 10713 10712 10709 ] final  -83.98 input   66.30 | X-H torsion
[ 10763 10752 10751 10750 ] final  119.66 input  -60.55 | X-H torsion
[ 11005 11000 10999 10996 ] final    1.94 input  -57.11 | X-H torsion

> <Gold.Protein.ActiveResidues>
 VAL166  LYS551  ARG553  GLY616  TRP617  ASP618  TYR619  PRO620  LYS621  CYS622 
 ASP623  PHE694  ASN695  SER759  ASP760  ASP761  ALA762  ILE779  LEU786  VAL792 
 PHE793  MET794  SER795  GLU796  ALA797  LYS798  CYS799  TRP800  GLU811  SER814 

> <Gold.Protein.RotatedAtoms>
  151.2398  135.0584  159.9020 H   0  0  0  0  0  0  0  0  0  0  0  0  # atno 6907 bound_to 6896
  152.5394  134.0447  159.8093 H   0  0  0  0  0  0  0  0  0  0  0  0  # atno 6908 bound_to 6896
  151.0639  133.5472  159.2663 H   0  0  0  0  0  0  0  0  0  0  0  0  # atno 6909 bound_to 6896
  146.2394  139.9693  142.8449 H   0  0  0  0  0  0  0  0  0  0  0  0  # atno 7974 bound_to 7965
  156.2981  140.2345  156.4377 H   0  0  0  0  0  0  0  0  0  0  0  0  # atno 8008 bound_to 7997
  154.8213  140.0437  157.1433 H   0  0  0  0  0  0  0  0  0  0  0  0  # atno 8009 bound_to 7997
  154.9311  140.3017  155.5171 H   0  0  0  0  0  0  0  0  0  0  0  0  # atno 8010 bound_to 7997
  140.3748  144.2057  150.6132 H   0  0  0  0  0  0  0  0  0  0  0  0  # atno 10167 bound_to 10162
  156.0011  130.4683  150.4341 H   0  0  0  0  0  0  0  0  0  0  0  0  # atno 10718 bound_to 10713
  153.5864  135.3474  155.2894 H   0  0  0  0  0  0  0  0  0  0  0  0  # atno 10763 bound_to 10752
  154.8659  135.4194  154.2564 H   0  0  0  0  0  0  0  0  0  0  0  0  # atno 10764 bound_to 10752
  153.3361  135.7047  153.6977 H   0  0  0  0  0  0  0  0  0  0  0  0  # atno 10765 bound_to 10752
  140.6099  133.9758  155.8172 H   0  0  0  0  0  0  0  0  0  0  0  0  # atno 11005 bound_to 11000
  145.1696  140.9714  143.4329 LP  0  0  0  0  0  0  0  0  0  0  0  0  # atno 17320 bound_to 7965
  145.0040  139.3571  143.6153 LP  0  0  0  0  0  0  0  0  0  0  0  0  # atno 17321 bound_to 7965
  140.4997  143.2322  151.8697 LP  0  0  0  0  0  0  0  0  0  0  0  0  # atno 17342 bound_to 10162
  139.4800  144.5073  151.8979 LP  0  0  0  0  0  0  0  0  0  0  0  0  # atno 17343 bound_to 10162
  157.2387  131.0520  151.2449 LP  0  0  0  0  0  0  0  0  0  0  0  0  # atno 17370 bound_to 10713
  157.3641  130.7147  149.6521 LP  0  0  0  0  0  0  0  0  0  0  0  0  # atno 17371 bound_to 10713
  141.0815  134.0055  157.3378 LP  0  0  0  0  0  0  0  0  0  0  0  0  # atno 17394 bound_to 11000
  139.9197  135.0199  156.8016 LP  0  0  0  0  0  0  0  0  0  0  0  0  # atno 17395 bound_to 11000

$$$$
