AV-unprocessed.smi:1654|AV-procd|sdf|6643|dock10
  -GOLD-   22720 7343D 1   1.00000     0.00000
 Structure written by MMmdl.
 39 40  0  0  0  0  0  0  0  0  2 V2000
  152.9758  139.4043  156.3269 O   0  0  0  0  0  0  0  0  0  0  0  0
  151.6028  139.9295  156.4050 S   0  0  0  0  0  0  0  0  0  0  0  0
  150.9791  140.4117  155.1613 O   0  0  0  0  0  0  0  0  0  0  0  0
  150.5976  139.0076  157.2827 N   0  5  0  0  0  0  0  0  0  0  0  0
  151.1156  137.8051  157.9099 C   0  0  0  0  0  0  0  0  0  0  0  0
  150.1795  136.6162  157.6125 C   0  0  0  0  0  0  0  0  0  0  0  0
  149.1231  136.3821  158.6851 C   0  0  0  0  0  0  0  0  0  0  0  0
  148.2936  135.2397  158.6527 C   0  0  0  0  0  0  0  0  0  0  0  0
  147.3222  135.0744  159.6587 C   0  0  0  0  0  0  0  0  0  0  0  0
  147.2161  136.0632  160.6568 C   0  0  0  0  0  0  0  0  0  0  0  0
  147.9974  137.1637  160.6972 N   0  0  0  0  0  0  0  0  0  0  0  0
  148.9274  137.3141  159.7291 C   0  0  0  0  0  0  0  0  0  0  0  0
  151.6778  141.2882  157.4933 N   0  0  0  0  0  0  0  0  0  0  0  0
  151.7938  141.0375  158.9427 C   0  0  0  0  0  0  0  0  0  0  0  0
  152.9666  141.8350  159.5330 C   0  0  0  0  0  0  0  0  0  0  0  0
  152.6171  143.2611  159.9957 C   0  0  0  0  0  0  0  0  0  0  0  0
  151.5860  144.0209  159.1413 C   0  0  0  0  0  0  0  0  0  0  0  0
  151.7047  143.7966  157.6254 C   0  0  0  0  0  0  0  0  0  0  0  0
  150.9732  142.5339  157.1306 C   0  0  0  0  0  0  0  0  0  0  0  0
  152.1170  137.5660  157.5503 H   0  0  0  0  0  0  0  0  0  0  0  0
  151.2049  137.9251  158.9901 H   0  0  0  0  0  0  0  0  0  0  0  0
  149.6740  136.7729  156.6582 H   0  0  0  0  0  0  0  0  0  0  0  0
  150.7652  135.7030  157.4985 H   0  0  0  0  0  0  0  0  0  0  0  0
  148.4010  134.5016  157.8714 H   0  0  0  0  0  0  0  0  0  0  0  0
  146.6740  134.2108  159.6649 H   0  0  0  0  0  0  0  0  0  0  0  0
  146.4819  135.9685  161.4432 H   0  0  0  0  0  0  0  0  0  0  0  0
  149.5341  138.2057  159.7898 H   0  0  0  0  0  0  0  0  0  0  0  0
  150.8528  141.2597  159.4472 H   0  0  0  0  0  0  0  0  0  0  0  0
  151.9761  139.9787  159.1182 H   0  0  0  0  0  0  0  0  0  0  0  0
  153.3718  141.2931  160.3880 H   0  0  0  0  0  0  0  0  0  0  0  0
  153.7795  141.8714  158.8059 H   0  0  0  0  0  0  0  0  0  0  0  0
  152.2443  143.2230  161.0199 H   0  0  0  0  0  0  0  0  0  0  0  0
  153.5412  143.8384  160.0426 H   0  0  0  0  0  0  0  0  0  0  0  0
  150.5771  143.7626  159.4652 H   0  0  0  0  0  0  0  0  0  0  0  0
  151.6923  145.0853  159.3535 H   0  0  0  0  0  0  0  0  0  0  0  0
  151.2489  144.6523  157.1264 H   0  0  0  0  0  0  0  0  0  0  0  0
  152.7490  143.7926  157.3101 H   0  0  0  0  0  0  0  0  0  0  0  0
  150.8763  142.5988  156.0476 H   0  0  0  0  0  0  0  0  0  0  0  0
  149.9529  142.4963  157.5137 H   0  0  0  0  0  0  0  0  0  0  0  0
  1  2  2  0  0  0  0
  2  3  2  0  0  0  0
  2  4  1  0  0  0  0
  2 13  1  0  0  0  0
  4  5  1  0  0  0  0
  5  6  1  0  0  0  0
  5 20  1  0  0  0  0
  5 21  1  0  0  0  0
  6  7  1  0  0  0  0
  6 22  1  0  0  0  0
  6 23  1  0  0  0  0
  7 12  1  0  0  0  0
  7  8  2  0  0  0  0
  8  9  1  0  0  0  0
  8 24  1  0  0  0  0
  9 10  2  0  0  0  0
  9 25  1  0  0  0  0
 10 11  1  0  0  0  0
 10 26  1  0  0  0  0
 11 12  2  0  0  0  0
 12 27  1  0  0  0  0
 13 19  1  0  0  0  0
 13 14  1  0  0  0  0
 14 15  1  0  0  0  0
 14 28  1  0  0  0  0
 14 29  1  0  0  0  0
 15 16  1  0  0  0  0
 15 30  1  0  0  0  0
 15 31  1  0  0  0  0
 16 17  1  0  0  0  0
 16 32  1  0  0  0  0
 16 33  1  0  0  0  0
 17 18  1  0  0  0  0
 17 34  1  0  0  0  0
 17 35  1  0  0  0  0
 18 19  1  0  0  0  0
 18 36  1  0  0  0  0
 18 37  1  0  0  0  0
 19 38  1  0  0  0  0
 19 39  1  0  0  0  0
M  CHG  1   4  -1
M  END
> <s_m_source_file>
AV-unprocessed.smi

> <i_m_source_file_index>
1654

> <i_lp_mmshare_version>
43012

> <i_f3d_flags>
0

> <s_epik_input>
W0NIMl0xW0NIMl1bQ0gyXVtDSDJdW0NIMl1bQ0gyXU4xUyg9TykoPU8pW05IXVtDSDJdW0NIMl1jMltjSF1bY0hdW2NIXW5bY0hdMg==

> <s_epik_cmdline>
J2VwaWtfcHl0aG9uJywgJy1waCcsICc3LjAnLCAnLXRuJywgJzgnLCAnLW1hJywgJzIwMCcsICctbWV0YWxfYmluZGluZycsICctaW1hZScsICc8aW5maWxlLm1hZT4nLCAnLW9tYWUnLCAnPG91dGZpbGUubWFlPic=

> <r_lp_tautomer_probability>
1

> <r_epik_Ionization_Penalty>
3.13138

> <r_epik_Ionization_Penalty_Charging>
3.10426

> <r_epik_Ionization_Penalty_Neutral>
0.027117

> <r_epik_State_Penalty>
3.10111

> <r_epik_Charging_Adjusted_Penalty>
6.20538

> <i_epik_Tot_Q>
-1

> <i_epik_Tot_abs_Q>
1

> <r_epik_Metal_State_Penalty>
0.464106

> <b_epik_Metal_Only>
1

> <s_lp_Force_Field>
OPLS_2005

> <r_lp_Energy>
12.7892

> <b_lp_Chiralities_Consistent>
1

> <s_lp_Variant>
AV-unprocessed.smi:1654-2

> <Gold.Version>
5.8.1

> <Gold.Id.Protein>
6NUR|6NUR_protein|mol2

> <Gold.PLP.Fitness>
42.8563

> <Gold.PLP.PLP>
-34.0270

> <Gold.PLP.part.hbond>
-4.0000

> <Gold.PLP.part.metal>
0.0000

> <Gold.PLP.part.buried>
-2.7141

> <Gold.PLP.part.nonpolar>
-27.7623

> <Gold.PLP.part.repulsive>
0.0452

> <Gold.PLP.ligand.clash>
0.0000

> <Gold.PLP.ligand.torsion>
1.9534

> <Gold.PLP.Chemscore.Hbond>
3.2152

> <Gold.PLP.Chemscore.CHOScore>
0.0000

> <Gold.PLP.Chemscore.Metal>
0.0000

> <Gold.Chemscore.Hbonds>
donor molecule, donor type, donor heavy atom, donor atom, acceptor molecule, acceptor atom, score
      P1  H  6931  6943       L1    11  0.42
      P1  H  6934  6947       L1    11  0.76
      P1  H  7989  7998       L1     3  1.00
      P1  H  7997  8009       L1     1  1.00

> <Gold.PLP.Chemscore.Internal.Correction>
3.0905

> <Gold.Rescore>
     Score         DG    S(hbond)    S(metal)    S(lipo)     H(rot)  DE(clash)    DE(int)     intcor
     19.44     -21.31       2.75        0.00      84.74       1.27       0.01       1.86       ----

> <Gold.Chemscore.Fitness>
19.4401

> <Gold.Chemscore.DG>
-21.3071

> <Gold.Chemscore.ZeroCoef>
-5.4800

> <Gold.Chemscore.Hbond>
2.7465

> <Gold.Chemscore.Metal>
0.0000

> <Gold.Chemscore.Lipo>
84.7436

> <Gold.Chemscore.Internal_Hbond>
0.0000

> <Gold.Chemscore.DEClash>
0.0110

> <Gold.Chemscore.DEInternal>
1.8561

> <Gold.Chemscore.Rot>
1.2738

> <Gold.Chemscore.Internal.Correction>
   9.000000E+99

> <Gold.Chemscore.Hbonds>
donor molecule, donor type, donor heavy atom, donor atom, acceptor molecule, acceptor atom, score
      P1  H  6931  6943       L1    11  0.02
      P1  H  6934  6947       L1    11  0.31
      P1  H  7989  7998       L1     3  0.96
      P1  H  7997  8009       L1     1  0.96

> <Gold.Chemscore.Hbond.Weighted>
-9.1732

> <Gold.Chemscore.Metal.Weighted>
-0.0000

> <Gold.Chemscore.Lipo.Weighted>
-9.9150

> <Gold.Chemscore.Internal_Hbond.Weighted>
0.0000

> <Gold.Chemscore.DEClash.Weighted>
0.0110

> <Gold.Chemscore.DEInternal.Weighted>
1.8561

> <Gold.Chemscore.Rot.Weighted>
3.2610

> <Gold.Chemscore.Internal.Correction.Weighted>
   9.000000E+99

> <Gold.Protein.RotatedTorsions>
[ 6907 6896 6895 6894 ] final  -13.06 input  -60.11 | X-H torsion
[ 7974 7965 7964 7962 ] final -173.01 input  175.53 | X-H torsion
[ 8008 7997 7996 7995 ] final -154.62 input   59.86 | X-H torsion
[ 10167 10162 10161 10158 ] final  -96.90 input  -65.29 | X-H torsion
[ 10718 10713 10712 10709 ] final  -12.05 input   66.30 | X-H torsion
[ 10763 10752 10751 10750 ] final   77.04 input  -60.55 | X-H torsion
[ 11005 11000 10999 10996 ] final  -37.67 input  -57.11 | X-H torsion

> <Gold.Protein.ActiveResidues>
 VAL166  LYS551  ARG553  GLY616  TRP617  ASP618  TYR619  PRO620  LYS621  CYS622 
 ASP623  PHE694  ASN695  SER759  ASP760  ASP761  ALA762  ILE779  LEU786  VAL792 
 PHE793  MET794  SER795  GLU796  ALA797  LYS798  CYS799  TRP800  GLU811  SER814 

> <Gold.Protein.RotatedAtoms>
  151.3607  135.0903  159.9433 H   0  0  0  0  0  0  0  0  0  0  0  0  # atno 6907 bound_to 6896
  152.5162  133.9261  159.7568 H   0  0  0  0  0  0  0  0  0  0  0  0  # atno 6908 bound_to 6896
  150.9654  133.6346  159.2776 H   0  0  0  0  0  0  0  0  0  0  0  0  # atno 6909 bound_to 6896
  144.7141  140.1687  143.6369 H   0  0  0  0  0  0  0  0  0  0  0  0  # atno 7974 bound_to 7965
  155.6892  140.0753  157.2455 H   0  0  0  0  0  0  0  0  0  0  0  0  # atno 8008 bound_to 7997
  154.4092  140.1668  156.2119 H   0  0  0  0  0  0  0  0  0  0  0  0  # atno 8009 bound_to 7997
  155.9467  140.3380  155.6376 H   0  0  0  0  0  0  0  0  0  0  0  0  # atno 8010 bound_to 7997
  140.2890  143.3234  152.0365 H   0  0  0  0  0  0  0  0  0  0  0  0  # atno 10167 bound_to 10162
  156.6503  130.4953  149.6064 H   0  0  0  0  0  0  0  0  0  0  0  0  # atno 10718 bound_to 10713
  153.0769  135.4929  154.8424 H   0  0  0  0  0  0  0  0  0  0  0  0  # atno 10763 bound_to 10752
  154.7100  135.3018  154.9214 H   0  0  0  0  0  0  0  0  0  0  0  0  # atno 10764 bound_to 10752
  153.9911  135.6778  153.4807 H   0  0  0  0  0  0  0  0  0  0  0  0  # atno 10765 bound_to 10752
  140.9970  133.6975  156.1952 H   0  0  0  0  0  0  0  0  0  0  0  0  # atno 11005 bound_to 11000
  145.8964  139.2405  143.1519 LP  0  0  0  0  0  0  0  0  0  0  0  0  # atno 17320 bound_to 7965
  145.9854  140.8648  143.0093 LP  0  0  0  0  0  0  0  0  0  0  0  0  # atno 17321 bound_to 7965
  139.4943  144.6539  151.6616 LP  0  0  0  0  0  0  0  0  0  0  0  0  # atno 17342 bound_to 10162
  140.5748  144.0046  150.6236 LP  0  0  0  0  0  0  0  0  0  0  0  0  # atno 17343 bound_to 10162
  156.2090  130.6667  151.1249 LP  0  0  0  0  0  0  0  0  0  0  0  0  # atno 17370 bound_to 10713
  157.7143  131.0718  150.6385 LP  0  0  0  0  0  0  0  0  0  0  0  0  # atno 17371 bound_to 10713
  140.6950  134.4625  157.5588 LP  0  0  0  0  0  0  0  0  0  0  0  0  # atno 17394 bound_to 11000
  139.9019  134.8535  156.1859 LP  0  0  0  0  0  0  0  0  0  0  0  0  # atno 17395 bound_to 11000

$$$$
