AV-unprocessed.smi:1701|AV-procd|sdf|6823|dock2
  -GOLD-   22720 8 03D 1   1.00000     0.00000
 Structure written by MMmdl.
 55 57  0  0  0  0  0  0  0  0  3 V2000
  152.6487  141.9592  159.1937 C   0  0  0  0  0  0  0  0  0  0  0  0
  151.2762  141.9061  158.5046 C   0  0  0  0  0  0  0  0  0  0  0  0
  151.3230  142.3425  157.1092 N   0  0  0  0  0  0  0  0  0  0  0  0
  151.3181  143.7865  156.8640 C   0  0  0  0  0  0  0  0  0  0  0  0
  151.7415  144.6076  158.0927 C   0  0  0  0  0  0  0  0  0  0  0  0
  150.6503  141.4969  156.1981 C   0  0  0  0  0  0  0  0  0  0  0  0
  151.1243  140.2021  155.8819 C   0  0  0  0  0  0  0  0  0  0  0  0
  150.4037  139.3917  154.9814 C   0  0  0  0  0  0  0  0  0  0  0  0
  149.2097  139.8711  154.4030 C   0  0  0  0  0  0  0  0  0  0  0  0
  148.5280  139.0086  153.5006 N   0  0  0  0  0  0  0  0  0  0  0  0
  147.2255  138.9918  153.1521 C   0  0  0  0  0  0  0  0  0  0  0  0
  146.3735  139.7683  153.5758 O   0  0  0  0  0  0  0  0  0  0  0  0
  146.9033  138.0245  152.2749 N   0  0  0  0  0  0  0  0  0  0  0  0
  145.5920  137.7297  151.6959 C   0  0  2  0  0  0  0  0  0  0  0  0
  144.4035  138.1200  152.5973 C   0  0  0  0  0  0  0  0  0  0  0  0
  143.3703  136.9881  152.4273 C   0  0  0  0  0  0  0  0  0  0  0  0
  143.9319  136.1009  151.3910 N   0  3  2  0  0  0  0  0  0  0  0  0
  143.4745  134.6943  151.3853 C   0  0  0  0  0  0  0  0  0  0  0  0
  144.1128  133.9576  150.1901 C   0  0  0  0  0  0  0  0  0  0  0  0
  145.6482  134.1061  150.1791 C   0  0  0  0  0  0  0  0  0  0  0  0
  146.0649  135.5862  150.2806 C   0  0  0  0  0  0  0  0  0  0  0  0
  145.3927  136.2260  151.5063 C   0  0  1  0  0  0  0  0  0  0  0  0
  148.7807  141.1765  154.7455 C   0  0  0  0  0  0  0  0  0  0  0  0
  149.5031  141.9188  155.6119 N   0  3  0  0  0  0  0  0  0  0  0  0
  152.5754  141.6063  160.2225 H   0  0  0  0  0  0  0  0  0  0  0  0
  153.0421  142.9759  159.2222 H   0  0  0  0  0  0  0  0  0  0  0  0
  153.3779  141.3315  158.6808 H   0  0  0  0  0  0  0  0  0  0  0  0
  150.9011  140.8827  158.5329 H   0  0  0  0  0  0  0  0  0  0  0  0
  150.5548  142.4935  159.0710 H   0  0  0  0  0  0  0  0  0  0  0  0
  151.9604  144.0207  156.0141 H   0  0  0  0  0  0  0  0  0  0  0  0
  150.3128  144.0927  156.5724 H   0  0  0  0  0  0  0  0  0  0  0  0
  151.6904  145.6748  157.8757 H   0  0  0  0  0  0  0  0  0  0  0  0
  152.7614  144.3881  158.4072 H   0  0  0  0  0  0  0  0  0  0  0  0
  151.0820  144.4121  158.9387 H   0  0  0  0  0  0  0  0  0  0  0  0
  152.0403  139.8243  156.3114 H   0  0  0  0  0  0  0  0  0  0  0  0
  150.7707  138.4046  154.7403 H   0  0  0  0  0  0  0  0  0  0  0  0
  149.0983  138.2865  153.0861 H   0  0  0  0  0  0  0  0  0  0  0  0
  147.6616  137.4315  151.9685 H   0  0  0  0  0  0  0  0  0  0  0  0
  145.4881  138.2197  150.7255 H   0  0  0  0  0  0  0  0  0  0  0  0
  144.7031  138.1909  153.6440 H   0  0  0  0  0  0  0  0  0  0  0  0
  143.9939  139.0884  152.3080 H   0  0  0  0  0  0  0  0  0  0  0  0
  143.2567  136.4428  153.3656 H   0  0  0  0  0  0  0  0  0  0  0  0
  142.3891  137.3593  152.1303 H   0  0  0  0  0  0  0  0  0  0  0  0
  143.7483  134.2095  152.3236 H   0  0  0  0  0  0  0  0  0  0  0  0
  142.3870  134.6625  151.3101 H   0  0  0  0  0  0  0  0  0  0  0  0
  143.8387  132.9025  150.2118 H   0  0  0  0  0  0  0  0  0  0  0  0
  143.7075  134.3606  149.2610 H   0  0  0  0  0  0  0  0  0  0  0  0
  146.0710  133.5521  151.0181 H   0  0  0  0  0  0  0  0  0  0  0  0
  146.0623  133.6598  149.2745 H   0  0  0  0  0  0  0  0  0  0  0  0
  147.1498  135.6657  150.3587 H   0  0  0  0  0  0  0  0  0  0  0  0
  145.7752  136.1157  149.3720 H   0  0  0  0  0  0  0  0  0  0  0  0
  145.7145  135.7038  152.4109 H   0  0  0  0  0  0  0  0  0  0  0  0
  147.8976  141.6678  154.3675 H   0  0  0  0  0  0  0  0  0  0  0  0
  143.6793  136.5027  150.4994 H   0  0  0  0  0  0  0  0  0  0  0  0
  149.1624  142.8531  155.8399 H   0  0  0  0  0  0  0  0  0  0  0  0
  1  2  1  0  0  0  0
  1 25  1  0  0  0  0
  1 26  1  0  0  0  0
  1 27  1  0  0  0  0
  2  3  1  0  0  0  0
  2 28  1  0  0  0  0
  2 29  1  0  0  0  0
  3  4  1  0  0  0  0
  3  6  1  0  0  0  0
  4  5  1  0  0  0  0
  4 30  1  0  0  0  0
  4 31  1  0  0  0  0
  5 32  1  0  0  0  0
  5 33  1  0  0  0  0
  5 34  1  0  0  0  0
  6 24  1  0  0  0  0
  6  7  2  0  0  0  0
  7  8  1  0  0  0  0
  7 35  1  0  0  0  0
  8  9  2  0  0  0  0
  8 36  1  0  0  0  0
  9 10  1  0  0  0  0
  9 23  1  0  0  0  0
 10 11  1  0  0  0  0
 10 37  1  0  0  0  0
 11 12  2  0  0  0  0
 11 13  1  0  0  0  0
 13 14  1  0  0  0  0
 13 38  1  0  0  0  0
 14 22  1  0  0  0  0
 14 15  1  0  0  0  0
 14 39  1  0  0  0  0
 15 16  1  0  0  0  0
 15 40  1  0  0  0  0
 15 41  1  0  0  0  0
 16 17  1  0  0  0  0
 16 42  1  0  0  0  0
 16 43  1  0  0  0  0
 17 22  1  0  0  0  0
 17 18  1  0  0  0  0
 17 54  1  0  0  0  0
 18 19  1  0  0  0  0
 18 44  1  0  0  0  0
 18 45  1  0  0  0  0
 19 20  1  0  0  0  0
 19 46  1  0  0  0  0
 19 47  1  0  0  0  0
 20 21  1  0  0  0  0
 20 48  1  0  0  0  0
 20 49  1  0  0  0  0
 21 22  1  0  0  0  0
 21 50  1  0  0  0  0
 21 51  1  0  0  0  0
 22 52  1  0  0  0  0
 23 24  2  0  0  0  0
 23 53  1  0  0  0  0
 24 55  1  0  0  0  0
M  CHG  1  17   1
M  CHG  1  24   1
M  END
> <s_m_source_file>
AV-unprocessed.smi

> <i_m_source_file_index>
1701

> <i_lp_mmshare_version>
43012

> <i_f3d_flags>
0

> <s_epik_input>
W0NIM11bQ0gyXU4oW0NIMl1bQ0gzXSljMVtjSF1bY0hdYyhbY0hdbjEpW05IXUMoPU8pW05IXVtDQEhdKFtDSDJdW0NIMl0yKVtDQEBIXShOMjMpW0NIMl1bQ0gyXVtDSDJdW0NIMl0z

> <s_epik_cmdline>
J2VwaWtfcHl0aG9uJywgJy1waCcsICc3LjAnLCAnLXRuJywgJzgnLCAnLW1hJywgJzIwMCcsICctbWV0YWxfYmluZGluZycsICctaW1hZScsICc8aW5maWxlLm1hZT4nLCAnLW9tYWUnLCAnPG91dGZpbGUubWFlPic=

> <r_lp_tautomer_probability>
0.999994

> <r_epik_Ionization_Penalty>
0.302862

> <r_epik_Ionization_Penalty_Charging>
0.302842

> <r_epik_Ionization_Penalty_Neutral>
1.95166e-05

> <r_epik_State_Penalty>
0.019791

> <r_epik_Charging_Adjusted_Penalty>
0.322633

> <i_epik_Tot_Q>
2

> <i_epik_Tot_abs_Q>
2

> <r_epik_Metal_State_Penalty>
0.0536763

> <b_epik_Metal_Only>
0

> <s_lp_Force_Field>
OPLS_2005

> <r_lp_Energy>
62.5639

> <b_lp_Chiralities_Consistent>
1

> <s_lp_Variant>
AV-unprocessed.smi:1701-3

> <Gold.Version>
5.8.1

> <Gold.Id.Protein>
6NUR|6NUR_protein|mol2

> <Gold.PLP.Fitness>
48.3842

> <Gold.PLP.PLP>
-41.8302

> <Gold.PLP.part.hbond>
-3.2282

> <Gold.PLP.part.metal>
0.0000

> <Gold.PLP.part.buried>
-1.6980

> <Gold.PLP.part.nonpolar>
-36.7660

> <Gold.PLP.part.repulsive>
0.3434

> <Gold.PLP.ligand.clash>
0.0485

> <Gold.PLP.ligand.torsion>
1.8478

> <Gold.PLP.Chemscore.Hbond>
3.1287

> <Gold.PLP.Chemscore.CHOScore>
0.0000

> <Gold.PLP.Chemscore.Metal>
0.0000

> <Gold.Chemscore.Hbonds>
donor molecule, donor type, donor heavy atom, donor atom, acceptor molecule, acceptor atom, score
      L1  H    10    37       P1  7948  0.14
      L1  H    13    38       P1  7948  1.00
      L1  H    17    54       P1 10171  0.38
      L1  H    24    55       P1  8028  2.00

> <Gold.PLP.Chemscore.Internal.Correction>
0.9121

> <Gold.Rescore>
     Score         DG    S(hbond)    S(metal)    S(lipo)     H(rot)  DE(clash)    DE(int)     intcor
     17.06     -20.66       1.99        0.00     101.48       1.30       0.28       3.32       ----

> <Gold.Chemscore.Fitness>
17.0608

> <Gold.Chemscore.DG>
-20.6577

> <Gold.Chemscore.ZeroCoef>
-5.4800

> <Gold.Chemscore.Hbond>
1.9875

> <Gold.Chemscore.Metal>
0.0000

> <Gold.Chemscore.Lipo>
101.4757

> <Gold.Chemscore.Internal_Hbond>
0.0000

> <Gold.Chemscore.DEClash>
0.2785

> <Gold.Chemscore.DEInternal>
3.3184

> <Gold.Chemscore.Rot>
1.3020

> <Gold.Chemscore.Internal.Correction>
   9.000000E+99

> <Gold.Chemscore.Hbonds>
donor molecule, donor type, donor heavy atom, donor atom, acceptor molecule, acceptor atom, score
      L1  H    10    37       P1  7948  0.15
      L1  H    13    38       P1  7948  1.00
      L1  H    17    54       P1 10171  0.37
      L1  H    24    55       P1  8028  0.99

> <Gold.Chemscore.Hbond.Weighted>
-6.6381

> <Gold.Chemscore.Metal.Weighted>
-0.0000

> <Gold.Chemscore.Lipo.Weighted>
-11.8727

> <Gold.Chemscore.Internal_Hbond.Weighted>
0.0000

> <Gold.Chemscore.DEClash.Weighted>
0.2785

> <Gold.Chemscore.DEInternal.Weighted>
3.3184

> <Gold.Chemscore.Rot.Weighted>
3.3330

> <Gold.Chemscore.Internal.Correction.Weighted>
   9.000000E+99

> <Gold.Protein.RotatedTorsions>
[ 6907 6896 6895 6894 ] final  126.47 input  -60.11 | X-H torsion
[ 7974 7965 7964 7962 ] final   53.11 input  175.53 | X-H torsion
[ 8008 7997 7996 7995 ] final  135.58 input   59.86 | X-H torsion
[ 10167 10162 10161 10158 ] final -143.84 input  -65.29 | X-H torsion
[ 10718 10713 10712 10709 ] final  -62.77 input   66.30 | X-H torsion
[ 10763 10752 10751 10750 ] final -178.71 input  -60.55 | X-H torsion
[ 11005 11000 10999 10996 ] final   -8.18 input  -57.11 | X-H torsion

> <Gold.Protein.ActiveResidues>
 VAL166  LYS551  ARG553  GLY616  TRP617  ASP618  TYR619  PRO620  LYS621  CYS622 
 ASP623  PHE694  ASN695  SER759  ASP760  ASP761  ALA762  ILE779  LEU786  VAL792 
 PHE793  MET794  SER795  GLU796  ALA797  LYS798  CYS799  TRP800  GLU811  SER814 

> <Gold.Protein.RotatedAtoms>
  152.3900  133.6666  159.6229 H   0  0  0  0  0  0  0  0  0  0  0  0  # atno 6907 bound_to 6896
  150.7811  133.8969  159.3338 H   0  0  0  0  0  0  0  0  0  0  0  0  # atno 6908 bound_to 6896
  151.6758  135.0971  160.0258 H   0  0  0  0  0  0  0  0  0  0  0  0  # atno 6909 bound_to 6896
  145.9745  139.4181  143.0169 H   0  0  0  0  0  0  0  0  0  0  0  0  # atno 7974 bound_to 7965
  156.3003  140.2467  156.3605 H   0  0  0  0  0  0  0  0  0  0  0  0  # atno 8008 bound_to 7997
  154.8882  140.0410  157.1842 H   0  0  0  0  0  0  0  0  0  0  0  0  # atno 8009 bound_to 7997
  154.8625  140.2923  155.5534 H   0  0  0  0  0  0  0  0  0  0  0  0  # atno 8010 bound_to 7997
  139.7956  143.7905  152.2654 H   0  0  0  0  0  0  0  0  0  0  0  0  # atno 10167 bound_to 10162
  156.0834  130.4213  150.1182 H   0  0  0  0  0  0  0  0  0  0  0  0  # atno 10718 bound_to 10713
  154.5443  135.2808  155.1067 H   0  0  0  0  0  0  0  0  0  0  0  0  # atno 10763 bound_to 10752
  154.2538  135.6334  153.5253 H   0  0  0  0  0  0  0  0  0  0  0  0  # atno 10764 bound_to 10752
  152.9986  135.5589  154.5991 H   0  0  0  0  0  0  0  0  0  0  0  0  # atno 10765 bound_to 10752
  140.7207  133.8831  155.8819 H   0  0  0  0  0  0  0  0  0  0  0  0  # atno 11005 bound_to 11000
  145.7858  140.9836  143.1075 LP  0  0  0  0  0  0  0  0  0  0  0  0  # atno 17320 bound_to 7965
  144.6845  139.9621  143.7480 LP  0  0  0  0  0  0  0  0  0  0  0  0  # atno 17321 bound_to 7965
  139.8010  144.7374  150.9825 LP  0  0  0  0  0  0  0  0  0  0  0  0  # atno 17342 bound_to 10162
  140.7820  143.4345  151.0644 LP  0  0  0  0  0  0  0  0  0  0  0  0  # atno 17343 bound_to 10162
  156.9209  130.9682  151.3549 LP  0  0  0  0  0  0  0  0  0  0  0  0  # atno 17370 bound_to 10713
  157.5959  130.8477  149.8728 LP  0  0  0  0  0  0  0  0  0  0  0  0  # atno 17371 bound_to 10713
  141.0006  134.1156  157.4321 LP  0  0  0  0  0  0  0  0  0  0  0  0  # atno 17394 bound_to 11000
  139.8849  135.0067  156.6398 LP  0  0  0  0  0  0  0  0  0  0  0  0  # atno 17395 bound_to 11000

$$$$
