AV-unprocessed.smi:1560|AV-procd|sdf|6281|dock10
  -GOLD-   22720 6483D 1   1.00000     0.00000
 Structure written by MMmdl.
 47 48  0  0  0  0  0  0  0  0  3 V2000
  149.7424  139.9152  155.2105 C   0  0  0  0  0  0  0  0  0  0  0  0
  150.2076  141.2648  155.7865 C   0  0  0  0  0  0  0  0  0  0  0  0
  149.8567  141.5161  157.2855 C   0  0  1  0  0  0  0  0  0  0  0  0
  148.3131  141.4297  157.4178 C   0  0  0  0  0  0  0  0  0  0  0  0
  150.4988  140.4060  158.1749 C   0  0  0  0  0  0  0  0  0  0  0  0
  149.7670  139.1398  158.1549 N   0  0  0  0  0  0  0  0  0  0  0  0
  150.1906  137.9838  158.6892 C   0  0  0  0  0  0  0  0  0  0  0  0
  151.2870  137.8531  159.2350 O   0  0  0  0  0  0  0  0  0  0  0  0
  149.2429  136.7856  158.5499 C   0  0  0  0  0  0  0  0  0  0  0  0
  149.0792  136.0458  159.8113 N   0  0  0  0  0  0  0  0  0  0  0  0
  148.5146  136.7279  160.9039 C   0  0  0  0  0  0  0  0  0  0  0  0
  148.3215  136.1266  162.0935 C   0  0  0  0  0  0  0  0  0  0  0  0
  148.7160  134.7302  162.2335 C   0  0  0  0  0  0  0  0  0  0  0  0
  148.5509  134.1667  163.3135 O   0  0  0  0  0  0  0  0  0  0  0  0
  149.2559  134.1109  161.1430 N   0  5  0  0  0  0  0  0  0  0  0  0
  149.4432  134.7339  159.9383 C   0  0  0  0  0  0  0  0  0  0  0  0
  149.9282  134.1553  158.9649 O   0  0  0  0  0  0  0  0  0  0  0  0
  150.3445  142.8816  157.7039 N   0  3  0  0  0  0  0  0  0  0  0  0
  149.9578  143.3277  159.0725 C   0  0  0  0  0  0  0  0  0  0  0  0
  150.3471  144.8006  159.2892 C   0  0  0  0  0  0  0  0  0  0  0  0
  151.7409  144.9700  159.0727 O   0  0  0  0  0  0  0  0  0  0  0  0
  152.1119  144.6312  157.7439 C   0  0  0  0  0  0  0  0  0  0  0  0
  151.7949  143.1495  157.4866 C   0  0  0  0  0  0  0  0  0  0  0  0
  150.0362  139.8284  154.1643 H   0  0  0  0  0  0  0  0  0  0  0  0
  148.6588  139.8057  155.2512 H   0  0  0  0  0  0  0  0  0  0  0  0
  150.1869  139.0732  155.7403 H   0  0  0  0  0  0  0  0  0  0  0  0
  151.2879  141.3186  155.6495 H   0  0  0  0  0  0  0  0  0  0  0  0
  149.8168  142.0690  155.1638 H   0  0  0  0  0  0  0  0  0  0  0  0
  147.9140  140.5478  156.9155 H   0  0  0  0  0  0  0  0  0  0  0  0
  147.8188  142.2983  156.9818 H   0  0  0  0  0  0  0  0  0  0  0  0
  147.9946  141.3572  158.4579 H   0  0  0  0  0  0  0  0  0  0  0  0
  151.5360  140.2262  157.8921 H   0  0  0  0  0  0  0  0  0  0  0  0
  150.5294  140.7256  159.2161 H   0  0  0  0  0  0  0  0  0  0  0  0
  148.8535  139.1486  157.7246 H   0  0  0  0  0  0  0  0  0  0  0  0
  148.2703  137.1166  158.1800 H   0  0  0  0  0  0  0  0  0  0  0  0
  149.6371  136.1310  157.7715 H   0  0  0  0  0  0  0  0  0  0  0  0
  148.2442  137.7564  160.7150 H   0  0  0  0  0  0  0  0  0  0  0  0
  147.8831  136.6631  162.9221 H   0  0  0  0  0  0  0  0  0  0  0  0
  148.8848  143.2465  159.2355 H   0  0  0  0  0  0  0  0  0  0  0  0
  150.4463  142.7065  159.8235 H   0  0  0  0  0  0  0  0  0  0  0  0
  149.7814  145.4545  158.6234 H   0  0  0  0  0  0  0  0  0  0  0  0
  150.1102  145.1047  160.3090 H   0  0  0  0  0  0  0  0  0  0  0  0
  151.5939  145.2723  157.0287 H   0  0  0  0  0  0  0  0  0  0  0  0
  153.1796  144.8135  157.6199 H   0  0  0  0  0  0  0  0  0  0  0  0
  152.3994  142.5382  158.1569 H   0  0  0  0  0  0  0  0  0  0  0  0
  152.1004  142.9098  156.4700 H   0  0  0  0  0  0  0  0  0  0  0  0
  149.8649  143.5161  157.0813 H   0  0  0  0  0  0  0  0  0  0  0  0
  1  2  1  0  0  0  0
  1 24  1  0  0  0  0
  1 25  1  0  0  0  0
  1 26  1  0  0  0  0
  2  3  1  0  0  0  0
  2 27  1  0  0  0  0
  2 28  1  0  0  0  0
  3  4  1  0  0  0  0
  3  5  1  0  0  0  0
  3 18  1  0  0  0  0
  4 29  1  0  0  0  0
  4 30  1  0  0  0  0
  4 31  1  0  0  0  0
  5  6  1  0  0  0  0
  5 32  1  0  0  0  0
  5 33  1  0  0  0  0
  6  7  1  0  0  0  0
  6 34  1  0  0  0  0
  7  8  2  0  0  0  0
  7  9  1  0  0  0  0
  9 10  1  0  0  0  0
  9 35  1  0  0  0  0
  9 36  1  0  0  0  0
 10 16  1  0  0  0  0
 10 11  1  0  0  0  0
 11 12  2  0  0  0  0
 11 37  1  0  0  0  0
 12 13  1  0  0  0  0
 12 38  1  0  0  0  0
 13 14  2  0  0  0  0
 13 15  1  0  0  0  0
 15 16  1  0  0  0  0
 16 17  2  0  0  0  0
 18 23  1  0  0  0  0
 18 19  1  0  0  0  0
 18 47  1  0  0  0  0
 19 20  1  0  0  0  0
 19 39  1  0  0  0  0
 19 40  1  0  0  0  0
 20 21  1  0  0  0  0
 20 41  1  0  0  0  0
 20 42  1  0  0  0  0
 21 22  1  0  0  0  0
 22 23  1  0  0  0  0
 22 43  1  0  0  0  0
 22 44  1  0  0  0  0
 23 45  1  0  0  0  0
 23 46  1  0  0  0  0
M  CHG  1  15  -1
M  CHG  1  18   1
M  END
> <s_m_source_file>
AV-unprocessed.smi

> <i_m_source_file_index>
1560

> <i_lp_mmshare_version>
43012

> <i_f3d_flags>
0

> <s_epik_input>
W0NIMl0xW0NIMl1PW0NIMl1bQ0gyXU4xW0NAQF0oW0NIM10pKFtDSDJdW0NIM10pW0NIMl1bTkhdQyg9TylbQ0gyXW4yW2NIXVtjSF1jKD1PKVtuSF1jMj1P

> <s_epik_cmdline>
J2VwaWtfcHl0aG9uJywgJy1waCcsICc3LjAnLCAnLXRuJywgJzgnLCAnLW1hJywgJzIwMCcsICctbWV0YWxfYmluZGluZycsICctaW1hZScsICc8aW5maWxlLm1hZT4nLCAnLW9tYWUnLCAnPG91dGZpbGUubWFlPic=

> <r_lp_tautomer_probability>
0.999537

> <r_epik_Ionization_Penalty>
3.51944

> <r_epik_Ionization_Penalty_Charging>
0.588852

> <r_epik_Ionization_Penalty_Neutral>
2.93059

> <r_epik_State_Penalty>
3.4987

> <r_epik_Charging_Adjusted_Penalty>
4.08755

> <i_epik_Tot_Q>
0

> <i_epik_Tot_abs_Q>
2

> <r_epik_Metal_State_Penalty>
1.01204

> <b_epik_Metal_Only>
1

> <s_lp_Force_Field>
OPLS_2005

> <r_lp_Energy>
37.4968

> <b_lp_Chiralities_Consistent>
1

> <s_lp_Variant>
AV-unprocessed.smi:1560-7

> <Gold.Version>
5.8.1

> <Gold.Id.Protein>
6NUR|6NUR_protein|mol2

> <Gold.PLP.Fitness>
42.7680

> <Gold.PLP.PLP>
-34.5759

> <Gold.PLP.part.hbond>
-3.2360

> <Gold.PLP.part.metal>
0.0000

> <Gold.PLP.part.buried>
-6.0482

> <Gold.PLP.part.nonpolar>
-26.2969

> <Gold.PLP.part.repulsive>
0.2884

> <Gold.PLP.ligand.clash>
0.0000

> <Gold.PLP.ligand.torsion>
0.5004

> <Gold.PLP.Chemscore.Hbond>
3.0000

> <Gold.PLP.Chemscore.CHOScore>
0.0000

> <Gold.PLP.Chemscore.Metal>
0.0000

> <Gold.Chemscore.Hbonds>
donor molecule, donor type, donor heavy atom, donor atom, acceptor molecule, acceptor atom, score
      L1  H    18    47       P1  8028  1.69

> <Gold.PLP.Chemscore.Internal.Correction>
0.1930

> <Gold.Rescore>
     Score         DG    S(hbond)    S(metal)    S(lipo)     H(rot)  DE(clash)    DE(int)     intcor
     13.21     -13.87       1.88        0.00      72.84       2.50       0.22       0.44       ----

> <Gold.Chemscore.Fitness>
13.2138

> <Gold.Chemscore.DG>
-13.8732

> <Gold.Chemscore.ZeroCoef>
-5.4800

> <Gold.Chemscore.Hbond>
1.8756

> <Gold.Chemscore.Metal>
0.0000

> <Gold.Chemscore.Lipo>
72.8353

> <Gold.Chemscore.Internal_Hbond>
0.0000

> <Gold.Chemscore.DEClash>
0.2223

> <Gold.Chemscore.DEInternal>
0.4372

> <Gold.Chemscore.Rot>
2.4973

> <Gold.Chemscore.Internal.Correction>
   9.000000E+99

> <Gold.Chemscore.Hbonds>
donor molecule, donor type, donor heavy atom, donor atom, acceptor molecule, acceptor atom, score
      L1  H    18    47       P1  8028  0.80

> <Gold.Chemscore.Hbond.Weighted>
-6.2645

> <Gold.Chemscore.Metal.Weighted>
-0.0000

> <Gold.Chemscore.Lipo.Weighted>
-8.5217

> <Gold.Chemscore.Internal_Hbond.Weighted>
0.0000

> <Gold.Chemscore.DEClash.Weighted>
0.2223

> <Gold.Chemscore.DEInternal.Weighted>
0.4372

> <Gold.Chemscore.Rot.Weighted>
6.3930

> <Gold.Chemscore.Internal.Correction.Weighted>
   9.000000E+99

> <Gold.Protein.RotatedTorsions>
[ 6907 6896 6895 6894 ] final  129.47 input  -60.11 | X-H torsion
[ 7974 7965 7964 7962 ] final -179.12 input  175.53 | X-H torsion
[ 8008 7997 7996 7995 ] final  167.38 input   59.86 | X-H torsion
[ 10167 10162 10161 10158 ] final -179.76 input  -65.29 | X-H torsion
[ 10718 10713 10712 10709 ] final   69.96 input   66.30 | X-H torsion
[ 10763 10752 10751 10750 ] final   97.43 input  -60.55 | X-H torsion
[ 11005 11000 10999 10996 ] final   44.54 input  -57.11 | X-H torsion

> <Gold.Protein.ActiveResidues>
 VAL166  LYS551  ARG553  GLY616  TRP617  ASP618  TYR619  PRO620  LYS621  CYS622 
 ASP623  PHE694  ASN695  SER759  ASP760  ASP761  ALA762  ILE779  LEU786  VAL792 
 PHE793  MET794  SER795  GLU796  ALA797  LYS798  CYS799  TRP800  GLU811  SER814 

> <Gold.Protein.RotatedAtoms>
  152.3620  133.6309  159.6022 H   0  0  0  0  0  0  0  0  0  0  0  0  # atno 6907 bound_to 6896
  150.7608  133.9408  159.3464 H   0  0  0  0  0  0  0  0  0  0  0  0  # atno 6908 bound_to 6896
  151.7244  135.0888  160.0341 H   0  0  0  0  0  0  0  0  0  0  0  0  # atno 6909 bound_to 6896
  144.7134  140.0766  143.6427 H   0  0  0  0  0  0  0  0  0  0  0  0  # atno 7974 bound_to 7965
  156.1638  140.1618  156.8566 H   0  0  0  0  0  0  0  0  0  0  0  0  # atno 8008 bound_to 7997
  154.5187  140.0783  156.8166 H   0  0  0  0  0  0  0  0  0  0  0  0  # atno 8009 bound_to 7997
  155.3653  140.3397  155.4244 H   0  0  0  0  0  0  0  0  0  0  0  0  # atno 8010 bound_to 7997
  139.5372  144.2465  152.0819 H   0  0  0  0  0  0  0  0  0  0  0  0  # atno 10167 bound_to 10162
  157.6374  130.9453  150.0585 H   0  0  0  0  0  0  0  0  0  0  0  0  # atno 10718 bound_to 10713
  153.2768  135.4183  155.1041 H   0  0  0  0  0  0  0  0  0  0  0  0  # atno 10763 bound_to 10752
  154.8475  135.3485  154.6167 H   0  0  0  0  0  0  0  0  0  0  0  0  # atno 10764 bound_to 10752
  153.6588  135.7049  153.5242 H   0  0  0  0  0  0  0  0  0  0  0  0  # atno 10765 bound_to 10752
  140.1542  134.4423  155.8361 H   0  0  0  0  0  0  0  0  0  0  0  0  # atno 11005 bound_to 11000
  145.9738  139.2889  143.1083 LP  0  0  0  0  0  0  0  0  0  0  0  0  # atno 17320 bound_to 7965
  145.9087  140.9195  143.0465 LP  0  0  0  0  0  0  0  0  0  0  0  0  # atno 17321 bound_to 7965
  140.1937  144.4726  150.6466 LP  0  0  0  0  0  0  0  0  0  0  0  0  # atno 17342 bound_to 10162
  140.6584  143.2244  151.5914 LP  0  0  0  0  0  0  0  0  0  0  0  0  # atno 17343 bound_to 10162
  156.1625  130.3644  149.9279 LP  0  0  0  0  0  0  0  0  0  0  0  0  # atno 17370 bound_to 10713
  156.7273  130.9030  151.3623 LP  0  0  0  0  0  0  0  0  0  0  0  0  # atno 17371 bound_to 10713
  141.2202  133.6885  156.7477 LP  0  0  0  0  0  0  0  0  0  0  0  0  # atno 17394 bound_to 11000
  140.2568  134.8498  157.3720 LP  0  0  0  0  0  0  0  0  0  0  0  0  # atno 17395 bound_to 11000

$$$$
