AV-unprocessed.smi:3303|AV-procd|sdf|12673|dock7
  -GOLD-   2272019 03D 1   1.00000     0.00000
 Structure written by MMmdl.
 44 45  0  0  0  0  0  0  0  0  2 V2000
  151.5740  138.1232  155.1120 C   0  0  0  0  0  0  0  0  0  0  0  0
  150.3638  139.0611  155.2623 C   0  0  2  0  0  0  0  0  0  0  0  0
  149.3508  138.8040  154.1295 C   0  0  0  0  0  0  0  0  0  0  0  0
  148.1609  139.6479  154.2672 N   0  0  0  0  0  0  0  0  0  0  0  0
  147.2244  139.2493  153.2197 C   0  0  0  0  0  0  0  0  0  0  0  0
  148.5304  141.0702  154.1656 C   0  0  1  0  0  0  0  0  0  0  0  0
  147.3011  141.9983  154.2466 C   0  0  0  0  0  0  0  0  0  0  0  0
  149.5115  141.4174  155.3051 C   0  0  0  0  0  0  0  0  0  0  0  0
  150.7747  140.5462  155.2693 C   0  0  1  0  0  0  0  0  0  0  0  0
  151.6245  140.8555  156.4411 N   0  3  0  0  0  0  0  0  0  0  0  0
  150.9405  140.7569  157.7459 C   0  0  0  0  0  0  0  0  0  0  0  0
  151.9194  141.0092  158.9006 C   0  0  0  0  0  0  0  0  0  0  0  0
  151.9344  142.4626  159.3342 C   0  0  0  0  0  0  0  0  0  0  0  0
  152.2249  143.4880  158.4092 C   0  0  0  0  0  0  0  0  0  0  0  0
  152.2191  144.8215  158.8626 C   0  0  0  0  0  0  0  0  0  0  0  0
  151.9243  145.0764  160.2158 C   0  0  0  0  0  0  0  0  0  0  0  0
  151.6464  143.9822  161.0591 C   0  0  0  0  0  0  0  0  0  0  0  0
  151.6469  142.6999  160.6337 N   0  0  0  0  0  0  0  0  0  0  0  0
  152.1200  138.3248  154.1896 H   0  0  0  0  0  0  0  0  0  0  0  0
  151.2592  137.0796  155.0887 H   0  0  0  0  0  0  0  0  0  0  0  0
  152.2719  138.2311  155.9425 H   0  0  0  0  0  0  0  0  0  0  0  0
  149.8748  138.8278  156.2100 H   0  0  0  0  0  0  0  0  0  0  0  0
  149.8173  138.9736  153.1574 H   0  0  0  0  0  0  0  0  0  0  0  0
  149.0507  137.7553  154.1567 H   0  0  0  0  0  0  0  0  0  0  0  0
  146.2607  139.7436  153.3374 H   0  0  0  0  0  0  0  0  0  0  0  0
  147.0297  138.1771  153.2651 H   0  0  0  0  0  0  0  0  0  0  0  0
  147.6139  139.4817  152.2274 H   0  0  0  0  0  0  0  0  0  0  0  0
  149.0270  141.2393  153.2085 H   0  0  0  0  0  0  0  0  0  0  0  0
  147.6074  143.0434  154.3000 H   0  0  0  0  0  0  0  0  0  0  0  0
  146.6985  141.7875  155.1309 H   0  0  0  0  0  0  0  0  0  0  0  0
  146.6598  141.9107  153.3697 H   0  0  0  0  0  0  0  0  0  0  0  0
  149.7971  142.4681  155.2365 H   0  0  0  0  0  0  0  0  0  0  0  0
  149.0081  141.2994  156.2665 H   0  0  0  0  0  0  0  0  0  0  0  0
  151.3165  140.7672  154.3476 H   0  0  0  0  0  0  0  0  0  0  0  0
  152.4095  140.2199  156.4422 H   0  0  0  0  0  0  0  0  0  0  0  0
  150.1291  141.4852  157.7832 H   0  0  0  0  0  0  0  0  0  0  0  0
  150.4929  139.7666  157.8393 H   0  0  0  0  0  0  0  0  0  0  0  0
  151.6559  140.3879  159.7580 H   0  0  0  0  0  0  0  0  0  0  0  0
  152.9276  140.7144  158.6060 H   0  0  0  0  0  0  0  0  0  0  0  0
  152.4468  143.2618  157.3765 H   0  0  0  0  0  0  0  0  0  0  0  0
  152.4361  145.6338  158.1847 H   0  0  0  0  0  0  0  0  0  0  0  0
  151.9116  146.0863  160.5984 H   0  0  0  0  0  0  0  0  0  0  0  0
  151.4164  144.1410  162.1024 H   0  0  0  0  0  0  0  0  0  0  0  0
  151.9755  141.7964  156.3343 H   0  0  0  0  0  0  0  0  0  0  0  0
  1  2  1  0  0  0  0
  1 19  1  0  0  0  0
  1 20  1  0  0  0  0
  1 21  1  0  0  0  0
  2  9  1  0  0  0  0
  2  3  1  0  0  0  0
  2 22  1  0  0  0  0
  3  4  1  0  0  0  0
  3 23  1  0  0  0  0
  3 24  1  0  0  0  0
  4  5  1  0  0  0  0
  4  6  1  0  0  0  0
  5 25  1  0  0  0  0
  5 26  1  0  0  0  0
  5 27  1  0  0  0  0
  6  7  1  0  0  0  0
  6  8  1  0  0  0  0
  6 28  1  0  0  0  0
  7 29  1  0  0  0  0
  7 30  1  0  0  0  0
  7 31  1  0  0  0  0
  8  9  1  0  0  0  0
  8 32  1  0  0  0  0
  8 33  1  0  0  0  0
  9 10  1  0  0  0  0
  9 34  1  0  0  0  0
 10 11  1  0  0  0  0
 10 35  1  0  0  0  0
 10 44  1  0  0  0  0
 11 12  1  0  0  0  0
 11 36  1  0  0  0  0
 11 37  1  0  0  0  0
 12 13  1  0  0  0  0
 12 38  1  0  0  0  0
 12 39  1  0  0  0  0
 13 18  1  0  0  0  0
 13 14  2  0  0  0  0
 14 15  1  0  0  0  0
 14 40  1  0  0  0  0
 15 16  2  0  0  0  0
 15 41  1  0  0  0  0
 16 17  1  0  0  0  0
 16 42  1  0  0  0  0
 17 18  2  0  0  0  0
 17 43  1  0  0  0  0
M  CHG  1  10   1
M  END
> <s_m_source_file>
AV-unprocessed.smi

> <i_m_source_file_index>
3303

> <i_lp_mmshare_version>
43012

> <i_f3d_flags>
0

> <s_epik_input>
W0NIM11bQ0BASF0xW0NIMl1OKFtDSDNdKVtDQEBIXShbQ0gzXSlbQ0gyXVtDQEhdMVtOSF1bQ0gyXVtDSDJdYzJbY0hdW2NIXVtjSF1bY0hdbjI=

> <s_epik_cmdline>
J2VwaWtfcHl0aG9uJywgJy1waCcsICc3LjAnLCAnLXRuJywgJzgnLCAnLW1hJywgJzIwMCcsICctbWV0YWxfYmluZGluZycsICctaW1hZScsICc8aW5maWxlLm1hZT4nLCAnLW9tYWUnLCAnPG91dGZpbGUubWFlPic=

> <r_epik_Ionization_Penalty>
1.37325

> <r_epik_Ionization_Penalty_Charging>
0.000251572

> <r_epik_Ionization_Penalty_Neutral>
1.373

> <r_epik_State_Penalty>
1.46343

> <r_epik_Charging_Adjusted_Penalty>
1.46368

> <i_epik_Tot_Q>
1

> <i_epik_Tot_abs_Q>
1

> <r_epik_Metal_State_Penalty>
1.46331

> <b_epik_Metal_Only>
0

> <s_lp_Force_Field>
OPLS_2005

> <r_lp_Energy>
21.6133

> <b_lp_Chiralities_Consistent>
1

> <s_lp_Variant>
AV-unprocessed.smi:3303-17

> <Gold.Version>
5.8.1

> <Gold.Id.Protein>
6NUR|6NUR_protein|mol2

> <Gold.PLP.Fitness>
43.3180

> <Gold.PLP.PLP>
-43.7969

> <Gold.PLP.part.hbond>
-0.9837

> <Gold.PLP.part.metal>
0.0000

> <Gold.PLP.part.buried>
-2.1889

> <Gold.PLP.part.nonpolar>
-40.8469

> <Gold.PLP.part.repulsive>
0.3277

> <Gold.PLP.ligand.clash>
0.0000

> <Gold.PLP.ligand.torsion>
0.2517

> <Gold.PLP.Chemscore.Hbond>
0.0000

> <Gold.PLP.Chemscore.CHOScore>
0.0000

> <Gold.PLP.Chemscore.Metal>
0.0000

> <Gold.PLP.Chemscore.Internal.Correction>
0.0244

> <Gold.Rescore>
     Score         DG    S(hbond)    S(metal)    S(lipo)     H(rot)  DE(clash)    DE(int)     intcor
     16.46     -17.15       0.00        0.00     128.87       1.33       0.44       0.24       ----

> <Gold.Chemscore.Fitness>
16.4646

> <Gold.Chemscore.DG>
-17.1533

> <Gold.Chemscore.ZeroCoef>
-5.4800

> <Gold.Chemscore.Hbond>
0.0000

> <Gold.Chemscore.Metal>
0.0000

> <Gold.Chemscore.Lipo>
128.8682

> <Gold.Chemscore.Internal_Hbond>
0.0000

> <Gold.Chemscore.DEClash>
0.4449

> <Gold.Chemscore.DEInternal>
0.2438

> <Gold.Chemscore.Rot>
1.3298

> <Gold.Chemscore.Internal.Correction>
   9.000000E+99

> <Gold.Chemscore.Hbond.Weighted>
-0.0000

> <Gold.Chemscore.Metal.Weighted>
-0.0000

> <Gold.Chemscore.Lipo.Weighted>
-15.0776

> <Gold.Chemscore.Internal_Hbond.Weighted>
0.0000

> <Gold.Chemscore.DEClash.Weighted>
0.4449

> <Gold.Chemscore.DEInternal.Weighted>
0.2438

> <Gold.Chemscore.Rot.Weighted>
3.4043

> <Gold.Chemscore.Internal.Correction.Weighted>
   9.000000E+99

> <Gold.Protein.RotatedTorsions>
[ 6907 6896 6895 6894 ] final  111.97 input  -60.11 | X-H torsion
[ 7974 7965 7964 7962 ] final   95.98 input  175.53 | X-H torsion
[ 8008 7997 7996 7995 ] final  -63.58 input   59.86 | X-H torsion
[ 10167 10162 10161 10158 ] final   -0.80 input  -65.29 | X-H torsion
[ 10718 10713 10712 10709 ] final  -73.77 input   66.30 | X-H torsion
[ 10763 10752 10751 10750 ] final   82.22 input  -60.55 | X-H torsion
[ 11005 11000 10999 10996 ] final  -10.95 input  -57.11 | X-H torsion

> <Gold.Protein.ActiveResidues>
 VAL166  LYS551  ARG553  GLY616  TRP617  ASP618  TYR619  PRO620  LYS621  CYS622 
 ASP623  PHE694  ASN695  SER759  ASP760  ASP761  ALA762  ILE779  LEU786  VAL792 
 PHE793  MET794  SER795  GLU796  ALA797  LYS798  CYS799  TRP800  GLU811  SER814 

> <Gold.Protein.RotatedAtoms>
  152.4941  133.8582  159.7236 H   0  0  0  0  0  0  0  0  0  0  0  0  # atno 6907 bound_to 6896
  150.9101  133.7000  159.2863 H   0  0  0  0  0  0  0  0  0  0  0  0  # atno 6908 bound_to 6896
  151.4412  135.1024  159.9723 H   0  0  0  0  0  0  0  0  0  0  0  0  # atno 6909 bound_to 6896
  145.4450  139.2298  143.3071 H   0  0  0  0  0  0  0  0  0  0  0  0  # atno 7974 bound_to 7965
  154.4562  140.0972  156.6764 H   0  0  0  0  0  0  0  0  0  0  0  0  # atno 8008 bound_to 7997
  155.5130  140.3477  155.4373 H   0  0  0  0  0  0  0  0  0  0  0  0  # atno 8009 bound_to 7997
  156.0782  140.1366  156.9733 H   0  0  0  0  0  0  0  0  0  0  0  0  # atno 8010 bound_to 7997
  140.6783  143.6851  150.8073 H   0  0  0  0  0  0  0  0  0  0  0  0  # atno 10167 bound_to 10162
  156.0268  130.4401  150.2791 H   0  0  0  0  0  0  0  0  0  0  0  0  # atno 10718 bound_to 10713
  153.1184  135.4736  154.9154 H   0  0  0  0  0  0  0  0  0  0  0  0  # atno 10763 bound_to 10752
  154.7551  135.3116  154.8487 H   0  0  0  0  0  0  0  0  0  0  0  0  # atno 10764 bound_to 10752
  153.9058  135.6870  153.4807 H   0  0  0  0  0  0  0  0  0  0  0  0  # atno 10765 bound_to 10752
  140.7502  133.8598  155.9038 H   0  0  0  0  0  0  0  0  0  0  0  0  # atno 11005 bound_to 11000
  146.2535  140.5203  142.8883 LP  0  0  0  0  0  0  0  0  0  0  0  0  # atno 17320 bound_to 7965
  144.8097  140.6364  143.6423 LP  0  0  0  0  0  0  0  0  0  0  0  0  # atno 17321 bound_to 7965
  140.0547  143.5214  152.2656 LP  0  0  0  0  0  0  0  0  0  0  0  0  # atno 17342 bound_to 10162
  139.6089  144.7603  151.2998 LP  0  0  0  0  0  0  0  0  0  0  0  0  # atno 17343 bound_to 10162
  157.0895  131.0165  151.3127 LP  0  0  0  0  0  0  0  0  0  0  0  0  # atno 17370 bound_to 10713
  157.4865  130.7796  149.7465 LP  0  0  0  0  0  0  0  0  0  0  0  0  # atno 17371 bound_to 10713
  140.9758  134.1471  157.4537 LP  0  0  0  0  0  0  0  0  0  0  0  0  # atno 17394 bound_to 11000
  139.8789  134.9994  156.5952 LP  0  0  0  0  0  0  0  0  0  0  0  0  # atno 17395 bound_to 11000

$$$$
