AV-unprocessed.smi:210|AV-procd|sdf|1611|dock2
  -GOLD-   2262019533D 1   1.00000     0.00000
 Structure written by MMmdl.
 57 61  0  0  0  0  0  0  0  0  1 V2000
  154.9667  130.7327  155.4919 C   0  0  0  0  0  0  0  0  0  0  0  0
  154.0646  129.6811  155.7926 O   0  0  0  0  0  0  0  0  0  0  0  0
  153.4471  129.1401  154.6324 C   0  0  2  0  0  0  0  0  0  0  0  0
  152.4580  130.1493  154.0360 C   0  0  0  0  0  0  0  0  0  0  0  0
  151.3749  129.5284  154.9335 C   0  0  1  0  0  0  0  0  0  0  0  0
  150.0606  129.3986  154.3025 N   0  0  0  0  0  0  0  0  0  0  0  0
  149.1010  128.5421  154.9894 C   0  0  0  0  0  0  0  0  0  0  0  0
  149.5060  130.5833  153.9633 C   0  0  0  0  0  0  0  0  0  0  0  0
  150.0948  131.7451  154.3517 N   0  0  0  0  0  0  0  0  0  0  0  0
  149.5460  132.9149  154.0097 C   0  0  0  0  0  0  0  0  0  0  0  0
  148.4391  133.1422  153.2980 N   0  0  0  0  0  0  0  0  0  0  0  0
  147.8500  131.9750  152.9062 C   0  0  0  0  0  0  0  0  0  0  0  0
  148.3149  130.6621  153.1966 C   0  0  0  0  0  0  0  0  0  0  0  0
  147.4642  129.7174  152.6389 N   0  0  0  0  0  0  0  0  0  0  0  0
  146.5435  130.4325  152.0519 C   0  0  0  0  0  0  0  0  0  0  0  0
  146.6989  131.7977  152.1568 N   0  0  0  0  0  0  0  0  0  0  0  0
  145.8297  132.8052  151.6179 C   0  0  0  0  0  0  0  0  0  0  0  0
  144.3746  132.4808  151.2792 C   0  0  0  0  0  0  0  0  0  0  0  0
  144.4290  133.4887  150.1092 C   0  0  0  0  0  0  0  0  0  0  0  0
  143.7449  133.0217  148.8135 C   0  0  0  0  0  0  0  0  0  0  0  0
  143.7137  134.0542  147.8491 O   0  0  0  0  0  0  0  0  0  0  0  0
  143.9481  134.9135  150.4506 C   0  0  0  0  0  0  0  0  0  0  0  0
  144.4206  135.8585  149.5117 O   0  0  0  0  0  0  0  0  0  0  0  0
  145.9602  133.2772  150.1682 C   0  0  0  0  0  0  0  0  0  0  0  0
  152.2275  128.2417  154.9360 C   0  0  0  0  0  0  0  0  0  0  0  0
  152.2182  127.2530  156.1116 C   0  0  0  0  0  0  0  0  0  0  0  0
  152.5172  126.1357  155.1072 C   0  0  0  0  0  0  0  0  0  0  0  0
  151.9556  127.0424  154.0072 C   0  0  0  0  0  0  0  0  0  0  0  0
  155.4538  131.0708  156.4065 H   0  0  0  0  0  0  0  0  0  0  0  0
  154.4405  131.5839  155.0578 H   0  0  0  0  0  0  0  0  0  0  0  0
  155.7411  130.4138  154.7941 H   0  0  0  0  0  0  0  0  0  0  0  0
  154.1441  128.7456  153.8907 H   0  0  0  0  0  0  0  0  0  0  0  0
  152.6804  131.1954  154.2487 H   0  0  0  0  0  0  0  0  0  0  0  0
  152.2907  129.9835  152.9700 H   0  0  0  0  0  0  0  0  0  0  0  0
  151.3493  129.9962  155.9196 H   0  0  0  0  0  0  0  0  0  0  0  0
  148.1388  128.5407  154.4752 H   0  0  0  0  0  0  0  0  0  0  0  0
  148.9422  128.8807  156.0141 H   0  0  0  0  0  0  0  0  0  0  0  0
  149.4543  127.5127  155.0266 H   0  0  0  0  0  0  0  0  0  0  0  0
  150.0690  133.7944  154.3551 H   0  0  0  0  0  0  0  0  0  0  0  0
  145.7180  129.9779  151.5237 H   0  0  0  0  0  0  0  0  0  0  0  0
  145.8778  133.6609  152.2931 H   0  0  0  0  0  0  0  0  0  0  0  0
  144.2405  131.4500  150.9459 H   0  0  0  0  0  0  0  0  0  0  0  0
  143.6622  132.7308  152.0660 H   0  0  0  0  0  0  0  0  0  0  0  0
  144.2430  132.1515  148.3856 H   0  0  0  0  0  0  0  0  0  0  0  0
  142.7157  132.7185  149.0076 H   0  0  0  0  0  0  0  0  0  0  0  0
  144.6006  134.2394  147.5796 H   0  0  0  0  0  0  0  0  0  0  0  0
  142.8600  134.9694  150.4866 H   0  0  0  0  0  0  0  0  0  0  0  0
  144.2977  135.2213  151.4362 H   0  0  0  0  0  0  0  0  0  0  0  0
  144.8348  135.3936  148.8006 H   0  0  0  0  0  0  0  0  0  0  0  0
  146.5571  134.1814  150.0443 H   0  0  0  0  0  0  0  0  0  0  0  0
  146.3069  132.4916  149.4951 H   0  0  0  0  0  0  0  0  0  0  0  0
  152.9867  127.4105  156.8671 H   0  0  0  0  0  0  0  0  0  0  0  0
  151.2331  127.1512  156.5683 H   0  0  0  0  0  0  0  0  0  0  0  0
  153.5860  125.9476  154.9934 H   0  0  0  0  0  0  0  0  0  0  0  0
  151.9581  125.2140  155.2700 H   0  0  0  0  0  0  0  0  0  0  0  0
  150.8990  126.8543  153.8171 H   0  0  0  0  0  0  0  0  0  0  0  0
  152.5310  127.0385  153.0809 H   0  0  0  0  0  0  0  0  0  0  0  0
  1  2  1  0  0  0  0
  1 29  1  0  0  0  0
  1 30  1  0  0  0  0
  1 31  1  0  0  0  0
  2  3  1  0  0  0  0
  3 25  1  0  0  0  0
  3  4  1  0  0  0  0
  3 32  1  0  0  0  0
  4  5  1  0  0  0  0
  4 33  1  0  0  0  0
  4 34  1  0  0  0  0
  5  6  1  0  0  0  0
  5 25  1  0  0  0  0
  5 35  1  0  0  0  0
  6  7  1  0  0  0  0
  6  8  1  0  0  0  0
  7 36  1  0  0  0  0
  7 37  1  0  0  0  0
  7 38  1  0  0  0  0
  8 13  1  0  0  0  0
  8  9  2  0  0  0  0
  9 10  1  0  0  0  0
 10 11  2  0  0  0  0
 10 39  1  0  0  0  0
 11 12  1  0  0  0  0
 12 16  1  0  0  0  0
 12 13  2  0  0  0  0
 13 14  1  0  0  0  0
 14 15  2  0  0  0  0
 15 16  1  0  0  0  0
 15 40  1  0  0  0  0
 16 17  1  0  0  0  0
 17 24  1  0  0  0  0
 17 18  1  0  0  0  0
 17 41  1  0  0  0  0
 18 19  1  0  0  0  0
 18 42  1  0  0  0  0
 18 43  1  0  0  0  0
 19 20  1  0  0  0  0
 19 22  1  0  0  0  0
 19 24  1  0  0  0  0
 20 21  1  0  0  0  0
 20 44  1  0  0  0  0
 20 45  1  0  0  0  0
 21 46  1  0  0  0  0
 22 23  1  0  0  0  0
 22 47  1  0  0  0  0
 22 48  1  0  0  0  0
 23 49  1  0  0  0  0
 24 50  1  0  0  0  0
 24 51  1  0  0  0  0
 25 28  1  0  0  0  0
 25 26  1  0  0  0  0
 26 27  1  0  0  0  0
 26 52  1  0  0  0  0
 26 53  1  0  0  0  0
 27 28  1  0  0  0  0
 27 54  1  0  0  0  0
 27 55  1  0  0  0  0
 28 56  1  0  0  0  0
 28 57  1  0  0  0  0
M  END
> <s_m_source_file>
AV-unprocessed.smi

> <i_m_source_file_index>
210

> <i_lp_mmshare_version>
43012

> <i_f3d_flags>
0

> <s_epik_input>
W0NIMl0xW0NIMl1bQ0gyXUMxMltDQEhdKE9bQ0gzXSlbQ0gyXVtDQEhdMk4oW0NIM10pYyhuW2NIXW4zKWMoYzM0KW5bY0hdbjRbQ0hdKFtDSDJdNSlbQ0gyXUM1KFtDSDJdW09IXSlbQ0gyXVtPSF0=

> <s_epik_cmdline>
J2VwaWtfcHl0aG9uJywgJy1waCcsICc3LjAnLCAnLXRuJywgJzgnLCAnLW1hJywgJzIwMCcsICctbWV0YWxfYmluZGluZycsICctaW1hZScsICc8aW5maWxlLm1hZT4nLCAnLW9tYWUnLCAnPG91dGZpbGUubWFlPic=

> <r_lp_tautomer_probability>
1

> <r_epik_Ionization_Penalty>
0.00313676

> <r_epik_Ionization_Penalty_Charging>
0

> <r_epik_Ionization_Penalty_Neutral>
0.00313676

> <r_epik_State_Penalty>
0.00199132

> <r_epik_Charging_Adjusted_Penalty>
0.00199132

> <i_epik_Tot_Q>
0

> <i_epik_Tot_abs_Q>
0

> <r_epik_Metal_State_Penalty>
-0

> <b_epik_Metal_Only>
0

> <s_lp_Force_Field>
OPLS_2005

> <r_lp_Energy>
59.5036

> <b_lp_Chiralities_Consistent>
1

> <s_lp_Variant>
AV-unprocessed.smi:210-1

> <Gold.Version>
5.8.1

> <Gold.Id.Protein>
6NUR|6NUR_protein|mol2

> <Gold.PLP.Fitness>
47.6739

> <Gold.PLP.PLP>
-41.8109

> <Gold.PLP.part.hbond>
-4.3647

> <Gold.PLP.part.metal>
0.0000

> <Gold.PLP.part.buried>
-4.4767

> <Gold.PLP.part.nonpolar>
-32.8964

> <Gold.PLP.part.repulsive>
0.3725

> <Gold.PLP.ligand.clash>
0.0076

> <Gold.PLP.ligand.torsion>
1.3317

> <Gold.PLP.Chemscore.Hbond>
2.4633

> <Gold.PLP.Chemscore.CHOScore>
0.0000

> <Gold.PLP.Chemscore.Metal>
0.0000

> <Gold.Chemscore.Hbonds>
donor molecule, donor type, donor heavy atom, donor atom, acceptor molecule, acceptor atom, score
      L1  H    21    46       P1  7921  1.00
      L1  H    23    49       P1  7921  1.00
      P1  H 10192 10197       L1    21  0.73

> <Gold.PLP.Chemscore.Internal.Correction>
1.1443

> <Gold.Rescore>
     Score         DG    S(hbond)    S(metal)    S(lipo)     H(rot)  DE(clash)    DE(int)     intcor
     12.12     -15.32       2.80        0.00      82.37       3.57       0.39       2.82       ----

> <Gold.Chemscore.Fitness>
12.1165

> <Gold.Chemscore.DG>
-15.3249

> <Gold.Chemscore.ZeroCoef>
-5.4800

> <Gold.Chemscore.Hbond>
2.7994

> <Gold.Chemscore.Metal>
0.0000

> <Gold.Chemscore.Lipo>
82.3696

> <Gold.Chemscore.Internal_Hbond>
0.0000

> <Gold.Chemscore.DEClash>
0.3870

> <Gold.Chemscore.DEInternal>
2.8214

> <Gold.Chemscore.Rot>
3.5712

> <Gold.Chemscore.Internal.Correction>
   9.000000E+99

> <Gold.Chemscore.Hbonds>
donor molecule, donor type, donor heavy atom, donor atom, acceptor molecule, acceptor atom, score
      L1  H    21    46       P1  7921  0.98
      L1  H    23    49       P1  7921  1.00
      P1  H 10192 10197       L1    21  0.72

> <Gold.Chemscore.Hbond.Weighted>
-9.3500

> <Gold.Chemscore.Metal.Weighted>
-0.0000

> <Gold.Chemscore.Lipo.Weighted>
-9.6372

> <Gold.Chemscore.Internal_Hbond.Weighted>
0.0000

> <Gold.Chemscore.DEClash.Weighted>
0.3870

> <Gold.Chemscore.DEInternal.Weighted>
2.8214

> <Gold.Chemscore.Rot.Weighted>
9.1423

> <Gold.Chemscore.Internal.Correction.Weighted>
   9.000000E+99

> <Gold.Protein.RotatedTorsions>
[ 6907 6896 6895 6894 ] final   89.27 input  -60.11 | X-H torsion
[ 7974 7965 7964 7962 ] final  -43.09 input  175.53 | X-H torsion
[ 8008 7997 7996 7995 ] final  -15.09 input   59.86 | X-H torsion
[ 10167 10162 10161 10158 ] final -118.00 input  -65.29 | X-H torsion
[ 10718 10713 10712 10709 ] final   11.72 input   66.30 | X-H torsion
[ 10763 10752 10751 10750 ] final  -97.98 input  -60.55 | X-H torsion
[ 11005 11000 10999 10996 ] final   95.74 input  -57.11 | X-H torsion

> <Gold.Protein.ActiveResidues>
 VAL166  LYS551  ARG553  GLY616  TRP617  ASP618  TYR619  PRO620  LYS621  CYS622 
 ASP623  PHE694  ASN695  SER759  ASP760  ASP761  ALA762  ILE779  LEU786  VAL792 
 PHE793  MET794  SER795  GLU796  ALA797  LYS798  CYS799  TRP800  GLU811  SER814 

> <Gold.Protein.RotatedAtoms>
  152.5434  134.1992  159.8704 H   0  0  0  0  0  0  0  0  0  0  0  0  # atno 6907 bound_to 6896
  151.1982  133.4619  159.2603 H   0  0  0  0  0  0  0  0  0  0  0  0  # atno 6908 bound_to 6896
  151.1015  134.9987  159.8506 H   0  0  0  0  0  0  0  0  0  0  0  0  # atno 6909 bound_to 6896
  146.0053  140.7028  142.9251 H   0  0  0  0  0  0  0  0  0  0  0  0  # atno 7974 bound_to 7965
  154.5157  140.2205  155.9070 H   0  0  0  0  0  0  0  0  0  0  0  0  # atno 8008 bound_to 7997
  156.1605  140.3143  155.8765 H   0  0  0  0  0  0  0  0  0  0  0  0  # atno 8009 bound_to 7997
  155.3761  140.0469  157.3035 H   0  0  0  0  0  0  0  0  0  0  0  0  # atno 8010 bound_to 7997
  140.0623  143.4956  152.2025 H   0  0  0  0  0  0  0  0  0  0  0  0  # atno 10167 bound_to 10162
  156.9997  130.6074  149.5695 H   0  0  0  0  0  0  0  0  0  0  0  0  # atno 10718 bound_to 10713
  154.7375  135.5026  153.9065 H   0  0  0  0  0  0  0  0  0  0  0  0  # atno 10763 bound_to 10752
  153.1009  135.6685  153.9683 H   0  0  0  0  0  0  0  0  0  0  0  0  # atno 10764 bound_to 10752
  153.9468  135.3062  155.3419 H   0  0  0  0  0  0  0  0  0  0  0  0  # atno 10765 bound_to 10752
  139.8786  134.8914  156.4055 H   0  0  0  0  0  0  0  0  0  0  0  0  # atno 11005 bound_to 11000
  144.6933  140.3303  143.7217 LP  0  0  0  0  0  0  0  0  0  0  0  0  # atno 17320 bound_to 7965
  145.7426  139.1769  143.2367 LP  0  0  0  0  0  0  0  0  0  0  0  0  # atno 17321 bound_to 7965
  139.5886  144.7541  151.3457 LP  0  0  0  0  0  0  0  0  0  0  0  0  # atno 17342 bound_to 10162
  140.7166  143.7250  150.7667 LP  0  0  0  0  0  0  0  0  0  0  0  0  # atno 17343 bound_to 10162
  156.0176  130.5270  150.8180 LP  0  0  0  0  0  0  0  0  0  0  0  0  # atno 17370 bound_to 10713
  157.5399  131.0940  150.9841 LP  0  0  0  0  0  0  0  0  0  0  0  0  # atno 17371 bound_to 10713
  140.9237  133.7627  155.9938 LP  0  0  0  0  0  0  0  0  0  0  0  0  # atno 17394 bound_to 11000
  140.8410  134.3066  157.5313 LP  0  0  0  0  0  0  0  0  0  0  0  0  # atno 17395 bound_to 11000

$$$$
