AV-unprocessed.smi:2857|AV-procd|sdf|10997|dock7
  -GOLD-   2272015453D 1   1.00000     0.00000
 Structure written by MMmdl.
 44 46  0  0  0  0  0  0  0  0  1 V2000
  152.5043  131.9198  157.7475 C   0  0  0  0  0  0  0  0  0  0  0  0
  151.4455  132.3956  156.7740 C   0  0  0  0  0  0  0  0  0  0  0  0
  150.6169  131.4680  156.1136 C   0  0  0  0  0  0  0  0  0  0  0  0
  149.6358  131.9195  155.2129 C   0  0  0  0  0  0  0  0  0  0  0  0
  149.4762  133.2989  154.9669 C   0  0  0  0  0  0  0  0  0  0  0  0
  148.4133  133.7674  153.9907 C   0  0  0  0  0  0  0  0  0  0  0  0
  150.3024  134.2415  155.6220 C   0  0  0  0  0  0  0  0  0  0  0  0
  150.0947  135.5751  155.3352 O   0  0  0  0  0  0  0  0  0  0  0  0
  150.8459  136.5499  156.0463 C   0  0  0  0  0  0  0  0  0  0  0  0
  151.1845  137.7016  155.0875 C   0  0  2  0  0  0  0  0  0  0  0  0
  151.7680  137.1534  153.9216 O   0  0  0  0  0  0  0  0  0  0  0  0
  152.1647  138.7086  155.7215 C   0  0  0  0  0  0  0  0  0  0  0  0
  151.5546  140.0088  155.9573 N   0  0  0  0  0  0  0  0  0  0  0  0
  150.6482  140.4912  155.0681 N   0  0  0  0  0  0  0  0  0  0  0  0
  150.2798  141.6821  155.5356 C   0  0  0  0  0  0  0  0  0  0  0  0
  150.9442  142.0066  156.7499 C   0  0  0  0  0  0  0  0  0  0  0  0
  150.9282  143.1432  157.6653 C   0  0  0  0  0  0  0  0  0  0  0  0
  151.6939  143.1002  158.7104 N   0  0  0  0  0  0  0  0  0  0  0  0
  152.5181  141.9976  158.9630 N   0  0  0  0  0  0  0  0  0  0  0  0
  153.3216  142.1004  160.1789 C   0  0  0  0  0  0  0  0  0  0  0  0
  152.6048  140.8849  158.1731 C   0  0  0  0  0  0  0  0  0  0  0  0
  153.3343  139.9237  158.4164 O   0  0  0  0  0  0  0  0  0  0  0  0
  151.7321  140.9260  156.9748 C   0  0  0  0  0  0  0  0  0  0  0  0
  151.2883  133.7748  156.5288 C   0  0  0  0  0  0  0  0  0  0  0  0
  152.5447  130.8310  157.7925 H   0  0  0  0  0  0  0  0  0  0  0  0
  152.2910  132.2945  158.7489 H   0  0  0  0  0  0  0  0  0  0  0  0
  153.4868  132.2839  157.4462 H   0  0  0  0  0  0  0  0  0  0  0  0
  150.7294  130.4089  156.2944 H   0  0  0  0  0  0  0  0  0  0  0  0
  149.0056  131.2002  154.7103 H   0  0  0  0  0  0  0  0  0  0  0  0
  148.8785  134.2439  153.1276 H   0  0  0  0  0  0  0  0  0  0  0  0
  147.7507  134.4902  154.4672 H   0  0  0  0  0  0  0  0  0  0  0  0
  147.8047  132.9366  153.6334 H   0  0  0  0  0  0  0  0  0  0  0  0
  150.2306  136.9298  156.8635 H   0  0  0  0  0  0  0  0  0  0  0  0
  151.7537  136.1253  156.4791 H   0  0  0  0  0  0  0  0  0  0  0  0
  150.2690  138.2263  154.8105 H   0  0  0  0  0  0  0  0  0  0  0  0
  151.0793  136.7860  153.3885 H   0  0  0  0  0  0  0  0  0  0  0  0
  152.5216  138.3250  156.6786 H   0  0  0  0  0  0  0  0  0  0  0  0
  153.0510  138.8320  155.1001 H   0  0  0  0  0  0  0  0  0  0  0  0
  149.5548  142.2619  154.9839 H   0  0  0  0  0  0  0  0  0  0  0  0
  150.2876  144.0030  157.4697 H   0  0  0  0  0  0  0  0  0  0  0  0
  154.3846  142.0201  159.9461 H   0  0  0  0  0  0  0  0  0  0  0  0
  153.0633  141.3029  160.8769 H   0  0  0  0  0  0  0  0  0  0  0  0
  153.1677  143.0512  160.6920 H   0  0  0  0  0  0  0  0  0  0  0  0
  151.9387  134.4591  157.0520 H   0  0  0  0  0  0  0  0  0  0  0  0
  1  2  1  0  0  0  0
  1 25  1  0  0  0  0
  1 26  1  0  0  0  0
  1 27  1  0  0  0  0
  2 24  1  0  0  0  0
  2  3  2  0  0  0  0
  3  4  1  0  0  0  0
  3 28  1  0  0  0  0
  4  5  2  0  0  0  0
  4 29  1  0  0  0  0
  5  6  1  0  0  0  0
  5  7  1  0  0  0  0
  6 30  1  0  0  0  0
  6 31  1  0  0  0  0
  6 32  1  0  0  0  0
  7  8  1  0  0  0  0
  7 24  2  0  0  0  0
  8  9  1  0  0  0  0
  9 10  1  0  0  0  0
  9 33  1  0  0  0  0
  9 34  1  0  0  0  0
 10 11  1  0  0  0  0
 10 12  1  0  0  0  0
 10 35  1  0  0  0  0
 11 36  1  0  0  0  0
 12 13  1  0  0  0  0
 12 37  1  0  0  0  0
 12 38  1  0  0  0  0
 13 23  1  0  0  0  0
 13 14  1  0  0  0  0
 14 15  2  0  0  0  0
 15 16  1  0  0  0  0
 15 39  1  0  0  0  0
 16 23  2  0  0  0  0
 16 17  1  0  0  0  0
 17 18  2  0  0  0  0
 17 40  1  0  0  0  0
 18 19  1  0  0  0  0
 19 20  1  0  0  0  0
 19 21  1  0  0  0  0
 20 41  1  0  0  0  0
 20 42  1  0  0  0  0
 20 43  1  0  0  0  0
 21 22  2  0  0  0  0
 21 23  1  0  0  0  0
 24 44  1  0  0  0  0
M  END
> <s_m_source_file>
AV-unprocessed.smi

> <i_m_source_file_index>
2857

> <i_lp_mmshare_version>
43012

> <i_f3d_flags>
0

> <s_epik_input>
W0NIM11jMVtjSF1bY0hdYyhbQ0gzXSljKFtjSF0xKU9bQ0gyXVtDQEhdKFtPSF0pW0NIMl1uKG5bY0hdMiljKGMyMyljKD1PKW4oW0NIM10pbltjSF0z

> <s_epik_cmdline>
J2VwaWtfcHl0aG9uJywgJy1waCcsICc3LjAnLCAnLXRuJywgJzgnLCAnLW1hJywgJzIwMCcsICctbWV0YWxfYmluZGluZycsICctaW1hZScsICc8aW5maWxlLm1hZT4nLCAnLW9tYWUnLCAnPG91dGZpbGUubWFlPic=

> <r_lp_tautomer_probability>
1

> <r_epik_Ionization_Penalty>
2.24607e-06

> <r_epik_Ionization_Penalty_Charging>
1.42095e-10

> <r_epik_Ionization_Penalty_Neutral>
2.24593e-06

> <r_epik_State_Penalty>
-0

> <r_epik_Charging_Adjusted_Penalty>
1.42095e-10

> <i_epik_Tot_Q>
0

> <i_epik_Tot_abs_Q>
0

> <r_epik_Metal_State_Penalty>
-0

> <b_epik_Metal_Only>
0

> <s_lp_Force_Field>
OPLS_2005

> <r_lp_Energy>
31.8826

> <b_lp_Chiralities_Consistent>
1

> <s_lp_Variant>
AV-unprocessed.smi:2857-1

> <Gold.Version>
5.8.1

> <Gold.Id.Protein>
6NUR|6NUR_protein|mol2

> <Gold.PLP.Fitness>
59.8260

> <Gold.PLP.PLP>
-45.9885

> <Gold.PLP.part.hbond>
-4.0000

> <Gold.PLP.part.metal>
0.0000

> <Gold.PLP.part.buried>
-5.1173

> <Gold.PLP.part.nonpolar>
-36.4907

> <Gold.PLP.part.repulsive>
0.2320

> <Gold.PLP.ligand.clash>
0.0000

> <Gold.PLP.ligand.torsion>
1.3678

> <Gold.PLP.Chemscore.Hbond>
3.6960

> <Gold.PLP.Chemscore.CHOScore>
1.8215

> <Gold.PLP.Chemscore.Metal>
0.0000

> <Gold.Chemscore.Hbonds>
donor molecule, donor type, donor heavy atom, donor atom, acceptor molecule, acceptor atom, score
      L1  H    11    36       P1  7949  0.55
      P1  H  7989  7998       L1    14  1.00
      P1  H  7997  8010       L1    22  1.00
      P1  H 10752 10763       L1    11  1.00
      L1  C    15    39       P1  8028  0.66
      L1  C    17    40       P1  8028  1.00

> <Gold.PLP.Chemscore.Internal.Correction>
0.0205

> <Gold.Rescore>
     Score         DG    S(hbond)    S(metal)    S(lipo)     H(rot)  DE(clash)    DE(int)     intcor
     14.95     -16.56       1.66        0.00      98.03       2.32       0.13       1.48       ----

> <Gold.Chemscore.Fitness>
14.9545

> <Gold.Chemscore.DG>
-16.5626

> <Gold.Chemscore.ZeroCoef>
-5.4800

> <Gold.Chemscore.Hbond>
1.6649

> <Gold.Chemscore.Metal>
0.0000

> <Gold.Chemscore.Lipo>
98.0348

> <Gold.Chemscore.Internal_Hbond>
0.0000

> <Gold.Chemscore.DEClash>
0.1326

> <Gold.Chemscore.DEInternal>
1.4755

> <Gold.Chemscore.Rot>
2.3236

> <Gold.Chemscore.Internal.Correction>
   9.000000E+99

> <Gold.Chemscore.Hbonds>
donor molecule, donor type, donor heavy atom, donor atom, acceptor molecule, acceptor atom, score
      L1  H    11    36       P1  7949  0.21
      P1  H  7989  7998       L1    14  0.24
      P1  H  7997  8010       L1    22  0.44
      P1  H 10752 10763       L1    11  0.38

> <Gold.Chemscore.Hbond.Weighted>
-5.5609

> <Gold.Chemscore.Metal.Weighted>
-0.0000

> <Gold.Chemscore.Lipo.Weighted>
-11.4701

> <Gold.Chemscore.Internal_Hbond.Weighted>
0.0000

> <Gold.Chemscore.DEClash.Weighted>
0.1326

> <Gold.Chemscore.DEInternal.Weighted>
1.4755

> <Gold.Chemscore.Rot.Weighted>
5.9484

> <Gold.Chemscore.Internal.Correction.Weighted>
   9.000000E+99

> <Gold.Protein.RotatedTorsions>
[ 6907 6896 6895 6894 ] final -134.98 input  -60.11 | X-H torsion
[ 7974 7965 7964 7962 ] final  -11.15 input  175.53 | X-H torsion
[ 8008 7997 7996 7995 ] final   27.49 input   59.86 | X-H torsion
[ 10167 10162 10161 10158 ] final -111.54 input  -65.29 | X-H torsion
[ 10718 10713 10712 10709 ] final  110.27 input   66.30 | X-H torsion
[ 10763 10752 10751 10750 ] final   29.04 input  -60.55 | X-H torsion
[ 11005 11000 10999 10996 ] final -140.60 input  -57.11 | X-H torsion

> <Gold.Protein.ActiveResidues>
 VAL166  LYS551  ARG553  GLY616  TRP617  ASP618  TYR619  PRO620  LYS621  CYS622 
 ASP623  PHE694  ASN695  SER759  ASP760  ASP761  ALA762  ILE779  LEU786  VAL792 
 PHE793  MET794  SER795  GLU796  ALA797  LYS798  CYS799  TRP800  GLU811  SER814 

> <Gold.Protein.RotatedAtoms>
  150.9924  133.6137  159.2706 H   0  0  0  0  0  0  0  0  0  0  0  0  # atno 6907 bound_to 6896
  151.3353  135.0850  159.9362 H   0  0  0  0  0  0  0  0  0  0  0  0  # atno 6908 bound_to 6896
  152.5250  133.9545  159.7742 H   0  0  0  0  0  0  0  0  0  0  0  0  # atno 6909 bound_to 6896
  146.2197  140.2868  142.8366 H   0  0  0  0  0  0  0  0  0  0  0  0  # atno 7974 bound_to 7965
  155.0437  140.3172  155.4715 H   0  0  0  0  0  0  0  0  0  0  0  0  # atno 8008 bound_to 7997
  156.2849  140.2158  156.5505 H   0  0  0  0  0  0  0  0  0  0  0  0  # atno 8009 bound_to 7997
  154.7268  140.0485  157.0678 H   0  0  0  0  0  0  0  0  0  0  0  0  # atno 8010 bound_to 7997
  140.1325  143.4348  152.1618 H   0  0  0  0  0  0  0  0  0  0  0  0  # atno 10167 bound_to 10162
  157.6502  131.0929  150.6577 H   0  0  0  0  0  0  0  0  0  0  0  0  # atno 10718 bound_to 10713
  153.0454  135.6498  154.0830 H   0  0  0  0  0  0  0  0  0  0  0  0  # atno 10763 bound_to 10752
  154.0528  135.2894  155.3339 H   0  0  0  0  0  0  0  0  0  0  0  0  # atno 10764 bound_to 10752
  154.6708  135.5356  153.8202 H   0  0  0  0  0  0  0  0  0  0  0  0  # atno 10765 bound_to 10752
  140.8407  134.2405  157.4811 H   0  0  0  0  0  0  0  0  0  0  0  0  # atno 11005 bound_to 11000
  144.9156  140.7809  143.5780 LP  0  0  0  0  0  0  0  0  0  0  0  0  # atno 17320 bound_to 7965
  145.2801  139.1921  143.4795 LP  0  0  0  0  0  0  0  0  0  0  0  0  # atno 17321 bound_to 7965
  139.5512  144.7339  151.4428 LP  0  0  0  0  0  0  0  0  0  0  0  0  # atno 17342 bound_to 10162
  140.6808  143.8085  150.7119 LP  0  0  0  0  0  0  0  0  0  0  0  0  # atno 17343 bound_to 10162
  156.6889  130.4589  149.5605 LP  0  0  0  0  0  0  0  0  0  0  0  0  # atno 17370 bound_to 10713
  156.1875  130.6539  151.1024 LP  0  0  0  0  0  0  0  0  0  0  0  0  # atno 17371 bound_to 10713
  139.8703  134.9634  156.4460 LP  0  0  0  0  0  0  0  0  0  0  0  0  # atno 17394 bound_to 11000
  140.8898  133.7856  155.9559 LP  0  0  0  0  0  0  0  0  0  0  0  0  # atno 17395 bound_to 11000

$$$$
