AV-unprocessed.smi:2784|AV-procd|sdf|10738|dock7
  -GOLD-   2272015173D 1   1.00000     0.00000
 Structure written by MMmdl.
 31 32  0  0  0  0  0  0  0  0  1 V2000
  153.9504  141.1963  160.4141 C   0  0  0  0  0  0  0  0  0  0  0  0
  152.6523  141.2797  159.8471 O   0  0  0  0  0  0  0  0  0  0  0  0
  152.5710  142.1681  158.7410 C   0  0  2  0  0  0  0  0  0  0  0  0
  153.1178  143.5395  159.1473 C   0  0  0  0  0  0  0  0  0  0  0  0
  152.3803  144.5233  158.2461 C   0  0  0  0  0  0  0  0  0  0  0  0
  150.9654  143.9523  158.1613 C   0  0  0  0  0  0  0  0  0  0  0  0
  151.1185  142.4224  158.2759 C   0  0  1  0  0  0  0  0  0  0  0  0
  150.8702  141.7720  156.9912 N   0  0  0  0  0  0  0  0  0  0  0  0
  151.1109  140.4827  156.7112 C   0  0  0  0  0  0  0  0  0  0  0  0
  151.5774  139.7117  157.5559 O   0  0  0  0  0  0  0  0  0  0  0  0
  150.7924  140.2123  155.3896 N   0  0  0  0  0  0  0  0  0  0  0  0
  149.5754  140.4046  154.9846 C   0  0  0  0  0  0  0  0  0  0  0  0
  149.0666  140.2150  153.7098 N   0  0  0  0  0  0  0  0  0  0  0  0
  147.7352  140.5272  153.7326 C   0  0  0  0  0  0  0  0  0  0  0  0
  147.4175  140.8963  154.9701 C   0  0  0  0  0  0  0  0  0  0  0  0
  148.5234  140.8311  155.7627 O   0  0  0  0  0  0  0  0  0  0  0  0
  153.9318  140.5187  161.2675 H   0  0  0  0  0  0  0  0  0  0  0  0
  154.2896  142.1708  160.7673 H   0  0  0  0  0  0  0  0  0  0  0  0
  154.6785  140.8114  159.6996 H   0  0  0  0  0  0  0  0  0  0  0  0
  153.1829  141.7978  157.9155 H   0  0  0  0  0  0  0  0  0  0  0  0
  152.8660  143.7480  160.1883 H   0  0  0  0  0  0  0  0  0  0  0  0
  154.2015  143.6055  159.0483 H   0  0  0  0  0  0  0  0  0  0  0  0
  152.3996  145.5432  158.6309 H   0  0  0  0  0  0  0  0  0  0  0  0
  152.8368  144.5294  157.2555 H   0  0  0  0  0  0  0  0  0  0  0  0
  150.3808  144.3169  159.0070 H   0  0  0  0  0  0  0  0  0  0  0  0
  150.4489  144.2731  157.2556 H   0  0  0  0  0  0  0  0  0  0  0  0
  150.4172  142.0490  159.0247 H   0  0  0  0  0  0  0  0  0  0  0  0
  150.4971  142.3519  156.2538 H   0  0  0  0  0  0  0  0  0  0  0  0
  149.5533  139.9029  152.8821 H   0  0  0  0  0  0  0  0  0  0  0  0
  147.1403  140.4494  152.8344 H   0  0  0  0  0  0  0  0  0  0  0  0
  146.4926  141.2183  155.4254 H   0  0  0  0  0  0  0  0  0  0  0  0
  1  2  1  0  0  0  0
  1 17  1  0  0  0  0
  1 18  1  0  0  0  0
  1 19  1  0  0  0  0
  2  3  1  0  0  0  0
  3  7  1  0  0  0  0
  3  4  1  0  0  0  0
  3 20  1  0  0  0  0
  4  5  1  0  0  0  0
  4 21  1  0  0  0  0
  4 22  1  0  0  0  0
  5  6  1  0  0  0  0
  5 23  1  0  0  0  0
  5 24  1  0  0  0  0
  6  7  1  0  0  0  0
  6 25  1  0  0  0  0
  6 26  1  0  0  0  0
  7  8  1  0  0  0  0
  7 27  1  0  0  0  0
  8 28  1  0  0  0  0
  8  9  1  0  0  0  0
  9 11  1  0  0  0  0
  9 10  2  0  0  0  0
 11 12  2  0  0  0  0
 12 16  1  0  0  0  0
 12 13  1  0  0  0  0
 13 29  1  0  0  0  0
 13 14  1  0  0  0  0
 14 30  1  0  0  0  0
 14 15  2  0  0  0  0
 15 31  1  0  0  0  0
 15 16  1  0  0  0  0
M  END
> <s_m_source_file>
AV-unprocessed.smi

> <i_m_source_file_index>
2784

> <i_lp_mmshare_version>
43012

> <i_f3d_flags>
0

> <s_epik_input>
W0NIM11PW0NAQEhdMVtDSDJdW0NIMl1bQ0gyXVtDQEhdMVtOSF1DKD1PKVtOSF1jMm5bY0hdW2NIXW8y

> <s_epik_cmdline>
J2VwaWtfcHl0aG9uJywgJy1waCcsICc3LjAnLCAnLXRuJywgJzgnLCAnLW1hJywgJzIwMCcsICctbWV0YWxfYmluZGluZycsICctaW1hZScsICc8aW5maWxlLm1hZT4nLCAnLW9tYWUnLCAnPG91dGZpbGUubWFlPic=

> <r_lp_tautomer_probability>
0.107061

> <r_epik_Ionization_Penalty>
1.29244

> <r_epik_Ionization_Penalty_Charging>
1.29208

> <r_epik_Ionization_Penalty_Neutral>
0.000359742

> <r_epik_State_Penalty>
2.59896

> <r_epik_Charging_Adjusted_Penalty>
3.89105

> <i_epik_Tot_Q>
0

> <i_epik_Tot_abs_Q>
0

> <r_epik_Metal_State_Penalty>
3.62496

> <b_epik_Metal_Only>
0

> <s_lp_Force_Field>
OPLS_2005

> <r_lp_Energy>
42.0746

> <b_lp_Chiralities_Consistent>
1

> <s_lp_Variant>
AV-unprocessed.smi:2784-13

> <Gold.Version>
5.8.1

> <Gold.Id.Protein>
6NUR|6NUR_protein|mol2

> <Gold.PLP.Fitness>
38.7779

> <Gold.PLP.PLP>
-34.5549

> <Gold.PLP.part.hbond>
-2.0000

> <Gold.PLP.part.metal>
0.0000

> <Gold.PLP.part.buried>
-5.9549

> <Gold.PLP.part.nonpolar>
-27.6752

> <Gold.PLP.part.repulsive>
1.7164

> <Gold.PLP.ligand.clash>
0.0000

> <Gold.PLP.ligand.torsion>
0.6632

> <Gold.PLP.Chemscore.Hbond>
1.8480

> <Gold.PLP.Chemscore.CHOScore>
0.0000

> <Gold.PLP.Chemscore.Metal>
0.0000

> <Gold.Chemscore.Hbonds>
donor molecule, donor type, donor heavy atom, donor atom, acceptor molecule, acceptor atom, score
      L1  H    13    29       P1  7957  0.88
      P1  H  7989  7998       L1    11  0.42

> <Gold.PLP.Chemscore.Internal.Correction>
0.0053

> <Gold.Rescore>
     Score         DG    S(hbond)    S(metal)    S(lipo)     H(rot)  DE(clash)    DE(int)     intcor
     15.88     -16.65       1.68        0.00      76.54       1.32       0.00       0.77       ----

> <Gold.Chemscore.Fitness>
15.8753

> <Gold.Chemscore.DG>
-16.6506

> <Gold.Chemscore.ZeroCoef>
-5.4800

> <Gold.Chemscore.Hbond>
1.6778

> <Gold.Chemscore.Metal>
0.0000

> <Gold.Chemscore.Lipo>
76.5383

> <Gold.Chemscore.Internal_Hbond>
0.0000

> <Gold.Chemscore.DEClash>
0.0038

> <Gold.Chemscore.DEInternal>
0.7715

> <Gold.Chemscore.Rot>
1.3235

> <Gold.Chemscore.Internal.Correction>
   9.000000E+99

> <Gold.Chemscore.Hbonds>
donor molecule, donor type, donor heavy atom, donor atom, acceptor molecule, acceptor atom, score
      L1  H    13    29       P1  7957  0.87
      P1  H  7989  7998       L1    11  0.04

> <Gold.Chemscore.Hbond.Weighted>
-5.6038

> <Gold.Chemscore.Metal.Weighted>
-0.0000

> <Gold.Chemscore.Lipo.Weighted>
-8.9550

> <Gold.Chemscore.Internal_Hbond.Weighted>
0.0000

> <Gold.Chemscore.DEClash.Weighted>
0.0038

> <Gold.Chemscore.DEInternal.Weighted>
0.7715

> <Gold.Chemscore.Rot.Weighted>
3.3882

> <Gold.Chemscore.Internal.Correction.Weighted>
   9.000000E+99

> <Gold.Protein.RotatedTorsions>
[ 6907 6896 6895 6894 ] final  -66.72 input  -60.11 | X-H torsion
[ 7974 7965 7964 7962 ] final   -4.66 input  175.53 | X-H torsion
[ 8008 7997 7996 7995 ] final  173.77 input   59.86 | X-H torsion
[ 10167 10162 10161 10158 ] final   80.85 input  -65.29 | X-H torsion
[ 10718 10713 10712 10709 ] final   22.53 input   66.30 | X-H torsion
[ 10763 10752 10751 10750 ] final   76.38 input  -60.55 | X-H torsion
[ 11005 11000 10999 10996 ] final  151.17 input  -57.11 | X-H torsion

> <Gold.Protein.ActiveResidues>
 VAL166  LYS551  ARG553  GLY616  TRP617  ASP618  TYR619  PRO620  LYS621  CYS622 
 ASP623  PHE694  ASN695  SER759  ASP760  ASP761  ALA762  ILE779  LEU786  VAL792 
 PHE793  MET794  SER795  GLU796  ALA797  LYS798  CYS799  TRP800  GLU811  SER814 

> <Gold.Protein.RotatedAtoms>
  150.7449  134.5982  159.6022 H   0  0  0  0  0  0  0  0  0  0  0  0  # atno 6907 bound_to 6896
  152.3351  134.7206  160.0288 H   0  0  0  0  0  0  0  0  0  0  0  0  # atno 6908 bound_to 6896
  151.7677  133.3303  159.3472 H   0  0  0  0  0  0  0  0  0  0  0  0  # atno 6909 bound_to 6896
  146.2368  140.1904  142.8332 H   0  0  0  0  0  0  0  0  0  0  0  0  # atno 7974 bound_to 7965
  156.1042  140.1451  156.9426 H   0  0  0  0  0  0  0  0  0  0  0  0  # atno 8008 bound_to 7997
  154.4723  140.0906  156.7219 H   0  0  0  0  0  0  0  0  0  0  0  0  # atno 8009 bound_to 7997
  155.4707  140.3441  155.4327 H   0  0  0  0  0  0  0  0  0  0  0  0  # atno 8010 bound_to 7997
  139.9454  144.6062  150.8211 H   0  0  0  0  0  0  0  0  0  0  0  0  # atno 10167 bound_to 10162
  157.1536  130.6685  149.6020 H   0  0  0  0  0  0  0  0  0  0  0  0  # atno 10718 bound_to 10713
  153.0721  135.4953  154.8328 H   0  0  0  0  0  0  0  0  0  0  0  0  # atno 10763 bound_to 10752
  154.7037  135.3006  154.9304 H   0  0  0  0  0  0  0  0  0  0  0  0  # atno 10764 bound_to 10752
  154.0020  135.6765  153.4812 H   0  0  0  0  0  0  0  0  0  0  0  0  # atno 10765 bound_to 10752
  140.1195  134.8873  157.2052 H   0  0  0  0  0  0  0  0  0  0  0  0  # atno 11005 bound_to 11000
  144.9862  140.8505  143.5367 LP  0  0  0  0  0  0  0  0  0  0  0  0  # atno 17320 bound_to 7965
  145.1904  139.2304  143.5245 LP  0  0  0  0  0  0  0  0  0  0  0  0  # atno 17321 bound_to 7965
  140.7599  143.3138  151.2781 LP  0  0  0  0  0  0  0  0  0  0  0  0  # atno 17342 bound_to 10162
  139.6671  144.0086  152.2730 LP  0  0  0  0  0  0  0  0  0  0  0  0  # atno 17343 bound_to 10162
  155.9766  130.4736  150.6539 LP  0  0  0  0  0  0  0  0  0  0  0  0  # atno 17370 bound_to 10713
  157.4197  131.0835  151.1142 LP  0  0  0  0  0  0  0  0  0  0  0  0  # atno 17371 bound_to 10713
  140.2984  134.3160  155.7296 LP  0  0  0  0  0  0  0  0  0  0  0  0  # atno 17394 bound_to 11000
  141.2148  133.7577  156.9604 LP  0  0  0  0  0  0  0  0  0  0  0  0  # atno 17395 bound_to 11000

$$$$
