AV-unprocessed.smi:1801|AV-procd|sdf|7269|dock8
  -GOLD-   22720 8523D 1   1.00000     0.00000
 Structure written by MMmdl.
 37 38  0  0  0  0  0  0  0  0  3 V2000
  149.8787  133.2060  155.4104 C   0  0  0  0  0  0  0  0  0  0  0  0
  148.9954  134.2113  154.6530 C   0  0  2  0  0  0  0  0  0  0  0  0
  148.5988  135.3797  155.5835 C   0  0  0  0  0  0  0  0  0  0  0  0
  147.9624  134.9281  156.8182 N   0  0  0  0  0  0  0  0  0  0  0  0
  148.4286  135.1152  158.0611 C   0  0  0  0  0  0  0  0  0  0  0  0
  149.5110  135.6794  158.2347 O   0  0  0  0  0  0  0  0  0  0  0  0
  147.6033  134.6500  159.0251 N   0  5  0  0  0  0  0  0  0  0  0  0
  147.4211  135.3583  160.1519 C   0  0  0  0  0  0  0  0  0  0  0  0
  147.4978  136.6985  160.1777 N   0  0  0  0  0  0  0  0  0  0  0  0
  147.2825  137.2334  161.4406 N   0  0  0  0  0  0  0  0  0  0  0  0
  147.0562  136.2772  162.3411 C   0  0  0  0  0  0  0  0  0  0  0  0
  147.0879  134.6368  161.7290 S   0  0  0  0  0  0  0  0  0  0  0  0
  147.7616  133.5164  154.0295 C   0  0  0  0  0  0  0  0  0  0  0  0
  147.2323  134.2524  152.8574 N   0  3  0  0  0  0  0  0  0  0  0  0
  146.9210  133.3936  151.6969 C   0  0  0  0  0  0  0  0  0  0  0  0
  145.8827  134.1713  150.8953 C   0  0  0  0  0  0  0  0  0  0  0  0
  145.0457  134.8341  151.9840 C   0  0  0  0  0  0  0  0  0  0  0  0
  146.0358  135.0881  153.1281 C   0  0  0  0  0  0  0  0  0  0  0  0
  149.3371  132.7458  156.2372 H   0  0  0  0  0  0  0  0  0  0  0  0
  150.7611  133.6952  155.8240 H   0  0  0  0  0  0  0  0  0  0  0  0
  150.2281  132.4079  154.7551 H   0  0  0  0  0  0  0  0  0  0  0  0
  149.6029  134.6290  153.8502 H   0  0  0  0  0  0  0  0  0  0  0  0
  149.4833  135.9570  155.8543 H   0  0  0  0  0  0  0  0  0  0  0  0
  147.9287  136.0688  155.0668 H   0  0  0  0  0  0  0  0  0  0  0  0
  147.0797  134.4464  156.7259 H   0  0  0  0  0  0  0  0  0  0  0  0
  146.8726  136.5390  163.3724 H   0  0  0  0  0  0  0  0  0  0  0  0
  148.0352  132.5043  153.7277 H   0  0  0  0  0  0  0  0  0  0  0  0
  146.9529  133.4094  154.7534 H   0  0  0  0  0  0  0  0  0  0  0  0
  147.8147  133.1632  151.1162 H   0  0  0  0  0  0  0  0  0  0  0  0
  146.4875  132.4522  152.0393 H   0  0  0  0  0  0  0  0  0  0  0  0
  146.3741  134.9323  150.2873 H   0  0  0  0  0  0  0  0  0  0  0  0
  145.2935  133.5364  150.2329 H   0  0  0  0  0  0  0  0  0  0  0  0
  144.5541  135.7452  151.6416 H   0  0  0  0  0  0  0  0  0  0  0  0
  144.2701  134.1437  152.3189 H   0  0  0  0  0  0  0  0  0  0  0  0
  145.5754  134.8554  154.0900 H   0  0  0  0  0  0  0  0  0  0  0  0
  146.3418  136.1343  153.1553 H   0  0  0  0  0  0  0  0  0  0  0  0
  147.9568  134.8849  152.5491 H   0  0  0  0  0  0  0  0  0  0  0  0
  1  2  1  0  0  0  0
  1 19  1  0  0  0  0
  1 20  1  0  0  0  0
  1 21  1  0  0  0  0
  2  3  1  0  0  0  0
  2 13  1  0  0  0  0
  2 22  1  0  0  0  0
  3  4  1  0  0  0  0
  3 23  1  0  0  0  0
  3 24  1  0  0  0  0
  4  5  1  0  0  0  0
  4 25  1  0  0  0  0
  5  6  2  0  0  0  0
  5  7  1  0  0  0  0
  7  8  1  0  0  0  0
  8 12  1  0  0  0  0
  8  9  2  0  0  0  0
  9 10  1  0  0  0  0
 10 11  2  0  0  0  0
 11 12  1  0  0  0  0
 11 26  1  0  0  0  0
 13 14  1  0  0  0  0
 13 27  1  0  0  0  0
 13 28  1  0  0  0  0
 14 18  1  0  0  0  0
 14 15  1  0  0  0  0
 14 37  1  0  0  0  0
 15 16  1  0  0  0  0
 15 29  1  0  0  0  0
 15 30  1  0  0  0  0
 16 17  1  0  0  0  0
 16 31  1  0  0  0  0
 16 32  1  0  0  0  0
 17 18  1  0  0  0  0
 17 33  1  0  0  0  0
 17 34  1  0  0  0  0
 18 35  1  0  0  0  0
 18 36  1  0  0  0  0
M  CHG  1   7  -1
M  CHG  1  14   1
M  END
> <s_m_source_file>
AV-unprocessed.smi

> <i_m_source_file_index>
1801

> <i_lp_mmshare_version>
43012

> <i_f3d_flags>
0

> <s_epik_input>
W0NIMl0xW0NIMl1bQ0gyXVtDSDJdTjFbQ0gyXVtDQEhdKFtDSDNdKVtDSDJdW05IXUMoPU8pW05IXWMybm5bY0hdczI=

> <s_epik_cmdline>
J2VwaWtfcHl0aG9uJywgJy1waCcsICc3LjAnLCAnLXRuJywgJzgnLCAnLW1hJywgJzIwMCcsICctbWV0YWxfYmluZGluZycsICctaW1hZScsICc8aW5maWxlLm1hZT4nLCAnLW9tYWUnLCAnPG91dGZpbGUubWFlPic=

> <r_lp_tautomer_probability>
1

> <r_epik_Ionization_Penalty>
3.29721

> <r_epik_Ionization_Penalty_Charging>
3.25987

> <r_epik_Ionization_Penalty_Neutral>
0.0373399

> <r_epik_State_Penalty>
3.2571

> <r_epik_Charging_Adjusted_Penalty>
6.51697

> <i_epik_Tot_Q>
0

> <i_epik_Tot_abs_Q>
2

> <r_epik_Metal_State_Penalty>
0.477553

> <b_epik_Metal_Only>
1

> <s_lp_Force_Field>
OPLS_2005

> <r_lp_Energy>
22.4794

> <b_lp_Chiralities_Consistent>
1

> <s_lp_Variant>
AV-unprocessed.smi:1801-3

> <Gold.Version>
5.8.1

> <Gold.Id.Protein>
6NUR|6NUR_protein|mol2

> <Gold.PLP.Fitness>
40.5340

> <Gold.PLP.PLP>
-28.6427

> <Gold.PLP.part.hbond>
-4.0000

> <Gold.PLP.part.metal>
0.0000

> <Gold.PLP.part.buried>
-4.1064

> <Gold.PLP.part.nonpolar>
-20.5441

> <Gold.PLP.part.repulsive>
0.0187

> <Gold.PLP.ligand.clash>
0.0000

> <Gold.PLP.ligand.torsion>
1.3931

> <Gold.PLP.Chemscore.Hbond>
4.8400

> <Gold.PLP.Chemscore.CHOScore>
0.0000

> <Gold.PLP.Chemscore.Metal>
0.0000

> <Gold.Chemscore.Hbonds>
donor molecule, donor type, donor heavy atom, donor atom, acceptor molecule, acceptor atom, score
      L1  H    14    37       P1  7948  2.00
      P1  H  6896  6907       L1     6  0.88
      P1  H  6931  6943       L1    10  0.76
      P1  H  6934  6947       L1    10  0.86

> <Gold.PLP.Chemscore.Internal.Correction>
0.1575

> <Gold.Rescore>
     Score         DG    S(hbond)    S(metal)    S(lipo)     H(rot)  DE(clash)    DE(int)     intcor
     16.79     -17.87       3.52        0.00      47.47       1.93       0.00       1.07       ----

> <Gold.Chemscore.Fitness>
16.7936

> <Gold.Chemscore.DG>
-17.8659

> <Gold.Chemscore.ZeroCoef>
-5.4800

> <Gold.Chemscore.Hbond>
3.5221

> <Gold.Chemscore.Metal>
0.0000

> <Gold.Chemscore.Lipo>
47.4706

> <Gold.Chemscore.Internal_Hbond>
0.0000

> <Gold.Chemscore.DEClash>
0.0000

> <Gold.Chemscore.DEInternal>
1.0723

> <Gold.Chemscore.Rot>
1.9266

> <Gold.Chemscore.Internal.Correction>
   9.000000E+99

> <Gold.Chemscore.Hbonds>
donor molecule, donor type, donor heavy atom, donor atom, acceptor molecule, acceptor atom, score
      L1  H    14    37       P1  7948  0.82
      P1  H  6896  6907       L1     6  0.55
      P1  H  6931  6943       L1    10  0.30
      P1  H  6934  6947       L1    10  0.16

> <Gold.Chemscore.Hbond.Weighted>
-11.7639

> <Gold.Chemscore.Metal.Weighted>
-0.0000

> <Gold.Chemscore.Lipo.Weighted>
-5.5541

> <Gold.Chemscore.Internal_Hbond.Weighted>
0.0000

> <Gold.Chemscore.DEClash.Weighted>
0.0000

> <Gold.Chemscore.DEInternal.Weighted>
1.0723

> <Gold.Chemscore.Rot.Weighted>
4.9321

> <Gold.Chemscore.Internal.Correction.Weighted>
   9.000000E+99

> <Gold.Protein.RotatedTorsions>
[ 6907 6896 6895 6894 ] final  -77.43 input  -60.11 | X-H torsion
[ 7974 7965 7964 7962 ] final -176.95 input  175.53 | X-H torsion
[ 8008 7997 7996 7995 ] final  -52.41 input   59.86 | X-H torsion
[ 10167 10162 10161 10158 ] final   58.31 input  -65.29 | X-H torsion
[ 10718 10713 10712 10709 ] final  145.69 input   66.30 | X-H torsion
[ 10763 10752 10751 10750 ] final   66.10 input  -60.55 | X-H torsion
[ 11005 11000 10999 10996 ] final  -81.50 input  -57.11 | X-H torsion

> <Gold.Protein.ActiveResidues>
 VAL166  LYS551  ARG553  GLY616  TRP617  ASP618  TYR619  PRO620  LYS621  CYS622 
 ASP623  PHE694  ASN695  SER759  ASP760  ASP761  ALA762  ILE779  LEU786  VAL792 
 PHE793  MET794  SER795  GLU796  ALA797  LYS798  CYS799  TRP800  GLU811  SER814 

> <Gold.Protein.RotatedAtoms>
  150.6999  134.4423  159.5297 H   0  0  0  0  0  0  0  0  0  0  0  0  # atno 6907 bound_to 6896
  152.2131  134.8481  160.0504 H   0  0  0  0  0  0  0  0  0  0  0  0  # atno 6908 bound_to 6896
  151.9359  133.3589  159.3984 H   0  0  0  0  0  0  0  0  0  0  0  0  # atno 6909 bound_to 6896
  144.7127  140.1093  143.6412 H   0  0  0  0  0  0  0  0  0  0  0  0  # atno 7974 bound_to 7965
  154.4106  140.1224  156.4987 H   0  0  0  0  0  0  0  0  0  0  0  0  # atno 8008 bound_to 7997
  155.6917  140.3495  155.4877 H   0  0  0  0  0  0  0  0  0  0  0  0  # atno 8009 bound_to 7997
  155.9463  140.1096  157.1004 H   0  0  0  0  0  0  0  0  0  0  0  0  # atno 8010 bound_to 7997
  140.1886  144.4108  150.6581 H   0  0  0  0  0  0  0  0  0  0  0  0  # atno 10167 bound_to 10162
  157.3422  131.0937  151.1073 H   0  0  0  0  0  0  0  0  0  0  0  0  # atno 10718 bound_to 10713
  153.0125  135.5332  154.6772 H   0  0  0  0  0  0  0  0  0  0  0  0  # atno 10763 bound_to 10752
  154.5941  135.2861  155.0607 H   0  0  0  0  0  0  0  0  0  0  0  0  # atno 10764 bound_to 10752
  154.1689  135.6535  153.5057 H   0  0  0  0  0  0  0  0  0  0  0  0  # atno 10765 bound_to 10752
  141.1666  133.7199  156.8432 H   0  0  0  0  0  0  0  0  0  0  0  0  # atno 11005 bound_to 11000
  145.9468  139.2706  143.1236 LP  0  0  0  0  0  0  0  0  0  0  0  0  # atno 17320 bound_to 7965
  145.9365  140.9011  143.0329 LP  0  0  0  0  0  0  0  0  0  0  0  0  # atno 17321 bound_to 7965
  140.6471  143.2216  151.6161 LP  0  0  0  0  0  0  0  0  0  0  0  0  # atno 17342 bound_to 10162
  139.5265  144.3043  152.1047 LP  0  0  0  0  0  0  0  0  0  0  0  0  # atno 17343 bound_to 10162
  157.2280  130.6512  149.5838 LP  0  0  0  0  0  0  0  0  0  0  0  0  # atno 17370 bound_to 10713
  155.9709  130.4608  150.6085 LP  0  0  0  0  0  0  0  0  0  0  0  0  # atno 17371 bound_to 10713
  140.1969  134.8925  157.3124 LP  0  0  0  0  0  0  0  0  0  0  0  0  # atno 17394 bound_to 11000
  140.2230  134.4001  155.7557 LP  0  0  0  0  0  0  0  0  0  0  0  0  # atno 17395 bound_to 11000

$$$$
