AV-unprocessed.smi:1867|AV-procd|sdf|7561|dock1
  -GOLD-   22720 9273D 1   1.00000     0.00000
 Structure written by MMmdl.
 52 55  0  0  0  0  0  0  0  0  2 V2000
  149.2207  135.3194  156.2332 O   0  0  0  0  0  0  0  0  0  0  0  0
  149.2274  135.5467  155.0260 C   0  0  0  0  0  0  0  0  0  0  0  0
  149.6677  136.6881  154.4616 N   0  0  0  0  0  0  0  0  0  0  0  0
  150.1378  137.8682  155.0970 C   0  0  0  0  0  0  0  0  0  0  0  0
  150.4038  137.8137  156.4786 C   0  0  0  0  0  0  0  0  0  0  0  0
  150.8887  138.9615  157.1330 C   0  0  0  0  0  0  0  0  0  0  0  0
  151.1020  140.1415  156.3821 C   0  0  0  0  0  0  0  0  0  0  0  0
  151.5863  141.3134  156.9967 N   0  0  0  0  0  0  0  0  0  0  0  0
  152.1837  141.2855  158.3251 C   0  0  0  0  0  0  0  0  0  0  0  0
  151.9569  142.6833  158.9130 C   0  0  0  0  0  0  0  0  0  0  0  0
  151.6971  143.5665  157.6926 C   0  0  0  0  0  0  0  0  0  0  0  0
  151.0010  142.6163  156.7204 C   0  0  0  0  0  0  0  0  0  0  0  0
  150.8683  140.1880  155.0490 N   0  0  0  0  0  0  0  0  0  0  0  0
  150.4009  139.0859  154.4262 C   0  0  0  0  0  0  0  0  0  0  0  0
  148.7879  134.6280  154.1463 N   0  0  0  0  0  0  0  0  0  0  0  0
  148.2468  133.2910  154.4106 C   0  0  1  0  0  0  0  0  0  0  0  0
  147.8377  132.5517  153.1217 C   0  0  0  0  0  0  0  0  0  0  0  0
  148.2869  131.1045  153.3439 C   0  0  0  0  0  0  0  0  0  0  0  0
  149.5009  131.2603  154.1523 N   0  3  2  0  0  0  0  0  0  0  0  0
  150.0953  130.0593  154.7732 C   0  0  0  0  0  0  0  0  0  0  0  0
  151.4501  130.4544  155.3987 C   0  0  0  0  0  0  0  0  0  0  0  0
  151.3254  131.6699  156.3454 C   0  0  0  0  0  0  0  0  0  0  0  0
  150.5792  132.8454  155.6773 C   0  0  0  0  0  0  0  0  0  0  0  0
  149.2356  132.3356  155.1241 C   0  0  1  0  0  0  0  0  0  0  0  0
  149.7042  136.6986  153.4530 H   0  0  0  0  0  0  0  0  0  0  0  0
  150.2377  136.9032  157.0360 H   0  0  0  0  0  0  0  0  0  0  0  0
  151.0960  138.9197  158.1919 H   0  0  0  0  0  0  0  0  0  0  0  0
  151.7372  140.5206  158.9613 H   0  0  0  0  0  0  0  0  0  0  0  0
  153.2490  141.0741  158.2289 H   0  0  0  0  0  0  0  0  0  0  0  0
  151.0707  142.6713  159.5485 H   0  0  0  0  0  0  0  0  0  0  0  0
  152.7964  143.0287  159.5170 H   0  0  0  0  0  0  0  0  0  0  0  0
  151.1014  144.4503  157.9221 H   0  0  0  0  0  0  0  0  0  0  0  0
  152.6463  143.8983  157.2697 H   0  0  0  0  0  0  0  0  0  0  0  0
  151.1548  142.9159  155.6831 H   0  0  0  0  0  0  0  0  0  0  0  0
  149.9283  142.5833  156.9161 H   0  0  0  0  0  0  0  0  0  0  0  0
  150.2617  139.1962  153.3623 H   0  0  0  0  0  0  0  0  0  0  0  0
  148.8263  134.8972  153.1737 H   0  0  0  0  0  0  0  0  0  0  0  0
  147.3494  133.3799  155.0255 H   0  0  0  0  0  0  0  0  0  0  0  0
  146.7701  132.6290  152.9126 H   0  0  0  0  0  0  0  0  0  0  0  0
  148.3709  132.9638  152.2630 H   0  0  0  0  0  0  0  0  0  0  0  0
  147.5349  130.5500  153.9078 H   0  0  0  0  0  0  0  0  0  0  0  0
  148.4819  130.5753  152.4106 H   0  0  0  0  0  0  0  0  0  0  0  0
  149.4207  129.6520  155.5279 H   0  0  0  0  0  0  0  0  0  0  0  0
  150.2415  129.2870  154.0172 H   0  0  0  0  0  0  0  0  0  0  0  0
  151.8765  129.6055  155.9339 H   0  0  0  0  0  0  0  0  0  0  0  0
  152.1537  130.6970  154.6013 H   0  0  0  0  0  0  0  0  0  0  0  0
  150.7873  131.3685  157.2451 H   0  0  0  0  0  0  0  0  0  0  0  0
  152.3142  131.9918  156.6738 H   0  0  0  0  0  0  0  0  0  0  0  0
  150.4207  133.6381  156.4085 H   0  0  0  0  0  0  0  0  0  0  0  0
  151.1864  133.2676  154.8754 H   0  0  0  0  0  0  0  0  0  0  0  0
  148.6820  131.8939  155.9558 H   0  0  0  0  0  0  0  0  0  0  0  0
  150.1969  131.6265  153.5185 H   0  0  0  0  0  0  0  0  0  0  0  0
  1  2  2  0  0  0  0
  2  3  1  0  0  0  0
  2 15  1  0  0  0  0
  3  4  1  0  0  0  0
  3 25  1  0  0  0  0
  4 14  1  0  0  0  0
  4  5  2  0  0  0  0
  5  6  1  0  0  0  0
  5 26  1  0  0  0  0
  6  7  2  0  0  0  0
  6 27  1  0  0  0  0
  7  8  1  0  0  0  0
  7 13  1  0  0  0  0
  8 12  1  0  0  0  0
  8  9  1  0  0  0  0
  9 10  1  0  0  0  0
  9 28  1  0  0  0  0
  9 29  1  0  0  0  0
 10 11  1  0  0  0  0
 10 30  1  0  0  0  0
 10 31  1  0  0  0  0
 11 12  1  0  0  0  0
 11 32  1  0  0  0  0
 11 33  1  0  0  0  0
 12 34  1  0  0  0  0
 12 35  1  0  0  0  0
 13 14  2  0  0  0  0
 14 36  1  0  0  0  0
 15 16  1  0  0  0  0
 15 37  1  0  0  0  0
 16 24  1  0  0  0  0
 16 17  1  0  0  0  0
 16 38  1  0  0  0  0
 17 18  1  0  0  0  0
 17 39  1  0  0  0  0
 17 40  1  0  0  0  0
 18 19  1  0  0  0  0
 18 41  1  0  0  0  0
 18 42  1  0  0  0  0
 19 24  1  0  0  0  0
 19 20  1  0  0  0  0
 19 52  1  0  0  0  0
 20 21  1  0  0  0  0
 20 43  1  0  0  0  0
 20 44  1  0  0  0  0
 21 22  1  0  0  0  0
 21 45  1  0  0  0  0
 21 46  1  0  0  0  0
 22 23  1  0  0  0  0
 22 47  1  0  0  0  0
 22 48  1  0  0  0  0
 23 24  1  0  0  0  0
 23 49  1  0  0  0  0
 23 50  1  0  0  0  0
 24 51  1  0  0  0  0
M  CHG  1  19   1
M  END
> <s_m_source_file>
AV-unprocessed.smi

> <i_m_source_file_index>
1867

> <i_lp_mmshare_version>
43012

> <i_f3d_flags>
0

> <s_epik_input>
W0NIMl0xW0NIMl1bQ0gyXVtDSDJdW0NASF0oTjEyKVtDQEBIXShbQ0gyXVtDSDJdMilbTkhdQyg9TylbTkhdYzNbY0hdW2NIXWMobltjSF0zKU40W0NIMl1bQ0gyXVtDSDJdW0NIMl00

> <s_epik_cmdline>
J2VwaWtfcHl0aG9uJywgJy1waCcsICc3LjAnLCAnLXRuJywgJzgnLCAnLW1hJywgJzIwMCcsICctbWV0YWxfYmluZGluZycsICctaW1hZScsICc8aW5maWxlLm1hZT4nLCAnLW9tYWUnLCAnPG91dGZpbGUubWFlPic=

> <r_lp_tautomer_probability>
1

> <r_epik_Ionization_Penalty>
0.0751123

> <r_epik_Ionization_Penalty_Charging>
0.000974069

> <r_epik_Ionization_Penalty_Neutral>
0.0741382

> <r_epik_State_Penalty>
0.0647261

> <r_epik_Charging_Adjusted_Penalty>
0.0657002

> <i_epik_Tot_Q>
1

> <i_epik_Tot_abs_Q>
1

> <r_epik_Metal_State_Penalty>
0.0580571

> <b_epik_Metal_Only>
0

> <s_lp_Force_Field>
OPLS_2005

> <r_lp_Energy>
77.0679

> <b_lp_Chiralities_Consistent>
1

> <s_lp_Variant>
AV-unprocessed.smi:1867-2

> <Gold.Version>
5.8.1

> <Gold.Id.Protein>
6NUR|6NUR_protein|mol2

> <Gold.PLP.Fitness>
49.0748

> <Gold.PLP.PLP>
-38.6696

> <Gold.PLP.part.hbond>
-3.0000

> <Gold.PLP.part.metal>
0.0000

> <Gold.PLP.part.buried>
-3.5568

> <Gold.PLP.part.nonpolar>
-31.1622

> <Gold.PLP.part.repulsive>
0.1193

> <Gold.PLP.ligand.clash>
0.0000

> <Gold.PLP.ligand.torsion>
0.4552

> <Gold.PLP.Chemscore.Hbond>
2.7000

> <Gold.PLP.Chemscore.CHOScore>
1.0000

> <Gold.PLP.Chemscore.Metal>
0.0000

> <Gold.Chemscore.Hbonds>
donor molecule, donor type, donor heavy atom, donor atom, acceptor molecule, acceptor atom, score
      L1  H     3    25       P1  7948  1.00
      L1  H    15    37       P1  7948  1.00
      P1  H  7989  7998       L1    13  0.70
      L1  C    14    36       P1  7957  1.00

> <Gold.PLP.Chemscore.Internal.Correction>
0.2157

> <Gold.Rescore>
     Score         DG    S(hbond)    S(metal)    S(lipo)     H(rot)  DE(clash)    DE(int)     intcor
     18.15     -20.95       2.04        0.00      95.93       1.00       0.08       2.72       ----

> <Gold.Chemscore.Fitness>
18.1482

> <Gold.Chemscore.DG>
-20.9497

> <Gold.Chemscore.ZeroCoef>
-5.4800

> <Gold.Chemscore.Hbond>
2.0375

> <Gold.Chemscore.Metal>
0.0000

> <Gold.Chemscore.Lipo>
95.9346

> <Gold.Chemscore.Internal_Hbond>
0.0000

> <Gold.Chemscore.DEClash>
0.0786

> <Gold.Chemscore.DEInternal>
2.7229

> <Gold.Chemscore.Rot>
1.0000

> <Gold.Chemscore.Internal.Correction>
   9.000000E+99

> <Gold.Chemscore.Hbonds>
donor molecule, donor type, donor heavy atom, donor atom, acceptor molecule, acceptor atom, score
      L1  H     3    25       P1  7948  0.47
      L1  H    15    37       P1  7948  0.29
      P1  H  7989  7998       L1    13  0.07

> <Gold.Chemscore.Hbond.Weighted>
-6.8053

> <Gold.Chemscore.Metal.Weighted>
-0.0000

> <Gold.Chemscore.Lipo.Weighted>
-11.2243

> <Gold.Chemscore.Internal_Hbond.Weighted>
0.0000

> <Gold.Chemscore.DEClash.Weighted>
0.0786

> <Gold.Chemscore.DEInternal.Weighted>
2.7229

> <Gold.Chemscore.Rot.Weighted>
2.5600

> <Gold.Chemscore.Internal.Correction.Weighted>
   9.000000E+99

> <Gold.Protein.RotatedTorsions>
[ 6907 6896 6895 6894 ] final   48.63 input  -60.11 | X-H torsion
[ 7974 7965 7964 7962 ] final  134.19 input  175.53 | X-H torsion
[ 8008 7997 7996 7995 ] final -112.46 input   59.86 | X-H torsion
[ 10167 10162 10161 10158 ] final -154.09 input  -65.29 | X-H torsion
[ 10718 10713 10712 10709 ] final  170.49 input   66.30 | X-H torsion
[ 10763 10752 10751 10750 ] final -129.15 input  -60.55 | X-H torsion
[ 11005 11000 10999 10996 ] final  143.37 input  -57.11 | X-H torsion

> <Gold.Protein.ActiveResidues>
 VAL166  LYS551  ARG553  GLY616  TRP617  ASP618  TYR619  PRO620  LYS621  CYS622 
 ASP623  PHE694  ASN695  SER759  ASP760  ASP761  ALA762  ILE779  LEU786  VAL792 
 PHE793  MET794  SER795  GLU796  ALA797  LYS798  CYS799  TRP800  GLU811  SER814 

> <Gold.Protein.RotatedAtoms>
  152.2816  134.7822  160.0395 H   0  0  0  0  0  0  0  0  0  0  0  0  # atno 6907 bound_to 6896
  151.8399  133.3416  159.3648 H   0  0  0  0  0  0  0  0  0  0  0  0  # atno 6908 bound_to 6896
  150.7192  134.5330  159.5754 H   0  0  0  0  0  0  0  0  0  0  0  0  # atno 6909 bound_to 6896
  144.9788  139.4526  143.5396 H   0  0  0  0  0  0  0  0  0  0  0  0  # atno 7974 bound_to 7965
  155.0056  140.0394  157.2378 H   0  0  0  0  0  0  0  0  0  0  0  0  # atno 8008 bound_to 7997
  154.7505  140.2766  155.6273 H   0  0  0  0  0  0  0  0  0  0  0  0  # atno 8009 bound_to 7997
  156.2884  140.2648  156.2257 H   0  0  0  0  0  0  0  0  0  0  0  0  # atno 8010 bound_to 7997
  139.7042  143.9214  152.2441 H   0  0  0  0  0  0  0  0  0  0  0  0  # atno 10167 bound_to 10162
  157.0074  131.0194  151.2813 H   0  0  0  0  0  0  0  0  0  0  0  0  # atno 10718 bound_to 10713
  154.8757  135.3905  154.3873 H   0  0  0  0  0  0  0  0  0  0  0  0  # atno 10763 bound_to 10752
  153.4613  135.7029  153.6054 H   0  0  0  0  0  0  0  0  0  0  0  0  # atno 10764 bound_to 10752
  153.4551  135.3825  155.2275 H   0  0  0  0  0  0  0  0  0  0  0  0  # atno 10765 bound_to 10752
  140.0549  134.9236  157.1082 H   0  0  0  0  0  0  0  0  0  0  0  0  # atno 11005 bound_to 11000
  146.3402  139.9048  142.8789 LP  0  0  0  0  0  0  0  0  0  0  0  0  # atno 17320 bound_to 7965
  145.2451  141.0023  143.3913 LP  0  0  0  0  0  0  0  0  0  0  0  0  # atno 17321 bound_to 7965
  139.9065  144.6882  150.8609 LP  0  0  0  0  0  0  0  0  0  0  0  0  # atno 17342 bound_to 10162
  140.7717  143.3475  151.2081 LP  0  0  0  0  0  0  0  0  0  0  0  0  # atno 17343 bound_to 10162
  157.5345  130.8080  149.7956 LP  0  0  0  0  0  0  0  0  0  0  0  0  # atno 17370 bound_to 10713
  156.0148  130.3818  150.2145 LP  0  0  0  0  0  0  0  0  0  0  0  0  # atno 17371 bound_to 10713
  140.3860  134.2236  155.7168 LP  0  0  0  0  0  0  0  0  0  0  0  0  # atno 17394 bound_to 11000
  141.1947  133.8122  157.0745 LP  0  0  0  0  0  0  0  0  0  0  0  0  # atno 17395 bound_to 11000

$$$$
