AV-unprocessed.smi:1629|AV-procd|sdf|6522|dock9
  -GOLD-   22720 7193D 1   1.00000     0.00000
 Structure written by MMmdl.
 45 46  0  0  0  0  0  0  0  0  2 V2000
  145.3316  135.6287  150.6417 C   0  0  0  0  0  0  0  0  0  0  0  0
  144.9351  136.0313  152.3905 S   0  0  0  0  0  0  0  0  0  0  0  0
  143.8088  136.9765  152.4186 O   0  0  0  0  0  0  0  0  0  0  0  0
  144.8679  134.7733  153.1500 O   0  0  0  0  0  0  0  0  0  0  0  0
  146.3461  136.8879  152.8984 N   0  0  0  0  0  0  0  0  0  0  0  0
  146.2211  138.2794  153.3415 C   0  0  0  0  0  0  0  0  0  0  0  0
  147.6058  138.9612  153.4040 C   0  0  0  0  0  0  0  0  0  0  0  0
  147.5054  140.3596  154.0402 C   0  0  0  0  0  0  0  0  0  0  0  0
  146.8934  140.2370  155.3747 N   0  0  0  0  0  0  0  0  0  0  0  0
  147.5356  140.3525  156.5647 C   0  0  0  0  0  0  0  0  0  0  0  0
  146.9839  140.1724  157.6513 O   0  0  0  0  0  0  0  0  0  0  0  0
  148.8211  140.7312  156.4764 N   0  0  0  0  0  0  0  0  0  0  0  0
  149.6935  140.9657  157.6185 C   0  0  0  0  0  0  0  0  0  0  0  0
  151.0470  141.5270  157.1619 C   0  0  0  0  0  0  0  0  0  0  0  0
  151.4724  142.7313  157.9799 C   0  0  0  0  0  0  0  0  0  0  0  0
  152.5074  142.6602  158.9377 C   0  0  0  0  0  0  0  0  0  0  0  0
  152.8610  143.8204  159.6578 C   0  0  0  0  0  0  0  0  0  0  0  0
  152.1741  145.0259  159.4050 C   0  0  0  0  0  0  0  0  0  0  0  0
  151.1505  145.0411  158.4357 C   0  0  0  0  0  0  0  0  0  0  0  0
  150.8410  143.9087  157.7662 N   0  3  0  0  0  0  0  0  0  0  0  0
  145.5100  139.7524  155.2832 C   0  0  0  0  0  0  0  0  0  0  0  0
  145.5139  138.3236  154.7110 C   0  0  0  0  0  0  0  0  0  0  0  0
  144.5066  135.0678  150.2029 H   0  0  0  0  0  0  0  0  0  0  0  0
  146.2390  135.0258  150.6042 H   0  0  0  0  0  0  0  0  0  0  0  0
  145.4832  136.5499  150.0797 H   0  0  0  0  0  0  0  0  0  0  0  0
  147.1002  136.7846  152.2198 H   0  0  0  0  0  0  0  0  0  0  0  0
  145.5987  138.8169  152.6252 H   0  0  0  0  0  0  0  0  0  0  0  0
  148.2965  138.3489  153.9857 H   0  0  0  0  0  0  0  0  0  0  0  0
  148.0318  139.0445  152.4036 H   0  0  0  0  0  0  0  0  0  0  0  0
  148.4886  140.8293  154.0436 H   0  0  0  0  0  0  0  0  0  0  0  0
  146.8804  141.0039  153.4201 H   0  0  0  0  0  0  0  0  0  0  0  0
  149.2113  140.8781  155.5567 H   0  0  0  0  0  0  0  0  0  0  0  0
  149.2139  141.6676  158.3031 H   0  0  0  0  0  0  0  0  0  0  0  0
  149.8342  140.0295  158.1609 H   0  0  0  0  0  0  0  0  0  0  0  0
  151.8169  140.7573  157.2368 H   0  0  0  0  0  0  0  0  0  0  0  0
  150.9973  141.8114  156.1098 H   0  0  0  0  0  0  0  0  0  0  0  0
  153.0269  141.7302  159.1177 H   0  0  0  0  0  0  0  0  0  0  0  0
  153.6503  143.7866  160.3945 H   0  0  0  0  0  0  0  0  0  0  0  0
  152.4296  145.9254  159.9461 H   0  0  0  0  0  0  0  0  0  0  0  0
  150.5745  145.9178  158.1774 H   0  0  0  0  0  0  0  0  0  0  0  0
  144.9940  139.7678  156.2443 H   0  0  0  0  0  0  0  0  0  0  0  0
  144.9378  140.4149  154.6323 H   0  0  0  0  0  0  0  0  0  0  0  0
  144.4908  137.9579  154.6169 H   0  0  0  0  0  0  0  0  0  0  0  0
  146.0178  137.6574  155.4133 H   0  0  0  0  0  0  0  0  0  0  0  0
  150.0972  143.9436  157.0686 H   0  0  0  0  0  0  0  0  0  0  0  0
  1  2  1  0  0  0  0
  1 23  1  0  0  0  0
  1 24  1  0  0  0  0
  1 25  1  0  0  0  0
  2  3  2  0  0  0  0
  2  4  2  0  0  0  0
  2  5  1  0  0  0  0
  5  6  1  0  0  0  0
  5 26  1  0  0  0  0
  6 22  1  0  0  0  0
  6  7  1  0  0  0  0
  6 27  1  0  0  0  0
  7  8  1  0  0  0  0
  7 28  1  0  0  0  0
  7 29  1  0  0  0  0
  8  9  1  0  0  0  0
  8 30  1  0  0  0  0
  8 31  1  0  0  0  0
  9 10  1  0  0  0  0
  9 21  1  0  0  0  0
 10 11  2  0  0  0  0
 10 12  1  0  0  0  0
 12 13  1  0  0  0  0
 12 32  1  0  0  0  0
 13 14  1  0  0  0  0
 13 33  1  0  0  0  0
 13 34  1  0  0  0  0
 14 15  1  0  0  0  0
 14 35  1  0  0  0  0
 14 36  1  0  0  0  0
 15 20  1  0  0  0  0
 15 16  2  0  0  0  0
 16 17  1  0  0  0  0
 16 37  1  0  0  0  0
 17 18  2  0  0  0  0
 17 38  1  0  0  0  0
 18 19  1  0  0  0  0
 18 39  1  0  0  0  0
 19 20  2  0  0  0  0
 19 40  1  0  0  0  0
 20 45  1  0  0  0  0
 21 22  1  0  0  0  0
 21 41  1  0  0  0  0
 21 42  1  0  0  0  0
 22 43  1  0  0  0  0
 22 44  1  0  0  0  0
M  CHG  1  20   1
M  END
> <s_m_source_file>
AV-unprocessed.smi

> <i_m_source_file_index>
1629

> <i_lp_mmshare_version>
43012

> <i_f3d_flags>
0

> <s_epik_input>
W0NIM11TKD1PKSg9TylbTkhdW0NIXTFbQ0gyXVtDSDJdTihbQ0gyXVtDSDJdMSlDKD1PKVtOSF1bQ0gyXVtDSDJdYzJbY0hdW2NIXVtjSF1bY0hdbjI=

> <s_epik_cmdline>
J2VwaWtfcHl0aG9uJywgJy1waCcsICc3LjAnLCAnLXRuJywgJzgnLCAnLW1hJywgJzIwMCcsICctbWV0YWxfYmluZGluZycsICctaW1hZScsICc8aW5maWxlLm1hZT4nLCAnLW9tYWUnLCAnPG91dGZpbGUubWFlPic=

> <r_epik_Ionization_Penalty>
1.55223

> <r_epik_Ionization_Penalty_Charging>
1.55216

> <r_epik_Ionization_Penalty_Neutral>
6.06433e-05

> <r_epik_State_Penalty>
1.64647

> <r_epik_Charging_Adjusted_Penalty>
3.19864

> <i_epik_Tot_Q>
1

> <i_epik_Tot_abs_Q>
1

> <r_epik_Metal_State_Penalty>
1.69511

> <b_epik_Metal_Only>
0

> <s_lp_Force_Field>
OPLS_2005

> <r_lp_Energy>
29.0489

> <b_lp_Chiralities_Consistent>
1

> <s_lp_Variant>
AV-unprocessed.smi:1629-2

> <Gold.Version>
5.8.1

> <Gold.Id.Protein>
6NUR|6NUR_protein|mol2

> <Gold.PLP.Fitness>
41.5170

> <Gold.PLP.PLP>
-33.7766

> <Gold.PLP.part.hbond>
-2.0000

> <Gold.PLP.part.metal>
0.0000

> <Gold.PLP.part.buried>
-5.6287

> <Gold.PLP.part.nonpolar>
-26.9553

> <Gold.PLP.part.repulsive>
0.6740

> <Gold.PLP.ligand.clash>
0.0000

> <Gold.PLP.ligand.torsion>
0.6459

> <Gold.PLP.Chemscore.Hbond>
2.9600

> <Gold.PLP.Chemscore.CHOScore>
0.0000

> <Gold.PLP.Chemscore.Metal>
0.0000

> <Gold.Chemscore.Hbonds>
donor molecule, donor type, donor heavy atom, donor atom, acceptor molecule, acceptor atom, score
      L1  H     5    26       P1  7948  0.98
      L1  H    20    45       P1  8028  2.00

> <Gold.PLP.Chemscore.Internal.Correction>
0.1523

> <Gold.Rescore>
     Score         DG    S(hbond)    S(metal)    S(lipo)     H(rot)  DE(clash)    DE(int)     intcor
     16.92     -17.59       1.94        0.00      94.76       2.13       0.00       0.67       ----

> <Gold.Chemscore.Fitness>
16.9173

> <Gold.Chemscore.DG>
-17.5884

> <Gold.Chemscore.ZeroCoef>
-5.4800

> <Gold.Chemscore.Hbond>
1.9404

> <Gold.Chemscore.Metal>
0.0000

> <Gold.Chemscore.Lipo>
94.7616

> <Gold.Chemscore.Internal_Hbond>
0.0000

> <Gold.Chemscore.DEClash>
0.0000

> <Gold.Chemscore.DEInternal>
0.6711

> <Gold.Chemscore.Rot>
2.1326

> <Gold.Chemscore.Internal.Correction>
   9.000000E+99

> <Gold.Chemscore.Hbonds>
donor molecule, donor type, donor heavy atom, donor atom, acceptor molecule, acceptor atom, score
      L1  H     5    26       P1  7948  0.92
      L1  H    20    45       P1  8028  0.90

> <Gold.Chemscore.Hbond.Weighted>
-6.4809

> <Gold.Chemscore.Metal.Weighted>
-0.0000

> <Gold.Chemscore.Lipo.Weighted>
-11.0871

> <Gold.Chemscore.Internal_Hbond.Weighted>
0.0000

> <Gold.Chemscore.DEClash.Weighted>
0.0000

> <Gold.Chemscore.DEInternal.Weighted>
0.6711

> <Gold.Chemscore.Rot.Weighted>
5.4595

> <Gold.Chemscore.Internal.Correction.Weighted>
   9.000000E+99

> <Gold.Protein.RotatedTorsions>
[ 6907 6896 6895 6894 ] final   55.10 input  -60.11 | X-H torsion
[ 7974 7965 7964 7962 ] final -160.03 input  175.53 | X-H torsion
[ 8008 7997 7996 7995 ] final  131.61 input   59.86 | X-H torsion
[ 10167 10162 10161 10158 ] final -141.61 input  -65.29 | X-H torsion
[ 10718 10713 10712 10709 ] final -163.06 input   66.30 | X-H torsion
[ 10763 10752 10751 10750 ] final   47.41 input  -60.55 | X-H torsion
[ 11005 11000 10999 10996 ] final  -37.74 input  -57.11 | X-H torsion

> <Gold.Protein.ActiveResidues>
 VAL166  LYS551  ARG553  GLY616  TRP617  ASP618  TYR619  PRO620  LYS621  CYS622 
 ASP623  PHE694  ASN695  SER759  ASP760  ASP761  ALA762  ILE779  LEU786  VAL792 
 PHE793  MET794  SER795  GLU796  ALA797  LYS798  CYS799  TRP800  GLU811  SER814 

> <Gold.Protein.RotatedAtoms>
  152.3505  134.7012  160.0237 H   0  0  0  0  0  0  0  0  0  0  0  0  # atno 6907 bound_to 6896
  151.7367  133.3314  159.3363 H   0  0  0  0  0  0  0  0  0  0  0  0  # atno 6908 bound_to 6896
  150.7537  134.6248  159.6199 H   0  0  0  0  0  0  0  0  0  0  0  0  # atno 6909 bound_to 6896
  144.7442  140.3600  143.6098 H   0  0  0  0  0  0  0  0  0  0  0  0  # atno 7974 bound_to 7965
  156.2972  140.2567  156.2954 H   0  0  0  0  0  0  0  0  0  0  0  0  # atno 8008 bound_to 7997
  154.9469  140.0395  157.2143 H   0  0  0  0  0  0  0  0  0  0  0  0  # atno 8009 bound_to 7997
  154.8073  140.2838  155.5883 H   0  0  0  0  0  0  0  0  0  0  0  0  # atno 8010 bound_to 7997
  139.8168  143.7628  152.2665 H   0  0  0  0  0  0  0  0  0  0  0  0  # atno 10167 bound_to 10162
  156.6193  130.8883  151.2954 H   0  0  0  0  0  0  0  0  0  0  0  0  # atno 10718 bound_to 10713
  152.9800  135.5977  154.3757 H   0  0  0  0  0  0  0  0  0  0  0  0  # atno 10763 bound_to 10752
  154.3427  135.2767  155.2416 H   0  0  0  0  0  0  0  0  0  0  0  0  # atno 10764 bound_to 10752
  154.4491  135.5994  153.6234 H   0  0  0  0  0  0  0  0  0  0  0  0  # atno 10765 bound_to 10752
  140.9975  133.6973  156.1961 H   0  0  0  0  0  0  0  0  0  0  0  0  # atno 11005 bound_to 11000
  145.7187  139.1704  143.2497 LP  0  0  0  0  0  0  0  0  0  0  0  0  # atno 17320 bound_to 7965
  146.1293  140.7206  142.9420 LP  0  0  0  0  0  0  0  0  0  0  0  0  # atno 17321 bound_to 7965
  139.7794  144.7450  151.0110 LP  0  0  0  0  0  0  0  0  0  0  0  0  # atno 17342 bound_to 10162
  140.7815  143.4558  151.0347 LP  0  0  0  0  0  0  0  0  0  0  0  0  # atno 17343 bound_to 10162
  157.7232  130.9587  150.1525 LP  0  0  0  0  0  0  0  0  0  0  0  0  # atno 17370 bound_to 10713
  156.2325  130.3683  149.8429 LP  0  0  0  0  0  0  0  0  0  0  0  0  # atno 17371 bound_to 10713
  140.6943  134.4632  157.5588 LP  0  0  0  0  0  0  0  0  0  0  0  0  # atno 17394 bound_to 11000
  139.9022  134.8530  156.1850 LP  0  0  0  0  0  0  0  0  0  0  0  0  # atno 17395 bound_to 11000

$$$$
