AV-unprocessed.smi:2098|AV-procd|sdf|8565|dock5
  -GOLD-   2272011293D 1   1.00000     0.00000
 Structure written by MMmdl.
 36 38  0  0  0  0  0  0  0  0  1 V2000
  150.4900  139.4347  154.3222 O   0  0  0  0  0  0  0  0  0  0  0  0
  149.6904  140.1919  155.2099 C   0  0  2  0  0  0  0  0  0  0  0  0
  148.4230  140.6360  154.4628 C   0  0  0  0  0  0  0  0  0  0  0  0
  147.5219  141.2256  155.3910 O   0  0  0  0  0  0  0  0  0  0  0  0
  146.5553  142.0820  154.9083 C   0  0  0  0  0  0  0  0  0  0  0  0
  145.6280  142.5907  155.8412 C   0  0  0  0  0  0  0  0  0  0  0  0
  144.6047  143.4692  155.4356 C   0  0  0  0  0  0  0  0  0  0  0  0
  144.4986  143.8491  154.0852 C   0  0  0  0  0  0  0  0  0  0  0  0
  143.5141  144.6919  153.6926 F   0  0  0  0  0  0  0  0  0  0  0  0
  145.4182  143.3515  153.1435 C   0  0  0  0  0  0  0  0  0  0  0  0
  146.4422  142.4735  153.5496 C   0  0  0  0  0  0  0  0  0  0  0  0
  150.5060  141.3970  155.7177 C   0  0  0  0  0  0  0  0  0  0  0  0
  151.3835  141.0541  156.8232 N   0  0  0  0  0  0  0  0  0  0  0  0
  152.1043  139.9251  156.9640 C   0  0  0  0  0  0  0  0  0  0  0  0
  152.8443  139.8067  158.0628 N   0  0  0  0  0  0  0  0  0  0  0  0
  152.5717  140.9985  158.7122 C   0  0  0  0  0  0  0  0  0  0  0  0
  153.0436  141.4982  159.9474 C   0  0  0  0  0  0  0  0  0  0  0  0
  152.6217  142.7600  160.4159 C   0  0  0  0  0  0  0  0  0  0  0  0
  151.7240  143.5402  159.6585 C   0  0  0  0  0  0  0  0  0  0  0  0
  151.2396  143.0631  158.4253 C   0  0  0  0  0  0  0  0  0  0  0  0
  151.6615  141.8029  157.9620 C   0  0  0  0  0  0  0  0  0  0  0  0
  150.3691  138.5184  154.5197 H   0  0  0  0  0  0  0  0  0  0  0  0
  149.4161  139.5661  156.0603 H   0  0  0  0  0  0  0  0  0  0  0  0
  148.6864  141.3892  153.7180 H   0  0  0  0  0  0  0  0  0  0  0  0
  147.9706  139.7921  153.9387 H   0  0  0  0  0  0  0  0  0  0  0  0
  145.7014  142.3037  156.8801 H   0  0  0  0  0  0  0  0  0  0  0  0
  143.9013  143.8504  156.1610 H   0  0  0  0  0  0  0  0  0  0  0  0
  145.3385  143.6429  152.1066 H   0  0  0  0  0  0  0  0  0  0  0  0
  147.1282  142.1145  152.7978 H   0  0  0  0  0  0  0  0  0  0  0  0
  151.1066  141.8187  154.9107 H   0  0  0  0  0  0  0  0  0  0  0  0
  149.8359  142.1901  156.0517 H   0  0  0  0  0  0  0  0  0  0  0  0
  152.0840  139.1453  156.2166 H   0  0  0  0  0  0  0  0  0  0  0  0
  153.7317  140.9094  160.5356 H   0  0  0  0  0  0  0  0  0  0  0  0
  152.9889  143.1315  161.3614 H   0  0  0  0  0  0  0  0  0  0  0  0
  151.4073  144.5055  160.0250 H   0  0  0  0  0  0  0  0  0  0  0  0
  150.5539  143.6591  157.8418 H   0  0  0  0  0  0  0  0  0  0  0  0
  1  2  1  0  0  0  0
  1 22  1  0  0  0  0
  2  3  1  0  0  0  0
  2 12  1  0  0  0  0
  2 23  1  0  0  0  0
  3  4  1  0  0  0  0
  3 24  1  0  0  0  0
  3 25  1  0  0  0  0
  4  5  1  0  0  0  0
  5 11  1  0  0  0  0
  5  6  2  0  0  0  0
  6  7  1  0  0  0  0
  6 26  1  0  0  0  0
  7  8  2  0  0  0  0
  7 27  1  0  0  0  0
  8  9  1  0  0  0  0
  8 10  1  0  0  0  0
 10 11  2  0  0  0  0
 10 28  1  0  0  0  0
 11 29  1  0  0  0  0
 12 13  1  0  0  0  0
 12 30  1  0  0  0  0
 12 31  1  0  0  0  0
 13 21  1  0  0  0  0
 13 14  1  0  0  0  0
 14 15  2  0  0  0  0
 14 32  1  0  0  0  0
 15 16  1  0  0  0  0
 16 21  2  0  0  0  0
 16 17  1  0  0  0  0
 17 18  2  0  0  0  0
 17 33  1  0  0  0  0
 18 19  1  0  0  0  0
 18 34  1  0  0  0  0
 19 20  2  0  0  0  0
 19 35  1  0  0  0  0
 20 21  1  0  0  0  0
 20 36  1  0  0  0  0
M  END
> <s_m_source_file>
AV-unprocessed.smi

> <i_m_source_file_index>
2098

> <i_lp_mmshare_version>
43012

> <i_f3d_flags>
0

> <s_epik_input>
W2NIXTFbY0hdW2NIXVtjSF1jKGMxMiluKFtjSF1uMilbQ0gyXVtDQEhdKFtPSF0pW0NIMl1PYzNbY0hdW2NIXWMoRilbY0hdW2NIXTM=

> <s_epik_cmdline>
J2VwaWtfcHl0aG9uJywgJy1waCcsICc3LjAnLCAnLXRuJywgJzgnLCAnLW1hJywgJzIwMCcsICctbWV0YWxfYmluZGluZycsICctaW1hZScsICc8aW5maWxlLm1hZT4nLCAnLW9tYWUnLCAnPG91dGZpbGUubWFlPic=

> <r_lp_tautomer_probability>
1

> <r_epik_Ionization_Penalty>
0.0603575

> <r_epik_Ionization_Penalty_Charging>
0

> <r_epik_Ionization_Penalty_Neutral>
0.0603575

> <r_epik_State_Penalty>
0.0523204

> <r_epik_Charging_Adjusted_Penalty>
0.0523204

> <i_epik_Tot_Q>
0

> <i_epik_Tot_abs_Q>
0

> <r_epik_Metal_State_Penalty>
5.46976e-05

> <b_epik_Metal_Only>
0

> <s_lp_Force_Field>
OPLS_2005

> <r_lp_Energy>
15.3662

> <b_lp_Chiralities_Consistent>
1

> <s_lp_Variant>
AV-unprocessed.smi:2098-1

> <Gold.Version>
5.8.1

> <Gold.Id.Protein>
6NUR|6NUR_protein|mol2

> <Gold.PLP.Fitness>
52.6986

> <Gold.PLP.PLP>
-47.9872

> <Gold.PLP.part.hbond>
-3.0000

> <Gold.PLP.part.metal>
0.0000

> <Gold.PLP.part.buried>
-6.4036

> <Gold.PLP.part.nonpolar>
-38.4484

> <Gold.PLP.part.repulsive>
0.1133

> <Gold.PLP.ligand.clash>
0.0000

> <Gold.PLP.ligand.torsion>
0.6765

> <Gold.PLP.Chemscore.Hbond>
2.0000

> <Gold.PLP.Chemscore.CHOScore>
0.0000

> <Gold.PLP.Chemscore.Metal>
0.0000

> <Gold.Chemscore.Hbonds>
donor molecule, donor type, donor heavy atom, donor atom, acceptor molecule, acceptor atom, score
      P1  H  7989  7998       L1     1  1.00
      P1  H  7997  8009       L1    15  0.40

> <Gold.PLP.Chemscore.Internal.Correction>
0.0644

> <Gold.Rescore>
     Score         DG    S(hbond)    S(metal)    S(lipo)     H(rot)  DE(clash)    DE(int)     intcor
     16.10     -16.85       1.39        0.00     109.32       2.37       0.12       0.63       ----

> <Gold.Chemscore.Fitness>
16.0951

> <Gold.Chemscore.DG>
-16.8480

> <Gold.Chemscore.ZeroCoef>
-5.4800

> <Gold.Chemscore.Hbond>
1.3933

> <Gold.Chemscore.Metal>
0.0000

> <Gold.Chemscore.Lipo>
109.3212

> <Gold.Chemscore.Internal_Hbond>
0.0000

> <Gold.Chemscore.DEClash>
0.1223

> <Gold.Chemscore.DEInternal>
0.6306

> <Gold.Chemscore.Rot>
2.3735

> <Gold.Chemscore.Internal.Correction>
   9.000000E+99

> <Gold.Chemscore.Hbonds>
donor molecule, donor type, donor heavy atom, donor atom, acceptor molecule, acceptor atom, score
      P1  H  7989  7998       L1     1  0.33
      P1  H  7997  8009       L1    15  0.01

> <Gold.Chemscore.Hbond.Weighted>
-4.6536

> <Gold.Chemscore.Metal.Weighted>
-0.0000

> <Gold.Chemscore.Lipo.Weighted>
-12.7906

> <Gold.Chemscore.Internal_Hbond.Weighted>
0.0000

> <Gold.Chemscore.DEClash.Weighted>
0.1223

> <Gold.Chemscore.DEInternal.Weighted>
0.6306

> <Gold.Chemscore.Rot.Weighted>
6.0762

> <Gold.Chemscore.Internal.Correction.Weighted>
   9.000000E+99

> <Gold.Protein.RotatedTorsions>
[ 6907 6896 6895 6894 ] final  -12.28 input  -60.11 | X-H torsion
[ 7974 7965 7964 7962 ] final  -33.18 input  175.53 | X-H torsion
[ 8008 7997 7996 7995 ] final  163.57 input   59.86 | X-H torsion
[ 10167 10162 10161 10158 ] final  -85.66 input  -65.29 | X-H torsion
[ 10718 10713 10712 10709 ] final -107.26 input   66.30 | X-H torsion
[ 10763 10752 10751 10750 ] final  -70.43 input  -60.55 | X-H torsion
[ 11005 11000 10999 10996 ] final   93.32 input  -57.11 | X-H torsion

> <Gold.Protein.ActiveResidues>
 VAL166  LYS551  ARG553  GLY616  TRP617  ASP618  TYR619  PRO620  LYS621  CYS622 
 ASP623  PHE694  ASN695  SER759  ASP760  ASP761  ALA762  ILE779  LEU786  VAL792 
 PHE793  MET794  SER795  GLU796  ALA797  LYS798  CYS799  TRP800  GLU811  SER814 

> <Gold.Protein.RotatedAtoms>
  151.3730  135.0926  159.9471 H   0  0  0  0  0  0  0  0  0  0  0  0  # atno 6907 bound_to 6896
  152.5130  133.9146  159.7515 H   0  0  0  0  0  0  0  0  0  0  0  0  # atno 6908 bound_to 6896
  150.9564  133.6438  159.2791 H   0  0  0  0  0  0  0  0  0  0  0  0  # atno 6909 bound_to 6896
  146.0931  140.5885  142.8855 H   0  0  0  0  0  0  0  0  0  0  0  0  # atno 7974 bound_to 7965
  156.1947  140.1720  156.8022 H   0  0  0  0  0  0  0  0  0  0  0  0  # atno 8008 bound_to 7997
  154.5514  140.0717  156.8706 H   0  0  0  0  0  0  0  0  0  0  0  0  # atno 8009 bound_to 7997
  155.3021  140.3362  155.4249 H   0  0  0  0  0  0  0  0  0  0  0  0  # atno 8010 bound_to 7997
  140.4016  143.2660  151.9135 H   0  0  0  0  0  0  0  0  0  0  0  0  # atno 10167 bound_to 10162
  156.0428  130.5654  150.7796 H   0  0  0  0  0  0  0  0  0  0  0  0  # atno 10718 bound_to 10713
  154.4175  135.5994  153.5990 H   0  0  0  0  0  0  0  0  0  0  0  0  # atno 10763 bound_to 10752
  152.9792  135.5944  154.3995 H   0  0  0  0  0  0  0  0  0  0  0  0  # atno 10764 bound_to 10752
  154.3816  135.2841  155.2186 H   0  0  0  0  0  0  0  0  0  0  0  0  # atno 10765 bound_to 10752
  139.8811  134.8783  156.3701 H   0  0  0  0  0  0  0  0  0  0  0  0  # atno 11005 bound_to 11000
  144.7375  140.4849  143.6893 LP  0  0  0  0  0  0  0  0  0  0  0  0  # atno 17320 bound_to 7965
  145.6001  139.1503  143.3134 LP  0  0  0  0  0  0  0  0  0  0  0  0  # atno 17321 bound_to 7965
  139.4784  144.5628  151.8213 LP  0  0  0  0  0  0  0  0  0  0  0  0  # atno 17342 bound_to 10162
  140.4734  144.1554  150.5921 LP  0  0  0  0  0  0  0  0  0  0  0  0  # atno 17343 bound_to 10162
  157.5267  131.0934  151.0008 LP  0  0  0  0  0  0  0  0  0  0  0  0  # atno 17370 bound_to 10713
  157.0325  130.5717  149.5345 LP  0  0  0  0  0  0  0  0  0  0  0  0  # atno 17371 bound_to 10713
  140.9470  133.7476  156.0221 LP  0  0  0  0  0  0  0  0  0  0  0  0  # atno 17394 bound_to 11000
  140.8151  134.3354  157.5399 LP  0  0  0  0  0  0  0  0  0  0  0  0  # atno 17395 bound_to 11000

$$$$
