AV-unprocessed.smi:907|AV-procd|sdf|4110|dock4
  -GOLD-   22720 2 03D 1   1.00000     0.00000
 Structure written by MMmdl.
 54 57  0  0  0  0  0  0  0  0  3 V2000
  151.7239  139.5277  156.2445 O   0  0  0  0  0  0  0  0  0  0  0  0
  150.6485  139.5487  155.6447 C   0  0  0  0  0  0  0  0  0  0  0  0
  149.6919  140.4504  155.9258 N   0  0  0  0  0  0  0  0  0  0  0  0
  149.8109  141.5088  156.9226 C   0  0  0  0  0  0  0  0  0  0  0  0
  150.8894  142.5348  156.5353 C   0  0  0  0  0  0  0  0  0  0  0  0
  151.2912  143.4122  157.7044 C   0  0  0  0  0  0  0  0  0  0  0  0
  152.2047  142.9732  158.6872 C   0  0  0  0  0  0  0  0  0  0  0  0
  152.5452  143.8386  159.7476 C   0  0  0  0  0  0  0  0  0  0  0  0
  151.9667  145.1237  159.8020 C   0  0  0  0  0  0  0  0  0  0  0  0
  151.0626  145.5118  158.7921 C   0  0  0  0  0  0  0  0  0  0  0  0
  150.7616  144.6540  157.7920 N   0  3  0  0  0  0  0  0  0  0  0  0
  150.3072  138.6325  154.7050 N   0  0  0  0  0  0  0  0  0  0  0  0
  151.1580  137.5416  154.2119 C   0  0  0  0  0  0  0  0  0  0  0  0
  150.6730  136.2140  154.8243 C   0  0  0  0  0  0  0  0  0  0  0  0
  149.2302  135.9653  154.5383 N   0  3  0  0  0  0  0  0  0  0  0  0
  148.7433  134.6832  155.1240 C   0  0  2  0  0  0  0  0  0  0  0  0
  149.5011  133.4259  154.6307 C   0  0  0  0  0  0  0  0  0  0  0  0
  148.3644  132.4705  154.2205 C   0  0  2  0  0  0  0  0  0  0  0  0
  147.7832  132.9428  152.8772 C   0  0  0  0  0  0  0  0  0  0  0  0
  147.0375  134.2300  153.2712 C   0  0  0  0  0  0  0  0  0  0  0  0
  147.2741  134.3168  154.7952 C   0  0  1  0  0  0  0  0  0  0  0  0
  147.2493  132.8441  155.1900 C   0  0  0  0  0  0  0  0  0  0  0  0
  148.3782  137.1358  154.8958 C   0  0  0  0  0  0  0  0  0  0  0  0
  148.9189  138.4389  154.2809 C   0  0  0  0  0  0  0  0  0  0  0  0
  148.8223  140.3966  155.4152 H   0  0  0  0  0  0  0  0  0  0  0  0
  148.8458  142.0018  157.0523 H   0  0  0  0  0  0  0  0  0  0  0  0
  150.0560  141.0513  157.8815 H   0  0  0  0  0  0  0  0  0  0  0  0
  151.7734  142.0237  156.1512 H   0  0  0  0  0  0  0  0  0  0  0  0
  150.5317  143.1752  155.7277 H   0  0  0  0  0  0  0  0  0  0  0  0
  152.6418  141.9866  158.6293 H   0  0  0  0  0  0  0  0  0  0  0  0
  153.2426  143.5205  160.5088 H   0  0  0  0  0  0  0  0  0  0  0  0
  152.2144  145.8016  160.6059 H   0  0  0  0  0  0  0  0  0  0  0  0
  150.5750  146.4750  158.7543 H   0  0  0  0  0  0  0  0  0  0  0  0
  151.0859  137.4975  153.1241 H   0  0  0  0  0  0  0  0  0  0  0  0
  152.2177  137.6765  154.4281 H   0  0  0  0  0  0  0  0  0  0  0  0
  151.2867  135.4028  154.4348 H   0  0  0  0  0  0  0  0  0  0  0  0
  150.8271  136.2319  155.9046 H   0  0  0  0  0  0  0  0  0  0  0  0
  148.8429  134.7528  156.2091 H   0  0  0  0  0  0  0  0  0  0  0  0
  150.1679  133.6187  153.7896 H   0  0  0  0  0  0  0  0  0  0  0  0
  150.0998  133.0009  155.4375 H   0  0  0  0  0  0  0  0  0  0  0  0
  148.6501  131.4182  154.2266 H   0  0  0  0  0  0  0  0  0  0  0  0
  148.5548  133.1196  152.1268 H   0  0  0  0  0  0  0  0  0  0  0  0
  147.0886  132.2050  152.4733 H   0  0  0  0  0  0  0  0  0  0  0  0
  147.4038  135.1034  152.7317 H   0  0  0  0  0  0  0  0  0  0  0  0
  145.9731  134.1321  153.0532 H   0  0  0  0  0  0  0  0  0  0  0  0
  146.5379  134.9263  155.3201 H   0  0  0  0  0  0  0  0  0  0  0  0
  146.3004  132.3519  154.9690 H   0  0  0  0  0  0  0  0  0  0  0  0
  147.5076  132.6680  156.2359 H   0  0  0  0  0  0  0  0  0  0  0  0
  147.3577  136.9872  154.5445 H   0  0  0  0  0  0  0  0  0  0  0  0
  148.3300  137.2302  155.9820 H   0  0  0  0  0  0  0  0  0  0  0  0
  148.2751  139.2764  154.5536 H   0  0  0  0  0  0  0  0  0  0  0  0
  148.8806  138.3832  153.1918 H   0  0  0  0  0  0  0  0  0  0  0  0
  149.1542  135.8655  153.5362 H   0  0  0  0  0  0  0  0  0  0  0  0
  150.1052  144.9565  157.0722 H   0  0  0  0  0  0  0  0  0  0  0  0
  1  2  2  0  0  0  0
  2  3  1  0  0  0  0
  2 12  1  0  0  0  0
  3  4  1  0  0  0  0
  3 25  1  0  0  0  0
  4  5  1  0  0  0  0
  4 26  1  0  0  0  0
  4 27  1  0  0  0  0
  5  6  1  0  0  0  0
  5 28  1  0  0  0  0
  5 29  1  0  0  0  0
  6 11  1  0  0  0  0
  6  7  2  0  0  0  0
  7  8  1  0  0  0  0
  7 30  1  0  0  0  0
  8  9  2  0  0  0  0
  8 31  1  0  0  0  0
  9 10  1  0  0  0  0
  9 32  1  0  0  0  0
 10 11  2  0  0  0  0
 10 33  1  0  0  0  0
 11 54  1  0  0  0  0
 12 24  1  0  0  0  0
 12 13  1  0  0  0  0
 13 14  1  0  0  0  0
 13 34  1  0  0  0  0
 13 35  1  0  0  0  0
 14 15  1  0  0  0  0
 14 36  1  0  0  0  0
 14 37  1  0  0  0  0
 15 16  1  0  0  0  0
 15 23  1  0  0  0  0
 15 53  1  0  0  0  0
 16 21  1  0  0  0  0
 16 17  1  0  0  0  0
 16 38  1  0  0  0  0
 17 18  1  0  0  0  0
 17 39  1  0  0  0  0
 17 40  1  0  0  0  0
 18 22  1  0  0  0  0
 18 19  1  0  0  0  0
 18 41  1  0  0  0  0
 19 20  1  0  0  0  0
 19 42  1  0  0  0  0
 19 43  1  0  0  0  0
 20 21  1  0  0  0  0
 20 44  1  0  0  0  0
 20 45  1  0  0  0  0
 21 22  1  0  0  0  0
 21 46  1  0  0  0  0
 22 47  1  0  0  0  0
 22 48  1  0  0  0  0
 23 24  1  0  0  0  0
 23 49  1  0  0  0  0
 23 50  1  0  0  0  0
 24 51  1  0  0  0  0
 24 52  1  0  0  0  0
M  CHG  1  11   1
M  CHG  1  15   1
M  END
> <s_m_source_file>
AV-unprocessed.smi

> <i_m_source_file_index>
907

> <i_lp_mmshare_version>
43012

> <i_f3d_flags>
0

> <s_epik_input>
W0NIMl0xW0NIMl1bQ0BASF0oW0NIMl0yKVtDQEBIXShbQ0gyXVtDQEhdMTIpTihbQ0gyXVtDSDJdMylbQ0gyXVtDSDJdTjNDKD1PKVtOSF1bQ0gyXVtDSDJdYzRbY0hdW2NIXVtjSF1bY0hdbjQ=

> <s_epik_cmdline>
J2VwaWtfcHl0aG9uJywgJy1waCcsICc3LjAnLCAnLXRuJywgJzgnLCAnLW1hJywgJzIwMCcsICctbWV0YWxfYmluZGluZycsICctaW1hZScsICc8aW5maWxlLm1hZT4nLCAnLW9tYWUnLCAnPG91dGZpbGUubWFlPic=

> <r_epik_Ionization_Penalty>
1.63018

> <r_epik_Ionization_Penalty_Charging>
1.63015

> <r_epik_Ionization_Penalty_Neutral>
2.64641e-05

> <r_epik_State_Penalty>
1.72761

> <r_epik_Charging_Adjusted_Penalty>
3.35777

> <i_epik_Tot_Q>
2

> <i_epik_Tot_abs_Q>
2

> <r_epik_Metal_State_Penalty>
1.76501

> <b_epik_Metal_Only>
0

> <s_lp_Force_Field>
OPLS_2005

> <r_lp_Energy>
102.759

> <b_lp_Chiralities_Consistent>
1

> <s_lp_Variant>
AV-unprocessed.smi:907-5

> <Gold.Version>
5.8.1

> <Gold.Id.Protein>
6NUR|6NUR_protein|mol2

> <Gold.PLP.Fitness>
53.6686

> <Gold.PLP.PLP>
-43.8271

> <Gold.PLP.part.hbond>
-2.0000

> <Gold.PLP.part.metal>
0.0000

> <Gold.PLP.part.buried>
-0.6847

> <Gold.PLP.part.nonpolar>
-40.5099

> <Gold.PLP.part.repulsive>
0.1507

> <Gold.PLP.ligand.clash>
1.4078

> <Gold.PLP.ligand.torsion>
0.4414

> <Gold.PLP.Chemscore.Hbond>
4.0000

> <Gold.PLP.Chemscore.CHOScore>
0.0000

> <Gold.PLP.Chemscore.Metal>
0.0000

> <Gold.Chemscore.Hbonds>
donor molecule, donor type, donor heavy atom, donor atom, acceptor molecule, acceptor atom, score
      L1  H    11    54       P1  8028  1.70
      L1  H    15    53       P1  7948  2.00

> <Gold.PLP.Chemscore.Internal.Correction>
0.1322

> <Gold.Rescore>
     Score         DG    S(hbond)    S(metal)    S(lipo)     H(rot)  DE(clash)    DE(int)     intcor
     19.85     -20.39       1.24        0.00     123.93       1.46       0.12       0.43       ----

> <Gold.Chemscore.Fitness>
19.8452

> <Gold.Chemscore.DG>
-20.3935

> <Gold.Chemscore.ZeroCoef>
-5.4800

> <Gold.Chemscore.Hbond>
1.2409

> <Gold.Chemscore.Metal>
0.0000

> <Gold.Chemscore.Lipo>
123.9268

> <Gold.Chemscore.Internal_Hbond>
0.0000

> <Gold.Chemscore.DEClash>
0.1222

> <Gold.Chemscore.DEInternal>
0.4261

> <Gold.Chemscore.Rot>
1.4572

> <Gold.Chemscore.Internal.Correction>
   9.000000E+99

> <Gold.Chemscore.Hbonds>
donor molecule, donor type, donor heavy atom, donor atom, acceptor molecule, acceptor atom, score
      L1  H    11    54       P1  8028  0.15
      L1  H    15    53       P1  7948  0.78

> <Gold.Chemscore.Hbond.Weighted>
-4.1446

> <Gold.Chemscore.Metal.Weighted>
-0.0000

> <Gold.Chemscore.Lipo.Weighted>
-14.4994

> <Gold.Chemscore.Internal_Hbond.Weighted>
0.0000

> <Gold.Chemscore.DEClash.Weighted>
0.1222

> <Gold.Chemscore.DEInternal.Weighted>
0.4261

> <Gold.Chemscore.Rot.Weighted>
3.7305

> <Gold.Chemscore.Internal.Correction.Weighted>
   9.000000E+99

> <Gold.Protein.RotatedTorsions>
[ 6907 6896 6895 6894 ] final -111.14 input  -60.11 | X-H torsion
[ 7974 7965 7964 7962 ] final  108.28 input  175.53 | X-H torsion
[ 8008 7997 7996 7995 ] final  158.42 input   59.86 | X-H torsion
[ 10167 10162 10161 10158 ] final  136.96 input  -65.29 | X-H torsion
[ 10718 10713 10712 10709 ] final  -32.69 input   66.30 | X-H torsion
[ 10763 10752 10751 10750 ] final -172.51 input  -60.55 | X-H torsion
[ 11005 11000 10999 10996 ] final -157.48 input  -57.11 | X-H torsion

> <Gold.Protein.ActiveResidues>
 VAL166  LYS551  ARG553  GLY616  TRP617  ASP618  TYR619  PRO620  LYS621  CYS622 
 ASP623  PHE694  ASN695  SER759  ASP760  ASP761  ALA762  ILE779  LEU786  VAL792 
 PHE793  MET794  SER795  GLU796  ALA797  LYS798  CYS799  TRP800  GLU811  SER814 

> <Gold.Protein.RotatedAtoms>
  150.7671  133.9279  159.3417 H   0  0  0  0  0  0  0  0  0  0  0  0  # atno 6907 bound_to 6896
  151.7174  135.0899  160.0287 H   0  0  0  0  0  0  0  0  0  0  0  0  # atno 6908 bound_to 6896
  152.3671  133.6333  159.6095 H   0  0  0  0  0  0  0  0  0  0  0  0  # atno 6909 bound_to 6896
  145.2827  139.2627  143.3907 H   0  0  0  0  0  0  0  0  0  0  0  0  # atno 7974 bound_to 7965
  156.2304  140.1859  156.7258 H   0  0  0  0  0  0  0  0  0  0  0  0  # atno 8008 bound_to 7997
  154.6012  140.0636  156.9398 H   0  0  0  0  0  0  0  0  0  0  0  0  # atno 8009 bound_to 7997
  155.2171  140.3304  155.4323 H   0  0  0  0  0  0  0  0  0  0  0  0  # atno 8010 bound_to 7997
  139.5161  144.6436  151.5501 H   0  0  0  0  0  0  0  0  0  0  0  0  # atno 10167 bound_to 10162
  156.3718  130.4341  149.7539 H   0  0  0  0  0  0  0  0  0  0  0  0  # atno 10718 bound_to 10713
  154.6185  135.2872  155.0353 H   0  0  0  0  0  0  0  0  0  0  0  0  # atno 10763 bound_to 10752
  154.1557  135.6496  153.4978 H   0  0  0  0  0  0  0  0  0  0  0  0  # atno 10764 bound_to 10752
  153.0225  135.5366  154.6965 H   0  0  0  0  0  0  0  0  0  0  0  0  # atno 10765 bound_to 10752
  140.6641  134.4317  157.5233 H   0  0  0  0  0  0  0  0  0  0  0  0  # atno 11005 bound_to 11000
  146.3211  140.3299  142.8639 LP  0  0  0  0  0  0  0  0  0  0  0  0  # atno 17320 bound_to 7965
  144.9239  140.7899  143.5731 LP  0  0  0  0  0  0  0  0  0  0  0  0  # atno 17321 bound_to 7965
  140.6212  143.9254  150.6528 LP  0  0  0  0  0  0  0  0  0  0  0  0  # atno 17342 bound_to 10162
  140.2528  143.3580  152.1390 LP  0  0  0  0  0  0  0  0  0  0  0  0  # atno 17343 bound_to 10162
  156.4664  130.7976  151.2995 LP  0  0  0  0  0  0  0  0  0  0  0  0  # atno 17370 bound_to 10713
  157.7484  131.0050  150.3096 LP  0  0  0  0  0  0  0  0  0  0  0  0  # atno 17371 bound_to 10713
  139.9003  134.8572  156.1925 LP  0  0  0  0  0  0  0  0  0  0  0  0  # atno 17394 bound_to 11000
  141.0442  133.6922  156.1653 LP  0  0  0  0  0  0  0  0  0  0  0  0  # atno 17395 bound_to 11000

$$$$
