AV-unprocessed.smi:21|AV-procd|sdf|157|dock8
  -GOLD-   2262015393D 1   1.00000     0.00000
 Structure written by MMmdl.
 61 64  0  0  0  0  0  0  0  0  1 V2000
  151.9846  145.5581  160.4038 C   0  0  0  0  0  0  0  0  0  0  0  0
  151.7220  144.1656  160.4715 O   0  0  0  0  0  0  0  0  0  0  0  0
  152.2769  143.4313  159.3886 C   0  0  1  0  0  0  0  0  0  0  0  0
  151.9603  141.9292  159.4901 C   0  0  0  0  0  0  0  0  0  0  0  0
  151.3995  141.5715  158.1095 C   0  0  1  0  0  0  0  0  0  0  0  0
  150.5209  140.3028  158.1210 C   0  0  0  0  0  0  0  0  0  0  0  0
  151.2530  139.1043  158.5297 N   0  0  0  0  0  0  0  0  0  0  0  0
  152.6920  139.0697  158.2794 C   0  0  0  0  0  0  0  0  0  0  0  0
  150.5733  137.9377  158.3833 C   0  0  0  0  0  0  0  0  0  0  0  0
  150.1716  137.2476  159.4844 N   0  0  0  0  0  0  0  0  0  0  0  0
  149.5145  136.0917  159.3549 C   0  0  0  0  0  0  0  0  0  0  0  0
  149.1538  135.4580  158.2380 N   0  0  0  0  0  0  0  0  0  0  0  0
  149.5419  136.1487  157.1282 C   0  0  0  0  0  0  0  0  0  0  0  0
  150.2538  137.3818  157.1119 C   0  0  0  0  0  0  0  0  0  0  0  0
  150.4737  137.7800  155.7997 N   0  0  0  0  0  0  0  0  0  0  0  0
  149.9335  136.8342  155.0824 C   0  0  0  0  0  0  0  0  0  0  0  0
  149.3336  135.8221  155.7978 N   0  0  0  0  0  0  0  0  0  0  0  0
  148.6543  134.6525  155.2571 C   0  0  0  0  0  0  0  0  0  0  0  0
  149.5055  133.8168  154.2613 C   0  0  1  0  0  0  0  0  0  0  0  0
  150.7144  133.1411  154.9506 C   0  0  0  0  0  0  0  0  0  0  0  0
  150.3095  132.4589  156.1188 O   0  0  0  0  0  0  0  0  0  0  0  0
  148.6547  132.7861  153.4727 C   0  0  2  0  0  0  0  0  0  0  0  0
  147.5362  133.3829  152.6341 C   0  0  0  0  0  0  0  0  0  0  0  0
  146.6188  132.1863  152.4006 C   0  0  0  0  0  0  0  0  0  0  0  0
  146.7927  131.3345  153.5273 O   0  0  0  0  0  0  0  0  0  0  0  0
  147.8401  131.8312  154.3521 C   0  0  0  0  0  0  0  0  0  0  0  0
  150.7112  142.7797  157.6879 N   0  0  0  0  0  0  0  0  0  0  0  0
  150.3938  142.8127  156.2664 C   0  0  0  0  0  0  0  0  0  0  0  0
  151.6064  143.8561  158.0750 C   0  0  0  0  0  0  0  0  0  0  0  0
  153.3513  143.6086  159.3159 H   0  0  0  0  0  0  0  0  0  0  0  0
  152.2449  141.4145  157.4382 H   0  0  0  0  0  0  0  0  0  0  0  0
  151.5174  146.0580  161.2519 H   0  0  0  0  0  0  0  0  0  0  0  0
  151.5734  145.9924  159.4917 H   0  0  0  0  0  0  0  0  0  0  0  0
  153.0538  145.7690  160.4404 H   0  0  0  0  0  0  0  0  0  0  0  0
  152.8328  141.3314  159.7550 H   0  0  0  0  0  0  0  0  0  0  0  0
  151.1976  141.7654  160.2513 H   0  0  0  0  0  0  0  0  0  0  0  0
  149.6485  140.4718  158.7528 H   0  0  0  0  0  0  0  0  0  0  0  0
  150.1292  140.1157  157.1211 H   0  0  0  0  0  0  0  0  0  0  0  0
  153.1448  138.1811  158.7209 H   0  0  0  0  0  0  0  0  0  0  0  0
  153.1853  139.9361  158.7183 H   0  0  0  0  0  0  0  0  0  0  0  0
  152.8980  139.0678  157.2085 H   0  0  0  0  0  0  0  0  0  0  0  0
  149.2391  135.6041  160.2784 H   0  0  0  0  0  0  0  0  0  0  0  0
  149.9556  136.8571  154.0036 H   0  0  0  0  0  0  0  0  0  0  0  0
  148.3277  134.0337  156.0928 H   0  0  0  0  0  0  0  0  0  0  0  0
  147.7365  134.9872  154.7723 H   0  0  0  0  0  0  0  0  0  0  0  0
  149.9088  134.5183  153.5292 H   0  0  0  0  0  0  0  0  0  0  0  0
  151.2221  132.4497  154.2781 H   0  0  0  0  0  0  0  0  0  0  0  0
  151.4539  133.8793  155.2587 H   0  0  0  0  0  0  0  0  0  0  0  0
  150.7681  131.6334  156.1594 H   0  0  0  0  0  0  0  0  0  0  0  0
  149.2960  132.2011  152.8121 H   0  0  0  0  0  0  0  0  0  0  0  0
  147.0068  134.1529  153.1976 H   0  0  0  0  0  0  0  0  0  0  0  0
  147.8828  133.8233  151.6988 H   0  0  0  0  0  0  0  0  0  0  0  0
  145.5760  132.4819  152.2825 H   0  0  0  0  0  0  0  0  0  0  0  0
  146.9208  131.6416  151.5053 H   0  0  0  0  0  0  0  0  0  0  0  0
  148.4324  131.0129  154.7599 H   0  0  0  0  0  0  0  0  0  0  0  0
  147.3908  132.3672  155.1893 H   0  0  0  0  0  0  0  0  0  0  0  0
  149.9319  143.7636  155.9991 H   0  0  0  0  0  0  0  0  0  0  0  0
  149.6920  142.0219  156.0030 H   0  0  0  0  0  0  0  0  0  0  0  0
  151.2906  142.6886  155.6578 H   0  0  0  0  0  0  0  0  0  0  0  0
  151.0740  144.8038  158.1621 H   0  0  0  0  0  0  0  0  0  0  0  0
  152.3794  143.9866  157.3159 H   0  0  0  0  0  0  0  0  0  0  0  0
  1  2  1  0  0  0  0
  1 32  1  0  0  0  0
  1 33  1  0  0  0  0
  1 34  1  0  0  0  0
  2  3  1  0  0  0  0
  3 30  1  0  0  0  0
  3 29  1  0  0  0  0
  3  4  1  0  0  0  0
  4  5  1  0  0  0  0
  4 35  1  0  0  0  0
  4 36  1  0  0  0  0
  5 31  1  0  0  0  0
  5  6  1  0  0  0  0
  5 27  1  0  0  0  0
  6  7  1  0  0  0  0
  6 37  1  0  0  0  0
  6 38  1  0  0  0  0
  7  8  1  0  0  0  0
  7  9  1  0  0  0  0
  8 39  1  0  0  0  0
  8 40  1  0  0  0  0
  8 41  1  0  0  0  0
  9 14  1  0  0  0  0
  9 10  2  0  0  0  0
 10 11  1  0  0  0  0
 11 12  2  0  0  0  0
 11 42  1  0  0  0  0
 12 13  1  0  0  0  0
 13 17  1  0  0  0  0
 13 14  2  0  0  0  0
 14 15  1  0  0  0  0
 15 16  2  0  0  0  0
 16 17  1  0  0  0  0
 16 43  1  0  0  0  0
 17 18  1  0  0  0  0
 18 19  1  0  0  0  0
 18 44  1  0  0  0  0
 18 45  1  0  0  0  0
 19 20  1  0  0  0  0
 19 22  1  0  0  0  0
 19 46  1  0  0  0  0
 20 21  1  0  0  0  0
 20 47  1  0  0  0  0
 20 48  1  0  0  0  0
 21 49  1  0  0  0  0
 22 26  1  0  0  0  0
 22 23  1  0  0  0  0
 22 50  1  0  0  0  0
 23 24  1  0  0  0  0
 23 51  1  0  0  0  0
 23 52  1  0  0  0  0
 24 25  1  0  0  0  0
 24 53  1  0  0  0  0
 24 54  1  0  0  0  0
 25 26  1  0  0  0  0
 26 55  1  0  0  0  0
 26 56  1  0  0  0  0
 27 28  1  0  0  0  0
 27 29  1  0  0  0  0
 28 57  1  0  0  0  0
 28 58  1  0  0  0  0
 28 59  1  0  0  0  0
 29 60  1  0  0  0  0
 29 61  1  0  0  0  0
M  END
> <s_m_source_file>
AV-unprocessed.smi

> <i_m_source_file_index>
21

> <i_lp_mmshare_version>
43012

> <i_f3d_flags>
0

> <s_epik_input>
W0NIM11PW0NASF0xW0NIMl1bQ0BIXShOKFtDSDNdKVtDSDJdMSlbQ0gyXU4oW0NIM10pYyhuW2NIXW4yKWMoYzIzKW5bY0hdbjNbQ0gyXVtDQEhdKFtDSDJdW09IXSlbQ0BASF00W0NIMl1bQ0gyXU9bQ0gyXTQ=

> <s_epik_cmdline>
J2VwaWtfcHl0aG9uJywgJy1waCcsICc3LjAnLCAnLXRuJywgJzgnLCAnLW1hJywgJzIwMCcsICctbWV0YWxfYmluZGluZycsICctaW1hZScsICc8aW5maWxlLm1hZT4nLCAnLW9tYWUnLCAnPG91dGZpbGUubWFlPic=

> <r_lp_tautomer_probability>
1

> <r_epik_Ionization_Penalty>
2.17574

> <r_epik_Ionization_Penalty_Charging>
0

> <r_epik_Ionization_Penalty_Neutral>
2.17574

> <r_epik_State_Penalty>
2.31336

> <r_epik_Charging_Adjusted_Penalty>
2.31336

> <i_epik_Tot_Q>
0

> <i_epik_Tot_abs_Q>
0

> <r_epik_Metal_State_Penalty>
2.31025

> <b_epik_Metal_Only>
0

> <s_lp_Force_Field>
OPLS_2005

> <r_lp_Energy>
71.0879

> <b_lp_Chiralities_Consistent>
1

> <s_lp_Variant>
AV-unprocessed.smi:21-37

> <Gold.Version>
5.8.1

> <Gold.Id.Protein>
6NUR|6NUR_protein|mol2

> <Gold.PLP.Fitness>
41.9014

> <Gold.PLP.PLP>
-39.1610

> <Gold.PLP.part.hbond>
-1.0000

> <Gold.PLP.part.metal>
0.0000

> <Gold.PLP.part.buried>
-3.9266

> <Gold.PLP.part.nonpolar>
-34.5364

> <Gold.PLP.part.repulsive>
0.3879

> <Gold.PLP.ligand.clash>
0.0000

> <Gold.PLP.ligand.torsion>
0.7462

> <Gold.PLP.Chemscore.Hbond>
0.0000

> <Gold.PLP.Chemscore.CHOScore>
1.0261

> <Gold.PLP.Chemscore.Metal>
0.0000

> <Gold.Chemscore.Hbonds>
donor molecule, donor type, donor heavy atom, donor atom, acceptor molecule, acceptor atom, score
      L1  C    16    43       P1  7948  1.00

> <Gold.PLP.Chemscore.Internal.Correction>
1.1545

> <Gold.Rescore>
     Score         DG    S(hbond)    S(metal)    S(lipo)     H(rot)  DE(clash)    DE(int)     intcor
      7.49      -9.77       0.00        0.00     107.99       3.26       1.43       0.86       ----

> <Gold.Chemscore.Fitness>
7.4887

> <Gold.Chemscore.DG>
-9.7748

> <Gold.Chemscore.ZeroCoef>
-5.4800

> <Gold.Chemscore.Hbond>
0.0000

> <Gold.Chemscore.Metal>
0.0000

> <Gold.Chemscore.Lipo>
107.9855

> <Gold.Chemscore.Internal_Hbond>
0.0000

> <Gold.Chemscore.DEClash>
1.4309

> <Gold.Chemscore.DEInternal>
0.8552

> <Gold.Chemscore.Rot>
3.2576

> <Gold.Chemscore.Internal.Correction>
   9.000000E+99

> <Gold.Chemscore.Hbond.Weighted>
-0.0000

> <Gold.Chemscore.Metal.Weighted>
-0.0000

> <Gold.Chemscore.Lipo.Weighted>
-12.6343

> <Gold.Chemscore.Internal_Hbond.Weighted>
0.0000

> <Gold.Chemscore.DEClash.Weighted>
1.4309

> <Gold.Chemscore.DEInternal.Weighted>
0.8552

> <Gold.Chemscore.Rot.Weighted>
8.3395

> <Gold.Chemscore.Internal.Correction.Weighted>
   9.000000E+99

> <Gold.Protein.RotatedTorsions>
[ 6907 6896 6895 6894 ] final -136.87 input  -60.11 | X-H torsion
[ 7974 7965 7964 7962 ] final  -86.66 input  175.53 | X-H torsion
[ 8008 7997 7996 7995 ] final  142.80 input   59.86 | X-H torsion
[ 10167 10162 10161 10158 ] final  143.90 input  -65.29 | X-H torsion
[ 10718 10713 10712 10709 ] final    1.55 input   66.30 | X-H torsion
[ 10763 10752 10751 10750 ] final  -68.10 input  -60.55 | X-H torsion
[ 11005 11000 10999 10996 ] final  148.53 input  -57.11 | X-H torsion

> <Gold.Protein.ActiveResidues>
 VAL166  LYS551  ARG553  GLY616  TRP617  ASP618  TYR619  PRO620  LYS621  CYS622 
 ASP623  PHE694  ASN695  SER759  ASP760  ASP761  ALA762  ILE779  LEU786  VAL792 
 PHE793  MET794  SER795  GLU796  ALA797  LYS798  CYS799  TRP800  GLU811  SER814 

> <Gold.Protein.RotatedAtoms>
  151.0154  133.5926  159.2677 H   0  0  0  0  0  0  0  0  0  0  0  0  # atno 6907 bound_to 6896
  151.3062  135.0781  159.9266 H   0  0  0  0  0  0  0  0  0  0  0  0  # atno 6908 bound_to 6896
  152.5310  133.9827  159.7868 H   0  0  0  0  0  0  0  0  0  0  0  0  # atno 6909 bound_to 6896
  145.4770  140.9558  143.1885 H   0  0  0  0  0  0  0  0  0  0  0  0  # atno 7974 bound_to 7965
  156.2942  140.2279  156.4787 H   0  0  0  0  0  0  0  0  0  0  0  0  # atno 8008 bound_to 7997
  154.7872  140.0456  157.1194 H   0  0  0  0  0  0  0  0  0  0  0  0  # atno 8009 bound_to 7997
  154.9688  140.3064  155.5000 H   0  0  0  0  0  0  0  0  0  0  0  0  # atno 8010 bound_to 7997
  139.4959  144.6009  151.6483 H   0  0  0  0  0  0  0  0  0  0  0  0  # atno 10167 bound_to 10162
  156.8499  130.5550  149.5670 H   0  0  0  0  0  0  0  0  0  0  0  0  # atno 10718 bound_to 10713
  154.3841  135.6067  153.5807 H   0  0  0  0  0  0  0  0  0  0  0  0  # atno 10763 bound_to 10752
  152.9788  135.5868  154.4376 H   0  0  0  0  0  0  0  0  0  0  0  0  # atno 10764 bound_to 10752
  154.4149  135.2845  155.1990 H   0  0  0  0  0  0  0  0  0  0  0  0  # atno 10765 bound_to 10752
  140.0967  134.9008  157.1734 H   0  0  0  0  0  0  0  0  0  0  0  0  # atno 11005 bound_to 11000
  144.7911  139.6326  143.7113 LP  0  0  0  0  0  0  0  0  0  0  0  0  # atno 17320 bound_to 7965
  146.2363  139.5913  142.9521 LP  0  0  0  0  0  0  0  0  0  0  0  0  # atno 17321 bound_to 7965
  140.5658  144.0192  150.6192 LP  0  0  0  0  0  0  0  0  0  0  0  0  # atno 17342 bound_to 10162
  140.3293  143.3087  152.0704 LP  0  0  0  0  0  0  0  0  0  0  0  0  # atno 17343 bound_to 10162
  156.0834  130.5839  150.9604 LP  0  0  0  0  0  0  0  0  0  0  0  0  # atno 17370 bound_to 10713
  157.6309  131.0921  150.8443 LP  0  0  0  0  0  0  0  0  0  0  0  0  # atno 17371 bound_to 10713
  140.3276  134.2845  155.7234 LP  0  0  0  0  0  0  0  0  0  0  0  0  # atno 17394 bound_to 11000
  141.2094  133.7750  156.9999 LP  0  0  0  0  0  0  0  0  0  0  0  0  # atno 17395 bound_to 11000

$$$$
