AV-unprocessed.smi:1805|AV-procd|sdf|7298|dock5
  -GOLD-   22720 8553D 1   1.00000     0.00000
 Structure written by MMmdl.
 29 30  0  0  0  0  0  0  0  0  1 V2000
  151.0355  140.7137  155.5594 O   0  0  0  0  0  0  0  0  0  0  0  0
  150.1337  141.5282  155.7575 C   0  0  0  0  0  0  0  0  0  0  0  0
  150.2595  142.5971  156.5567 N   0  0  0  0  0  0  0  0  0  0  0  0
  151.4589  142.9574  157.3064 C   0  0  0  0  0  0  0  0  0  0  0  0
  151.1260  143.3879  158.7450 C   0  0  1  0  0  0  0  0  0  0  0  0
  152.2529  143.1914  159.7601 C   0  0  0  0  0  0  0  0  0  0  0  0
  151.8904  144.2108  160.8151 C   0  0  0  0  0  0  0  0  0  0  0  0
  151.3831  145.3701  159.9628 C   0  0  0  0  0  0  0  0  0  0  0  0
  150.8352  144.7825  158.7850 O   0  0  0  0  0  0  0  0  0  0  0  0
  148.9061  141.4668  155.2166 N   0  0  0  0  0  0  0  0  0  0  0  0
  148.4084  140.4879  154.3195 C   0  0  0  0  0  0  0  0  0  0  0  0
  147.3048  140.6785  153.4445 C   0  0  0  0  0  0  0  0  0  0  0  0
  147.0677  139.5933  152.7214 N   0  0  0  0  0  0  0  0  0  0  0  0
  148.0110  138.7126  153.1251 N   0  0  0  0  0  0  0  0  0  0  0  0
  148.8495  139.2136  154.0962 C   0  0  0  0  0  0  0  0  0  0  0  0
  148.0698  137.7840  152.7319 H   0  0  0  0  0  0  0  0  0  0  0  0
  149.4632  143.2089  156.6589 H   0  0  0  0  0  0  0  0  0  0  0  0
  152.1830  142.1409  157.3092 H   0  0  0  0  0  0  0  0  0  0  0  0
  151.9378  143.7853  156.7834 H   0  0  0  0  0  0  0  0  0  0  0  0
  150.2354  142.8622  159.0936 H   0  0  0  0  0  0  0  0  0  0  0  0
  152.3068  142.1737  160.1479 H   0  0  0  0  0  0  0  0  0  0  0  0
  153.2185  143.4416  159.3181 H   0  0  0  0  0  0  0  0  0  0  0  0
  151.0874  143.8273  161.4460 H   0  0  0  0  0  0  0  0  0  0  0  0
  152.7289  144.4857  161.4553 H   0  0  0  0  0  0  0  0  0  0  0  0
  150.6445  145.9779  160.4858 H   0  0  0  0  0  0  0  0  0  0  0  0
  152.2103  146.0186  159.6714 H   0  0  0  0  0  0  0  0  0  0  0  0
  148.2586  142.1977  155.4726 H   0  0  0  0  0  0  0  0  0  0  0  0
  146.6802  141.5499  153.3127 H   0  0  0  0  0  0  0  0  0  0  0  0
  149.6551  138.6328  154.5203 H   0  0  0  0  0  0  0  0  0  0  0  0
  1  2  2  0  0  0  0
  2  3  1  0  0  0  0
  2 10  1  0  0  0  0
  3  4  1  0  0  0  0
  3 17  1  0  0  0  0
  4  5  1  0  0  0  0
  4 18  1  0  0  0  0
  4 19  1  0  0  0  0
  5  9  1  0  0  0  0
  5  6  1  0  0  0  0
  5 20  1  0  0  0  0
  6  7  1  0  0  0  0
  6 21  1  0  0  0  0
  6 22  1  0  0  0  0
  7  8  1  0  0  0  0
  7 23  1  0  0  0  0
  7 24  1  0  0  0  0
  8  9  1  0  0  0  0
  8 25  1  0  0  0  0
  8 26  1  0  0  0  0
 10 11  1  0  0  0  0
 10 27  1  0  0  0  0
 11 15  2  0  0  0  0
 11 12  1  0  0  0  0
 12 13  2  0  0  0  0
 12 28  1  0  0  0  0
 13 14  1  0  0  0  0
 14 16  1  0  0  0  0
 14 15  1  0  0  0  0
 15 29  1  0  0  0  0
M  END
> <s_m_source_file>
AV-unprocessed.smi

> <i_m_source_file_index>
1805

> <i_lp_mmshare_version>
43012

> <i_f3d_flags>
0

> <s_epik_input>
W2NIXTFbbkhdbltjSF1jMVtOSF1DKD1PKVtOSF1bQ0gyXVtDQEBIXTJbQ0gyXVtDSDJdW0NIMl1PMg==

> <s_epik_cmdline>
J2VwaWtfcHl0aG9uJywgJy1waCcsICc3LjAnLCAnLXRuJywgJzgnLCAnLW1hJywgJzIwMCcsICctbWV0YWxfYmluZGluZycsICctaW1hZScsICc8aW5maWxlLm1hZT4nLCAnLW9tYWUnLCAnPG91dGZpbGUubWFlPic=

> <r_lp_tautomer_probability>
1

> <r_epik_Ionization_Penalty>
4.81496e-05

> <r_epik_Ionization_Penalty_Charging>
0

> <r_epik_Ionization_Penalty_Neutral>
4.81496e-05

> <r_epik_State_Penalty>
-0

> <r_epik_Charging_Adjusted_Penalty>
0

> <i_epik_Tot_Q>
0

> <i_epik_Tot_abs_Q>
0

> <r_epik_Metal_State_Penalty>
-0

> <b_epik_Metal_Only>
0

> <s_lp_Force_Field>
OPLS_2005

> <r_lp_Energy>
19.2876

> <b_lp_Chiralities_Consistent>
1

> <s_lp_Variant>
AV-unprocessed.smi:1805-2

> <Gold.Version>
5.8.1

> <Gold.Id.Protein>
6NUR|6NUR_protein|mol2

> <Gold.PLP.Fitness>
37.7697

> <Gold.PLP.PLP>
-31.8709

> <Gold.PLP.part.hbond>
-4.3964

> <Gold.PLP.part.metal>
0.0000

> <Gold.PLP.part.buried>
-5.2688

> <Gold.PLP.part.nonpolar>
-23.7241

> <Gold.PLP.part.repulsive>
1.2772

> <Gold.PLP.ligand.clash>
0.0000

> <Gold.PLP.ligand.torsion>
0.5168

> <Gold.PLP.Chemscore.Hbond>
2.3104

> <Gold.PLP.Chemscore.CHOScore>
0.0000

> <Gold.PLP.Chemscore.Metal>
0.0000

> <Gold.Chemscore.Hbonds>
donor molecule, donor type, donor heavy atom, donor atom, acceptor molecule, acceptor atom, score
      L1  H     3    17       P1  8028  0.64
      L1  H    14    16       P1  7948  1.00
      P1  H  7989  7998       L1     1  0.58

> <Gold.PLP.Chemscore.Internal.Correction>
0.0011

> <Gold.Rescore>
     Score         DG    S(hbond)    S(metal)    S(lipo)     H(rot)  DE(clash)    DE(int)     intcor
     17.01     -18.36       2.21        0.00      75.98       1.33       0.19       1.17       ----

> <Gold.Chemscore.Fitness>
17.0102

> <Gold.Chemscore.DG>
-18.3613

> <Gold.Chemscore.ZeroCoef>
-5.4800

> <Gold.Chemscore.Hbond>
2.2148

> <Gold.Chemscore.Metal>
0.0000

> <Gold.Chemscore.Lipo>
75.9832

> <Gold.Chemscore.Internal_Hbond>
0.0000

> <Gold.Chemscore.DEClash>
0.1856

> <Gold.Chemscore.DEInternal>
1.1655

> <Gold.Chemscore.Rot>
1.3306

> <Gold.Chemscore.Internal.Correction>
   9.000000E+99

> <Gold.Chemscore.Hbonds>
donor molecule, donor type, donor heavy atom, donor atom, acceptor molecule, acceptor atom, score
      L1  H     3    17       P1  8028  0.64
      L1  H    14    16       P1  7948  0.96
      P1  H  7989  7998       L1     1  0.38

> <Gold.Chemscore.Hbond.Weighted>
-7.3976

> <Gold.Chemscore.Metal.Weighted>
-0.0000

> <Gold.Chemscore.Lipo.Weighted>
-8.8900

> <Gold.Chemscore.Internal_Hbond.Weighted>
0.0000

> <Gold.Chemscore.DEClash.Weighted>
0.1856

> <Gold.Chemscore.DEInternal.Weighted>
1.1655

> <Gold.Chemscore.Rot.Weighted>
3.4063

> <Gold.Chemscore.Internal.Correction.Weighted>
   9.000000E+99

> <Gold.Protein.RotatedTorsions>
[ 6907 6896 6895 6894 ] final  -52.60 input  -60.11 | X-H torsion
[ 7974 7965 7964 7962 ] final  172.21 input  175.53 | X-H torsion
[ 8008 7997 7996 7995 ] final  -79.46 input   59.86 | X-H torsion
[ 10167 10162 10161 10158 ] final  137.76 input  -65.29 | X-H torsion
[ 10718 10713 10712 10709 ] final   -4.18 input   66.30 | X-H torsion
[ 10763 10752 10751 10750 ] final   22.71 input  -60.55 | X-H torsion
[ 11005 11000 10999 10996 ] final -158.81 input  -57.11 | X-H torsion

> <Gold.Protein.ActiveResidues>
 VAL166  LYS551  ARG553  GLY616  TRP617  ASP618  TYR619  PRO620  LYS621  CYS622 
 ASP623  PHE694  ASN695  SER759  ASP760  ASP761  ALA762  ILE779  LEU786  VAL792 
 PHE793  MET794  SER795  GLU796  ALA797  LYS798  CYS799  TRP800  GLU811  SER814 

> <Gold.Protein.RotatedAtoms>
  150.8503  134.7826  159.7003 H   0  0  0  0  0  0  0  0  0  0  0  0  # atno 6907 bound_to 6896
  152.4569  134.5267  159.9808 H   0  0  0  0  0  0  0  0  0  0  0  0  # atno 6908 bound_to 6896
  151.5390  133.3398  159.2967 H   0  0  0  0  0  0  0  0  0  0  0  0  # atno 6909 bound_to 6896
  144.7274  139.9465  143.6430 H   0  0  0  0  0  0  0  0  0  0  0  0  # atno 7974 bound_to 7965
  154.5787  140.0678  156.9072 H   0  0  0  0  0  0  0  0  0  0  0  0  # atno 8008 bound_to 7997
  155.2502  140.3351  155.4265 H   0  0  0  0  0  0  0  0  0  0  0  0  # atno 8009 bound_to 7997
  156.2173  140.1784  156.7544 H   0  0  0  0  0  0  0  0  0  0  0  0  # atno 8010 bound_to 7997
  139.5133  144.6391  151.5616 H   0  0  0  0  0  0  0  0  0  0  0  0  # atno 10167 bound_to 10162
  156.7651  130.5282  149.5777 H   0  0  0  0  0  0  0  0  0  0  0  0  # atno 10718 bound_to 10713
  153.0894  135.6642  153.9884 H   0  0  0  0  0  0  0  0  0  0  0  0  # atno 10763 bound_to 10752
  153.9485  135.2986  155.3441 H   0  0  0  0  0  0  0  0  0  0  0  0  # atno 10764 bound_to 10752
  154.7307  135.5124  153.9031 H   0  0  0  0  0  0  0  0  0  0  0  0  # atno 10765 bound_to 10752
  140.6496  134.4465  157.5235 H   0  0  0  0  0  0  0  0  0  0  0  0  # atno 11005 bound_to 11000
  146.0745  139.3733  143.0503 LP  0  0  0  0  0  0  0  0  0  0  0  0  # atno 17320 bound_to 7965
  145.7924  140.9808  143.1042 LP  0  0  0  0  0  0  0  0  0  0  0  0  # atno 17321 bound_to 7965
  140.6151  143.9363  150.6483 LP  0  0  0  0  0  0  0  0  0  0  0  0  # atno 17342 bound_to 10162
  140.2618  143.3518  152.1316 LP  0  0  0  0  0  0  0  0  0  0  0  0  # atno 17343 bound_to 10162
  156.1314  130.6180  151.0338 LP  0  0  0  0  0  0  0  0  0  0  0  0  # atno 17370 bound_to 10713
  157.6717  131.0860  150.7596 LP  0  0  0  0  0  0  0  0  0  0  0  0  # atno 17371 bound_to 10713
  139.9051  134.8468  156.1740 LP  0  0  0  0  0  0  0  0  0  0  0  0  # atno 17394 bound_to 11000
  141.0547  133.6871  156.1837 LP  0  0  0  0  0  0  0  0  0  0  0  0  # atno 17395 bound_to 11000

$$$$
