AV-unprocessed.smi:2095|AV-procd|sdf|8561|dock4
  -GOLD-   2272011283D 1   1.00000     0.00000
 Structure written by MMmdl.
 42 43  0  0  0  0  0  0  0  0  2 V2000
  146.0042  132.1144  151.9183 C   0  0  0  0  0  0  0  0  0  0  0  0
  146.1805  133.6313  151.7618 C   0  0  1  0  0  0  0  0  0  0  0  0
  145.1606  134.2181  150.7704 C   0  0  0  0  0  0  0  0  0  0  0  0
  145.3416  135.7375  150.6538 C   0  0  0  0  0  0  0  0  0  0  0  0
  145.2584  136.4061  152.0345 C   0  0  0  0  0  0  0  0  0  0  0  0
  146.2665  135.8226  152.9610 N   0  3  1  0  0  0  0  0  0  0  0  0
  146.4388  136.5433  154.2559 C   0  0  1  0  0  0  0  0  0  0  0  0
  145.1442  136.4794  155.0884 C   0  0  0  0  0  0  0  0  0  0  0  0
  147.6838  136.0779  155.0533 C   0  0  0  0  0  0  0  0  0  0  0  0
  148.9199  136.6510  154.5325 N   0  0  0  0  0  0  0  0  0  0  0  0
  149.5517  137.7153  155.0524 C   0  0  0  0  0  0  0  0  0  0  0  0
  149.1450  138.3257  156.0406 O   0  0  0  0  0  0  0  0  0  0  0  0
  150.8454  138.1514  154.3629 C   0  0  0  0  0  0  0  0  0  0  0  0
  151.9919  137.9773  155.2349 N   0  0  0  0  0  0  0  0  0  0  0  0
  152.3167  138.5686  156.3865 C   0  0  0  0  0  0  0  0  0  0  0  0
  153.4720  138.1222  156.8556 N   0  0  0  0  0  0  0  0  0  0  0  0
  153.8600  137.1923  155.9054 N   0  0  0  0  0  0  0  0  0  0  0  0
  152.9857  137.1016  154.9414 N   0  0  0  0  0  0  0  0  0  0  0  0
  146.0843  134.3547  153.1204 C   0  0  0  0  0  0  0  0  0  0  0  0
  145.0218  131.8683  152.3229 H   0  0  0  0  0  0  0  0  0  0  0  0
  146.7553  131.6990  152.5909 H   0  0  0  0  0  0  0  0  0  0  0  0
  146.1057  131.6065  150.9586 H   0  0  0  0  0  0  0  0  0  0  0  0
  147.1795  133.8044  151.3588 H   0  0  0  0  0  0  0  0  0  0  0  0
  145.2758  133.7553  149.7896 H   0  0  0  0  0  0  0  0  0  0  0  0
  144.1458  133.9944  151.1032 H   0  0  0  0  0  0  0  0  0  0  0  0
  146.3064  135.9594  150.1958 H   0  0  0  0  0  0  0  0  0  0  0  0
  144.5811  136.1529  149.9918 H   0  0  0  0  0  0  0  0  0  0  0  0
  145.4192  137.4776  151.9207 H   0  0  0  0  0  0  0  0  0  0  0  0
  144.2548  136.2749  152.4408 H   0  0  0  0  0  0  0  0  0  0  0  0
  146.5745  137.5971  154.0077 H   0  0  0  0  0  0  0  0  0  0  0  0
  145.1938  137.1461  155.9497 H   0  0  0  0  0  0  0  0  0  0  0  0
  144.9501  135.4757  155.4661 H   0  0  0  0  0  0  0  0  0  0  0  0
  144.2816  136.7861  154.4960 H   0  0  0  0  0  0  0  0  0  0  0  0
  147.6063  136.3843  156.0966 H   0  0  0  0  0  0  0  0  0  0  0  0
  147.7650  134.9902  155.0572 H   0  0  0  0  0  0  0  0  0  0  0  0
  149.3218  136.2111  153.7166 H   0  0  0  0  0  0  0  0  0  0  0  0
  151.0033  137.5648  153.4569 H   0  0  0  0  0  0  0  0  0  0  0  0
  150.7726  139.1975  154.0616 H   0  0  0  0  0  0  0  0  0  0  0  0
  151.7150  139.3214  156.8742 H   0  0  0  0  0  0  0  0  0  0  0  0
  145.1210  134.1493  153.5894 H   0  0  0  0  0  0  0  0  0  0  0  0
  146.8512  133.9602  153.7886 H   0  0  0  0  0  0  0  0  0  0  0  0
  147.1555  135.9218  152.4921 H   0  0  0  0  0  0  0  0  0  0  0  0
  1  2  1  0  0  0  0
  1 20  1  0  0  0  0
  1 21  1  0  0  0  0
  1 22  1  0  0  0  0
  2 19  1  0  0  0  0
  2  3  1  0  0  0  0
  2 23  1  0  0  0  0
  3  4  1  0  0  0  0
  3 24  1  0  0  0  0
  3 25  1  0  0  0  0
  4  5  1  0  0  0  0
  4 26  1  0  0  0  0
  4 27  1  0  0  0  0
  5  6  1  0  0  0  0
  5 28  1  0  0  0  0
  5 29  1  0  0  0  0
  6  7  1  0  0  0  0
  6 19  1  0  0  0  0
  6 42  1  0  0  0  0
  7  8  1  0  0  0  0
  7  9  1  0  0  0  0
  7 30  1  0  0  0  0
  8 31  1  0  0  0  0
  8 32  1  0  0  0  0
  8 33  1  0  0  0  0
  9 10  1  0  0  0  0
  9 34  1  0  0  0  0
  9 35  1  0  0  0  0
 10 11  1  0  0  0  0
 10 36  1  0  0  0  0
 11 12  2  0  0  0  0
 11 13  1  0  0  0  0
 13 14  1  0  0  0  0
 13 37  1  0  0  0  0
 13 38  1  0  0  0  0
 14 18  1  0  0  0  0
 14 15  1  0  0  0  0
 15 16  2  0  0  0  0
 15 39  1  0  0  0  0
 16 17  1  0  0  0  0
 17 18  2  0  0  0  0
 19 40  1  0  0  0  0
 19 41  1  0  0  0  0
M  CHG  1   6   1
M  END
> <s_m_source_file>
AV-unprocessed.smi

> <i_m_source_file_index>
2095

> <i_lp_mmshare_version>
43012

> <i_f3d_flags>
0

> <s_epik_input>
W0NIM11bQ0BASF0xW0NIMl1bQ0gyXVtDSDJdTihbQ0gyXTEpW0NASF0oW0NIM10pW0NIMl1bTkhdQyg9TylbQ0gyXW4yW2NIXW5ubjI=

> <s_epik_cmdline>
J2VwaWtfcHl0aG9uJywgJy1waCcsICc3LjAnLCAnLXRuJywgJzgnLCAnLW1hJywgJzIwMCcsICctbWV0YWxfYmluZGluZycsICctaW1hZScsICc8aW5maWxlLm1hZT4nLCAnLW9tYWUnLCAnPG91dGZpbGUubWFlPic=

> <r_lp_tautomer_probability>
1

> <r_epik_Ionization_Penalty>
0.00268321

> <r_epik_Ionization_Penalty_Charging>
0.00267875

> <r_epik_Ionization_Penalty_Neutral>
4.46125e-06

> <r_epik_State_Penalty>
0.00186642

> <r_epik_Charging_Adjusted_Penalty>
0.00454517

> <i_epik_Tot_Q>
1

> <i_epik_Tot_abs_Q>
1

> <r_epik_Metal_State_Penalty>
-0

> <b_epik_Metal_Only>
0

> <s_lp_Force_Field>
OPLS_2005

> <r_lp_Energy>
22.3019

> <b_lp_Chiralities_Consistent>
1

> <s_lp_Variant>
AV-unprocessed.smi:2095-8

> <Gold.Version>
5.8.1

> <Gold.Id.Protein>
6NUR|6NUR_protein|mol2

> <Gold.PLP.Fitness>
41.8061

> <Gold.PLP.PLP>
-30.2747

> <Gold.PLP.part.hbond>
-5.7178

> <Gold.PLP.part.metal>
0.0000

> <Gold.PLP.part.buried>
-5.9133

> <Gold.PLP.part.nonpolar>
-20.4834

> <Gold.PLP.part.repulsive>
0.0689

> <Gold.PLP.ligand.clash>
0.0000

> <Gold.PLP.ligand.torsion>
0.4613

> <Gold.PLP.Chemscore.Hbond>
4.1164

> <Gold.PLP.Chemscore.CHOScore>
0.0000

> <Gold.PLP.Chemscore.Metal>
0.0000

> <Gold.Chemscore.Hbonds>
donor molecule, donor type, donor heavy atom, donor atom, acceptor molecule, acceptor atom, score
      L1  H     6    42       P1  7948  2.00
      L1  H    10    36       P1  7948  0.74
      P1  H  7997  8008       L1    16  0.39
      P1  H 10752 10765       L1    18  0.26

> <Gold.PLP.Chemscore.Internal.Correction>
0.1046

> <Gold.Rescore>
     Score         DG    S(hbond)    S(metal)    S(lipo)     H(rot)  DE(clash)    DE(int)     intcor
     12.75     -13.30       2.80        0.00      44.63       2.64       0.01       0.54       ----

> <Gold.Chemscore.Fitness>
12.7477

> <Gold.Chemscore.DG>
-13.2985

> <Gold.Chemscore.ZeroCoef>
-5.4800

> <Gold.Chemscore.Hbond>
2.8039

> <Gold.Chemscore.Metal>
0.0000

> <Gold.Chemscore.Lipo>
44.6319

> <Gold.Chemscore.Internal_Hbond>
0.0000

> <Gold.Chemscore.DEClash>
0.0098

> <Gold.Chemscore.DEInternal>
0.5410

> <Gold.Chemscore.Rot>
2.6439

> <Gold.Chemscore.Internal.Correction>
   9.000000E+99

> <Gold.Chemscore.Hbonds>
donor molecule, donor type, donor heavy atom, donor atom, acceptor molecule, acceptor atom, score
      L1  H     6    42       P1  7948  1.00
      L1  H    10    36       P1  7948  0.61
      P1  H  7997  8008       L1    16  0.03
      P1  H 10752 10765       L1    18  0.21

> <Gold.Chemscore.Hbond.Weighted>
-9.3650

> <Gold.Chemscore.Metal.Weighted>
-0.0000

> <Gold.Chemscore.Lipo.Weighted>
-5.2219

> <Gold.Chemscore.Internal_Hbond.Weighted>
0.0000

> <Gold.Chemscore.DEClash.Weighted>
0.0098

> <Gold.Chemscore.DEInternal.Weighted>
0.5410

> <Gold.Chemscore.Rot.Weighted>
6.7685

> <Gold.Chemscore.Internal.Correction.Weighted>
   9.000000E+99

> <Gold.Protein.RotatedTorsions>
[ 6907 6896 6895 6894 ] final  144.58 input  -60.11 | X-H torsion
[ 7974 7965 7964 7962 ] final  147.07 input  175.53 | X-H torsion
[ 8008 7997 7996 7995 ] final  -60.65 input   59.86 | X-H torsion
[ 10167 10162 10161 10158 ] final  122.79 input  -65.29 | X-H torsion
[ 10718 10713 10712 10709 ] final  -41.65 input   66.30 | X-H torsion
[ 10763 10752 10751 10750 ] final  159.29 input  -60.55 | X-H torsion
[ 11005 11000 10999 10996 ] final  -36.64 input  -57.11 | X-H torsion

> <Gold.Protein.ActiveResidues>
 VAL166  LYS551  ARG553  GLY616  TRP617  ASP618  TYR619  PRO620  LYS621  CYS622 
 ASP623  PHE694  ASN695  SER759  ASP760  ASP761  ALA762  ILE779  LEU786  VAL792 
 PHE793  MET794  SER795  GLU796  ALA797  LYS798  CYS799  TRP800  GLU811  SER814 

> <Gold.Protein.RotatedAtoms>
  152.1918  133.4779  159.5011 H   0  0  0  0  0  0  0  0  0  0  0  0  # atno 6907 bound_to 6896
  150.6952  134.1702  159.4218 H   0  0  0  0  0  0  0  0  0  0  0  0  # atno 6908 bound_to 6896
  151.9617  135.0120  160.0598 H   0  0  0  0  0  0  0  0  0  0  0  0  # atno 6909 bound_to 6896
  144.8620  139.5983  143.5926 H   0  0  0  0  0  0  0  0  0  0  0  0  # atno 7974 bound_to 7965
  154.4409  140.1035  156.6307 H   0  0  0  0  0  0  0  0  0  0  0  0  # atno 8008 bound_to 7997
  155.5608  140.3487  155.4472 H   0  0  0  0  0  0  0  0  0  0  0  0  # atno 8009 bound_to 7997
  156.0461  140.1293  157.0091 H   0  0  0  0  0  0  0  0  0  0  0  0  # atno 8010 bound_to 7997
  139.5838  144.6998  151.3461 H   0  0  0  0  0  0  0  0  0  0  0  0  # atno 10167 bound_to 10162
  156.2680  130.4204  149.8468 H   0  0  0  0  0  0  0  0  0  0  0  0  # atno 10718 bound_to 10713
  154.2295  135.2779  155.2895 H   0  0  0  0  0  0  0  0  0  0  0  0  # atno 10763 bound_to 10752
  154.5636  135.5640  153.7033 H   0  0  0  0  0  0  0  0  0  0  0  0  # atno 10764 bound_to 10752
  153.0023  135.6304  154.2436 H   0  0  0  0  0  0  0  0  0  0  0  0  # atno 10765 bound_to 10752
  140.9890  133.7015  156.1817 H   0  0  0  0  0  0  0  0  0  0  0  0  # atno 11005 bound_to 11000
  146.2868  139.7026  142.9190 LP  0  0  0  0  0  0  0  0  0  0  0  0  # atno 17320 bound_to 7965
  145.4293  141.0413  143.2919 LP  0  0  0  0  0  0  0  0  0  0  0  0  # atno 17321 bound_to 7965
  140.7113  143.7384  150.7571 LP  0  0  0  0  0  0  0  0  0  0  0  0  # atno 17342 bound_to 10162
  140.0923  143.4866  152.2471 LP  0  0  0  0  0  0  0  0  0  0  0  0  # atno 17343 bound_to 10162
  156.5960  130.8526  151.3420 LP  0  0  0  0  0  0  0  0  0  0  0  0  # atno 17370 bound_to 10713
  157.7274  130.9643  150.1698 LP  0  0  0  0  0  0  0  0  0  0  0  0  # atno 17371 bound_to 10713
  140.7069  134.4504  157.5583 LP  0  0  0  0  0  0  0  0  0  0  0  0  # atno 17394 bound_to 11000
  139.8984  134.8615  156.2005 LP  0  0  0  0  0  0  0  0  0  0  0  0  # atno 17395 bound_to 11000

$$$$
