AV-unprocessed.smi:2671|AV-procd|sdf|10346|dock1
  -GOLD-   2272014373D 1   1.00000     0.00000
 Structure written by MMmdl.
 28 29  0  0  0  0  0  0  0  0  2 V2000
  145.7331  141.6880  162.4124 O   0  0  0  0  0  0  0  0  0  0  0  0
  145.8730  142.7358  161.7853 C   0  0  0  0  0  0  0  0  0  0  0  0
  144.7354  143.2972  161.0584 C   0  0  0  0  0  0  0  0  0  0  0  0
  144.8990  144.4555  160.3717 C   0  0  0  0  0  0  0  0  0  0  0  0
  143.7566  145.0794  159.5880 C   0  0  0  0  0  0  0  0  0  0  0  0
  142.7576  145.4099  160.4069 F   0  0  0  0  0  0  0  0  0  0  0  0
  144.1720  146.1868  158.9736 F   0  0  0  0  0  0  0  0  0  0  0  0
  143.2796  144.2437  158.6636 F   0  0  0  0  0  0  0  0  0  0  0  0
  146.1496  145.1012  160.3527 N   0  0  0  0  0  0  0  0  0  0  0  0
  147.1317  144.5904  160.9971 C   0  0  0  0  0  0  0  0  0  0  0  0
  148.7336  145.4148  160.9810 S   0  0  0  0  0  0  0  0  0  0  0  0
  149.7195  144.4305  159.8129 C   0  0  0  0  0  0  0  0  0  0  0  0
  151.2135  144.4616  160.1626 C   0  0  2  0  0  0  0  0  0  0  0  0
  152.1284  143.8336  159.1089 C   0  0  0  0  0  0  0  0  0  0  0  0
  153.3188  143.3286  159.9115 C   0  0  0  0  0  0  0  0  0  0  0  0
  152.8774  143.4708  161.3701 C   0  0  0  0  0  0  0  0  0  0  0  0
  151.4724  143.6640  161.3069 O   0  0  0  0  0  0  0  0  0  0  0  0
  147.0508  143.4217  161.7241 N   0  5  0  0  0  0  0  0  0  0  0  0
  143.7797  142.7942  161.0705 H   0  0  0  0  0  0  0  0  0  0  0  0
  149.5614  144.8028  158.8001 H   0  0  0  0  0  0  0  0  0  0  0  0
  149.3593  143.4016  159.8365 H   0  0  0  0  0  0  0  0  0  0  0  0
  151.5311  145.4845  160.3746 H   0  0  0  0  0  0  0  0  0  0  0  0
  151.6312  142.9909  158.6270 H   0  0  0  0  0  0  0  0  0  0  0  0
  152.4132  144.5421  158.3308 H   0  0  0  0  0  0  0  0  0  0  0  0
  153.5332  142.2889  159.6624 H   0  0  0  0  0  0  0  0  0  0  0  0
  154.2186  143.9134  159.7175 H   0  0  0  0  0  0  0  0  0  0  0  0
  153.1324  142.5996  161.9739 H   0  0  0  0  0  0  0  0  0  0  0  0
  153.3380  144.3481  161.8268 H   0  0  0  0  0  0  0  0  0  0  0  0
  1  2  2  0  0  0  0
  2 18  1  0  0  0  0
  2  3  1  0  0  0  0
  3 19  1  0  0  0  0
  3  4  2  0  0  0  0
  4  5  1  0  0  0  0
  4  9  1  0  0  0  0
  5  6  1  0  0  0  0
  5  7  1  0  0  0  0
  5  8  1  0  0  0  0
  9 10  2  0  0  0  0
 10 11  1  0  0  0  0
 10 18  1  0  0  0  0
 11 12  1  0  0  0  0
 12 13  1  0  0  0  0
 12 20  1  0  0  0  0
 12 21  1  0  0  0  0
 13 17  1  0  0  0  0
 13 14  1  0  0  0  0
 13 22  1  0  0  0  0
 14 15  1  0  0  0  0
 14 23  1  0  0  0  0
 14 24  1  0  0  0  0
 15 16  1  0  0  0  0
 15 25  1  0  0  0  0
 15 26  1  0  0  0  0
 16 17  1  0  0  0  0
 16 27  1  0  0  0  0
 16 28  1  0  0  0  0
M  CHG  1  18  -1
M  END
> <s_m_source_file>
AV-unprocessed.smi

> <i_m_source_file_index>
2671

> <i_lp_mmshare_version>
43012

> <i_f3d_flags>
0

> <s_epik_input>
W09IXWMxW2NIXWMoQyhGKShGKUYpbmMobjEpU1tDSDJdW0NAQEhdMltDSDJdW0NIMl1bQ0gyXU8y

> <s_epik_cmdline>
J2VwaWtfcHl0aG9uJywgJy1waCcsICc3LjAnLCAnLXRuJywgJzgnLCAnLW1hJywgJzIwMCcsICctbWV0YWxfYmluZGluZycsICctaW1hZScsICc8aW5maWxlLm1hZT4nLCAnLW9tYWUnLCAnPG91dGZpbGUubWFlPic=

> <r_lp_tautomer_probability>
1

> <r_epik_Ionization_Penalty>
0.972901

> <r_epik_Ionization_Penalty_Charging>
0.00136034

> <r_epik_Ionization_Penalty_Neutral>
0.971541

> <r_epik_State_Penalty>
0.242243

> <r_epik_Charging_Adjusted_Penalty>
0.243604

> <i_epik_Tot_Q>
-1

> <i_epik_Tot_abs_Q>
1

> <r_epik_Metal_State_Penalty>
0.0617458

> <b_epik_Metal_Only>
0

> <s_lp_Force_Field>
OPLS_2005

> <r_lp_Energy>
24.2298

> <b_lp_Chiralities_Consistent>
1

> <s_lp_Variant>
AV-unprocessed.smi:2671-1

> <Gold.Version>
5.8.1

> <Gold.Id.Protein>
6NUR|6NUR_protein|mol2

> <Gold.PLP.Fitness>
43.4995

> <Gold.PLP.PLP>
-36.4101

> <Gold.PLP.part.hbond>
-4.0000

> <Gold.PLP.part.metal>
0.0000

> <Gold.PLP.part.buried>
-7.1144

> <Gold.PLP.part.nonpolar>
-26.2059

> <Gold.PLP.part.repulsive>
0.3442

> <Gold.PLP.ligand.clash>
0.0000

> <Gold.PLP.ligand.torsion>
0.4828

> <Gold.PLP.Chemscore.Hbond>
2.6648

> <Gold.PLP.Chemscore.CHOScore>
0.0000

> <Gold.PLP.Chemscore.Metal>
0.0000

> <Gold.Chemscore.Hbonds>
donor molecule, donor type, donor heavy atom, donor atom, acceptor molecule, acceptor atom, score
      P1  H  6933  6944       L1    18  1.95
      P1  H  6934  6946       L1     1  0.03

> <Gold.PLP.Chemscore.Internal.Correction>
0.0606

> <Gold.Rescore>
     Score         DG    S(hbond)    S(metal)    S(lipo)     H(rot)  DE(clash)    DE(int)     intcor
     13.05     -13.35       1.10        0.00      72.33       1.66       0.10       0.19       ----

> <Gold.Chemscore.Fitness>
13.0523

> <Gold.Chemscore.DG>
-13.3471

> <Gold.Chemscore.ZeroCoef>
-5.4800

> <Gold.Chemscore.Hbond>
1.0979

> <Gold.Chemscore.Metal>
0.0000

> <Gold.Chemscore.Lipo>
72.3269

> <Gold.Chemscore.Internal_Hbond>
0.0000

> <Gold.Chemscore.DEClash>
0.1038

> <Gold.Chemscore.DEInternal>
0.1910

> <Gold.Chemscore.Rot>
1.6649

> <Gold.Chemscore.Internal.Correction>
   9.000000E+99

> <Gold.Chemscore.Hbonds>
donor molecule, donor type, donor heavy atom, donor atom, acceptor molecule, acceptor atom, score
      P1  H  6933  6944       L1    18  0.68

> <Gold.Chemscore.Hbond.Weighted>
-3.6669

> <Gold.Chemscore.Metal.Weighted>
-0.0000

> <Gold.Chemscore.Lipo.Weighted>
-8.4622

> <Gold.Chemscore.Internal_Hbond.Weighted>
0.0000

> <Gold.Chemscore.DEClash.Weighted>
0.1038

> <Gold.Chemscore.DEInternal.Weighted>
0.1910

> <Gold.Chemscore.Rot.Weighted>
4.2620

> <Gold.Chemscore.Internal.Correction.Weighted>
   9.000000E+99

> <Gold.Protein.RotatedTorsions>
[ 6907 6896 6895 6894 ] final  -49.10 input  -60.11 | X-H torsion
[ 7974 7965 7964 7962 ] final -130.86 input  175.53 | X-H torsion
[ 8008 7997 7996 7995 ] final   72.72 input   59.86 | X-H torsion
[ 10167 10162 10161 10158 ] final -120.99 input  -65.29 | X-H torsion
[ 10718 10713 10712 10709 ] final -119.19 input   66.30 | X-H torsion
[ 10763 10752 10751 10750 ] final -172.50 input  -60.55 | X-H torsion
[ 11005 11000 10999 10996 ] final   38.54 input  -57.11 | X-H torsion

> <Gold.Protein.ActiveResidues>
 VAL166  LYS551  ARG553  GLY616  TRP617  ASP618  TYR619  PRO620  LYS621  CYS622 
 ASP623  PHE694  ASN695  SER759  ASP760  ASP761  ALA762  ILE779  LEU786  VAL792 
 PHE793  MET794  SER795  GLU796  ALA797  LYS798  CYS799  TRP800  GLU811  SER814 

> <Gold.Protein.RotatedAtoms>
  150.8839  134.8234  159.7244 H   0  0  0  0  0  0  0  0  0  0  0  0  # atno 6907 bound_to 6896
  152.4795  134.4753  159.9658 H   0  0  0  0  0  0  0  0  0  0  0  0  # atno 6908 bound_to 6896
  151.4824  133.3504  159.2876 H   0  0  0  0  0  0  0  0  0  0  0  0  # atno 6909 bound_to 6896
  144.9434  140.7264  143.4832 H   0  0  0  0  0  0  0  0  0  0  0  0  # atno 7974 bound_to 7965
  155.7730  140.3484  155.5257 H   0  0  0  0  0  0  0  0  0  0  0  0  # atno 8008 bound_to 7997
  155.8803  140.1001  157.1510 H   0  0  0  0  0  0  0  0  0  0  0  0  # atno 8009 bound_to 7997
  154.4024  140.1323  156.4176 H   0  0  0  0  0  0  0  0  0  0  0  0  # atno 8010 bound_to 7997
  140.0299  143.5259  152.2181 H   0  0  0  0  0  0  0  0  0  0  0  0  # atno 10167 bound_to 10162
  156.1163  130.6288  150.9386 H   0  0  0  0  0  0  0  0  0  0  0  0  # atno 10718 bound_to 10713
  154.6186  135.2872  155.0352 H   0  0  0  0  0  0  0  0  0  0  0  0  # atno 10763 bound_to 10752
  154.1555  135.6496  153.4977 H   0  0  0  0  0  0  0  0  0  0  0  0  # atno 10764 bound_to 10752
  153.0226  135.5366  154.6967 H   0  0  0  0  0  0  0  0  0  0  0  0  # atno 10765 bound_to 10752
  140.2117  134.3748  155.8046 H   0  0  0  0  0  0  0  0  0  0  0  0  # atno 11005 bound_to 11000
  145.2955  139.1868  143.4717 LP  0  0  0  0  0  0  0  0  0  0  0  0  # atno 17320 bound_to 7965
  146.3294  140.2939  142.8617 LP  0  0  0  0  0  0  0  0  0  0  0  0  # atno 17321 bound_to 7965
  139.6083  144.7602  151.3010 LP  0  0  0  0  0  0  0  0  0  0  0  0  # atno 17342 bound_to 10162
  140.7306  143.6874  150.7951 LP  0  0  0  0  0  0  0  0  0  0  0  0  # atno 17343 bound_to 10162
  157.6346  131.0917  150.8374 LP  0  0  0  0  0  0  0  0  0  0  0  0  # atno 17370 bound_to 10713
  156.8477  130.5070  149.5315 LP  0  0  0  0  0  0  0  0  0  0  0  0  # atno 17371 bound_to 10713
  141.2226  133.7146  156.8428 LP  0  0  0  0  0  0  0  0  0  0  0  0  # atno 17394 bound_to 11000
  140.1944  134.8942  157.3098 LP  0  0  0  0  0  0  0  0  0  0  0  0  # atno 17395 bound_to 11000

$$$$
