AV-unprocessed.smi:2177|AV-procd|sdf|8848|dock4
  -GOLD-   2272012 43D 1   1.00000     0.00000
 Structure written by MMmdl.
 42 43  0  0  0  0  0  0  0  0  1 V2000
  150.2822  145.4456  159.8924 C   0  0  0  0  0  0  0  0  0  0  0  0
  151.2167  144.3073  160.1867 C   0  0  0  0  0  0  0  0  0  0  0  0
  151.6697  144.1382  161.4178 N   0  0  0  0  0  0  0  0  0  0  0  0
  152.4794  143.0632  161.3416 N   0  0  0  0  0  0  0  0  0  0  0  0
  153.1611  142.6008  162.5348 C   0  0  0  0  0  0  0  0  0  0  0  0
  152.5322  142.5473  160.0616 C   0  0  0  0  0  0  0  0  0  0  0  0
  153.3693  141.3571  159.7186 C   0  0  0  0  0  0  0  0  0  0  0  0
  151.7275  143.3330  159.2796 C   0  0  0  0  0  0  0  0  0  0  0  0
  151.4494  143.2293  157.7998 C   0  0  0  0  0  0  0  0  0  0  0  0
  150.8649  141.8513  157.4882 C   0  0  0  0  0  0  0  0  0  0  0  0
  150.8213  140.9863  158.3623 O   0  0  0  0  0  0  0  0  0  0  0  0
  150.4030  141.6739  156.2408 N   0  0  0  0  0  0  0  0  0  0  0  0
  149.6812  140.5038  155.7519 C   0  0  2  0  0  0  0  0  0  0  0  0
  150.6797  139.4168  155.3262 C   0  0  0  0  0  0  0  0  0  0  0  0
  148.7539  140.9265  154.5967 C   0  0  2  0  0  0  0  0  0  0  0  0
  147.6838  141.9536  154.9783 C   0  0  0  0  0  0  0  0  0  0  0  0
  146.5663  141.7019  153.9778 C   0  0  0  0  0  0  0  0  0  0  0  0
  146.9325  140.3608  153.3358 C   0  0  0  0  0  0  0  0  0  0  0  0
  147.9697  139.8321  154.1495 O   0  0  0  0  0  0  0  0  0  0  0  0
  150.7304  146.1418  159.1832 H   0  0  0  0  0  0  0  0  0  0  0  0
  150.0294  146.0067  160.7927 H   0  0  0  0  0  0  0  0  0  0  0  0
  149.3512  145.0825  159.4571 H   0  0  0  0  0  0  0  0  0  0  0  0
  152.7582  141.6331  162.8337 H   0  0  0  0  0  0  0  0  0  0  0  0
  153.0278  143.3087  163.3541 H   0  0  0  0  0  0  0  0  0  0  0  0
  154.2272  142.4967  162.3314 H   0  0  0  0  0  0  0  0  0  0  0  0
  153.1627  141.0038  158.7089 H   0  0  0  0  0  0  0  0  0  0  0  0
  153.1748  140.5329  160.4049 H   0  0  0  0  0  0  0  0  0  0  0  0
  154.4298  141.6030  159.7756 H   0  0  0  0  0  0  0  0  0  0  0  0
  150.7512  143.9956  157.4626 H   0  0  0  0  0  0  0  0  0  0  0  0
  152.3588  143.3733  157.2153 H   0  0  0  0  0  0  0  0  0  0  0  0
  150.4955  142.4454  155.5963 H   0  0  0  0  0  0  0  0  0  0  0  0
  149.0566  140.1038  156.5530 H   0  0  0  0  0  0  0  0  0  0  0  0
  150.1618  138.5249  154.9730 H   0  0  0  0  0  0  0  0  0  0  0  0
  151.3147  139.1179  156.1606 H   0  0  0  0  0  0  0  0  0  0  0  0
  151.3279  139.7656  154.5215 H   0  0  0  0  0  0  0  0  0  0  0  0
  149.3411  141.3051  153.7573 H   0  0  0  0  0  0  0  0  0  0  0  0
  147.3184  141.7609  155.9880 H   0  0  0  0  0  0  0  0  0  0  0  0
  148.0544  142.9788  154.9487 H   0  0  0  0  0  0  0  0  0  0  0  0
  145.6006  141.6548  154.4826 H   0  0  0  0  0  0  0  0  0  0  0  0
  146.5145  142.4893  153.2249 H   0  0  0  0  0  0  0  0  0  0  0  0
  146.0857  139.6763  153.2820 H   0  0  0  0  0  0  0  0  0  0  0  0
  147.3130  140.5117  152.3243 H   0  0  0  0  0  0  0  0  0  0  0  0
  1  2  1  0  0  0  0
  1 20  1  0  0  0  0
  1 21  1  0  0  0  0
  1 22  1  0  0  0  0
  2  8  1  0  0  0  0
  2  3  2  0  0  0  0
  3  4  1  0  0  0  0
  4  5  1  0  0  0  0
  4  6  1  0  0  0  0
  5 23  1  0  0  0  0
  5 24  1  0  0  0  0
  5 25  1  0  0  0  0
  6  7  1  0  0  0  0
  6  8  2  0  0  0  0
  7 26  1  0  0  0  0
  7 27  1  0  0  0  0
  7 28  1  0  0  0  0
  8  9  1  0  0  0  0
  9 10  1  0  0  0  0
  9 29  1  0  0  0  0
  9 30  1  0  0  0  0
 10 11  2  0  0  0  0
 10 12  1  0  0  0  0
 12 13  1  0  0  0  0
 12 31  1  0  0  0  0
 13 14  1  0  0  0  0
 13 15  1  0  0  0  0
 13 32  1  0  0  0  0
 14 33  1  0  0  0  0
 14 34  1  0  0  0  0
 14 35  1  0  0  0  0
 15 19  1  0  0  0  0
 15 16  1  0  0  0  0
 15 36  1  0  0  0  0
 16 17  1  0  0  0  0
 16 37  1  0  0  0  0
 16 38  1  0  0  0  0
 17 18  1  0  0  0  0
 17 39  1  0  0  0  0
 17 40  1  0  0  0  0
 18 19  1  0  0  0  0
 18 41  1  0  0  0  0
 18 42  1  0  0  0  0
M  END
> <s_m_source_file>
AV-unprocessed.smi

> <i_m_source_file_index>
2177

> <i_lp_mmshare_version>
43012

> <i_f3d_flags>
0

> <s_epik_input>
W0NIM11jMW5uKFtDSDNdKWMoW0NIM10pYzFbQ0gyXUMoPU8pW05IXVtDQEhdKFtDSDNdKVtDQEBIXTJbQ0gyXVtDSDJdW0NIMl1PMg==

> <s_epik_cmdline>
J2VwaWtfcHl0aG9uJywgJy1waCcsICc3LjAnLCAnLXRuJywgJzgnLCAnLW1hJywgJzIwMCcsICctbWV0YWxfYmluZGluZycsICctaW1hZScsICc8aW5maWxlLm1hZT4nLCAnLW9tYWUnLCAnPG91dGZpbGUubWFlPic=

> <r_lp_tautomer_probability>
1

> <r_epik_Ionization_Penalty>
0.00310467

> <r_epik_Ionization_Penalty_Charging>
0

> <r_epik_Ionization_Penalty_Neutral>
0.00310467

> <r_epik_State_Penalty>
0.00218493

> <r_epik_Charging_Adjusted_Penalty>
0.00218493

> <i_epik_Tot_Q>
0

> <i_epik_Tot_abs_Q>
0

> <r_epik_Metal_State_Penalty>
-0

> <b_epik_Metal_Only>
0

> <s_lp_Force_Field>
OPLS_2005

> <r_lp_Energy>
11.4342

> <b_lp_Chiralities_Consistent>
1

> <s_lp_Variant>
AV-unprocessed.smi:2177-1

> <Gold.Version>
5.8.1

> <Gold.Id.Protein>
6NUR|6NUR_protein|mol2

> <Gold.PLP.Fitness>
45.1799

> <Gold.PLP.PLP>
-46.0161

> <Gold.PLP.part.hbond>
0.0000

> <Gold.PLP.part.metal>
0.0000

> <Gold.PLP.part.buried>
-3.8828

> <Gold.PLP.part.nonpolar>
-42.4690

> <Gold.PLP.part.repulsive>
0.8155

> <Gold.PLP.ligand.clash>
0.0000

> <Gold.PLP.ligand.torsion>
0.4324

> <Gold.PLP.Chemscore.Hbond>
0.0000

> <Gold.PLP.Chemscore.CHOScore>
0.0000

> <Gold.PLP.Chemscore.Metal>
0.0000

> <Gold.PLP.Chemscore.Internal.Correction>
0.0285

> <Gold.Rescore>
     Score         DG    S(hbond)    S(metal)    S(lipo)     H(rot)  DE(clash)    DE(int)     intcor
     13.51     -15.21       0.00        0.00     115.13       1.46       0.04       1.66       ----

> <Gold.Chemscore.Fitness>
13.5098

> <Gold.Chemscore.DG>
-15.2061

> <Gold.Chemscore.ZeroCoef>
-5.4800

> <Gold.Chemscore.Hbond>
0.0000

> <Gold.Chemscore.Metal>
0.0000

> <Gold.Chemscore.Lipo>
115.1328

> <Gold.Chemscore.Internal_Hbond>
0.0000

> <Gold.Chemscore.DEClash>
0.0360

> <Gold.Chemscore.DEInternal>
1.6602

> <Gold.Chemscore.Rot>
1.4627

> <Gold.Chemscore.Internal.Correction>
   9.000000E+99

> <Gold.Chemscore.Hbond.Weighted>
-0.0000

> <Gold.Chemscore.Metal.Weighted>
-0.0000

> <Gold.Chemscore.Lipo.Weighted>
-13.4705

> <Gold.Chemscore.Internal_Hbond.Weighted>
0.0000

> <Gold.Chemscore.DEClash.Weighted>
0.0360

> <Gold.Chemscore.DEInternal.Weighted>
1.6602

> <Gold.Chemscore.Rot.Weighted>
3.7445

> <Gold.Chemscore.Internal.Correction.Weighted>
   9.000000E+99

> <Gold.Protein.RotatedTorsions>
[ 6907 6896 6895 6894 ] final  177.22 input  -60.11 | X-H torsion
[ 7974 7965 7964 7962 ] final   35.46 input  175.53 | X-H torsion
[ 8008 7997 7996 7995 ] final  133.85 input   59.86 | X-H torsion
[ 10167 10162 10161 10158 ] final  -31.51 input  -65.29 | X-H torsion
[ 10718 10713 10712 10709 ] final  118.81 input   66.30 | X-H torsion
[ 10763 10752 10751 10750 ] final  -51.84 input  -60.55 | X-H torsion
[ 11005 11000 10999 10996 ] final -121.71 input  -57.11 | X-H torsion

> <Gold.Protein.ActiveResidues>
 VAL166  LYS551  ARG553  GLY616  TRP617  ASP618  TYR619  PRO620  LYS621  CYS622 
 ASP623  PHE694  ASN695  SER759  ASP760  ASP761  ALA762  ILE779  LEU786  VAL792 
 PHE793  MET794  SER795  GLU796  ALA797  LYS798  CYS799  TRP800  GLU811  SER814 

> <Gold.Protein.RotatedAtoms>
  151.7075  133.3312  159.3281 H   0  0  0  0  0  0  0  0  0  0  0  0  # atno 6907 bound_to 6896
  150.7708  134.6561  159.6324 H   0  0  0  0  0  0  0  0  0  0  0  0  # atno 6908 bound_to 6896
  152.3732  134.6706  160.0221 H   0  0  0  0  0  0  0  0  0  0  0  0  # atno 6909 bound_to 6896
  146.1281  139.6139  142.9245 H   0  0  0  0  0  0  0  0  0  0  0  0  # atno 7974 bound_to 7965
  156.2995  140.2511  156.3320 H   0  0  0  0  0  0  0  0  0  0  0  0  # atno 8008 bound_to 7997
  154.9135  140.0402  157.1978 H   0  0  0  0  0  0  0  0  0  0  0  0  # atno 8009 bound_to 7997
  154.8381  140.2886  155.5681 H   0  0  0  0  0  0  0  0  0  0  0  0  # atno 8010 bound_to 7997
  140.7235  143.3765  151.1680 H   0  0  0  0  0  0  0  0  0  0  0  0  # atno 10167 bound_to 10162
  157.6005  131.1051  150.7808 H   0  0  0  0  0  0  0  0  0  0  0  0  # atno 10718 bound_to 10713
  154.1331  135.6517  153.4926 H   0  0  0  0  0  0  0  0  0  0  0  0  # atno 10763 bound_to 10752
  153.0189  135.5297  154.6981 H   0  0  0  0  0  0  0  0  0  0  0  0  # atno 10764 bound_to 10752
  154.6221  135.2966  155.0285 H   0  0  0  0  0  0  0  0  0  0  0  0  # atno 10765 bound_to 10752
  141.0050  134.0348  157.3489 H   0  0  0  0  0  0  0  0  0  0  0  0  # atno 11005 bound_to 11000
  145.5321  141.0426  143.2377 LP  0  0  0  0  0  0  0  0  0  0  0  0  # atno 17320 bound_to 7965
  144.7663  139.6838  143.7213 LP  0  0  0  0  0  0  0  0  0  0  0  0  # atno 17321 bound_to 7965
  139.7346  143.9019  152.3031 LP  0  0  0  0  0  0  0  0  0  0  0  0  # atno 17342 bound_to 10162
  139.8819  144.7013  150.8868 LP  0  0  0  0  0  0  0  0  0  0  0  0  # atno 17343 bound_to 10162
  156.8208  130.4983  149.5343 LP  0  0  0  0  0  0  0  0  0  0  0  0  # atno 17370 bound_to 10713
  156.1077  130.6017  150.9997 LP  0  0  0  0  0  0  0  0  0  0  0  0  # atno 17371 bound_to 10713
  139.9058  135.0179  156.7480 LP  0  0  0  0  0  0  0  0  0  0  0  0  # atno 17394 bound_to 11000
  140.6828  133.9459  155.7920 LP  0  0  0  0  0  0  0  0  0  0  0  0  # atno 17395 bound_to 11000

$$$$
