AV-unprocessed.smi:1904|AV-procd|sdf|7724|dock4
  -GOLD-   22720 9463D 1   1.00000     0.00000
 Structure written by MMmdl.
 50 51  0  0  0  0  0  0  0  0  2 V2000
  150.3825  145.3387  160.1575 C   0  0  0  0  0  0  0  0  0  0  0  0
  151.4386  144.2764  160.2688 C   0  0  0  0  0  0  0  0  0  0  0  0
  151.9621  144.0095  161.4534 N   0  0  0  0  0  0  0  0  0  0  0  0
  152.8671  143.0383  161.2193 N   0  0  0  0  0  0  0  0  0  0  0  0
  153.6357  142.5019  162.3255 C   0  0  0  0  0  0  0  0  0  0  0  0
  152.9224  142.6971  159.8819 C   0  0  0  0  0  0  0  0  0  0  0  0
  153.8601  141.6540  159.3647 C   0  0  0  0  0  0  0  0  0  0  0  0
  152.0037  143.4771  159.2310 C   0  0  0  0  0  0  0  0  0  0  0  0
  151.6655  143.5056  157.7619 C   0  0  0  0  0  0  0  0  0  0  0  0
  151.0810  142.1542  157.3524 C   0  0  0  0  0  0  0  0  0  0  0  0
  151.4426  141.1265  157.9256 O   0  0  0  0  0  0  0  0  0  0  0  0
  150.1975  142.1645  156.3424 N   0  0  0  0  0  0  0  0  0  0  0  0
  149.5850  140.9777  155.7593 C   0  0  0  0  0  0  0  0  0  0  0  0
  148.6706  141.3521  154.5769 C   0  0  0  0  0  0  0  0  0  0  0  0
  147.5742  142.2743  154.9669 N   0  3  2  0  0  0  0  0  0  0  0  0
  146.9785  141.9051  156.2772 C   0  0  0  0  0  0  0  0  0  0  0  0
  145.9416  142.9464  156.7354 C   0  0  0  0  0  0  0  0  0  0  0  0
  144.8379  143.1708  155.6862 C   0  0  2  0  0  0  0  0  0  0  0  0
  143.8358  142.0051  155.6152 C   0  0  0  0  0  0  0  0  0  0  0  0
  145.4840  143.4834  154.3246 C   0  0  0  0  0  0  0  0  0  0  0  0
  146.5309  142.4302  153.9183 C   0  0  0  0  0  0  0  0  0  0  0  0
  149.6299  145.0692  159.4168 H   0  0  0  0  0  0  0  0  0  0  0  0
  150.8199  146.2902  159.8550 H   0  0  0  0  0  0  0  0  0  0  0  0
  149.8676  145.4953  161.1061 H   0  0  0  0  0  0  0  0  0  0  0  0
  153.6036  141.4125  162.3028 H   0  0  0  0  0  0  0  0  0  0  0  0
  153.2297  142.8444  163.2784 H   0  0  0  0  0  0  0  0  0  0  0  0
  154.6720  142.8306  162.2434 H   0  0  0  0  0  0  0  0  0  0  0  0
  153.9094  141.6701  158.2762 H   0  0  0  0  0  0  0  0  0  0  0  0
  153.5388  140.6590  159.6726 H   0  0  0  0  0  0  0  0  0  0  0  0
  154.8698  141.8161  159.7421 H   0  0  0  0  0  0  0  0  0  0  0  0
  150.9396  144.2851  157.5297 H   0  0  0  0  0  0  0  0  0  0  0  0
  152.5446  143.7287  157.1560 H   0  0  0  0  0  0  0  0  0  0  0  0
  149.9550  143.0554  155.9328 H   0  0  0  0  0  0  0  0  0  0  0  0
  150.3551  140.2725  155.4423 H   0  0  0  0  0  0  0  0  0  0  0  0
  149.0200  140.4872  156.5510 H   0  0  0  0  0  0  0  0  0  0  0  0
  149.2504  141.7903  153.7628 H   0  0  0  0  0  0  0  0  0  0  0  0
  148.2321  140.4345  154.1812 H   0  0  0  0  0  0  0  0  0  0  0  0
  146.5238  140.9159  156.2075 H   0  0  0  0  0  0  0  0  0  0  0  0
  147.7638  141.8356  157.0309 H   0  0  0  0  0  0  0  0  0  0  0  0
  145.5031  142.6445  157.6873 H   0  0  0  0  0  0  0  0  0  0  0  0
  146.4517  143.8919  156.9250 H   0  0  0  0  0  0  0  0  0  0  0  0
  144.2671  144.0494  155.9901 H   0  0  0  0  0  0  0  0  0  0  0  0
  144.3092  141.0713  155.3142 H   0  0  0  0  0  0  0  0  0  0  0  0
  143.0417  142.2174  154.8986 H   0  0  0  0  0  0  0  0  0  0  0  0
  143.3632  141.8373  156.5836 H   0  0  0  0  0  0  0  0  0  0  0  0
  144.7174  143.5662  153.5535 H   0  0  0  0  0  0  0  0  0  0  0  0
  145.9673  144.4602  154.3751 H   0  0  0  0  0  0  0  0  0  0  0  0
  146.9825  142.7411  152.9772 H   0  0  0  0  0  0  0  0  0  0  0  0
  146.0525  141.4682  153.7304 H   0  0  0  0  0  0  0  0  0  0  0  0
  147.9985  143.1815  155.0981 H   0  0  0  0  0  0  0  0  0  0  0  0
  1  2  1  0  0  0  0
  1 22  1  0  0  0  0
  1 23  1  0  0  0  0
  1 24  1  0  0  0  0
  2  8  1  0  0  0  0
  2  3  2  0  0  0  0
  3  4  1  0  0  0  0
  4  5  1  0  0  0  0
  4  6  1  0  0  0  0
  5 25  1  0  0  0  0
  5 26  1  0  0  0  0
  5 27  1  0  0  0  0
  6  7  1  0  0  0  0
  6  8  2  0  0  0  0
  7 28  1  0  0  0  0
  7 29  1  0  0  0  0
  7 30  1  0  0  0  0
  8  9  1  0  0  0  0
  9 10  1  0  0  0  0
  9 31  1  0  0  0  0
  9 32  1  0  0  0  0
 10 11  2  0  0  0  0
 10 12  1  0  0  0  0
 12 13  1  0  0  0  0
 12 33  1  0  0  0  0
 13 14  1  0  0  0  0
 13 34  1  0  0  0  0
 13 35  1  0  0  0  0
 14 15  1  0  0  0  0
 14 36  1  0  0  0  0
 14 37  1  0  0  0  0
 15 21  1  0  0  0  0
 15 16  1  0  0  0  0
 15 50  1  0  0  0  0
 16 17  1  0  0  0  0
 16 38  1  0  0  0  0
 16 39  1  0  0  0  0
 17 18  1  0  0  0  0
 17 40  1  0  0  0  0
 17 41  1  0  0  0  0
 18 19  1  0  0  0  0
 18 20  1  0  0  0  0
 18 42  1  0  0  0  0
 19 43  1  0  0  0  0
 19 44  1  0  0  0  0
 19 45  1  0  0  0  0
 20 21  1  0  0  0  0
 20 46  1  0  0  0  0
 20 47  1  0  0  0  0
 21 48  1  0  0  0  0
 21 49  1  0  0  0  0
M  CHG  1  15   1
M  END
> <s_m_source_file>
AV-unprocessed.smi

> <i_m_source_file_index>
1904

> <i_lp_mmshare_version>
43012

> <i_f3d_flags>
0

> <s_epik_input>
W0NIM11jMW5uKFtDSDNdKWMoW0NIM10pYzFbQ0gyXUMoPU8pW05IXVtDSDJdW0NIMl1OMltDSDJdW0NIMl1bQ0hdKFtDSDNdKVtDSDJdW0NIMl0y

> <s_epik_cmdline>
J2VwaWtfcHl0aG9uJywgJy1waCcsICc3LjAnLCAnLXRuJywgJzgnLCAnLW1hJywgJzIwMCcsICctbWV0YWxfYmluZGluZycsICctaW1hZScsICc8aW5maWxlLm1hZT4nLCAnLW9tYWUnLCAnPG91dGZpbGUubWFlPic=

> <r_lp_tautomer_probability>
1

> <r_epik_Ionization_Penalty>
0.00374255

> <r_epik_Ionization_Penalty_Charging>
0.00158211

> <r_epik_Ionization_Penalty_Neutral>
0.00216044

> <r_epik_State_Penalty>
-0

> <r_epik_Charging_Adjusted_Penalty>
0.00158211

> <i_epik_Tot_Q>
1

> <i_epik_Tot_abs_Q>
1

> <r_epik_Metal_State_Penalty>
-0

> <b_epik_Metal_Only>
0

> <s_lp_Force_Field>
OPLS_2005

> <r_lp_Energy>
12.0105

> <b_lp_Chiralities_Consistent>
1

> <s_lp_Variant>
AV-unprocessed.smi:1904-2

> <Gold.Version>
5.8.1

> <Gold.Id.Protein>
6NUR|6NUR_protein|mol2

> <Gold.PLP.Fitness>
56.6227

> <Gold.PLP.PLP>
-48.6134

> <Gold.PLP.part.hbond>
-2.0000

> <Gold.PLP.part.metal>
0.0000

> <Gold.PLP.part.buried>
-7.9317

> <Gold.PLP.part.nonpolar>
-38.6002

> <Gold.PLP.part.repulsive>
0.3809

> <Gold.PLP.ligand.clash>
0.0000

> <Gold.PLP.ligand.torsion>
0.5082

> <Gold.PLP.Chemscore.Hbond>
3.0000

> <Gold.PLP.Chemscore.CHOScore>
0.0000

> <Gold.PLP.Chemscore.Metal>
0.0000

> <Gold.Chemscore.Hbonds>
donor molecule, donor type, donor heavy atom, donor atom, acceptor molecule, acceptor atom, score
      L1  H    12    33       P1  8028  1.00
      L1  H    15    50       P1  8028  2.00

> <Gold.PLP.Chemscore.Internal.Correction>
0.0257

> <Gold.Rescore>
     Score         DG    S(hbond)    S(metal)    S(lipo)     H(rot)  DE(clash)    DE(int)     intcor
     18.27     -19.93       1.73        0.00     109.34       1.61       0.12       1.54       ----

> <Gold.Chemscore.Fitness>
18.2679

> <Gold.Chemscore.DG>
-19.9309

> <Gold.Chemscore.ZeroCoef>
-5.4800

> <Gold.Chemscore.Hbond>
1.7336

> <Gold.Chemscore.Metal>
0.0000

> <Gold.Chemscore.Lipo>
109.3432

> <Gold.Chemscore.Internal_Hbond>
0.0000

> <Gold.Chemscore.DEClash>
0.1216

> <Gold.Chemscore.DEInternal>
1.5413

> <Gold.Chemscore.Rot>
1.6142

> <Gold.Chemscore.Internal.Correction>
   9.000000E+99

> <Gold.Chemscore.Hbonds>
donor molecule, donor type, donor heavy atom, donor atom, acceptor molecule, acceptor atom, score
      L1  H    12    33       P1  8028  0.96
      L1  H    15    50       P1  8028  0.85

> <Gold.Chemscore.Hbond.Weighted>
-5.7901

> <Gold.Chemscore.Metal.Weighted>
-0.0000

> <Gold.Chemscore.Lipo.Weighted>
-12.7932

> <Gold.Chemscore.Internal_Hbond.Weighted>
0.0000

> <Gold.Chemscore.DEClash.Weighted>
0.1216

> <Gold.Chemscore.DEInternal.Weighted>
1.5413

> <Gold.Chemscore.Rot.Weighted>
4.1324

> <Gold.Chemscore.Internal.Correction.Weighted>
   9.000000E+99

> <Gold.Protein.RotatedTorsions>
[ 6907 6896 6895 6894 ] final  104.61 input  -60.11 | X-H torsion
[ 7974 7965 7964 7962 ] final  -88.78 input  175.53 | X-H torsion
[ 8008 7997 7996 7995 ] final -151.91 input   59.86 | X-H torsion
[ 10167 10162 10161 10158 ] final -139.98 input  -65.29 | X-H torsion
[ 10718 10713 10712 10709 ] final  118.47 input   66.30 | X-H torsion
[ 10763 10752 10751 10750 ] final -112.56 input  -60.55 | X-H torsion
[ 11005 11000 10999 10996 ] final  -13.26 input  -57.11 | X-H torsion

> <Gold.Protein.ActiveResidues>
 VAL166  LYS551  ARG553  GLY616  TRP617  ASP618  TYR619  PRO620  LYS621  CYS622 
 ASP623  PHE694  ASN695  SER759  ASP760  ASP761  ALA762  ILE779  LEU786  VAL792 
 PHE793  MET794  SER795  GLU796  ALA797  LYS798  CYS799  TRP800  GLU811  SER814 

> <Gold.Protein.RotatedAtoms>
  152.5258  133.9651  159.7735 H   0  0  0  0  0  0  0  0  0  0  0  0  # atno 6907 bound_to 6896
  150.9934  133.6119  159.2712 H   0  0  0  0  0  0  0  0  0  0  0  0  # atno 6908 bound_to 6896
  151.3254  135.0835  159.9373 H   0  0  0  0  0  0  0  0  0  0  0  0  # atno 6909 bound_to 6896
  145.4486  140.9560  143.2035 H   0  0  0  0  0  0  0  0  0  0  0  0  # atno 7974 bound_to 7965
  155.6468  140.0707  157.2600 H   0  0  0  0  0  0  0  0  0  0  0  0  # atno 8008 bound_to 7997
  154.4171  140.1740  156.1681 H   0  0  0  0  0  0  0  0  0  0  0  0  # atno 8009 bound_to 7997
  155.9810  140.3354  155.6666 H   0  0  0  0  0  0  0  0  0  0  0  0  # atno 8010 bound_to 7997
  139.8327  143.7426  152.2665 H   0  0  0  0  0  0  0  0  0  0  0  0  # atno 10167 bound_to 10162
  157.6028  131.1048  150.7761 H   0  0  0  0  0  0  0  0  0  0  0  0  # atno 10718 bound_to 10713
  154.8355  135.4486  154.1212 H   0  0  0  0  0  0  0  0  0  0  0  0  # atno 10763 bound_to 10752
  153.2447  135.6920  153.7750 H   0  0  0  0  0  0  0  0  0  0  0  0  # atno 10764 bound_to 10752
  153.7084  135.3360  155.3217 H   0  0  0  0  0  0  0  0  0  0  0  0  # atno 10765 bound_to 10752
  140.7743  133.8413  155.9235 H   0  0  0  0  0  0  0  0  0  0  0  0  # atno 11005 bound_to 11000
  144.8076  139.6023  143.7044 LP  0  0  0  0  0  0  0  0  0  0  0  0  # atno 17320 bound_to 7965
  146.2517  139.6213  142.9423 LP  0  0  0  0  0  0  0  0  0  0  0  0  # atno 17321 bound_to 7965
  139.7639  144.7498  151.0324 LP  0  0  0  0  0  0  0  0  0  0  0  0  # atno 17342 bound_to 10162
  140.7805  143.4720  151.0133 LP  0  0  0  0  0  0  0  0  0  0  0  0  # atno 17343 bound_to 10162
  156.8156  130.4967  149.5350 LP  0  0  0  0  0  0  0  0  0  0  0  0  # atno 17370 bound_to 10713
  156.1105  130.6037  151.0040 LP  0  0  0  0  0  0  0  0  0  0  0  0  # atno 17371 bound_to 10713
  140.9544  134.1737  157.4703 LP  0  0  0  0  0  0  0  0  0  0  0  0  # atno 17394 bound_to 11000
  139.8751  134.9921  156.5581 LP  0  0  0  0  0  0  0  0  0  0  0  0  # atno 17395 bound_to 11000

$$$$
