AV-unprocessed.smi:79|AV-procd|sdf|778|dock1
  -GOLD-   2262017133D 1   1.00000     0.00000
 Structure written by MMmdl.
 56 59  0  0  0  0  0  0  0  0  2 V2000
  152.6278  144.0370  159.0662 C   0  0  0  0  0  0  0  0  0  0  0  0
  151.2336  143.6972  158.5243 C   0  0  1  0  0  0  0  0  0  0  0  0
  150.6578  144.8824  158.0131 O   0  0  0  0  0  0  0  0  0  0  0  0
  151.2877  142.6392  157.4050 C   0  0  0  0  0  0  0  0  0  0  0  0
  149.9354  142.2311  156.9470 N   0  3  2  0  0  0  0  0  0  0  0  0
  148.9862  141.9721  158.0621 C   0  0  0  0  0  0  0  0  0  0  0  0
  147.5790  141.6556  157.5284 C   0  0  0  0  0  0  0  0  0  0  0  0
  147.6292  140.5623  156.5603 N   0  0  0  0  0  0  0  0  0  0  0  0
  147.4486  139.3214  157.0831 C   0  0  0  0  0  0  0  0  0  0  0  0
  148.2372  138.2897  156.6800 N   0  0  0  0  0  0  0  0  0  0  0  0
  148.0745  137.0714  157.2036 C   0  0  0  0  0  0  0  0  0  0  0  0
  147.1965  136.6703  158.1242 N   0  0  0  0  0  0  0  0  0  0  0  0
  146.3939  137.6970  158.5259 C   0  0  0  0  0  0  0  0  0  0  0  0
  146.4555  139.0417  158.0636 C   0  0  0  0  0  0  0  0  0  0  0  0
  145.4840  139.8051  158.6986 N   0  0  0  0  0  0  0  0  0  0  0  0
  144.8863  138.9617  159.4950 C   0  0  0  0  0  0  0  0  0  0  0  0
  145.3571  137.6687  159.4441 N   0  0  0  0  0  0  0  0  0  0  0  0
  144.8741  136.5335  160.2178 C   0  0  0  0  0  0  0  0  0  0  0  0
  145.8532  136.0420  161.3065 C   0  0  0  0  0  0  0  0  0  0  0  0
  145.3611  134.7208  161.9208 C   0  0  0  0  0  0  0  0  0  0  0  0
  146.2261  134.2805  162.9476 O   0  0  0  0  0  0  0  0  0  0  0  0
  147.3335  136.0683  160.9019 C   0  0  0  0  0  0  0  0  0  0  0  0
  147.6142  137.2095  161.7391 O   0  0  0  0  0  0  0  0  0  0  0  0
  146.2999  137.1017  162.3250 C   0  0  0  0  0  0  0  0  0  0  0  0
  148.5732  140.7413  155.4520 C   0  0  1  0  0  0  0  0  0  0  0  0
  148.0599  141.7842  154.4439 C   0  0  0  0  0  0  0  0  0  0  0  0
  149.9803  141.1013  155.9817 C   0  0  0  0  0  0  0  0  0  0  0  0
  153.1070  143.1549  159.4921 H   0  0  0  0  0  0  0  0  0  0  0  0
  152.5713  144.7904  159.8529 H   0  0  0  0  0  0  0  0  0  0  0  0
  153.2797  144.4223  158.2814 H   0  0  0  0  0  0  0  0  0  0  0  0
  150.6192  143.3502  159.3543 H   0  0  0  0  0  0  0  0  0  0  0  0
  150.1012  144.6598  157.2822 H   0  0  0  0  0  0  0  0  0  0  0  0
  151.8546  143.0502  156.5679 H   0  0  0  0  0  0  0  0  0  0  0  0
  151.8364  141.7559  157.7361 H   0  0  0  0  0  0  0  0  0  0  0  0
  149.3519  141.1365  158.6612 H   0  0  0  0  0  0  0  0  0  0  0  0
  148.9278  142.8333  158.7260 H   0  0  0  0  0  0  0  0  0  0  0  0
  146.9190  141.4244  158.3644 H   0  0  0  0  0  0  0  0  0  0  0  0
  147.1549  142.5359  157.0453 H   0  0  0  0  0  0  0  0  0  0  0  0
  148.7427  136.3084  156.8318 H   0  0  0  0  0  0  0  0  0  0  0  0
  144.0801  139.2665  160.1461 H   0  0  0  0  0  0  0  0  0  0  0  0
  143.9116  136.8000  160.6556 H   0  0  0  0  0  0  0  0  0  0  0  0
  144.6573  135.7272  159.5155 H   0  0  0  0  0  0  0  0  0  0  0  0
  144.3690  134.8446  162.3559 H   0  0  0  0  0  0  0  0  0  0  0  0
  145.2636  133.9367  161.1701 H   0  0  0  0  0  0  0  0  0  0  0  0
  147.0752  134.6732  162.8144 H   0  0  0  0  0  0  0  0  0  0  0  0
  147.8957  135.1874  161.2157 H   0  0  0  0  0  0  0  0  0  0  0  0
  147.4999  136.2770  159.8445 H   0  0  0  0  0  0  0  0  0  0  0  0
  145.7521  138.0415  162.2739 H   0  0  0  0  0  0  0  0  0  0  0  0
  146.3442  136.7387  163.3530 H   0  0  0  0  0  0  0  0  0  0  0  0
  148.6496  139.8045  154.8981 H   0  0  0  0  0  0  0  0  0  0  0  0
  148.7244  141.8528  153.5823 H   0  0  0  0  0  0  0  0  0  0  0  0
  147.9882  142.7798  154.8824 H   0  0  0  0  0  0  0  0  0  0  0  0
  147.0712  141.5131  154.0723 H   0  0  0  0  0  0  0  0  0  0  0  0
  150.6345  141.3501  155.1451 H   0  0  0  0  0  0  0  0  0  0  0  0
  150.4268  140.2377  156.4762 H   0  0  0  0  0  0  0  0  0  0  0  0
  149.5674  143.0177  156.4309 H   0  0  0  0  0  0  0  0  0  0  0  0
  1  2  1  0  0  0  0
  1 28  1  0  0  0  0
  1 29  1  0  0  0  0
  1 30  1  0  0  0  0
  2  3  1  0  0  0  0
  2  4  1  0  0  0  0
  2 31  1  0  0  0  0
  3 32  1  0  0  0  0
  4  5  1  0  0  0  0
  4 33  1  0  0  0  0
  4 34  1  0  0  0  0
  5 27  1  0  0  0  0
  5  6  1  0  0  0  0
  5 56  1  0  0  0  0
  6  7  1  0  0  0  0
  6 35  1  0  0  0  0
  6 36  1  0  0  0  0
  7  8  1  0  0  0  0
  7 37  1  0  0  0  0
  7 38  1  0  0  0  0
  8  9  1  0  0  0  0
  8 25  1  0  0  0  0
  9 14  1  0  0  0  0
  9 10  2  0  0  0  0
 10 11  1  0  0  0  0
 11 12  2  0  0  0  0
 11 39  1  0  0  0  0
 12 13  1  0  0  0  0
 13 17  1  0  0  0  0
 13 14  2  0  0  0  0
 14 15  1  0  0  0  0
 15 16  2  0  0  0  0
 16 17  1  0  0  0  0
 16 40  1  0  0  0  0
 17 18  1  0  0  0  0
 18 19  1  0  0  0  0
 18 41  1  0  0  0  0
 18 42  1  0  0  0  0
 19 24  1  0  0  0  0
 19 20  1  0  0  0  0
 19 22  1  0  0  0  0
 20 21  1  0  0  0  0
 20 43  1  0  0  0  0
 20 44  1  0  0  0  0
 21 45  1  0  0  0  0
 22 23  1  0  0  0  0
 22 46  1  0  0  0  0
 22 47  1  0  0  0  0
 23 24  1  0  0  0  0
 24 48  1  0  0  0  0
 24 49  1  0  0  0  0
 25 26  1  0  0  0  0
 25 27  1  0  0  0  0
 25 50  1  0  0  0  0
 26 51  1  0  0  0  0
 26 52  1  0  0  0  0
 26 53  1  0  0  0  0
 27 54  1  0  0  0  0
 27 55  1  0  0  0  0
M  CHG  1   5   1
M  END
> <s_m_source_file>
AV-unprocessed.smi

> <i_m_source_file_index>
79

> <i_lp_mmshare_version>
43012

> <i_f3d_flags>
0

> <s_epik_input>
W0NIM11bQ0BIXShbT0hdKVtDSDJdTjFbQ0gyXVtDSDJdTihbQ0BASF0oW0NIM10pW0NIMl0xKWMobltjSF1uMiljKGMyMyluW2NIXW4zW0NIMl1DNChbQ0gyXVtPSF0pW0NIMl1PW0NIMl00

> <s_epik_cmdline>
J2VwaWtfcHl0aG9uJywgJy1waCcsICc3LjAnLCAnLXRuJywgJzgnLCAnLW1hJywgJzIwMCcsICctbWV0YWxfYmluZGluZycsICctaW1hZScsICc8aW5maWxlLm1hZT4nLCAnLW9tYWUnLCAnPG91dGZpbGUubWFlPic=

> <r_lp_tautomer_probability>
1

> <r_epik_Ionization_Penalty>
0.00515943

> <r_epik_Ionization_Penalty_Charging>
0.00509693

> <r_epik_Ionization_Penalty_Neutral>
6.25007e-05

> <r_epik_State_Penalty>
-0

> <r_epik_Charging_Adjusted_Penalty>
0.00509693

> <i_epik_Tot_Q>
1

> <i_epik_Tot_abs_Q>
1

> <r_epik_Metal_State_Penalty>
-0

> <b_epik_Metal_Only>
0

> <s_lp_Force_Field>
OPLS_2005

> <r_lp_Energy>
48.7837

> <b_lp_Chiralities_Consistent>
1

> <s_lp_Variant>
AV-unprocessed.smi:79-2

> <Gold.Version>
5.8.1

> <Gold.Id.Protein>
6NUR|6NUR_protein|mol2

> <Gold.PLP.Fitness>
47.6933

> <Gold.PLP.PLP>
-34.7204

> <Gold.PLP.part.hbond>
-6.8943

> <Gold.PLP.part.metal>
0.0000

> <Gold.PLP.part.buried>
-4.1051

> <Gold.PLP.part.nonpolar>
-23.9536

> <Gold.PLP.part.repulsive>
0.0466

> <Gold.PLP.ligand.clash>
0.0000

> <Gold.PLP.ligand.torsion>
0.6513

> <Gold.PLP.Chemscore.Hbond>
4.4240

> <Gold.PLP.Chemscore.CHOScore>
0.0000

> <Gold.PLP.Chemscore.Metal>
0.0000

> <Gold.Chemscore.Hbonds>
donor molecule, donor type, donor heavy atom, donor atom, acceptor molecule, acceptor atom, score
      L1  H     3    32       P1  8028  1.00
      L1  H     5    56       P1  8028  2.00
      P1  H  6931  6943       L1    23  0.98
      P1  H  6934  6947       L1    23  0.43

> <Gold.PLP.Chemscore.Internal.Correction>
1.0034

> <Gold.Rescore>
     Score         DG    S(hbond)    S(metal)    S(lipo)     H(rot)  DE(clash)    DE(int)     intcor
     11.47     -15.06       2.84        0.00      82.36       3.72       0.90       2.69       ----

> <Gold.Chemscore.Fitness>
11.4667

> <Gold.Chemscore.DG>
-15.0574

> <Gold.Chemscore.ZeroCoef>
-5.4800

> <Gold.Chemscore.Hbond>
2.8357

> <Gold.Chemscore.Metal>
0.0000

> <Gold.Chemscore.Lipo>
82.3588

> <Gold.Chemscore.Internal_Hbond>
0.0000

> <Gold.Chemscore.DEClash>
0.8975

> <Gold.Chemscore.DEInternal>
2.6932

> <Gold.Chemscore.Rot>
3.7226

> <Gold.Chemscore.Internal.Correction>
   9.000000E+99

> <Gold.Chemscore.Hbonds>
donor molecule, donor type, donor heavy atom, donor atom, acceptor molecule, acceptor atom, score
      L1  H     3    32       P1  8028  0.25
      L1  H     5    56       P1  8028  0.97
      P1  H  6931  6943       L1    23  0.93
      P1  H  6934  6947       L1    23  0.03

> <Gold.Chemscore.Hbond.Weighted>
-9.4712

> <Gold.Chemscore.Metal.Weighted>
-0.0000

> <Gold.Chemscore.Lipo.Weighted>
-9.6360

> <Gold.Chemscore.Internal_Hbond.Weighted>
0.0000

> <Gold.Chemscore.DEClash.Weighted>
0.8975

> <Gold.Chemscore.DEInternal.Weighted>
2.6932

> <Gold.Chemscore.Rot.Weighted>
9.5298

> <Gold.Chemscore.Internal.Correction.Weighted>
   9.000000E+99

> <Gold.Protein.RotatedTorsions>
[ 6907 6896 6895 6894 ] final   76.86 input  -60.11 | X-H torsion
[ 7974 7965 7964 7962 ] final  138.05 input  175.53 | X-H torsion
[ 8008 7997 7996 7995 ] final    3.73 input   59.86 | X-H torsion
[ 10167 10162 10161 10158 ] final  103.95 input  -65.29 | X-H torsion
[ 10718 10713 10712 10709 ] final  -37.79 input   66.30 | X-H torsion
[ 10763 10752 10751 10750 ] final   33.55 input  -60.55 | X-H torsion
[ 11005 11000 10999 10996 ] final -144.96 input  -57.11 | X-H torsion

> <Gold.Protein.ActiveResidues>
 VAL166  LYS551  ARG553  GLY616  TRP617  ASP618  TYR619  PRO620  LYS621  CYS622 
 ASP623  PHE694  ASN695  SER759  ASP760  ASP761  ALA762  ILE779  LEU786  VAL792 
 PHE793  MET794  SER795  GLU796  ALA797  LYS798  CYS799  TRP800  GLU811  SER814 

> <Gold.Protein.RotatedAtoms>
  152.5092  134.3904  159.9381 H   0  0  0  0  0  0  0  0  0  0  0  0  # atno 6907 bound_to 6896
  151.3864  133.3797  159.2723 H   0  0  0  0  0  0  0  0  0  0  0  0  # atno 6908 bound_to 6896
  150.9465  134.8890  159.7704 H   0  0  0  0  0  0  0  0  0  0  0  0  # atno 6909 bound_to 6896
  144.9409  139.4932  143.5572 H   0  0  0  0  0  0  0  0  0  0  0  0  # atno 7974 bound_to 7965
  154.7073  140.2685  155.6662 H   0  0  0  0  0  0  0  0  0  0  0  0  # atno 8008 bound_to 7997
  156.2784  140.2760  156.1627 H   0  0  0  0  0  0  0  0  0  0  0  0  # atno 8009 bound_to 7997
  155.0683  140.0372  157.2590 H   0  0  0  0  0  0  0  0  0  0  0  0  # atno 8010 bound_to 7997
  139.7219  144.7056  151.0859 H   0  0  0  0  0  0  0  0  0  0  0  0  # atno 10167 bound_to 10162
  156.3111  130.4253  149.8049 H   0  0  0  0  0  0  0  0  0  0  0  0  # atno 10718 bound_to 10713
  153.0206  135.6384  154.1529 H   0  0  0  0  0  0  0  0  0  0  0  0  # atno 10763 bound_to 10752
  154.1264  135.2843  155.3197 H   0  0  0  0  0  0  0  0  0  0  0  0  # atno 10764 bound_to 10752
  154.6226  135.5519  153.7654 H   0  0  0  0  0  0  0  0  0  0  0  0  # atno 10765 bound_to 10752
  140.7971  134.2901  157.4992 H   0  0  0  0  0  0  0  0  0  0  0  0  # atno 11005 bound_to 11000
  146.3285  139.8428  142.8887 LP  0  0  0  0  0  0  0  0  0  0  0  0  # atno 17320 bound_to 7965
  145.2992  141.0189  143.3618 LP  0  0  0  0  0  0  0  0  0  0  0  0  # atno 17321 bound_to 7965
  140.7755  143.5155  150.9600 LP  0  0  0  0  0  0  0  0  0  0  0  0  # atno 17342 bound_to 10162
  139.8842  143.7034  152.3153 LP  0  0  0  0  0  0  0  0  0  0  0  0  # atno 17343 bound_to 10162
  156.5392  130.8292  151.3263 LP  0  0  0  0  0  0  0  0  0  0  0  0  # atno 17370 bound_to 10713
  157.7391  130.9826  150.2294 LP  0  0  0  0  0  0  0  0  0  0  0  0  # atno 17371 bound_to 10713
  139.8725  134.9408  156.3779 LP  0  0  0  0  0  0  0  0  0  0  0  0  # atno 17394 bound_to 11000
  140.9332  133.7565  156.0051 LP  0  0  0  0  0  0  0  0  0  0  0  0  # atno 17395 bound_to 11000

$$$$
