AV-unprocessed.smi:1342|AV-procd|sdf|5507|dock3
  -GOLD-   22720 5 93D 1   1.00000     0.00000
 Structure written by MMmdl.
 37 37  0  0  0  0  0  0  0  0  1 V2000
  146.9419  139.4447  152.2146 C   0  0  0  0  0  0  0  0  0  0  0  0
  147.7536  140.1734  153.2943 C   0  0  0  0  0  0  0  0  0  0  0  0
  148.8637  139.3586  153.7740 N   0  0  0  0  0  0  0  0  0  0  0  0
  149.9513  139.8325  154.4002 C   0  0  0  0  0  0  0  0  0  0  0  0
  150.1144  141.0266  154.6576 O   0  0  0  0  0  0  0  0  0  0  0  0
  151.0030  138.7959  154.8141 C   0  0  0  0  0  0  0  0  0  0  0  0
  151.1170  138.7021  156.2656 N   0  0  0  0  0  0  0  0  0  0  0  0
  152.1569  139.1503  156.9884 C   0  0  0  0  0  0  0  0  0  0  0  0
  153.1975  139.5756  156.4866 O   0  0  0  0  0  0  0  0  0  0  0  0
  151.9883  139.1399  158.5106 C   0  0  0  0  0  0  0  0  0  0  0  0
  152.3246  140.4895  159.0834 C   0  0  0  0  0  0  0  0  0  0  0  0
  153.2498  140.7613  160.0606 C   0  0  0  0  0  0  0  0  0  0  0  0
  153.2813  142.4535  160.4749 S   0  0  0  0  0  0  0  0  0  0  0  0
  152.0199  142.7401  159.2814 C   0  0  0  0  0  0  0  0  0  0  0  0
  151.4144  144.0847  159.0293 C   0  0  0  0  0  0  0  0  0  0  0  0
  151.7285  144.5972  157.6157 C   0  0  0  0  0  0  0  0  0  0  0  0
  151.7706  145.0948  160.1295 C   0  0  0  0  0  0  0  0  0  0  0  0
  151.6510  141.6314  158.6348 N   0  0  0  0  0  0  0  0  0  0  0  0
  146.0969  140.0524  151.8908 H   0  0  0  0  0  0  0  0  0  0  0  0
  146.5477  138.4992  152.5882 H   0  0  0  0  0  0  0  0  0  0  0  0
  147.5501  139.2304  151.3353 H   0  0  0  0  0  0  0  0  0  0  0  0
  148.1220  141.1271  152.9136 H   0  0  0  0  0  0  0  0  0  0  0  0
  147.1104  140.4055  154.1433 H   0  0  0  0  0  0  0  0  0  0  0  0
  148.8066  138.3642  153.6075 H   0  0  0  0  0  0  0  0  0  0  0  0
  150.7031  137.8222  154.4268 H   0  0  0  0  0  0  0  0  0  0  0  0
  151.9705  139.0292  154.3656 H   0  0  0  0  0  0  0  0  0  0  0  0
  150.3037  138.3701  156.7633 H   0  0  0  0  0  0  0  0  0  0  0  0
  150.9621  138.8588  158.7498 H   0  0  0  0  0  0  0  0  0  0  0  0
  152.6310  138.3721  158.9434 H   0  0  0  0  0  0  0  0  0  0  0  0
  153.9018  140.0685  160.5718 H   0  0  0  0  0  0  0  0  0  0  0  0
  150.3334  143.9483  159.0745 H   0  0  0  0  0  0  0  0  0  0  0  0
  151.3902  143.8903  156.8575 H   0  0  0  0  0  0  0  0  0  0  0  0
  152.8001  144.7442  157.4767 H   0  0  0  0  0  0  0  0  0  0  0  0
  151.2350  145.5501  157.4237 H   0  0  0  0  0  0  0  0  0  0  0  0
  151.4624  144.7313  161.1103 H   0  0  0  0  0  0  0  0  0  0  0  0
  151.2743  146.0506  159.9605 H   0  0  0  0  0  0  0  0  0  0  0  0
  152.8448  145.2801  160.1647 H   0  0  0  0  0  0  0  0  0  0  0  0
  1  2  1  0  0  0  0
  1 19  1  0  0  0  0
  1 20  1  0  0  0  0
  1 21  1  0  0  0  0
  2  3  1  0  0  0  0
  2 22  1  0  0  0  0
  2 23  1  0  0  0  0
  3  4  1  0  0  0  0
  3 24  1  0  0  0  0
  4  5  2  0  0  0  0
  4  6  1  0  0  0  0
  6  7  1  0  0  0  0
  6 25  1  0  0  0  0
  6 26  1  0  0  0  0
  7  8  1  0  0  0  0
  7 27  1  0  0  0  0
  8  9  2  0  0  0  0
  8 10  1  0  0  0  0
 10 11  1  0  0  0  0
 10 28  1  0  0  0  0
 10 29  1  0  0  0  0
 11 18  1  0  0  0  0
 11 12  2  0  0  0  0
 12 13  1  0  0  0  0
 12 30  1  0  0  0  0
 13 14  1  0  0  0  0
 14 15  1  0  0  0  0
 14 18  2  0  0  0  0
 15 16  1  0  0  0  0
 15 17  1  0  0  0  0
 15 31  1  0  0  0  0
 16 32  1  0  0  0  0
 16 33  1  0  0  0  0
 16 34  1  0  0  0  0
 17 35  1  0  0  0  0
 17 36  1  0  0  0  0
 17 37  1  0  0  0  0
M  END
> <s_m_source_file>
AV-unprocessed.smi

> <i_m_source_file_index>
1342

> <i_lp_mmshare_version>
43012

> <i_f3d_flags>
0

> <s_epik_input>
W0NIM11bQ0gyXVtOSF1DKD1PKVtDSDJdW05IXUMoPU8pW0NIMl1jMVtjSF1zYyhuMSlbQ0hdKFtDSDNdKVtDSDNd

> <s_epik_cmdline>
J2VwaWtfcHl0aG9uJywgJy1waCcsICc3LjAnLCAnLXRuJywgJzgnLCAnLW1hJywgJzIwMCcsICctbWV0YWxfYmluZGluZycsICctaW1hZScsICc8aW5maWxlLm1hZT4nLCAnLW9tYWUnLCAnPG91dGZpbGUubWFlPic=

> <r_lp_tautomer_probability>
1

> <r_epik_Ionization_Penalty>
2.79632e-05

> <r_epik_Ionization_Penalty_Charging>
0

> <r_epik_Ionization_Penalty_Neutral>
2.79632e-05

> <r_epik_State_Penalty>
-0

> <r_epik_Charging_Adjusted_Penalty>
0

> <i_epik_Tot_Q>
0

> <i_epik_Tot_abs_Q>
0

> <r_epik_Metal_State_Penalty>
-0

> <b_epik_Metal_Only>
0

> <s_lp_Force_Field>
OPLS_2005

> <r_lp_Energy>
-9.53287

> <b_lp_Chiralities_Consistent>
1

> <s_lp_Variant>
AV-unprocessed.smi:1342-1

> <Gold.Version>
5.8.1

> <Gold.Id.Protein>
6NUR|6NUR_protein|mol2

> <Gold.PLP.Fitness>
43.9291

> <Gold.PLP.PLP>
-39.3141

> <Gold.PLP.part.hbond>
-2.6865

> <Gold.PLP.part.metal>
0.0000

> <Gold.PLP.part.buried>
-4.1492

> <Gold.PLP.part.nonpolar>
-33.0391

> <Gold.PLP.part.repulsive>
0.1586

> <Gold.PLP.ligand.clash>
0.0000

> <Gold.PLP.ligand.torsion>
0.5211

> <Gold.PLP.Chemscore.Hbond>
1.8320

> <Gold.PLP.Chemscore.CHOScore>
0.0000

> <Gold.PLP.Chemscore.Metal>
0.0000

> <Gold.Chemscore.Hbonds>
donor molecule, donor type, donor heavy atom, donor atom, acceptor molecule, acceptor atom, score
      P1  H  7989  7998       L1     5  0.16
      P1  H  7997  8009       L1     9  0.34

> <Gold.PLP.Chemscore.Internal.Correction>
0.1611

> <Gold.Rescore>
     Score         DG    S(hbond)    S(metal)    S(lipo)     H(rot)  DE(clash)    DE(int)     intcor
     17.93     -18.61       1.92        0.00     103.21       2.10       0.19       0.49       ----

> <Gold.Chemscore.Fitness>
17.9328

> <Gold.Chemscore.DG>
-18.6116

> <Gold.Chemscore.ZeroCoef>
-5.4800

> <Gold.Chemscore.Hbond>
1.9235

> <Gold.Chemscore.Metal>
0.0000

> <Gold.Chemscore.Lipo>
103.2112

> <Gold.Chemscore.Internal_Hbond>
0.0000

> <Gold.Chemscore.DEClash>
0.1853

> <Gold.Chemscore.DEInternal>
0.4935

> <Gold.Chemscore.Rot>
2.0970

> <Gold.Chemscore.Internal.Correction>
   9.000000E+99

> <Gold.Chemscore.Hbonds>
donor molecule, donor type, donor heavy atom, donor atom, acceptor molecule, acceptor atom, score
      P1  H  7997  8009       L1     9  0.33

> <Gold.Chemscore.Hbond.Weighted>
-6.4244

> <Gold.Chemscore.Metal.Weighted>
-0.0000

> <Gold.Chemscore.Lipo.Weighted>
-12.0757

> <Gold.Chemscore.Internal_Hbond.Weighted>
0.0000

> <Gold.Chemscore.DEClash.Weighted>
0.1853

> <Gold.Chemscore.DEInternal.Weighted>
0.4935

> <Gold.Chemscore.Rot.Weighted>
5.3684

> <Gold.Chemscore.Internal.Correction.Weighted>
   9.000000E+99

> <Gold.Protein.RotatedTorsions>
[ 6907 6896 6895 6894 ] final  139.82 input  -60.11 | X-H torsion
[ 7974 7965 7964 7962 ] final -178.72 input  175.53 | X-H torsion
[ 8008 7997 7996 7995 ] final -163.55 input   59.86 | X-H torsion
[ 10167 10162 10161 10158 ] final -129.86 input  -65.29 | X-H torsion
[ 10718 10713 10712 10709 ] final   27.80 input   66.30 | X-H torsion
[ 10763 10752 10751 10750 ] final -167.13 input  -60.55 | X-H torsion
[ 11005 11000 10999 10996 ] final  -16.27 input  -57.11 | X-H torsion

> <Gold.Protein.ActiveResidues>
 VAL166  LYS551  ARG553  GLY616  TRP617  ASP618  TYR619  PRO620  LYS621  CYS622 
 ASP623  PHE694  ASN695  SER759  ASP760  ASP761  ALA762  ILE779  LEU786  VAL792 
 PHE793  MET794  SER795  GLU796  ALA797  LYS798  CYS799  TRP800  GLU811  SER814 

> <Gold.Protein.RotatedAtoms>
  152.2504  133.5210  159.5321 H   0  0  0  0  0  0  0  0  0  0  0  0  # atno 6907 bound_to 6896
  150.7092  134.0967  159.3960 H   0  0  0  0  0  0  0  0  0  0  0  0  # atno 6908 bound_to 6896
  151.8887  135.0425  160.0546 H   0  0  0  0  0  0  0  0  0  0  0  0  # atno 6909 bound_to 6896
  144.7132  140.0826  143.6425 H   0  0  0  0  0  0  0  0  0  0  0  0  # atno 7974 bound_to 7965
  155.8229  140.0922  157.1838 H   0  0  0  0  0  0  0  0  0  0  0  0  # atno 8008 bound_to 7997
  154.3979  140.1433  156.3582 H   0  0  0  0  0  0  0  0  0  0  0  0  # atno 8009 bound_to 7997
  155.8247  140.3445  155.5538 H   0  0  0  0  0  0  0  0  0  0  0  0  # atno 8010 bound_to 7997
  139.9353  143.6225  152.2518 H   0  0  0  0  0  0  0  0  0  0  0  0  # atno 10167 bound_to 10162
  157.2250  130.6997  149.6287 H   0  0  0  0  0  0  0  0  0  0  0  0  # atno 10718 bound_to 10713
  154.6763  135.2947  154.9673 H   0  0  0  0  0  0  0  0  0  0  0  0  # atno 10763 bound_to 10752
  154.0683  135.6621  153.4825 H   0  0  0  0  0  0  0  0  0  0  0  0  # atno 10764 bound_to 10752
  153.0519  135.5169  154.7784 H   0  0  0  0  0  0  0  0  0  0  0  0  # atno 10765 bound_to 10752
  140.8051  133.8184  155.9508 H   0  0  0  0  0  0  0  0  0  0  0  0  # atno 11005 bound_to 11000
  145.9689  139.2855  143.1111 LP  0  0  0  0  0  0  0  0  0  0  0  0  # atno 17320 bound_to 7965
  145.9139  140.9162  143.0440 LP  0  0  0  0  0  0  0  0  0  0  0  0  # atno 17321 bound_to 7965
  139.6748  144.7659  151.1715 LP  0  0  0  0  0  0  0  0  0  0  0  0  # atno 17342 bound_to 10162
  140.7626  143.5811  150.8894 LP  0  0  0  0  0  0  0  0  0  0  0  0  # atno 17343 bound_to 10162
  155.9679  130.4507  150.5708 LP  0  0  0  0  0  0  0  0  0  0  0  0  # atno 17370 bound_to 10713
  157.3536  131.0738  151.1693 LP  0  0  0  0  0  0  0  0  0  0  0  0  # atno 17371 bound_to 10713
  140.9255  134.2088  157.4898 LP  0  0  0  0  0  0  0  0  0  0  0  0  # atno 17394 bound_to 11000
  139.8718  134.9810  156.5101 LP  0  0  0  0  0  0  0  0  0  0  0  0  # atno 17395 bound_to 11000

$$$$
