AV-unprocessed.smi:1304|AV-procd|sdf|5430|dock10
  -GOLD-   22720 4593D 1   1.00000     0.00000
 Structure written by MMmdl.
 47 48  0  0  0  0  0  0  0  0  1 V2000
  151.6533  136.9446  156.3688 C   0  0  0  0  0  0  0  0  0  0  0  0
  150.5270  137.4429  155.4469 C   0  0  0  0  0  0  0  0  0  0  0  0
  149.0735  137.2165  155.9805 C   0  0  2  0  0  0  0  0  0  0  0  0
  149.0589  137.7146  157.4503 C   0  0  0  0  0  0  0  0  0  0  0  0
  148.7844  135.6805  155.9988 C   0  0  0  0  0  0  0  0  0  0  0  0
  147.8244  135.2900  157.0233 N   0  0  0  0  0  0  0  0  0  0  0  0
  148.1032  134.5814  158.1277 C   0  0  0  0  0  0  0  0  0  0  0  0
  149.2248  134.1382  158.3702 O   0  0  0  0  0  0  0  0  0  0  0  0
  146.9602  134.3328  159.1276 C   0  0  0  0  0  0  0  0  0  0  0  0
  147.1864  134.9006  160.4701 N   0  0  0  0  0  0  0  0  0  0  0  0
  147.3073  133.9892  161.5381 C   0  0  0  0  0  0  0  0  0  0  0  0
  147.4877  134.3981  162.8038 C   0  0  0  0  0  0  0  0  0  0  0  0
  147.5602  135.8173  163.0586 C   0  0  0  0  0  0  0  0  0  0  0  0
  147.4432  136.6981  162.0451 C   0  0  0  0  0  0  0  0  0  0  0  0
  147.2393  136.2557  160.6610 C   0  0  0  0  0  0  0  0  0  0  0  0
  147.1115  137.0535  159.7324 O   0  0  0  0  0  0  0  0  0  0  0  0
  148.0678  137.9250  155.1334 N   0  0  0  0  0  0  0  0  0  0  0  0
  148.3891  139.3254  154.8253 C   0  0  0  0  0  0  0  0  0  0  0  0
  147.2602  140.0295  154.0532 C   0  0  0  0  0  0  0  0  0  0  0  0
  146.9703  139.3100  152.8619 O   0  0  0  0  0  0  0  0  0  0  0  0
  146.5839  137.9677  153.1252 C   0  0  0  0  0  0  0  0  0  0  0  0
  147.7103  137.2437  153.8815 C   0  0  0  0  0  0  0  0  0  0  0  0
  152.6253  137.0990  155.9005 H   0  0  0  0  0  0  0  0  0  0  0  0
  151.5588  135.8801  156.5828 H   0  0  0  0  0  0  0  0  0  0  0  0
  151.6646  137.4800  157.3180 H   0  0  0  0  0  0  0  0  0  0  0  0
  150.7010  138.5006  155.2483 H   0  0  0  0  0  0  0  0  0  0  0  0
  150.6491  136.9878  154.4650 H   0  0  0  0  0  0  0  0  0  0  0  0
  149.8181  137.2129  158.0512 H   0  0  0  0  0  0  0  0  0  0  0  0
  148.1025  137.5270  157.9380 H   0  0  0  0  0  0  0  0  0  0  0  0
  149.2654  138.7815  157.5263 H   0  0  0  0  0  0  0  0  0  0  0  0
  148.3665  135.3493  155.0481 H   0  0  0  0  0  0  0  0  0  0  0  0
  149.7111  135.1226  156.1432 H   0  0  0  0  0  0  0  0  0  0  0  0
  146.8761  135.6130  156.8978 H   0  0  0  0  0  0  0  0  0  0  0  0
  146.0432  134.7386  158.6982 H   0  0  0  0  0  0  0  0  0  0  0  0
  146.7864  133.2575  159.1961 H   0  0  0  0  0  0  0  0  0  0  0  0
  147.2342  132.9466  161.2635 H   0  0  0  0  0  0  0  0  0  0  0  0
  147.5730  133.6848  163.6105 H   0  0  0  0  0  0  0  0  0  0  0  0
  147.7085  136.1750  164.0670 H   0  0  0  0  0  0  0  0  0  0  0  0
  147.4991  137.7562  162.2548 H   0  0  0  0  0  0  0  0  0  0  0  0
  148.5613  139.8975  155.7345 H   0  0  0  0  0  0  0  0  0  0  0  0
  149.3041  139.3813  154.2355 H   0  0  0  0  0  0  0  0  0  0  0  0
  146.3620  140.1086  154.6675 H   0  0  0  0  0  0  0  0  0  0  0  0
  147.5587  141.0446  153.7907 H   0  0  0  0  0  0  0  0  0  0  0  0
  145.6583  137.9530  153.7030 H   0  0  0  0  0  0  0  0  0  0  0  0
  146.3790  137.4645  152.1801 H   0  0  0  0  0  0  0  0  0  0  0  0
  148.5793  137.1710  153.2278 H   0  0  0  0  0  0  0  0  0  0  0  0
  147.3682  136.2286  154.0706 H   0  0  0  0  0  0  0  0  0  0  0  0
  1  2  1  0  0  0  0
  1 23  1  0  0  0  0
  1 24  1  0  0  0  0
  1 25  1  0  0  0  0
  2  3  1  0  0  0  0
  2 26  1  0  0  0  0
  2 27  1  0  0  0  0
  3  4  1  0  0  0  0
  3  5  1  0  0  0  0
  3 17  1  0  0  0  0
  4 28  1  0  0  0  0
  4 29  1  0  0  0  0
  4 30  1  0  0  0  0
  5  6  1  0  0  0  0
  5 31  1  0  0  0  0
  5 32  1  0  0  0  0
  6  7  1  0  0  0  0
  6 33  1  0  0  0  0
  7  8  2  0  0  0  0
  7  9  1  0  0  0  0
  9 10  1  0  0  0  0
  9 34  1  0  0  0  0
  9 35  1  0  0  0  0
 10 15  1  0  0  0  0
 10 11  1  0  0  0  0
 11 12  2  0  0  0  0
 11 36  1  0  0  0  0
 12 13  1  0  0  0  0
 12 37  1  0  0  0  0
 13 14  2  0  0  0  0
 13 38  1  0  0  0  0
 14 15  1  0  0  0  0
 14 39  1  0  0  0  0
 15 16  2  0  0  0  0
 17 22  1  0  0  0  0
 17 18  1  0  0  0  0
 18 19  1  0  0  0  0
 18 40  1  0  0  0  0
 18 41  1  0  0  0  0
 19 20  1  0  0  0  0
 19 42  1  0  0  0  0
 19 43  1  0  0  0  0
 20 21  1  0  0  0  0
 21 22  1  0  0  0  0
 21 44  1  0  0  0  0
 21 45  1  0  0  0  0
 22 46  1  0  0  0  0
 22 47  1  0  0  0  0
M  END
> <s_m_source_file>
AV-unprocessed.smi

> <i_m_source_file_index>
1304

> <i_lp_mmshare_version>
43012

> <i_f3d_flags>
0

> <s_epik_input>
W0NIMl0xW0NIMl1PW0NIMl1bQ0gyXU4xW0NAQF0oW0NIM10pKFtDSDJdW0NIM10pW0NIMl1bTkhdQyg9TylbQ0gyXW4yW2NIXVtjSF1bY0hdW2NIXWMyPU8=

> <s_epik_cmdline>
J2VwaWtfcHl0aG9uJywgJy1waCcsICc3LjAnLCAnLXRuJywgJzgnLCAnLW1hJywgJzIwMCcsICctbWV0YWxfYmluZGluZycsICctaW1hZScsICc8aW5maWxlLm1hZT4nLCAnLW9tYWUnLCAnPG91dGZpbGUubWFlPic=

> <r_lp_tautomer_probability>
1

> <r_epik_Ionization_Penalty>
0.318667

> <r_epik_Ionization_Penalty_Charging>
3.55364e-07

> <r_epik_Ionization_Penalty_Neutral>
0.318667

> <r_epik_State_Penalty>
0.313095

> <r_epik_Charging_Adjusted_Penalty>
0.313095

> <i_epik_Tot_Q>
0

> <i_epik_Tot_abs_Q>
0

> <r_epik_Metal_State_Penalty>
0.313065

> <b_epik_Metal_Only>
0

> <s_lp_Force_Field>
OPLS_2005

> <r_lp_Energy>
51.8872

> <b_lp_Chiralities_Consistent>
1

> <s_lp_Variant>
AV-unprocessed.smi:1304-2

> <Gold.Version>
5.8.1

> <Gold.Id.Protein>
6NUR|6NUR_protein|mol2

> <Gold.PLP.Fitness>
40.9387

> <Gold.PLP.PLP>
-34.8219

> <Gold.PLP.part.hbond>
-4.1612

> <Gold.PLP.part.metal>
0.0000

> <Gold.PLP.part.buried>
-3.6547

> <Gold.PLP.part.nonpolar>
-28.1724

> <Gold.PLP.part.repulsive>
0.1770

> <Gold.PLP.ligand.clash>
0.0000

> <Gold.PLP.ligand.torsion>
0.9610

> <Gold.PLP.Chemscore.Hbond>
2.6426

> <Gold.PLP.Chemscore.CHOScore>
0.0000

> <Gold.PLP.Chemscore.Metal>
0.0000

> <Gold.Chemscore.Hbonds>
donor molecule, donor type, donor heavy atom, donor atom, acceptor molecule, acceptor atom, score
      P1  H  6896  6908       L1     8  1.00
      P1  H  6934  6947       L1    16  0.34

> <Gold.PLP.Chemscore.Internal.Correction>
0.1108

> <Gold.Rescore>
     Score         DG    S(hbond)    S(metal)    S(lipo)     H(rot)  DE(clash)    DE(int)     intcor
     17.19     -18.54       2.58        0.00      80.58       1.95       0.00       1.34       ----

> <Gold.Chemscore.Fitness>
17.1924

> <Gold.Chemscore.DG>
-18.5361

> <Gold.Chemscore.ZeroCoef>
-5.4800

> <Gold.Chemscore.Hbond>
2.5821

> <Gold.Chemscore.Metal>
0.0000

> <Gold.Chemscore.Lipo>
80.5799

> <Gold.Chemscore.Internal_Hbond>
0.0000

> <Gold.Chemscore.DEClash>
0.0038

> <Gold.Chemscore.DEInternal>
1.3400

> <Gold.Chemscore.Rot>
1.9515

> <Gold.Chemscore.Internal.Correction>
   9.000000E+99

> <Gold.Chemscore.Hbonds>
donor molecule, donor type, donor heavy atom, donor atom, acceptor molecule, acceptor atom, score
      P1  H  6896  6908       L1     8  0.99
      P1  H  6934  6947       L1    16  0.08

> <Gold.Chemscore.Hbond.Weighted>
-8.6241

> <Gold.Chemscore.Metal.Weighted>
-0.0000

> <Gold.Chemscore.Lipo.Weighted>
-9.4279

> <Gold.Chemscore.Internal_Hbond.Weighted>
0.0000

> <Gold.Chemscore.DEClash.Weighted>
0.0038

> <Gold.Chemscore.DEInternal.Weighted>
1.3400

> <Gold.Chemscore.Rot.Weighted>
4.9958

> <Gold.Chemscore.Internal.Correction.Weighted>
   9.000000E+99

> <Gold.Protein.RotatedTorsions>
[ 6907 6896 6895 6894 ] final  123.74 input  -60.11 | X-H torsion
[ 7974 7965 7964 7962 ] final  -35.58 input  175.53 | X-H torsion
[ 8008 7997 7996 7995 ] final -169.65 input   59.86 | X-H torsion
[ 10167 10162 10161 10158 ] final   78.03 input  -65.29 | X-H torsion
[ 10718 10713 10712 10709 ] final   35.09 input   66.30 | X-H torsion
[ 10763 10752 10751 10750 ] final  142.67 input  -60.55 | X-H torsion
[ 11005 11000 10999 10996 ] final  -76.54 input  -57.11 | X-H torsion

> <Gold.Protein.ActiveResidues>
 VAL166  LYS551  ARG553  GLY616  TRP617  ASP618  TYR619  PRO620  LYS621  CYS622 
 ASP623  PHE694  ASN695  SER759  ASP760  ASP761  ALA762  ILE779  LEU786  VAL792 
 PHE793  MET794  SER795  GLU796  ALA797  LYS798  CYS799  TRP800  GLU811  SER814 

> <Gold.Protein.RotatedAtoms>
  152.4137  133.7003  159.6419 H   0  0  0  0  0  0  0  0  0  0  0  0  # atno 6907 bound_to 6896
  150.8015  133.8579  159.3232 H   0  0  0  0  0  0  0  0  0  0  0  0  # atno 6908 bound_to 6896
  151.6315  135.1024  160.0174 H   0  0  0  0  0  0  0  0  0  0  0  0  # atno 6909 bound_to 6896
  146.0734  140.6176  142.8942 H   0  0  0  0  0  0  0  0  0  0  0  0  # atno 7974 bound_to 7965
  155.9079  140.1052  157.1301 H   0  0  0  0  0  0  0  0  0  0  0  0  # atno 8008 bound_to 7997
  154.4035  140.1280  156.4584 H   0  0  0  0  0  0  0  0  0  0  0  0  # atno 8009 bound_to 7997
  155.7345  140.3468  155.5077 H   0  0  0  0  0  0  0  0  0  0  0  0  # atno 8010 bound_to 7997
  139.9753  144.5865  150.7949 H   0  0  0  0  0  0  0  0  0  0  0  0  # atno 10167 bound_to 10162
  157.3184  130.7435  149.6769 H   0  0  0  0  0  0  0  0  0  0  0  0  # atno 10718 bound_to 10713
  153.9596  135.2961  155.3434 H   0  0  0  0  0  0  0  0  0  0  0  0  # atno 10763 bound_to 10752
  154.7382  135.5037  153.9080 H   0  0  0  0  0  0  0  0  0  0  0  0  # atno 10764 bound_to 10752
  153.0953  135.6719  153.9885 H   0  0  0  0  0  0  0  0  0  0  0  0  # atno 10765 bound_to 10752
  141.1654  133.6987  156.7684 H   0  0  0  0  0  0  0  0  0  0  0  0  # atno 11005 bound_to 11000
  144.7246  140.4484  143.6983 LP  0  0  0  0  0  0  0  0  0  0  0  0  # atno 17320 bound_to 7965
  145.6350  139.1541  143.2948 LP  0  0  0  0  0  0  0  0  0  0  0  0  # atno 17321 bound_to 7965
  140.7508  143.2961  151.3200 LP  0  0  0  0  0  0  0  0  0  0  0  0  # atno 17342 bound_to 10162
  139.6450  144.0467  152.2584 LP  0  0  0  0  0  0  0  0  0  0  0  0  # atno 17343 bound_to 10162
  155.9683  130.4230  150.4544 LP  0  0  0  0  0  0  0  0  0  0  0  0  # atno 17370 bound_to 10713
  157.2555  131.0555  151.2353 LP  0  0  0  0  0  0  0  0  0  0  0  0  # atno 17371 bound_to 10713
  140.2482  134.8561  157.3641 LP  0  0  0  0  0  0  0  0  0  0  0  0  # atno 17394 bound_to 11000
  140.1729  134.4586  155.7820 LP  0  0  0  0  0  0  0  0  0  0  0  0  # atno 17395 bound_to 11000

$$$$
