AV-unprocessed.smi:700|AV-procd|sdf|3407|dock10
  -GOLD-   22720 0383D 1   1.00000     0.00000
 Structure written by MMmdl.
 43 44  0  0  0  0  0  0  0  0  1 V2000
  153.5106  131.8856  165.3797 C   0  0  0  0  0  0  0  0  0  0  0  0
  154.0732  132.7069  164.2707 C   0  0  0  0  0  0  0  0  0  0  0  0
  154.6306  133.9528  164.2260 C   0  0  0  0  0  0  0  0  0  0  0  0
  154.9653  134.1233  162.8538 C   0  0  0  0  0  0  0  0  0  0  0  0
  155.6146  135.3108  162.1907 C   0  0  0  0  0  0  0  0  0  0  0  0
  154.6385  136.0724  161.2845 C   0  0  0  0  0  0  0  0  0  0  0  0
  153.9619  135.4849  160.4387 O   0  0  0  0  0  0  0  0  0  0  0  0
  154.5866  137.4009  161.4681 N   0  0  0  0  0  0  0  0  0  0  0  0
  153.7428  138.3214  160.7143 C   0  0  0  0  0  0  0  0  0  0  0  0
  154.1000  139.7883  161.0071 C   0  0  0  0  0  0  0  0  0  0  0  0
  153.1236  140.7757  160.3524 C   0  0  0  0  0  0  0  0  0  0  0  0
  153.2152  142.1824  160.9648 C   0  0  0  0  0  0  0  0  0  0  0  0
  152.2068  143.1775  160.3638 C   0  0  0  0  0  0  0  0  0  0  0  0
  152.6637  143.7735  159.0310 C   0  0  0  0  0  0  0  0  0  0  0  0
  151.7967  145.0213  158.8476 C   0  0  0  0  0  0  0  0  0  0  0  0
  151.4332  145.4947  160.2626 C   0  0  0  0  0  0  0  0  0  0  0  0
  151.9469  144.4175  161.2274 C   0  0  0  0  0  0  0  0  0  0  0  0
  154.6230  133.0675  162.1319 N   0  0  0  0  0  0  0  0  0  0  0  0
  154.0562  132.1561  163.0298 O   0  0  0  0  0  0  0  0  0  0  0  0
  153.2523  132.5113  166.2342 H   0  0  0  0  0  0  0  0  0  0  0  0
  154.2334  131.1405  165.7125 H   0  0  0  0  0  0  0  0  0  0  0  0
  152.6085  131.3641  165.0590 H   0  0  0  0  0  0  0  0  0  0  0  0
  154.7825  134.6356  165.0484 H   0  0  0  0  0  0  0  0  0  0  0  0
  156.0156  135.9925  162.9422 H   0  0  0  0  0  0  0  0  0  0  0  0
  156.4612  134.9836  161.5864 H   0  0  0  0  0  0  0  0  0  0  0  0
  155.1756  137.8044  162.1821 H   0  0  0  0  0  0  0  0  0  0  0  0
  153.8234  138.1126  159.6460 H   0  0  0  0  0  0  0  0  0  0  0  0
  152.7059  138.1291  160.9906 H   0  0  0  0  0  0  0  0  0  0  0  0
  154.1098  139.9519  162.0853 H   0  0  0  0  0  0  0  0  0  0  0  0
  155.1108  139.9968  160.6544 H   0  0  0  0  0  0  0  0  0  0  0  0
  153.3278  140.8334  159.2826 H   0  0  0  0  0  0  0  0  0  0  0  0
  152.1072  140.3942  160.4534 H   0  0  0  0  0  0  0  0  0  0  0  0
  153.0758  142.1244  162.0451 H   0  0  0  0  0  0  0  0  0  0  0  0
  154.2243  142.5668  160.8101 H   0  0  0  0  0  0  0  0  0  0  0  0
  151.2570  142.6671  160.1946 H   0  0  0  0  0  0  0  0  0  0  0  0
  153.7132  144.0655  159.0930 H   0  0  0  0  0  0  0  0  0  0  0  0
  152.5638  143.0719  158.2022 H   0  0  0  0  0  0  0  0  0  0  0  0
  152.3103  145.7920  158.2719 H   0  0  0  0  0  0  0  0  0  0  0  0
  150.8869  144.7606  158.3056 H   0  0  0  0  0  0  0  0  0  0  0  0
  151.8833  146.4622  160.4881 H   0  0  0  0  0  0  0  0  0  0  0  0
  150.3524  145.6100  160.3530 H   0  0  0  0  0  0  0  0  0  0  0  0
  151.2431  144.2200  162.0366 H   0  0  0  0  0  0  0  0  0  0  0  0
  152.8793  144.7569  161.6810 H   0  0  0  0  0  0  0  0  0  0  0  0
  1  2  1  0  0  0  0
  1 20  1  0  0  0  0
  1 21  1  0  0  0  0
  1 22  1  0  0  0  0
  2 19  1  0  0  0  0
  2  3  2  0  0  0  0
  3  4  1  0  0  0  0
  3 23  1  0  0  0  0
  4  5  1  0  0  0  0
  4 18  2  0  0  0  0
  5  6  1  0  0  0  0
  5 24  1  0  0  0  0
  5 25  1  0  0  0  0
  6  7  2  0  0  0  0
  6  8  1  0  0  0  0
  8  9  1  0  0  0  0
  8 26  1  0  0  0  0
  9 10  1  0  0  0  0
  9 27  1  0  0  0  0
  9 28  1  0  0  0  0
 10 11  1  0  0  0  0
 10 29  1  0  0  0  0
 10 30  1  0  0  0  0
 11 12  1  0  0  0  0
 11 31  1  0  0  0  0
 11 32  1  0  0  0  0
 12 13  1  0  0  0  0
 12 33  1  0  0  0  0
 12 34  1  0  0  0  0
 13 17  1  0  0  0  0
 13 14  1  0  0  0  0
 13 35  1  0  0  0  0
 14 15  1  0  0  0  0
 14 36  1  0  0  0  0
 14 37  1  0  0  0  0
 15 16  1  0  0  0  0
 15 38  1  0  0  0  0
 15 39  1  0  0  0  0
 16 17  1  0  0  0  0
 16 40  1  0  0  0  0
 16 41  1  0  0  0  0
 17 42  1  0  0  0  0
 17 43  1  0  0  0  0
 18 19  1  0  0  0  0
M  END
> <s_m_source_file>
AV-unprocessed.smi

> <i_m_source_file_index>
700

> <i_lp_mmshare_version>
43012

> <i_f3d_flags>
0

> <s_epik_input>
W0NIM11jMVtjSF1jKG5vMSlbQ0gyXUMoPU8pW05IXVtDSDJdW0NIMl1bQ0gyXVtDSDJdW0NIXTJbQ0gyXVtDSDJdW0NIMl1bQ0gyXTI=

> <s_epik_cmdline>
J2VwaWtfcHl0aG9uJywgJy1waCcsICc3LjAnLCAnLXRuJywgJzgnLCAnLW1hJywgJzIwMCcsICctbWV0YWxfYmluZGluZycsICctaW1hZScsICc8aW5maWxlLm1hZT4nLCAnLW9tYWUnLCAnPG91dGZpbGUubWFlPic=

> <r_lp_tautomer_probability>
1

> <r_epik_Ionization_Penalty>
7.08657e-08

> <r_epik_Ionization_Penalty_Charging>
0

> <r_epik_Ionization_Penalty_Neutral>
7.08657e-08

> <r_epik_State_Penalty>
-0

> <r_epik_Charging_Adjusted_Penalty>
0

> <i_epik_Tot_Q>
0

> <i_epik_Tot_abs_Q>
0

> <r_epik_Metal_State_Penalty>
-0

> <b_epik_Metal_Only>
0

> <s_lp_Force_Field>
OPLS_2005

> <r_lp_Energy>
19.5762

> <b_lp_Chiralities_Consistent>
1

> <s_lp_Variant>
AV-unprocessed.smi:700-1

> <Gold.Version>
5.8.1

> <Gold.Id.Protein>
6NUR|6NUR_protein|mol2

> <Gold.PLP.Fitness>
47.4426

> <Gold.PLP.PLP>
-45.3912

> <Gold.PLP.part.hbond>
-1.0000

> <Gold.PLP.part.metal>
0.0000

> <Gold.PLP.part.buried>
-5.3738

> <Gold.PLP.part.nonpolar>
-38.8343

> <Gold.PLP.part.repulsive>
0.0102

> <Gold.PLP.ligand.clash>
0.0000

> <Gold.PLP.ligand.torsion>
0.5037

> <Gold.PLP.Chemscore.Hbond>
1.0000

> <Gold.PLP.Chemscore.CHOScore>
0.0000

> <Gold.PLP.Chemscore.Metal>
0.0000

> <Gold.Chemscore.Hbonds>
donor molecule, donor type, donor heavy atom, donor atom, acceptor molecule, acceptor atom, score
      P1  H  6896  6909       L1     7  1.00

> <Gold.PLP.Chemscore.Internal.Correction>
0.0588

> <Gold.Rescore>
     Score         DG    S(hbond)    S(metal)    S(lipo)     H(rot)  DE(clash)    DE(int)     intcor
     19.11     -19.66       1.00        0.00     132.90       1.84       0.09       0.46       ----

> <Gold.Chemscore.Fitness>
19.1107

> <Gold.Chemscore.DG>
-19.6590

> <Gold.Chemscore.ZeroCoef>
-5.4800

> <Gold.Chemscore.Hbond>
1.0000

> <Gold.Chemscore.Metal>
0.0000

> <Gold.Chemscore.Lipo>
132.8999

> <Gold.Chemscore.Internal_Hbond>
0.0000

> <Gold.Chemscore.DEClash>
0.0871

> <Gold.Chemscore.DEInternal>
0.4612

> <Gold.Chemscore.Rot>
1.8399

> <Gold.Chemscore.Internal.Correction>
   9.000000E+99

> <Gold.Chemscore.Hbonds>
donor molecule, donor type, donor heavy atom, donor atom, acceptor molecule, acceptor atom, score
      P1  H  6896  6909       L1     7  0.99

> <Gold.Chemscore.Hbond.Weighted>
-3.3400

> <Gold.Chemscore.Metal.Weighted>
-0.0000

> <Gold.Chemscore.Lipo.Weighted>
-15.5493

> <Gold.Chemscore.Internal_Hbond.Weighted>
0.0000

> <Gold.Chemscore.DEClash.Weighted>
0.0871

> <Gold.Chemscore.DEInternal.Weighted>
0.4612

> <Gold.Chemscore.Rot.Weighted>
4.7103

> <Gold.Chemscore.Internal.Correction.Weighted>
   9.000000E+99

> <Gold.Protein.RotatedTorsions>
[ 6907 6896 6895 6894 ] final  168.78 input  -60.11 | X-H torsion
[ 7974 7965 7964 7962 ] final -142.87 input  175.53 | X-H torsion
[ 8008 7997 7996 7995 ] final   92.65 input   59.86 | X-H torsion
[ 10167 10162 10161 10158 ] final -131.44 input  -65.29 | X-H torsion
[ 10718 10713 10712 10709 ] final -141.97 input   66.30 | X-H torsion
[ 10763 10752 10751 10750 ] final  167.03 input  -60.55 | X-H torsion
[ 11005 11000 10999 10996 ] final  -51.17 input  -57.11 | X-H torsion

> <Gold.Protein.ActiveResidues>
 VAL166  LYS551  ARG553  GLY616  TRP617  ASP618  TYR619  PRO620  LYS621  CYS622 
 ASP623  PHE694  ASN695  SER759  ASP760  ASP761  ALA762  ILE779  LEU786  VAL792 
 PHE793  MET794  SER795  GLU796  ALA797  LYS798  CYS799  TRP800  GLU811  SER814 

> <Gold.Protein.RotatedAtoms>
  151.8422  133.3425  159.3646 H   0  0  0  0  0  0  0  0  0  0  0  0  # atno 6907 bound_to 6896
  150.7231  134.5380  159.5742 H   0  0  0  0  0  0  0  0  0  0  0  0  # atno 6908 bound_to 6896
  152.2856  134.7780  160.0439 H   0  0  0  0  0  0  0  0  0  0  0  0  # atno 6909 bound_to 6896
  144.8412  140.5905  143.5451 H   0  0  0  0  0  0  0  0  0  0  0  0  # atno 7974 bound_to 7965
  156.0378  140.3323  155.7210 H   0  0  0  0  0  0  0  0  0  0  0  0  # atno 8008 bound_to 7997
  155.5790  140.0635  157.2805 H   0  0  0  0  0  0  0  0  0  0  0  0  # atno 8009 bound_to 7997
  154.4380  140.1847  156.0945 H   0  0  0  0  0  0  0  0  0  0  0  0  # atno 8010 bound_to 7997
  139.9189  143.6405  152.2558 H   0  0  0  0  0  0  0  0  0  0  0  0  # atno 10167 bound_to 10162
  156.3403  130.7634  151.1769 H   0  0  0  0  0  0  0  0  0  0  0  0  # atno 10718 bound_to 10713
  154.3478  135.2753  155.2388 H   0  0  0  0  0  0  0  0  0  0  0  0  # atno 10763 bound_to 10752
  154.4630  135.5902  153.6272 H   0  0  0  0  0  0  0  0  0  0  0  0  # atno 10764 bound_to 10752
  152.9852  135.6069  154.3686 H   0  0  0  0  0  0  0  0  0  0  0  0  # atno 10765 bound_to 10752
  141.0856  133.6643  156.3838 H   0  0  0  0  0  0  0  0  0  0  0  0  # atno 11005 bound_to 11000
  145.4691  139.1505  143.3824 LP  0  0  0  0  0  0  0  0  0  0  0  0  # atno 17320 bound_to 7965
  146.2704  140.4824  142.8817 LP  0  0  0  0  0  0  0  0  0  0  0  0  # atno 17321 bound_to 7965
  139.6878  144.7650  151.1492 LP  0  0  0  0  0  0  0  0  0  0  0  0  # atno 17342 bound_to 10162
  140.7667  143.5632  150.9076 LP  0  0  0  0  0  0  0  0  0  0  0  0  # atno 17343 bound_to 10162
  157.7445  131.0456  150.4853 LP  0  0  0  0  0  0  0  0  0  0  0  0  # atno 17370 bound_to 10713
  156.5032  130.4122  149.6342 LP  0  0  0  0  0  0  0  0  0  0  0  0  # atno 17371 bound_to 10713
  140.5370  134.6157  157.5368 LP  0  0  0  0  0  0  0  0  0  0  0  0  # atno 17394 bound_to 11000
  139.9674  134.7349  156.0110 LP  0  0  0  0  0  0  0  0  0  0  0  0  # atno 17395 bound_to 11000

$$$$
