AV-unprocessed.smi:3145|AV-procd|sdf|11982|dock1
  -GOLD-   2272017383D 1   1.00000     0.00000
 Structure written by MMmdl.
 34 34  0  0  0  0  0  0  0  0  1 V2000
  143.7337  136.0945  153.0949 C   0  0  0  0  0  0  0  0  0  0  0  0
  145.0533  136.4674  152.4048 C   0  0  1  0  0  0  0  0  0  0  0  0
  145.1630  135.7924  151.0190 C   0  0  0  0  0  0  0  0  0  0  0  0
  145.0874  134.3430  151.0780 N   0  0  0  0  0  0  0  0  0  0  0  0
  144.0768  133.5208  150.6258 C   0  0  0  0  0  0  0  0  0  0  0  0
  144.4439  132.2352  150.9032 C   0  0  0  0  0  0  0  0  0  0  0  0
  145.7139  132.3741  151.5294 C   0  0  0  0  0  0  0  0  0  0  0  0
  146.0970  133.6364  151.6328 N   0  0  0  0  0  0  0  0  0  0  0  0
  145.0772  137.9199  152.2640 N   0  0  0  0  0  0  0  0  0  0  0  0
  146.3771  138.4161  151.7949 C   0  0  0  0  0  0  0  0  0  0  0  0
  147.1468  139.1021  152.9195 C   0  0  0  0  0  0  0  0  0  0  0  0
  146.6542  140.0610  153.5131 O   0  0  0  0  0  0  0  0  0  0  0  0
  148.3554  138.5960  153.2033 N   0  0  0  0  0  0  0  0  0  0  0  0
  149.2441  139.1088  154.2363 C   0  0  0  0  0  0  0  0  0  0  0  0
  150.5098  138.2503  154.3449 C   0  0  0  0  0  0  0  0  0  0  0  0
  151.6729  138.9935  154.8542 C   0  0  0  0  0  0  0  0  0  0  0  0
  152.5872  139.5780  155.2552 N   0  0  0  0  0  0  0  0  0  0  0  0
  143.6601  135.0162  153.2391 H   0  0  0  0  0  0  0  0  0  0  0  0
  142.8708  136.4089  152.5063 H   0  0  0  0  0  0  0  0  0  0  0  0
  143.6560  136.5607  154.0777 H   0  0  0  0  0  0  0  0  0  0  0  0
  145.8671  136.1273  153.0484 H   0  0  0  0  0  0  0  0  0  0  0  0
  144.3511  136.1358  150.3766 H   0  0  0  0  0  0  0  0  0  0  0  0
  146.0901  136.0834  150.5214 H   0  0  0  0  0  0  0  0  0  0  0  0
  143.1894  133.9156  150.1534 H   0  0  0  0  0  0  0  0  0  0  0  0
  143.8909  131.3325  150.6901 H   0  0  0  0  0  0  0  0  0  0  0  0
  146.3645  131.6001  151.9076 H   0  0  0  0  0  0  0  0  0  0  0  0
  144.8255  138.3472  153.1439 H   0  0  0  0  0  0  0  0  0  0  0  0
  146.9620  137.5864  151.3956 H   0  0  0  0  0  0  0  0  0  0  0  0
  146.2482  139.1341  150.9852 H   0  0  0  0  0  0  0  0  0  0  0  0
  148.6795  137.8082  152.6598 H   0  0  0  0  0  0  0  0  0  0  0  0
  149.5191  140.1360  153.9926 H   0  0  0  0  0  0  0  0  0  0  0  0
  148.7229  139.1339  155.1944 H   0  0  0  0  0  0  0  0  0  0  0  0
  150.3389  137.3925  154.9959 H   0  0  0  0  0  0  0  0  0  0  0  0
  150.7786  137.8595  153.3634 H   0  0  0  0  0  0  0  0  0  0  0  0
  1  2  1  0  0  0  0
  1 18  1  0  0  0  0
  1 19  1  0  0  0  0
  1 20  1  0  0  0  0
  2  3  1  0  0  0  0
  2  9  1  0  0  0  0
  2 21  1  0  0  0  0
  3  4  1  0  0  0  0
  3 22  1  0  0  0  0
  3 23  1  0  0  0  0
  4  8  1  0  0  0  0
  4  5  1  0  0  0  0
  5  6  2  0  0  0  0
  5 24  1  0  0  0  0
  6  7  1  0  0  0  0
  6 25  1  0  0  0  0
  7  8  2  0  0  0  0
  7 26  1  0  0  0  0
  9 10  1  0  0  0  0
  9 27  1  0  0  0  0
 10 11  1  0  0  0  0
 10 28  1  0  0  0  0
 10 29  1  0  0  0  0
 11 12  2  0  0  0  0
 11 13  1  0  0  0  0
 13 14  1  0  0  0  0
 13 30  1  0  0  0  0
 14 15  1  0  0  0  0
 14 31  1  0  0  0  0
 14 32  1  0  0  0  0
 15 16  1  0  0  0  0
 15 33  1  0  0  0  0
 15 34  1  0  0  0  0
 16 17  3  0  0  0  0
M  END
> <s_m_source_file>
AV-unprocessed.smi

> <i_m_source_file_index>
3145

> <i_lp_mmshare_version>
43012

> <i_f3d_flags>
0

> <s_epik_input>
bjFbY0hdW2NIXVtjSF1uMVtDSDJdW0NAQEhdKFtDSDNdKVtOSF1bQ0gyXUMoPU8pW05IXVtDSDJdW0NIMl1DI04=

> <s_epik_cmdline>
J2VwaWtfcHl0aG9uJywgJy1waCcsICc3LjAnLCAnLXRuJywgJzgnLCAnLW1hJywgJzIwMCcsICctbWV0YWxfYmluZGluZycsICctaW1hZScsICc8aW5maWxlLm1hZT4nLCAnLW9tYWUnLCAnPG91dGZpbGUubWFlPic=

> <r_lp_tautomer_probability>
1

> <r_epik_Ionization_Penalty>
0.765991

> <r_epik_Ionization_Penalty_Charging>
0

> <r_epik_Ionization_Penalty_Neutral>
0.765991

> <r_epik_State_Penalty>
0.794192

> <r_epik_Charging_Adjusted_Penalty>
0.794192

> <i_epik_Tot_Q>
0

> <i_epik_Tot_abs_Q>
0

> <r_epik_Metal_State_Penalty>
0.806127

> <b_epik_Metal_Only>
0

> <s_lp_Force_Field>
OPLS_2005

> <r_lp_Energy>
5.51507

> <b_lp_Chiralities_Consistent>
1

> <s_lp_Variant>
AV-unprocessed.smi:3145-4

> <Gold.Version>
5.8.1

> <Gold.Id.Protein>
6NUR|6NUR_protein|mol2

> <Gold.PLP.Fitness>
49.3404

> <Gold.PLP.PLP>
-38.3046

> <Gold.PLP.part.hbond>
-5.7953

> <Gold.PLP.part.metal>
0.0000

> <Gold.PLP.part.buried>
-3.9316

> <Gold.PLP.part.nonpolar>
-29.1360

> <Gold.PLP.part.repulsive>
0.4342

> <Gold.PLP.ligand.clash>
0.0000

> <Gold.PLP.ligand.torsion>
0.6093

> <Gold.PLP.Chemscore.Hbond>
2.0000

> <Gold.PLP.Chemscore.CHOScore>
2.0000

> <Gold.PLP.Chemscore.Metal>
0.0000

> <Gold.Chemscore.Hbonds>
donor molecule, donor type, donor heavy atom, donor atom, acceptor molecule, acceptor atom, score
      L1  H    13    30       P1  7948  1.00
      P1  H  7997  8009       L1    17  0.94
      L1  C     5    24       P1 10186  1.00

> <Gold.PLP.Chemscore.Internal.Correction>
0.2543

> <Gold.Rescore>
     Score         DG    S(hbond)    S(metal)    S(lipo)     H(rot)  DE(clash)    DE(int)     intcor
     12.08     -12.61       1.97        0.00      65.99       2.80       0.06       0.47       ----

> <Gold.Chemscore.Fitness>
12.0810

> <Gold.Chemscore.DG>
-12.6138

> <Gold.Chemscore.ZeroCoef>
-5.4800

> <Gold.Chemscore.Hbond>
1.9710

> <Gold.Chemscore.Metal>
0.0000

> <Gold.Chemscore.Lipo>
65.9851

> <Gold.Chemscore.Internal_Hbond>
0.0000

> <Gold.Chemscore.DEClash>
0.0626

> <Gold.Chemscore.DEInternal>
0.4702

> <Gold.Chemscore.Rot>
2.8006

> <Gold.Chemscore.Internal.Correction>
   9.000000E+99

> <Gold.Chemscore.Hbonds>
donor molecule, donor type, donor heavy atom, donor atom, acceptor molecule, acceptor atom, score
      L1  H    13    30       P1  7948  1.00
      P1  H  7997  8009       L1    17  0.90

> <Gold.Chemscore.Hbond.Weighted>
-6.5831

> <Gold.Chemscore.Metal.Weighted>
-0.0000

> <Gold.Chemscore.Lipo.Weighted>
-7.7203

> <Gold.Chemscore.Internal_Hbond.Weighted>
0.0000

> <Gold.Chemscore.DEClash.Weighted>
0.0626

> <Gold.Chemscore.DEInternal.Weighted>
0.4702

> <Gold.Chemscore.Rot.Weighted>
7.1696

> <Gold.Chemscore.Internal.Correction.Weighted>
   9.000000E+99

> <Gold.Protein.RotatedTorsions>
[ 6907 6896 6895 6894 ] final    9.13 input  -60.11 | X-H torsion
[ 7974 7965 7964 7962 ] final   30.01 input  175.53 | X-H torsion
[ 8008 7997 7996 7995 ] final -138.49 input   59.86 | X-H torsion
[ 10167 10162 10161 10158 ] final   95.17 input  -65.29 | X-H torsion
[ 10718 10713 10712 10709 ] final   12.35 input   66.30 | X-H torsion
[ 10763 10752 10751 10750 ] final  174.33 input  -60.55 | X-H torsion
[ 11005 11000 10999 10996 ] final    2.66 input  -57.11 | X-H torsion

> <Gold.Protein.ActiveResidues>
 VAL166  LYS551  ARG553  GLY616  TRP617  ASP618  TYR619  PRO620  LYS621  CYS622 
 ASP623  PHE694  ASN695  SER759  ASP760  ASP761  ALA762  ILE779  LEU786  VAL792 
 PHE793  MET794  SER795  GLU796  ALA797  LYS798  CYS799  TRP800  GLU811  SER814 

> <Gold.Protein.RotatedAtoms>
  151.7172  135.0901  160.0277 H   0  0  0  0  0  0  0  0  0  0  0  0  # atno 6907 bound_to 6896
  152.3625  133.6310  159.6034 H   0  0  0  0  0  0  0  0  0  0  0  0  # atno 6908 bound_to 6896
  150.7614  133.9318  159.3470 H   0  0  0  0  0  0  0  0  0  0  0  0  # atno 6909 bound_to 6896
  146.1637  139.6845  142.9016 H   0  0  0  0  0  0  0  0  0  0  0  0  # atno 7974 bound_to 7965
  155.4292  140.0524  157.3020 H   0  0  0  0  0  0  0  0  0  0  0  0  # atno 8008 bound_to 7997
  154.4867  140.2104  155.9596 H   0  0  0  0  0  0  0  0  0  0  0  0  # atno 8009 bound_to 7997
  156.1285  140.3176  155.8319 H   0  0  0  0  0  0  0  0  0  0  0  0  # atno 8010 bound_to 7997
  139.8014  144.6812  150.9760 H   0  0  0  0  0  0  0  0  0  0  0  0  # atno 10167 bound_to 10162
  157.0088  130.6109  149.5705 H   0  0  0  0  0  0  0  0  0  0  0  0  # atno 10718 bound_to 10713
  154.4524  135.2765  155.1772 H   0  0  0  0  0  0  0  0  0  0  0  0  # atno 10763 bound_to 10752
  154.3593  135.6133  153.5686 H   0  0  0  0  0  0  0  0  0  0  0  0  # atno 10764 bound_to 10752
  152.9848  135.5830  154.4871 H   0  0  0  0  0  0  0  0  0  0  0  0  # atno 10765 bound_to 10752
  140.6018  133.9829  155.8135 H   0  0  0  0  0  0  0  0  0  0  0  0  # atno 11005 bound_to 11000
  145.4522  141.0429  143.2798 LP  0  0  0  0  0  0  0  0  0  0  0  0  # atno 17320 bound_to 7965
  144.8062  139.6046  143.7049 LP  0  0  0  0  0  0  0  0  0  0  0  0  # atno 17321 bound_to 7965
  140.7820  143.4278  151.0741 LP  0  0  0  0  0  0  0  0  0  0  0  0  # atno 17342 bound_to 10162
  139.7949  143.8165  152.3156 LP  0  0  0  0  0  0  0  0  0  0  0  0  # atno 17343 bound_to 10162
  156.0144  130.5237  150.8088 LP  0  0  0  0  0  0  0  0  0  0  0  0  # atno 17370 bound_to 10713
  157.5336  131.0938  150.9922 LP  0  0  0  0  0  0  0  0  0  0  0  0  # atno 17371 bound_to 10713
  141.0867  133.9979  157.3302 LP  0  0  0  0  0  0  0  0  0  0  0  0  # atno 17394 bound_to 11000
  139.9229  135.0201  156.8130 LP  0  0  0  0  0  0  0  0  0  0  0  0  # atno 17395 bound_to 11000

$$$$
