AV-unprocessed.smi:3241|AV-procd|sdf|12390|dock9
  -GOLD-   2272018263D 1   1.00000     0.00000
 Structure written by MMmdl.
 43 44  0  0  0  0  0  0  0  0  1 V2000
  147.1480  142.1821  154.1362 C   0  0  0  0  0  0  0  0  0  0  0  0
  148.4199  141.4268  154.5521 C   0  0  1  0  0  0  0  0  0  0  0  0
  148.5847  141.3790  156.0846 C   0  0  0  0  0  0  0  0  0  0  0  0
  149.8790  140.6559  156.4906 C   0  0  0  0  0  0  0  0  0  0  0  0
  149.9461  139.2468  155.8825 C   0  0  0  0  0  0  0  0  0  0  0  0
  149.7823  139.2919  154.3543 C   0  0  0  0  0  0  0  0  0  0  0  0
  148.4791  140.0091  153.9406 C   0  0  1  0  0  0  0  0  0  0  0  0
  147.3484  139.2738  154.3951 O   0  0  0  0  0  0  0  0  0  0  0  0
  147.0725  138.0945  153.6546 C   0  0  0  0  0  0  0  0  0  0  0  0
  146.5771  138.5010  152.2636 C   0  0  0  0  0  0  0  0  0  0  0  0
  146.4247  137.3293  151.4091 N   0  0  0  0  0  0  0  0  0  0  0  0
  145.3421  136.4399  151.8187 C   0  0  0  0  0  0  0  0  0  0  0  0
  144.7247  135.7060  150.6170 C   0  0  0  0  0  0  0  0  0  0  0  0
  145.0318  134.2866  150.6183 N   0  0  0  0  0  0  0  0  0  0  0  0
  144.1606  133.2237  150.5065 C   0  0  0  0  0  0  0  0  0  0  0  0
  144.9062  132.0806  150.5518 C   0  0  0  0  0  0  0  0  0  0  0  0
  146.2406  132.5530  150.6950 C   0  0  0  0  0  0  0  0  0  0  0  0
  146.3125  133.8735  150.7377 N   0  0  0  0  0  0  0  0  0  0  0  0
  146.2503  141.6926  154.5150 H   0  0  0  0  0  0  0  0  0  0  0  0
  147.0629  142.2391  153.0508 H   0  0  0  0  0  0  0  0  0  0  0  0
  147.1556  143.2025  154.5199 H   0  0  0  0  0  0  0  0  0  0  0  0
  149.2649  141.9889  154.1517 H   0  0  0  0  0  0  0  0  0  0  0  0
  148.5918  142.3912  156.4902 H   0  0  0  0  0  0  0  0  0  0  0  0
  147.7288  140.8741  156.5347 H   0  0  0  0  0  0  0  0  0  0  0  0
  150.7405  141.2372  156.1602 H   0  0  0  0  0  0  0  0  0  0  0  0
  149.9464  140.5952  157.5771 H   0  0  0  0  0  0  0  0  0  0  0  0
  150.8954  138.7766  156.1408 H   0  0  0  0  0  0  0  0  0  0  0  0
  149.1647  138.6219  156.3168 H   0  0  0  0  0  0  0  0  0  0  0  0
  150.6331  139.8180  153.9196 H   0  0  0  0  0  0  0  0  0  0  0  0
  149.8188  138.2814  153.9487 H   0  0  0  0  0  0  0  0  0  0  0  0
  148.4447  140.1019  152.8534 H   0  0  0  0  0  0  0  0  0  0  0  0
  147.9901  137.5122  153.5618 H   0  0  0  0  0  0  0  0  0  0  0  0
  146.3359  137.4617  154.1507 H   0  0  0  0  0  0  0  0  0  0  0  0
  145.6338  139.0414  152.3499 H   0  0  0  0  0  0  0  0  0  0  0  0
  147.2937  139.1880  151.8123 H   0  0  0  0  0  0  0  0  0  0  0  0
  147.2996  136.8150  151.3761 H   0  0  0  0  0  0  0  0  0  0  0  0
  145.7250  135.7002  152.5228 H   0  0  0  0  0  0  0  0  0  0  0  0
  144.5711  137.0014  152.3474 H   0  0  0  0  0  0  0  0  0  0  0  0
  143.6422  135.8430  150.5938 H   0  0  0  0  0  0  0  0  0  0  0  0
  145.1113  136.1315  149.6903 H   0  0  0  0  0  0  0  0  0  0  0  0
  143.0954  133.3686  150.4029 H   0  0  0  0  0  0  0  0  0  0  0  0
  144.5526  131.0622  150.4904 H   0  0  0  0  0  0  0  0  0  0  0  0
  147.1526  131.9796  150.7692 H   0  0  0  0  0  0  0  0  0  0  0  0
  1  2  1  0  0  0  0
  1 19  1  0  0  0  0
  1 20  1  0  0  0  0
  1 21  1  0  0  0  0
  2  7  1  0  0  0  0
  2  3  1  0  0  0  0
  2 22  1  0  0  0  0
  3  4  1  0  0  0  0
  3 23  1  0  0  0  0
  3 24  1  0  0  0  0
  4  5  1  0  0  0  0
  4 25  1  0  0  0  0
  4 26  1  0  0  0  0
  5  6  1  0  0  0  0
  5 27  1  0  0  0  0
  5 28  1  0  0  0  0
  6  7  1  0  0  0  0
  6 29  1  0  0  0  0
  6 30  1  0  0  0  0
  7  8  1  0  0  0  0
  7 31  1  0  0  0  0
  8  9  1  0  0  0  0
  9 10  1  0  0  0  0
  9 32  1  0  0  0  0
  9 33  1  0  0  0  0
 10 11  1  0  0  0  0
 10 34  1  0  0  0  0
 10 35  1  0  0  0  0
 11 12  1  0  0  0  0
 11 36  1  0  0  0  0
 12 13  1  0  0  0  0
 12 37  1  0  0  0  0
 12 38  1  0  0  0  0
 13 14  1  0  0  0  0
 13 39  1  0  0  0  0
 13 40  1  0  0  0  0
 14 18  1  0  0  0  0
 14 15  1  0  0  0  0
 15 16  2  0  0  0  0
 15 41  1  0  0  0  0
 16 17  1  0  0  0  0
 16 42  1  0  0  0  0
 17 18  2  0  0  0  0
 17 43  1  0  0  0  0
M  END
> <s_m_source_file>
AV-unprocessed.smi

> <i_m_source_file_index>
3241

> <i_lp_mmshare_version>
43012

> <i_f3d_flags>
0

> <s_epik_input>
W0NIM11bQ0BASF0xW0NIMl1bQ0gyXVtDSDJdW0NIMl1bQ0BIXTFPW0NIMl1bQ0gyXVtOSF1bQ0gyXVtDSDJdbjJbY0hdW2NIXVtjSF1uMg==

> <s_epik_cmdline>
J2VwaWtfcHl0aG9uJywgJy1waCcsICc3LjAnLCAnLXRuJywgJzgnLCAnLW1hJywgJzIwMCcsICctbWV0YWxfYmluZGluZycsICctaW1hZScsICc8aW5maWxlLm1hZT4nLCAnLW9tYWUnLCAnPG91dGZpbGUubWFlPic=

> <r_lp_tautomer_probability>
1

> <r_epik_Ionization_Penalty>
2.47055

> <r_epik_Ionization_Penalty_Charging>
0

> <r_epik_Ionization_Penalty_Neutral>
2.47055

> <r_epik_State_Penalty>
2.6322

> <r_epik_Charging_Adjusted_Penalty>
2.6322

> <i_epik_Tot_Q>
0

> <i_epik_Tot_abs_Q>
0

> <r_epik_Metal_State_Penalty>
2.63108

> <b_epik_Metal_Only>
0

> <s_lp_Force_Field>
OPLS_2005

> <r_lp_Energy>
16.4291

> <b_lp_Chiralities_Consistent>
1

> <s_lp_Variant>
AV-unprocessed.smi:3241-6

> <Gold.Version>
5.8.1

> <Gold.Id.Protein>
6NUR|6NUR_protein|mol2

> <Gold.PLP.Fitness>
42.2636

> <Gold.PLP.PLP>
-34.7340

> <Gold.PLP.part.hbond>
-1.4108

> <Gold.PLP.part.metal>
0.0000

> <Gold.PLP.part.buried>
-2.1936

> <Gold.PLP.part.nonpolar>
-32.2620

> <Gold.PLP.part.repulsive>
0.3310

> <Gold.PLP.ligand.clash>
0.0000

> <Gold.PLP.ligand.torsion>
0.7684

> <Gold.PLP.Chemscore.Hbond>
1.0000

> <Gold.PLP.Chemscore.CHOScore>
2.0000

> <Gold.PLP.Chemscore.Metal>
0.0000

> <Gold.Chemscore.Hbonds>
donor molecule, donor type, donor heavy atom, donor atom, acceptor molecule, acceptor atom, score
      L1  H    11    36       P1  7948  1.00
      L1  C    15    41       P1 10186  1.00
      L1  C    17    43       P1 10747  1.00

> <Gold.PLP.Chemscore.Internal.Correction>
0.0665

> <Gold.Rescore>
     Score         DG    S(hbond)    S(metal)    S(lipo)     H(rot)  DE(clash)    DE(int)     intcor
     13.81     -15.12       1.00        0.00      93.18       1.79       0.24       1.06       ----

> <Gold.Chemscore.Fitness>
13.8143

> <Gold.Chemscore.DG>
-15.1232

> <Gold.Chemscore.ZeroCoef>
-5.4800

> <Gold.Chemscore.Hbond>
0.9952

> <Gold.Chemscore.Metal>
0.0000

> <Gold.Chemscore.Lipo>
93.1786

> <Gold.Chemscore.Internal_Hbond>
0.0000

> <Gold.Chemscore.DEClash>
0.2449

> <Gold.Chemscore.DEInternal>
1.0640

> <Gold.Chemscore.Rot>
1.7901

> <Gold.Chemscore.Internal.Correction>
   9.000000E+99

> <Gold.Chemscore.Hbonds>
donor molecule, donor type, donor heavy atom, donor atom, acceptor molecule, acceptor atom, score
      L1  H    11    36       P1  7948  1.00

> <Gold.Chemscore.Hbond.Weighted>
-3.3240

> <Gold.Chemscore.Metal.Weighted>
-0.0000

> <Gold.Chemscore.Lipo.Weighted>
-10.9019

> <Gold.Chemscore.Internal_Hbond.Weighted>
0.0000

> <Gold.Chemscore.DEClash.Weighted>
0.2449

> <Gold.Chemscore.DEInternal.Weighted>
1.0640

> <Gold.Chemscore.Rot.Weighted>
4.5827

> <Gold.Chemscore.Internal.Correction.Weighted>
   9.000000E+99

> <Gold.Protein.RotatedTorsions>
[ 6907 6896 6895 6894 ] final -173.90 input  -60.11 | X-H torsion
[ 7974 7965 7964 7962 ] final  -37.12 input  175.53 | X-H torsion
[ 8008 7997 7996 7995 ] final  -88.96 input   59.86 | X-H torsion
[ 10167 10162 10161 10158 ] final  160.20 input  -65.29 | X-H torsion
[ 10718 10713 10712 10709 ] final  -77.67 input   66.30 | X-H torsion
[ 10763 10752 10751 10750 ] final   67.86 input  -60.55 | X-H torsion
[ 11005 11000 10999 10996 ] final   80.81 input  -57.11 | X-H torsion

> <Gold.Protein.ActiveResidues>
 VAL166  LYS551  ARG553  GLY616  TRP617  ASP618  TYR619  PRO620  LYS621  CYS622 
 ASP623  PHE694  ASN695  SER759  ASP760  ASP761  ALA762  ILE779  LEU786  VAL792 
 PHE793  MET794  SER795  GLU796  ALA797  LYS798  CYS799  TRP800  GLU811  SER814 

> <Gold.Protein.RotatedAtoms>
  151.5637  133.3399  159.2975 H   0  0  0  0  0  0  0  0  0  0  0  0  # atno 6907 bound_to 6896
  150.8408  134.7701  159.6941 H   0  0  0  0  0  0  0  0  0  0  0  0  # atno 6908 bound_to 6896
  152.4476  134.5470  159.9907 H   0  0  0  0  0  0  0  0  0  0  0  0  # atno 6909 bound_to 6896
  146.0602  140.6359  142.9000 H   0  0  0  0  0  0  0  0  0  0  0  0  # atno 7974 bound_to 7965
  154.6810  140.0547  157.0265 H   0  0  0  0  0  0  0  0  0  0  0  0  # atno 8008 bound_to 7997
  155.0952  140.3223  155.4543 H   0  0  0  0  0  0  0  0  0  0  0  0  # atno 8009 bound_to 7997
  156.2694  140.2041  156.6079 H   0  0  0  0  0  0  0  0  0  0  0  0  # atno 8010 bound_to 7997
  139.4838  144.4657  151.8644 H   0  0  0  0  0  0  0  0  0  0  0  0  # atno 10167 bound_to 10162
  156.0138  130.4497  150.3380 H   0  0  0  0  0  0  0  0  0  0  0  0  # atno 10718 bound_to 10713
  153.0207  135.5268  154.7045 H   0  0  0  0  0  0  0  0  0  0  0  0  # atno 10763 bound_to 10752
  154.6145  135.2882  155.0398 H   0  0  0  0  0  0  0  0  0  0  0  0  # atno 10764 bound_to 10752
  154.1407  135.6578  153.4994 H   0  0  0  0  0  0  0  0  0  0  0  0  # atno 10765 bound_to 10752
  139.9120  134.7949  156.1959 H   0  0  0  0  0  0  0  0  0  0  0  0  # atno 11005 bound_to 11000
  144.7171  140.4246  143.7036 LP  0  0  0  0  0  0  0  0  0  0  0  0  # atno 17320 bound_to 7965
  145.6573  139.1575  143.2828 LP  0  0  0  0  0  0  0  0  0  0  0  0  # atno 17321 bound_to 7965
  140.4122  144.2353  150.5888 LP  0  0  0  0  0  0  0  0  0  0  0  0  # atno 17342 bound_to 10162
  140.4955  143.2334  151.8756 LP  0  0  0  0  0  0  0  0  0  0  0  0  # atno 17343 bound_to 10162
  157.1476  131.0312  151.2899 LP  0  0  0  0  0  0  0  0  0  0  0  0  # atno 17370 bound_to 10713
  157.4419  130.7549  149.7077 LP  0  0  0  0  0  0  0  0  0  0  0  0  # atno 17371 bound_to 10713
  141.0555  133.6867  156.1852 LP  0  0  0  0  0  0  0  0  0  0  0  0  # atno 17394 bound_to 11000
  140.6744  134.4834  157.5588 LP  0  0  0  0  0  0  0  0  0  0  0  0  # atno 17395 bound_to 11000

$$$$
