AV-unprocessed.smi:2265|AV-procd|sdf|9144|dock3
  -GOLD-   2272012353D 1   1.00000     0.00000
 Structure written by MMmdl.
 36 37  0  0  0  0  0  0  0  0  1 V2000
  154.6217  140.9806  159.7302 C   0  0  0  0  0  0  0  0  0  0  0  0
  153.6246  142.0172  160.2588 C   0  0  0  0  0  0  0  0  0  0  0  0
  153.1736  143.0055  159.1753 C   0  0  0  0  0  0  0  0  0  0  0  0
  152.1858  144.0301  159.7047 C   0  0  1  0  0  0  0  0  0  0  0  0
  152.1227  145.4186  159.1258 C   0  0  0  0  0  0  0  0  0  0  0  0
  150.9662  144.4625  158.9151 C   0  0  1  0  0  0  0  0  0  0  0  0
  150.7715  143.9583  157.5881 N   0  0  0  0  0  0  0  0  0  0  0  0
  150.7965  142.6754  157.1854 C   0  0  0  0  0  0  0  0  0  0  0  0
  150.9692  141.7647  157.9952 O   0  0  0  0  0  0  0  0  0  0  0  0
  150.5768  142.5141  155.8617 N   0  0  0  0  0  0  0  0  0  0  0  0
  150.5054  141.3223  155.1303 C   0  0  0  0  0  0  0  0  0  0  0  0
  151.4842  140.4635  155.0632 N   0  0  0  0  0  0  0  0  0  0  0  0
  151.3773  139.2859  154.3232 C   0  0  0  0  0  0  0  0  0  0  0  0
  150.2519  138.9968  153.6453 C   0  0  0  0  0  0  0  0  0  0  0  0
  149.1583  139.8735  153.6667 N   0  0  0  0  0  0  0  0  0  0  0  0
  147.9575  139.5084  152.9147 C   0  0  0  0  0  0  0  0  0  0  0  0
  149.2047  141.0342  154.3755 C   0  0  0  0  0  0  0  0  0  0  0  0
  148.2676  141.8334  154.4289 O   0  0  0  0  0  0  0  0  0  0  0  0
  154.9256  140.2951  160.5214 H   0  0  0  0  0  0  0  0  0  0  0  0
  155.5205  141.4605  159.3422 H   0  0  0  0  0  0  0  0  0  0  0  0
  154.1842  140.3880  158.9264 H   0  0  0  0  0  0  0  0  0  0  0  0
  152.7557  141.5022  160.6698 H   0  0  0  0  0  0  0  0  0  0  0  0
  154.0788  142.5643  161.0858 H   0  0  0  0  0  0  0  0  0  0  0  0
  154.0440  143.5154  158.7611 H   0  0  0  0  0  0  0  0  0  0  0  0
  152.7023  142.4679  158.3518 H   0  0  0  0  0  0  0  0  0  0  0  0
  152.0323  143.9572  160.7799 H   0  0  0  0  0  0  0  0  0  0  0  0
  151.9735  146.2431  159.8199 H   0  0  0  0  0  0  0  0  0  0  0  0
  152.7631  145.6401  158.2740 H   0  0  0  0  0  0  0  0  0  0  0  0
  150.0721  144.6987  159.4902 H   0  0  0  0  0  0  0  0  0  0  0  0
  150.5107  144.6429  156.8930 H   0  0  0  0  0  0  0  0  0  0  0  0
  150.4331  143.3673  155.3413 H   0  0  0  0  0  0  0  0  0  0  0  0
  152.2355  138.6304  154.3260 H   0  0  0  0  0  0  0  0  0  0  0  0
  150.1219  138.0981  153.0602 H   0  0  0  0  0  0  0  0  0  0  0  0
  147.1254  139.3246  153.5955 H   0  0  0  0  0  0  0  0  0  0  0  0
  148.0986  138.6083  152.3155 H   0  0  0  0  0  0  0  0  0  0  0  0
  147.6688  140.3099  152.2331 H   0  0  0  0  0  0  0  0  0  0  0  0
  1  2  1  0  0  0  0
  1 19  1  0  0  0  0
  1 20  1  0  0  0  0
  1 21  1  0  0  0  0
  2  3  1  0  0  0  0
  2 22  1  0  0  0  0
  2 23  1  0  0  0  0
  3  4  1  0  0  0  0
  3 24  1  0  0  0  0
  3 25  1  0  0  0  0
  4  6  1  0  0  0  0
  4  5  1  0  0  0  0
  4 26  1  0  0  0  0
  5  6  1  0  0  0  0
  5 27  1  0  0  0  0
  5 28  1  0  0  0  0
  6  7  1  0  0  0  0
  6 29  1  0  0  0  0
  7  8  1  0  0  0  0
  7 30  1  0  0  0  0
  8  9  2  0  0  0  0
  8 10  1  0  0  0  0
 10 11  1  0  0  0  0
 10 31  1  0  0  0  0
 11 17  1  0  0  0  0
 11 12  2  0  0  0  0
 12 13  1  0  0  0  0
 13 14  2  0  0  0  0
 13 32  1  0  0  0  0
 14 15  1  0  0  0  0
 14 33  1  0  0  0  0
 15 16  1  0  0  0  0
 15 17  1  0  0  0  0
 16 34  1  0  0  0  0
 16 35  1  0  0  0  0
 16 36  1  0  0  0  0
 17 18  2  0  0  0  0
M  END
> <s_m_source_file>
AV-unprocessed.smi

> <i_m_source_file_index>
2265

> <i_lp_mmshare_version>
43012

> <i_f3d_flags>
0

> <s_epik_input>
W0NIM11bQ0gyXVtDSDJdW0NAQEhdMVtDSDJdW0NASF0xW05IXUMoPU8pW05IXWMybltjSF1bY0hdbihbQ0gzXSljMj1P

> <s_epik_cmdline>
J2VwaWtfcHl0aG9uJywgJy1waCcsICc3LjAnLCAnLXRuJywgJzgnLCAnLW1hJywgJzIwMCcsICctbWV0YWxfYmluZGluZycsICctaW1hZScsICc8aW5maWxlLm1hZT4nLCAnLW9tYWUnLCAnPG91dGZpbGUubWFlPic=

> <r_lp_tautomer_probability>
1

> <r_epik_Ionization_Penalty>
0.000728552

> <r_epik_Ionization_Penalty_Charging>
1.67739e-07

> <r_epik_Ionization_Penalty_Neutral>
0.000728385

> <r_epik_State_Penalty>
-0

> <r_epik_Charging_Adjusted_Penalty>
1.67739e-07

> <i_epik_Tot_Q>
0

> <i_epik_Tot_abs_Q>
0

> <r_epik_Metal_State_Penalty>
-0

> <b_epik_Metal_Only>
0

> <s_lp_Force_Field>
OPLS_2005

> <r_lp_Energy>
43.9495

> <b_lp_Chiralities_Consistent>
1

> <s_lp_Variant>
AV-unprocessed.smi:2265-2

> <Gold.Version>
5.8.1

> <Gold.Id.Protein>
6NUR|6NUR_protein|mol2

> <Gold.PLP.Fitness>
49.5409

> <Gold.PLP.PLP>
-43.4080

> <Gold.PLP.part.hbond>
-3.0000

> <Gold.PLP.part.metal>
0.0000

> <Gold.PLP.part.buried>
-4.1051

> <Gold.PLP.part.nonpolar>
-36.6173

> <Gold.PLP.part.repulsive>
0.3067

> <Gold.PLP.ligand.clash>
0.0000

> <Gold.PLP.ligand.torsion>
1.0767

> <Gold.PLP.Chemscore.Hbond>
1.5710

> <Gold.PLP.Chemscore.CHOScore>
1.0000

> <Gold.PLP.Chemscore.Metal>
0.0000

> <Gold.Chemscore.Hbonds>
donor molecule, donor type, donor heavy atom, donor atom, acceptor molecule, acceptor atom, score
      L1  H     7    30       P1  8028  0.64
      L1  H    10    31       P1  8028  0.48
      L1  C    14    33       P1  7948  1.00
      L1  C    14    33       P1  7949  0.05

> <Gold.PLP.Chemscore.Internal.Correction>
0.5733

> <Gold.Rescore>
     Score         DG    S(hbond)    S(metal)    S(lipo)     H(rot)  DE(clash)    DE(int)     intcor
     14.63     -16.91       1.41        0.00      89.50       1.46       0.11       2.17       ----

> <Gold.Chemscore.Fitness>
14.6251

> <Gold.Chemscore.DG>
-16.9072

> <Gold.Chemscore.ZeroCoef>
-5.4800

> <Gold.Chemscore.Hbond>
1.4056

> <Gold.Chemscore.Metal>
0.0000

> <Gold.Chemscore.Lipo>
89.4987

> <Gold.Chemscore.Internal_Hbond>
0.0000

> <Gold.Chemscore.DEClash>
0.1121

> <Gold.Chemscore.DEInternal>
2.1699

> <Gold.Chemscore.Rot>
1.4604

> <Gold.Chemscore.Internal.Correction>
   9.000000E+99

> <Gold.Chemscore.Hbonds>
donor molecule, donor type, donor heavy atom, donor atom, acceptor molecule, acceptor atom, score
      L1  H     7    30       P1  8028  0.50
      L1  H    10    31       P1  8028  0.45

> <Gold.Chemscore.Hbond.Weighted>
-4.6946

> <Gold.Chemscore.Metal.Weighted>
-0.0000

> <Gold.Chemscore.Lipo.Weighted>
-10.4713

> <Gold.Chemscore.Internal_Hbond.Weighted>
0.0000

> <Gold.Chemscore.DEClash.Weighted>
0.1121

> <Gold.Chemscore.DEInternal.Weighted>
2.1699

> <Gold.Chemscore.Rot.Weighted>
3.7387

> <Gold.Chemscore.Internal.Correction.Weighted>
   9.000000E+99

> <Gold.Protein.RotatedTorsions>
[ 6907 6896 6895 6894 ] final  171.66 input  -60.11 | X-H torsion
[ 7974 7965 7964 7962 ] final  158.09 input  175.53 | X-H torsion
[ 8008 7997 7996 7995 ] final  -80.42 input   59.86 | X-H torsion
[ 10167 10162 10161 10158 ] final -179.72 input  -65.29 | X-H torsion
[ 10718 10713 10712 10709 ] final    9.60 input   66.30 | X-H torsion
[ 10763 10752 10751 10750 ] final   22.55 input  -60.55 | X-H torsion
[ 11005 11000 10999 10996 ] final   24.92 input  -57.11 | X-H torsion

> <Gold.Protein.ActiveResidues>
 VAL166  LYS551  ARG553  GLY616  TRP617  ASP618  TYR619  PRO620  LYS621  CYS622 
 ASP623  PHE694  ASN695  SER759  ASP760  ASP761  ALA762  ILE779  LEU786  VAL792 
 PHE793  MET794  SER795  GLU796  ALA797  LYS798  CYS799  TRP800  GLU811  SER814 

> <Gold.Protein.RotatedAtoms>
  151.7967  133.3365  159.3514 H   0  0  0  0  0  0  0  0  0  0  0  0  # atno 6907 bound_to 6896
  150.7373  134.5792  159.5939 H   0  0  0  0  0  0  0  0  0  0  0  0  # atno 6908 bound_to 6896
  152.3172  134.7427  160.0374 H   0  0  0  0  0  0  0  0  0  0  0  0  # atno 6909 bound_to 6896
  144.7866  139.7430  143.6238 H   0  0  0  0  0  0  0  0  0  0  0  0  # atno 7974 bound_to 7965
  154.5881  140.0663  156.9200 H   0  0  0  0  0  0  0  0  0  0  0  0  # atno 8008 bound_to 7997
  155.2344  140.3340  155.4281 H   0  0  0  0  0  0  0  0  0  0  0  0  # atno 8009 bound_to 7997
  156.2237  140.1810  156.7400 H   0  0  0  0  0  0  0  0  0  0  0  0  # atno 8010 bound_to 7997
  139.5374  144.2460  152.0823 H   0  0  0  0  0  0  0  0  0  0  0  0  # atno 10167 bound_to 10162
  156.9686  130.5960  149.5667 H   0  0  0  0  0  0  0  0  0  0  0  0  # atno 10718 bound_to 10713
  153.0907  135.6646  153.9860 H   0  0  0  0  0  0  0  0  0  0  0  0  # atno 10763 bound_to 10752
  153.9458  135.2989  155.3442 H   0  0  0  0  0  0  0  0  0  0  0  0  # atno 10764 bound_to 10752
  154.7321  135.5118  153.9053 H   0  0  0  0  0  0  0  0  0  0  0  0  # atno 10765 bound_to 10752
  140.3534  134.2204  155.7678 H   0  0  0  0  0  0  0  0  0  0  0  0  # atno 11005 bound_to 11000
  146.2100  139.5449  142.9687 LP  0  0  0  0  0  0  0  0  0  0  0  0  # atno 17320 bound_to 7965
  145.5906  141.0370  143.2072 LP  0  0  0  0  0  0  0  0  0  0  0  0  # atno 17321 bound_to 7965
  140.1932  144.4731  150.6468 LP  0  0  0  0  0  0  0  0  0  0  0  0  # atno 17342 bound_to 10162
  140.6587  143.2245  151.5908 LP  0  0  0  0  0  0  0  0  0  0  0  0  # atno 17343 bound_to 10162
  156.0292  130.5384  150.8489 LP  0  0  0  0  0  0  0  0  0  0  0  0  # atno 17370 bound_to 10713
  157.5608  131.0946  150.9562 LP  0  0  0  0  0  0  0  0  0  0  0  0  # atno 17371 bound_to 10713
  141.2005  133.7985  157.0484 LP  0  0  0  0  0  0  0  0  0  0  0  0  # atno 17394 bound_to 11000
  140.0684  134.9716  157.1426 LP  0  0  0  0  0  0  0  0  0  0  0  0  # atno 17395 bound_to 11000

$$$$
