AV-unprocessed.smi:559|AV-procd|sdf|2924|dock1
  -GOLD-   2262023413D 1   1.00000     0.00000
 Structure written by MMmdl.
 41 42  0  0  0  0  0  0  0  0  1 V2000
  148.2300  133.3236  153.1976 C   0  0  0  0  0  0  0  0  0  0  0  0
  147.1102  132.6737  152.4365 C   0  0  0  0  0  0  0  0  0  0  0  0
  146.8890  131.3786  152.5880 N   0  0  0  0  0  0  0  0  0  0  0  0
  145.8477  131.1097  151.7753 N   0  0  0  0  0  0  0  0  0  0  0  0
  145.3447  129.7527  151.6874 C   0  0  0  0  0  0  0  0  0  0  0  0
  145.4078  132.2380  151.1118 C   0  0  0  0  0  0  0  0  0  0  0  0
  144.2694  132.1984  150.1441 C   0  0  0  0  0  0  0  0  0  0  0  0
  146.2090  133.2754  151.5097 C   0  0  0  0  0  0  0  0  0  0  0  0
  146.1778  134.7171  151.0632 C   0  0  0  0  0  0  0  0  0  0  0  0
  145.5783  135.5798  152.1742 C   0  0  0  0  0  0  0  0  0  0  0  0
  144.4029  135.4271  152.5051 O   0  0  0  0  0  0  0  0  0  0  0  0
  146.3876  136.5062  152.7122 N   0  0  0  0  0  0  0  0  0  0  0  0
  145.9765  137.5551  153.6387 C   0  0  0  0  0  0  0  0  0  0  0  0
  147.1999  138.2372  154.2815 C   0  0  2  0  0  0  0  0  0  0  0  0
  146.8173  139.1408  155.4693 C   0  0  0  0  0  0  0  0  0  0  0  0
  148.0455  139.9625  155.8741 C   0  0  0  0  0  0  0  0  0  0  0  0
  148.9526  140.2950  154.3182 S   0  0  0  0  0  0  0  0  0  0  0  0
  148.6382  141.6520  153.8462 O   0  0  0  0  0  0  0  0  0  0  0  0
  150.3458  139.8496  154.4703 O   0  0  0  0  0  0  0  0  0  0  0  0
  148.0306  139.0835  153.2999 C   0  0  0  0  0  0  0  0  0  0  0  0
  149.0353  133.6198  152.5255 H   0  0  0  0  0  0  0  0  0  0  0  0
  148.6521  132.6540  153.9480 H   0  0  0  0  0  0  0  0  0  0  0  0
  147.8823  134.2181  153.7144 H   0  0  0  0  0  0  0  0  0  0  0  0
  144.2824  129.7377  151.9313 H   0  0  0  0  0  0  0  0  0  0  0  0
  145.8743  129.0990  152.3815 H   0  0  0  0  0  0  0  0  0  0  0  0
  145.4839  129.3775  150.6736 H   0  0  0  0  0  0  0  0  0  0  0  0
  144.0480  133.1910  149.7526 H   0  0  0  0  0  0  0  0  0  0  0  0
  143.3660  131.8194  150.6219 H   0  0  0  0  0  0  0  0  0  0  0  0
  144.5037  131.5511  149.2988 H   0  0  0  0  0  0  0  0  0  0  0  0
  147.1791  135.0785  150.8260 H   0  0  0  0  0  0  0  0  0  0  0  0
  145.5852  134.8487  150.1577 H   0  0  0  0  0  0  0  0  0  0  0  0
  147.3399  136.5458  152.3783 H   0  0  0  0  0  0  0  0  0  0  0  0
  145.3421  138.2925  153.1443 H   0  0  0  0  0  0  0  0  0  0  0  0
  145.3624  137.0959  154.4136 H   0  0  0  0  0  0  0  0  0  0  0  0
  147.8576  137.4589  154.6717 H   0  0  0  0  0  0  0  0  0  0  0  0
  146.0237  139.8225  155.1605 H   0  0  0  0  0  0  0  0  0  0  0  0
  146.4319  138.5628  156.3096 H   0  0  0  0  0  0  0  0  0  0  0  0
  147.7903  140.8985  156.3715 H   0  0  0  0  0  0  0  0  0  0  0  0
  148.6988  139.3851  156.5282 H   0  0  0  0  0  0  0  0  0  0  0  0
  148.7263  138.4881  152.7087 H   0  0  0  0  0  0  0  0  0  0  0  0
  147.3870  139.6422  152.6197 H   0  0  0  0  0  0  0  0  0  0  0  0
  1  2  1  0  0  0  0
  1 21  1  0  0  0  0
  1 22  1  0  0  0  0
  1 23  1  0  0  0  0
  2  8  1  0  0  0  0
  2  3  2  0  0  0  0
  3  4  1  0  0  0  0
  4  5  1  0  0  0  0
  4  6  1  0  0  0  0
  5 24  1  0  0  0  0
  5 25  1  0  0  0  0
  5 26  1  0  0  0  0
  6  7  1  0  0  0  0
  6  8  2  0  0  0  0
  7 27  1  0  0  0  0
  7 28  1  0  0  0  0
  7 29  1  0  0  0  0
  8  9  1  0  0  0  0
  9 10  1  0  0  0  0
  9 30  1  0  0  0  0
  9 31  1  0  0  0  0
 10 11  2  0  0  0  0
 10 12  1  0  0  0  0
 12 13  1  0  0  0  0
 12 32  1  0  0  0  0
 13 14  1  0  0  0  0
 13 33  1  0  0  0  0
 13 34  1  0  0  0  0
 14 20  1  0  0  0  0
 14 15  1  0  0  0  0
 14 35  1  0  0  0  0
 15 16  1  0  0  0  0
 15 36  1  0  0  0  0
 15 37  1  0  0  0  0
 16 17  1  0  0  0  0
 16 38  1  0  0  0  0
 16 39  1  0  0  0  0
 17 18  2  0  0  0  0
 17 19  2  0  0  0  0
 17 20  1  0  0  0  0
 20 40  1  0  0  0  0
 20 41  1  0  0  0  0
M  END
> <s_m_source_file>
AV-unprocessed.smi

> <i_m_source_file_index>
559

> <i_lp_mmshare_version>
43012

> <i_f3d_flags>
0

> <s_epik_input>
W0NIM11jMW5uKFtDSDNdKWMoW0NIM10pYzFbQ0gyXUMoPU8pW05IXVtDSDJdW0NAQEhdKFtDSDJdMilbQ0gyXVtDSDJdUzIoPU8pPU8=

> <s_epik_cmdline>
J2VwaWtfcHl0aG9uJywgJy1waCcsICc3LjAnLCAnLXRuJywgJzgnLCAnLW1hJywgJzIwMCcsICctbWV0YWxfYmluZGluZycsICctaW1hZScsICc8aW5maWxlLm1hZT4nLCAnLW9tYWUnLCAnPG91dGZpbGUubWFlPic=

> <r_lp_tautomer_probability>
1

> <r_epik_Ionization_Penalty>
0.00301269

> <r_epik_Ionization_Penalty_Charging>
0

> <r_epik_Ionization_Penalty_Neutral>
0.00301269

> <r_epik_State_Penalty>
0.00211587

> <r_epik_Charging_Adjusted_Penalty>
0.00211587

> <i_epik_Tot_Q>
0

> <i_epik_Tot_abs_Q>
0

> <r_epik_Metal_State_Penalty>
-0

> <b_epik_Metal_Only>
0

> <s_lp_Force_Field>
OPLS_2005

> <r_lp_Energy>
-3.01738

> <b_lp_Chiralities_Consistent>
1

> <s_lp_Variant>
AV-unprocessed.smi:559-1

> <Gold.Version>
5.8.1

> <Gold.Id.Protein>
6NUR|6NUR_protein|mol2

> <Gold.PLP.Fitness>
37.4135

> <Gold.PLP.PLP>
-30.2929

> <Gold.PLP.part.hbond>
-3.0000

> <Gold.PLP.part.metal>
0.0000

> <Gold.PLP.part.buried>
-2.4869

> <Gold.PLP.part.nonpolar>
-24.6463

> <Gold.PLP.part.repulsive>
0.5237

> <Gold.PLP.ligand.clash>
0.0000

> <Gold.PLP.ligand.torsion>
0.3220

> <Gold.PLP.Chemscore.Hbond>
2.5829

> <Gold.PLP.Chemscore.CHOScore>
0.0000

> <Gold.PLP.Chemscore.Metal>
0.0000

> <Gold.Chemscore.Hbonds>
donor molecule, donor type, donor heavy atom, donor atom, acceptor molecule, acceptor atom, score
      L1  H    12    32       P1  7948  1.00
      P1  H  7989  7998       L1    19  1.00
      P1  H  8011  8017       L1    18  0.58

> <Gold.PLP.Chemscore.Internal.Correction>
0.0158

> <Gold.Rescore>
     Score         DG    S(hbond)    S(metal)    S(lipo)     H(rot)  DE(clash)    DE(int)     intcor
     16.13     -17.77       2.55        0.00      68.14       1.64       1.41       0.24       ----

> <Gold.Chemscore.Fitness>
16.1254

> <Gold.Chemscore.DG>
-17.7749

> <Gold.Chemscore.ZeroCoef>
-5.4800

> <Gold.Chemscore.Hbond>
2.5509

> <Gold.Chemscore.Metal>
0.0000

> <Gold.Chemscore.Lipo>
68.1389

> <Gold.Chemscore.Internal_Hbond>
0.0000

> <Gold.Chemscore.DEClash>
1.4075

> <Gold.Chemscore.DEInternal>
0.2420

> <Gold.Chemscore.Rot>
1.6396

> <Gold.Chemscore.Internal.Correction>
   9.000000E+99

> <Gold.Chemscore.Hbonds>
donor molecule, donor type, donor heavy atom, donor atom, acceptor molecule, acceptor atom, score
      L1  H    12    32       P1  7948  1.00
      P1  H  7989  7998       L1    19  0.90
      P1  H  8011  8017       L1    18  0.54

> <Gold.Chemscore.Hbond.Weighted>
-8.5200

> <Gold.Chemscore.Metal.Weighted>
-0.0000

> <Gold.Chemscore.Lipo.Weighted>
-7.9723

> <Gold.Chemscore.Internal_Hbond.Weighted>
0.0000

> <Gold.Chemscore.DEClash.Weighted>
1.4075

> <Gold.Chemscore.DEInternal.Weighted>
0.2420

> <Gold.Chemscore.Rot.Weighted>
4.1974

> <Gold.Chemscore.Internal.Correction.Weighted>
   9.000000E+99

> <Gold.Protein.RotatedTorsions>
[ 6907 6896 6895 6894 ] final -171.87 input  -60.11 | X-H torsion
[ 7974 7965 7964 7962 ] final  138.51 input  175.53 | X-H torsion
[ 8008 7997 7996 7995 ] final  104.43 input   59.86 | X-H torsion
[ 10167 10162 10161 10158 ] final -158.39 input  -65.29 | X-H torsion
[ 10718 10713 10712 10709 ] final  135.52 input   66.30 | X-H torsion
[ 10763 10752 10751 10750 ] final -139.39 input  -60.55 | X-H torsion
[ 11005 11000 10999 10996 ] final -139.24 input  -57.11 | X-H torsion

> <Gold.Protein.ActiveResidues>
 VAL166  LYS551  ARG553  GLY616  TRP617  ASP618  TYR619  PRO620  LYS621  CYS622 
 ASP623  PHE694  ASN695  SER759  ASP760  ASP761  ALA762  ILE779  LEU786  VAL792 
 PHE793  MET794  SER795  GLU796  ALA797  LYS798  CYS799  TRP800  GLU811  SER814 

> <Gold.Protein.RotatedAtoms>
  151.5309  133.3449  159.2917 H   0  0  0  0  0  0  0  0  0  0  0  0  # atno 6907 bound_to 6896
  150.8594  134.7944  159.7082 H   0  0  0  0  0  0  0  0  0  0  0  0  # atno 6908 bound_to 6896
  152.4618  134.5175  159.9824 H   0  0  0  0  0  0  0  0  0  0  0  0  # atno 6909 bound_to 6896
  144.9366  139.4982  143.5592 H   0  0  0  0  0  0  0  0  0  0  0  0  # atno 7974 bound_to 7965
  156.1572  140.3148  155.8746 H   0  0  0  0  0  0  0  0  0  0  0  0  # atno 8008 bound_to 7997
  155.3855  140.0490  157.3059 H   0  0  0  0  0  0  0  0  0  0  0  0  # atno 8009 bound_to 7997
  154.5112  140.2165  155.9164 H   0  0  0  0  0  0  0  0  0  0  0  0  # atno 8010 bound_to 7997
  139.6696  143.9768  152.2276 H   0  0  0  0  0  0  0  0  0  0  0  0  # atno 10167 bound_to 10162
  157.4562  131.1070  150.9975 H   0  0  0  0  0  0  0  0  0  0  0  0  # atno 10718 bound_to 10713
  154.8610  135.3584  154.5539 H   0  0  0  0  0  0  0  0  0  0  0  0  # atno 10763 bound_to 10752
  153.6156  135.7008  153.5335 H   0  0  0  0  0  0  0  0  0  0  0  0  # atno 10764 bound_to 10752
  153.3172  135.4161  155.1346 H   0  0  0  0  0  0  0  0  0  0  0  0  # atno 10765 bound_to 10752
  140.8538  134.2253  157.4745 H   0  0  0  0  0  0  0  0  0  0  0  0  # atno 11005 bound_to 11000
  146.3269  139.8354  142.8900 LP  0  0  0  0  0  0  0  0  0  0  0  0  # atno 17320 bound_to 7965
  145.3058  141.0206  143.3583 LP  0  0  0  0  0  0  0  0  0  0  0  0  # atno 17321 bound_to 7965
  139.9529  144.6609  150.8154 LP  0  0  0  0  0  0  0  0  0  0  0  0  # atno 17342 bound_to 10162
  140.7613  143.3171  151.2708 LP  0  0  0  0  0  0  0  0  0  0  0  0  # atno 17343 bound_to 10162
  157.0788  130.5894  149.5416 LP  0  0  0  0  0  0  0  0  0  0  0  0  # atno 17370 bound_to 10713
  156.0008  130.5087  150.7656 LP  0  0  0  0  0  0  0  0  0  0  0  0  # atno 17371 bound_to 10713
  139.8705  134.9696  156.4673 LP  0  0  0  0  0  0  0  0  0  0  0  0  # atno 17394 bound_to 11000
  140.8760  133.7953  155.9415 LP  0  0  0  0  0  0  0  0  0  0  0  0  # atno 17395 bound_to 11000

$$$$
