AV-unprocessed.smi:910|AV-procd|sdf|4121|dock4
  -GOLD-   22720 2 23D 1   1.00000     0.00000
 Structure written by MMmdl.
 46 47  0  0  0  0  0  0  0  0  1 V2000
  146.7907  139.8134  151.7972 C   0  0  0  0  0  0  0  0  0  0  0  0
  147.6613  139.7977  153.0341 C   0  0  0  0  0  0  0  0  0  0  0  0
  148.4813  138.7435  153.3319 N   0  0  0  0  0  0  0  0  0  0  0  0
  149.1357  139.0271  154.5204 C   0  0  0  0  0  0  0  0  0  0  0  0
  150.0000  138.2921  155.1486 N   0  0  0  0  0  0  0  0  0  0  0  0
  150.5252  138.7800  156.3331 C   0  0  0  0  0  0  0  0  0  0  0  0
  150.3180  138.3587  157.4757 O   0  0  0  0  0  0  0  0  0  0  0  0
  151.2710  139.8721  156.1035 N   0  0  0  0  0  0  0  0  0  0  0  0
  151.8428  140.7344  157.1336 C   0  0  0  0  0  0  0  0  0  0  0  0
  150.7375  141.4901  157.8843 C   0  0  0  0  0  0  0  0  0  0  0  0
  151.2832  142.0119  159.0866 O   0  0  0  0  0  0  0  0  0  0  0  0
  152.4710  142.7812  158.9451 C   0  0  1  0  0  0  0  0  0  0  0  0
  152.2011  144.0811  158.1538 C   0  0  0  0  0  0  0  0  0  0  0  0
  151.2134  144.9995  158.8916 C   0  0  0  0  0  0  0  0  0  0  0  0
  151.7136  145.3224  160.3067 C   0  0  0  0  0  0  0  0  0  0  0  0
  151.9964  144.0402  161.1060 C   0  0  0  0  0  0  0  0  0  0  0  0
  152.9842  143.1154  160.3641 C   0  0  1  0  0  0  0  0  0  0  0  0
  153.3010  141.8505  161.1771 C   0  0  0  0  0  0  0  0  0  0  0  0
  148.6977  140.2699  154.9186 O   0  0  0  0  0  0  0  0  0  0  0  0
  147.7979  140.7074  153.9955 C   0  0  0  0  0  0  0  0  0  0  0  0
  147.1435  142.0553  154.1973 C   0  0  0  0  0  0  0  0  0  0  0  0
  145.7399  139.8924  152.0769 H   0  0  0  0  0  0  0  0  0  0  0  0
  146.9243  138.9026  151.2127 H   0  0  0  0  0  0  0  0  0  0  0  0
  147.0453  140.6666  151.1680 H   0  0  0  0  0  0  0  0  0  0  0  0
  148.5610  137.9180  152.7558 H   0  0  0  0  0  0  0  0  0  0  0  0
  151.3939  140.1650  155.1451 H   0  0  0  0  0  0  0  0  0  0  0  0
  152.4593  140.1646  157.8307 H   0  0  0  0  0  0  0  0  0  0  0  0
  152.5078  141.4477  156.6465 H   0  0  0  0  0  0  0  0  0  0  0  0
  150.3554  142.3065  157.2704 H   0  0  0  0  0  0  0  0  0  0  0  0
  149.9069  140.8131  158.0809 H   0  0  0  0  0  0  0  0  0  0  0  0
  153.2264  142.1872  158.4281 H   0  0  0  0  0  0  0  0  0  0  0  0
  153.1430  144.6127  158.0119 H   0  0  0  0  0  0  0  0  0  0  0  0
  151.8328  143.8677  157.1515 H   0  0  0  0  0  0  0  0  0  0  0  0
  151.0714  145.9225  158.3291 H   0  0  0  0  0  0  0  0  0  0  0  0
  150.2357  144.5195  158.9478 H   0  0  0  0  0  0  0  0  0  0  0  0
  152.6233  145.9203  160.2437 H   0  0  0  0  0  0  0  0  0  0  0  0
  150.9785  145.9347  160.8282 H   0  0  0  0  0  0  0  0  0  0  0  0
  152.3955  144.3040  162.0859 H   0  0  0  0  0  0  0  0  0  0  0  0
  151.0599  143.5117  161.2900 H   0  0  0  0  0  0  0  0  0  0  0  0
  153.9219  143.6615  160.2519 H   0  0  0  0  0  0  0  0  0  0  0  0
  152.4041  141.2576  161.3597 H   0  0  0  0  0  0  0  0  0  0  0  0
  153.7307  142.1060  162.1460 H   0  0  0  0  0  0  0  0  0  0  0  0
  154.0188  141.2174  160.6551 H   0  0  0  0  0  0  0  0  0  0  0  0
  147.2599  142.6701  153.3046 H   0  0  0  0  0  0  0  0  0  0  0  0
  147.5965  142.5791  155.0395 H   0  0  0  0  0  0  0  0  0  0  0  0
  146.0794  141.9321  154.3987 H   0  0  0  0  0  0  0  0  0  0  0  0
  1 22  1  0  0  0  0
  1 23  1  0  0  0  0
  1 24  1  0  0  0  0
  1  2  1  0  0  0  0
  2  3  1  0  0  0  0
  2 20  2  0  0  0  0
  3 25  1  0  0  0  0
  3  4  1  0  0  0  0
  4 19  1  0  0  0  0
  4  5  2  0  0  0  0
  5  6  1  0  0  0  0
  6  8  1  0  0  0  0
  6  7  2  0  0  0  0
  8  9  1  0  0  0  0
  8 26  1  0  0  0  0
  9 10  1  0  0  0  0
  9 27  1  0  0  0  0
  9 28  1  0  0  0  0
 10 11  1  0  0  0  0
 10 29  1  0  0  0  0
 10 30  1  0  0  0  0
 11 12  1  0  0  0  0
 12 17  1  0  0  0  0
 12 13  1  0  0  0  0
 12 31  1  0  0  0  0
 13 14  1  0  0  0  0
 13 32  1  0  0  0  0
 13 33  1  0  0  0  0
 14 15  1  0  0  0  0
 14 34  1  0  0  0  0
 14 35  1  0  0  0  0
 15 16  1  0  0  0  0
 15 36  1  0  0  0  0
 15 37  1  0  0  0  0
 16 17  1  0  0  0  0
 16 38  1  0  0  0  0
 16 39  1  0  0  0  0
 17 18  1  0  0  0  0
 17 40  1  0  0  0  0
 18 41  1  0  0  0  0
 18 42  1  0  0  0  0
 18 43  1  0  0  0  0
 19 20  1  0  0  0  0
 20 21  1  0  0  0  0
 21 44  1  0  0  0  0
 21 45  1  0  0  0  0
 21 46  1  0  0  0  0
M  END
> <s_m_source_file>
AV-unprocessed.smi

> <i_m_source_file_index>
910

> <i_lp_mmshare_version>
43012

> <i_f3d_flags>
0

> <s_epik_input>
W0NIM11jMW5jKG9jMVtDSDNdKVtOSF1DKD1PKVtOSF1bQ0gyXVtDSDJdT1tDQEBIXTJbQ0gyXVtDSDJdW0NIMl1bQ0gyXVtDQEhdMltDSDNd

> <s_epik_cmdline>
J2VwaWtfcHl0aG9uJywgJy1waCcsICc3LjAnLCAnLXRuJywgJzgnLCAnLW1hJywgJzIwMCcsICctbWV0YWxfYmluZGluZycsICctaW1hZScsICc8aW5maWxlLm1hZT4nLCAnLW9tYWUnLCAnPG91dGZpbGUubWFlPic=

> <r_lp_tautomer_probability>
0.107061

> <r_epik_Ionization_Penalty>
0.727192

> <r_epik_Ionization_Penalty_Charging>
0.726719

> <r_epik_Ionization_Penalty_Neutral>
0.000473387

> <r_epik_State_Penalty>
2.53712

> <r_epik_Charging_Adjusted_Penalty>
3.26383

> <i_epik_Tot_Q>
0

> <i_epik_Tot_abs_Q>
0

> <r_epik_Metal_State_Penalty>
3.71015

> <b_epik_Metal_Only>
0

> <s_lp_Force_Field>
OPLS_2005

> <r_lp_Energy>
28.3743

> <b_lp_Chiralities_Consistent>
1

> <s_lp_Variant>
AV-unprocessed.smi:910-6

> <Gold.Version>
5.8.1

> <Gold.Id.Protein>
6NUR|6NUR_protein|mol2

> <Gold.PLP.Fitness>
47.3764

> <Gold.PLP.PLP>
-45.8744

> <Gold.PLP.part.hbond>
-2.0000

> <Gold.PLP.part.metal>
0.0000

> <Gold.PLP.part.buried>
-1.3250

> <Gold.PLP.part.nonpolar>
-43.5426

> <Gold.PLP.part.repulsive>
0.3851

> <Gold.PLP.ligand.clash>
0.0000

> <Gold.PLP.ligand.torsion>
0.7655

> <Gold.PLP.Chemscore.Hbond>
1.0000

> <Gold.PLP.Chemscore.CHOScore>
0.0000

> <Gold.PLP.Chemscore.Metal>
0.0000

> <Gold.Chemscore.Hbonds>
donor molecule, donor type, donor heavy atom, donor atom, acceptor molecule, acceptor atom, score
      L1  H     3    25       P1  7948  1.00

> <Gold.PLP.Chemscore.Internal.Correction>
0.0330

> <Gold.Rescore>
     Score         DG    S(hbond)    S(metal)    S(lipo)     H(rot)  DE(clash)    DE(int)     intcor
     17.21     -19.33       1.00        0.00     126.11       1.66       0.04       2.07       ----

> <Gold.Chemscore.Fitness>
17.2123

> <Gold.Chemscore.DG>
-19.3267

> <Gold.Chemscore.ZeroCoef>
-5.4800

> <Gold.Chemscore.Hbond>
0.9986

> <Gold.Chemscore.Metal>
0.0000

> <Gold.Chemscore.Lipo>
126.1106

> <Gold.Chemscore.Internal_Hbond>
0.0000

> <Gold.Chemscore.DEClash>
0.0442

> <Gold.Chemscore.DEInternal>
2.0702

> <Gold.Chemscore.Rot>
1.6576

> <Gold.Chemscore.Internal.Correction>
   9.000000E+99

> <Gold.Chemscore.Hbonds>
donor molecule, donor type, donor heavy atom, donor atom, acceptor molecule, acceptor atom, score
      L1  H     3    25       P1  7948  1.00

> <Gold.Chemscore.Hbond.Weighted>
-3.3353

> <Gold.Chemscore.Metal.Weighted>
-0.0000

> <Gold.Chemscore.Lipo.Weighted>
-14.7549

> <Gold.Chemscore.Internal_Hbond.Weighted>
0.0000

> <Gold.Chemscore.DEClash.Weighted>
0.0442

> <Gold.Chemscore.DEInternal.Weighted>
2.0702

> <Gold.Chemscore.Rot.Weighted>
4.2436

> <Gold.Chemscore.Internal.Correction.Weighted>
   9.000000E+99

> <Gold.Protein.RotatedTorsions>
[ 6907 6896 6895 6894 ] final   94.18 input  -60.11 | X-H torsion
[ 7974 7965 7964 7962 ] final  -51.03 input  175.53 | X-H torsion
[ 8008 7997 7996 7995 ] final   91.98 input   59.86 | X-H torsion
[ 10167 10162 10161 10158 ] final  -31.56 input  -65.29 | X-H torsion
[ 10718 10713 10712 10709 ] final  -96.93 input   66.30 | X-H torsion
[ 10763 10752 10751 10750 ] final -132.03 input  -60.55 | X-H torsion
[ 11005 11000 10999 10996 ] final   30.23 input  -57.11 | X-H torsion

> <Gold.Protein.ActiveResidues>
 VAL166  LYS551  ARG553  GLY616  TRP617  ASP618  TYR619  PRO620  LYS621  CYS622 
 ASP623  PHE694  ASN695  SER759  ASP760  ASP761  ALA762  ILE779  LEU786  VAL792 
 PHE793  MET794  SER795  GLU796  ALA797  LYS798  CYS799  TRP800  GLU811  SER814 

> <Gold.Protein.RotatedAtoms>
  152.5450  134.1234  159.8408 H   0  0  0  0  0  0  0  0  0  0  0  0  # atno 6907 bound_to 6896
  151.1287  133.5045  159.2607 H   0  0  0  0  0  0  0  0  0  0  0  0  # atno 6908 bound_to 6896
  151.1699  135.0323  159.8801 H   0  0  0  0  0  0  0  0  0  0  0  0  # atno 6909 bound_to 6896
  145.9235  140.7813  142.9635 H   0  0  0  0  0  0  0  0  0  0  0  0  # atno 7974 bound_to 7965
  156.0300  140.3331  155.7130 H   0  0  0  0  0  0  0  0  0  0  0  0  # atno 8008 bound_to 7997
  155.5898  140.0645  157.2779 H   0  0  0  0  0  0  0  0  0  0  0  0  # atno 8009 bound_to 7997
  154.4349  140.1829  156.1050 H   0  0  0  0  0  0  0  0  0  0  0  0  # atno 8010 bound_to 7997
  140.7234  143.3761  151.1687 H   0  0  0  0  0  0  0  0  0  0  0  0  # atno 10167 bound_to 10162
  156.0072  130.5172  150.6299 H   0  0  0  0  0  0  0  0  0  0  0  0  # atno 10718 bound_to 10713
  154.8746  135.3811  154.4342 H   0  0  0  0  0  0  0  0  0  0  0  0  # atno 10763 bound_to 10752
  153.5033  135.7030  153.5825 H   0  0  0  0  0  0  0  0  0  0  0  0  # atno 10764 bound_to 10752
  153.4147  135.3916  155.2039 H   0  0  0  0  0  0  0  0  0  0  0  0  # atno 10765 bound_to 10752
  140.2965  134.2805  155.7763 H   0  0  0  0  0  0  0  0  0  0  0  0  # atno 11005 bound_to 11000
  144.6755  140.2013  143.7387 LP  0  0  0  0  0  0  0  0  0  0  0  0  # atno 17320 bound_to 7965
  145.8520  139.2180  143.1767 LP  0  0  0  0  0  0  0  0  0  0  0  0  # atno 17321 bound_to 7965
  139.7341  143.9026  152.3029 LP  0  0  0  0  0  0  0  0  0  0  0  0  # atno 17342 bound_to 10162
  139.8825  144.7010  150.8862 LP  0  0  0  0  0  0  0  0  0  0  0  0  # atno 17343 bound_to 10162
  157.4099  131.0822  151.1231 LP  0  0  0  0  0  0  0  0  0  0  0  0  # atno 17370 bound_to 10713
  157.1866  130.6333  149.5690 LP  0  0  0  0  0  0  0  0  0  0  0  0  # atno 17371 bound_to 10713
  141.2136  133.7619  156.9703 LP  0  0  0  0  0  0  0  0  0  0  0  0  # atno 17394 bound_to 11000
  140.1147  134.9454  157.2117 LP  0  0  0  0  0  0  0  0  0  0  0  0  # atno 17395 bound_to 11000

$$$$
