AV-unprocessed.smi:2372|AV-procd|sdf|9438|dock2
  -GOLD-   2272013 63D 1   1.00000     0.00000
 Structure written by MMmdl.
 34 35  0  0  0  0  0  0  0  0  1 V2000
  144.5573  136.4726  152.3602 O   0  0  0  0  0  0  0  0  0  0  0  0
  145.7693  136.3361  152.1959 C   0  0  0  0  0  0  0  0  0  0  0  0
  146.6752  137.2287  152.6201 N   0  0  0  0  0  0  0  0  0  0  0  0
  146.3603  138.4592  153.3357 C   0  0  0  0  0  0  0  0  0  0  0  0
  147.5613  139.4217  153.3637 C   0  0  0  0  0  0  0  0  0  0  0  0
  148.8219  138.6942  153.4418 N   0  0  0  0  0  0  0  0  0  0  0  0
  149.9787  139.2052  153.8904 C   0  0  0  0  0  0  0  0  0  0  0  0
  150.0934  140.3698  154.2755 O   0  0  0  0  0  0  0  0  0  0  0  0
  151.1126  138.2329  153.8879 C   0  0  0  0  0  0  0  0  0  0  0  0
  151.6939  137.8327  155.2289 C   0  0  0  0  0  0  0  0  0  0  0  0
  152.4765  138.7386  154.3122 C   0  0  0  0  0  0  0  0  0  0  0  0
  146.3592  135.3072  151.5636 N   0  0  0  0  0  0  0  0  0  0  0  0
  145.7574  134.1628  150.9720 C   0  0  0  0  0  0  0  0  0  0  0  0
  144.4607  134.1511  150.4030 C   0  0  0  0  0  0  0  0  0  0  0  0
  143.9719  132.9450  149.8620 C   0  0  0  0  0  0  0  0  0  0  0  0
  144.6716  131.7908  149.8639 N   0  0  0  0  0  0  0  0  0  0  0  0
  145.9016  131.8020  150.4200 C   0  0  0  0  0  0  0  0  0  0  0  0
  146.4839  132.9532  150.9875 C   0  0  0  0  0  0  0  0  0  0  0  0
  147.7228  132.8944  151.5335 F   0  0  0  0  0  0  0  0  0  0  0  0
  147.6509  137.0436  152.4388 H   0  0  0  0  0  0  0  0  0  0  0  0
  145.4894  138.9378  152.8841 H   0  0  0  0  0  0  0  0  0  0  0  0
  146.0741  138.1933  154.3537 H   0  0  0  0  0  0  0  0  0  0  0  0
  147.5754  140.0251  152.4557 H   0  0  0  0  0  0  0  0  0  0  0  0
  147.4825  140.1199  154.1988 H   0  0  0  0  0  0  0  0  0  0  0  0
  148.8128  137.7301  153.1421 H   0  0  0  0  0  0  0  0  0  0  0  0
  151.0947  137.4658  153.1151 H   0  0  0  0  0  0  0  0  0  0  0  0
  151.2750  138.2755  156.1311 H   0  0  0  0  0  0  0  0  0  0  0  0
  152.0256  136.8019  155.3350 H   0  0  0  0  0  0  0  0  0  0  0  0
  153.3398  138.3216  153.7978 H   0  0  0  0  0  0  0  0  0  0  0  0
  152.5769  139.7822  154.6059 H   0  0  0  0  0  0  0  0  0  0  0  0
  147.3584  135.3779  151.4388 H   0  0  0  0  0  0  0  0  0  0  0  0
  143.8318  135.0274  150.3799 H   0  0  0  0  0  0  0  0  0  0  0  0
  142.9868  132.9060  149.4210 H   0  0  0  0  0  0  0  0  0  0  0  0
  146.4376  130.8646  150.4144 H   0  0  0  0  0  0  0  0  0  0  0  0
  1  2  2  0  0  0  0
  2  3  1  0  0  0  0
  2 12  1  0  0  0  0
  3  4  1  0  0  0  0
  3 20  1  0  0  0  0
  4  5  1  0  0  0  0
  4 21  1  0  0  0  0
  4 22  1  0  0  0  0
  5  6  1  0  0  0  0
  5 23  1  0  0  0  0
  5 24  1  0  0  0  0
  6  7  1  0  0  0  0
  6 25  1  0  0  0  0
  7  8  2  0  0  0  0
  7  9  1  0  0  0  0
  9 11  1  0  0  0  0
  9 10  1  0  0  0  0
  9 26  1  0  0  0  0
 10 11  1  0  0  0  0
 10 27  1  0  0  0  0
 10 28  1  0  0  0  0
 11 29  1  0  0  0  0
 11 30  1  0  0  0  0
 12 13  1  0  0  0  0
 12 31  1  0  0  0  0
 13 18  1  0  0  0  0
 13 14  2  0  0  0  0
 14 15  1  0  0  0  0
 14 32  1  0  0  0  0
 15 16  2  0  0  0  0
 15 33  1  0  0  0  0
 16 17  1  0  0  0  0
 17 18  2  0  0  0  0
 17 34  1  0  0  0  0
 18 19  1  0  0  0  0
M  END
> <s_m_source_file>
AV-unprocessed.smi

> <i_m_source_file_index>
2372

> <i_lp_mmshare_version>
43012

> <i_f3d_flags>
0

> <s_epik_input>
RmMxW2NIXW5bY0hdW2NIXWMxW05IXUMoPU8pW05IXVtDSDJdW0NIMl1bTkhdQyg9TylbQ0hdMltDSDJdW0NIMl0y

> <s_epik_cmdline>
J2VwaWtfcHl0aG9uJywgJy1waCcsICc3LjAnLCAnLXRuJywgJzgnLCAnLW1hJywgJzIwMCcsICctbWV0YWxfYmluZGluZycsICctaW1hZScsICc8aW5maWxlLm1hZT4nLCAnLW9tYWUnLCAnPG91dGZpbGUubWFlPic=

> <r_epik_Ionization_Penalty>
0.00312497

> <r_epik_Ionization_Penalty_Charging>
0

> <r_epik_Ionization_Penalty_Neutral>
0.00312497

> <r_epik_State_Penalty>
0.00217604

> <r_epik_Charging_Adjusted_Penalty>
0.00217604

> <i_epik_Tot_Q>
0

> <i_epik_Tot_abs_Q>
0

> <r_epik_Metal_State_Penalty>
-0

> <b_epik_Metal_Only>
0

> <s_lp_Force_Field>
OPLS_2005

> <r_lp_Energy>
8.30989

> <b_lp_Chiralities_Consistent>
1

> <s_lp_Variant>
AV-unprocessed.smi:2372-1

> <Gold.Version>
5.8.1

> <Gold.Id.Protein>
6NUR|6NUR_protein|mol2

> <Gold.PLP.Fitness>
50.8673

> <Gold.PLP.PLP>
-34.7208

> <Gold.PLP.part.hbond>
-5.6959

> <Gold.PLP.part.metal>
0.0000

> <Gold.PLP.part.buried>
-0.1542

> <Gold.PLP.part.nonpolar>
-28.6985

> <Gold.PLP.part.repulsive>
0.5959

> <Gold.PLP.ligand.clash>
0.0000

> <Gold.PLP.ligand.torsion>
0.6252

> <Gold.PLP.Chemscore.Hbond>
3.9920

> <Gold.PLP.Chemscore.CHOScore>
1.7682

> <Gold.PLP.Chemscore.Metal>
0.0000

> <Gold.Chemscore.Hbonds>
donor molecule, donor type, donor heavy atom, donor atom, acceptor molecule, acceptor atom, score
      L1  H     3    20       P1  7948  1.00
      L1  H     6    25       P1  7948  1.00
      L1  H    12    31       P1  7948  1.00
      P1  H  7989  7998       L1     8  0.90
      L1  C    15    33       P1 10186  1.00
      L1  C    17    34       P1 10747  0.81

> <Gold.PLP.Chemscore.Internal.Correction>
0.1163

> <Gold.Rescore>
     Score         DG    S(hbond)    S(metal)    S(lipo)     H(rot)  DE(clash)    DE(int)     intcor
     16.18     -17.99       2.88        0.00      67.56       1.96       0.46       1.35       ----

> <Gold.Chemscore.Fitness>
16.1831

> <Gold.Chemscore.DG>
-17.9900

> <Gold.Chemscore.ZeroCoef>
-5.4800

> <Gold.Chemscore.Hbond>
2.8835

> <Gold.Chemscore.Metal>
0.0000

> <Gold.Chemscore.Lipo>
67.5626

> <Gold.Chemscore.Internal_Hbond>
0.0000

> <Gold.Chemscore.DEClash>
0.4578

> <Gold.Chemscore.DEInternal>
1.3492

> <Gold.Chemscore.Rot>
1.9632

> <Gold.Chemscore.Internal.Correction>
   9.000000E+99

> <Gold.Chemscore.Hbonds>
donor molecule, donor type, donor heavy atom, donor atom, acceptor molecule, acceptor atom, score
      L1  H     3    20       P1  7948  0.98
      L1  H     6    25       P1  7948  0.97
      L1  H    12    31       P1  7948  0.84
      P1  H  7989  7998       L1     8  0.31
      P1  H 10785 10796       L1    16  0.01

> <Gold.Chemscore.Hbond.Weighted>
-9.6309

> <Gold.Chemscore.Metal.Weighted>
-0.0000

> <Gold.Chemscore.Lipo.Weighted>
-7.9048

> <Gold.Chemscore.Internal_Hbond.Weighted>
0.0000

> <Gold.Chemscore.DEClash.Weighted>
0.4578

> <Gold.Chemscore.DEInternal.Weighted>
1.3492

> <Gold.Chemscore.Rot.Weighted>
5.0257

> <Gold.Chemscore.Internal.Correction.Weighted>
   9.000000E+99

> <Gold.Protein.RotatedTorsions>
[ 6907 6896 6895 6894 ] final -112.86 input  -60.11 | X-H torsion
[ 7974 7965 7964 7962 ] final  -42.12 input  175.53 | X-H torsion
[ 8008 7997 7996 7995 ] final  -22.46 input   59.86 | X-H torsion
[ 10167 10162 10161 10158 ] final  -93.50 input  -65.29 | X-H torsion
[ 10718 10713 10712 10709 ] final  -19.82 input   66.30 | X-H torsion
[ 10763 10752 10751 10750 ] final  147.99 input  -60.55 | X-H torsion
[ 11005 11000 10999 10996 ] final -125.43 input  -57.11 | X-H torsion

> <Gold.Protein.ActiveResidues>
 VAL166  LYS551  ARG553  GLY616  TRP617  ASP618  TYR619  PRO620  LYS621  CYS622 
 ASP623  PHE694  ASN695  SER759  ASP760  ASP761  ALA762  ILE779  LEU786  VAL792 
 PHE793  MET794  SER795  GLU796  ALA797  LYS798  CYS799  TRP800  GLU811  SER814 

> <Gold.Protein.RotatedAtoms>
  150.7788  133.9028  159.3346 H   0  0  0  0  0  0  0  0  0  0  0  0  # atno 6907 bound_to 6896
  151.6896  135.0946  160.0240 H   0  0  0  0  0  0  0  0  0  0  0  0  # atno 6908 bound_to 6896
  152.3833  133.6537  159.6214 H   0  0  0  0  0  0  0  0  0  0  0  0  # atno 6909 bound_to 6896
  146.0146  140.6924  142.9208 H   0  0  0  0  0  0  0  0  0  0  0  0  # atno 7974 bound_to 7965
  154.4642  140.2007  156.0161 H   0  0  0  0  0  0  0  0  0  0  0  0  # atno 8008 bound_to 7997
  156.0897  140.3260  155.7771 H   0  0  0  0  0  0  0  0  0  0  0  0  # atno 8009 bound_to 7997
  155.4976  140.0551  157.2935 H   0  0  0  0  0  0  0  0  0  0  0  0  # atno 8010 bound_to 7997
  140.3240  143.3032  152.0015 H   0  0  0  0  0  0  0  0  0  0  0  0  # atno 10167 bound_to 10162
  156.5404  130.4677  149.6501 H   0  0  0  0  0  0  0  0  0  0  0  0  # atno 10718 bound_to 10713
  154.0474  135.2884  155.3346 H   0  0  0  0  0  0  0  0  0  0  0  0  # atno 10763 bound_to 10752
  154.6891  135.5233  153.8370 H   0  0  0  0  0  0  0  0  0  0  0  0  # atno 10764 bound_to 10752
  153.0575  135.6601  154.0673 H   0  0  0  0  0  0  0  0  0  0  0  0  # atno 10765 bound_to 10752
  140.9763  134.0736  157.3815 H   0  0  0  0  0  0  0  0  0  0  0  0  # atno 11005 bound_to 11000
  144.6966  140.3458  143.7191 LP  0  0  0  0  0  0  0  0  0  0  0  0  # atno 17320 bound_to 7965
  145.7289  139.1730  143.2442 LP  0  0  0  0  0  0  0  0  0  0  0  0  # atno 17321 bound_to 7965
  139.4869  144.6288  151.7111 LP  0  0  0  0  0  0  0  0  0  0  0  0  # atno 17342 bound_to 10162
  140.5458  144.0506  150.6106 LP  0  0  0  0  0  0  0  0  0  0  0  0  # atno 17343 bound_to 10162
  156.2976  130.7159  151.2023 LP  0  0  0  0  0  0  0  0  0  0  0  0  # atno 17370 bound_to 10713
  157.7406  131.0514  150.5154 LP  0  0  0  0  0  0  0  0  0  0  0  0  # atno 17371 bound_to 10713
  139.8932  135.0129  156.6884 LP  0  0  0  0  0  0  0  0  0  0  0  0  # atno 17394 bound_to 11000
  140.7254  133.9104  155.8175 LP  0  0  0  0  0  0  0  0  0  0  0  0  # atno 17395 bound_to 11000

$$$$
