AV-unprocessed.smi:2724|AV-procd|sdf|10510|dock4
  -GOLD-   2272014553D 1   1.00000     0.00000
 Structure written by MMmdl.
 25 26  0  0  0  0  0  0  0  0  1 V2000
  149.4390  144.0815  158.7815 O   0  0  0  0  0  0  0  0  0  0  0  0
  150.7389  143.7030  158.3791 C   0  0  1  0  0  0  0  0  0  0  0  0
  151.7850  144.1320  159.4066 C   0  0  0  0  0  0  0  0  0  0  0  0
  152.9812  143.2241  159.1210 C   0  0  0  0  0  0  0  0  0  0  0  0
  152.3919  141.9087  158.5899 C   0  0  0  0  0  0  0  0  0  0  0  0
  150.9003  142.1765  158.3025 C   0  0  2  0  0  0  0  0  0  0  0  0
  150.4126  141.5704  156.9929 C   0  0  0  0  0  0  0  0  0  0  0  0
  149.0540  141.6278  156.6121 C   0  0  0  0  0  0  0  0  0  0  0  0
  148.6627  141.0460  155.3912 C   0  0  0  0  0  0  0  0  0  0  0  0
  149.6484  140.4277  154.5972 C   0  0  0  0  0  0  0  0  0  0  0  0
  150.9504  140.3645  154.9489 N   0  0  0  0  0  0  0  0  0  0  0  0
  151.3169  140.9255  156.1213 C   0  0  0  0  0  0  0  0  0  0  0  0
  149.0373  144.5671  158.0771 H   0  0  0  0  0  0  0  0  0  0  0  0
  150.9758  144.1699  157.4223 H   0  0  0  0  0  0  0  0  0  0  0  0
  152.0340  145.1915  159.3381 H   0  0  0  0  0  0  0  0  0  0  0  0
  151.4201  143.9402  160.4170 H   0  0  0  0  0  0  0  0  0  0  0  0
  153.6065  143.6790  158.3516 H   0  0  0  0  0  0  0  0  0  0  0  0
  153.6042  143.0747  160.0033 H   0  0  0  0  0  0  0  0  0  0  0  0
  152.9374  141.6049  157.6957 H   0  0  0  0  0  0  0  0  0  0  0  0
  152.5006  141.1006  159.3143 H   0  0  0  0  0  0  0  0  0  0  0  0
  150.3331  141.7345  159.1241 H   0  0  0  0  0  0  0  0  0  0  0  0
  148.3217  142.1100  157.2429 H   0  0  0  0  0  0  0  0  0  0  0  0
  147.6318  141.0732  155.0704 H   0  0  0  0  0  0  0  0  0  0  0  0
  149.3840  139.9713  153.6549 H   0  0  0  0  0  0  0  0  0  0  0  0
  152.3656  140.8543  156.3698 H   0  0  0  0  0  0  0  0  0  0  0  0
  1  2  1  0  0  0  0
  1 13  1  0  0  0  0
  2  6  1  0  0  0  0
  2  3  1  0  0  0  0
  2 14  1  0  0  0  0
  3  4  1  0  0  0  0
  3 15  1  0  0  0  0
  3 16  1  0  0  0  0
  4  5  1  0  0  0  0
  4 17  1  0  0  0  0
  4 18  1  0  0  0  0
  5  6  1  0  0  0  0
  5 19  1  0  0  0  0
  5 20  1  0  0  0  0
  6  7  1  0  0  0  0
  6 21  1  0  0  0  0
  7 12  1  0  0  0  0
  7  8  2  0  0  0  0
  8  9  1  0  0  0  0
  8 22  1  0  0  0  0
  9 10  2  0  0  0  0
  9 23  1  0  0  0  0
 10 11  1  0  0  0  0
 10 24  1  0  0  0  0
 11 12  2  0  0  0  0
 12 25  1  0  0  0  0
M  END
> <s_m_source_file>
AV-unprocessed.smi

> <i_m_source_file_index>
2724

> <i_lp_mmshare_version>
43012

> <i_f3d_flags>
0

> <s_epik_input>
W09IXVtDQEBIXTFbQ0gyXVtDSDJdW0NIMl1bQ0BIXTFjMltjSF1bY0hdW2NIXW5bY0hdMg==

> <s_epik_cmdline>
J2VwaWtfcHl0aG9uJywgJy1waCcsICc3LjAnLCAnLXRuJywgJzgnLCAnLW1hJywgJzIwMCcsICctbWV0YWxfYmluZGluZycsICctaW1hZScsICc8aW5maWxlLm1hZT4nLCAnLW9tYWUnLCAnPG91dGZpbGUubWFlPic=

> <r_epik_Ionization_Penalty>
0.0175299

> <r_epik_Ionization_Penalty_Charging>
0

> <r_epik_Ionization_Penalty_Neutral>
0.0175299

> <r_epik_State_Penalty>
0.0138989

> <r_epik_Charging_Adjusted_Penalty>
0.0138989

> <i_epik_Tot_Q>
0

> <i_epik_Tot_abs_Q>
0

> <r_epik_Metal_State_Penalty>
1.40631e-05

> <b_epik_Metal_Only>
0

> <s_lp_Force_Field>
OPLS_2005

> <r_lp_Energy>
19.4991

> <b_lp_Chiralities_Consistent>
1

> <s_lp_Variant>
AV-unprocessed.smi:2724-4

> <Gold.Version>
5.8.1

> <Gold.Id.Protein>
6NUR|6NUR_protein|mol2

> <Gold.PLP.Fitness>
35.4746

> <Gold.PLP.PLP>
-26.7025

> <Gold.PLP.part.hbond>
-2.4089

> <Gold.PLP.part.metal>
0.0000

> <Gold.PLP.part.buried>
-2.0859

> <Gold.PLP.part.nonpolar>
-22.0919

> <Gold.PLP.part.repulsive>
0.0618

> <Gold.PLP.ligand.clash>
0.0000

> <Gold.PLP.ligand.torsion>
0.0392

> <Gold.PLP.Chemscore.Hbond>
1.9500

> <Gold.PLP.Chemscore.CHOScore>
1.0000

> <Gold.PLP.Chemscore.Metal>
0.0000

> <Gold.Chemscore.Hbonds>
donor molecule, donor type, donor heavy atom, donor atom, acceptor molecule, acceptor atom, score
      L1  H     1    13       P1  8029  0.90
      P1  H  7989  7998       L1    11  0.95
      L1  C    10    24       P1  7957  1.00

> <Gold.PLP.Chemscore.Internal.Correction>
0.0004

> <Gold.Rescore>
     Score         DG    S(hbond)    S(metal)    S(lipo)     H(rot)  DE(clash)    DE(int)     intcor
     16.61     -16.97       1.53        0.00      83.47       1.32       0.27       0.09       ----

> <Gold.Chemscore.Fitness>
16.6131

> <Gold.Chemscore.DG>
-16.9651

> <Gold.Chemscore.ZeroCoef>
-5.4800

> <Gold.Chemscore.Hbond>
1.5257

> <Gold.Chemscore.Metal>
0.0000

> <Gold.Chemscore.Lipo>
83.4740

> <Gold.Chemscore.Internal_Hbond>
0.0000

> <Gold.Chemscore.DEClash>
0.2659

> <Gold.Chemscore.DEInternal>
0.0860

> <Gold.Chemscore.Rot>
1.3192

> <Gold.Chemscore.Internal.Correction>
   9.000000E+99

> <Gold.Chemscore.Hbonds>
donor molecule, donor type, donor heavy atom, donor atom, acceptor molecule, acceptor atom, score
      L1  H     1    13       P1  8029  0.17
      P1  H  7989  7998       L1    11  0.21

> <Gold.Chemscore.Hbond.Weighted>
-5.0958

> <Gold.Chemscore.Metal.Weighted>
-0.0000

> <Gold.Chemscore.Lipo.Weighted>
-9.7665

> <Gold.Chemscore.Internal_Hbond.Weighted>
0.0000

> <Gold.Chemscore.DEClash.Weighted>
0.2659

> <Gold.Chemscore.DEInternal.Weighted>
0.0860

> <Gold.Chemscore.Rot.Weighted>
3.3772

> <Gold.Chemscore.Internal.Correction.Weighted>
   9.000000E+99

> <Gold.Protein.RotatedTorsions>
[ 6907 6896 6895 6894 ] final  -74.71 input  -60.11 | X-H torsion
[ 7974 7965 7964 7962 ] final  -81.18 input  175.53 | X-H torsion
[ 8008 7997 7996 7995 ] final  152.21 input   59.86 | X-H torsion
[ 10167 10162 10161 10158 ] final  151.99 input  -65.29 | X-H torsion
[ 10718 10713 10712 10709 ] final  -31.96 input   66.30 | X-H torsion
[ 10763 10752 10751 10750 ] final   48.58 input  -60.55 | X-H torsion
[ 11005 11000 10999 10996 ] final -107.94 input  -57.11 | X-H torsion

> <Gold.Protein.ActiveResidues>
 VAL166  LYS551  ARG553  GLY616  TRP617  ASP618  TYR619  PRO620  LYS621  CYS622 
 ASP623  PHE694  ASN695  SER759  ASP760  ASP761  ALA762  ILE779  LEU786  VAL792 
 PHE793  MET794  SER795  GLU796  ALA797  LYS798  CYS799  TRP800  GLU811  SER814 

> <Gold.Protein.RotatedAtoms>
  150.7084  134.4829  159.5478 H   0  0  0  0  0  0  0  0  0  0  0  0  # atno 6907 bound_to 6896
  152.2463  134.8175  160.0462 H   0  0  0  0  0  0  0  0  0  0  0  0  # atno 6908 bound_to 6896
  151.8939  133.3487  159.3844 H   0  0  0  0  0  0  0  0  0  0  0  0  # atno 6909 bound_to 6896
  145.5500  140.9498  143.1504 H   0  0  0  0  0  0  0  0  0  0  0  0  # atno 7974 bound_to 7965
  156.2639  140.2027  156.6297 H   0  0  0  0  0  0  0  0  0  0  0  0  # atno 8008 bound_to 7997
  154.6692  140.0552  157.0171 H   0  0  0  0  0  0  0  0  0  0  0  0  # atno 8009 bound_to 7997
  155.1162  140.3220  155.4512 H   0  0  0  0  0  0  0  0  0  0  0  0  # atno 8010 bound_to 7997
  139.4836  144.5395  151.7588 H   0  0  0  0  0  0  0  0  0  0  0  0  # atno 10167 bound_to 10162
  156.3808  130.4355  149.7471 H   0  0  0  0  0  0  0  0  0  0  0  0  # atno 10718 bound_to 10713
  152.9791  135.5939  154.3949 H   0  0  0  0  0  0  0  0  0  0  0  0  # atno 10763 bound_to 10752
  154.3600  135.2767  155.2327 H   0  0  0  0  0  0  0  0  0  0  0  0  # atno 10764 bound_to 10752
  154.4328  135.6032  153.6134 H   0  0  0  0  0  0  0  0  0  0  0  0  # atno 10765 bound_to 10752
  141.0928  133.9025  157.2035 H   0  0  0  0  0  0  0  0  0  0  0  0  # atno 11005 bound_to 11000
  144.7534  139.7136  143.7264 LP  0  0  0  0  0  0  0  0  0  0  0  0  # atno 17320 bound_to 7965
  146.1923  139.5170  142.9797 LP  0  0  0  0  0  0  0  0  0  0  0  0  # atno 17321 bound_to 7965
  140.4932  144.1279  150.5954 LP  0  0  0  0  0  0  0  0  0  0  0  0  # atno 17342 bound_to 10162
  140.4147  143.2640  151.9790 LP  0  0  0  0  0  0  0  0  0  0  0  0  # atno 17343 bound_to 10162
  156.4562  130.7930  151.2951 LP  0  0  0  0  0  0  0  0  0  0  0  0  # atno 17370 bound_to 10713
  157.7492  131.0080  150.3211 LP  0  0  0  0  0  0  0  0  0  0  0  0  # atno 17371 bound_to 10713
  139.9757  135.0114  156.9625 LP  0  0  0  0  0  0  0  0  0  0  0  0  # atno 17394 bound_to 11000
  140.5212  134.0905  155.7292 LP  0  0  0  0  0  0  0  0  0  0  0  0  # atno 17395 bound_to 11000

$$$$
