AV-unprocessed.smi:206|AV-procd|sdf|1601|dock9
  -GOLD-   2262019513D 1   1.00000     0.00000
 Structure written by MMmdl.
 47 50  0  0  0  0  0  0  0  0  1 V2000
  155.7126  140.3240  163.9694 O   0  0  0  0  0  0  0  0  0  0  0  0
  155.1328  140.2140  162.8903 C   0  0  0  0  0  0  0  0  0  0  0  0
  154.4264  141.3707  162.2075 C   0  0  0  0  0  0  0  0  0  0  0  0
  153.9554  140.7372  160.9818 N   0  0  0  0  0  0  0  0  0  0  0  0
  153.1770  141.3741  160.0690 C   0  0  0  0  0  0  0  0  0  0  0  0
  153.2273  142.7312  160.0203 N   0  0  0  0  0  0  0  0  0  0  0  0
  152.4832  143.4082  159.1420 C   0  0  0  0  0  0  0  0  0  0  0  0
  151.6309  142.9348  158.2327 N   0  0  0  0  0  0  0  0  0  0  0  0
  151.5722  141.5730  158.2705 C   0  0  0  0  0  0  0  0  0  0  0  0
  152.3069  140.7204  159.1457 C   0  0  0  0  0  0  0  0  0  0  0  0
  151.9901  139.3942  158.8730 N   0  0  0  0  0  0  0  0  0  0  0  0
  151.1264  139.4590  157.8977 C   0  0  0  0  0  0  0  0  0  0  0  0
  150.8032  140.7315  157.4837 N   0  0  0  0  0  0  0  0  0  0  0  0
  149.9065  141.0976  156.4228 C   0  0  0  0  0  0  0  0  0  0  0  0
  148.4471  140.6306  156.3941 C   0  0  0  0  0  0  0  0  0  0  0  0
  148.5229  140.4569  154.8597 C   0  0  0  0  0  0  0  0  0  0  0  0
  147.9658  139.1289  154.3235 C   0  0  0  0  0  0  0  0  0  0  0  0
  148.3398  138.9166  152.9773 O   0  0  0  0  0  0  0  0  0  0  0  0
  147.9222  141.5850  153.9916 C   0  0  0  0  0  0  0  0  0  0  0  0
  148.5031  142.8493  154.2402 O   0  0  0  0  0  0  0  0  0  0  0  0
  150.0587  140.4762  155.0338 C   0  0  0  0  0  0  0  0  0  0  0  0
  154.3042  139.3249  160.9136 C   0  0  0  0  0  0  0  0  0  0  0  0
  155.0312  139.1027  162.1527 N   0  0  0  0  0  0  0  0  0  0  0  0
  155.5890  137.7896  162.4682 C   0  0  0  0  0  0  0  0  0  0  0  0
  154.8734  137.1182  163.6540 C   0  0  0  0  0  0  0  0  0  0  0  0
  155.3747  135.8960  163.8269 F   0  0  0  0  0  0  0  0  0  0  0  0
  155.0507  137.8103  164.7791 F   0  0  0  0  0  0  0  0  0  0  0  0
  153.5678  137.0104  163.4069 F   0  0  0  0  0  0  0  0  0  0  0  0
  153.6004  141.7339  162.8204 H   0  0  0  0  0  0  0  0  0  0  0  0
  155.1207  142.1850  161.9976 H   0  0  0  0  0  0  0  0  0  0  0  0
  152.5835  144.4833  159.1741 H   0  0  0  0  0  0  0  0  0  0  0  0
  150.7041  138.5700  157.4534 H   0  0  0  0  0  0  0  0  0  0  0  0
  149.9398  142.1857  156.3550 H   0  0  0  0  0  0  0  0  0  0  0  0
  148.2851  139.6862  156.9145 H   0  0  0  0  0  0  0  0  0  0  0  0
  147.7322  141.3821  156.7304 H   0  0  0  0  0  0  0  0  0  0  0  0
  148.3095  138.2856  154.9235 H   0  0  0  0  0  0  0  0  0  0  0  0
  146.8764  139.1155  154.3710 H   0  0  0  0  0  0  0  0  0  0  0  0
  148.6936  138.0439  152.8971 H   0  0  0  0  0  0  0  0  0  0  0  0
  148.0508  141.3650  152.9313 H   0  0  0  0  0  0  0  0  0  0  0  0
  146.8496  141.6821  154.1616 H   0  0  0  0  0  0  0  0  0  0  0  0
  148.5704  142.9705  155.1751 H   0  0  0  0  0  0  0  0  0  0  0  0
  150.5944  141.1037  154.3207 H   0  0  0  0  0  0  0  0  0  0  0  0
  150.4971  139.4777  155.0749 H   0  0  0  0  0  0  0  0  0  0  0  0
  153.4132  138.6969  160.8751 H   0  0  0  0  0  0  0  0  0  0  0  0
  154.9387  139.1161  160.0512 H   0  0  0  0  0  0  0  0  0  0  0  0
  155.5139  137.1519  161.5863 H   0  0  0  0  0  0  0  0  0  0  0  0
  156.6546  137.8879  162.6820 H   0  0  0  0  0  0  0  0  0  0  0  0
  1  2  2  0  0  0  0
  2 23  1  0  0  0  0
  2  3  1  0  0  0  0
  3  4  1  0  0  0  0
  3 29  1  0  0  0  0
  3 30  1  0  0  0  0
  4  5  1  0  0  0  0
  4 22  1  0  0  0  0
  5 10  1  0  0  0  0
  5  6  2  0  0  0  0
  6  7  1  0  0  0  0
  7  8  2  0  0  0  0
  7 31  1  0  0  0  0
  8  9  1  0  0  0  0
  9 13  1  0  0  0  0
  9 10  2  0  0  0  0
 10 11  1  0  0  0  0
 11 12  2  0  0  0  0
 12 13  1  0  0  0  0
 12 32  1  0  0  0  0
 13 14  1  0  0  0  0
 14 21  1  0  0  0  0
 14 15  1  0  0  0  0
 14 33  1  0  0  0  0
 15 16  1  0  0  0  0
 15 34  1  0  0  0  0
 15 35  1  0  0  0  0
 16 17  1  0  0  0  0
 16 19  1  0  0  0  0
 16 21  1  0  0  0  0
 17 18  1  0  0  0  0
 17 36  1  0  0  0  0
 17 37  1  0  0  0  0
 18 38  1  0  0  0  0
 19 20  1  0  0  0  0
 19 39  1  0  0  0  0
 19 40  1  0  0  0  0
 20 41  1  0  0  0  0
 21 42  1  0  0  0  0
 21 43  1  0  0  0  0
 22 23  1  0  0  0  0
 22 44  1  0  0  0  0
 22 45  1  0  0  0  0
 23 24  1  0  0  0  0
 24 25  1  0  0  0  0
 24 46  1  0  0  0  0
 24 47  1  0  0  0  0
 25 26  1  0  0  0  0
 25 27  1  0  0  0  0
 25 28  1  0  0  0  0
M  END
> <s_m_source_file>
AV-unprocessed.smi

> <i_m_source_file_index>
206

> <i_lp_mmshare_version>
43012

> <i_f3d_flags>
0

> <s_epik_input>
RkMoRikoRilbQ0gyXU4xW0NIMl1OKFtDSDJdQzE9TyljKG5bY0hdbjIpYyhjMjMpbltjSF1uM1tDSF0oW0NIMl00KVtDSDJdQzQoW0NIMl1bT0hdKVtDSDJdW09IXQ==

> <s_epik_cmdline>
J2VwaWtfcHl0aG9uJywgJy1waCcsICc3LjAnLCAnLXRuJywgJzgnLCAnLW1hJywgJzIwMCcsICctbWV0YWxfYmluZGluZycsICctaW1hZScsICc8aW5maWxlLm1hZT4nLCAnLW9tYWUnLCAnPG91dGZpbGUubWFlPic=

> <r_lp_tautomer_probability>
1

> <r_epik_Ionization_Penalty>
0.000251167

> <r_epik_Ionization_Penalty_Charging>
0

> <r_epik_Ionization_Penalty_Neutral>
0.000251167

> <r_epik_State_Penalty>
-0

> <r_epik_Charging_Adjusted_Penalty>
0

> <i_epik_Tot_Q>
0

> <i_epik_Tot_abs_Q>
0

> <r_epik_Metal_State_Penalty>
-0

> <b_epik_Metal_Only>
0

> <s_epik_Chemistry_Notes>
This compound contains an acetal/aminal-like group ( X-CH(R)-Y where X, Y are N, S, or O) that may be acid/base labile, releasing an aldehyde.

> <s_lp_Force_Field>
OPLS_2005

> <r_lp_Energy>
40.1188

> <b_lp_Chiralities_Consistent>
1

> <s_lp_Variant>
AV-unprocessed.smi:206-1

> <Gold.Version>
5.8.1

> <Gold.Id.Protein>
6NUR|6NUR_protein|mol2

> <Gold.PLP.Fitness>
57.3514

> <Gold.PLP.PLP>
-51.1076

> <Gold.PLP.part.hbond>
-3.9216

> <Gold.PLP.part.metal>
0.0000

> <Gold.PLP.part.buried>
-3.4145

> <Gold.PLP.part.nonpolar>
-42.7177

> <Gold.PLP.part.repulsive>
0.0459

> <Gold.PLP.ligand.clash>
0.0000

> <Gold.PLP.ligand.torsion>
0.5338

> <Gold.PLP.Chemscore.Hbond>
2.2720

> <Gold.PLP.Chemscore.CHOScore>
0.0000

> <Gold.PLP.Chemscore.Metal>
0.0000

> <Gold.Chemscore.Hbonds>
donor molecule, donor type, donor heavy atom, donor atom, acceptor molecule, acceptor atom, score
      L1  H    18    38       P1  7948  0.88
      L1  H    20    41       P1  8028  0.24
      P1  H  8022  8030       L1    20  1.00

> <Gold.PLP.Chemscore.Internal.Correction>
0.4953

> <Gold.Rescore>
     Score         DG    S(hbond)    S(metal)    S(lipo)     H(rot)  DE(clash)    DE(int)     intcor
      5.98      -8.07       1.50        0.00      62.26       3.79       0.05       2.04       ----

> <Gold.Chemscore.Fitness>
5.9791

> <Gold.Chemscore.DG>
-8.0727

> <Gold.Chemscore.ZeroCoef>
-5.4800

> <Gold.Chemscore.Hbond>
1.5025

> <Gold.Chemscore.Metal>
0.0000

> <Gold.Chemscore.Lipo>
62.2644

> <Gold.Chemscore.Internal_Hbond>
0.0000

> <Gold.Chemscore.DEClash>
0.0510

> <Gold.Chemscore.DEInternal>
2.0426

> <Gold.Chemscore.Rot>
3.7932

> <Gold.Chemscore.Internal.Correction>
   9.000000E+99

> <Gold.Chemscore.Hbonds>
donor molecule, donor type, donor heavy atom, donor atom, acceptor molecule, acceptor atom, score
      L1  H    18    38       P1  7948  0.82
      L1  H    20    41       P1  8028  0.24
      P1  H  8022  8030       L1    20  0.28

> <Gold.Chemscore.Hbond.Weighted>
-5.0184

> <Gold.Chemscore.Metal.Weighted>
-0.0000

> <Gold.Chemscore.Lipo.Weighted>
-7.2849

> <Gold.Chemscore.Internal_Hbond.Weighted>
0.0000

> <Gold.Chemscore.DEClash.Weighted>
0.0510

> <Gold.Chemscore.DEInternal.Weighted>
2.0426

> <Gold.Chemscore.Rot.Weighted>
9.7107

> <Gold.Chemscore.Internal.Correction.Weighted>
   9.000000E+99

> <Gold.Protein.RotatedTorsions>
[ 6907 6896 6895 6894 ] final  -57.29 input  -60.11 | X-H torsion
[ 7974 7965 7964 7962 ] final   -6.54 input  175.53 | X-H torsion
[ 8008 7997 7996 7995 ] final  -22.67 input   59.86 | X-H torsion
[ 10167 10162 10161 10158 ] final  163.35 input  -65.29 | X-H torsion
[ 10718 10713 10712 10709 ] final  -14.83 input   66.30 | X-H torsion
[ 10763 10752 10751 10750 ] final   55.60 input  -60.55 | X-H torsion
[ 11005 11000 10999 10996 ] final  122.42 input  -57.11 | X-H torsion

> <Gold.Protein.ActiveResidues>
 VAL166  LYS551  ARG553  GLY616  TRP617  ASP618  TYR619  PRO620  LYS621  CYS622 
 ASP623  PHE694  ASN695  SER759  ASP760  ASP761  ALA762  ILE779  LEU786  VAL792 
 PHE793  MET794  SER795  GLU796  ALA797  LYS798  CYS799  TRP800  GLU811  SER814 

> <Gold.Protein.RotatedAtoms>
  150.8098  134.7246  159.6677 H   0  0  0  0  0  0  0  0  0  0  0  0  # atno 6907 bound_to 6896
  152.4218  134.5938  159.9991 H   0  0  0  0  0  0  0  0  0  0  0  0  # atno 6908 bound_to 6896
  151.6151  133.3306  159.3112 H   0  0  0  0  0  0  0  0  0  0  0  0  # atno 6909 bound_to 6896
  146.2328  140.2186  142.8337 H   0  0  0  0  0  0  0  0  0  0  0  0  # atno 7974 bound_to 7965
  154.4630  140.2001  156.0193 H   0  0  0  0  0  0  0  0  0  0  0  0  # atno 8008 bound_to 7997
  156.0876  140.3262  155.7745 H   0  0  0  0  0  0  0  0  0  0  0  0  # atno 8009 bound_to 7997
  155.5010  140.0554  157.2930 H   0  0  0  0  0  0  0  0  0  0  0  0  # atno 8010 bound_to 7997
  139.4872  144.4346  151.9028 H   0  0  0  0  0  0  0  0  0  0  0  0  # atno 10167 bound_to 10162
  156.6104  130.4848  149.6204 H   0  0  0  0  0  0  0  0  0  0  0  0  # atno 10718 bound_to 10713
  152.9819  135.5705  154.5094 H   0  0  0  0  0  0  0  0  0  0  0  0  # atno 10763 bound_to 10752
  154.4600  135.2781  155.1721 H   0  0  0  0  0  0  0  0  0  0  0  0  # atno 10764 bound_to 10752
  154.3313  135.6248  153.5606 H   0  0  0  0  0  0  0  0  0  0  0  0  # atno 10765 bound_to 10752
  139.9267  134.9641  156.8106 H   0  0  0  0  0  0  0  0  0  0  0  0  # atno 11005 bound_to 11000
  144.9650  140.8313  143.5490 LP  0  0  0  0  0  0  0  0  0  0  0  0  # atno 17320 bound_to 7965
  145.2160  139.2181  143.5118 LP  0  0  0  0  0  0  0  0  0  0  0  0  # atno 17321 bound_to 7965
  140.3795  144.2754  150.5910 LP  0  0  0  0  0  0  0  0  0  0  0  0  # atno 17342 bound_to 10162
  140.5246  143.2257  151.8335 LP  0  0  0  0  0  0  0  0  0  0  0  0  # atno 17343 bound_to 10162
  156.2394  130.6842  151.1541 LP  0  0  0  0  0  0  0  0  0  0  0  0  # atno 17370 bound_to 10713
  157.7255  131.0652  150.5948 LP  0  0  0  0  0  0  0  0  0  0  0  0  # atno 17371 bound_to 10713
  140.6315  133.9901  155.7664 LP  0  0  0  0  0  0  0  0  0  0  0  0  # atno 17394 bound_to 11000
  141.0830  134.0033  157.3357 LP  0  0  0  0  0  0  0  0  0  0  0  0  # atno 17395 bound_to 11000

$$$$
