AV-unprocessed.smi:1741|AV-procd|sdf|7019|dock3
  -GOLD-   22720 8233D 1   1.00000     0.00000
 Structure written by MMmdl.
 38 39  0  0  0  0  0  0  0  0  1 V2000
  150.1399  128.8952  153.5868 C   0  0  0  0  0  0  0  0  0  0  0  0
  148.9544  129.8409  153.3615 C   0  0  0  0  0  0  0  0  0  0  0  0
  149.2006  131.1515  153.9301 N   0  0  0  0  0  0  0  0  0  0  0  0
  149.2444  132.3694  153.2809 C   0  0  0  0  0  0  0  0  0  0  0  0
  149.4981  133.2961  154.2468 C   0  0  0  0  0  0  0  0  0  0  0  0
  149.6197  134.6896  154.0191 N   0  0  0  0  0  0  0  0  0  0  0  0
  150.3409  135.5695  154.7320 C   0  0  0  0  0  0  0  0  0  0  0  0
  151.0521  135.2847  155.6954 O   0  0  0  0  0  0  0  0  0  0  0  0
  150.1896  136.8148  154.2591 N   0  0  0  0  0  0  0  0  0  0  0  0
  150.8141  138.0178  154.8061 C   0  0  1  0  0  0  0  0  0  0  0  0
  152.3012  138.0402  154.4211 C   0  0  0  0  0  0  0  0  0  0  0  0
  150.0656  139.2687  154.3062 C   0  0  1  0  0  0  0  0  0  0  0  0
  148.5799  139.3089  154.6743 C   0  0  0  0  0  0  0  0  0  0  0  0
  148.2976  140.7930  154.6582 C   0  0  0  0  0  0  0  0  0  0  0  0
  149.5810  141.3552  155.2596 C   0  0  0  0  0  0  0  0  0  0  0  0
  150.6167  140.4496  154.8872 O   0  0  0  0  0  0  0  0  0  0  0  0
  149.5959  132.5693  155.4671 C   0  0  0  0  0  0  0  0  0  0  0  0
  149.4135  131.2733  155.2635 N   0  0  0  0  0  0  0  0  0  0  0  0
  149.9385  127.9125  153.1603 H   0  0  0  0  0  0  0  0  0  0  0  0
  150.3409  128.7624  154.6504 H   0  0  0  0  0  0  0  0  0  0  0  0
  151.0466  129.2810  153.1196 H   0  0  0  0  0  0  0  0  0  0  0  0
  148.7533  129.9508  152.2948 H   0  0  0  0  0  0  0  0  0  0  0  0
  148.0514  129.4289  153.8133 H   0  0  0  0  0  0  0  0  0  0  0  0
  149.0922  132.4659  152.2160 H   0  0  0  0  0  0  0  0  0  0  0  0
  149.0908  135.0572  153.2420 H   0  0  0  0  0  0  0  0  0  0  0  0
  149.5864  136.9458  153.4606 H   0  0  0  0  0  0  0  0  0  0  0  0
  150.7463  138.0061  155.8956 H   0  0  0  0  0  0  0  0  0  0  0  0
  152.8016  138.9161  154.8350 H   0  0  0  0  0  0  0  0  0  0  0  0
  152.4315  138.0635  153.3388 H   0  0  0  0  0  0  0  0  0  0  0  0
  152.8186  137.1587  154.8010 H   0  0  0  0  0  0  0  0  0  0  0  0
  150.1625  139.3590  153.2227 H   0  0  0  0  0  0  0  0  0  0  0  0
  147.9530  138.7477  153.9811 H   0  0  0  0  0  0  0  0  0  0  0  0
  148.4206  138.9110  155.6779 H   0  0  0  0  0  0  0  0  0  0  0  0
  148.1779  141.1406  153.6313 H   0  0  0  0  0  0  0  0  0  0  0  0
  147.4054  141.0686  155.2208 H   0  0  0  0  0  0  0  0  0  0  0  0
  149.7928  142.3679  154.9156 H   0  0  0  0  0  0  0  0  0  0  0  0
  149.5144  141.3746  156.3481 H   0  0  0  0  0  0  0  0  0  0  0  0
  149.7849  132.9186  156.4712 H   0  0  0  0  0  0  0  0  0  0  0  0
  1  2  1  0  0  0  0
  1 19  1  0  0  0  0
  1 20  1  0  0  0  0
  1 21  1  0  0  0  0
  2  3  1  0  0  0  0
  2 22  1  0  0  0  0
  2 23  1  0  0  0  0
  3 18  1  0  0  0  0
  3  4  1  0  0  0  0
  4  5  2  0  0  0  0
  4 24  1  0  0  0  0
  5  6  1  0  0  0  0
  5 17  1  0  0  0  0
  6  7  1  0  0  0  0
  6 25  1  0  0  0  0
  7  8  2  0  0  0  0
  7  9  1  0  0  0  0
  9 10  1  0  0  0  0
  9 26  1  0  0  0  0
 10 11  1  0  0  0  0
 10 12  1  0  0  0  0
 10 27  1  0  0  0  0
 11 28  1  0  0  0  0
 11 29  1  0  0  0  0
 11 30  1  0  0  0  0
 12 16  1  0  0  0  0
 12 13  1  0  0  0  0
 12 31  1  0  0  0  0
 13 14  1  0  0  0  0
 13 32  1  0  0  0  0
 13 33  1  0  0  0  0
 14 15  1  0  0  0  0
 14 34  1  0  0  0  0
 14 35  1  0  0  0  0
 15 16  1  0  0  0  0
 15 36  1  0  0  0  0
 15 37  1  0  0  0  0
 17 18  2  0  0  0  0
 17 38  1  0  0  0  0
M  END
> <s_m_source_file>
AV-unprocessed.smi

> <i_m_source_file_index>
1741

> <i_lp_mmshare_version>
43012

> <i_f3d_flags>
0

> <s_epik_input>
W0NIM11bQ0gyXW4xW2NIXWMoW2NIXW4xKVtOSF1DKD1PKVtOSF1bQ0BIXShbQ0gzXSlbQ0BASF0yW0NIMl1bQ0gyXVtDSDJdTzI=

> <s_epik_cmdline>
J2VwaWtfcHl0aG9uJywgJy1waCcsICc3LjAnLCAnLXRuJywgJzgnLCAnLW1hJywgJzIwMCcsICctbWV0YWxfYmluZGluZycsICctaW1hZScsICc8aW5maWxlLm1hZT4nLCAnLW9tYWUnLCAnPG91dGZpbGUubWFlPic=

> <r_lp_tautomer_probability>
1

> <r_epik_Ionization_Penalty>
0.000179292

> <r_epik_Ionization_Penalty_Charging>
0

> <r_epik_Ionization_Penalty_Neutral>
0.000179292

> <r_epik_State_Penalty>
-0

> <r_epik_Charging_Adjusted_Penalty>
0

> <i_epik_Tot_Q>
0

> <i_epik_Tot_abs_Q>
0

> <r_epik_Metal_State_Penalty>
-0

> <b_epik_Metal_Only>
0

> <s_lp_Force_Field>
OPLS_2005

> <r_lp_Energy>
21.0752

> <b_lp_Chiralities_Consistent>
1

> <s_lp_Variant>
AV-unprocessed.smi:1741-4

> <Gold.Version>
5.8.1

> <Gold.Id.Protein>
6NUR|6NUR_protein|mol2

> <Gold.PLP.Fitness>
43.6265

> <Gold.PLP.PLP>
-33.1303

> <Gold.PLP.part.hbond>
-4.3332

> <Gold.PLP.part.metal>
0.0000

> <Gold.PLP.part.buried>
0.1873

> <Gold.PLP.part.nonpolar>
-27.9937

> <Gold.PLP.part.repulsive>
0.2431

> <Gold.PLP.ligand.clash>
0.0000

> <Gold.PLP.ligand.torsion>
0.3876

> <Gold.PLP.Chemscore.Hbond>
2.8640

> <Gold.PLP.Chemscore.CHOScore>
0.8882

> <Gold.PLP.Chemscore.Metal>
0.0000

> <Gold.Chemscore.Hbonds>
donor molecule, donor type, donor heavy atom, donor atom, acceptor molecule, acceptor atom, score
      L1  H     6    25       P1  7948  0.88
      L1  H     9    26       P1  7948  0.91
      P1  H  7989  7998       L1    16  0.80
      P1  H 10752 10764       L1     8  0.06
      L1  C     4    24       P1 10747  1.00

> <Gold.PLP.Chemscore.Internal.Correction>
0.0149

> <Gold.Rescore>
     Score         DG    S(hbond)    S(metal)    S(lipo)     H(rot)  DE(clash)    DE(int)     intcor
     14.90     -16.71       2.11        0.00      65.82       1.38       0.08       1.73       ----

> <Gold.Chemscore.Fitness>
14.8967

> <Gold.Chemscore.DG>
-16.7067

> <Gold.Chemscore.ZeroCoef>
-5.4800

> <Gold.Chemscore.Hbond>
2.1127

> <Gold.Chemscore.Metal>
0.0000

> <Gold.Chemscore.Lipo>
65.8155

> <Gold.Chemscore.Internal_Hbond>
0.0000

> <Gold.Chemscore.DEClash>
0.0763

> <Gold.Chemscore.DEInternal>
1.7337

> <Gold.Chemscore.Rot>
1.3790

> <Gold.Chemscore.Internal.Correction>
   9.000000E+99

> <Gold.Chemscore.Hbonds>
donor molecule, donor type, donor heavy atom, donor atom, acceptor molecule, acceptor atom, score
      L1  H     6    25       P1  7948  0.17
      L1  H     9    26       P1  7948  0.66
      P1  H  7989  7998       L1    16  0.11
      P1  H 10752 10764       L1     8  0.06

> <Gold.Chemscore.Hbond.Weighted>
-7.0565

> <Gold.Chemscore.Metal.Weighted>
-0.0000

> <Gold.Chemscore.Lipo.Weighted>
-7.7004

> <Gold.Chemscore.Internal_Hbond.Weighted>
0.0000

> <Gold.Chemscore.DEClash.Weighted>
0.0763

> <Gold.Chemscore.DEInternal.Weighted>
1.7337

> <Gold.Chemscore.Rot.Weighted>
3.5302

> <Gold.Chemscore.Internal.Correction.Weighted>
   9.000000E+99

> <Gold.Protein.RotatedTorsions>
[ 6907 6896 6895 6894 ] final   -5.42 input  -60.11 | X-H torsion
[ 7974 7965 7964 7962 ] final -150.49 input  175.53 | X-H torsion
[ 8008 7997 7996 7995 ] final   16.77 input   59.86 | X-H torsion
[ 10167 10162 10161 10158 ] final   -9.83 input  -65.29 | X-H torsion
[ 10718 10713 10712 10709 ] final   55.78 input   66.30 | X-H torsion
[ 10763 10752 10751 10750 ] final   -7.95 input  -60.55 | X-H torsion
[ 11005 11000 10999 10996 ] final   61.47 input  -57.11 | X-H torsion

> <Gold.Protein.ActiveResidues>
 VAL166  LYS551  ARG553  GLY616  TRP617  ASP618  TYR619  PRO620  LYS621  CYS622 
 ASP623  PHE694  ASN695  SER759  ASP760  ASP761  ALA762  ILE779  LEU786  VAL792 
 PHE793  MET794  SER795  GLU796  ALA797  LYS798  CYS799  TRP800  GLU811  SER814 

> <Gold.Protein.RotatedAtoms>
  151.4818  135.1052  159.9779 H   0  0  0  0  0  0  0  0  0  0  0  0  # atno 6907 bound_to 6896
  152.4776  133.8172  159.7045 H   0  0  0  0  0  0  0  0  0  0  0  0  # atno 6908 bound_to 6896
  150.8824  133.7292  159.2954 H   0  0  0  0  0  0  0  0  0  0  0  0  # atno 6909 bound_to 6896
  144.7905  140.4925  143.5776 H   0  0  0  0  0  0  0  0  0  0  0  0  # atno 7974 bound_to 7965
  154.8817  140.2974  155.5421 H   0  0  0  0  0  0  0  0  0  0  0  0  # atno 8008 bound_to 7997
  156.3022  140.2441  156.3754 H   0  0  0  0  0  0  0  0  0  0  0  0  # atno 8009 bound_to 7997
  154.8710  140.0401  157.1713 H   0  0  0  0  0  0  0  0  0  0  0  0  # atno 8010 bound_to 7997
  140.7098  143.5814  150.8988 H   0  0  0  0  0  0  0  0  0  0  0  0  # atno 10167 bound_to 10162
  157.5374  130.8673  149.8773 H   0  0  0  0  0  0  0  0  0  0  0  0  # atno 10718 bound_to 10713
  153.4335  135.7012  153.6215 H   0  0  0  0  0  0  0  0  0  0  0  0  # atno 10763 bound_to 10752
  153.4620  135.3734  155.2343 H   0  0  0  0  0  0  0  0  0  0  0  0  # atno 10764 bound_to 10752
  154.8726  135.4022  154.3723 H   0  0  0  0  0  0  0  0  0  0  0  0  # atno 10765 bound_to 10752
  140.0159  134.6226  155.9711 H   0  0  0  0  0  0  0  0  0  0  0  0  # atno 11005 bound_to 11000
  145.5808  139.1489  143.3236 LP  0  0  0  0  0  0  0  0  0  0  0  0  # atno 17320 bound_to 7965
  146.2154  140.5938  142.9041 LP  0  0  0  0  0  0  0  0  0  0  0  0  # atno 17321 bound_to 7965
  139.9540  143.6239  152.3021 LP  0  0  0  0  0  0  0  0  0  0  0  0  # atno 17342 bound_to 10162
  139.6768  144.7658  151.1681 LP  0  0  0  0  0  0  0  0  0  0  0  0  # atno 17343 bound_to 10162
  156.0470  130.3726  150.1294 LP  0  0  0  0  0  0  0  0  0  0  0  0  # atno 17370 bound_to 10713
  156.9476  130.9764  151.3504 LP  0  0  0  0  0  0  0  0  0  0  0  0  # atno 17371 bound_to 10713
  141.1742  133.6539  156.4766 LP  0  0  0  0  0  0  0  0  0  0  0  0  # atno 17394 bound_to 11000
  140.4472  134.6961  157.5022 LP  0  0  0  0  0  0  0  0  0  0  0  0  # atno 17395 bound_to 11000

$$$$
