AV-unprocessed.smi:3237|AV-procd|sdf|12367|dock8
  -GOLD-   2272018223D 1   1.00000     0.00000
 Structure written by MMmdl.
 36 38  0  0  0  0  0  0  0  0  3 V2000
  151.9500  141.1934  159.1936 C   0  0  0  0  0  0  0  0  0  0  0  0
  151.6565  140.8020  157.7855 C   0  0  0  0  0  0  0  0  0  0  0  0
  150.6434  141.1205  156.9265 C   0  0  0  0  0  0  0  0  0  0  0  0
  150.9838  140.4084  155.7443 C   0  0  0  0  0  0  0  0  0  0  0  0
  150.2777  140.3943  154.6031 N   0  5  0  0  0  0  0  0  0  0  0  0
  148.9362  140.2284  154.6367 C   0  0  0  0  0  0  0  0  0  0  0  0
  148.1891  140.4872  155.5830 O   0  0  0  0  0  0  0  0  0  0  0  0
  148.4266  139.7270  153.5030 N   0  0  0  0  0  0  0  0  0  0  0  0
  147.0163  139.4410  153.2650 C   0  0  2  0  0  0  0  0  0  0  0  0
  146.3731  138.5188  154.3041 C   0  0  0  0  0  0  0  0  0  0  0  0
  145.2697  137.7790  153.5305 C   0  0  0  0  0  0  0  0  0  0  0  0
  145.4534  138.1106  152.0980 N   0  3  2  0  0  0  0  0  0  0  0  0
  145.1664  136.9938  151.1735 C   0  0  0  0  0  0  0  0  0  0  0  0
  144.1776  135.9934  151.7224 C   0  0  0  0  0  0  0  0  0  0  0  0
  145.6521  135.6553  151.6759 C   0  0  0  0  0  0  0  0  0  0  0  0
  146.8083  138.6728  151.9644 C   0  0  0  0  0  0  0  0  0  0  0  0
  152.0966  139.7065  155.8791 N   0  0  0  0  0  0  0  0  0  0  0  0
  152.5388  139.9599  157.1831 O   0  0  0  0  0  0  0  0  0  0  0  0
  151.0547  141.1142  159.8102 H   0  0  0  0  0  0  0  0  0  0  0  0
  152.3031  142.2235  159.2410 H   0  0  0  0  0  0  0  0  0  0  0  0
  152.7166  140.5520  159.6286 H   0  0  0  0  0  0  0  0  0  0  0  0
  149.7957  141.7630  157.1118 H   0  0  0  0  0  0  0  0  0  0  0  0
  149.0723  139.5304  152.7522 H   0  0  0  0  0  0  0  0  0  0  0  0
  146.4561  140.3767  153.2131 H   0  0  0  0  0  0  0  0  0  0  0  0
  147.1030  137.7982  154.6767 H   0  0  0  0  0  0  0  0  0  0  0  0
  145.9854  139.0697  155.1617 H   0  0  0  0  0  0  0  0  0  0  0  0
  145.3462  136.7045  153.7038 H   0  0  0  0  0  0  0  0  0  0  0  0
  144.2761  138.0965  153.8476 H   0  0  0  0  0  0  0  0  0  0  0  0
  145.1894  137.2247  150.1098 H   0  0  0  0  0  0  0  0  0  0  0  0
  143.7365  136.1876  152.6985 H   0  0  0  0  0  0  0  0  0  0  0  0
  143.5278  135.4876  151.0109 H   0  0  0  0  0  0  0  0  0  0  0  0
  145.9741  134.9277  150.9336 H   0  0  0  0  0  0  0  0  0  0  0  0
  146.1914  135.6243  152.6211 H   0  0  0  0  0  0  0  0  0  0  0  0
  146.8943  139.3092  151.0830 H   0  0  0  0  0  0  0  0  0  0  0  0
  147.5371  137.8645  151.8752 H   0  0  0  0  0  0  0  0  0  0  0  0
  144.8104  138.8615  151.8914 H   0  0  0  0  0  0  0  0  0  0  0  0
  1  2  1  0  0  0  0
  1 19  1  0  0  0  0
  1 20  1  0  0  0  0
  1 21  1  0  0  0  0
  2 18  1  0  0  0  0
  2  3  2  0  0  0  0
  3  4  1  0  0  0  0
  3 22  1  0  0  0  0
  4  5  1  0  0  0  0
  4 17  2  0  0  0  0
  5  6  1  0  0  0  0
  6  7  2  0  0  0  0
  6  8  1  0  0  0  0
  8  9  1  0  0  0  0
  8 23  1  0  0  0  0
  9 16  1  0  0  0  0
  9 10  1  0  0  0  0
  9 24  1  0  0  0  0
 10 11  1  0  0  0  0
 10 25  1  0  0  0  0
 10 26  1  0  0  0  0
 11 12  1  0  0  0  0
 11 27  1  0  0  0  0
 11 28  1  0  0  0  0
 12 13  1  0  0  0  0
 12 16  1  0  0  0  0
 12 36  1  0  0  0  0
 13 15  1  0  0  0  0
 13 14  1  0  0  0  0
 13 29  1  0  0  0  0
 14 15  1  0  0  0  0
 14 30  1  0  0  0  0
 14 31  1  0  0  0  0
 15 32  1  0  0  0  0
 15 33  1  0  0  0  0
 16 34  1  0  0  0  0
 16 35  1  0  0  0  0
 17 18  1  0  0  0  0
M  CHG  1   5  -1
M  CHG  1  12   1
M  END
> <s_m_source_file>
AV-unprocessed.smi

> <i_m_source_file_index>
3237

> <i_lp_mmshare_version>
43012

> <i_f3d_flags>
0

> <s_epik_input>
W0NIM11jMVtjSF1jKG5vMSlbTkhdQyg9TylbTkhdW0NAQEhdMltDSDJdW0NIMl1OKFtDSDJdMilbQ0hdM1tDSDJdW0NIMl0z

> <s_epik_cmdline>
J2VwaWtfcHl0aG9uJywgJy1waCcsICc3LjAnLCAnLXRuJywgJzgnLCAnLW1hJywgJzIwMCcsICctbWV0YWxfYmluZGluZycsICctaW1hZScsICc8aW5maWxlLm1hZT4nLCAnLW9tYWUnLCAnPG91dGZpbGUubWFlPic=

> <r_epik_Ionization_Penalty>
6.08472

> <r_epik_Ionization_Penalty_Charging>
6.08464

> <r_epik_Ionization_Penalty_Neutral>
8.41751e-05

> <r_epik_State_Penalty>
6.08438

> <r_epik_Charging_Adjusted_Penalty>
12.169

> <i_epik_Tot_Q>
0

> <i_epik_Tot_abs_Q>
2

> <r_epik_Metal_State_Penalty>
2.0369

> <b_epik_Metal_Only>
1

> <s_lp_Force_Field>
OPLS_2005

> <r_lp_Energy>
23.7168

> <b_lp_Chiralities_Consistent>
1

> <s_lp_Variant>
AV-unprocessed.smi:3237-5

> <Gold.Version>
5.8.1

> <Gold.Id.Protein>
6NUR|6NUR_protein|mol2

> <Gold.PLP.Fitness>
41.9687

> <Gold.PLP.PLP>
-28.6625

> <Gold.PLP.part.hbond>
-5.0473

> <Gold.PLP.part.metal>
0.0000

> <Gold.PLP.part.buried>
0.3821

> <Gold.PLP.part.nonpolar>
-24.6700

> <Gold.PLP.part.repulsive>
0.2724

> <Gold.PLP.ligand.clash>
0.0000

> <Gold.PLP.ligand.torsion>
1.2000

> <Gold.PLP.Chemscore.Hbond>
4.8120

> <Gold.PLP.Chemscore.CHOScore>
0.0000

> <Gold.PLP.Chemscore.Metal>
0.0000

> <Gold.Chemscore.Hbonds>
donor molecule, donor type, donor heavy atom, donor atom, acceptor molecule, acceptor atom, score
      L1  H     8    23       P1  7957  0.90
      L1  H    12    36       P1 10175  2.00
      P1  H  7989  7998       L1     5  0.90
      P1  H  7997  8008       L1    18  0.99

> <Gold.PLP.Chemscore.Internal.Correction>
1.2703

> <Gold.Rescore>
     Score         DG    S(hbond)    S(metal)    S(lipo)     H(rot)  DE(clash)    DE(int)     intcor
     13.98     -18.59       2.82        0.00      58.78       1.25       2.12       2.48       ----

> <Gold.Chemscore.Fitness>
13.9815

> <Gold.Chemscore.DG>
-18.5867

> <Gold.Chemscore.ZeroCoef>
-5.4800

> <Gold.Chemscore.Hbond>
2.8205

> <Gold.Chemscore.Metal>
0.0000

> <Gold.Chemscore.Lipo>
58.7790

> <Gold.Chemscore.Internal_Hbond>
0.0000

> <Gold.Chemscore.DEClash>
2.1250

> <Gold.Chemscore.DEInternal>
2.4803

> <Gold.Chemscore.Rot>
1.2464

> <Gold.Chemscore.Internal.Correction>
   9.000000E+99

> <Gold.Chemscore.Hbonds>
donor molecule, donor type, donor heavy atom, donor atom, acceptor molecule, acceptor atom, score
      L1  H     8    23       P1  7957  0.88
      L1  H    12    36       P1 10175  0.90
      P1  H  7989  7998       L1     5  0.17
      P1  H  7997  8008       L1    18  0.24

> <Gold.Chemscore.Hbond.Weighted>
-9.4204

> <Gold.Chemscore.Metal.Weighted>
-0.0000

> <Gold.Chemscore.Lipo.Weighted>
-6.8771

> <Gold.Chemscore.Internal_Hbond.Weighted>
0.0000

> <Gold.Chemscore.DEClash.Weighted>
2.1250

> <Gold.Chemscore.DEInternal.Weighted>
2.4803

> <Gold.Chemscore.Rot.Weighted>
3.1909

> <Gold.Chemscore.Internal.Correction.Weighted>
   9.000000E+99

> <Gold.Protein.RotatedTorsions>
[ 6907 6896 6895 6894 ] final  -50.19 input  -60.11 | X-H torsion
[ 7974 7965 7964 7962 ] final  -90.37 input  175.53 | X-H torsion
[ 8008 7997 7996 7995 ] final  -75.54 input   59.86 | X-H torsion
[ 10167 10162 10161 10158 ] final   -7.20 input  -65.29 | X-H torsion
[ 10718 10713 10712 10709 ] final   58.33 input   66.30 | X-H torsion
[ 10763 10752 10751 10750 ] final  -31.14 input  -60.55 | X-H torsion
[ 11005 11000 10999 10996 ] final  119.36 input  -57.11 | X-H torsion

> <Gold.Protein.ActiveResidues>
 VAL166  LYS551  ARG553  GLY616  TRP617  ASP618  TYR619  PRO620  LYS621  CYS622 
 ASP623  PHE694  ASN695  SER759  ASP760  ASP761  ALA762  ILE779  LEU786  VAL792 
 PHE793  MET794  SER795  GLU796  ALA797  LYS798  CYS799  TRP800  GLU811  SER814 

> <Gold.Protein.RotatedAtoms>
  150.8731  134.8109  159.7169 H   0  0  0  0  0  0  0  0  0  0  0  0  # atno 6907 bound_to 6896
  152.4728  134.4915  159.9706 H   0  0  0  0  0  0  0  0  0  0  0  0  # atno 6908 bound_to 6896
  151.5001  133.3468  159.2903 H   0  0  0  0  0  0  0  0  0  0  0  0  # atno 6909 bound_to 6896
  145.4274  140.9554  143.2147 H   0  0  0  0  0  0  0  0  0  0  0  0  # atno 7974 bound_to 7965
  154.5426  140.0742  156.8535 H   0  0  0  0  0  0  0  0  0  0  0  0  # atno 8008 bound_to 7997
  155.3151  140.3392  155.4224 H   0  0  0  0  0  0  0  0  0  0  0  0  # atno 8009 bound_to 7997
  156.1888  140.1678  156.8119 H   0  0  0  0  0  0  0  0  0  0  0  0  # atno 8010 bound_to 7997
  140.7021  143.6108  150.8706 H   0  0  0  0  0  0  0  0  0  0  0  0  # atno 10167 bound_to 10162
  157.5588  130.8820  149.9078 H   0  0  0  0  0  0  0  0  0  0  0  0  # atno 10718 bound_to 10713
  153.7924  135.6896  153.4869 H   0  0  0  0  0  0  0  0  0  0  0  0  # atno 10763 bound_to 10752
  153.1741  135.4531  154.9940 H   0  0  0  0  0  0  0  0  0  0  0  0  # atno 10764 bound_to 10752
  154.8039  135.3349  154.7419 H   0  0  0  0  0  0  0  0  0  0  0  0  # atno 10765 bound_to 10752
  139.9143  134.9628  156.7643 H   0  0  0  0  0  0  0  0  0  0  0  0  # atno 11005 bound_to 11000
  144.8205  139.5800  143.6989 LP  0  0  0  0  0  0  0  0  0  0  0  0  # atno 17320 bound_to 7965
  146.2625  139.6443  142.9352 LP  0  0  0  0  0  0  0  0  0  0  0  0  # atno 17321 bound_to 7965
  139.9830  143.5930  152.2936 LP  0  0  0  0  0  0  0  0  0  0  0  0  # atno 17342 bound_to 10162
  139.6558  144.7662  151.2059 LP  0  0  0  0  0  0  0  0  0  0  0  0  # atno 17343 bound_to 10162
  156.0643  130.3695  150.0913 LP  0  0  0  0  0  0  0  0  0  0  0  0  # atno 17370 bound_to 10713
  156.9079  130.9642  151.3567 LP  0  0  0  0  0  0  0  0  0  0  0  0  # atno 17371 bound_to 10713
  140.6672  133.9592  155.7836 LP  0  0  0  0  0  0  0  0  0  0  0  0  # atno 17394 bound_to 11000
  141.0603  134.0356  157.3668 LP  0  0  0  0  0  0  0  0  0  0  0  0  # atno 17395 bound_to 11000

$$$$
