AV-unprocessed.smi:1198|AV-procd|sdf|5013|dock1
  -GOLD-   22720 4 23D 1   1.00000     0.00000
 Structure written by MMmdl.
 40 41  0  0  0  0  0  0  0  0  2 V2000
  151.1751  140.6186  156.6945 C   0  0  0  0  0  0  0  0  0  0  0  0
  150.4949  141.4135  155.7288 O   0  0  0  0  0  0  0  0  0  0  0  0
  149.3840  140.8805  155.1075 C   0  0  0  0  0  0  0  0  0  0  0  0
  149.1633  139.4916  155.1932 C   0  0  0  0  0  0  0  0  0  0  0  0
  148.0324  138.9441  154.5585 C   0  0  0  0  0  0  0  0  0  0  0  0
  147.1603  139.7955  153.8503 C   0  0  0  0  0  0  0  0  0  0  0  0
  146.0175  139.2175  153.2333 N   0  0  0  0  0  0  0  0  0  0  0  0
  145.7218  137.9158  153.0747 C   0  0  0  0  0  0  0  0  0  0  0  0
  146.3950  136.9761  153.4971 O   0  0  0  0  0  0  0  0  0  0  0  0
  144.5684  137.7557  152.4096 N   0  0  0  0  0  0  0  0  0  0  0  0
  143.9735  136.4726  152.0468 C   0  0  0  0  0  0  0  0  0  0  0  0
  144.9227  135.6047  151.1975 C   0  0  1  0  0  0  0  0  0  0  0  0
  145.8062  134.6722  152.0265 C   0  0  0  0  0  0  0  0  0  0  0  0
  146.2095  133.5542  151.0561 C   0  0  0  0  0  0  0  0  0  0  0  0
  145.2686  133.6223  149.9142 N   0  3  1  0  0  0  0  0  0  0  0  0
  144.7311  132.3162  149.4798 C   0  0  0  0  0  0  0  0  0  0  0  0
  144.2361  134.6240  150.2441 C   0  0  0  0  0  0  0  0  0  0  0  0
  147.4615  141.1796  153.8346 C   0  0  0  0  0  0  0  0  0  0  0  0
  148.5438  141.7105  154.4417 N   0  0  0  0  0  0  0  0  0  0  0  0
  152.0226  141.1775  157.0908 H   0  0  0  0  0  0  0  0  0  0  0  0
  151.5630  139.6995  156.2530 H   0  0  0  0  0  0  0  0  0  0  0  0
  150.5246  140.3663  157.5333 H   0  0  0  0  0  0  0  0  0  0  0  0
  149.8494  138.8582  155.7362 H   0  0  0  0  0  0  0  0  0  0  0  0
  147.8421  137.8820  154.6135 H   0  0  0  0  0  0  0  0  0  0  0  0
  145.3243  139.8750  152.9069 H   0  0  0  0  0  0  0  0  0  0  0  0
  144.0782  138.5846  152.1054 H   0  0  0  0  0  0  0  0  0  0  0  0
  143.7356  135.9484  152.9727 H   0  0  0  0  0  0  0  0  0  0  0  0
  143.0228  136.6218  151.5315 H   0  0  0  0  0  0  0  0  0  0  0  0
  145.5728  136.2568  150.6114 H   0  0  0  0  0  0  0  0  0  0  0  0
  146.6672  135.1834  152.4582 H   0  0  0  0  0  0  0  0  0  0  0  0
  145.2295  134.2457  152.8487 H   0  0  0  0  0  0  0  0  0  0  0  0
  147.2221  133.7070  150.6817 H   0  0  0  0  0  0  0  0  0  0  0  0
  146.1844  132.5841  151.5552 H   0  0  0  0  0  0  0  0  0  0  0  0
  144.1616  131.8392  150.2788 H   0  0  0  0  0  0  0  0  0  0  0  0
  145.5427  131.6480  149.1902 H   0  0  0  0  0  0  0  0  0  0  0  0
  144.0742  132.4427  148.6187 H   0  0  0  0  0  0  0  0  0  0  0  0
  143.4009  134.1362  150.7501 H   0  0  0  0  0  0  0  0  0  0  0  0
  143.8514  135.1077  149.3458 H   0  0  0  0  0  0  0  0  0  0  0  0
  146.8237  141.9001  153.3475 H   0  0  0  0  0  0  0  0  0  0  0  0
  145.7939  134.0036  149.1403 H   0  0  0  0  0  0  0  0  0  0  0  0
  1  2  1  0  0  0  0
  1 20  1  0  0  0  0
  1 21  1  0  0  0  0
  1 22  1  0  0  0  0
  2  3  1  0  0  0  0
  3 19  1  0  0  0  0
  3  4  2  0  0  0  0
  4  5  1  0  0  0  0
  4 23  1  0  0  0  0
  5  6  2  0  0  0  0
  5 24  1  0  0  0  0
  6  7  1  0  0  0  0
  6 18  1  0  0  0  0
  7  8  1  0  0  0  0
  7 25  1  0  0  0  0
  8  9  2  0  0  0  0
  8 10  1  0  0  0  0
 10 11  1  0  0  0  0
 10 26  1  0  0  0  0
 11 12  1  0  0  0  0
 11 27  1  0  0  0  0
 11 28  1  0  0  0  0
 12 17  1  0  0  0  0
 12 13  1  0  0  0  0
 12 29  1  0  0  0  0
 13 14  1  0  0  0  0
 13 30  1  0  0  0  0
 13 31  1  0  0  0  0
 14 15  1  0  0  0  0
 14 32  1  0  0  0  0
 14 33  1  0  0  0  0
 15 16  1  0  0  0  0
 15 17  1  0  0  0  0
 15 40  1  0  0  0  0
 16 34  1  0  0  0  0
 16 35  1  0  0  0  0
 16 36  1  0  0  0  0
 17 37  1  0  0  0  0
 17 38  1  0  0  0  0
 18 19  2  0  0  0  0
 18 39  1  0  0  0  0
M  CHG  1  15   1
M  END
> <s_m_source_file>
AV-unprocessed.smi

> <i_m_source_file_index>
1198

> <i_lp_mmshare_version>
43012

> <i_f3d_flags>
0

> <s_epik_input>
W0NIM11PYzFbY0hdW2NIXWMoW2NIXW4xKVtOSF1DKD1PKVtOSF1bQ0gyXVtDQEBIXTJbQ0gyXVtDSDJdTihbQ0gzXSlbQ0gyXTI=

> <s_epik_cmdline>
J2VwaWtfcHl0aG9uJywgJy1waCcsICc3LjAnLCAnLXRuJywgJzgnLCAnLW1hJywgJzIwMCcsICctbWV0YWxfYmluZGluZycsICctaW1hZScsICc8aW5maWxlLm1hZT4nLCAnLW9tYWUnLCAnPG91dGZpbGUubWFlPic=

> <r_lp_tautomer_probability>
1

> <r_epik_Ionization_Penalty>
0.00131396

> <r_epik_Ionization_Penalty_Charging>
0.0012301

> <r_epik_Ionization_Penalty_Neutral>
8.38549e-05

> <r_epik_State_Penalty>
0.00081314

> <r_epik_Charging_Adjusted_Penalty>
0.00204324

> <i_epik_Tot_Q>
1

> <i_epik_Tot_abs_Q>
1

> <r_epik_Metal_State_Penalty>
-0

> <b_epik_Metal_Only>
0

> <s_lp_Force_Field>
OPLS_2005

> <r_lp_Energy>
29.2509

> <b_lp_Chiralities_Consistent>
1

> <s_lp_Variant>
AV-unprocessed.smi:1198-4

> <Gold.Version>
5.8.1

> <Gold.Id.Protein>
6NUR|6NUR_protein|mol2

> <Gold.PLP.Fitness>
42.1943

> <Gold.PLP.PLP>
-33.5035

> <Gold.PLP.part.hbond>
-6.0000

> <Gold.PLP.part.metal>
0.0000

> <Gold.PLP.part.buried>
-2.0142

> <Gold.PLP.part.nonpolar>
-26.2376

> <Gold.PLP.part.repulsive>
1.5086

> <Gold.PLP.ligand.clash>
0.0000

> <Gold.PLP.ligand.torsion>
0.5843

> <Gold.PLP.Chemscore.Hbond>
3.2749

> <Gold.PLP.Chemscore.CHOScore>
0.0000

> <Gold.PLP.Chemscore.Metal>
0.0000

> <Gold.Chemscore.Hbonds>
donor molecule, donor type, donor heavy atom, donor atom, acceptor molecule, acceptor atom, score
      L1  H     7    25       P1 10175  1.00
      L1  H    10    26       P1 10175  0.96
      L1  H    15    40       P1  7921  1.00

> <Gold.PLP.Chemscore.Internal.Correction>
0.0346

> <Gold.Rescore>
     Score         DG    S(hbond)    S(metal)    S(lipo)     H(rot)  DE(clash)    DE(int)     intcor
     13.90     -19.66       2.95        0.00      70.17       1.51       1.83       3.93       ----

> <Gold.Chemscore.Fitness>
13.8981

> <Gold.Chemscore.DG>
-19.6582

> <Gold.Chemscore.ZeroCoef>
-5.4800

> <Gold.Chemscore.Hbond>
2.9481

> <Gold.Chemscore.Metal>
0.0000

> <Gold.Chemscore.Lipo>
70.1682

> <Gold.Chemscore.Internal_Hbond>
0.0000

> <Gold.Chemscore.DEClash>
1.8315

> <Gold.Chemscore.DEInternal>
3.9286

> <Gold.Chemscore.Rot>
1.5149

> <Gold.Chemscore.Internal.Correction>
   9.000000E+99

> <Gold.Chemscore.Hbonds>
donor molecule, donor type, donor heavy atom, donor atom, acceptor molecule, acceptor atom, score
      L1  H     7    25       P1 10175  0.99
      L1  H    10    26       P1 10175  0.92
      L1  H    15    40       P1  7921  0.35

> <Gold.Chemscore.Hbond.Weighted>
-9.8466

> <Gold.Chemscore.Metal.Weighted>
-0.0000

> <Gold.Chemscore.Lipo.Weighted>
-8.2097

> <Gold.Chemscore.Internal_Hbond.Weighted>
0.0000

> <Gold.Chemscore.DEClash.Weighted>
1.8315

> <Gold.Chemscore.DEInternal.Weighted>
3.9286

> <Gold.Chemscore.Rot.Weighted>
3.8781

> <Gold.Chemscore.Internal.Correction.Weighted>
   9.000000E+99

> <Gold.Protein.RotatedTorsions>
[ 6907 6896 6895 6894 ] final   73.49 input  -60.11 | X-H torsion
[ 7974 7965 7964 7962 ] final  116.10 input  175.53 | X-H torsion
[ 8008 7997 7996 7995 ] final  -70.79 input   59.86 | X-H torsion
[ 10167 10162 10161 10158 ] final  140.86 input  -65.29 | X-H torsion
[ 10718 10713 10712 10709 ] final -131.71 input   66.30 | X-H torsion
[ 10763 10752 10751 10750 ] final -150.66 input  -60.55 | X-H torsion
[ 11005 11000 10999 10996 ] final -139.43 input  -57.11 | X-H torsion

> <Gold.Protein.ActiveResidues>
 VAL166  LYS551  ARG553  GLY616  TRP617  ASP618  TYR619  PRO620  LYS621  CYS622 
 ASP623  PHE694  ASN695  SER759  ASP760  ASP761  ALA762  ILE779  LEU786  VAL792 
 PHE793  MET794  SER795  GLU796  ALA797  LYS798  CYS799  TRP800  GLU811  SER814 

> <Gold.Protein.RotatedAtoms>
  152.4926  134.4413  159.9544 H   0  0  0  0  0  0  0  0  0  0  0  0  # atno 6907 bound_to 6896
  151.4398  133.3640  159.2788 H   0  0  0  0  0  0  0  0  0  0  0  0  # atno 6908 bound_to 6896
  150.9096  134.8535  159.7476 H   0  0  0  0  0  0  0  0  0  0  0  0  # atno 6909 bound_to 6896
  145.1837  139.3036  143.4404 H   0  0  0  0  0  0  0  0  0  0  0  0  # atno 7974 bound_to 7965
  154.5039  140.0827  156.7853 H   0  0  0  0  0  0  0  0  0  0  0  0  # atno 8008 bound_to 7997
  155.3940  140.3434  155.4235 H   0  0  0  0  0  0  0  0  0  0  0  0  # atno 8009 bound_to 7997
  156.1491  140.1552  156.8787 H   0  0  0  0  0  0  0  0  0  0  0  0  # atno 8010 bound_to 7997
  139.5037  144.6208  151.6056 H   0  0  0  0  0  0  0  0  0  0  0  0  # atno 10167 bound_to 10162
  156.2272  130.7015  151.0819 H   0  0  0  0  0  0  0  0  0  0  0  0  # atno 10718 bound_to 10713
  154.8106  135.3279  154.7316 H   0  0  0  0  0  0  0  0  0  0  0  0  # atno 10763 bound_to 10752
  153.7966  135.6907  153.4867 H   0  0  0  0  0  0  0  0  0  0  0  0  # atno 10764 bound_to 10752
  153.1881  135.4561  155.0061 H   0  0  0  0  0  0  0  0  0  0  0  0  # atno 10765 bound_to 10752
  140.8521  134.2273  157.4755 H   0  0  0  0  0  0  0  0  0  0  0  0  # atno 11005 bound_to 11000
  146.3448  140.2026  142.8589 LP  0  0  0  0  0  0  0  0  0  0  0  0  # atno 17320 bound_to 7965
  145.0110  140.8714  143.5224 LP  0  0  0  0  0  0  0  0  0  0  0  0  # atno 17321 bound_to 7965
  140.5909  143.9781  150.6324 LP  0  0  0  0  0  0  0  0  0  0  0  0  # atno 17342 bound_to 10162
  140.2961  143.3291  152.1016 LP  0  0  0  0  0  0  0  0  0  0  0  0  # atno 17343 bound_to 10162
  157.7116  131.0731  150.6481 LP  0  0  0  0  0  0  0  0  0  0  0  0  # atno 17370 bound_to 10713
  156.6546  130.4495  149.5708 LP  0  0  0  0  0  0  0  0  0  0  0  0  # atno 17371 bound_to 10713
  139.8704  134.9688  156.4644 LP  0  0  0  0  0  0  0  0  0  0  0  0  # atno 17394 bound_to 11000
  140.8779  133.7940  155.9434 LP  0  0  0  0  0  0  0  0  0  0  0  0  # atno 17395 bound_to 11000

$$$$
