AV-unprocessed.smi:1146|AV-procd|sdf|4886|dock1
  -GOLD-   22720 3463D 1   1.00000     0.00000
 Structure written by MMmdl.
 46 47  0  0  0  0  0  0  0  0  1 V2000
  151.3518  144.2849  160.6859 C   0  0  0  0  0  0  0  0  0  0  0  0
  152.8089  143.9290  160.3658 C   0  0  0  0  0  0  0  0  0  0  0  0
  152.9400  142.5256  159.9821 N   0  0  0  0  0  0  0  0  0  0  0  0
  153.7071  141.5924  160.5925 C   0  0  0  0  0  0  0  0  0  0  0  0
  154.4248  141.7784  161.5749 O   0  0  0  0  0  0  0  0  0  0  0  0
  153.5497  140.4197  159.9338 N   0  0  0  0  0  0  0  0  0  0  0  0
  154.2066  139.1496  160.2549 C   0  0  0  0  0  0  0  0  0  0  0  0
  155.7327  139.1359  159.9743 C   0  0  0  0  0  0  0  0  0  0  0  0
  156.5367  140.1651  160.7925 C   0  0  0  0  0  0  0  0  0  0  0  0
  156.2925  137.7216  160.2031 C   0  0  0  0  0  0  0  0  0  0  0  0
  155.9339  139.4022  158.6003 O   0  0  0  0  0  0  0  0  0  0  0  0
  152.6652  140.6132  158.8604 C   0  0  0  0  0  0  0  0  0  0  0  0
  152.1799  139.7217  157.8873 C   0  0  0  0  0  0  0  0  0  0  0  0
  151.2802  140.2487  156.9307 C   0  0  0  0  0  0  0  0  0  0  0  0
  150.6222  139.1863  155.6526 S   0  0  0  0  0  0  0  0  0  0  0  0
  150.8347  139.8087  154.3363 O   0  0  0  0  0  0  0  0  0  0  0  0
  151.1127  137.8252  155.9198 O   0  0  0  0  0  0  0  0  0  0  0  0
  148.9220  139.2171  155.9860 N   0  0  0  0  0  0  0  0  0  0  0  0
  148.0072  139.4974  154.8745 C   0  0  0  0  0  0  0  0  0  0  0  0
  148.4953  139.7802  157.2705 C   0  0  0  0  0  0  0  0  0  0  0  0
  150.8955  141.6145  156.9508 C   0  0  0  0  0  0  0  0  0  0  0  0
  151.3991  142.4859  157.9442 C   0  0  0  0  0  0  0  0  0  0  0  0
  152.2847  141.9397  158.8902 C   0  0  0  0  0  0  0  0  0  0  0  0
  151.2624  145.3344  160.9672 H   0  0  0  0  0  0  0  0  0  0  0  0
  150.9715  143.6854  161.5136 H   0  0  0  0  0  0  0  0  0  0  0  0
  150.7058  144.1164  159.8238 H   0  0  0  0  0  0  0  0  0  0  0  0
  153.1773  144.5678  159.5616 H   0  0  0  0  0  0  0  0  0  0  0  0
  153.4430  144.1362  161.2281 H   0  0  0  0  0  0  0  0  0  0  0  0
  154.0338  138.9417  161.3107 H   0  0  0  0  0  0  0  0  0  0  0  0
  153.7123  138.3339  159.7240 H   0  0  0  0  0  0  0  0  0  0  0  0
  156.4050  140.0053  161.8629 H   0  0  0  0  0  0  0  0  0  0  0  0
  156.2378  141.1897  160.5696 H   0  0  0  0  0  0  0  0  0  0  0  0
  157.6037  140.0903  160.5800 H   0  0  0  0  0  0  0  0  0  0  0  0
  156.1878  137.4205  161.2460 H   0  0  0  0  0  0  0  0  0  0  0  0
  157.3524  137.6657  159.9513 H   0  0  0  0  0  0  0  0  0  0  0  0
  155.7708  136.9821  159.5937 H   0  0  0  0  0  0  0  0  0  0  0  0
  156.8612  139.3721  158.4191 H   0  0  0  0  0  0  0  0  0  0  0  0
  152.4765  138.6838  157.8729 H   0  0  0  0  0  0  0  0  0  0  0  0
  146.9727  139.3254  155.1730 H   0  0  0  0  0  0  0  0  0  0  0  0
  148.2232  138.8463  154.0276 H   0  0  0  0  0  0  0  0  0  0  0  0
  148.1117  140.5343  154.5535 H   0  0  0  0  0  0  0  0  0  0  0  0
  147.4639  139.5016  157.4892 H   0  0  0  0  0  0  0  0  0  0  0  0
  148.5685  140.8679  157.2485 H   0  0  0  0  0  0  0  0  0  0  0  0
  149.1255  139.4069  158.0778 H   0  0  0  0  0  0  0  0  0  0  0  0
  150.2128  141.9921  156.2039 H   0  0  0  0  0  0  0  0  0  0  0  0
  151.1127  143.5268  157.9702 H   0  0  0  0  0  0  0  0  0  0  0  0
  1  2  1  0  0  0  0
  1 24  1  0  0  0  0
  1 25  1  0  0  0  0
  1 26  1  0  0  0  0
  2  3  1  0  0  0  0
  2 27  1  0  0  0  0
  2 28  1  0  0  0  0
  3 23  1  0  0  0  0
  3  4  1  0  0  0  0
  4  5  2  0  0  0  0
  4  6  1  0  0  0  0
  6  7  1  0  0  0  0
  6 12  1  0  0  0  0
  7  8  1  0  0  0  0
  7 29  1  0  0  0  0
  7 30  1  0  0  0  0
  8  9  1  0  0  0  0
  8 10  1  0  0  0  0
  8 11  1  0  0  0  0
  9 31  1  0  0  0  0
  9 32  1  0  0  0  0
  9 33  1  0  0  0  0
 10 34  1  0  0  0  0
 10 35  1  0  0  0  0
 10 36  1  0  0  0  0
 11 37  1  0  0  0  0
 12 23  2  0  0  0  0
 12 13  1  0  0  0  0
 13 14  2  0  0  0  0
 13 38  1  0  0  0  0
 14 15  1  0  0  0  0
 14 21  1  0  0  0  0
 15 16  2  0  0  0  0
 15 17  2  0  0  0  0
 15 18  1  0  0  0  0
 18 19  1  0  0  0  0
 18 20  1  0  0  0  0
 19 39  1  0  0  0  0
 19 40  1  0  0  0  0
 19 41  1  0  0  0  0
 20 42  1  0  0  0  0
 20 43  1  0  0  0  0
 20 44  1  0  0  0  0
 21 22  2  0  0  0  0
 21 45  1  0  0  0  0
 22 23  1  0  0  0  0
 22 46  1  0  0  0  0
M  END
> <s_m_source_file>
AV-unprocessed.smi

> <i_m_source_file_index>
1146

> <i_lp_mmshare_version>
43012

> <i_f3d_flags>
0

> <s_epik_input>
W0NIM11DKFtDSDNdKShbT0hdKVtDSDJdbjFjKD1PKW4oW0NIMl1bQ0gzXSljKGMxMilbY0hdW2NIXWMoW2NIXTIpUyg9TykoPU8pTihbQ0gzXSlbQ0gzXQ==

> <s_epik_cmdline>
J2VwaWtfcHl0aG9uJywgJy1waCcsICc3LjAnLCAnLXRuJywgJzgnLCAnLW1hJywgJzIwMCcsICctbWV0YWxfYmluZGluZycsICctaW1hZScsICc8aW5maWxlLm1hZT4nLCAnLW9tYWUnLCAnPG91dGZpbGUubWFlPic=

> <r_lp_tautomer_probability>
1

> <r_epik_Ionization_Penalty>
3.29736e-08

> <r_epik_Ionization_Penalty_Charging>
1.95861e-09

> <r_epik_Ionization_Penalty_Neutral>
3.1015e-08

> <r_epik_State_Penalty>
-0

> <r_epik_Charging_Adjusted_Penalty>
1.95861e-09

> <i_epik_Tot_Q>
0

> <i_epik_Tot_abs_Q>
0

> <r_epik_Metal_State_Penalty>
-0

> <b_epik_Metal_Only>
0

> <s_lp_Force_Field>
OPLS_2005

> <r_lp_Energy>
36.7985

> <b_lp_Chiralities_Consistent>
1

> <s_lp_Variant>
AV-unprocessed.smi:1146-1

> <Gold.Version>
5.8.1

> <Gold.Id.Protein>
6NUR|6NUR_protein|mol2

> <Gold.PLP.Fitness>
42.5301

> <Gold.PLP.PLP>
-36.8094

> <Gold.PLP.part.hbond>
-3.0000

> <Gold.PLP.part.metal>
0.0000

> <Gold.PLP.part.buried>
-5.4403

> <Gold.PLP.part.nonpolar>
-27.9165

> <Gold.PLP.part.repulsive>
0.1376

> <Gold.PLP.ligand.clash>
0.0000

> <Gold.PLP.ligand.torsion>
1.5464

> <Gold.PLP.Chemscore.Hbond>
2.0000

> <Gold.PLP.Chemscore.CHOScore>
0.0000

> <Gold.PLP.Chemscore.Metal>
0.0000

> <Gold.Chemscore.Hbonds>
donor molecule, donor type, donor heavy atom, donor atom, acceptor molecule, acceptor atom, score
      P1  H  7989  7998       L1    16  1.00
      P1  H  7997  8009       L1    11  0.96

> <Gold.PLP.Chemscore.Internal.Correction>
2.8134

> <Gold.Rescore>
     Score         DG    S(hbond)    S(metal)    S(lipo)     H(rot)  DE(clash)    DE(int)     intcor
     12.69     -15.94       1.73        0.00      84.55       2.04       0.19       3.06       ----

> <Gold.Chemscore.Fitness>
12.6902

> <Gold.Chemscore.DG>
-15.9388

> <Gold.Chemscore.ZeroCoef>
-5.4800

> <Gold.Chemscore.Hbond>
1.7320

> <Gold.Chemscore.Metal>
0.0000

> <Gold.Chemscore.Lipo>
84.5471

> <Gold.Chemscore.Internal_Hbond>
0.0000

> <Gold.Chemscore.DEClash>
0.1894

> <Gold.Chemscore.DEInternal>
3.0592

> <Gold.Chemscore.Rot>
2.0383

> <Gold.Chemscore.Internal.Correction>
   9.000000E+99

> <Gold.Chemscore.Hbonds>
donor molecule, donor type, donor heavy atom, donor atom, acceptor molecule, acceptor atom, score
      P1  H  7989  7998       L1    16  0.97
      P1  H  7997  8009       L1    11  0.44

> <Gold.Chemscore.Hbond.Weighted>
-5.7849

> <Gold.Chemscore.Metal.Weighted>
-0.0000

> <Gold.Chemscore.Lipo.Weighted>
-9.8920

> <Gold.Chemscore.Internal_Hbond.Weighted>
0.0000

> <Gold.Chemscore.DEClash.Weighted>
0.1894

> <Gold.Chemscore.DEInternal.Weighted>
3.0592

> <Gold.Chemscore.Rot.Weighted>
5.2181

> <Gold.Chemscore.Internal.Correction.Weighted>
   9.000000E+99

> <Gold.Protein.RotatedTorsions>
[ 6907 6896 6895 6894 ] final  -76.67 input  -60.11 | X-H torsion
[ 7974 7965 7964 7962 ] final -112.86 input  175.53 | X-H torsion
[ 8008 7997 7996 7995 ] final  110.03 input   59.86 | X-H torsion
[ 10167 10162 10161 10158 ] final   94.34 input  -65.29 | X-H torsion
[ 10718 10713 10712 10709 ] final    8.01 input   66.30 | X-H torsion
[ 10763 10752 10751 10750 ] final -173.61 input  -60.55 | X-H torsion
[ 11005 11000 10999 10996 ] final  173.37 input  -57.11 | X-H torsion

> <Gold.Protein.ActiveResidues>
 VAL166  LYS551  ARG553  GLY616  TRP617  ASP618  TYR619  PRO620  LYS621  CYS622 
 ASP623  PHE694  ASN695  SER759  ASP760  ASP761  ALA762  ILE779  LEU786  VAL792 
 PHE793  MET794  SER795  GLU796  ALA797  LYS798  CYS799  TRP800  GLU811  SER814 

> <Gold.Protein.RotatedAtoms>
  150.7021  134.4538  159.5348 H   0  0  0  0  0  0  0  0  0  0  0  0  # atno 6907 bound_to 6896
  152.2225  134.8396  160.0493 H   0  0  0  0  0  0  0  0  0  0  0  0  # atno 6908 bound_to 6896
  151.9241  133.3558  159.3944 H   0  0  0  0  0  0  0  0  0  0  0  0  # atno 6909 bound_to 6896
  145.1389  140.8767  143.3714 H   0  0  0  0  0  0  0  0  0  0  0  0  # atno 7974 bound_to 7965
  156.2023  140.3046  155.9553 H   0  0  0  0  0  0  0  0  0  0  0  0  # atno 8008 bound_to 7997
  155.2924  140.0442  157.3041 H   0  0  0  0  0  0  0  0  0  0  0  0  # atno 8009 bound_to 7997
  154.5587  140.2313  155.8378 H   0  0  0  0  0  0  0  0  0  0  0  0  # atno 8010 bound_to 7997
  139.8093  144.6780  150.9661 H   0  0  0  0  0  0  0  0  0  0  0  0  # atno 10167 bound_to 10162
  156.9453  130.5877  149.5654 H   0  0  0  0  0  0  0  0  0  0  0  0  # atno 10718 bound_to 10713
  154.6059  135.2859  155.0485 H   0  0  0  0  0  0  0  0  0  0  0  0  # atno 10763 bound_to 10752
  154.1733  135.6469  153.5019 H   0  0  0  0  0  0  0  0  0  0  0  0  # atno 10764 bound_to 10752
  153.0175  135.5406  154.6795 H   0  0  0  0  0  0  0  0  0  0  0  0  # atno 10765 bound_to 10752
  140.3397  134.7287  157.4193 H   0  0  0  0  0  0  0  0  0  0  0  0  # atno 11005 bound_to 11000
  145.0554  139.3148  143.5907 LP  0  0  0  0  0  0  0  0  0  0  0  0  # atno 17320 bound_to 7965
  146.3507  139.9977  142.8679 LP  0  0  0  0  0  0  0  0  0  0  0  0  # atno 17321 bound_to 7965
  140.7818  143.4201  151.0855 LP  0  0  0  0  0  0  0  0  0  0  0  0  # atno 17342 bound_to 10162
  139.7869  143.8275  152.3146 LP  0  0  0  0  0  0  0  0  0  0  0  0  # atno 17343 bound_to 10162
  156.0386  130.5471  150.8715 LP  0  0  0  0  0  0  0  0  0  0  0  0  # atno 17370 bound_to 10713
  157.5758  131.0946  150.9348 LP  0  0  0  0  0  0  0  0  0  0  0  0  # atno 17371 bound_to 10713
  140.0791  134.5756  155.8559 LP  0  0  0  0  0  0  0  0  0  0  0  0  # atno 17394 bound_to 11000
  141.2042  133.6637  156.6105 LP  0  0  0  0  0  0  0  0  0  0  0  0  # atno 17395 bound_to 11000

$$$$
