AV-unprocessed.smi:2999|AV-procd|sdf|11418|dock8
  -GOLD-   2272016343D 1   1.00000     0.00000
 Structure written by MMmdl.
 37 39  0  0  0  0  0  0  0  0  1 V2000
  145.1453  137.5122  153.0834 O   0  0  0  0  0  0  0  0  0  0  0  0
  146.2510  137.1146  152.7146 C   0  0  0  0  0  0  0  0  0  0  0  0
  147.3902  137.7875  152.9311 N   0  0  0  0  0  0  0  0  0  0  0  0
  147.5022  139.0575  153.6425 C   0  0  0  0  0  0  0  0  0  0  0  0
  148.9659  139.4362  153.9288 C   0  0  1  0  0  0  0  0  0  0  0  0
  149.1187  140.5916  154.9424 C   0  0  0  0  0  0  0  0  0  0  0  0
  150.5171  140.8649  155.2516 N   0  0  0  0  0  0  0  0  0  0  0  0
  150.6356  141.9408  156.2242 C   0  0  0  0  0  0  0  0  0  0  0  0
  151.6531  141.8295  157.3300 C   0  0  0  0  0  0  0  0  0  0  0  0
  150.1719  141.7133  157.6397 C   0  0  0  0  0  0  0  0  0  0  0  0
  151.1369  139.6421  155.7451 C   0  0  0  0  0  0  0  0  0  0  0  0
  150.9945  138.4890  154.7384 C   0  0  0  0  0  0  0  0  0  0  0  0
  149.6157  138.2791  154.4509 O   0  0  0  0  0  0  0  0  0  0  0  0
  146.4835  135.9705  152.0480 N   0  0  0  0  0  0  0  0  0  0  0  0
  145.5508  134.9707  151.6665 C   0  0  0  0  0  0  0  0  0  0  0  0
  144.2221  135.1041  151.7540 N   0  0  0  0  0  0  0  0  0  0  0  0
  143.5504  133.9597  151.3165 C   0  0  0  0  0  0  0  0  0  0  0  0
  144.3893  132.9575  150.8962 C   0  0  0  0  0  0  0  0  0  0  0  0
  146.0661  133.4151  151.0315 S   0  0  0  0  0  0  0  0  0  0  0  0
  148.2503  137.3858  152.5873 H   0  0  0  0  0  0  0  0  0  0  0  0
  146.9982  139.8610  153.1027 H   0  0  0  0  0  0  0  0  0  0  0  0
  146.9679  138.9466  154.5864 H   0  0  0  0  0  0  0  0  0  0  0  0
  149.4503  139.7091  152.9892 H   0  0  0  0  0  0  0  0  0  0  0  0
  148.6564  141.4944  154.5428 H   0  0  0  0  0  0  0  0  0  0  0  0
  148.5777  140.3450  155.8576 H   0  0  0  0  0  0  0  0  0  0  0  0
  150.4661  142.9213  155.7816 H   0  0  0  0  0  0  0  0  0  0  0  0
  152.2499  140.9207  157.3832 H   0  0  0  0  0  0  0  0  0  0  0  0
  152.1614  142.7408  157.6380 H   0  0  0  0  0  0  0  0  0  0  0  0
  149.6971  142.5477  158.1517 H   0  0  0  0  0  0  0  0  0  0  0  0
  149.7893  140.7275  157.8977 H   0  0  0  0  0  0  0  0  0  0  0  0
  152.1940  139.8195  155.9472 H   0  0  0  0  0  0  0  0  0  0  0  0
  150.6824  139.3507  156.6932 H   0  0  0  0  0  0  0  0  0  0  0  0
  151.5369  138.7090  153.8176 H   0  0  0  0  0  0  0  0  0  0  0  0
  151.4170  137.5721  155.1491 H   0  0  0  0  0  0  0  0  0  0  0  0
  147.4439  135.7832  151.8004 H   0  0  0  0  0  0  0  0  0  0  0  0
  142.4709  133.9435  151.3396 H   0  0  0  0  0  0  0  0  0  0  0  0
  144.1235  131.9820  150.5165 H   0  0  0  0  0  0  0  0  0  0  0  0
  1  2  2  0  0  0  0
  2  3  1  0  0  0  0
  2 14  1  0  0  0  0
  3  4  1  0  0  0  0
  3 20  1  0  0  0  0
  4  5  1  0  0  0  0
  4 21  1  0  0  0  0
  4 22  1  0  0  0  0
  5 13  1  0  0  0  0
  5  6  1  0  0  0  0
  5 23  1  0  0  0  0
  6  7  1  0  0  0  0
  6 24  1  0  0  0  0
  6 25  1  0  0  0  0
  7  8  1  0  0  0  0
  7 11  1  0  0  0  0
  8 10  1  0  0  0  0
  8  9  1  0  0  0  0
  8 26  1  0  0  0  0
  9 10  1  0  0  0  0
  9 27  1  0  0  0  0
  9 28  1  0  0  0  0
 10 29  1  0  0  0  0
 10 30  1  0  0  0  0
 11 12  1  0  0  0  0
 11 31  1  0  0  0  0
 11 32  1  0  0  0  0
 12 13  1  0  0  0  0
 12 33  1  0  0  0  0
 12 34  1  0  0  0  0
 14 15  1  0  0  0  0
 14 35  1  0  0  0  0
 15 19  1  0  0  0  0
 15 16  2  0  0  0  0
 16 17  1  0  0  0  0
 17 18  2  0  0  0  0
 17 36  1  0  0  0  0
 18 19  1  0  0  0  0
 18 37  1  0  0  0  0
M  END
> <s_m_source_file>
AV-unprocessed.smi

> <i_m_source_file_index>
2999

> <i_lp_mmshare_version>
43012

> <i_f3d_flags>
0

> <s_epik_input>
czFbY0hdW2NIXW5jMVtOSF1DKD1PKVtOSF1bQ0gyXVtDQEBIXTJbQ0gyXU4oW0NIMl1bQ0gyXU8yKVtDSF0zW0NIMl1bQ0gyXTM=

> <s_epik_cmdline>
J2VwaWtfcHl0aG9uJywgJy1waCcsICc3LjAnLCAnLXRuJywgJzgnLCAnLW1hJywgJzIwMCcsICctbWV0YWxfYmluZGluZycsICctaW1hZScsICc8aW5maWxlLm1hZT4nLCAnLW9tYWUnLCAnPG91dGZpbGUubWFlPic=

> <r_lp_tautomer_probability>
0.999

> <r_epik_Ionization_Penalty>
0.0449352

> <r_epik_Ionization_Penalty_Charging>
0

> <r_epik_Ionization_Penalty_Neutral>
0.0449352

> <r_epik_State_Penalty>
0.0379856

> <r_epik_Charging_Adjusted_Penalty>
0.0379856

> <i_epik_Tot_Q>
0

> <i_epik_Tot_abs_Q>
0

> <r_epik_Metal_State_Penalty>
0.0775629

> <b_epik_Metal_Only>
0

> <s_lp_Force_Field>
OPLS_2005

> <r_lp_Energy>
30.84

> <b_lp_Chiralities_Consistent>
1

> <s_lp_Variant>
AV-unprocessed.smi:2999-2

> <Gold.Version>
5.8.1

> <Gold.Id.Protein>
6NUR|6NUR_protein|mol2

> <Gold.PLP.Fitness>
37.4343

> <Gold.PLP.PLP>
-27.5540

> <Gold.PLP.part.hbond>
-2.4696

> <Gold.PLP.part.metal>
0.0000

> <Gold.PLP.part.buried>
-1.3350

> <Gold.PLP.part.nonpolar>
-24.2551

> <Gold.PLP.part.repulsive>
0.7372

> <Gold.PLP.ligand.clash>
0.0000

> <Gold.PLP.ligand.torsion>
0.7766

> <Gold.PLP.Chemscore.Hbond>
2.4680

> <Gold.PLP.Chemscore.CHOScore>
0.9802

> <Gold.PLP.Chemscore.Metal>
0.0000

> <Gold.Chemscore.Hbonds>
donor molecule, donor type, donor heavy atom, donor atom, acceptor molecule, acceptor atom, score
      L1  H     3    20       P1  7948  0.95
      L1  H    14    35       P1  7948  0.99
      P1  H  7989  7998       L1     7  0.51
      L1  C    17    36       P1 10186  0.93

> <Gold.PLP.Chemscore.Internal.Correction>
1.0890

> <Gold.Rescore>
     Score         DG    S(hbond)    S(metal)    S(lipo)     H(rot)  DE(clash)    DE(int)     intcor
     13.92     -16.01       1.96        0.00      67.92       1.55       0.06       2.03       ----

> <Gold.Chemscore.Fitness>
13.9160

> <Gold.Chemscore.DG>
-16.0073

> <Gold.Chemscore.ZeroCoef>
-5.4800

> <Gold.Chemscore.Hbond>
1.9578

> <Gold.Chemscore.Metal>
0.0000

> <Gold.Chemscore.Lipo>
67.9196

> <Gold.Chemscore.Internal_Hbond>
0.0000

> <Gold.Chemscore.DEClash>
0.0585

> <Gold.Chemscore.DEInternal>
2.0328

> <Gold.Chemscore.Rot>
1.5463

> <Gold.Chemscore.Internal.Correction>
   9.000000E+99

> <Gold.Chemscore.Hbonds>
donor molecule, donor type, donor heavy atom, donor atom, acceptor molecule, acceptor atom, score
      L1  H     3    20       P1  7948  0.85
      L1  H    14    35       P1  7948  0.89
      P1  H  7989  7998       L1     7  0.04

> <Gold.Chemscore.Hbond.Weighted>
-6.5391

> <Gold.Chemscore.Metal.Weighted>
-0.0000

> <Gold.Chemscore.Lipo.Weighted>
-7.9466

> <Gold.Chemscore.Internal_Hbond.Weighted>
0.0000

> <Gold.Chemscore.DEClash.Weighted>
0.0585

> <Gold.Chemscore.DEInternal.Weighted>
2.0328

> <Gold.Chemscore.Rot.Weighted>
3.9584

> <Gold.Chemscore.Internal.Correction.Weighted>
   9.000000E+99

> <Gold.Protein.RotatedTorsions>
[ 6907 6896 6895 6894 ] final  164.22 input  -60.11 | X-H torsion
[ 7974 7965 7964 7962 ] final   16.72 input  175.53 | X-H torsion
[ 8008 7997 7996 7995 ] final  114.18 input   59.86 | X-H torsion
[ 10167 10162 10161 10158 ] final -129.48 input  -65.29 | X-H torsion
[ 10718 10713 10712 10709 ] final   -9.41 input   66.30 | X-H torsion
[ 10763 10752 10751 10750 ] final  110.19 input  -60.55 | X-H torsion
[ 11005 11000 10999 10996 ] final  125.50 input  -57.11 | X-H torsion

> <Gold.Protein.ActiveResidues>
 VAL166  LYS551  ARG553  GLY616  TRP617  ASP618  TYR619  PRO620  LYS621  CYS622 
 ASP623  PHE694  ASN695  SER759  ASP760  ASP761  ALA762  ILE779  LEU786  VAL792 
 PHE793  MET794  SER795  GLU796  ALA797  LYS798  CYS799  TRP800  GLU811  SER814 

> <Gold.Protein.RotatedAtoms>
  151.9132  133.3566  159.3870 H   0  0  0  0  0  0  0  0  0  0  0  0  # atno 6907 bound_to 6896
  150.7053  134.4711  159.5435 H   0  0  0  0  0  0  0  0  0  0  0  0  # atno 6908 bound_to 6896
  152.2320  134.8312  160.0523 H   0  0  0  0  0  0  0  0  0  0  0  0  # atno 6909 bound_to 6896
  146.2241  139.8706  142.8588 H   0  0  0  0  0  0  0  0  0  0  0  0  # atno 7974 bound_to 7965
  156.2305  140.2964  156.0176 H   0  0  0  0  0  0  0  0  0  0  0  0  # atno 8008 bound_to 7997
  155.2238  140.0416  157.2969 H   0  0  0  0  0  0  0  0  0  0  0  0  # atno 8009 bound_to 7997
  154.5987  140.2421  155.7829 H   0  0  0  0  0  0  0  0  0  0  0  0  # atno 8010 bound_to 7997
  139.9393  143.6181  152.2508 H   0  0  0  0  0  0  0  0  0  0  0  0  # atno 10167 bound_to 10162
  156.6885  130.5058  149.5950 H   0  0  0  0  0  0  0  0  0  0  0  0  # atno 10718 bound_to 10713
  153.4454  135.3756  155.2252 H   0  0  0  0  0  0  0  0  0  0  0  0  # atno 10763 bound_to 10752
  154.8755  135.3873  154.4102 H   0  0  0  0  0  0  0  0  0  0  0  0  # atno 10764 bound_to 10752
  153.4654  135.7087  153.6089 H   0  0  0  0  0  0  0  0  0  0  0  0  # atno 10765 bound_to 10752
  139.9409  134.9635  156.8567 H   0  0  0  0  0  0  0  0  0  0  0  0  # atno 11005 bound_to 11000
  145.2612  141.0077  143.3825 LP  0  0  0  0  0  0  0  0  0  0  0  0  # atno 17320 bound_to 7965
  144.9297  139.4313  143.6501 LP  0  0  0  0  0  0  0  0  0  0  0  0  # atno 17321 bound_to 7965
  139.6717  144.7660  151.1770 LP  0  0  0  0  0  0  0  0  0  0  0  0  # atno 17342 bound_to 10162
  140.7615  143.5855  150.8850 LP  0  0  0  0  0  0  0  0  0  0  0  0  # atno 17343 bound_to 10162
  156.1815  130.6502  151.0957 LP  0  0  0  0  0  0  0  0  0  0  0  0  # atno 17370 bound_to 10713
  157.7017  131.0773  150.6797 LP  0  0  0  0  0  0  0  0  0  0  0  0  # atno 17371 bound_to 10713
  140.5953  134.0223  155.7516 LP  0  0  0  0  0  0  0  0  0  0  0  0  # atno 17394 bound_to 11000
  141.1043  133.9718  157.3024 LP  0  0  0  0  0  0  0  0  0  0  0  0  # atno 17395 bound_to 11000

$$$$
