AV-unprocessed.smi:584|AV-procd|sdf|2999|dock10
  -GOLD-   2262023503D 1   1.00000     0.00000
 Structure written by MMmdl.
 41 42  0  0  0  0  0  0  0  0  1 V2000
  148.7544  141.4094  157.4315 O   0  0  0  0  0  0  0  0  0  0  0  0
  149.3037  141.1428  156.3614 C   0  0  0  0  0  0  0  0  0  0  0  0
  150.8328  141.0544  156.2547 C   0  0  0  0  0  0  0  0  0  0  0  0
  151.5315  141.4997  157.4721 N   0  0  0  0  0  0  0  0  0  0  0  0
  151.1708  142.7606  157.9862 C   0  0  0  0  0  0  0  0  0  0  0  0
  151.7466  143.2996  159.0776 C   0  0  0  0  0  0  0  0  0  0  0  0
  151.3027  144.6438  159.6331 C   0  0  0  0  0  0  0  0  0  0  0  0
  151.9884  144.9610  160.7314 F   0  0  0  0  0  0  0  0  0  0  0  0
  151.5070  145.5975  158.7256 F   0  0  0  0  0  0  0  0  0  0  0  0
  150.0044  144.6327  159.9380 F   0  0  0  0  0  0  0  0  0  0  0  0
  152.7542  142.4941  159.7392 C   0  0  0  0  0  0  0  0  0  0  0  0
  153.1087  141.2846  159.2625 C   0  0  0  0  0  0  0  0  0  0  0  0
  152.4924  140.7242  158.0575 C   0  0  0  0  0  0  0  0  0  0  0  0
  152.8199  139.6275  157.6040 O   0  0  0  0  0  0  0  0  0  0  0  0
  148.6273  140.9022  155.2278 N   0  0  0  0  0  0  0  0  0  0  0  0
  147.1738  140.9071  155.0882 C   0  0  0  0  0  0  0  0  0  0  0  0
  146.5999  142.3330  154.9443 C   0  0  0  0  0  0  0  0  0  0  0  0
  145.4477  142.5556  155.9461 C   0  0  0  0  0  0  0  0  0  0  0  0
  144.8591  143.9716  155.8387 C   0  0  0  0  0  0  0  0  0  0  0  0
  144.3908  144.2731  154.4078 C   0  0  0  0  0  0  0  0  0  0  0  0
  145.5330  144.0680  153.4025 C   0  0  0  0  0  0  0  0  0  0  0  0
  146.1236  142.6525  153.5082 C   0  0  0  0  0  0  0  0  0  0  0  0
  151.1067  140.0225  156.0289 H   0  0  0  0  0  0  0  0  0  0  0  0
  151.1563  141.6301  155.3858 H   0  0  0  0  0  0  0  0  0  0  0  0
  150.3968  143.2673  157.4279 H   0  0  0  0  0  0  0  0  0  0  0  0
  153.2382  142.8694  160.6287 H   0  0  0  0  0  0  0  0  0  0  0  0
  153.8669  140.7138  159.7782 H   0  0  0  0  0  0  0  0  0  0  0  0
  149.1605  140.6917  154.3965 H   0  0  0  0  0  0  0  0  0  0  0  0
  146.8567  140.2828  154.2513 H   0  0  0  0  0  0  0  0  0  0  0  0
  146.7638  140.4385  155.9832 H   0  0  0  0  0  0  0  0  0  0  0  0
  147.3951  143.0368  155.1952 H   0  0  0  0  0  0  0  0  0  0  0  0
  144.6599  141.8213  155.7713 H   0  0  0  0  0  0  0  0  0  0  0  0
  145.8015  142.3887  156.9640 H   0  0  0  0  0  0  0  0  0  0  0  0
  144.0258  144.0810  156.5333 H   0  0  0  0  0  0  0  0  0  0  0  0
  145.6105  144.7029  156.1390 H   0  0  0  0  0  0  0  0  0  0  0  0
  143.5545  143.6220  154.1503 H   0  0  0  0  0  0  0  0  0  0  0  0
  144.0185  145.2961  154.3451 H   0  0  0  0  0  0  0  0  0  0  0  0
  145.1725  144.2458  152.3889 H   0  0  0  0  0  0  0  0  0  0  0  0
  146.3166  144.8046  153.5848 H   0  0  0  0  0  0  0  0  0  0  0  0
  146.9504  142.5671  152.8032 H   0  0  0  0  0  0  0  0  0  0  0  0
  145.3768  141.9212  153.1961 H   0  0  0  0  0  0  0  0  0  0  0  0
  1  2  2  0  0  0  0
  2  3  1  0  0  0  0
  2 15  1  0  0  0  0
  3  4  1  0  0  0  0
  3 23  1  0  0  0  0
  3 24  1  0  0  0  0
  4 13  1  0  0  0  0
  4  5  1  0  0  0  0
  5  6  2  0  0  0  0
  5 25  1  0  0  0  0
  6  7  1  0  0  0  0
  6 11  1  0  0  0  0
  7  8  1  0  0  0  0
  7  9  1  0  0  0  0
  7 10  1  0  0  0  0
 11 12  2  0  0  0  0
 11 26  1  0  0  0  0
 12 13  1  0  0  0  0
 12 27  1  0  0  0  0
 13 14  2  0  0  0  0
 15 16  1  0  0  0  0
 15 28  1  0  0  0  0
 16 17  1  0  0  0  0
 16 29  1  0  0  0  0
 16 30  1  0  0  0  0
 17 22  1  0  0  0  0
 17 18  1  0  0  0  0
 17 31  1  0  0  0  0
 18 19  1  0  0  0  0
 18 32  1  0  0  0  0
 18 33  1  0  0  0  0
 19 20  1  0  0  0  0
 19 34  1  0  0  0  0
 19 35  1  0  0  0  0
 20 21  1  0  0  0  0
 20 36  1  0  0  0  0
 20 37  1  0  0  0  0
 21 22  1  0  0  0  0
 21 38  1  0  0  0  0
 21 39  1  0  0  0  0
 22 40  1  0  0  0  0
 22 41  1  0  0  0  0
M  END
> <s_m_source_file>
AV-unprocessed.smi

> <i_m_source_file_index>
584

> <i_lp_mmshare_version>
43012

> <i_f3d_flags>
0

> <s_epik_input>
W0NIMl0xW0NIMl1bQ0gyXVtDSDJdW0NIMl1bQ0hdMVtDSDJdW05IXUMoPU8pW0NIMl1uMltjSF1jKEMoRikoRilGKVtjSF1bY0hdYzI9Tw==

> <s_epik_cmdline>
J2VwaWtfcHl0aG9uJywgJy1waCcsICc3LjAnLCAnLXRuJywgJzgnLCAnLW1hJywgJzIwMCcsICctbWV0YWxfYmluZGluZycsICctaW1hZScsICc8aW5maWxlLm1hZT4nLCAnLW9tYWUnLCAnPG91dGZpbGUubWFlPic=

> <r_lp_tautomer_probability>
1

> <r_epik_Ionization_Penalty>
3.78989e-08

> <r_epik_Ionization_Penalty_Charging>
1.81011e-08

> <r_epik_Ionization_Penalty_Neutral>
1.97978e-08

> <r_epik_State_Penalty>
-0

> <r_epik_Charging_Adjusted_Penalty>
1.81011e-08

> <i_epik_Tot_Q>
0

> <i_epik_Tot_abs_Q>
0

> <r_epik_Metal_State_Penalty>
-0

> <b_epik_Metal_Only>
0

> <s_lp_Force_Field>
OPLS_2005

> <r_lp_Energy>
22.635

> <b_lp_Chiralities_Consistent>
1

> <s_lp_Variant>
AV-unprocessed.smi:584-1

> <Gold.Version>
5.8.1

> <Gold.Id.Protein>
6NUR|6NUR_protein|mol2

> <Gold.PLP.Fitness>
47.2483

> <Gold.PLP.PLP>
-44.7905

> <Gold.PLP.part.hbond>
-1.0000

> <Gold.PLP.part.metal>
0.0000

> <Gold.PLP.part.buried>
-5.3756

> <Gold.PLP.part.nonpolar>
-36.6200

> <Gold.PLP.part.repulsive>
0.1663

> <Gold.PLP.ligand.clash>
0.0000

> <Gold.PLP.ligand.torsion>
0.9800

> <Gold.PLP.Chemscore.Hbond>
1.0000

> <Gold.PLP.Chemscore.CHOScore>
0.4620

> <Gold.PLP.Chemscore.Metal>
0.0000

> <Gold.Chemscore.Hbonds>
donor molecule, donor type, donor heavy atom, donor atom, acceptor molecule, acceptor atom, score
      P1  H  7997  8008       L1    14  1.00
      L1  C     5    25       P1  8028  0.50

> <Gold.PLP.Chemscore.Internal.Correction>
0.0319

> <Gold.Rescore>
     Score         DG    S(hbond)    S(metal)    S(lipo)     H(rot)  DE(clash)    DE(int)     intcor
     11.58     -14.54       0.90        0.00      90.02       1.75       0.48       2.48       ----

> <Gold.Chemscore.Fitness>
11.5763

> <Gold.Chemscore.DG>
-14.5374

> <Gold.Chemscore.ZeroCoef>
-5.4800

> <Gold.Chemscore.Hbond>
0.8965

> <Gold.Chemscore.Metal>
0.0000

> <Gold.Chemscore.Lipo>
90.0242

> <Gold.Chemscore.Internal_Hbond>
0.0000

> <Gold.Chemscore.DEClash>
0.4787

> <Gold.Chemscore.DEInternal>
2.4824

> <Gold.Chemscore.Rot>
1.7459

> <Gold.Chemscore.Internal.Correction>
   9.000000E+99

> <Gold.Chemscore.Hbonds>
donor molecule, donor type, donor heavy atom, donor atom, acceptor molecule, acceptor atom, score
      P1  H  7997  8008       L1    14  0.30

> <Gold.Chemscore.Hbond.Weighted>
-2.9942

> <Gold.Chemscore.Metal.Weighted>
-0.0000

> <Gold.Chemscore.Lipo.Weighted>
-10.5328

> <Gold.Chemscore.Internal_Hbond.Weighted>
0.0000

> <Gold.Chemscore.DEClash.Weighted>
0.4787

> <Gold.Chemscore.DEInternal.Weighted>
2.4824

> <Gold.Chemscore.Rot.Weighted>
4.4696

> <Gold.Chemscore.Internal.Correction.Weighted>
   9.000000E+99

> <Gold.Protein.RotatedTorsions>
[ 6907 6896 6895 6894 ] final   68.65 input  -60.11 | X-H torsion
[ 7974 7965 7964 7962 ] final  155.96 input  175.53 | X-H torsion
[ 8008 7997 7996 7995 ] final  -58.53 input   59.86 | X-H torsion
[ 10167 10162 10161 10158 ] final -100.55 input  -65.29 | X-H torsion
[ 10718 10713 10712 10709 ] final  127.90 input   66.30 | X-H torsion
[ 10763 10752 10751 10750 ] final  109.29 input  -60.55 | X-H torsion
[ 11005 11000 10999 10996 ] final   97.08 input  -57.11 | X-H torsion

> <Gold.Protein.ActiveResidues>
 VAL166  LYS551  ARG553  GLY616  TRP617  ASP618  TYR619  PRO620  LYS621  CYS622 
 ASP623  PHE694  ASN695  SER759  ASP760  ASP761  ALA762  ILE779  LEU786  VAL792 
 PHE793  MET794  SER795  GLU796  ALA797  LYS798  CYS799  TRP800  GLU811  SER814 

> <Gold.Protein.RotatedAtoms>
  152.4634  134.5131  159.9759 H   0  0  0  0  0  0  0  0  0  0  0  0  # atno 6907 bound_to 6896
  151.5175  133.3467  159.2903 H   0  0  0  0  0  0  0  0  0  0  0  0  # atno 6908 bound_to 6896
  150.8607  134.7988  159.7143 H   0  0  0  0  0  0  0  0  0  0  0  0  # atno 6909 bound_to 6896
  144.7992  139.7139  143.6189 H   0  0  0  0  0  0  0  0  0  0  0  0  # atno 7974 bound_to 7965
  154.4313  140.1082  156.5971 H   0  0  0  0  0  0  0  0  0  0  0  0  # atno 8008 bound_to 7997
  155.5950  140.3492  155.4558 H   0  0  0  0  0  0  0  0  0  0  0  0  # atno 8009 bound_to 7997
  156.0217  140.1241  157.0340 H   0  0  0  0  0  0  0  0  0  0  0  0  # atno 8010 bound_to 7997
  140.2507  143.3474  152.0717 H   0  0  0  0  0  0  0  0  0  0  0  0  # atno 10167 bound_to 10162
  157.5292  131.1098  150.9035 H   0  0  0  0  0  0  0  0  0  0  0  0  # atno 10718 bound_to 10713
  153.4327  135.3785  155.2180 H   0  0  0  0  0  0  0  0  0  0  0  0  # atno 10763 bound_to 10752
  154.8750  135.3844  154.4249 H   0  0  0  0  0  0  0  0  0  0  0  0  # atno 10764 bound_to 10752
  153.4783  135.7088  153.6016 H   0  0  0  0  0  0  0  0  0  0  0  0  # atno 10765 bound_to 10752
  139.8778  134.8983  156.4254 H   0  0  0  0  0  0  0  0  0  0  0  0  # atno 11005 bound_to 11000
  146.2269  139.5740  142.9581 LP  0  0  0  0  0  0  0  0  0  0  0  0  # atno 17320 bound_to 7965
  145.5595  141.0406  143.2234 LP  0  0  0  0  0  0  0  0  0  0  0  0  # atno 17321 bound_to 7965
  139.5047  144.6780  151.6079 LP  0  0  0  0  0  0  0  0  0  0  0  0  # atno 17342 bound_to 10162
  140.6042  143.9554  150.6407 LP  0  0  0  0  0  0  0  0  0  0  0  0  # atno 17343 bound_to 10162
  156.9621  130.5459  149.5286 LP  0  0  0  0  0  0  0  0  0  0  0  0  # atno 17370 bound_to 10713
  156.0410  130.5492  150.8770 LP  0  0  0  0  0  0  0  0  0  0  0  0  # atno 17371 bound_to 10713
  140.9104  133.7716  155.9785 LP  0  0  0  0  0  0  0  0  0  0  0  0  # atno 17394 bound_to 11000
  140.8552  134.2906  157.5258 LP  0  0  0  0  0  0  0  0  0  0  0  0  # atno 17395 bound_to 11000

$$$$
