AV-unprocessed.smi:304|AV-procd|sdf|2278|dock8
  -GOLD-   2262022173D 1   1.00000     0.00000
 Structure written by MMmdl.
 37 39  0  0  0  0  0  0  0  0  2 V2000
  152.1829  138.2389  159.4289 O   0  0  0  0  0  0  0  0  0  0  0  0
  151.2016  138.4806  158.4404 C   0  0  2  0  0  0  0  0  0  0  0  0
  150.5365  137.1482  158.0586 C   0  0  0  0  0  0  0  0  0  0  0  0
  149.9843  136.5479  159.2179 O   0  0  0  0  0  0  0  0  0  0  0  0
  148.6339  136.9094  159.4504 C   0  0  0  0  0  0  0  0  0  0  0  0
  148.1403  136.1117  160.6170 C   0  0  0  0  0  0  0  0  0  0  0  0
  147.7876  136.5967  161.8508 C   0  0  0  0  0  0  0  0  0  0  0  0
  147.3487  135.5828  162.7522 C   0  0  0  0  0  0  0  0  0  0  0  0
  147.3664  134.3324  162.1949 C   0  0  0  0  0  0  0  0  0  0  0  0
  147.9250  134.3759  160.5461 S   0  0  0  0  0  0  0  0  0  0  0  0
  151.7791  139.2457  157.2310 C   0  0  0  0  0  0  0  0  0  0  0  0
  151.3561  140.6523  157.1869 N   0  0  0  0  0  0  0  0  0  0  0  0
  150.6359  141.3145  156.2413 C   0  0  0  0  0  0  0  0  0  0  0  0
  150.5141  142.6083  156.6488 N   0  3  0  0  0  0  0  0  0  0  0  0
  151.1659  142.7757  157.8728 C   0  0  0  0  0  0  0  0  0  0  0  0
  151.3183  143.8998  158.6778 C   0  0  0  0  0  0  0  0  0  0  0  0
  152.0434  143.7301  159.8757 C   0  0  0  0  0  0  0  0  0  0  0  0
  152.2206  144.7924  160.6965 F   0  0  0  0  0  0  0  0  0  0  0  0
  152.5843  142.4773  160.2349 C   0  0  0  0  0  0  0  0  0  0  0  0
  153.2707  142.3575  161.3958 F   0  0  0  0  0  0  0  0  0  0  0  0
  152.4238  141.3447  159.4098 C   0  0  0  0  0  0  0  0  0  0  0  0
  151.7079  141.5222  158.2261 C   0  0  0  0  0  0  0  0  0  0  0  0
  152.5968  139.0595  159.6473 H   0  0  0  0  0  0  0  0  0  0  0  0
  150.4459  139.1067  158.9162 H   0  0  0  0  0  0  0  0  0  0  0  0
  149.7723  137.2983  157.2941 H   0  0  0  0  0  0  0  0  0  0  0  0
  151.2872  136.4778  157.6378 H   0  0  0  0  0  0  0  0  0  0  0  0
  148.5595  137.9765  159.6642 H   0  0  0  0  0  0  0  0  0  0  0  0
  148.0254  136.6986  158.5701 H   0  0  0  0  0  0  0  0  0  0  0  0
  147.8301  137.6374  162.1358 H   0  0  0  0  0  0  0  0  0  0  0  0
  147.0391  135.8032  163.7632 H   0  0  0  0  0  0  0  0  0  0  0  0
  147.0862  133.3936  162.6492 H   0  0  0  0  0  0  0  0  0  0  0  0
  152.8682  139.2054  157.2118 H   0  0  0  0  0  0  0  0  0  0  0  0
  151.4442  138.7778  156.3046 H   0  0  0  0  0  0  0  0  0  0  0  0
  150.2365  140.8914  155.3307 H   0  0  0  0  0  0  0  0  0  0  0  0
  150.9051  144.8604  158.4077 H   0  0  0  0  0  0  0  0  0  0  0  0
  152.8386  140.3900  159.6985 H   0  0  0  0  0  0  0  0  0  0  0  0
  150.0231  143.3230  156.1265 H   0  0  0  0  0  0  0  0  0  0  0  0
  1  2  1  0  0  0  0
  1 23  1  0  0  0  0
  2  3  1  0  0  0  0
  2 11  1  0  0  0  0
  2 24  1  0  0  0  0
  3  4  1  0  0  0  0
  3 25  1  0  0  0  0
  3 26  1  0  0  0  0
  4  5  1  0  0  0  0
  5  6  1  0  0  0  0
  5 27  1  0  0  0  0
  5 28  1  0  0  0  0
  6 10  1  0  0  0  0
  6  7  2  0  0  0  0
  7  8  1  0  0  0  0
  7 29  1  0  0  0  0
  8  9  2  0  0  0  0
  8 30  1  0  0  0  0
  9 10  1  0  0  0  0
  9 31  1  0  0  0  0
 11 12  1  0  0  0  0
 11 32  1  0  0  0  0
 11 33  1  0  0  0  0
 12 22  1  0  0  0  0
 12 13  1  0  0  0  0
 13 14  2  0  0  0  0
 13 34  1  0  0  0  0
 14 15  1  0  0  0  0
 14 37  1  0  0  0  0
 15 22  2  0  0  0  0
 15 16  1  0  0  0  0
 16 17  2  0  0  0  0
 16 35  1  0  0  0  0
 17 18  1  0  0  0  0
 17 19  1  0  0  0  0
 19 20  1  0  0  0  0
 19 21  2  0  0  0  0
 21 22  1  0  0  0  0
 21 36  1  0  0  0  0
M  CHG  1  14   1
M  END
> <s_m_source_file>
AV-unprocessed.smi

> <i_m_source_file_index>
304

> <i_lp_mmshare_version>
43012

> <i_f3d_flags>
0

> <s_epik_input>
W2NIXTFjKEYpYyhGKVtjSF1jKGMxMiluKFtjSF1uMilbQ0gyXVtDQEhdKFtPSF0pW0NIMl1PW0NIMl1jM1tjSF1bY0hdW2NIXXMz

> <s_epik_cmdline>
J2VwaWtfcHl0aG9uJywgJy1waCcsICc3LjAnLCAnLXRuJywgJzgnLCAnLW1hJywgJzIwMCcsICctbWV0YWxfYmluZGluZycsICctaW1hZScsICc8aW5maWxlLm1hZT4nLCAnLW9tYWUnLCAnPG91dGZpbGUubWFlPic=

> <r_epik_Ionization_Penalty>
2.17745

> <r_epik_Ionization_Penalty_Charging>
2.17744

> <r_epik_Ionization_Penalty_Neutral>
1.26231e-06

> <r_epik_State_Penalty>
2.31922

> <r_epik_Charging_Adjusted_Penalty>
4.49666

> <i_epik_Tot_Q>
1

> <i_epik_Tot_abs_Q>
1

> <r_epik_Metal_State_Penalty>
6.40003

> <b_epik_Metal_Only>
0

> <s_lp_Force_Field>
OPLS_2005

> <r_lp_Energy>
12.8656

> <b_lp_Chiralities_Consistent>
1

> <s_lp_Variant>
AV-unprocessed.smi:304-3

> <Gold.Version>
5.8.1

> <Gold.Id.Protein>
6NUR|6NUR_protein|mol2

> <Gold.PLP.Fitness>
59.9140

> <Gold.PLP.PLP>
-52.7118

> <Gold.PLP.part.hbond>
-2.0000

> <Gold.PLP.part.metal>
0.0000

> <Gold.PLP.part.buried>
-6.1452

> <Gold.PLP.part.nonpolar>
-44.2678

> <Gold.PLP.part.repulsive>
0.0582

> <Gold.PLP.ligand.clash>
0.0000

> <Gold.PLP.ligand.torsion>
0.9440

> <Gold.PLP.Chemscore.Hbond>
3.0000

> <Gold.PLP.Chemscore.CHOScore>
0.0000

> <Gold.PLP.Chemscore.Metal>
0.0000

> <Gold.Chemscore.Hbonds>
donor molecule, donor type, donor heavy atom, donor atom, acceptor molecule, acceptor atom, score
      L1  H    14    37       P1  8028  2.00
      P1  H  6896  6908       L1     4  1.00

> <Gold.PLP.Chemscore.Internal.Correction>
0.0902

> <Gold.Rescore>
     Score         DG    S(hbond)    S(metal)    S(lipo)     H(rot)  DE(clash)    DE(int)     intcor
     17.76     -18.69       1.96        0.00     116.56       2.73       0.10       0.84       ----

> <Gold.Chemscore.Fitness>
17.7566

> <Gold.Chemscore.DG>
-18.6941

> <Gold.Chemscore.ZeroCoef>
-5.4800

> <Gold.Chemscore.Hbond>
1.9625

> <Gold.Chemscore.Metal>
0.0000

> <Gold.Chemscore.Lipo>
116.5601

> <Gold.Chemscore.Internal_Hbond>
0.0000

> <Gold.Chemscore.DEClash>
0.1009

> <Gold.Chemscore.DEInternal>
0.8365

> <Gold.Chemscore.Rot>
2.7258

> <Gold.Chemscore.Internal.Correction>
   9.000000E+99

> <Gold.Chemscore.Hbonds>
donor molecule, donor type, donor heavy atom, donor atom, acceptor molecule, acceptor atom, score
      L1  H    14    37       P1  8028  1.00
      P1  H  6896  6908       L1     4  0.85

> <Gold.Chemscore.Hbond.Weighted>
-6.5546

> <Gold.Chemscore.Metal.Weighted>
-0.0000

> <Gold.Chemscore.Lipo.Weighted>
-13.6375

> <Gold.Chemscore.Internal_Hbond.Weighted>
0.0000

> <Gold.Chemscore.DEClash.Weighted>
0.1009

> <Gold.Chemscore.DEInternal.Weighted>
0.8365

> <Gold.Chemscore.Rot.Weighted>
6.9781

> <Gold.Chemscore.Internal.Correction.Weighted>
   9.000000E+99

> <Gold.Protein.RotatedTorsions>
[ 6907 6896 6895 6894 ] final -165.17 input  -60.11 | X-H torsion
[ 7974 7965 7964 7962 ] final   76.25 input  175.53 | X-H torsion
[ 8008 7997 7996 7995 ] final -173.40 input   59.86 | X-H torsion
[ 10167 10162 10161 10158 ] final   31.05 input  -65.29 | X-H torsion
[ 10718 10713 10712 10709 ] final  -83.28 input   66.30 | X-H torsion
[ 10763 10752 10751 10750 ] final   35.62 input  -60.55 | X-H torsion
[ 11005 11000 10999 10996 ] final  113.07 input  -57.11 | X-H torsion

> <Gold.Protein.ActiveResidues>
 VAL166  LYS551  ARG553  GLY616  TRP617  ASP618  TYR619  PRO620  LYS621  CYS622 
 ASP623  PHE694  ASN695  SER759  ASP760  ASP761  ALA762  ILE779  LEU786  VAL792 
 PHE793  MET794  SER795  GLU796  ALA797  LYS798  CYS799  TRP800  GLU811  SER814 

> <Gold.Protein.RotatedAtoms>
  151.4234  133.3691  159.2758 H   0  0  0  0  0  0  0  0  0  0  0  0  # atno 6907 bound_to 6896
  150.9277  134.8695  159.7541 H   0  0  0  0  0  0  0  0  0  0  0  0  # atno 6908 bound_to 6896
  152.5013  134.4176  159.9522 H   0  0  0  0  0  0  0  0  0  0  0  0  # atno 6909 bound_to 6896
  145.7053  139.2596  143.1682 H   0  0  0  0  0  0  0  0  0  0  0  0  # atno 7974 bound_to 7965
  155.9569  140.1137  157.0929 H   0  0  0  0  0  0  0  0  0  0  0  0  # atno 8008 bound_to 7997
  154.4123  140.1189  156.5194 H   0  0  0  0  0  0  0  0  0  0  0  0  # atno 8009 bound_to 7997
  155.6770  140.3473  155.4842 H   0  0  0  0  0  0  0  0  0  0  0  0  # atno 8010 bound_to 7997
  140.4624  144.0887  150.6216 H   0  0  0  0  0  0  0  0  0  0  0  0  # atno 10167 bound_to 10162
  156.0020  130.4661  150.4234 H   0  0  0  0  0  0  0  0  0  0  0  0  # atno 10718 bound_to 10713
  153.0111  135.6328  154.1855 H   0  0  0  0  0  0  0  0  0  0  0  0  # atno 10763 bound_to 10752
  154.1597  135.2824  155.3114 H   0  0  0  0  0  0  0  0  0  0  0  0  # atno 10764 bound_to 10752
  154.5991  135.5593  153.7416 H   0  0  0  0  0  0  0  0  0  0  0  0  # atno 10765 bound_to 10752
  139.8943  134.9542  156.6683 H   0  0  0  0  0  0  0  0  0  0  0  0  # atno 11005 bound_to 11000
  146.0761  140.7815  142.9664 LP  0  0  0  0  0  0  0  0  0  0  0  0  # atno 17320 bound_to 7965
  144.6957  140.3417  143.7198 LP  0  0  0  0  0  0  0  0  0  0  0  0  # atno 17321 bound_to 7965
  140.4078  143.2672  151.9870 LP  0  0  0  0  0  0  0  0  0  0  0  0  # atno 17342 bound_to 10162
  139.4808  144.5942  151.7719 LP  0  0  0  0  0  0  0  0  0  0  0  0  # atno 17343 bound_to 10162
  157.2288  131.0499  151.2504 LP  0  0  0  0  0  0  0  0  0  0  0  0  # atno 17370 bound_to 10713
  157.3731  130.7191  149.6578 LP  0  0  0  0  0  0  0  0  0  0  0  0  # atno 17371 bound_to 10713
  140.7393  133.8991  155.8267 LP  0  0  0  0  0  0  0  0  0  0  0  0  # atno 17394 bound_to 11000
  141.0090  134.1046  157.4241 LP  0  0  0  0  0  0  0  0  0  0  0  0  # atno 17395 bound_to 11000

$$$$
