AV-unprocessed.smi:2172|AV-procd|sdf|8836|dock8
  -GOLD-   2272012 33D 1   1.00000     0.00000
 Structure written by MMmdl.
 37 39  0  0  0  0  0  0  0  0  2 V2000
  151.3891  140.2376  155.2406 O   0  0  0  0  0  0  0  0  0  0  0  0
  150.3090  140.7803  155.9675 C   0  0  0  0  0  0  0  0  0  0  0  0
  150.7631  141.6984  157.0543 C   0  0  0  0  0  0  0  0  0  0  0  0
  150.6824  143.0583  157.0279 N   0  3  0  0  0  0  0  0  0  0  0  0
  151.2257  143.5875  158.1986 C   0  0  0  0  0  0  0  0  0  0  0  0
  151.3731  144.9064  158.6170 C   0  0  0  0  0  0  0  0  0  0  0  0
  151.9830  145.1078  159.8724 C   0  0  0  0  0  0  0  0  0  0  0  0
  152.4166  144.0219  160.6596 C   0  0  0  0  0  0  0  0  0  0  0  0
  152.2574  142.6892  160.2267 C   0  0  0  0  0  0  0  0  0  0  0  0
  151.6559  142.4969  158.9822 C   0  0  0  0  0  0  0  0  0  0  0  0
  151.3515  141.3505  158.2357 N   0  0  0  0  0  0  0  0  0  0  0  0
  151.6962  140.0204  158.7667 C   0  0  0  0  0  0  0  0  0  0  0  0
  153.2194  139.8031  158.8697 C   0  0  2  0  0  0  0  0  0  0  0  0
  153.6505  139.1395  157.6996 O   0  0  0  0  0  0  0  0  0  0  0  0
  153.6140  139.0582  160.1373 C   0  0  0  0  0  0  0  0  0  0  0  0
  154.3897  139.7089  161.1208 C   0  0  0  0  0  0  0  0  0  0  0  0
  154.7309  139.0415  162.3131 C   0  0  0  0  0  0  0  0  0  0  0  0
  154.3003  137.7180  162.5278 C   0  0  0  0  0  0  0  0  0  0  0  0
  154.7137  136.9020  163.9905 Cl  0  0  0  0  0  0  0  0  0  0  0  0
  153.5289  137.0623  161.5489 C   0  0  0  0  0  0  0  0  0  0  0  0
  153.1864  137.7300  160.3573 C   0  0  0  0  0  0  0  0  0  0  0  0
  151.4940  139.3314  155.4887 H   0  0  0  0  0  0  0  0  0  0  0  0
  149.6595  141.3255  155.2824 H   0  0  0  0  0  0  0  0  0  0  0  0
  149.7168  139.9686  156.3898 H   0  0  0  0  0  0  0  0  0  0  0  0
  151.0434  145.7400  158.0144 H   0  0  0  0  0  0  0  0  0  0  0  0
  152.1222  146.1149  160.2380 H   0  0  0  0  0  0  0  0  0  0  0  0
  152.8820  144.2139  161.6156 H   0  0  0  0  0  0  0  0  0  0  0  0
  152.5995  141.8692  160.8397 H   0  0  0  0  0  0  0  0  0  0  0  0
  151.2060  139.8669  159.7279 H   0  0  0  0  0  0  0  0  0  0  0  0
  151.2595  139.2850  158.0904 H   0  0  0  0  0  0  0  0  0  0  0  0
  153.7173  140.7732  158.8699 H   0  0  0  0  0  0  0  0  0  0  0  0
  152.9022  139.0059  157.1378 H   0  0  0  0  0  0  0  0  0  0  0  0
  154.7161  140.7275  160.9684 H   0  0  0  0  0  0  0  0  0  0  0  0
  155.3211  139.5477  163.0627 H   0  0  0  0  0  0  0  0  0  0  0  0
  153.1957  136.0479  161.7119 H   0  0  0  0  0  0  0  0  0  0  0  0
  152.5851  137.2219  159.6176 H   0  0  0  0  0  0  0  0  0  0  0  0
  150.2911  143.5844  156.2573 H   0  0  0  0  0  0  0  0  0  0  0  0
  1  2  1  0  0  0  0
  1 22  1  0  0  0  0
  2  3  1  0  0  0  0
  2 23  1  0  0  0  0
  2 24  1  0  0  0  0
  3 11  1  0  0  0  0
  3  4  2  0  0  0  0
  4  5  1  0  0  0  0
  4 37  1  0  0  0  0
  5 10  2  0  0  0  0
  5  6  1  0  0  0  0
  6  7  2  0  0  0  0
  6 25  1  0  0  0  0
  7  8  1  0  0  0  0
  7 26  1  0  0  0  0
  8  9  2  0  0  0  0
  8 27  1  0  0  0  0
  9 10  1  0  0  0  0
  9 28  1  0  0  0  0
 10 11  1  0  0  0  0
 11 12  1  0  0  0  0
 12 13  1  0  0  0  0
 12 29  1  0  0  0  0
 12 30  1  0  0  0  0
 13 14  1  0  0  0  0
 13 15  1  0  0  0  0
 13 31  1  0  0  0  0
 14 32  1  0  0  0  0
 15 21  1  0  0  0  0
 15 16  2  0  0  0  0
 16 17  1  0  0  0  0
 16 33  1  0  0  0  0
 17 18  2  0  0  0  0
 17 34  1  0  0  0  0
 18 19  1  0  0  0  0
 18 20  1  0  0  0  0
 20 21  2  0  0  0  0
 20 35  1  0  0  0  0
 21 36  1  0  0  0  0
M  CHG  1   4   1
M  END
> <s_m_source_file>
AV-unprocessed.smi

> <i_m_source_file_index>
2172

> <i_lp_mmshare_version>
43012

> <i_f3d_flags>
0

> <s_epik_input>
W2NIXTFbY0hdW2NIXVtjSF1jKGMxMiluKGMobjIpW0NIMl1bT0hdKVtDSDJdW0NASF0oW09IXSljM1tjSF1bY0hdYyhDbClbY0hdW2NIXTM=

> <s_epik_cmdline>
J2VwaWtfcHl0aG9uJywgJy1waCcsICc3LjAnLCAnLXRuJywgJzgnLCAnLW1hJywgJzIwMCcsICctbWV0YWxfYmluZGluZycsICctaW1hZScsICc8aW5maWxlLm1hZT4nLCAnLW9tYWUnLCAnPG91dGZpbGUubWFlPic=

> <r_epik_Ionization_Penalty>
1.35643

> <r_epik_Ionization_Penalty_Charging>
1.35557

> <r_epik_Ionization_Penalty_Neutral>
0.000858184

> <r_epik_State_Penalty>
1.43401

> <r_epik_Charging_Adjusted_Penalty>
2.78958

> <i_epik_Tot_Q>
1

> <i_epik_Tot_abs_Q>
1

> <r_epik_Metal_State_Penalty>
5.47166

> <b_epik_Metal_Only>
0

> <s_lp_Force_Field>
OPLS_2005

> <r_lp_Energy>
15.2583

> <b_lp_Chiralities_Consistent>
1

> <s_lp_Variant>
AV-unprocessed.smi:2172-3

> <Gold.Version>
5.8.1

> <Gold.Id.Protein>
6NUR|6NUR_protein|mol2

> <Gold.PLP.Fitness>
58.5475

> <Gold.PLP.PLP>
-48.4023

> <Gold.PLP.part.hbond>
-2.7643

> <Gold.PLP.part.metal>
0.0000

> <Gold.PLP.part.buried>
-6.8230

> <Gold.PLP.part.nonpolar>
-39.9434

> <Gold.PLP.part.repulsive>
0.0174

> <Gold.PLP.ligand.clash>
0.0000

> <Gold.PLP.ligand.torsion>
0.7548

> <Gold.PLP.Chemscore.Hbond>
3.8793

> <Gold.PLP.Chemscore.CHOScore>
0.0000

> <Gold.PLP.Chemscore.Metal>
0.0000

> <Gold.Chemscore.Hbonds>
donor molecule, donor type, donor heavy atom, donor atom, acceptor molecule, acceptor atom, score
      L1  H     4    37       P1  8028  1.89
      P1  H  7989  7998       L1     1  1.00
      P1  H  7997  8008       L1    14  0.99

> <Gold.PLP.Chemscore.Internal.Correction>
0.0170

> <Gold.Rescore>
     Score         DG    S(hbond)    S(metal)    S(lipo)     H(rot)  DE(clash)    DE(int)     intcor
     22.64     -23.43       2.73        0.00     134.45       2.70       0.02       0.78       ----

> <Gold.Chemscore.Fitness>
22.6362

> <Gold.Chemscore.DG>
-23.4324

> <Gold.Chemscore.ZeroCoef>
-5.4800

> <Gold.Chemscore.Hbond>
2.7319

> <Gold.Chemscore.Metal>
0.0000

> <Gold.Chemscore.Lipo>
134.4460

> <Gold.Chemscore.Internal_Hbond>
0.0000

> <Gold.Chemscore.DEClash>
0.0202

> <Gold.Chemscore.DEInternal>
0.7759

> <Gold.Chemscore.Rot>
2.6963

> <Gold.Chemscore.Internal.Correction>
   9.000000E+99

> <Gold.Chemscore.Hbonds>
donor molecule, donor type, donor heavy atom, donor atom, acceptor molecule, acceptor atom, score
      L1  H     4    37       P1  8028  0.91
      P1  H  7989  7998       L1     1  0.90
      P1  H  7997  8008       L1    14  0.38

> <Gold.Chemscore.Hbond.Weighted>
-9.1246

> <Gold.Chemscore.Metal.Weighted>
-0.0000

> <Gold.Chemscore.Lipo.Weighted>
-15.7302

> <Gold.Chemscore.Internal_Hbond.Weighted>
0.0000

> <Gold.Chemscore.DEClash.Weighted>
0.0202

> <Gold.Chemscore.DEInternal.Weighted>
0.7759

> <Gold.Chemscore.Rot.Weighted>
6.9024

> <Gold.Chemscore.Internal.Correction.Weighted>
   9.000000E+99

> <Gold.Protein.RotatedTorsions>
[ 6907 6896 6895 6894 ] final   58.13 input  -60.11 | X-H torsion
[ 7974 7965 7964 7962 ] final  -98.95 input  175.53 | X-H torsion
[ 8008 7997 7996 7995 ] final -101.66 input   59.86 | X-H torsion
[ 10167 10162 10161 10158 ] final -121.80 input  -65.29 | X-H torsion
[ 10718 10713 10712 10709 ] final   21.81 input   66.30 | X-H torsion
[ 10763 10752 10751 10750 ] final  105.00 input  -60.55 | X-H torsion
[ 11005 11000 10999 10996 ] final  114.70 input  -57.11 | X-H torsion

> <Gold.Protein.ActiveResidues>
 VAL166  LYS551  ARG553  GLY616  TRP617  ASP618  TYR619  PRO620  LYS621  CYS622 
 ASP623  PHE694  ASN695  SER759  ASP760  ASP761  ALA762  ILE779  LEU786  VAL792 
 PHE793  MET794  SER795  GLU796  ALA797  LYS798  CYS799  TRP800  GLU811  SER814 

> <Gold.Protein.RotatedAtoms>
  152.3795  134.6612  160.0147 H   0  0  0  0  0  0  0  0  0  0  0  0  # atno 6907 bound_to 6896
  151.6879  133.3306  159.3243 H   0  0  0  0  0  0  0  0  0  0  0  0  # atno 6908 bound_to 6896
  150.7736  134.6660  159.6410 H   0  0  0  0  0  0  0  0  0  0  0  0  # atno 6909 bound_to 6896
  145.3139  140.9406  143.2754 H   0  0  0  0  0  0  0  0  0  0  0  0  # atno 7974 bound_to 7965
  154.8456  140.0433  157.1570 H   0  0  0  0  0  0  0  0  0  0  0  0  # atno 8008 bound_to 7997
  154.8998  140.2998  155.5303 H   0  0  0  0  0  0  0  0  0  0  0  0  # atno 8009 bound_to 7997
  156.2994  140.2378  156.4025 H   0  0  0  0  0  0  0  0  0  0  0  0  # atno 8010 bound_to 7997
  140.0212  143.5343  152.2220 H   0  0  0  0  0  0  0  0  0  0  0  0  # atno 10167 bound_to 10162
  157.1436  130.6643  149.5989 H   0  0  0  0  0  0  0  0  0  0  0  0  # atno 10718 bound_to 10713
  153.3734  135.3924  155.1805 H   0  0  0  0  0  0  0  0  0  0  0  0  # atno 10763 bound_to 10752
  154.8697  135.3708  154.4948 H   0  0  0  0  0  0  0  0  0  0  0  0  # atno 10764 bound_to 10752
  153.5418  135.7084  153.5693 H   0  0  0  0  0  0  0  0  0  0  0  0  # atno 10765 bound_to 10752
  139.8988  134.9572  156.6932 H   0  0  0  0  0  0  0  0  0  0  0  0  # atno 11005 bound_to 11000
  144.8993  139.4670  143.6640 LP  0  0  0  0  0  0  0  0  0  0  0  0  # atno 17320 bound_to 7965
  146.3107  139.7738  142.9021 LP  0  0  0  0  0  0  0  0  0  0  0  0  # atno 17321 bound_to 7965
  139.6139  144.7615  151.2891 LP  0  0  0  0  0  0  0  0  0  0  0  0  # atno 17342 bound_to 10162
  140.7342  143.6774  150.8030 LP  0  0  0  0  0  0  0  0  0  0  0  0  # atno 17343 bound_to 10162
  155.9784  130.4769  150.6652 LP  0  0  0  0  0  0  0  0  0  0  0  0  # atno 17370 bound_to 10713
  157.4285  131.0846  151.1062 LP  0  0  0  0  0  0  0  0  0  0  0  0  # atno 17371 bound_to 10713
  140.7208  133.9142  155.8145 LP  0  0  0  0  0  0  0  0  0  0  0  0  # atno 17394 bound_to 11000
  141.0229  134.0864  157.4101 LP  0  0  0  0  0  0  0  0  0  0  0  0  # atno 17395 bound_to 11000

$$$$
