AV-unprocessed.smi:3117|AV-procd|sdf|11881|dock8
  -GOLD-   2272017273D 1   1.00000     0.00000
 Structure written by MMmdl.
 37 37  0  0  0  0  0  0  0  0  2 V2000
  149.1559  141.0929  157.2357 C   0  0  0  0  0  0  0  0  0  0  0  0
  150.3467  141.6581  156.4443 C   0  0  1  0  0  0  0  0  0  0  0  0
  150.7557  142.9553  157.0292 N   0  3  0  0  0  0  0  0  0  0  0  0
  150.9030  142.9632  158.4999 C   0  0  0  0  0  0  0  0  0  0  0  0
  151.5490  144.2676  159.0134 C   0  0  0  0  0  0  0  0  0  0  0  0
  151.7991  144.1764  160.5279 C   0  0  0  0  0  0  0  0  0  0  0  0
  152.8574  144.6056  158.2755 C   0  0  0  0  0  0  0  0  0  0  0  0
  150.6321  145.3258  158.8118 O   0  0  0  0  0  0  0  0  0  0  0  0
  151.5410  140.6716  156.3670 C   0  0  1  0  0  0  0  0  0  0  0  0
  152.0887  140.2828  157.7535 C   0  0  0  0  0  0  0  0  0  0  0  0
  151.2641  139.4971  155.5450 N   0  0  0  0  0  0  0  0  0  0  0  0
  151.6598  138.1932  155.7650 C   0  0  0  0  0  0  0  0  0  0  0  0
  151.1873  137.4401  154.7289 C   0  0  0  0  0  0  0  0  0  0  0  0
  150.5073  138.3824  153.9088 C   0  0  0  0  0  0  0  0  0  0  0  0
  150.5587  139.6114  154.3962 N   0  0  0  0  0  0  0  0  0  0  0  0
  148.8303  140.1370  156.8249 H   0  0  0  0  0  0  0  0  0  0  0  0
  148.3040  141.7728  157.1986 H   0  0  0  0  0  0  0  0  0  0  0  0
  149.4056  140.9363  158.2856 H   0  0  0  0  0  0  0  0  0  0  0  0
  150.0012  141.8264  155.4227 H   0  0  0  0  0  0  0  0  0  0  0  0
  151.6322  143.2354  156.6134 H   0  0  0  0  0  0  0  0  0  0  0  0
  149.9184  142.8325  158.9520 H   0  0  0  0  0  0  0  0  0  0  0  0
  151.5062  142.1042  158.7976 H   0  0  0  0  0  0  0  0  0  0  0  0
  152.4988  143.3739  160.7633 H   0  0  0  0  0  0  0  0  0  0  0  0
  150.8761  143.9779  161.0740 H   0  0  0  0  0  0  0  0  0  0  0  0
  152.2196  145.1033  160.9201 H   0  0  0  0  0  0  0  0  0  0  0  0
  153.5904  143.8060  158.3890 H   0  0  0  0  0  0  0  0  0  0  0  0
  153.3072  145.5191  158.6664 H   0  0  0  0  0  0  0  0  0  0  0  0
  152.6963  144.7563  157.2076 H   0  0  0  0  0  0  0  0  0  0  0  0
  150.8374  145.7519  157.9930 H   0  0  0  0  0  0  0  0  0  0  0  0
  152.3501  141.2054  155.8659 H   0  0  0  0  0  0  0  0  0  0  0  0
  152.3768  141.1675  158.3218 H   0  0  0  0  0  0  0  0  0  0  0  0
  152.9728  139.6514  157.6608 H   0  0  0  0  0  0  0  0  0  0  0  0
  151.3541  139.7358  158.3455 H   0  0  0  0  0  0  0  0  0  0  0  0
  152.2396  137.9114  156.6318 H   0  0  0  0  0  0  0  0  0  0  0  0
  151.3089  136.3774  154.5795 H   0  0  0  0  0  0  0  0  0  0  0  0
  149.9843  138.2117  152.9794 H   0  0  0  0  0  0  0  0  0  0  0  0
  150.0569  143.6429  156.7832 H   0  0  0  0  0  0  0  0  0  0  0  0
  1  2  1  0  0  0  0
  1 16  1  0  0  0  0
  1 17  1  0  0  0  0
  1 18  1  0  0  0  0
  2  3  1  0  0  0  0
  2  9  1  0  0  0  0
  2 19  1  0  0  0  0
  3  4  1  0  0  0  0
  3 20  1  0  0  0  0
  3 37  1  0  0  0  0
  4  5  1  0  0  0  0
  4 21  1  0  0  0  0
  4 22  1  0  0  0  0
  5  6  1  0  0  0  0
  5  7  1  0  0  0  0
  5  8  1  0  0  0  0
  6 23  1  0  0  0  0
  6 24  1  0  0  0  0
  6 25  1  0  0  0  0
  7 26  1  0  0  0  0
  7 27  1  0  0  0  0
  7 28  1  0  0  0  0
  8 29  1  0  0  0  0
  9 10  1  0  0  0  0
  9 11  1  0  0  0  0
  9 30  1  0  0  0  0
 10 31  1  0  0  0  0
 10 32  1  0  0  0  0
 10 33  1  0  0  0  0
 11 15  1  0  0  0  0
 11 12  1  0  0  0  0
 12 13  2  0  0  0  0
 12 34  1  0  0  0  0
 13 14  1  0  0  0  0
 13 35  1  0  0  0  0
 14 15  2  0  0  0  0
 14 36  1  0  0  0  0
M  CHG  1   3   1
M  END
> <s_m_source_file>
AV-unprocessed.smi

> <i_m_source_file_index>
3117

> <i_lp_mmshare_version>
43012

> <i_f3d_flags>
0

> <s_epik_input>
W0NIM11DKFtDSDNdKShbT0hdKVtDSDJdW05IXVtDQEBIXShbQ0gzXSlbQ0BIXShbQ0gzXSluMVtjSF1bY0hdW2NIXW4x

> <s_epik_cmdline>
J2VwaWtfcHl0aG9uJywgJy1waCcsICc3LjAnLCAnLXRuJywgJzgnLCAnLW1hJywgJzIwMCcsICctbWV0YWxfYmluZGluZycsICctaW1hZScsICc8aW5maWxlLm1hZT4nLCAnLW9tYWUnLCAnPG91dGZpbGUubWFlPic=

> <r_lp_tautomer_probability>
1

> <r_epik_Ionization_Penalty>
0.0164263

> <r_epik_Ionization_Penalty_Charging>
0.0164138

> <r_epik_Ionization_Penalty_Neutral>
1.24697e-05

> <r_epik_State_Penalty>
0.0129543

> <r_epik_Charging_Adjusted_Penalty>
0.0293681

> <i_epik_Tot_Q>
1

> <i_epik_Tot_abs_Q>
1

> <r_epik_Metal_State_Penalty>
0.0129806

> <b_epik_Metal_Only>
0

> <s_lp_Force_Field>
OPLS_2005

> <r_lp_Energy>
13.722

> <b_lp_Chiralities_Consistent>
1

> <s_lp_Variant>
AV-unprocessed.smi:3117-4

> <Gold.Version>
5.8.1

> <Gold.Id.Protein>
6NUR|6NUR_protein|mol2

> <Gold.PLP.Fitness>
48.9112

> <Gold.PLP.PLP>
-35.3364

> <Gold.PLP.part.hbond>
-3.0345

> <Gold.PLP.part.metal>
0.0000

> <Gold.PLP.part.buried>
-5.6263

> <Gold.PLP.part.nonpolar>
-27.4234

> <Gold.PLP.part.repulsive>
0.1535

> <Gold.PLP.ligand.clash>
0.0000

> <Gold.PLP.ligand.torsion>
0.6893

> <Gold.PLP.Chemscore.Hbond>
3.0000

> <Gold.PLP.Chemscore.CHOScore>
1.9297

> <Gold.PLP.Chemscore.Metal>
0.0000

> <Gold.Chemscore.Hbonds>
donor molecule, donor type, donor heavy atom, donor atom, acceptor molecule, acceptor atom, score
      L1  H     3    37       P1  8028  2.00
      P1  H  7989  7998       L1    15  1.00
      L1  C    14    36       P1  7948  1.00
      L1  C    14    36       P1  7957  0.78

> <Gold.PLP.Chemscore.Internal.Correction>
0.1641

> <Gold.Rescore>
     Score         DG    S(hbond)    S(metal)    S(lipo)     H(rot)  DE(clash)    DE(int)     intcor
     15.97     -16.45       1.99        0.00      86.53       2.27       0.03       0.44       ----

> <Gold.Chemscore.Fitness>
15.9733

> <Gold.Chemscore.DG>
-16.4464

> <Gold.Chemscore.ZeroCoef>
-5.4800

> <Gold.Chemscore.Hbond>
1.9940

> <Gold.Chemscore.Metal>
0.0000

> <Gold.Chemscore.Lipo>
86.5296

> <Gold.Chemscore.Internal_Hbond>
0.0000

> <Gold.Chemscore.DEClash>
0.0319

> <Gold.Chemscore.DEInternal>
0.4413

> <Gold.Chemscore.Rot>
2.2725

> <Gold.Chemscore.Internal.Correction>
   9.000000E+99

> <Gold.Chemscore.Hbonds>
donor molecule, donor type, donor heavy atom, donor atom, acceptor molecule, acceptor atom, score
      L1  H     3    37       P1  8028  0.99
      P1  H  7989  7998       L1    15  0.24

> <Gold.Chemscore.Hbond.Weighted>
-6.6601

> <Gold.Chemscore.Metal.Weighted>
-0.0000

> <Gold.Chemscore.Lipo.Weighted>
-10.1240

> <Gold.Chemscore.Internal_Hbond.Weighted>
0.0000

> <Gold.Chemscore.DEClash.Weighted>
0.0319

> <Gold.Chemscore.DEInternal.Weighted>
0.4413

> <Gold.Chemscore.Rot.Weighted>
5.8176

> <Gold.Chemscore.Internal.Correction.Weighted>
   9.000000E+99

> <Gold.Protein.RotatedTorsions>
[ 6907 6896 6895 6894 ] final  -18.90 input  -60.11 | X-H torsion
[ 7974 7965 7964 7962 ] final  -30.04 input  175.53 | X-H torsion
[ 8008 7997 7996 7995 ] final  149.34 input   59.86 | X-H torsion
[ 10167 10162 10161 10158 ] final   56.20 input  -65.29 | X-H torsion
[ 10718 10713 10712 10709 ] final -140.60 input   66.30 | X-H torsion
[ 10763 10752 10751 10750 ] final   99.50 input  -60.55 | X-H torsion
[ 11005 11000 10999 10996 ] final  -36.20 input  -57.11 | X-H torsion

> <Gold.Protein.ActiveResidues>
 VAL166  LYS551  ARG553  GLY616  TRP617  ASP618  TYR619  PRO620  LYS621  CYS622 
 ASP623  PHE694  ASN695  SER759  ASP760  ASP761  ALA762  ILE779  LEU786  VAL792 
 PHE793  MET794  SER795  GLU796  ALA797  LYS798  CYS799  TRP800  GLU811  SER814 

> <Gold.Protein.RotatedAtoms>
  151.2712  135.0685  159.9134 H   0  0  0  0  0  0  0  0  0  0  0  0  # atno 6907 bound_to 6896
  152.5350  134.0128  159.7956 H   0  0  0  0  0  0  0  0  0  0  0  0  # atno 6908 bound_to 6896
  151.0367  133.5692  159.2686 H   0  0  0  0  0  0  0  0  0  0  0  0  # atno 6909 bound_to 6896
  146.1172  140.5490  142.8751 H   0  0  0  0  0  0  0  0  0  0  0  0  # atno 7974 bound_to 7965
  156.2758  140.2104  156.5842 H   0  0  0  0  0  0  0  0  0  0  0  0  # atno 8008 bound_to 7997
  154.7034  140.0519  157.0504 H   0  0  0  0  0  0  0  0  0  0  0  0  # atno 8009 bound_to 7997
  155.0703  140.3176  155.4635 H   0  0  0  0  0  0  0  0  0  0  0  0  # atno 8010 bound_to 7997
  140.2113  144.3886  150.6488 H   0  0  0  0  0  0  0  0  0  0  0  0  # atno 10167 bound_to 10162
  156.3242  130.7551  151.1655 H   0  0  0  0  0  0  0  0  0  0  0  0  # atno 10718 bound_to 10713
  153.3022  135.4111  155.1263 H   0  0  0  0  0  0  0  0  0  0  0  0  # atno 10763 bound_to 10752
  154.8552  135.3544  154.5836 H   0  0  0  0  0  0  0  0  0  0  0  0  # atno 10764 bound_to 10752
  153.6261  135.7062  153.5351 H   0  0  0  0  0  0  0  0  0  0  0  0  # atno 10765 bound_to 10752
  140.9856  133.7032  156.1759 H   0  0  0  0  0  0  0  0  0  0  0  0  # atno 11005 bound_to 11000
  144.7564  140.5317  143.6766 LP  0  0  0  0  0  0  0  0  0  0  0  0  # atno 17320 bound_to 7965
  145.5541  139.1477  143.3377 LP  0  0  0  0  0  0  0  0  0  0  0  0  # atno 17321 bound_to 7965
  140.6321  143.2189  151.6472 LP  0  0  0  0  0  0  0  0  0  0  0  0  # atno 17342 bound_to 10162
  139.5179  144.3301  152.0833 LP  0  0  0  0  0  0  0  0  0  0  0  0  # atno 17343 bound_to 10162
  157.7418  131.0499  150.5072 LP  0  0  0  0  0  0  0  0  0  0  0  0  # atno 17370 bound_to 10713
  156.5229  130.4166  149.6241 LP  0  0  0  0  0  0  0  0  0  0  0  0  # atno 17371 bound_to 10713
  140.7120  134.4451  157.5581 LP  0  0  0  0  0  0  0  0  0  0  0  0  # atno 17394 bound_to 11000
  139.8969  134.8649  156.2068 LP  0  0  0  0  0  0  0  0  0  0  0  0  # atno 17395 bound_to 11000

$$$$
