AV-unprocessed.smi:1645|AV-procd|sdf|6611|dock1
  -GOLD-   22720 7313D 1   1.00000     0.00000
 Structure written by MMmdl.
 56 59  0  0  0  0  0  0  0  0  3 V2000
  146.9722  139.9819  153.8622 O   0  0  0  0  0  0  0  0  0  0  0  0
  147.8205  139.1911  153.4503 C   0  0  0  0  0  0  0  0  0  0  0  0
  149.1059  139.1594  153.8405 N   0  0  0  0  0  0  0  0  0  0  0  0
  149.7579  140.0102  154.7724 C   0  0  0  0  0  0  0  0  0  0  0  0
  150.9412  139.6569  155.4682 C   0  0  0  0  0  0  0  0  0  0  0  0
  151.5041  140.5673  156.3858 C   0  0  0  0  0  0  0  0  0  0  0  0
  150.8742  141.8140  156.6026 C   0  0  0  0  0  0  0  0  0  0  0  0
  151.3635  142.7798  157.4914 N   0  0  0  0  0  0  0  0  0  0  0  0
  151.8567  143.9776  156.8160 C   0  0  0  0  0  0  0  0  0  0  0  0
  152.5489  144.9224  157.8136 C   0  0  0  0  0  0  0  0  0  0  0  0
  151.6179  145.2553  158.9905 C   0  0  0  0  0  0  0  0  0  0  0  0
  151.1044  143.9624  159.6444 C   0  0  0  0  0  0  0  0  0  0  0  0
  150.4497  143.0411  158.6006 C   0  0  0  0  0  0  0  0  0  0  0  0
  149.7396  142.1057  155.9300 N   0  3  0  0  0  0  0  0  0  0  0  0
  149.1668  141.2617  155.0450 C   0  0  0  0  0  0  0  0  0  0  0  0
  147.5543  138.2233  152.5620 N   0  0  0  0  0  0  0  0  0  0  0  0
  146.2426  137.9865  151.9637 C   0  0  1  0  0  0  0  0  0  0  0  0
  146.1660  136.6827  151.1584 C   0  0  0  0  0  0  0  0  0  0  0  0
  144.7079  136.2099  151.3016 C   0  0  0  0  0  0  0  0  0  0  0  0
  144.0394  137.1941  152.1825 N   0  3  1  0  0  0  0  0  0  0  0  0
  142.8580  136.7090  152.9410 C   0  0  0  0  0  0  0  0  0  0  0  0
  143.2459  135.8824  154.1784 C   0  0  0  0  0  0  0  0  0  0  0  0
  144.2229  136.6621  155.0642 C   0  0  0  0  0  0  0  0  0  0  0  0
  145.4642  137.0418  154.2502 C   0  0  0  0  0  0  0  0  0  0  0  0
  145.0962  137.8538  152.9812 C   0  0  1  0  0  0  0  0  0  0  0  0
  149.6628  138.3961  153.4842 H   0  0  0  0  0  0  0  0  0  0  0  0
  151.4209  138.7008  155.3260 H   0  0  0  0  0  0  0  0  0  0  0  0
  152.4073  140.3052  156.9176 H   0  0  0  0  0  0  0  0  0  0  0  0
  152.5559  143.6944  156.0280 H   0  0  0  0  0  0  0  0  0  0  0  0
  151.0253  144.4951  156.3352 H   0  0  0  0  0  0  0  0  0  0  0  0
  153.4593  144.4532  158.1895 H   0  0  0  0  0  0  0  0  0  0  0  0
  152.8579  145.8380  157.3084 H   0  0  0  0  0  0  0  0  0  0  0  0
  152.1417  145.8678  159.7250 H   0  0  0  0  0  0  0  0  0  0  0  0
  150.7734  145.8470  158.6345 H   0  0  0  0  0  0  0  0  0  0  0  0
  151.9345  143.4404  160.1227 H   0  0  0  0  0  0  0  0  0  0  0  0
  150.3905  144.1986  160.4339 H   0  0  0  0  0  0  0  0  0  0  0  0
  149.5378  143.5040  158.2209 H   0  0  0  0  0  0  0  0  0  0  0  0
  150.1593  142.0993  159.0684 H   0  0  0  0  0  0  0  0  0  0  0  0
  148.2602  141.6181  154.5777 H   0  0  0  0  0  0  0  0  0  0  0  0
  148.3050  137.6098  152.2797 H   0  0  0  0  0  0  0  0  0  0  0  0
  146.0103  138.8100  151.2847 H   0  0  0  0  0  0  0  0  0  0  0  0
  146.4483  136.8364  150.1164 H   0  0  0  0  0  0  0  0  0  0  0  0
  146.8374  135.9285  151.5720 H   0  0  0  0  0  0  0  0  0  0  0  0
  144.1969  136.1635  150.3397 H   0  0  0  0  0  0  0  0  0  0  0  0
  144.6823  135.2116  151.7401 H   0  0  0  0  0  0  0  0  0  0  0  0
  142.2847  137.5807  153.2596 H   0  0  0  0  0  0  0  0  0  0  0  0
  142.2060  136.1353  152.2814 H   0  0  0  0  0  0  0  0  0  0  0  0
  142.3514  135.6267  154.7469 H   0  0  0  0  0  0  0  0  0  0  0  0
  143.6960  134.9368  153.8745 H   0  0  0  0  0  0  0  0  0  0  0  0
  143.7412  137.5607  155.4517 H   0  0  0  0  0  0  0  0  0  0  0  0
  144.5090  136.0611  155.9280 H   0  0  0  0  0  0  0  0  0  0  0  0
  146.1468  137.6147  154.8786 H   0  0  0  0  0  0  0  0  0  0  0  0
  145.9963  136.1304  153.9743 H   0  0  0  0  0  0  0  0  0  0  0  0
  144.7419  138.8396  153.2860 H   0  0  0  0  0  0  0  0  0  0  0  0
  143.6959  137.9074  151.5551 H   0  0  0  0  0  0  0  0  0  0  0  0
  149.2935  143.0077  156.0996 H   0  0  0  0  0  0  0  0  0  0  0  0
  1  2  2  0  0  0  0
  2  3  1  0  0  0  0
  2 16  1  0  0  0  0
  3  4  1  0  0  0  0
  3 26  1  0  0  0  0
  4 15  1  0  0  0  0
  4  5  2  0  0  0  0
  5  6  1  0  0  0  0
  5 27  1  0  0  0  0
  6  7  2  0  0  0  0
  6 28  1  0  0  0  0
  7  8  1  0  0  0  0
  7 14  1  0  0  0  0
  8 13  1  0  0  0  0
  8  9  1  0  0  0  0
  9 10  1  0  0  0  0
  9 29  1  0  0  0  0
  9 30  1  0  0  0  0
 10 11  1  0  0  0  0
 10 31  1  0  0  0  0
 10 32  1  0  0  0  0
 11 12  1  0  0  0  0
 11 33  1  0  0  0  0
 11 34  1  0  0  0  0
 12 13  1  0  0  0  0
 12 35  1  0  0  0  0
 12 36  1  0  0  0  0
 13 37  1  0  0  0  0
 13 38  1  0  0  0  0
 14 15  2  0  0  0  0
 14 56  1  0  0  0  0
 15 39  1  0  0  0  0
 16 17  1  0  0  0  0
 16 40  1  0  0  0  0
 17 25  1  0  0  0  0
 17 18  1  0  0  0  0
 17 41  1  0  0  0  0
 18 19  1  0  0  0  0
 18 42  1  0  0  0  0
 18 43  1  0  0  0  0
 19 20  1  0  0  0  0
 19 44  1  0  0  0  0
 19 45  1  0  0  0  0
 20 25  1  0  0  0  0
 20 21  1  0  0  0  0
 20 55  1  0  0  0  0
 21 22  1  0  0  0  0
 21 46  1  0  0  0  0
 21 47  1  0  0  0  0
 22 23  1  0  0  0  0
 22 48  1  0  0  0  0
 22 49  1  0  0  0  0
 23 24  1  0  0  0  0
 23 50  1  0  0  0  0
 23 51  1  0  0  0  0
 24 25  1  0  0  0  0
 24 52  1  0  0  0  0
 24 53  1  0  0  0  0
 25 54  1  0  0  0  0
M  CHG  1  14   1
M  CHG  1  20   1
M  END
> <s_m_source_file>
AV-unprocessed.smi

> <i_m_source_file_index>
1645

> <i_lp_mmshare_version>
43012

> <i_f3d_flags>
0

> <s_epik_input>
W0NIMl0xW0NIMl1bQ0gyXVtDSDJdW0NASF0oTjEyKVtDQEBIXShbQ0gyXVtDSDJdMilbTkhdQyg9TylbTkhdYzNbY0hdW2NIXWMobltjSF0zKU40W0NIMl1bQ0gyXVtDSDJdW0NIMl1bQ0gyXTQ=

> <s_epik_cmdline>
J2VwaWtfcHl0aG9uJywgJy1waCcsICc3LjAnLCAnLXRuJywgJzgnLCAnLW1hJywgJzIwMCcsICctbWV0YWxfYmluZGluZycsICctaW1hZScsICc8aW5maWxlLm1hZT4nLCAnLW9tYWUnLCAnPG91dGZpbGUubWFlPic=

> <r_lp_tautomer_probability>
0.999994

> <r_epik_Ionization_Penalty>
1.26838

> <r_epik_Ionization_Penalty_Charging>
1.26836

> <r_epik_Ionization_Penalty_Neutral>
1.95562e-05

> <r_epik_State_Penalty>
1.33841

> <r_epik_Charging_Adjusted_Penalty>
2.60677

> <i_epik_Tot_Q>
2

> <i_epik_Tot_abs_Q>
2

> <r_epik_Metal_State_Penalty>
1.40601

> <b_epik_Metal_Only>
0

> <s_lp_Force_Field>
OPLS_2005

> <r_lp_Energy>
62.3043

> <b_lp_Chiralities_Consistent>
1

> <s_lp_Variant>
AV-unprocessed.smi:1645-12

> <Gold.Version>
5.8.1

> <Gold.Id.Protein>
6NUR|6NUR_protein|mol2

> <Gold.PLP.Fitness>
53.3485

> <Gold.PLP.PLP>
-42.0604

> <Gold.PLP.part.hbond>
-4.8916

> <Gold.PLP.part.metal>
0.0000

> <Gold.PLP.part.buried>
0.6723

> <Gold.PLP.part.nonpolar>
-38.6592

> <Gold.PLP.part.repulsive>
0.5490

> <Gold.PLP.ligand.clash>
0.0000

> <Gold.PLP.ligand.torsion>
0.2522

> <Gold.PLP.Chemscore.Hbond>
3.8800

> <Gold.PLP.Chemscore.CHOScore>
0.0000

> <Gold.PLP.Chemscore.Metal>
0.0000

> <Gold.Chemscore.Hbonds>
donor molecule, donor type, donor heavy atom, donor atom, acceptor molecule, acceptor atom, score
      L1  H    14    56       P1  8028  2.00
      L1  H    16    40       P1  7948  1.00
      L1  H    20    55       P1 10171  0.88

> <Gold.PLP.Chemscore.Internal.Correction>
0.1525

> <Gold.Rescore>
     Score         DG    S(hbond)    S(metal)    S(lipo)     H(rot)  DE(clash)    DE(int)     intcor
     19.42     -24.96       2.68        0.00     115.84       1.18       2.53       3.01       ----

> <Gold.Chemscore.Fitness>
19.4166

> <Gold.Chemscore.DG>
-24.9639

> <Gold.Chemscore.ZeroCoef>
-5.4800

> <Gold.Chemscore.Hbond>
2.6826

> <Gold.Chemscore.Metal>
0.0000

> <Gold.Chemscore.Lipo>
115.8408

> <Gold.Chemscore.Internal_Hbond>
0.0000

> <Gold.Chemscore.DEClash>
2.5343

> <Gold.Chemscore.DEInternal>
3.0130

> <Gold.Chemscore.Rot>
1.1833

> <Gold.Chemscore.Internal.Correction>
   9.000000E+99

> <Gold.Chemscore.Hbonds>
donor molecule, donor type, donor heavy atom, donor atom, acceptor molecule, acceptor atom, score
      L1  H    14    56       P1  8028  0.97
      L1  H    16    40       P1  7948  0.95
      L1  H    20    55       P1 10171  0.85

> <Gold.Chemscore.Hbond.Weighted>
-8.9599

> <Gold.Chemscore.Metal.Weighted>
-0.0000

> <Gold.Chemscore.Lipo.Weighted>
-13.5534

> <Gold.Chemscore.Internal_Hbond.Weighted>
0.0000

> <Gold.Chemscore.DEClash.Weighted>
2.5343

> <Gold.Chemscore.DEInternal.Weighted>
3.0130

> <Gold.Chemscore.Rot.Weighted>
3.0293

> <Gold.Chemscore.Internal.Correction.Weighted>
   9.000000E+99

> <Gold.Protein.RotatedTorsions>
[ 6907 6896 6895 6894 ] final   19.10 input  -60.11 | X-H torsion
[ 7974 7965 7964 7962 ] final -178.02 input  175.53 | X-H torsion
[ 8008 7997 7996 7995 ] final  145.85 input   59.86 | X-H torsion
[ 10167 10162 10161 10158 ] final   43.16 input  -65.29 | X-H torsion
[ 10718 10713 10712 10709 ] final    1.22 input   66.30 | X-H torsion
[ 10763 10752 10751 10750 ] final  -64.17 input  -60.55 | X-H torsion
[ 11005 11000 10999 10996 ] final  124.43 input  -57.11 | X-H torsion

> <Gold.Protein.ActiveResidues>
 VAL166  LYS551  ARG553  GLY616  TRP617  ASP618  TYR619  PRO620  LYS621  CYS622 
 ASP623  PHE694  ASN695  SER759  ASP760  ASP761  ALA762  ILE779  LEU786  VAL792 
 PHE793  MET794  SER795  GLU796  ALA797  LYS798  CYS799  TRP800  GLU811  SER814 

> <Gold.Protein.RotatedAtoms>
  151.8756  135.0473  160.0483 H   0  0  0  0  0  0  0  0  0  0  0  0  # atno 6907 bound_to 6896
  152.2553  133.5246  159.5358 H   0  0  0  0  0  0  0  0  0  0  0  0  # atno 6908 bound_to 6896
  150.7097  134.0820  159.3944 H   0  0  0  0  0  0  0  0  0  0  0  0  # atno 6909 bound_to 6896
  144.7129  140.0931  143.6420 H   0  0  0  0  0  0  0  0  0  0  0  0  # atno 7974 bound_to 7965
  156.2872  140.2198  156.5283 H   0  0  0  0  0  0  0  0  0  0  0  0  # atno 8008 bound_to 7997
  154.7471  140.0483  157.0883 H   0  0  0  0  0  0  0  0  0  0  0  0  # atno 8009 bound_to 7997
  155.0157  140.3118  155.4815 H   0  0  0  0  0  0  0  0  0  0  0  0  # atno 8010 bound_to 7997
  140.3471  144.2397  150.6149 H   0  0  0  0  0  0  0  0  0  0  0  0  # atno 10167 bound_to 10162
  156.8450  130.5534  149.5674 H   0  0  0  0  0  0  0  0  0  0  0  0  # atno 10718 bound_to 10713
  154.3261  135.6186  153.5530 H   0  0  0  0  0  0  0  0  0  0  0  0  # atno 10763 bound_to 10752
  152.9815  135.5735  154.5014 H   0  0  0  0  0  0  0  0  0  0  0  0  # atno 10764 bound_to 10752
  154.4692  135.2858  155.1632 H   0  0  0  0  0  0  0  0  0  0  0  0  # atno 10765 bound_to 10752
  139.9358  134.9639  156.8407 H   0  0  0  0  0  0  0  0  0  0  0  0  # atno 11005 bound_to 11000
  145.9603  139.2796  143.1159 LP  0  0  0  0  0  0  0  0  0  0  0  0  # atno 17320 bound_to 7965
  145.9228  140.9103  143.0396 LP  0  0  0  0  0  0  0  0  0  0  0  0  # atno 17321 bound_to 7965
  140.5254  143.2255  151.8323 LP  0  0  0  0  0  0  0  0  0  0  0  0  # atno 17342 bound_to 10162
  139.4831  144.4786  151.9335 LP  0  0  0  0  0  0  0  0  0  0  0  0  # atno 17343 bound_to 10162
  156.0860  130.5858  150.9648 LP  0  0  0  0  0  0  0  0  0  0  0  0  # atno 17370 bound_to 10713
  157.6335  131.0918  150.8395 LP  0  0  0  0  0  0  0  0  0  0  0  0  # atno 17371 bound_to 10713
  140.6079  134.0110  155.7564 LP  0  0  0  0  0  0  0  0  0  0  0  0  # atno 17394 bound_to 11000
  141.0971  133.9826  157.3142 LP  0  0  0  0  0  0  0  0  0  0  0  0  # atno 17395 bound_to 11000

$$$$
