AV-unprocessed.smi:230|AV-procd|sdf|1763|dock3
  -GOLD-   2262020293D 1   1.00000     0.00000
 Structure written by MMmdl.
 56 59  0  0  0  0  0  0  0  0  1 V2000
  150.8765  140.0418  154.8112 C   0  0  0  0  0  0  0  0  0  0  0  0
  151.8216  140.2584  156.0010 C   0  0  0  0  0  0  0  0  0  0  0  0
  151.2172  141.1140  157.1454 C   0  0  2  0  0  0  0  0  0  0  0  0
  151.1725  142.6072  156.7489 C   0  0  0  0  0  0  0  0  0  0  0  0
  150.7078  143.4186  157.8246 O   0  0  0  0  0  0  0  0  0  0  0  0
  151.4659  143.3211  159.0315 C   0  0  0  0  0  0  0  0  0  0  0  0
  152.8857  143.9019  158.8568 C   0  0  0  0  0  0  0  0  0  0  0  0
  150.7000  144.1580  160.0679 C   0  0  0  0  0  0  0  0  0  0  0  0
  151.4932  141.8437  159.4695 C   0  0  0  0  0  0  0  0  0  0  0  0
  151.9710  140.9769  158.3977 N   0  0  0  0  0  0  0  0  0  0  0  0
  152.1651  139.7237  158.8693 C   0  0  0  0  0  0  0  0  0  0  0  0
  151.1498  138.8194  158.8542 N   0  0  0  0  0  0  0  0  0  0  0  0
  151.3481  137.5870  159.3322 C   0  0  0  0  0  0  0  0  0  0  0  0
  152.4569  137.0645  159.8617 N   0  0  0  0  0  0  0  0  0  0  0  0
  153.4729  137.9749  159.8830 C   0  0  0  0  0  0  0  0  0  0  0  0
  153.4101  139.3165  159.4151 C   0  0  0  0  0  0  0  0  0  0  0  0
  154.6333  139.9468  159.6016 N   0  0  0  0  0  0  0  0  0  0  0  0
  155.3820  139.0254  160.1446 C   0  0  0  0  0  0  0  0  0  0  0  0
  154.7676  137.8087  160.3427 N   0  0  0  0  0  0  0  0  0  0  0  0
  155.3648  136.6146  160.9206 C   0  0  0  0  0  0  0  0  0  0  0  0
  155.0750  136.4369  162.4318 C   0  0  0  0  0  0  0  0  0  0  0  0
  155.9999  137.2413  163.1440 O   0  0  0  0  0  0  0  0  0  0  0  0
  153.6499  136.9211  162.7671 C   0  0  0  0  0  0  0  0  0  0  0  0
  153.2571  136.6082  164.2224 C   0  0  0  0  0  0  0  0  0  0  0  0
  153.4042  135.2167  164.4778 O   0  0  0  0  0  0  0  0  0  0  0  0
  154.7492  134.7731  164.3476 C   0  0  0  0  0  0  0  0  0  0  0  0
  155.2365  134.9746  162.9017 C   0  0  0  0  0  0  0  0  0  0  0  0
  151.3196  139.3553  154.0897 H   0  0  0  0  0  0  0  0  0  0  0  0
  150.6677  140.9726  154.2843 H   0  0  0  0  0  0  0  0  0  0  0  0
  149.9275  139.6141  155.1355 H   0  0  0  0  0  0  0  0  0  0  0  0
  152.0976  139.2708  156.3701 H   0  0  0  0  0  0  0  0  0  0  0  0
  152.7478  140.7146  155.6496 H   0  0  0  0  0  0  0  0  0  0  0  0
  150.1947  140.7814  157.3317 H   0  0  0  0  0  0  0  0  0  0  0  0
  152.1480  142.9525  156.4063 H   0  0  0  0  0  0  0  0  0  0  0  0
  150.4875  142.7580  155.9152 H   0  0  0  0  0  0  0  0  0  0  0  0
  153.4158  143.9260  159.8093 H   0  0  0  0  0  0  0  0  0  0  0  0
  152.8479  144.9226  158.4752 H   0  0  0  0  0  0  0  0  0  0  0  0
  153.4965  143.3148  158.1716 H   0  0  0  0  0  0  0  0  0  0  0  0
  151.1873  144.1260  161.0430 H   0  0  0  0  0  0  0  0  0  0  0  0
  149.6804  143.7926  160.1961 H   0  0  0  0  0  0  0  0  0  0  0  0
  150.6376  145.2030  159.7625 H   0  0  0  0  0  0  0  0  0  0  0  0
  152.1215  141.7320  160.3551 H   0  0  0  0  0  0  0  0  0  0  0  0
  150.4890  141.5240  159.7535 H   0  0  0  0  0  0  0  0  0  0  0  0
  150.4963  136.9247  159.2834 H   0  0  0  0  0  0  0  0  0  0  0  0
  156.4129  139.2062  160.4124 H   0  0  0  0  0  0  0  0  0  0  0  0
  155.0066  135.7492  160.3610 H   0  0  0  0  0  0  0  0  0  0  0  0
  156.4411  136.6594  160.7497 H   0  0  0  0  0  0  0  0  0  0  0  0
  155.7286  137.2816  164.0483 H   0  0  0  0  0  0  0  0  0  0  0  0
  153.5529  137.9903  162.5746 H   0  0  0  0  0  0  0  0  0  0  0  0
  152.9369  136.4267  162.1058 H   0  0  0  0  0  0  0  0  0  0  0  0
  153.8593  137.1846  164.9263 H   0  0  0  0  0  0  0  0  0  0  0  0
  152.2179  136.8882  164.3956 H   0  0  0  0  0  0  0  0  0  0  0  0
  155.3891  135.3018  165.0558 H   0  0  0  0  0  0  0  0  0  0  0  0
  154.7961  133.7164  164.6114 H   0  0  0  0  0  0  0  0  0  0  0  0
  154.6575  134.3217  162.2474 H   0  0  0  0  0  0  0  0  0  0  0  0
  156.2742  134.6497  162.8177 H   0  0  0  0  0  0  0  0  0  0  0  0
  1  2  1  0  0  0  0
  1 28  1  0  0  0  0
  1 29  1  0  0  0  0
  1 30  1  0  0  0  0
  2  3  1  0  0  0  0
  2 31  1  0  0  0  0
  2 32  1  0  0  0  0
  3 10  1  0  0  0  0
  3  4  1  0  0  0  0
  3 33  1  0  0  0  0
  4  5  1  0  0  0  0
  4 34  1  0  0  0  0
  4 35  1  0  0  0  0
  5  6  1  0  0  0  0
  6  7  1  0  0  0  0
  6  8  1  0  0  0  0
  6  9  1  0  0  0  0
  7 36  1  0  0  0  0
  7 37  1  0  0  0  0
  7 38  1  0  0  0  0
  8 39  1  0  0  0  0
  8 40  1  0  0  0  0
  8 41  1  0  0  0  0
  9 10  1  0  0  0  0
  9 42  1  0  0  0  0
  9 43  1  0  0  0  0
 10 11  1  0  0  0  0
 11 16  1  0  0  0  0
 11 12  2  0  0  0  0
 12 13  1  0  0  0  0
 13 14  2  0  0  0  0
 13 44  1  0  0  0  0
 14 15  1  0  0  0  0
 15 19  1  0  0  0  0
 15 16  2  0  0  0  0
 16 17  1  0  0  0  0
 17 18  2  0  0  0  0
 18 19  1  0  0  0  0
 18 45  1  0  0  0  0
 19 20  1  0  0  0  0
 20 21  1  0  0  0  0
 20 46  1  0  0  0  0
 20 47  1  0  0  0  0
 21 27  1  0  0  0  0
 21 22  1  0  0  0  0
 21 23  1  0  0  0  0
 22 48  1  0  0  0  0
 23 24  1  0  0  0  0
 23 49  1  0  0  0  0
 23 50  1  0  0  0  0
 24 25  1  0  0  0  0
 24 51  1  0  0  0  0
 24 52  1  0  0  0  0
 25 26  1  0  0  0  0
 26 27  1  0  0  0  0
 26 53  1  0  0  0  0
 26 54  1  0  0  0  0
 27 55  1  0  0  0  0
 27 56  1  0  0  0  0
M  END
> <s_m_source_file>
AV-unprocessed.smi

> <i_m_source_file_index>
230

> <i_lp_mmshare_version>
43012

> <i_f3d_flags>
0

> <s_epik_input>
W0NIM11DMShbQ0gzXSlPW0NIMl1bQ0BASF0oW0NIMl1bQ0gzXSlOKFtDSDJdMSljKG5bY0hdbjIpYyhjMjMpbltjSF1uM1tDSDJdQzQoW09IXSlbQ0gyXVtDSDJdT1tDSDJdW0NIMl00

> <s_epik_cmdline>
J2VwaWtfcHl0aG9uJywgJy1waCcsICc3LjAnLCAnLXRuJywgJzgnLCAnLW1hJywgJzIwMCcsICctbWV0YWxfYmluZGluZycsICctaW1hZScsICc8aW5maWxlLm1hZT4nLCAnLW9tYWUnLCAnPG91dGZpbGUubWFlPic=

> <r_lp_tautomer_probability>
1

> <r_epik_Ionization_Penalty>
0.000120535

> <r_epik_Ionization_Penalty_Charging>
0

> <r_epik_Ionization_Penalty_Neutral>
0.000120535

> <r_epik_State_Penalty>
-0

> <r_epik_Charging_Adjusted_Penalty>
0

> <i_epik_Tot_Q>
0

> <i_epik_Tot_abs_Q>
0

> <r_epik_Metal_State_Penalty>
-0

> <b_epik_Metal_Only>
0

> <s_lp_Force_Field>
OPLS_2005

> <r_lp_Energy>
33.8878

> <b_lp_Chiralities_Consistent>
1

> <s_lp_Variant>
AV-unprocessed.smi:230-1

> <Gold.Version>
5.8.1

> <Gold.Id.Protein>
6NUR|6NUR_protein|mol2

> <Gold.PLP.Fitness>
45.9541

> <Gold.PLP.PLP>
-42.6205

> <Gold.PLP.part.hbond>
-2.0000

> <Gold.PLP.part.metal>
0.0000

> <Gold.PLP.part.buried>
-5.8463

> <Gold.PLP.part.nonpolar>
-34.9140

> <Gold.PLP.part.repulsive>
0.2412

> <Gold.PLP.ligand.clash>
0.0000

> <Gold.PLP.ligand.torsion>
1.4132

> <Gold.PLP.Chemscore.Hbond>
2.0000

> <Gold.PLP.Chemscore.CHOScore>
0.0000

> <Gold.PLP.Chemscore.Metal>
0.0000

> <Gold.Chemscore.Hbonds>
donor molecule, donor type, donor heavy atom, donor atom, acceptor molecule, acceptor atom, score
      P1  H  6896  6909       L1    14  0.98
      P1  H  7997  8008       L1    17  0.23

> <Gold.PLP.Chemscore.Internal.Correction>
0.1601

> <Gold.Rescore>
     Score         DG    S(hbond)    S(metal)    S(lipo)     H(rot)  DE(clash)    DE(int)     intcor
     17.26     -18.51       1.61        0.00     113.90       2.21       0.03       1.22       ----

> <Gold.Chemscore.Fitness>
17.2620

> <Gold.Chemscore.DG>
-18.5139

> <Gold.Chemscore.ZeroCoef>
-5.4800

> <Gold.Chemscore.Hbond>
1.6069

> <Gold.Chemscore.Metal>
0.0000

> <Gold.Chemscore.Lipo>
113.9011

> <Gold.Chemscore.Internal_Hbond>
0.0000

> <Gold.Chemscore.DEClash>
0.0337

> <Gold.Chemscore.DEInternal>
1.2181

> <Gold.Chemscore.Rot>
2.2107

> <Gold.Chemscore.Internal.Correction>
   9.000000E+99

> <Gold.Chemscore.Hbonds>
donor molecule, donor type, donor heavy atom, donor atom, acceptor molecule, acceptor atom, score
      P1  H  6896  6909       L1    14  0.24
      P1  H  7997  8008       L1    17  0.02

> <Gold.Chemscore.Hbond.Weighted>
-5.3669

> <Gold.Chemscore.Metal.Weighted>
-0.0000

> <Gold.Chemscore.Lipo.Weighted>
-13.3264

> <Gold.Chemscore.Internal_Hbond.Weighted>
0.0000

> <Gold.Chemscore.DEClash.Weighted>
0.0337

> <Gold.Chemscore.DEInternal.Weighted>
1.2181

> <Gold.Chemscore.Rot.Weighted>
5.6595

> <Gold.Chemscore.Internal.Correction.Weighted>
   9.000000E+99

> <Gold.Protein.RotatedTorsions>
[ 6907 6896 6895 6894 ] final  137.71 input  -60.11 | X-H torsion
[ 7974 7965 7964 7962 ] final   97.14 input  175.53 | X-H torsion
[ 8008 7997 7996 7995 ] final -126.78 input   59.86 | X-H torsion
[ 10167 10162 10161 10158 ] final -170.48 input  -65.29 | X-H torsion
[ 10718 10713 10712 10709 ] final -152.66 input   66.30 | X-H torsion
[ 10763 10752 10751 10750 ] final  -54.02 input  -60.55 | X-H torsion
[ 11005 11000 10999 10996 ] final   91.92 input  -57.11 | X-H torsion

> <Gold.Protein.ActiveResidues>
 VAL166  LYS551  ARG553  GLY616  TRP617  ASP618  TYR619  PRO620  LYS621  CYS622 
 ASP623  PHE694  ASN695  SER759  ASP760  ASP761  ALA762  ILE779  LEU786  VAL792 
 PHE793  MET794  SER795  GLU796  ALA797  LYS798  CYS799  TRP800  GLU811  SER814 

> <Gold.Protein.RotatedAtoms>
  152.2750  133.5417  159.5462 H   0  0  0  0  0  0  0  0  0  0  0  0  # atno 6907 bound_to 6896
  150.7173  134.0644  159.3851 H   0  0  0  0  0  0  0  0  0  0  0  0  # atno 6908 bound_to 6896
  151.8558  135.0542  160.0515 H   0  0  0  0  0  0  0  0  0  0  0  0  # atno 6909 bound_to 6896
  145.4295  139.2312  143.3152 H   0  0  0  0  0  0  0  0  0  0  0  0  # atno 7974 bound_to 7965
  155.2354  140.0426  157.2968 H   0  0  0  0  0  0  0  0  0  0  0  0  # atno 8008 bound_to 7997
  154.5862  140.2414  155.7954 H   0  0  0  0  0  0  0  0  0  0  0  0  # atno 8009 bound_to 7997
  156.2228  140.2964  156.0001 H   0  0  0  0  0  0  0  0  0  0  0  0  # atno 8010 bound_to 7997
  139.5859  144.1320  152.1574 H   0  0  0  0  0  0  0  0  0  0  0  0  # atno 10167 bound_to 10162
  156.4754  130.8278  151.2506 H   0  0  0  0  0  0  0  0  0  0  0  0  # atno 10718 bound_to 10713
  154.1681  135.6463  153.5002 H   0  0  0  0  0  0  0  0  0  0  0  0  # atno 10763 bound_to 10752
  153.0092  135.5377  154.6641 H   0  0  0  0  0  0  0  0  0  0  0  0  # atno 10764 bound_to 10752
  154.5973  135.2940  155.0545 H   0  0  0  0  0  0  0  0  0  0  0  0  # atno 10765 bound_to 10752
  139.8831  134.8702  156.3497 H   0  0  0  0  0  0  0  0  0  0  0  0  # atno 11005 bound_to 11000
  146.2614  140.5030  142.8852 LP  0  0  0  0  0  0  0  0  0  0  0  0  # atno 17320 bound_to 7965
  144.8192  140.6521  143.6364 LP  0  0  0  0  0  0  0  0  0  0  0  0  # atno 17321 bound_to 7965
  140.0883  144.5642  150.7072 LP  0  0  0  0  0  0  0  0  0  0  0  0  # atno 17342 bound_to 10162
  140.7131  143.2521  151.4520 LP  0  0  0  0  0  0  0  0  0  0  0  0  # atno 17343 bound_to 10162
  157.7488  131.0062  150.3144 LP  0  0  0  0  0  0  0  0  0  0  0  0  # atno 17370 bound_to 10713
  156.3575  130.3841  149.7278 LP  0  0  0  0  0  0  0  0  0  0  0  0  # atno 17371 bound_to 10713
  140.9602  133.7393  156.0391 LP  0  0  0  0  0  0  0  0  0  0  0  0  # atno 17394 bound_to 11000
  140.7998  134.3521  157.5442 LP  0  0  0  0  0  0  0  0  0  0  0  0  # atno 17395 bound_to 11000

$$$$
