AV-unprocessed.smi:3065|AV-procd|sdf|11691|dock2
  -GOLD-   2272017 93D 1   1.00000     0.00000
 Structure written by MMmdl.
 24 25  0  0  0  0  0  0  0  0  2 V2000
  150.4410  140.3511  154.2600 C   0  0  0  0  0  0  0  0  0  0  0  0
  149.4333  141.2732  154.2832 N   0  0  0  0  0  0  0  0  0  0  0  0
  149.6864  141.8497  155.4496 C   0  0  0  0  0  0  0  0  0  0  0  0
  150.7536  141.3522  156.0772 N   0  0  0  0  0  0  0  0  0  0  0  0
  151.3268  141.6893  157.3689 C   0  0  0  0  0  0  0  0  0  0  0  0
  151.6172  143.1945  157.5303 C   0  0  2  0  0  0  0  0  0  0  0  0
  152.5399  143.5186  158.7074 C   0  0  0  0  0  0  0  0  0  0  0  0
  152.2078  144.9759  159.0059 C   0  0  0  0  0  0  0  0  0  0  0  0
  150.7041  145.0610  158.7324 C   0  0  0  0  0  0  0  0  0  0  0  0
  150.3919  143.9853  157.7694 N   0  3  0  0  0  0  0  0  0  0  0  0
  151.2559  140.3514  155.3154 N   0  0  0  0  0  0  0  0  0  0  0  0
  150.5765  139.6579  153.4427 H   0  0  0  0  0  0  0  0  0  0  0  0
  149.0821  142.6495  155.8522 H   0  0  0  0  0  0  0  0  0  0  0  0
  150.6444  141.3491  158.1493 H   0  0  0  0  0  0  0  0  0  0  0  0
  152.2481  141.1172  157.4868 H   0  0  0  0  0  0  0  0  0  0  0  0
  152.0813  143.5857  156.6234 H   0  0  0  0  0  0  0  0  0  0  0  0
  152.2911  142.9001  159.5714 H   0  0  0  0  0  0  0  0  0  0  0  0
  153.5940  143.3634  158.4742 H   0  0  0  0  0  0  0  0  0  0  0  0
  152.4712  145.2726  160.0215 H   0  0  0  0  0  0  0  0  0  0  0  0
  152.7481  145.6256  158.3157 H   0  0  0  0  0  0  0  0  0  0  0  0
  150.1398  144.8774  159.6473 H   0  0  0  0  0  0  0  0  0  0  0  0
  150.4109  146.0373  158.3460 H   0  0  0  0  0  0  0  0  0  0  0  0
  150.0556  144.3694  156.8976 H   0  0  0  0  0  0  0  0  0  0  0  0
  149.6822  143.3904  158.1726 H   0  0  0  0  0  0  0  0  0  0  0  0
  1 11  2  0  0  0  0
  1  2  1  0  0  0  0
  1 12  1  0  0  0  0
  2  3  2  0  0  0  0
  3  4  1  0  0  0  0
  3 13  1  0  0  0  0
  4  5  1  0  0  0  0
  4 11  1  0  0  0  0
  5  6  1  0  0  0  0
  5 14  1  0  0  0  0
  5 15  1  0  0  0  0
  6 10  1  0  0  0  0
  6  7  1  0  0  0  0
  6 16  1  0  0  0  0
  7  8  1  0  0  0  0
  7 17  1  0  0  0  0
  7 18  1  0  0  0  0
  8  9  1  0  0  0  0
  8 19  1  0  0  0  0
  8 20  1  0  0  0  0
  9 10  1  0  0  0  0
  9 21  1  0  0  0  0
  9 22  1  0  0  0  0
 10 23  1  0  0  0  0
 10 24  1  0  0  0  0
M  CHG  1  10   1
M  END
> <s_m_source_file>
AV-unprocessed.smi

> <i_m_source_file_index>
3065

> <i_lp_mmshare_version>
43012

> <i_f3d_flags>
0

> <s_epik_input>
bjFbY0hdbltjSF1uMVtDSDJdW0NAQEhdMltDSDJdW0NIMl1bQ0gyXVtOSF0y

> <s_epik_cmdline>
J2VwaWtfcHl0aG9uJywgJy1waCcsICc3LjAnLCAnLXRuJywgJzgnLCAnLW1hJywgJzIwMCcsICctbWV0YWxfYmluZGluZycsICctaW1hZScsICc8aW5maWxlLm1hZT4nLCAnLW9tYWUnLCAnPG91dGZpbGUubWFlPic=

> <r_lp_tautomer_probability>
1

> <r_epik_Ionization_Penalty>
0.000581652

> <r_epik_Ionization_Penalty_Charging>
0.000580891

> <r_epik_Ionization_Penalty_Neutral>
7.60238e-07

> <r_epik_State_Penalty>
0.000365066

> <r_epik_Charging_Adjusted_Penalty>
0.000945958

> <i_epik_Tot_Q>
1

> <i_epik_Tot_abs_Q>
1

> <r_epik_Metal_State_Penalty>
-0

> <b_epik_Metal_Only>
0

> <s_lp_Force_Field>
OPLS_2005

> <r_lp_Energy>
27.3855

> <b_lp_Chiralities_Consistent>
1

> <s_lp_Variant>
AV-unprocessed.smi:3065-1

> <Gold.Version>
5.8.1

> <Gold.Id.Protein>
6NUR|6NUR_protein|mol2

> <Gold.PLP.Fitness>
36.3632

> <Gold.PLP.PLP>
-25.0624

> <Gold.PLP.part.hbond>
-2.3912

> <Gold.PLP.part.metal>
0.0000

> <Gold.PLP.part.buried>
0.3910

> <Gold.PLP.part.nonpolar>
-23.0147

> <Gold.PLP.part.repulsive>
0.2039

> <Gold.PLP.ligand.clash>
0.0000

> <Gold.PLP.ligand.torsion>
0.1858

> <Gold.PLP.Chemscore.Hbond>
2.0000

> <Gold.PLP.Chemscore.CHOScore>
1.8888

> <Gold.PLP.Chemscore.Metal>
0.0000

> <Gold.Chemscore.Hbonds>
donor molecule, donor type, donor heavy atom, donor atom, acceptor molecule, acceptor atom, score
      L1  H    10    23       P1  8028  2.00
      P1  H  8011  8017       L1     2  0.25
      L1  C     1    12       P1  7957  0.87
      L1  C     3    13       P1  8028  1.00

> <Gold.PLP.Chemscore.Internal.Correction>
0.0058

> <Gold.Rescore>
     Score         DG    S(hbond)    S(metal)    S(lipo)     H(rot)  DE(clash)    DE(int)     intcor
     10.63     -10.79       0.70        0.00      58.69       1.52       0.09       0.06       ----

> <Gold.Chemscore.Fitness>
10.6302

> <Gold.Chemscore.DG>
-10.7865

> <Gold.Chemscore.ZeroCoef>
-5.4800

> <Gold.Chemscore.Hbond>
0.7000

> <Gold.Chemscore.Metal>
0.0000

> <Gold.Chemscore.Lipo>
58.6878

> <Gold.Chemscore.Internal_Hbond>
0.0000

> <Gold.Chemscore.DEClash>
0.0936

> <Gold.Chemscore.DEInternal>
0.0626

> <Gold.Chemscore.Rot>
1.5227

> <Gold.Chemscore.Internal.Correction>
   9.000000E+99

> <Gold.Chemscore.Hbonds>
donor molecule, donor type, donor heavy atom, donor atom, acceptor molecule, acceptor atom, score
      L1  H    10    23       P1  8028  0.81
      P1  H  8011  8017       L1     2  0.09

> <Gold.Chemscore.Hbond.Weighted>
-2.3381

> <Gold.Chemscore.Metal.Weighted>
-0.0000

> <Gold.Chemscore.Lipo.Weighted>
-6.8665

> <Gold.Chemscore.Internal_Hbond.Weighted>
0.0000

> <Gold.Chemscore.DEClash.Weighted>
0.0936

> <Gold.Chemscore.DEInternal.Weighted>
0.0626

> <Gold.Chemscore.Rot.Weighted>
3.8981

> <Gold.Chemscore.Internal.Correction.Weighted>
   9.000000E+99

> <Gold.Protein.RotatedTorsions>
[ 6907 6896 6895 6894 ] final   64.09 input  -60.11 | X-H torsion
[ 7974 7965 7964 7962 ] final  140.82 input  175.53 | X-H torsion
[ 8008 7997 7996 7995 ] final    2.87 input   59.86 | X-H torsion
[ 10167 10162 10161 10158 ] final  -37.46 input  -65.29 | X-H torsion
[ 10718 10713 10712 10709 ] final  -87.32 input   66.30 | X-H torsion
[ 10763 10752 10751 10750 ] final   -3.81 input  -60.55 | X-H torsion
[ 11005 11000 10999 10996 ] final  148.96 input  -57.11 | X-H torsion

> <Gold.Protein.ActiveResidues>
 VAL166  LYS551  ARG553  GLY616  TRP617  ASP618  TYR619  PRO620  LYS621  CYS622 
 ASP623  PHE694  ASN695  SER759  ASP760  ASP761  ALA762  ILE779  LEU786  VAL792 
 PHE793  MET794  SER795  GLU796  ALA797  LYS798  CYS799  TRP800  GLU811  SER814 

> <Gold.Protein.RotatedAtoms>
  152.4304  134.5788  159.9941 H   0  0  0  0  0  0  0  0  0  0  0  0  # atno 6907 bound_to 6896
  151.5913  133.3360  159.3036 H   0  0  0  0  0  0  0  0  0  0  0  0  # atno 6908 bound_to 6896
  150.8197  134.7433  159.6826 H   0  0  0  0  0  0  0  0  0  0  0  0  # atno 6909 bound_to 6896
  144.9152  139.5240  143.5690 H   0  0  0  0  0  0  0  0  0  0  0  0  # atno 7974 bound_to 7965
  154.6967  140.2664  155.6759 H   0  0  0  0  0  0  0  0  0  0  0  0  # atno 8008 bound_to 7997
  156.2751  140.2780  156.1488 H   0  0  0  0  0  0  0  0  0  0  0  0  # atno 8009 bound_to 7997
  155.0821  140.0372  157.2632 H   0  0  0  0  0  0  0  0  0  0  0  0  # atno 8010 bound_to 7997
  140.7118  143.3341  151.2503 H   0  0  0  0  0  0  0  0  0  0  0  0  # atno 10167 bound_to 10162
  155.9986  130.4796  150.4849 H   0  0  0  0  0  0  0  0  0  0  0  0  # atno 10718 bound_to 10713
  153.3763  135.6996  153.6599 H   0  0  0  0  0  0  0  0  0  0  0  0  # atno 10763 bound_to 10752
  153.5229  135.3608  155.2640 H   0  0  0  0  0  0  0  0  0  0  0  0  # atno 10764 bound_to 10752
  154.8687  135.4162  154.3052 H   0  0  0  0  0  0  0  0  0  0  0  0  # atno 10765 bound_to 10752
  140.1004  134.8987  157.1787 H   0  0  0  0  0  0  0  0  0  0  0  0  # atno 11005 bound_to 11000
  146.3178  139.7988  142.8970 LP  0  0  0  0  0  0  0  0  0  0  0  0  # atno 17320 bound_to 7965
  145.3388  141.0283  143.3404 LP  0  0  0  0  0  0  0  0  0  0  0  0  # atno 17321 bound_to 7965
  139.6831  143.9820  152.2819 LP  0  0  0  0  0  0  0  0  0  0  0  0  # atno 17342 bound_to 10162
  139.9457  144.6653  150.8222 LP  0  0  0  0  0  0  0  0  0  0  0  0  # atno 17343 bound_to 10162
  157.2850  131.0614  151.2172 LP  0  0  0  0  0  0  0  0  0  0  0  0  # atno 17370 bound_to 10713
  157.3205  130.6935  149.6266 LP  0  0  0  0  0  0  0  0  0  0  0  0  # atno 17371 bound_to 10713
  140.3228  134.2897  155.7243 LP  0  0  0  0  0  0  0  0  0  0  0  0  # atno 17394 bound_to 11000
  141.2104  133.7721  156.9935 LP  0  0  0  0  0  0  0  0  0  0  0  0  # atno 17395 bound_to 11000

$$$$
