AV-unprocessed.smi:2089|AV-procd|sdf|8529|dock9
  -GOLD-   2272011253D 1   1.00000     0.00000
 Structure written by MMmdl.
 39 40  0  0  0  0  0  0  0  0  1 V2000
  147.4472  142.0200  156.6405 C   0  0  0  0  0  0  0  0  0  0  0  0
  148.1036  141.1880  155.1373 S   0  0  0  0  0  0  0  0  0  0  0  0
  147.0960  140.2466  154.6257 O   0  0  0  0  0  0  0  0  0  0  0  0
  148.6591  142.2205  154.2489 O   0  0  0  0  0  0  0  0  0  0  0  0
  149.4266  140.2574  155.7581 N   0  0  0  0  0  0  0  0  0  0  0  0
  149.5768  138.8699  155.2977 C   0  0  0  0  0  0  0  0  0  0  0  0
  150.9781  138.7839  154.7021 C   0  0  0  0  0  0  0  0  0  0  0  0
  151.7664  139.7783  155.5399 C   0  0  0  0  0  0  0  0  0  0  0  0
  150.7516  140.9003  155.8167 C   0  0  2  0  0  0  0  0  0  0  0  0
  151.0166  141.6370  157.1357 C   0  0  0  0  0  0  0  0  0  0  0  0
  151.8147  141.1809  157.9552 O   0  0  0  0  0  0  0  0  0  0  0  0
  150.3228  142.7660  157.3391 N   0  0  0  0  0  0  0  0  0  0  0  0
  150.4181  143.5833  158.5401 C   0  0  0  0  0  0  0  0  0  0  0  0
  151.8646  144.0395  158.7748 C   0  0  0  0  0  0  0  0  0  0  0  0
  152.4810  143.3794  159.9935 C   0  0  0  0  0  0  0  0  0  0  0  0
  152.1089  143.7781  161.2951 C   0  0  0  0  0  0  0  0  0  0  0  0
  152.7015  143.1233  162.3922 C   0  0  0  0  0  0  0  0  0  0  0  0
  153.6372  142.0998  162.1470 C   0  0  0  0  0  0  0  0  0  0  0  0
  153.9410  141.7762  160.8097 C   0  0  0  0  0  0  0  0  0  0  0  0
  153.3790  142.3980  159.7506 N   0  0  0  0  0  0  0  0  0  0  0  0
  146.6217  142.6738  156.3597 H   0  0  0  0  0  0  0  0  0  0  0  0
  148.2368  142.6124  157.1022 H   0  0  0  0  0  0  0  0  0  0  0  0
  147.0897  141.2747  157.3505 H   0  0  0  0  0  0  0  0  0  0  0  0
  149.4833  138.2059  156.1576 H   0  0  0  0  0  0  0  0  0  0  0  0
  148.8097  138.5957  154.5732 H   0  0  0  0  0  0  0  0  0  0  0  0
  151.3924  137.7761  154.7365 H   0  0  0  0  0  0  0  0  0  0  0  0
  150.9591  139.1078  153.6607 H   0  0  0  0  0  0  0  0  0  0  0  0
  152.0989  139.2950  156.4601 H   0  0  0  0  0  0  0  0  0  0  0  0
  152.6521  140.1399  155.0165 H   0  0  0  0  0  0  0  0  0  0  0  0
  150.8110  141.6112  154.9899 H   0  0  0  0  0  0  0  0  0  0  0  0
  149.6749  143.0665  156.6252 H   0  0  0  0  0  0  0  0  0  0  0  0
  149.7647  144.4510  158.4360 H   0  0  0  0  0  0  0  0  0  0  0  0
  150.0621  143.0108  159.3983 H   0  0  0  0  0  0  0  0  0  0  0  0
  152.4765  143.8096  157.9012 H   0  0  0  0  0  0  0  0  0  0  0  0
  151.8992  145.1229  158.8973 H   0  0  0  0  0  0  0  0  0  0  0  0
  151.3844  144.5639  161.4510 H   0  0  0  0  0  0  0  0  0  0  0  0
  152.4419  143.3997  163.4034 H   0  0  0  0  0  0  0  0  0  0  0  0
  154.1101  141.5748  162.9636 H   0  0  0  0  0  0  0  0  0  0  0  0
  154.6534  140.9964  160.5845 H   0  0  0  0  0  0  0  0  0  0  0  0
  1  2  1  0  0  0  0
  1 21  1  0  0  0  0
  1 22  1  0  0  0  0
  1 23  1  0  0  0  0
  2  3  2  0  0  0  0
  2  4  2  0  0  0  0
  2  5  1  0  0  0  0
  5  9  1  0  0  0  0
  5  6  1  0  0  0  0
  6  7  1  0  0  0  0
  6 24  1  0  0  0  0
  6 25  1  0  0  0  0
  7  8  1  0  0  0  0
  7 26  1  0  0  0  0
  7 27  1  0  0  0  0
  8  9  1  0  0  0  0
  8 28  1  0  0  0  0
  8 29  1  0  0  0  0
  9 10  1  0  0  0  0
  9 30  1  0  0  0  0
 10 11  2  0  0  0  0
 10 12  1  0  0  0  0
 12 13  1  0  0  0  0
 12 31  1  0  0  0  0
 13 14  1  0  0  0  0
 13 32  1  0  0  0  0
 13 33  1  0  0  0  0
 14 15  1  0  0  0  0
 14 34  1  0  0  0  0
 14 35  1  0  0  0  0
 15 20  1  0  0  0  0
 15 16  2  0  0  0  0
 16 17  1  0  0  0  0
 16 36  1  0  0  0  0
 17 18  2  0  0  0  0
 17 37  1  0  0  0  0
 18 19  1  0  0  0  0
 18 38  1  0  0  0  0
 19 20  2  0  0  0  0
 19 39  1  0  0  0  0
M  END
> <s_m_source_file>
AV-unprocessed.smi

> <i_m_source_file_index>
2089

> <i_lp_mmshare_version>
43012

> <i_f3d_flags>
0

> <s_epik_input>
W0NIM11TKD1PKSg9TylOMVtDSDJdW0NIMl1bQ0gyXVtDQEhdMUMoPU8pW05IXVtDSDJdW0NIMl1jMltjSF1bY0hdW2NIXVtjSF1uMg==

> <s_epik_cmdline>
J2VwaWtfcHl0aG9uJywgJy1waCcsICc3LjAnLCAnLXRuJywgJzgnLCAnLW1hJywgJzIwMCcsICctbWV0YWxfYmluZGluZycsICctaW1hZScsICc8aW5maWxlLm1hZT4nLCAnLW9tYWUnLCAnPG91dGZpbGUubWFlPic=

> <r_epik_Ionization_Penalty>
0.0244371

> <r_epik_Ionization_Penalty_Charging>
0

> <r_epik_Ionization_Penalty_Neutral>
0.0244371

> <r_epik_State_Penalty>
0.0198365

> <r_epik_Charging_Adjusted_Penalty>
0.0198365

> <i_epik_Tot_Q>
0

> <i_epik_Tot_abs_Q>
0

> <r_epik_Metal_State_Penalty>
0.0190441

> <b_epik_Metal_Only>
0

> <s_lp_Force_Field>
OPLS_2005

> <r_lp_Energy>
5.6995

> <b_lp_Chiralities_Consistent>
1

> <s_lp_Variant>
AV-unprocessed.smi:2089-2

> <Gold.Version>
5.8.1

> <Gold.Id.Protein>
6NUR|6NUR_protein|mol2

> <Gold.PLP.Fitness>
45.0193

> <Gold.PLP.PLP>
-44.5402

> <Gold.PLP.part.hbond>
-2.0000

> <Gold.PLP.part.metal>
0.0000

> <Gold.PLP.part.buried>
-3.5952

> <Gold.PLP.part.nonpolar>
-37.7759

> <Gold.PLP.part.repulsive>
1.0465

> <Gold.PLP.ligand.clash>
0.0000

> <Gold.PLP.ligand.torsion>
1.6009

> <Gold.PLP.Chemscore.Hbond>
1.0837

> <Gold.PLP.Chemscore.CHOScore>
0.0000

> <Gold.PLP.Chemscore.Metal>
0.0000

> <Gold.Chemscore.Hbonds>
donor molecule, donor type, donor heavy atom, donor atom, acceptor molecule, acceptor atom, score
      L1  H    12    31       P1  8028  0.80
      P1  H  8011  8017       L1     4  0.14

> <Gold.PLP.Chemscore.Internal.Correction>
0.4300

> <Gold.Rescore>
     Score         DG    S(hbond)    S(metal)    S(lipo)     H(rot)  DE(clash)    DE(int)     intcor
     14.77     -17.31       1.08        0.00     111.76       1.90       0.08       2.46       ----

> <Gold.Chemscore.Fitness>
14.7737

> <Gold.Chemscore.DG>
-17.3138

> <Gold.Chemscore.ZeroCoef>
-5.4800

> <Gold.Chemscore.Hbond>
1.0837

> <Gold.Chemscore.Metal>
0.0000

> <Gold.Chemscore.Lipo>
111.7574

> <Gold.Chemscore.Internal_Hbond>
0.0000

> <Gold.Chemscore.DEClash>
0.0825

> <Gold.Chemscore.DEInternal>
2.4577

> <Gold.Chemscore.Rot>
1.8990

> <Gold.Chemscore.Internal.Correction>
   9.000000E+99

> <Gold.Chemscore.Hbonds>
donor molecule, donor type, donor heavy atom, donor atom, acceptor molecule, acceptor atom, score
      L1  H    12    31       P1  8028  0.75
      P1  H  8011  8017       L1     4  0.15

> <Gold.Chemscore.Hbond.Weighted>
-3.6196

> <Gold.Chemscore.Metal.Weighted>
-0.0000

> <Gold.Chemscore.Lipo.Weighted>
-13.0756

> <Gold.Chemscore.Internal_Hbond.Weighted>
0.0000

> <Gold.Chemscore.DEClash.Weighted>
0.0825

> <Gold.Chemscore.DEInternal.Weighted>
2.4577

> <Gold.Chemscore.Rot.Weighted>
4.8613

> <Gold.Chemscore.Internal.Correction.Weighted>
   9.000000E+99

> <Gold.Protein.RotatedTorsions>
[ 6907 6896 6895 6894 ] final  -30.71 input  -60.11 | X-H torsion
[ 7974 7965 7964 7962 ] final  126.90 input  175.53 | X-H torsion
[ 8008 7997 7996 7995 ] final -153.88 input   59.86 | X-H torsion
[ 10167 10162 10161 10158 ] final  174.84 input  -65.29 | X-H torsion
[ 10718 10713 10712 10709 ] final  -23.96 input   66.30 | X-H torsion
[ 10763 10752 10751 10750 ] final   28.04 input  -60.55 | X-H torsion
[ 11005 11000 10999 10996 ] final  108.61 input  -57.11 | X-H torsion

> <Gold.Protein.ActiveResidues>
 VAL166  LYS551  ARG553  GLY616  TRP617  ASP618  TYR619  PRO620  LYS621  CYS622 
 ASP623  PHE694  ASN695  SER759  ASP760  ASP761  ALA762  ILE779  LEU786  VAL792 
 PHE793  MET794  SER795  GLU796  ALA797  LYS798  CYS799  TRP800  GLU811  SER814 

> <Gold.Protein.RotatedAtoms>
  151.1019  134.9977  159.8452 H   0  0  0  0  0  0  0  0  0  0  0  0  # atno 6907 bound_to 6896
  152.5437  134.1940  159.8695 H   0  0  0  0  0  0  0  0  0  0  0  0  # atno 6908 bound_to 6896
  151.1983  133.4581  159.2629 H   0  0  0  0  0  0  0  0  0  0  0  0  # atno 6909 bound_to 6896
  145.0566  139.3839  143.5027 H   0  0  0  0  0  0  0  0  0  0  0  0  # atno 7974 bound_to 7965
  155.6777  140.0740  157.2496 H   0  0  0  0  0  0  0  0  0  0  0  0  # atno 8008 bound_to 7997
  154.4111  140.1687  156.2000 H   0  0  0  0  0  0  0  0  0  0  0  0  # atno 8009 bound_to 7997
  155.9562  140.3373  155.6453 H   0  0  0  0  0  0  0  0  0  0  0  0  # atno 8010 bound_to 7997
  139.5156  144.3100  152.0300 H   0  0  0  0  0  0  0  0  0  0  0  0  # atno 10167 bound_to 10162
  156.4841  130.4551  149.6794 H   0  0  0  0  0  0  0  0  0  0  0  0  # atno 10718 bound_to 10713
  153.0517  135.6523  154.0677 H   0  0  0  0  0  0  0  0  0  0  0  0  # atno 10763 bound_to 10752
  154.0364  135.2907  155.3363 H   0  0  0  0  0  0  0  0  0  0  0  0  # atno 10764 bound_to 10752
  154.6809  135.5320  153.8329 H   0  0  0  0  0  0  0  0  0  0  0  0  # atno 10765 bound_to 10752
  139.8847  134.9435  156.5999 H   0  0  0  0  0  0  0  0  0  0  0  0  # atno 11005 bound_to 11000
  146.3521  140.0243  142.8656 LP  0  0  0  0  0  0  0  0  0  0  0  0  # atno 17320 bound_to 7965
  145.1461  140.9598  143.4460 LP  0  0  0  0  0  0  0  0  0  0  0  0  # atno 17321 bound_to 7965
  140.2545  144.4134  150.6209 LP  0  0  0  0  0  0  0  0  0  0  0  0  # atno 17342 bound_to 10162
  140.6201  143.2175  151.6711 LP  0  0  0  0  0  0  0  0  0  0  0  0  # atno 17343 bound_to 10162
  156.3492  130.7423  151.2380 LP  0  0  0  0  0  0  0  0  0  0  0  0  # atno 17370 bound_to 10713
  157.7480  131.0382  150.4491 LP  0  0  0  0  0  0  0  0  0  0  0  0  # atno 17371 bound_to 10713
  140.7891  133.8597  155.8631 LP  0  0  0  0  0  0  0  0  0  0  0  0  # atno 17394 bound_to 11000
  140.9693  134.1553  157.4590 LP  0  0  0  0  0  0  0  0  0  0  0  0  # atno 17395 bound_to 11000

$$$$
