AV-unprocessed.smi:170|AV-procd|sdf|1406|dock10
  -GOLD-   2262019163D 1   1.00000     0.00000
 Structure written by MMmdl.
 57 61  0  0  0  0  0  0  0  0  1 V2000
  147.7422  136.7772  153.8873 O   0  0  0  0  0  0  0  0  0  0  0  0
  148.4565  137.6486  154.7437 C   0  0  2  0  0  0  0  0  0  0  0  0
  148.3911  137.1103  156.1865 C   0  0  0  0  0  0  0  0  0  0  0  0
  149.4187  137.6771  157.0424 N   0  0  0  0  0  0  0  0  0  0  0  0
  149.4611  137.6398  158.4174 C   0  0  0  0  0  0  0  0  0  0  0  0
  150.4920  138.2308  158.9572 N   0  0  0  0  0  0  0  0  0  0  0  0
  151.2132  138.7152  157.8720 C   0  0  0  0  0  0  0  0  0  0  0  0
  152.4217  139.4554  157.7258 C   0  0  0  0  0  0  0  0  0  0  0  0
  153.1915  139.8990  158.7457 N   0  0  0  0  0  0  0  0  0  0  0  0
  153.7882  138.7824  159.4687 C   0  0  0  0  0  0  0  0  0  0  0  0
  154.8115  139.2980  160.4894 C   0  0  0  0  0  0  0  0  0  0  0  0
  154.1710  140.2187  161.3623 O   0  0  0  0  0  0  0  0  0  0  0  0
  153.6715  141.3543  160.6645 C   0  0  0  0  0  0  0  0  0  0  0  0
  152.6128  140.9267  159.6208 C   0  0  1  0  0  0  0  0  0  0  0  0
  152.0747  142.1446  158.8237 C   0  0  0  0  0  0  0  0  0  0  0  0
  151.2141  143.1109  159.6412 C   0  0  0  0  0  0  0  0  0  0  0  0
  150.7506  144.4306  159.0000 C   0  0  0  0  0  0  0  0  0  0  0  0
  151.8985  145.1370  159.7233 C   0  0  0  0  0  0  0  0  0  0  0  0
  151.9045  143.9698  160.7128 C   0  0  0  0  0  0  0  0  0  0  0  0
  152.8424  139.7437  156.4697 N   0  0  0  0  0  0  0  0  0  0  0  0
  152.1197  139.3514  155.4161 C   0  0  0  0  0  0  0  0  0  0  0  0
  150.9708  138.6719  155.3969 N   0  0  0  0  0  0  0  0  0  0  0  0
  150.5528  138.3698  156.6596 C   0  0  0  0  0  0  0  0  0  0  0  0
  147.8996  139.0837  154.6382 C   0  0  2  0  0  0  0  0  0  0  0  0
  147.5604  139.6042  153.2375 C   0  0  0  0  0  0  0  0  0  0  0  0
  147.6372  141.0986  153.4551 C   0  0  0  0  0  0  0  0  0  0  0  0
  148.8210  141.2143  154.4125 C   0  0  0  0  0  0  0  0  0  0  0  0
  148.8022  140.0295  155.2054 O   0  0  0  0  0  0  0  0  0  0  0  0
  148.3196  136.5089  153.1887 H   0  0  0  0  0  0  0  0  0  0  0  0
  149.4986  137.6561  154.4216 H   0  0  0  0  0  0  0  0  0  0  0  0
  147.4204  137.3351  156.6301 H   0  0  0  0  0  0  0  0  0  0  0  0
  148.4925  136.0243  156.1943 H   0  0  0  0  0  0  0  0  0  0  0  0
  148.6994  137.1558  159.0114 H   0  0  0  0  0  0  0  0  0  0  0  0
  153.0061  138.2178  159.9789 H   0  0  0  0  0  0  0  0  0  0  0  0
  154.2760  138.0998  158.7713 H   0  0  0  0  0  0  0  0  0  0  0  0
  155.2104  138.4697  161.0752 H   0  0  0  0  0  0  0  0  0  0  0  0
  155.6565  139.7748  159.9902 H   0  0  0  0  0  0  0  0  0  0  0  0
  153.2377  142.0276  161.4028 H   0  0  0  0  0  0  0  0  0  0  0  0
  154.4953  141.8900  160.1894 H   0  0  0  0  0  0  0  0  0  0  0  0
  151.7877  140.4721  160.1678 H   0  0  0  0  0  0  0  0  0  0  0  0
  152.9159  142.6850  158.3885 H   0  0  0  0  0  0  0  0  0  0  0  0
  151.4832  141.8022  157.9749 H   0  0  0  0  0  0  0  0  0  0  0  0
  150.3642  142.5974  160.0911 H   0  0  0  0  0  0  0  0  0  0  0  0
  150.8154  144.4721  157.9126 H   0  0  0  0  0  0  0  0  0  0  0  0
  149.7694  144.7509  159.3546 H   0  0  0  0  0  0  0  0  0  0  0  0
  152.8079  145.1887  159.1223 H   0  0  0  0  0  0  0  0  0  0  0  0
  151.6412  146.1039  160.1563 H   0  0  0  0  0  0  0  0  0  0  0  0
  151.2713  144.1524  161.5827 H   0  0  0  0  0  0  0  0  0  0  0  0
  152.8986  143.6295  161.0047 H   0  0  0  0  0  0  0  0  0  0  0  0
  152.5176  139.6243  154.4498 H   0  0  0  0  0  0  0  0  0  0  0  0
  146.9974  139.1491  155.2489 H   0  0  0  0  0  0  0  0  0  0  0  0
  148.3065  139.3055  152.5008 H   0  0  0  0  0  0  0  0  0  0  0  0
  146.5827  139.2735  152.8861 H   0  0  0  0  0  0  0  0  0  0  0  0
  147.7786  141.6620  152.5323 H   0  0  0  0  0  0  0  0  0  0  0  0
  146.7259  141.4541  153.9381 H   0  0  0  0  0  0  0  0  0  0  0  0
  149.7575  141.2399  153.8545 H   0  0  0  0  0  0  0  0  0  0  0  0
  148.7712  142.1108  155.0306 H   0  0  0  0  0  0  0  0  0  0  0  0
  1  2  1  0  0  0  0
  1 29  1  0  0  0  0
  2  3  1  0  0  0  0
  2 24  1  0  0  0  0
  2 30  1  0  0  0  0
  3  4  1  0  0  0  0
  3 31  1  0  0  0  0
  3 32  1  0  0  0  0
  4 23  1  0  0  0  0
  4  5  1  0  0  0  0
  5  6  2  0  0  0  0
  5 33  1  0  0  0  0
  6  7  1  0  0  0  0
  7 23  2  0  0  0  0
  7  8  1  0  0  0  0
  8  9  1  0  0  0  0
  8 20  2  0  0  0  0
  9 14  1  0  0  0  0
  9 10  1  0  0  0  0
 10 11  1  0  0  0  0
 10 34  1  0  0  0  0
 10 35  1  0  0  0  0
 11 12  1  0  0  0  0
 11 36  1  0  0  0  0
 11 37  1  0  0  0  0
 12 13  1  0  0  0  0
 13 14  1  0  0  0  0
 13 38  1  0  0  0  0
 13 39  1  0  0  0  0
 14 15  1  0  0  0  0
 14 40  1  0  0  0  0
 15 16  1  0  0  0  0
 15 41  1  0  0  0  0
 15 42  1  0  0  0  0
 16 19  1  0  0  0  0
 16 17  1  0  0  0  0
 16 43  1  0  0  0  0
 17 18  1  0  0  0  0
 17 44  1  0  0  0  0
 17 45  1  0  0  0  0
 18 19  1  0  0  0  0
 18 46  1  0  0  0  0
 18 47  1  0  0  0  0
 19 48  1  0  0  0  0
 19 49  1  0  0  0  0
 20 21  1  0  0  0  0
 21 22  2  0  0  0  0
 21 50  1  0  0  0  0
 22 23  1  0  0  0  0
 24 28  1  0  0  0  0
 24 25  1  0  0  0  0
 24 51  1  0  0  0  0
 25 26  1  0  0  0  0
 25 52  1  0  0  0  0
 25 53  1  0  0  0  0
 26 27  1  0  0  0  0
 26 54  1  0  0  0  0
 26 55  1  0  0  0  0
 27 28  1  0  0  0  0
 27 56  1  0  0  0  0
 27 57  1  0  0  0  0
M  END
> <s_m_source_file>
AV-unprocessed.smi

> <i_m_source_file_index>
170

> <i_lp_mmshare_version>
43012

> <i_f3d_flags>
0

> <s_epik_input>
TzFbQ0gyXVtDSDJdW0NIMl1bQ0BIXTFbQ0BIXShbT0hdKVtDSDJdbihbY0hdbjIpYyhjMjMpbltjSF1uYzNONFtDSDJdW0NIMl1PW0NIMl1bQ0BIXTRbQ0gyXVtDSF01W0NIMl1bQ0gyXVtDSDJdNQ==

> <s_epik_cmdline>
J2VwaWtfcHl0aG9uJywgJy1waCcsICc3LjAnLCAnLXRuJywgJzgnLCAnLW1hJywgJzIwMCcsICctbWV0YWxfYmluZGluZycsICctaW1hZScsICc8aW5maWxlLm1hZT4nLCAnLW9tYWUnLCAnPG91dGZpbGUubWFlPic=

> <r_lp_tautomer_probability>
1

> <r_epik_Ionization_Penalty>
4.98275e-05

> <r_epik_Ionization_Penalty_Charging>
0

> <r_epik_Ionization_Penalty_Neutral>
4.98275e-05

> <r_epik_State_Penalty>
-0

> <r_epik_Charging_Adjusted_Penalty>
0

> <i_epik_Tot_Q>
0

> <i_epik_Tot_abs_Q>
0

> <r_epik_Metal_State_Penalty>
-0

> <b_epik_Metal_Only>
0

> <s_lp_Force_Field>
OPLS_2005

> <r_lp_Energy>
54.7181

> <b_lp_Chiralities_Consistent>
1

> <s_lp_Variant>
AV-unprocessed.smi:170-1

> <Gold.Version>
5.8.1

> <Gold.Id.Protein>
6NUR|6NUR_protein|mol2

> <Gold.PLP.Fitness>
50.2172

> <Gold.PLP.PLP>
-45.3687

> <Gold.PLP.part.hbond>
-3.7274

> <Gold.PLP.part.metal>
0.0000

> <Gold.PLP.part.buried>
-5.3919

> <Gold.PLP.part.nonpolar>
-36.2120

> <Gold.PLP.part.repulsive>
0.0727

> <Gold.PLP.ligand.clash>
0.0000

> <Gold.PLP.ligand.torsion>
0.7299

> <Gold.PLP.Chemscore.Hbond>
2.0000

> <Gold.PLP.Chemscore.CHOScore>
0.0000

> <Gold.PLP.Chemscore.Metal>
0.0000

> <Gold.Chemscore.Hbonds>
donor molecule, donor type, donor heavy atom, donor atom, acceptor molecule, acceptor atom, score
      L1  H     1    29       P1  7948  0.91
      P1  H  7997  8009       L1    20  1.00

> <Gold.PLP.Chemscore.Internal.Correction>
0.3083

> <Gold.Rescore>
     Score         DG    S(hbond)    S(metal)    S(lipo)     H(rot)  DE(clash)    DE(int)     intcor
     16.90     -19.33       1.92        0.00     120.85       2.61       0.03       2.40       ----

> <Gold.Chemscore.Fitness>
16.9020

> <Gold.Chemscore.DG>
-19.3319

> <Gold.Chemscore.ZeroCoef>
-5.4800

> <Gold.Chemscore.Hbond>
1.9177

> <Gold.Chemscore.Metal>
0.0000

> <Gold.Chemscore.Lipo>
120.8516

> <Gold.Chemscore.Internal_Hbond>
0.0000

> <Gold.Chemscore.DEClash>
0.0251

> <Gold.Chemscore.DEInternal>
2.4049

> <Gold.Chemscore.Rot>
2.6144

> <Gold.Chemscore.Internal.Correction>
   9.000000E+99

> <Gold.Chemscore.Hbonds>
donor molecule, donor type, donor heavy atom, donor atom, acceptor molecule, acceptor atom, score
      L1  H     1    29       P1  7948  0.87
      P1  H  7997  8009       L1    20  0.79

> <Gold.Chemscore.Hbond.Weighted>
-6.4053

> <Gold.Chemscore.Metal.Weighted>
-0.0000

> <Gold.Chemscore.Lipo.Weighted>
-14.1396

> <Gold.Chemscore.Internal_Hbond.Weighted>
0.0000

> <Gold.Chemscore.DEClash.Weighted>
0.0251

> <Gold.Chemscore.DEInternal.Weighted>
2.4049

> <Gold.Chemscore.Rot.Weighted>
6.6929

> <Gold.Chemscore.Internal.Correction.Weighted>
   9.000000E+99

> <Gold.Protein.RotatedTorsions>
[ 6907 6896 6895 6894 ] final  174.92 input  -60.11 | X-H torsion
[ 7974 7965 7964 7962 ] final -102.95 input  175.53 | X-H torsion
[ 8008 7997 7996 7995 ] final -166.60 input   59.86 | X-H torsion
[ 10167 10162 10161 10158 ] final  -17.67 input  -65.29 | X-H torsion
[ 10718 10713 10712 10709 ] final   80.88 input   66.30 | X-H torsion
[ 10763 10752 10751 10750 ] final  -13.03 input  -60.55 | X-H torsion
[ 11005 11000 10999 10996 ] final    7.04 input  -57.11 | X-H torsion

> <Gold.Protein.ActiveResidues>
 VAL166  LYS551  ARG553  GLY616  TRP617  ASP618  TYR619  PRO620  LYS621  CYS622 
 ASP623  PHE694  ASN695  SER759  ASP760  ASP761  ALA762  ILE779  LEU786  VAL792 
 PHE793  MET794  SER795  GLU796  ALA797  LYS798  CYS799  TRP800  GLU811  SER814 

> <Gold.Protein.RotatedAtoms>
  151.7446  133.3324  159.3374 H   0  0  0  0  0  0  0  0  0  0  0  0  # atno 6907 bound_to 6896
  150.7559  134.6247  159.6164 H   0  0  0  0  0  0  0  0  0  0  0  0  # atno 6908 bound_to 6896
  152.3508  134.7010  160.0288 H   0  0  0  0  0  0  0  0  0  0  0  0  # atno 6909 bound_to 6896
  145.2622  140.9273  143.3034 H   0  0  0  0  0  0  0  0  0  0  0  0  # atno 7974 bound_to 7965
  155.8661  140.0986  157.1581 H   0  0  0  0  0  0  0  0  0  0  0  0  # atno 8008 bound_to 7997
  154.3993  140.1356  156.4083 H   0  0  0  0  0  0  0  0  0  0  0  0  # atno 8009 bound_to 7997
  155.7803  140.3458  155.5296 H   0  0  0  0  0  0  0  0  0  0  0  0  # atno 8010 bound_to 7997
  140.7250  143.4993  150.9890 H   0  0  0  0  0  0  0  0  0  0  0  0  # atno 10167 bound_to 10162
  157.6818  130.9979  150.2144 H   0  0  0  0  0  0  0  0  0  0  0  0  # atno 10718 bound_to 10713
  153.5072  135.7016  153.5800 H   0  0  0  0  0  0  0  0  0  0  0  0  # atno 10763 bound_to 10752
  153.3906  135.3897  155.1920 H   0  0  0  0  0  0  0  0  0  0  0  0  # atno 10764 bound_to 10752
  154.8706  135.3857  154.4548 H   0  0  0  0  0  0  0  0  0  0  0  0  # atno 10765 bound_to 10752
  140.5527  134.0267  155.7943 H   0  0  0  0  0  0  0  0  0  0  0  0  # atno 11005 bound_to 11000
  144.9408  139.4191  143.6450 LP  0  0  0  0  0  0  0  0  0  0  0  0  # atno 17320 bound_to 7965
  146.3272  139.8367  142.8898 LP  0  0  0  0  0  0  0  0  0  0  0  0  # atno 17321 bound_to 7965
  139.8701  143.7203  152.3167 LP  0  0  0  0  0  0  0  0  0  0  0  0  # atno 17342 bound_to 10162
  139.7449  144.7550  151.0595 LP  0  0  0  0  0  0  0  0  0  0  0  0  # atno 17343 bound_to 10162
  156.2809  130.3733  149.7937 LP  0  0  0  0  0  0  0  0  0  0  0  0  # atno 17370 bound_to 10713
  156.5625  130.8390  151.3333 LP  0  0  0  0  0  0  0  0  0  0  0  0  # atno 17371 bound_to 10713
  141.1162  133.9537  157.2818 LP  0  0  0  0  0  0  0  0  0  0  0  0  # atno 17394 bound_to 11000
  139.9447  135.0186  156.8815 LP  0  0  0  0  0  0  0  0  0  0  0  0  # atno 17395 bound_to 11000

$$$$
