AV-unprocessed.smi:2519|AV-procd|sdf|9904|dock3
  -GOLD-   2272013543D 1   1.00000     0.00000
 Structure written by MMmdl.
 43 44  0  0  0  0  0  0  0  0  1 V2000
  151.3715  143.1294  157.2527 C   0  0  0  0  0  0  0  0  0  0  0  0
  150.3390  142.5875  156.3835 N   0  0  0  0  0  0  0  0  0  0  0  0
  150.3575  141.3513  155.8585 C   0  0  0  0  0  0  0  0  0  0  0  0
  151.2695  140.5489  156.0641 O   0  0  0  0  0  0  0  0  0  0  0  0
  149.1949  140.9946  154.9689 C   0  0  0  0  0  0  0  0  0  0  0  0
  148.2922  141.9964  154.5477 C   0  0  0  0  0  0  0  0  0  0  0  0
  147.2209  141.6335  153.7125 C   0  0  0  0  0  0  0  0  0  0  0  0
  147.0849  140.2875  153.3260 C   0  0  0  0  0  0  0  0  0  0  0  0
  148.0237  139.3390  153.7849 C   0  0  0  0  0  0  0  0  0  0  0  0
  147.7996  138.0073  153.3478 N   0  0  0  0  0  0  0  0  0  0  0  0
  146.6343  137.4265  152.9976 C   0  0  0  0  0  0  0  0  0  0  0  0
  145.5351  137.9763  153.0459 O   0  0  0  0  0  0  0  0  0  0  0  0
  146.7563  136.1553  152.5719 N   0  0  0  0  0  0  0  0  0  0  0  0
  145.7060  135.2398  152.1202 C   0  0  1  0  0  0  0  0  0  0  0  0
  145.1270  135.7476  150.7875 C   0  0  0  0  0  0  0  0  0  0  0  0
  144.0558  134.7914  150.2426 C   0  0  0  0  0  0  0  0  0  0  0  0
  144.6076  133.3650  150.0915 C   0  0  0  0  0  0  0  0  0  0  0  0
  145.1829  132.8344  151.4215 C   0  0  1  0  0  0  0  0  0  0  0  0
  145.7232  131.3958  151.2877 C   0  0  0  0  0  0  0  0  0  0  0  0
  144.7241  130.5252  151.1406 F   0  0  0  0  0  0  0  0  0  0  0  0
  146.5303  131.3085  150.2302 F   0  0  0  0  0  0  0  0  0  0  0  0
  146.4243  131.0686  152.3731 F   0  0  0  0  0  0  0  0  0  0  0  0
  146.2555  133.8057  151.9589 C   0  0  0  0  0  0  0  0  0  0  0  0
  149.0535  139.7018  154.5874 N   0  0  0  0  0  0  0  0  0  0  0  0
  151.1035  144.1394  157.5630 H   0  0  0  0  0  0  0  0  0  0  0  0
  152.3302  143.1743  156.7345 H   0  0  0  0  0  0  0  0  0  0  0  0
  151.4866  142.5168  158.1479 H   0  0  0  0  0  0  0  0  0  0  0  0
  149.5539  143.1840  156.1621 H   0  0  0  0  0  0  0  0  0  0  0  0
  148.4108  143.0255  154.8547 H   0  0  0  0  0  0  0  0  0  0  0  0
  146.5135  142.3759  153.3735 H   0  0  0  0  0  0  0  0  0  0  0  0
  146.2662  139.9908  152.6864 H   0  0  0  0  0  0  0  0  0  0  0  0
  148.6256  137.4336  153.2647 H   0  0  0  0  0  0  0  0  0  0  0  0
  147.6942  135.7810  152.5551 H   0  0  0  0  0  0  0  0  0  0  0  0
  144.8958  135.2329  152.8517 H   0  0  0  0  0  0  0  0  0  0  0  0
  144.6978  136.7417  150.9199 H   0  0  0  0  0  0  0  0  0  0  0  0
  145.9255  135.8514  150.0512 H   0  0  0  0  0  0  0  0  0  0  0  0
  143.1965  134.7831  150.9141 H   0  0  0  0  0  0  0  0  0  0  0  0
  143.6918  135.1525  149.2803 H   0  0  0  0  0  0  0  0  0  0  0  0
  143.8147  132.7069  149.7355 H   0  0  0  0  0  0  0  0  0  0  0  0
  145.3824  133.3557  149.3239 H   0  0  0  0  0  0  0  0  0  0  0  0
  144.3680  132.8083  152.1469 H   0  0  0  0  0  0  0  0  0  0  0  0
  147.1107  133.8159  151.2819 H   0  0  0  0  0  0  0  0  0  0  0  0
  146.6296  133.4407  152.9157 H   0  0  0  0  0  0  0  0  0  0  0  0
  1  2  1  0  0  0  0
  1 25  1  0  0  0  0
  1 26  1  0  0  0  0
  1 27  1  0  0  0  0
  2  3  1  0  0  0  0
  2 28  1  0  0  0  0
  3  4  2  0  0  0  0
  3  5  1  0  0  0  0
  5 24  1  0  0  0  0
  5  6  2  0  0  0  0
  6  7  1  0  0  0  0
  6 29  1  0  0  0  0
  7  8  2  0  0  0  0
  7 30  1  0  0  0  0
  8  9  1  0  0  0  0
  8 31  1  0  0  0  0
  9 10  1  0  0  0  0
  9 24  2  0  0  0  0
 10 11  1  0  0  0  0
 10 32  1  0  0  0  0
 11 12  2  0  0  0  0
 11 13  1  0  0  0  0
 13 14  1  0  0  0  0
 13 33  1  0  0  0  0
 14 23  1  0  0  0  0
 14 15  1  0  0  0  0
 14 34  1  0  0  0  0
 15 16  1  0  0  0  0
 15 35  1  0  0  0  0
 15 36  1  0  0  0  0
 16 17  1  0  0  0  0
 16 37  1  0  0  0  0
 16 38  1  0  0  0  0
 17 18  1  0  0  0  0
 17 39  1  0  0  0  0
 17 40  1  0  0  0  0
 18 19  1  0  0  0  0
 18 23  1  0  0  0  0
 18 41  1  0  0  0  0
 19 20  1  0  0  0  0
 19 21  1  0  0  0  0
 19 22  1  0  0  0  0
 23 42  1  0  0  0  0
 23 43  1  0  0  0  0
M  END
> <s_m_source_file>
AV-unprocessed.smi

> <i_m_source_file_index>
2519

> <i_lp_mmshare_version>
43012

> <i_f3d_flags>
0

> <s_epik_input>
W0NIM11bTkhdQyg9TyljMVtjSF1bY0hdW2NIXWMobjEpW05IXUMoPU8pW05IXVtDQEBIXTJbQ0gyXVtDSDJdW0NIMl1bQ0BASF0oQyhGKShGKUYpW0NIMl0y

> <s_epik_cmdline>
J2VwaWtfcHl0aG9uJywgJy1waCcsICc3LjAnLCAnLXRuJywgJzgnLCAnLW1hJywgJzIwMCcsICctbWV0YWxfYmluZGluZycsICctaW1hZScsICc8aW5maWxlLm1hZT4nLCAnLW9tYWUnLCAnPG91dGZpbGUubWFlPic=

> <r_lp_tautomer_probability>
1

> <r_epik_Ionization_Penalty>
3.74915e-05

> <r_epik_Ionization_Penalty_Charging>
0

> <r_epik_Ionization_Penalty_Neutral>
3.74915e-05

> <r_epik_State_Penalty>
-0

> <r_epik_Charging_Adjusted_Penalty>
0

> <i_epik_Tot_Q>
0

> <i_epik_Tot_abs_Q>
0

> <r_epik_Metal_State_Penalty>
-0

> <b_epik_Metal_Only>
0

> <s_lp_Force_Field>
OPLS_2005

> <r_lp_Energy>
27.1439

> <b_lp_Chiralities_Consistent>
1

> <s_lp_Variant>
AV-unprocessed.smi:2519-2

> <Gold.Version>
5.8.1

> <Gold.Id.Protein>
6NUR|6NUR_protein|mol2

> <Gold.PLP.Fitness>
41.7592

> <Gold.PLP.PLP>
-36.4345

> <Gold.PLP.part.hbond>
-2.2922

> <Gold.PLP.part.metal>
0.0000

> <Gold.PLP.part.buried>
2.6957

> <Gold.PLP.part.nonpolar>
-37.9781

> <Gold.PLP.part.repulsive>
0.4579

> <Gold.PLP.ligand.clash>
0.0000

> <Gold.PLP.ligand.torsion>
0.5390

> <Gold.PLP.Chemscore.Hbond>
2.1224

> <Gold.PLP.Chemscore.CHOScore>
0.0000

> <Gold.PLP.Chemscore.Metal>
0.0000

> <Gold.Chemscore.Hbonds>
donor molecule, donor type, donor heavy atom, donor atom, acceptor molecule, acceptor atom, score
      L1  H     2    28       P1  8028  1.00
      L1  H    10    32       P1  7948  0.51
      L1  H    13    33       P1  7948  0.60

> <Gold.PLP.Chemscore.Internal.Correction>
0.0355

> <Gold.Rescore>
     Score         DG    S(hbond)    S(metal)    S(lipo)     H(rot)  DE(clash)    DE(int)     intcor
     15.85     -20.02       2.21        0.00      83.20       1.00       2.30       1.88       ----

> <Gold.Chemscore.Fitness>
15.8491

> <Gold.Chemscore.DG>
-20.0230

> <Gold.Chemscore.ZeroCoef>
-5.4800

> <Gold.Chemscore.Hbond>
2.2061

> <Gold.Chemscore.Metal>
0.0000

> <Gold.Chemscore.Lipo>
83.2018

> <Gold.Chemscore.Internal_Hbond>
0.0000

> <Gold.Chemscore.DEClash>
2.2959

> <Gold.Chemscore.DEInternal>
1.8779

> <Gold.Chemscore.Rot>
1.0000

> <Gold.Chemscore.Internal.Correction>
   9.000000E+99

> <Gold.Chemscore.Hbonds>
donor molecule, donor type, donor heavy atom, donor atom, acceptor molecule, acceptor atom, score
      L1  H     2    28       P1  8028  0.95
      L1  H    10    32       P1  7948  0.50
      L1  H    13    33       P1  7948  0.57

> <Gold.Chemscore.Hbond.Weighted>
-7.3684

> <Gold.Chemscore.Metal.Weighted>
-0.0000

> <Gold.Chemscore.Lipo.Weighted>
-9.7346

> <Gold.Chemscore.Internal_Hbond.Weighted>
0.0000

> <Gold.Chemscore.DEClash.Weighted>
2.2959

> <Gold.Chemscore.DEInternal.Weighted>
1.8779

> <Gold.Chemscore.Rot.Weighted>
2.5600

> <Gold.Chemscore.Internal.Correction.Weighted>
   9.000000E+99

> <Gold.Protein.RotatedTorsions>
[ 6907 6896 6895 6894 ] final  -11.77 input  -60.11 | X-H torsion
[ 7974 7965 7964 7962 ] final -158.35 input  175.53 | X-H torsion
[ 8008 7997 7996 7995 ] final  140.55 input   59.86 | X-H torsion
[ 10167 10162 10161 10158 ] final  -41.80 input  -65.29 | X-H torsion
[ 10718 10713 10712 10709 ] final   95.48 input   66.30 | X-H torsion
[ 10763 10752 10751 10750 ] final  112.28 input  -60.55 | X-H torsion
[ 11005 11000 10999 10996 ] final  -34.85 input  -57.11 | X-H torsion

> <Gold.Protein.ActiveResidues>
 VAL166  LYS551  ARG553  GLY616  TRP617  ASP618  TYR619  PRO620  LYS621  CYS622 
 ASP623  PHE694  ASN695  SER759  ASP760  ASP761  ALA762  ILE779  LEU786  VAL792 
 PHE793  MET794  SER795  GLU796  ALA797  LYS798  CYS799  TRP800  GLU811  SER814 

> <Gold.Protein.RotatedAtoms>
  151.3810  135.0939  159.9495 H   0  0  0  0  0  0  0  0  0  0  0  0  # atno 6907 bound_to 6896
  152.5108  133.9072  159.7480 H   0  0  0  0  0  0  0  0  0  0  0  0  # atno 6908 bound_to 6896
  150.9506  133.6499  159.2801 H   0  0  0  0  0  0  0  0  0  0  0  0  # atno 6909 bound_to 6896
  144.7509  140.3840  143.6048 H   0  0  0  0  0  0  0  0  0  0  0  0  # atno 7974 bound_to 7965
  156.2978  140.2338  156.4419 H   0  0  0  0  0  0  0  0  0  0  0  0  # atno 8008 bound_to 7997
  154.8178  140.0439  157.1409 H   0  0  0  0  0  0  0  0  0  0  0  0  # atno 8009 bound_to 7997
  154.9349  140.3021  155.5153 H   0  0  0  0  0  0  0  0  0  0  0  0  # atno 8010 bound_to 7997
  140.6991  143.3074  151.3118 H   0  0  0  0  0  0  0  0  0  0  0  0  # atno 10167 bound_to 10162
  157.6938  131.0547  150.4345 H   0  0  0  0  0  0  0  0  0  0  0  0  # atno 10718 bound_to 10713
  153.4756  135.3691  155.2414 H   0  0  0  0  0  0  0  0  0  0  0  0  # atno 10763 bound_to 10752
  154.8756  135.3942  154.3760 H   0  0  0  0  0  0  0  0  0  0  0  0  # atno 10764 bound_to 10752
  153.4356  135.7083  153.6267 H   0  0  0  0  0  0  0  0  0  0  0  0  # atno 10765 bound_to 10752
  140.9749  133.7089  156.1585 H   0  0  0  0  0  0  0  0  0  0  0  0  # atno 11005 bound_to 11000
  145.6947  139.1647  143.2627 LP  0  0  0  0  0  0  0  0  0  0  0  0  # atno 17320 bound_to 7965
  146.1458  140.6994  142.9345 LP  0  0  0  0  0  0  0  0  0  0  0  0  # atno 17321 bound_to 7965
  139.6484  144.0407  152.2608 LP  0  0  0  0  0  0  0  0  0  0  0  0  # atno 17342 bound_to 10162
  139.9935  144.6344  150.7793 LP  0  0  0  0  0  0  0  0  0  0  0  0  # atno 17343 bound_to 10162
  156.4709  130.4052  149.6519 LP  0  0  0  0  0  0  0  0  0  0  0  0  # atno 17370 bound_to 10713
  156.3599  130.7476  151.2447 LP  0  0  0  0  0  0  0  0  0  0  0  0  # atno 17371 bound_to 10713
  140.7274  134.4292  157.5569 LP  0  0  0  0  0  0  0  0  0  0  0  0  # atno 17394 bound_to 11000
  139.8926  134.8750  156.2261 LP  0  0  0  0  0  0  0  0  0  0  0  0  # atno 17395 bound_to 11000

$$$$
