AV-unprocessed.smi:1872|AV-procd|sdf|7604|dock9
  -GOLD-   22720 9323D 1   1.00000     0.00000
 Structure written by MMmdl.
 39 41  0  0  0  0  0  0  0  0  1 V2000
  154.0811  142.2384  163.1029 C   0  0  0  0  0  0  0  0  0  0  0  0
  153.2840  142.8763  162.0092 C   0  0  0  0  0  0  0  0  0  0  0  0
  152.4028  143.8482  162.2456 N   0  0  0  0  0  0  0  0  0  0  0  0
  151.9205  144.1334  160.9826 C   0  0  0  0  0  0  0  0  0  0  0  0
  150.9575  145.0772  160.5586 C   0  0  0  0  0  0  0  0  0  0  0  0
  150.6212  145.1901  159.1936 C   0  0  0  0  0  0  0  0  0  0  0  0
  151.2409  144.3626  158.2349 C   0  0  0  0  0  0  0  0  0  0  0  0
  152.2031  143.4159  158.6358 C   0  0  0  0  0  0  0  0  0  0  0  0
  152.5361  143.3076  159.9994 C   0  0  0  0  0  0  0  0  0  0  0  0
  153.4177  142.5012  160.7133 N   0  0  0  0  0  0  0  0  0  0  0  0
  154.2947  141.4769  160.1627 C   0  0  0  0  0  0  0  0  0  0  0  0
  153.6112  140.0999  160.0433 C   0  0  1  0  0  0  0  0  0  0  0  0
  153.4064  139.7741  158.6817 O   0  0  0  0  0  0  0  0  0  0  0  0
  154.4025  139.0321  160.7830 C   0  0  0  0  0  0  0  0  0  0  0  0
  154.6875  137.8051  160.1491 C   0  0  0  0  0  0  0  0  0  0  0  0
  155.4072  136.8042  160.8295 C   0  0  0  0  0  0  0  0  0  0  0  0
  155.8437  137.0078  162.1540 C   0  0  0  0  0  0  0  0  0  0  0  0
  156.5519  135.9949  162.7602 O   0  0  0  0  0  0  0  0  0  0  0  0
  155.8791  134.9674  163.3439 C   0  0  0  0  0  0  0  0  0  0  0  0
  154.9859  135.4542  164.2389 F   0  0  0  0  0  0  0  0  0  0  0  0
  155.1854  134.2664  162.4135 F   0  0  0  0  0  0  0  0  0  0  0  0
  155.5642  138.2430  162.7865 C   0  0  0  0  0  0  0  0  0  0  0  0
  154.8436  139.2441  162.1072 C   0  0  0  0  0  0  0  0  0  0  0  0
  153.8137  142.6658  164.0698 H   0  0  0  0  0  0  0  0  0  0  0  0
  155.1466  142.4018  162.9402 H   0  0  0  0  0  0  0  0  0  0  0  0
  153.8878  141.1667  163.1393 H   0  0  0  0  0  0  0  0  0  0  0  0
  150.4768  145.7154  161.2852 H   0  0  0  0  0  0  0  0  0  0  0  0
  149.8838  145.9149  158.8809 H   0  0  0  0  0  0  0  0  0  0  0  0
  150.9765  144.4543  157.1917 H   0  0  0  0  0  0  0  0  0  0  0  0
  152.6772  142.7781  157.9047 H   0  0  0  0  0  0  0  0  0  0  0  0
  154.6446  141.8096  159.1845 H   0  0  0  0  0  0  0  0  0  0  0  0
  155.1836  141.4041  160.7899 H   0  0  0  0  0  0  0  0  0  0  0  0
  152.6204  140.1556  160.4947 H   0  0  0  0  0  0  0  0  0  0  0  0
  152.5710  139.3401  158.6000 H   0  0  0  0  0  0  0  0  0  0  0  0
  154.3530  137.6255  159.1378 H   0  0  0  0  0  0  0  0  0  0  0  0
  155.6216  135.8695  160.3324 H   0  0  0  0  0  0  0  0  0  0  0  0
  156.5520  134.2960  163.8778 H   0  0  0  0  0  0  0  0  0  0  0  0
  155.9002  138.4383  163.7940 H   0  0  0  0  0  0  0  0  0  0  0  0
  154.6313  140.1765  162.6096 H   0  0  0  0  0  0  0  0  0  0  0  0
  1  2  1  0  0  0  0
  1 24  1  0  0  0  0
  1 25  1  0  0  0  0
  1 26  1  0  0  0  0
  2 10  1  0  0  0  0
  2  3  2  0  0  0  0
  3  4  1  0  0  0  0
  4  9  2  0  0  0  0
  4  5  1  0  0  0  0
  5  6  2  0  0  0  0
  5 27  1  0  0  0  0
  6  7  1  0  0  0  0
  6 28  1  0  0  0  0
  7  8  2  0  0  0  0
  7 29  1  0  0  0  0
  8  9  1  0  0  0  0
  8 30  1  0  0  0  0
  9 10  1  0  0  0  0
 10 11  1  0  0  0  0
 11 12  1  0  0  0  0
 11 31  1  0  0  0  0
 11 32  1  0  0  0  0
 12 13  1  0  0  0  0
 12 14  1  0  0  0  0
 12 33  1  0  0  0  0
 13 34  1  0  0  0  0
 14 23  1  0  0  0  0
 14 15  2  0  0  0  0
 15 16  1  0  0  0  0
 15 35  1  0  0  0  0
 16 17  2  0  0  0  0
 16 36  1  0  0  0  0
 17 18  1  0  0  0  0
 17 22  1  0  0  0  0
 18 19  1  0  0  0  0
 19 20  1  0  0  0  0
 19 21  1  0  0  0  0
 19 37  1  0  0  0  0
 22 23  2  0  0  0  0
 22 38  1  0  0  0  0
 23 39  1  0  0  0  0
M  END
> <s_m_source_file>
AV-unprocessed.smi

> <i_m_source_file_index>
1872

> <i_lp_mmshare_version>
43012

> <i_f3d_flags>
0

> <s_epik_input>
W2NIXTFbY0hdW2NIXVtjSF1jKGMxMiluKGMobjIpW0NIM10pW0NIMl1bQ0BIXShbT0hdKWMzW2NIXVtjSF1jKE9bQ0hdKEYpRilbY0hdW2NIXTM=

> <s_epik_cmdline>
J2VwaWtfcHl0aG9uJywgJy1waCcsICc3LjAnLCAnLXRuJywgJzgnLCAnLW1hJywgJzIwMCcsICctbWV0YWxfYmluZGluZycsICctaW1hZScsICc8aW5maWxlLm1hZT4nLCAnLW9tYWUnLCAnPG91dGZpbGUubWFlPic=

> <r_lp_tautomer_probability>
1

> <r_epik_Ionization_Penalty>
0.129663

> <r_epik_Ionization_Penalty_Charging>
0

> <r_epik_Ionization_Penalty_Neutral>
0.129663

> <r_epik_State_Penalty>
0.119073

> <r_epik_Charging_Adjusted_Penalty>
0.119073

> <i_epik_Tot_Q>
0

> <i_epik_Tot_abs_Q>
0

> <r_epik_Metal_State_Penalty>
0.000131867

> <b_epik_Metal_Only>
0

> <s_lp_Force_Field>
OPLS_2005

> <r_lp_Energy>
11.3105

> <b_lp_Chiralities_Consistent>
1

> <s_lp_Variant>
AV-unprocessed.smi:1872-2

> <Gold.Version>
5.8.1

> <Gold.Id.Protein>
6NUR|6NUR_protein|mol2

> <Gold.PLP.Fitness>
52.5515

> <Gold.PLP.PLP>
-53.1754

> <Gold.PLP.part.hbond>
-1.0000

> <Gold.PLP.part.metal>
0.0000

> <Gold.PLP.part.buried>
-5.7207

> <Gold.PLP.part.nonpolar>
-45.0045

> <Gold.PLP.part.repulsive>
0.1807

> <Gold.PLP.ligand.clash>
0.4434

> <Gold.PLP.ligand.torsion>
1.6138

> <Gold.PLP.Chemscore.Hbond>
1.0000

> <Gold.PLP.Chemscore.CHOScore>
0.0000

> <Gold.PLP.Chemscore.Metal>
0.0000

> <Gold.Chemscore.Hbonds>
donor molecule, donor type, donor heavy atom, donor atom, acceptor molecule, acceptor atom, score
      P1  H  7997  8010       L1    13  0.88

> <Gold.PLP.Chemscore.Internal.Correction>
0.0470

> <Gold.Rescore>
     Score         DG    S(hbond)    S(metal)    S(lipo)     H(rot)  DE(clash)    DE(int)     intcor
     17.30     -19.68       0.92        0.00     144.41       2.25       0.28       2.11       ----

> <Gold.Chemscore.Fitness>
17.2986

> <Gold.Chemscore.DG>
-19.6834

> <Gold.Chemscore.ZeroCoef>
-5.4800

> <Gold.Chemscore.Hbond>
0.9213

> <Gold.Chemscore.Metal>
0.0000

> <Gold.Chemscore.Lipo>
144.4094

> <Gold.Chemscore.Internal_Hbond>
0.0000

> <Gold.Chemscore.DEClash>
0.2771

> <Gold.Chemscore.DEInternal>
2.1077

> <Gold.Chemscore.Rot>
2.2538

> <Gold.Chemscore.Internal.Correction>
   9.000000E+99

> <Gold.Chemscore.Hbonds>
donor molecule, donor type, donor heavy atom, donor atom, acceptor molecule, acceptor atom, score
      P1  H  7997  8010       L1    13  0.80

> <Gold.Chemscore.Hbond.Weighted>
-3.0771

> <Gold.Chemscore.Metal.Weighted>
-0.0000

> <Gold.Chemscore.Lipo.Weighted>
-16.8959

> <Gold.Chemscore.Internal_Hbond.Weighted>
0.0000

> <Gold.Chemscore.DEClash.Weighted>
0.2771

> <Gold.Chemscore.DEInternal.Weighted>
2.1077

> <Gold.Chemscore.Rot.Weighted>
5.7697

> <Gold.Chemscore.Internal.Correction.Weighted>
   9.000000E+99

> <Gold.Protein.RotatedTorsions>
[ 6907 6896 6895 6894 ] final -135.37 input  -60.11 | X-H torsion
[ 7974 7965 7964 7962 ] final  124.75 input  175.53 | X-H torsion
[ 8008 7997 7996 7995 ] final   11.15 input   59.86 | X-H torsion
[ 10167 10162 10161 10158 ] final  -19.42 input  -65.29 | X-H torsion
[ 10718 10713 10712 10709 ] final -160.30 input   66.30 | X-H torsion
[ 10763 10752 10751 10750 ] final  127.21 input  -60.55 | X-H torsion
[ 11005 11000 10999 10996 ] final  -18.36 input  -57.11 | X-H torsion

> <Gold.Protein.ActiveResidues>
 VAL166  LYS551  ARG553  GLY616  TRP617  ASP618  TYR619  PRO620  LYS621  CYS622 
 ASP623  PHE694  ASN695  SER759  ASP760  ASP761  ALA762  ILE779  LEU786  VAL792 
 PHE793  MET794  SER795  GLU796  ALA797  LYS798  CYS799  TRP800  GLU811  SER814 

> <Gold.Protein.RotatedAtoms>
  150.9971  133.6092  159.2699 H   0  0  0  0  0  0  0  0  0  0  0  0  # atno 6907 bound_to 6896
  151.3292  135.0836  159.9342 H   0  0  0  0  0  0  0  0  0  0  0  0  # atno 6908 bound_to 6896
  152.5263  133.9604  159.7768 H   0  0  0  0  0  0  0  0  0  0  0  0  # atno 6909 bound_to 6896
  145.0808  139.3658  143.4910 H   0  0  0  0  0  0  0  0  0  0  0  0  # atno 7974 bound_to 7965
  154.8030  140.2855  155.5908 H   0  0  0  0  0  0  0  0  0  0  0  0  # atno 8008 bound_to 7997
  156.2979  140.2583  156.2831 H   0  0  0  0  0  0  0  0  0  0  0  0  # atno 8009 bound_to 7997
  154.9536  140.0379  157.2146 H   0  0  0  0  0  0  0  0  0  0  0  0  # atno 8010 bound_to 7997
  140.7268  143.4821  151.0104 H   0  0  0  0  0  0  0  0  0  0  0  0  # atno 10167 bound_to 10162
  156.5802  130.8726  151.2862 H   0  0  0  0  0  0  0  0  0  0  0  0  # atno 10718 bound_to 10713
  153.7058  135.3276  155.3235 H   0  0  0  0  0  0  0  0  0  0  0  0  # atno 10763 bound_to 10752
  154.8399  135.4465  154.1364 H   0  0  0  0  0  0  0  0  0  0  0  0  # atno 10764 bound_to 10752
  153.2444  135.6974  153.7826 H   0  0  0  0  0  0  0  0  0  0  0  0  # atno 10765 bound_to 10752
  140.8260  133.8032  155.9708 H   0  0  0  0  0  0  0  0  0  0  0  0  # atno 11005 bound_to 11000
  146.3531  140.0598  142.8630 LP  0  0  0  0  0  0  0  0  0  0  0  0  # atno 17320 bound_to 7965
  145.1180  140.9445  143.4617 LP  0  0  0  0  0  0  0  0  0  0  0  0  # atno 17321 bound_to 7965
  139.8520  143.7426  152.3177 LP  0  0  0  0  0  0  0  0  0  0  0  0  # atno 17342 bound_to 10162
  139.7611  144.7506  151.0362 LP  0  0  0  0  0  0  0  0  0  0  0  0  # atno 17343 bound_to 10162
  157.7328  130.9721  150.1947 LP  0  0  0  0  0  0  0  0  0  0  0  0  # atno 17370 bound_to 10713
  156.2638  130.3714  149.8102 LP  0  0  0  0  0  0  0  0  0  0  0  0  # atno 17371 bound_to 10713
  140.9049  134.2333  157.5020 LP  0  0  0  0  0  0  0  0  0  0  0  0  # atno 17394 bound_to 11000
  139.8706  134.9723  156.4769 LP  0  0  0  0  0  0  0  0  0  0  0  0  # atno 17395 bound_to 11000

$$$$
