AV-unprocessed.smi:1555|AV-procd|sdf|6266|dock2
  -GOLD-   22720 6453D 1   1.00000     0.00000
 Structure written by MMmdl.
 41 42  0  0  0  0  0  0  0  0  1 V2000
  151.6453  139.5950  155.9877 C   0  0  0  0  0  0  0  0  0  0  0  0
  150.9459  140.8133  156.6125 C   0  0  2  0  0  0  0  0  0  0  0  0
  151.0915  140.8716  158.1491 C   0  0  0  0  0  0  0  0  0  0  0  0
  151.6512  142.1278  158.6100 N   0  0  0  0  0  0  0  0  0  0  0  0
  151.1892  143.4042  158.3184 C   0  0  0  0  0  0  0  0  0  0  0  0
  152.0246  144.2832  158.9701 C   0  0  0  0  0  0  0  0  0  0  0  0
  152.9999  143.5736  159.6670 N   0  0  0  0  0  0  0  0  0  0  0  0
  152.7122  142.3041  159.4095 C   0  0  0  0  0  0  0  0  0  0  0  0
  149.5351  140.7955  156.2367 N   0  0  0  0  0  0  0  0  0  0  0  0
  149.0399  141.1209  155.0298 C   0  0  0  0  0  0  0  0  0  0  0  0
  149.7647  141.4831  154.1018 O   0  0  0  0  0  0  0  0  0  0  0  0
  147.6904  141.0193  154.9233 N   0  0  0  0  0  0  0  0  0  0  0  0
  146.7421  140.7652  156.0211 C   0  0  0  0  0  0  0  0  0  0  0  0
  145.9726  142.0638  156.3214 C   0  0  0  0  0  0  0  0  0  0  0  0
  145.2477  142.5924  155.0611 C   0  0  0  0  0  0  0  0  0  0  0  0
  144.5692  143.9527  155.3051 C   0  0  0  0  0  0  0  0  0  0  0  0
  143.9483  144.4219  154.1266 O   0  0  0  0  0  0  0  0  0  0  0  0
  146.2215  142.6619  153.8636 C   0  0  0  0  0  0  0  0  0  0  0  0
  146.9815  141.3355  153.6775 C   0  0  0  0  0  0  0  0  0  0  0  0
  152.7210  139.6164  156.1637 H   0  0  0  0  0  0  0  0  0  0  0  0
  151.4961  139.5684  154.9078 H   0  0  0  0  0  0  0  0  0  0  0  0
  151.2585  138.6626  156.4004 H   0  0  0  0  0  0  0  0  0  0  0  0
  151.4033  141.7072  156.1841 H   0  0  0  0  0  0  0  0  0  0  0  0
  150.1223  140.7412  158.6321 H   0  0  0  0  0  0  0  0  0  0  0  0
  151.7264  140.0572  158.5016 H   0  0  0  0  0  0  0  0  0  0  0  0
  150.3291  143.5761  157.6880 H   0  0  0  0  0  0  0  0  0  0  0  0
  151.9975  145.3625  158.9921 H   0  0  0  0  0  0  0  0  0  0  0  0
  153.2907  141.4833  159.8078 H   0  0  0  0  0  0  0  0  0  0  0  0
  148.8799  140.5093  156.9494 H   0  0  0  0  0  0  0  0  0  0  0  0
  146.0444  139.9836  155.7167 H   0  0  0  0  0  0  0  0  0  0  0  0
  147.2078  140.3916  156.9328 H   0  0  0  0  0  0  0  0  0  0  0  0
  145.2536  141.8840  157.1211 H   0  0  0  0  0  0  0  0  0  0  0  0
  146.6674  142.8177  156.6940 H   0  0  0  0  0  0  0  0  0  0  0  0
  144.4705  141.8727  154.7986 H   0  0  0  0  0  0  0  0  0  0  0  0
  143.8271  143.8806  156.1008 H   0  0  0  0  0  0  0  0  0  0  0  0
  145.3055  144.6936  155.6179 H   0  0  0  0  0  0  0  0  0  0  0  0
  143.5709  143.6844  153.6716 H   0  0  0  0  0  0  0  0  0  0  0  0
  145.6749  142.9038  152.9516 H   0  0  0  0  0  0  0  0  0  0  0  0
  146.9386  143.4696  154.0171 H   0  0  0  0  0  0  0  0  0  0  0  0
  147.6484  141.4076  152.8172 H   0  0  0  0  0  0  0  0  0  0  0  0
  146.2830  140.5312  153.4423 H   0  0  0  0  0  0  0  0  0  0  0  0
  1  2  1  0  0  0  0
  1 20  1  0  0  0  0
  1 21  1  0  0  0  0
  1 22  1  0  0  0  0
  2  3  1  0  0  0  0
  2  9  1  0  0  0  0
  2 23  1  0  0  0  0
  3  4  1  0  0  0  0
  3 24  1  0  0  0  0
  3 25  1  0  0  0  0
  4  8  1  0  0  0  0
  4  5  1  0  0  0  0
  5  6  2  0  0  0  0
  5 26  1  0  0  0  0
  6  7  1  0  0  0  0
  6 27  1  0  0  0  0
  7  8  2  0  0  0  0
  8 28  1  0  0  0  0
  9 10  1  0  0  0  0
  9 29  1  0  0  0  0
 10 11  2  0  0  0  0
 10 12  1  0  0  0  0
 12 19  1  0  0  0  0
 12 13  1  0  0  0  0
 13 14  1  0  0  0  0
 13 30  1  0  0  0  0
 13 31  1  0  0  0  0
 14 15  1  0  0  0  0
 14 32  1  0  0  0  0
 14 33  1  0  0  0  0
 15 16  1  0  0  0  0
 15 18  1  0  0  0  0
 15 34  1  0  0  0  0
 16 17  1  0  0  0  0
 16 35  1  0  0  0  0
 16 36  1  0  0  0  0
 17 37  1  0  0  0  0
 18 19  1  0  0  0  0
 18 38  1  0  0  0  0
 18 39  1  0  0  0  0
 19 40  1  0  0  0  0
 19 41  1  0  0  0  0
M  END
> <s_m_source_file>
AV-unprocessed.smi

> <i_m_source_file_index>
1555

> <i_lp_mmshare_version>
43012

> <i_f3d_flags>
0

> <s_epik_input>
W2NIXTFuW2NIXVtjSF1uMVtDSDJdW0NAQEhdKFtDSDNdKVtOSF1DKD1PKU4yW0NIMl1bQ0gyXVtDSF0oW0NIMl1bT0hdKVtDSDJdW0NIMl0y

> <s_epik_cmdline>
J2VwaWtfcHl0aG9uJywgJy1waCcsICc3LjAnLCAnLXRuJywgJzgnLCAnLW1hJywgJzIwMCcsICctbWV0YWxfYmluZGluZycsICctaW1hZScsICc8aW5maWxlLm1hZT4nLCAnLW9tYWUnLCAnPG91dGZpbGUubWFlPic=

> <r_lp_tautomer_probability>
1

> <r_epik_Ionization_Penalty>
0.625883

> <r_epik_Ionization_Penalty_Charging>
0.625812

> <r_epik_Ionization_Penalty_Neutral>
7.07114e-05

> <r_epik_State_Penalty>
0.642234

> <r_epik_Charging_Adjusted_Penalty>
1.26805

> <i_epik_Tot_Q>
0

> <i_epik_Tot_abs_Q>
0

> <r_epik_Metal_State_Penalty>
0.307949

> <b_epik_Metal_Only>
0

> <s_lp_Force_Field>
OPLS_2005

> <r_lp_Energy>
32.8415

> <b_lp_Chiralities_Consistent>
1

> <s_lp_Variant>
AV-unprocessed.smi:1555-3

> <Gold.Version>
5.8.1

> <Gold.Id.Protein>
6NUR|6NUR_protein|mol2

> <Gold.PLP.Fitness>
45.1565

> <Gold.PLP.PLP>
-38.0328

> <Gold.PLP.part.hbond>
-3.0000

> <Gold.PLP.part.metal>
0.0000

> <Gold.PLP.part.buried>
-5.4242

> <Gold.PLP.part.nonpolar>
-30.8278

> <Gold.PLP.part.repulsive>
0.2462

> <Gold.PLP.ligand.clash>
0.0000

> <Gold.PLP.ligand.torsion>
1.0333

> <Gold.PLP.Chemscore.Hbond>
2.0400

> <Gold.PLP.Chemscore.CHOScore>
1.0000

> <Gold.PLP.Chemscore.Metal>
0.0000

> <Gold.Chemscore.Hbonds>
donor molecule, donor type, donor heavy atom, donor atom, acceptor molecule, acceptor atom, score
      L1  H    17    37       P1 10174  0.71
      P1  H  7989  7998       L1    11  0.26
      P1  H  8011  8017       L1    11  0.62
      L1  C     5    26       P1  8028  0.52

> <Gold.PLP.Chemscore.Internal.Correction>
0.0704

> <Gold.Rescore>
     Score         DG    S(hbond)    S(metal)    S(lipo)     H(rot)  DE(clash)    DE(int)     intcor
     12.96     -14.34       2.03        0.00      72.29       2.49       0.46       0.92       ----

> <Gold.Chemscore.Fitness>
12.9557

> <Gold.Chemscore.DG>
-14.3395

> <Gold.Chemscore.ZeroCoef>
-5.4800

> <Gold.Chemscore.Hbond>
2.0262

> <Gold.Chemscore.Metal>
0.0000

> <Gold.Chemscore.Lipo>
72.2917

> <Gold.Chemscore.Internal_Hbond>
0.0000

> <Gold.Chemscore.DEClash>
0.4620

> <Gold.Chemscore.DEInternal>
0.9219

> <Gold.Chemscore.Rot>
2.4867

> <Gold.Chemscore.Internal.Correction>
   9.000000E+99

> <Gold.Chemscore.Hbonds>
donor molecule, donor type, donor heavy atom, donor atom, acceptor molecule, acceptor atom, score
      L1  H    17    37       P1 10174  0.62
      P1  H  7989  7998       L1    11  0.25
      P1  H  8011  8017       L1    11  0.60

> <Gold.Chemscore.Hbond.Weighted>
-6.7674

> <Gold.Chemscore.Metal.Weighted>
-0.0000

> <Gold.Chemscore.Lipo.Weighted>
-8.4581

> <Gold.Chemscore.Internal_Hbond.Weighted>
0.0000

> <Gold.Chemscore.DEClash.Weighted>
0.4620

> <Gold.Chemscore.DEInternal.Weighted>
0.9219

> <Gold.Chemscore.Rot.Weighted>
6.3660

> <Gold.Chemscore.Internal.Correction.Weighted>
   9.000000E+99

> <Gold.Protein.RotatedTorsions>
[ 6907 6896 6895 6894 ] final  150.54 input  -60.11 | X-H torsion
[ 7974 7965 7964 7962 ] final  -81.81 input  175.53 | X-H torsion
[ 8008 7997 7996 7995 ] final -134.69 input   59.86 | X-H torsion
[ 10167 10162 10161 10158 ] final -133.95 input  -65.29 | X-H torsion
[ 10718 10713 10712 10709 ] final -113.92 input   66.30 | X-H torsion
[ 10763 10752 10751 10750 ] final   68.45 input  -60.55 | X-H torsion
[ 11005 11000 10999 10996 ] final   -2.78 input  -57.11 | X-H torsion

> <Gold.Protein.ActiveResidues>
 VAL166  LYS551  ARG553  GLY616  TRP617  ASP618  TYR619  PRO620  LYS621  CYS622 
 ASP623  PHE694  ASN695  SER759  ASP760  ASP761  ALA762  ILE779  LEU786  VAL792 
 PHE793  MET794  SER795  GLU796  ALA797  LYS798  CYS799  TRP800  GLU811  SER814 

> <Gold.Protein.RotatedAtoms>
  152.1131  133.4311  159.4639 H   0  0  0  0  0  0  0  0  0  0  0  0  # atno 6907 bound_to 6896
  150.6868  134.2625  159.4564 H   0  0  0  0  0  0  0  0  0  0  0  0  # atno 6908 bound_to 6896
  152.0495  134.9662  160.0625 H   0  0  0  0  0  0  0  0  0  0  0  0  # atno 6909 bound_to 6896
  145.5417  140.9509  143.1548 H   0  0  0  0  0  0  0  0  0  0  0  0  # atno 7974 bound_to 7965
  155.3663  140.0485  157.3046 H   0  0  0  0  0  0  0  0  0  0  0  0  # atno 8008 bound_to 7997
  154.5153  140.2206  155.9042 H   0  0  0  0  0  0  0  0  0  0  0  0  # atno 8009 bound_to 7997
  156.1629  140.3112  155.8844 H   0  0  0  0  0  0  0  0  0  0  0  0  # atno 8010 bound_to 7997
  139.8930  143.6699  152.2609 H   0  0  0  0  0  0  0  0  0  0  0  0  # atno 10167 bound_to 10162
  156.0797  130.5999  150.8706 H   0  0  0  0  0  0  0  0  0  0  0  0  # atno 10718 bound_to 10713
  153.0236  135.5247  154.7136 H   0  0  0  0  0  0  0  0  0  0  0  0  # atno 10763 bound_to 10752
  154.6211  135.2889  155.0326 H   0  0  0  0  0  0  0  0  0  0  0  0  # atno 10764 bound_to 10752
  154.1313  135.6592  153.4975 H   0  0  0  0  0  0  0  0  0  0  0  0  # atno 10765 bound_to 10752
  140.6621  133.9311  155.8442 H   0  0  0  0  0  0  0  0  0  0  0  0  # atno 11005 bound_to 11000
  144.7574  139.7041  143.7248 LP  0  0  0  0  0  0  0  0  0  0  0  0  # atno 17320 bound_to 7965
  146.1977  139.5253  142.9764 LP  0  0  0  0  0  0  0  0  0  0  0  0  # atno 17321 bound_to 7965
  139.7092  144.7623  151.1140 LP  0  0  0  0  0  0  0  0  0  0  0  0  # atno 17342 bound_to 10162
  140.7722  143.5353  150.9376 LP  0  0  0  0  0  0  0  0  0  0  0  0  # atno 17343 bound_to 10162
  157.5908  131.0944  150.9122 LP  0  0  0  0  0  0  0  0  0  0  0  0  # atno 17370 bound_to 10713
  156.9298  130.5345  149.5279 LP  0  0  0  0  0  0  0  0  0  0  0  0  # atno 17371 bound_to 10713
  141.0457  134.0557  157.3847 LP  0  0  0  0  0  0  0  0  0  0  0  0  # atno 17394 bound_to 11000
  139.9009  135.0164  156.7265 LP  0  0  0  0  0  0  0  0  0  0  0  0  # atno 17395 bound_to 11000

$$$$
