AV-unprocessed.smi:3081|AV-procd|sdf|11741|dock4
  -GOLD-   2272017133D 1   1.00000     0.00000
 Structure written by MMmdl.
 26 27  0  0  0  0  0  0  0  0  2 V2000
  151.3569  138.1116  153.9965 C   0  0  0  0  0  0  0  0  0  0  0  0
  150.7963  139.0627  154.8734 C   0  0  0  0  0  0  0  0  0  0  0  0
  151.6824  139.6660  155.7918 C   0  0  0  0  0  0  0  0  0  0  0  0
  151.1987  140.7104  156.7881 C   0  0  1  0  0  0  0  0  0  0  0  0
  152.2877  141.0919  157.8105 C   0  0  0  0  0  0  0  0  0  0  0  0
  151.7576  142.1504  158.7901 C   0  0  0  0  0  0  0  0  0  0  0  0
  151.1994  143.3681  158.0347 C   0  0  0  0  0  0  0  0  0  0  0  0
  150.1513  142.9536  157.0768 N   0  3  0  0  0  0  0  0  0  0  0  0
  150.6305  141.9629  156.0875 C   0  0  0  0  0  0  0  0  0  0  0  0
  152.9963  139.3442  155.8214 N   0  0  0  0  0  0  0  0  0  0  0  0
  153.4152  138.4285  154.9432 C   0  0  0  0  0  0  0  0  0  0  0  0
  152.6697  137.7969  154.0336 N   0  0  0  0  0  0  0  0  0  0  0  0
  150.7499  137.6026  153.2625 H   0  0  0  0  0  0  0  0  0  0  0  0
  149.7454  139.3095  154.8379 H   0  0  0  0  0  0  0  0  0  0  0  0
  150.3791  140.2562  157.3476 H   0  0  0  0  0  0  0  0  0  0  0  0
  152.6170  140.2089  158.3595 H   0  0  0  0  0  0  0  0  0  0  0  0
  153.1661  141.4850  157.2966 H   0  0  0  0  0  0  0  0  0  0  0  0
  150.9752  141.7148  159.4130 H   0  0  0  0  0  0  0  0  0  0  0  0
  152.5529  142.4632  159.4672 H   0  0  0  0  0  0  0  0  0  0  0  0
  150.7760  144.0868  158.7364 H   0  0  0  0  0  0  0  0  0  0  0  0
  151.9975  143.8803  157.4956 H   0  0  0  0  0  0  0  0  0  0  0  0
  149.3854  142.5468  157.5948 H   0  0  0  0  0  0  0  0  0  0  0  0
  151.3896  142.4327  155.4603 H   0  0  0  0  0  0  0  0  0  0  0  0
  149.8019  141.6891  155.4339 H   0  0  0  0  0  0  0  0  0  0  0  0
  154.4645  138.1748  154.9711 H   0  0  0  0  0  0  0  0  0  0  0  0
  149.8146  143.7696  156.5855 H   0  0  0  0  0  0  0  0  0  0  0  0
  1 12  1  0  0  0  0
  1  2  2  0  0  0  0
  1 13  1  0  0  0  0
  2  3  1  0  0  0  0
  2 14  1  0  0  0  0
  3  4  1  0  0  0  0
  3 10  2  0  0  0  0
  4  9  1  0  0  0  0
  4  5  1  0  0  0  0
  4 15  1  0  0  0  0
  5  6  1  0  0  0  0
  5 16  1  0  0  0  0
  5 17  1  0  0  0  0
  6  7  1  0  0  0  0
  6 18  1  0  0  0  0
  6 19  1  0  0  0  0
  7  8  1  0  0  0  0
  7 20  1  0  0  0  0
  7 21  1  0  0  0  0
  8  9  1  0  0  0  0
  8 22  1  0  0  0  0
  8 26  1  0  0  0  0
  9 23  1  0  0  0  0
  9 24  1  0  0  0  0
 10 11  1  0  0  0  0
 11 12  2  0  0  0  0
 11 25  1  0  0  0  0
M  CHG  1   8   1
M  END
> <s_m_source_file>
AV-unprocessed.smi

> <i_m_source_file_index>
3081

> <i_lp_mmshare_version>
43012

> <i_f3d_flags>
0

> <s_epik_input>
bjFbY0hdbltjSF1bY0hdYzFbQ0BASF0yW0NIMl1bQ0gyXVtDSDJdW05IXVtDSDJdMg==

> <s_epik_cmdline>
J2VwaWtfcHl0aG9uJywgJy1waCcsICc3LjAnLCAnLXRuJywgJzgnLCAnLW1hJywgJzIwMCcsICctbWV0YWxfYmluZGluZycsICctaW1hZScsICc8aW5maWxlLm1hZT4nLCAnLW9tYWUnLCAnPG91dGZpbGUubWFlPic=

> <r_lp_tautomer_probability>
1

> <r_epik_Ionization_Penalty>
0.000373217

> <r_epik_Ionization_Penalty_Charging>
0.000372054

> <r_epik_Ionization_Penalty_Neutral>
1.16293e-06

> <r_epik_State_Penalty>
0.00022692

> <r_epik_Charging_Adjusted_Penalty>
0.000598973

> <i_epik_Tot_Q>
1

> <i_epik_Tot_abs_Q>
1

> <r_epik_Metal_State_Penalty>
-0

> <b_epik_Metal_Only>
0

> <s_epik_Chemistry_Notes>
This compound contains an electron-poor aromatic ring that is susceptible to covalent hydrolysis at low pH, typically resulting in measured values for nitrogen ring protonation that are around two units higher than predicted values.

> <s_lp_Force_Field>
OPLS_2005

> <r_lp_Energy>
7.17513

> <b_lp_Chiralities_Consistent>
1

> <s_lp_Variant>
AV-unprocessed.smi:3081-2

> <Gold.Version>
5.8.1

> <Gold.Id.Protein>
6NUR|6NUR_protein|mol2

> <Gold.PLP.Fitness>
38.2259

> <Gold.PLP.PLP>
-24.8182

> <Gold.PLP.part.hbond>
-3.0000

> <Gold.PLP.part.metal>
0.0000

> <Gold.PLP.part.buried>
-2.6893

> <Gold.PLP.part.nonpolar>
-18.5914

> <Gold.PLP.part.repulsive>
0.1299

> <Gold.PLP.ligand.clash>
0.0000

> <Gold.PLP.ligand.torsion>
0.0609

> <Gold.PLP.Chemscore.Hbond>
3.3016

> <Gold.PLP.Chemscore.CHOScore>
1.1962

> <Gold.PLP.Chemscore.Metal>
0.0000

> <Gold.Chemscore.Hbonds>
donor molecule, donor type, donor heavy atom, donor atom, acceptor molecule, acceptor atom, score
      L1  H     8    26       P1  8028  2.00
      P1  H  7997  8010       L1    10  1.00
      P1  H 10752 10765       L1    12  0.32
      L1  C     1    13       P1  7948  0.33
      L1  C     1    13       P1  7949  0.78

> <Gold.PLP.Chemscore.Internal.Correction>
0.0360

> <Gold.Rescore>
     Score         DG    S(hbond)    S(metal)    S(lipo)     H(rot)  DE(clash)    DE(int)     intcor
     15.78     -16.13       1.78        0.00      61.96       1.00       0.23       0.12       ----

> <Gold.Chemscore.Fitness>
15.7761

> <Gold.Chemscore.DG>
-16.1275

> <Gold.Chemscore.ZeroCoef>
-5.4800

> <Gold.Chemscore.Hbond>
1.7840

> <Gold.Chemscore.Metal>
0.0000

> <Gold.Chemscore.Lipo>
61.9553

> <Gold.Chemscore.Internal_Hbond>
0.0000

> <Gold.Chemscore.DEClash>
0.2333

> <Gold.Chemscore.DEInternal>
0.1180

> <Gold.Chemscore.Rot>
1.0000

> <Gold.Chemscore.Internal.Correction>
   9.000000E+99

> <Gold.Chemscore.Hbonds>
donor molecule, donor type, donor heavy atom, donor atom, acceptor molecule, acceptor atom, score
      L1  H     8    26       P1  8028  0.99
      P1  H  7997  8010       L1    10  0.25
      P1  H 10752 10765       L1    12  0.26

> <Gold.Chemscore.Hbond.Weighted>
-5.9587

> <Gold.Chemscore.Metal.Weighted>
-0.0000

> <Gold.Chemscore.Lipo.Weighted>
-7.2488

> <Gold.Chemscore.Internal_Hbond.Weighted>
0.0000

> <Gold.Chemscore.DEClash.Weighted>
0.2333

> <Gold.Chemscore.DEInternal.Weighted>
0.1180

> <Gold.Chemscore.Rot.Weighted>
2.5600

> <Gold.Chemscore.Internal.Correction.Weighted>
   9.000000E+99

> <Gold.Protein.RotatedTorsions>
[ 6907 6896 6895 6894 ] final -169.18 input  -60.11 | X-H torsion
[ 7974 7965 7964 7962 ] final  -32.33 input  175.53 | X-H torsion
[ 8008 7997 7996 7995 ] final   94.44 input   59.86 | X-H torsion
[ 10167 10162 10161 10158 ] final  -55.60 input  -65.29 | X-H torsion
[ 10718 10713 10712 10709 ] final  165.38 input   66.30 | X-H torsion
[ 10763 10752 10751 10750 ] final  117.07 input  -60.55 | X-H torsion
[ 11005 11000 10999 10996 ] final  140.49 input  -57.11 | X-H torsion

> <Gold.Protein.ActiveResidues>
 VAL166  LYS551  ARG553  GLY616  TRP617  ASP618  TYR619  PRO620  LYS621  CYS622 
 ASP623  PHE694  ASN695  SER759  ASP760  ASP761  ALA762  ILE779  LEU786  VAL792 
 PHE793  MET794  SER795  GLU796  ALA797  LYS798  CYS799  TRP800  GLU811  SER814 

> <Gold.Protein.RotatedAtoms>
  151.4874  133.3532  159.2847 H   0  0  0  0  0  0  0  0  0  0  0  0  # atno 6907 bound_to 6896
  150.8857  134.8256  159.7268 H   0  0  0  0  0  0  0  0  0  0  0  0  # atno 6908 bound_to 6896
  152.4791  134.4777  159.9707 H   0  0  0  0  0  0  0  0  0  0  0  0  # atno 6909 bound_to 6896
  146.0998  140.5779  142.8826 H   0  0  0  0  0  0  0  0  0  0  0  0  # atno 7974 bound_to 7965
  156.0579  140.3300  155.7427 H   0  0  0  0  0  0  0  0  0  0  0  0  # atno 8008 bound_to 7997
  155.5500  140.0609  157.2869 H   0  0  0  0  0  0  0  0  0  0  0  0  # atno 8009 bound_to 7997
  154.4467  140.1896  156.0665 H   0  0  0  0  0  0  0  0  0  0  0  0  # atno 8010 bound_to 7997
  140.6365  143.2485  151.5104 H   0  0  0  0  0  0  0  0  0  0  0  0  # atno 10167 bound_to 10162
  157.0810  131.0392  151.2575 H   0  0  0  0  0  0  0  0  0  0  0  0  # atno 10718 bound_to 10713
  153.5469  135.3547  155.2742 H   0  0  0  0  0  0  0  0  0  0  0  0  # atno 10763 bound_to 10752
  154.8711  135.4104  154.2981 H   0  0  0  0  0  0  0  0  0  0  0  0  # atno 10764 bound_to 10752
  153.3699  135.7064  153.6714 H   0  0  0  0  0  0  0  0  0  0  0  0  # atno 10765 bound_to 10752
  140.0331  134.9342  157.0701 H   0  0  0  0  0  0  0  0  0  0  0  0  # atno 11005 bound_to 11000
  144.7424  140.4977  143.6860 LP  0  0  0  0  0  0  0  0  0  0  0  0  # atno 17320 bound_to 7965
  145.5877  139.1493  143.3200 LP  0  0  0  0  0  0  0  0  0  0  0  0  # atno 17321 bound_to 7965
  139.5575  144.2238  152.1637 LP  0  0  0  0  0  0  0  0  0  0  0  0  # atno 17342 bound_to 10162
  140.1496  144.5127  150.6695 LP  0  0  0  0  0  0  0  0  0  0  0  0  # atno 17343 bound_to 10162
  157.4800  130.7759  149.7405 LP  0  0  0  0  0  0  0  0  0  0  0  0  # atno 17370 bound_to 10713
  155.9923  130.3931  150.2946 LP  0  0  0  0  0  0  0  0  0  0  0  0  # atno 17371 bound_to 10713
  140.4192  134.1899  155.7164 LP  0  0  0  0  0  0  0  0  0  0  0  0  # atno 17394 bound_to 11000
  141.1842  133.8348  157.1147 LP  0  0  0  0  0  0  0  0  0  0  0  0  # atno 17395 bound_to 11000

$$$$
