AV-unprocessed.smi:1985|AV-procd|sdf|8043|dock4
  -GOLD-   2272010243D 1   1.00000     0.00000
 Structure written by MMmdl.
 50 51  0  0  0  0  0  0  0  0  1 V2000
  148.0641  139.4328  151.9238 C   0  0  0  0  0  0  0  0  0  0  0  0
  147.4866  139.4608  153.3503 C   0  0  0  0  0  0  0  0  0  0  0  0
  148.4354  140.0330  154.4523 C   0  0  2  0  0  0  0  0  0  0  0  0
  147.5276  140.4150  155.6539 C   0  0  0  0  0  0  0  0  0  0  0  0
  149.0921  141.3373  153.9000 C   0  0  0  0  0  0  0  0  0  0  0  0
  150.3049  141.6961  154.6261 N   0  0  0  0  0  0  0  0  0  0  0  0
  150.3734  142.1361  155.8921 C   0  0  0  0  0  0  0  0  0  0  0  0
  149.3775  142.3377  156.5853 O   0  0  0  0  0  0  0  0  0  0  0  0
  151.7704  142.3871  156.4879 C   0  0  0  0  0  0  0  0  0  0  0  0
  151.7623  142.9730  157.8384 N   0  0  0  0  0  0  0  0  0  0  0  0
  151.4155  144.3019  158.0022 C   0  0  0  0  0  0  0  0  0  0  0  0
  151.4243  144.9328  159.1965 C   0  0  0  0  0  0  0  0  0  0  0  0
  151.8112  144.2263  160.4110 C   0  0  0  0  0  0  0  0  0  0  0  0
  151.8584  144.7614  161.5195 O   0  0  0  0  0  0  0  0  0  0  0  0
  152.1452  142.8658  160.2202 N   0  0  0  0  0  0  0  0  0  0  0  0
  152.5620  142.1275  161.3943 C   0  0  0  0  0  0  0  0  0  0  0  0
  152.1401  142.2114  158.9669 C   0  0  0  0  0  0  0  0  0  0  0  0
  152.4683  141.0300  158.8376 O   0  0  0  0  0  0  0  0  0  0  0  0
  149.4513  139.0233  154.8639 N   0  0  0  0  0  0  0  0  0  0  0  0
  150.5307  138.7924  153.8966 C   0  0  0  0  0  0  0  0  0  0  0  0
  151.6117  137.8501  154.4536 C   0  0  0  0  0  0  0  0  0  0  0  0
  151.0192  136.6175  154.8451 O   0  0  0  0  0  0  0  0  0  0  0  0
  150.0026  136.7908  155.8251 C   0  0  0  0  0  0  0  0  0  0  0  0
  148.9088  137.7232  155.2772 C   0  0  0  0  0  0  0  0  0  0  0  0
  147.3275  139.0390  151.2236 H   0  0  0  0  0  0  0  0  0  0  0  0
  148.9457  138.7959  151.8572 H   0  0  0  0  0  0  0  0  0  0  0  0
  148.3414  140.4282  151.5775 H   0  0  0  0  0  0  0  0  0  0  0  0
  146.5459  140.0113  153.3382 H   0  0  0  0  0  0  0  0  0  0  0  0
  147.1968  138.4393  153.5989 H   0  0  0  0  0  0  0  0  0  0  0  0
  146.6341  140.9569  155.3402 H   0  0  0  0  0  0  0  0  0  0  0  0
  148.0434  141.0595  156.3659 H   0  0  0  0  0  0  0  0  0  0  0  0
  147.1899  139.5332  156.1989 H   0  0  0  0  0  0  0  0  0  0  0  0
  149.3686  141.2269  152.8518 H   0  0  0  0  0  0  0  0  0  0  0  0
  148.3876  142.1678  153.9518 H   0  0  0  0  0  0  0  0  0  0  0  0
  151.1762  141.5626  154.1337 H   0  0  0  0  0  0  0  0  0  0  0  0
  152.3068  141.4373  156.5027 H   0  0  0  0  0  0  0  0  0  0  0  0
  152.3325  143.0266  155.8054 H   0  0  0  0  0  0  0  0  0  0  0  0
  151.1301  144.8707  157.1290 H   0  0  0  0  0  0  0  0  0  0  0  0
  151.1479  145.9754  159.2528 H   0  0  0  0  0  0  0  0  0  0  0  0
  152.5619  141.0549  161.2021 H   0  0  0  0  0  0  0  0  0  0  0  0
  151.8502  142.3359  162.1952 H   0  0  0  0  0  0  0  0  0  0  0  0
  153.5640  142.4763  161.6489 H   0  0  0  0  0  0  0  0  0  0  0  0
  150.1312  138.3612  152.9787 H   0  0  0  0  0  0  0  0  0  0  0  0
  151.0158  139.7277  153.6228 H   0  0  0  0  0  0  0  0  0  0  0  0
  152.3712  137.6553  153.6965 H   0  0  0  0  0  0  0  0  0  0  0  0
  152.1186  138.3057  155.3057 H   0  0  0  0  0  0  0  0  0  0  0  0
  149.5807  135.8175  156.0760 H   0  0  0  0  0  0  0  0  0  0  0  0
  150.4343  137.1986  156.7403 H   0  0  0  0  0  0  0  0  0  0  0  0
  148.1543  137.8421  156.0525 H   0  0  0  0  0  0  0  0  0  0  0  0
  148.4225  137.2314  154.4349 H   0  0  0  0  0  0  0  0  0  0  0  0
  1  2  1  0  0  0  0
  1 25  1  0  0  0  0
  1 26  1  0  0  0  0
  1 27  1  0  0  0  0
  2  3  1  0  0  0  0
  2 28  1  0  0  0  0
  2 29  1  0  0  0  0
  3  4  1  0  0  0  0
  3  5  1  0  0  0  0
  3 19  1  0  0  0  0
  4 30  1  0  0  0  0
  4 31  1  0  0  0  0
  4 32  1  0  0  0  0
  5  6  1  0  0  0  0
  5 33  1  0  0  0  0
  5 34  1  0  0  0  0
  6  7  1  0  0  0  0
  6 35  1  0  0  0  0
  7  8  2  0  0  0  0
  7  9  1  0  0  0  0
  9 10  1  0  0  0  0
  9 36  1  0  0  0  0
  9 37  1  0  0  0  0
 10 17  1  0  0  0  0
 10 11  1  0  0  0  0
 11 12  2  0  0  0  0
 11 38  1  0  0  0  0
 12 13  1  0  0  0  0
 12 39  1  0  0  0  0
 13 14  2  0  0  0  0
 13 15  1  0  0  0  0
 15 16  1  0  0  0  0
 15 17  1  0  0  0  0
 16 40  1  0  0  0  0
 16 41  1  0  0  0  0
 16 42  1  0  0  0  0
 17 18  2  0  0  0  0
 19 24  1  0  0  0  0
 19 20  1  0  0  0  0
 20 21  1  0  0  0  0
 20 43  1  0  0  0  0
 20 44  1  0  0  0  0
 21 22  1  0  0  0  0
 21 45  1  0  0  0  0
 21 46  1  0  0  0  0
 22 23  1  0  0  0  0
 23 24  1  0  0  0  0
 23 47  1  0  0  0  0
 23 48  1  0  0  0  0
 24 49  1  0  0  0  0
 24 50  1  0  0  0  0
M  END
> <s_m_source_file>
AV-unprocessed.smi

> <i_m_source_file_index>
1985

> <i_lp_mmshare_version>
43012

> <i_f3d_flags>
0

> <s_epik_input>
W0NIMl0xW0NIMl1PW0NIMl1bQ0gyXU4xW0NAQF0oW0NIM10pKFtDSDJdW0NIM10pW0NIMl1bTkhdQyg9TylbQ0gyXW4yW2NIXVtjSF1jKD1PKW4oW0NIM10pYzI9Tw==

> <s_epik_cmdline>
J2VwaWtfcHl0aG9uJywgJy1waCcsICc3LjAnLCAnLXRuJywgJzgnLCAnLW1hJywgJzIwMCcsICctbWV0YWxfYmluZGluZycsICctaW1hZScsICc8aW5maWxlLm1hZT4nLCAnLW9tYWUnLCAnPG91dGZpbGUubWFlPic=

> <r_lp_tautomer_probability>
1

> <r_epik_Ionization_Penalty>
0.318667

> <r_epik_Ionization_Penalty_Charging>
1.17294e-08

> <r_epik_Ionization_Penalty_Neutral>
0.318667

> <r_epik_State_Penalty>
0.313095

> <r_epik_Charging_Adjusted_Penalty>
0.313095

> <i_epik_Tot_Q>
0

> <i_epik_Tot_abs_Q>
0

> <r_epik_Metal_State_Penalty>
0.313065

> <b_epik_Metal_Only>
0

> <s_lp_Force_Field>
OPLS_2005

> <r_lp_Energy>
50.9959

> <b_lp_Chiralities_Consistent>
1

> <s_lp_Variant>
AV-unprocessed.smi:1985-2

> <Gold.Version>
5.8.1

> <Gold.Id.Protein>
6NUR|6NUR_protein|mol2

> <Gold.PLP.Fitness>
44.3539

> <Gold.PLP.PLP>
-39.7419

> <Gold.PLP.part.hbond>
-1.0000

> <Gold.PLP.part.metal>
0.0000

> <Gold.PLP.part.buried>
-5.6064

> <Gold.PLP.part.nonpolar>
-34.2175

> <Gold.PLP.part.repulsive>
1.2383

> <Gold.PLP.ligand.clash>
0.0000

> <Gold.PLP.ligand.torsion>
0.9182

> <Gold.PLP.Chemscore.Hbond>
1.0000

> <Gold.PLP.Chemscore.CHOScore>
1.0561

> <Gold.PLP.Chemscore.Metal>
0.0000

> <Gold.Chemscore.Hbonds>
donor molecule, donor type, donor heavy atom, donor atom, acceptor molecule, acceptor atom, score
      P1  H 10752 10763       L1    22  0.32
      L1  C    11    38       P1  8028  0.72

> <Gold.PLP.Chemscore.Internal.Correction>
0.2799

> <Gold.Rescore>
     Score         DG    S(hbond)    S(metal)    S(lipo)     H(rot)  DE(clash)    DE(int)     intcor
      9.74     -12.56       0.92        0.00      82.36       2.20       0.49       2.33       ----

> <Gold.Chemscore.Fitness>
9.7381

> <Gold.Chemscore.DG>
-12.5559

> <Gold.Chemscore.ZeroCoef>
-5.4800

> <Gold.Chemscore.Hbond>
0.9159

> <Gold.Chemscore.Metal>
0.0000

> <Gold.Chemscore.Lipo>
82.3618

> <Gold.Chemscore.Internal_Hbond>
0.0000

> <Gold.Chemscore.DEClash>
0.4923

> <Gold.Chemscore.DEInternal>
2.3254

> <Gold.Chemscore.Rot>
2.1952

> <Gold.Chemscore.Internal.Correction>
   9.000000E+99

> <Gold.Chemscore.Hbonds>
donor molecule, donor type, donor heavy atom, donor atom, acceptor molecule, acceptor atom, score
      P1  H 10752 10763       L1    22  0.01

> <Gold.Chemscore.Hbond.Weighted>
-3.0592

> <Gold.Chemscore.Metal.Weighted>
-0.0000

> <Gold.Chemscore.Lipo.Weighted>
-9.6363

> <Gold.Chemscore.Internal_Hbond.Weighted>
0.0000

> <Gold.Chemscore.DEClash.Weighted>
0.4923

> <Gold.Chemscore.DEInternal.Weighted>
2.3254

> <Gold.Chemscore.Rot.Weighted>
5.6197

> <Gold.Chemscore.Internal.Correction.Weighted>
   9.000000E+99

> <Gold.Protein.RotatedTorsions>
[ 6907 6896 6895 6894 ] final  104.91 input  -60.11 | X-H torsion
[ 7974 7965 7964 7962 ] final  126.27 input  175.53 | X-H torsion
[ 8008 7997 7996 7995 ] final  179.32 input   59.86 | X-H torsion
[ 10167 10162 10161 10158 ] final -144.93 input  -65.29 | X-H torsion
[ 10718 10713 10712 10709 ] final   -2.86 input   66.30 | X-H torsion
[ 10763 10752 10751 10750 ] final   53.55 input  -60.55 | X-H torsion
[ 11005 11000 10999 10996 ] final  -16.36 input  -57.11 | X-H torsion

> <Gold.Protein.ActiveResidues>
 VAL166  LYS551  ARG553  GLY616  TRP617  ASP618  TYR619  PRO620  LYS621  CYS622 
 ASP623  PHE694  ASN695  SER759  ASP760  ASP761  ALA762  ILE779  LEU786  VAL792 
 PHE793  MET794  SER795  GLU796  ALA797  LYS798  CYS799  TRP800  GLU811  SER814 

> <Gold.Protein.RotatedAtoms>
  152.5248  133.9607  159.7715 H   0  0  0  0  0  0  0  0  0  0  0  0  # atno 6907 bound_to 6896
  150.9898  133.6153  159.2717 H   0  0  0  0  0  0  0  0  0  0  0  0  # atno 6908 bound_to 6896
  151.3300  135.0845  159.9388 H   0  0  0  0  0  0  0  0  0  0  0  0  # atno 6909 bound_to 6896
  145.0636  139.3785  143.4993 H   0  0  0  0  0  0  0  0  0  0  0  0  # atno 7974 bound_to 7965
  156.0447  140.1311  157.0117 H   0  0  0  0  0  0  0  0  0  0  0  0  # atno 8008 bound_to 7997
  154.4407  140.1023  156.6359 H   0  0  0  0  0  0  0  0  0  0  0  0  # atno 8009 bound_to 7997
  155.5614  140.3465  155.4494 H   0  0  0  0  0  0  0  0  0  0  0  0  # atno 8010 bound_to 7997
  139.7853  143.8043  152.2644 H   0  0  0  0  0  0  0  0  0  0  0  0  # atno 10167 bound_to 10162
  156.7846  130.5341  149.5745 H   0  0  0  0  0  0  0  0  0  0  0  0  # atno 10718 bound_to 10713
  152.9796  135.5775  154.4760 H   0  0  0  0  0  0  0  0  0  0  0  0  # atno 10763 bound_to 10752
  154.4315  135.2773  155.1911 H   0  0  0  0  0  0  0  0  0  0  0  0  # atno 10764 bound_to 10752
  154.3617  135.6187  153.5748 H   0  0  0  0  0  0  0  0  0  0  0  0  # atno 10765 bound_to 10752
  140.8060  133.8177  155.9516 H   0  0  0  0  0  0  0  0  0  0  0  0  # atno 11005 bound_to 11000
  146.3525  140.0346  142.8647 LP  0  0  0  0  0  0  0  0  0  0  0  0  # atno 17320 bound_to 7965
  145.1378  140.9554  143.4506 LP  0  0  0  0  0  0  0  0  0  0  0  0  # atno 17321 bound_to 7965
  139.8118  144.7333  150.9688 LP  0  0  0  0  0  0  0  0  0  0  0  0  # atno 17342 bound_to 10162
  140.7819  143.4244  151.0792 LP  0  0  0  0  0  0  0  0  0  0  0  0  # atno 17343 bound_to 10162
  156.1197  130.6101  151.0174 LP  0  0  0  0  0  0  0  0  0  0  0  0  # atno 17370 bound_to 10713
  157.6630  131.0877  150.7794 LP  0  0  0  0  0  0  0  0  0  0  0  0  # atno 17371 bound_to 10713
  140.9246  134.2098  157.4904 LP  0  0  0  0  0  0  0  0  0  0  0  0  # atno 17394 bound_to 11000
  139.8717  134.9807  156.5086 LP  0  0  0  0  0  0  0  0  0  0  0  0  # atno 17395 bound_to 11000

$$$$
