AV-unprocessed.smi:1911|AV-procd|sdf|7742|dock2
  -GOLD-   22720 9483D 1   1.00000     0.00000
 Structure written by MMmdl.
 53 55  0  0  0  0  0  0  0  0  3 V2000
  146.3321  131.8357  151.0973 N   0  0  0  0  0  0  0  0  0  0  0  0
  145.1363  132.1077  150.5705 C   0  0  0  0  0  0  0  0  0  0  0  0
  144.8491  131.8163  149.4108 O   0  0  0  0  0  0  0  0  0  0  0  0
  144.1146  132.7895  151.4861 C   0  0  0  0  0  0  0  0  0  0  0  0
  144.5270  134.1574  151.8929 N   0  3  2  0  0  0  0  0  0  0  0  0
  143.4856  134.8717  152.6791 C   0  0  0  0  0  0  0  0  0  0  0  0
  144.0124  136.2183  153.2006 C   0  0  0  0  0  0  0  0  0  0  0  0
  144.5218  137.1025  152.0474 C   0  0  1  0  0  0  0  0  0  0  0  0
  145.1168  138.3324  152.5633 N   0  0  0  0  0  0  0  0  0  0  0  0
  146.2026  138.3945  153.3478 C   0  0  0  0  0  0  0  0  0  0  0  0
  146.8133  137.3994  153.7364 O   0  0  0  0  0  0  0  0  0  0  0  0
  146.5128  139.6677  153.6491 N   0  0  0  0  0  0  0  0  0  0  0  0
  147.5956  140.1671  154.4246 C   0  0  0  0  0  0  0  0  0  0  0  0
  148.5474  139.3560  155.0917 C   0  0  0  0  0  0  0  0  0  0  0  0
  149.5912  139.9632  155.8200 C   0  0  0  0  0  0  0  0  0  0  0  0
  149.6837  141.3736  155.8757 C   0  0  0  0  0  0  0  0  0  0  0  0
  150.7030  142.0465  156.5758 N   0  0  0  0  0  0  0  0  0  0  0  0
  150.9472  143.4724  156.4022 C   0  0  0  0  0  0  0  0  0  0  0  0
  151.5705  143.9451  157.7205 C   0  0  0  0  0  0  0  0  0  0  0  0
  152.1453  142.6700  158.3379 C   0  0  0  0  0  0  0  0  0  0  0  0
  151.1715  141.5877  157.8730 C   0  0  0  0  0  0  0  0  0  0  0  0
  148.7594  142.1068  155.2113 N   0  3  0  0  0  0  0  0  0  0  0  0
  147.7442  141.5671  154.5033 C   0  0  0  0  0  0  0  0  0  0  0  0
  145.5598  136.3254  151.2216 C   0  0  0  0  0  0  0  0  0  0  0  0
  144.9983  134.9744  150.7461 C   0  0  0  0  0  0  0  0  0  0  0  0
  147.0366  131.3849  150.5308 H   0  0  0  0  0  0  0  0  0  0  0  0
  146.5329  132.0768  152.0572 H   0  0  0  0  0  0  0  0  0  0  0  0
  143.1800  132.8390  150.9257 H   0  0  0  0  0  0  0  0  0  0  0  0
  143.9190  132.1784  152.3691 H   0  0  0  0  0  0  0  0  0  0  0  0
  142.6033  135.0307  152.0570 H   0  0  0  0  0  0  0  0  0  0  0  0
  143.1676  134.2621  153.5252 H   0  0  0  0  0  0  0  0  0  0  0  0
  143.2217  136.7314  153.7493 H   0  0  0  0  0  0  0  0  0  0  0  0
  144.8175  136.0386  153.9151 H   0  0  0  0  0  0  0  0  0  0  0  0
  143.6842  137.3543  151.3936 H   0  0  0  0  0  0  0  0  0  0  0  0
  144.6729  139.1993  152.2964 H   0  0  0  0  0  0  0  0  0  0  0  0
  145.8739  140.3691  153.3040 H   0  0  0  0  0  0  0  0  0  0  0  0
  148.5130  138.2791  155.0531 H   0  0  0  0  0  0  0  0  0  0  0  0
  150.3124  139.3355  156.3221 H   0  0  0  0  0  0  0  0  0  0  0  0
  151.6435  143.6100  155.5746 H   0  0  0  0  0  0  0  0  0  0  0  0
  150.0361  144.0289  156.1790 H   0  0  0  0  0  0  0  0  0  0  0  0
  152.3192  144.7250  157.5791 H   0  0  0  0  0  0  0  0  0  0  0  0
  150.7912  144.3438  158.3715 H   0  0  0  0  0  0  0  0  0  0  0  0
  153.1372  142.4777  157.9263 H   0  0  0  0  0  0  0  0  0  0  0  0
  152.2347  142.7230  159.4233 H   0  0  0  0  0  0  0  0  0  0  0  0
  150.3261  141.5102  158.5581 H   0  0  0  0  0  0  0  0  0  0  0  0
  151.6569  140.6137  157.8074 H   0  0  0  0  0  0  0  0  0  0  0  0
  147.0817  142.2737  154.0242 H   0  0  0  0  0  0  0  0  0  0  0  0
  145.8720  136.9175  150.3603 H   0  0  0  0  0  0  0  0  0  0  0  0
  146.4563  136.1524  151.8191 H   0  0  0  0  0  0  0  0  0  0  0  0
  145.7768  134.4358  150.2044 H   0  0  0  0  0  0  0  0  0  0  0  0
  144.1754  135.1319  150.0468 H   0  0  0  0  0  0  0  0  0  0  0  0
  145.3244  134.0359  152.5016 H   0  0  0  0  0  0  0  0  0  0  0  0
  148.8337  143.1236  155.2467 H   0  0  0  0  0  0  0  0  0  0  0  0
  1  2  1  0  0  0  0
  1 26  1  0  0  0  0
  1 27  1  0  0  0  0
  2  3  2  0  0  0  0
  2  4  1  0  0  0  0
  4  5  1  0  0  0  0
  4 28  1  0  0  0  0
  4 29  1  0  0  0  0
  5 25  1  0  0  0  0
  5  6  1  0  0  0  0
  5 52  1  0  0  0  0
  6  7  1  0  0  0  0
  6 30  1  0  0  0  0
  6 31  1  0  0  0  0
  7  8  1  0  0  0  0
  7 32  1  0  0  0  0
  7 33  1  0  0  0  0
  8  9  1  0  0  0  0
  8 24  1  0  0  0  0
  8 34  1  0  0  0  0
  9 10  1  0  0  0  0
  9 35  1  0  0  0  0
 10 11  2  0  0  0  0
 10 12  1  0  0  0  0
 12 13  1  0  0  0  0
 12 36  1  0  0  0  0
 13 23  1  0  0  0  0
 13 14  2  0  0  0  0
 14 15  1  0  0  0  0
 14 37  1  0  0  0  0
 15 16  2  0  0  0  0
 15 38  1  0  0  0  0
 16 17  1  0  0  0  0
 16 22  1  0  0  0  0
 17 21  1  0  0  0  0
 17 18  1  0  0  0  0
 18 19  1  0  0  0  0
 18 39  1  0  0  0  0
 18 40  1  0  0  0  0
 19 20  1  0  0  0  0
 19 41  1  0  0  0  0
 19 42  1  0  0  0  0
 20 21  1  0  0  0  0
 20 43  1  0  0  0  0
 20 44  1  0  0  0  0
 21 45  1  0  0  0  0
 21 46  1  0  0  0  0
 22 23  2  0  0  0  0
 22 53  1  0  0  0  0
 23 47  1  0  0  0  0
 24 25  1  0  0  0  0
 24 48  1  0  0  0  0
 24 49  1  0  0  0  0
 25 50  1  0  0  0  0
 25 51  1  0  0  0  0
M  CHG  1   5   1
M  CHG  1  22   1
M  END
> <s_m_source_file>
AV-unprocessed.smi

> <i_m_source_file_index>
1911

> <i_lp_mmshare_version>
43012

> <i_f3d_flags>
0

> <s_epik_input>
W05IMl1DKD1PKVtDSDJdTjFbQ0gyXVtDSDJdW0NIXShbQ0gyXVtDSDJdMSlbTkhdQyg9TylbTkhdYzJbY0hdW2NIXWMobltjSF0yKU4zW0NIMl1bQ0gyXVtDSDJdW0NIMl0z

> <s_epik_cmdline>
J2VwaWtfcHl0aG9uJywgJy1waCcsICc3LjAnLCAnLXRuJywgJzgnLCAnLW1hJywgJzIwMCcsICctbWV0YWxfYmluZGluZycsICctaW1hZScsICc8aW5maWxlLm1hZT4nLCAnLW9tYWUnLCAnPG91dGZpbGUubWFlPic=

> <r_lp_tautomer_probability>
0.999994

> <r_epik_Ionization_Penalty>
2.11361

> <r_epik_Ionization_Penalty_Charging>
2.11355

> <r_epik_Ionization_Penalty_Neutral>
5.99226e-05

> <r_epik_State_Penalty>
2.13444

> <r_epik_Charging_Adjusted_Penalty>
4.24799

> <i_epik_Tot_Q>
2

> <i_epik_Tot_abs_Q>
2

> <r_epik_Metal_State_Penalty>
2.23538

> <b_epik_Metal_Only>
0

> <s_lp_Force_Field>
OPLS_2005

> <r_lp_Energy>
45.5026

> <b_lp_Chiralities_Consistent>
1

> <s_lp_Variant>
AV-unprocessed.smi:1911-5

> <Gold.Version>
5.8.1

> <Gold.Id.Protein>
6NUR|6NUR_protein|mol2

> <Gold.PLP.Fitness>
49.5406

> <Gold.PLP.PLP>
-37.7162

> <Gold.PLP.part.hbond>
-5.4890

> <Gold.PLP.part.metal>
0.0000

> <Gold.PLP.part.buried>
-0.6641

> <Gold.PLP.part.nonpolar>
-33.9038

> <Gold.PLP.part.repulsive>
0.9192

> <Gold.PLP.ligand.clash>
0.0000

> <Gold.PLP.ligand.torsion>
0.4239

> <Gold.PLP.Chemscore.Hbond>
4.1457

> <Gold.PLP.Chemscore.CHOScore>
0.0000

> <Gold.PLP.Chemscore.Metal>
0.0000

> <Gold.Chemscore.Hbonds>
donor molecule, donor type, donor heavy atom, donor atom, acceptor molecule, acceptor atom, score
      L1  H     1    26       P1 10747  0.99
      L1  H     9    35       P1 10175  1.00
      L1  H    12    36       P1 10175  0.17
      L1  H    22    53       P1  8028  2.00
      P1  H 10785 10796       L1     3  0.01

> <Gold.PLP.Chemscore.Internal.Correction>
0.2350

> <Gold.Rescore>
     Score         DG    S(hbond)    S(metal)    S(lipo)     H(rot)  DE(clash)    DE(int)     intcor
     16.67     -22.78       3.55        0.00      88.54       1.93       3.25       2.87       ----

> <Gold.Chemscore.Fitness>
16.6671

> <Gold.Chemscore.DG>
-22.7791

> <Gold.Chemscore.ZeroCoef>
-5.4800

> <Gold.Chemscore.Hbond>
3.5542

> <Gold.Chemscore.Metal>
0.0000

> <Gold.Chemscore.Lipo>
88.5380

> <Gold.Chemscore.Internal_Hbond>
0.0000

> <Gold.Chemscore.DEClash>
3.2465

> <Gold.Chemscore.DEInternal>
2.8655

> <Gold.Chemscore.Rot>
1.9261

> <Gold.Chemscore.Internal.Correction>
   9.000000E+99

> <Gold.Chemscore.Hbonds>
donor molecule, donor type, donor heavy atom, donor atom, acceptor molecule, acceptor atom, score
      L1  H     1    26       P1 10747  0.89
      L1  H     9    35       P1 10175  0.98
      L1  H    12    36       P1 10175  0.17
      L1  H    22    53       P1  8028  1.00
      P1  H 10785 10796       L1     3  0.03

> <Gold.Chemscore.Hbond.Weighted>
-11.8709

> <Gold.Chemscore.Metal.Weighted>
-0.0000

> <Gold.Chemscore.Lipo.Weighted>
-10.3589

> <Gold.Chemscore.Internal_Hbond.Weighted>
0.0000

> <Gold.Chemscore.DEClash.Weighted>
3.2465

> <Gold.Chemscore.DEInternal.Weighted>
2.8655

> <Gold.Chemscore.Rot.Weighted>
4.9307

> <Gold.Chemscore.Internal.Correction.Weighted>
   9.000000E+99

> <Gold.Protein.RotatedTorsions>
[ 6907 6896 6895 6894 ] final   79.60 input  -60.11 | X-H torsion
[ 7974 7965 7964 7962 ] final  138.09 input  175.53 | X-H torsion
[ 8008 7997 7996 7995 ] final    4.46 input   59.86 | X-H torsion
[ 10167 10162 10161 10158 ] final -137.82 input  -65.29 | X-H torsion
[ 10718 10713 10712 10709 ] final   32.77 input   66.30 | X-H torsion
[ 10763 10752 10751 10750 ] final  -78.85 input  -60.55 | X-H torsion
[ 11005 11000 10999 10996 ] final   12.76 input  -57.11 | X-H torsion

> <Gold.Protein.ActiveResidues>
 VAL166  LYS551  ARG553  GLY616  TRP617  ASP618  TYR619  PRO620  LYS621  CYS622 
 ASP623  PHE694  ASN695  SER759  ASP760  ASP761  ALA762  ILE779  LEU786  VAL792 
 PHE793  MET794  SER795  GLU796  ALA797  LYS798  CYS799  TRP800  GLU811  SER814 

> <Gold.Protein.RotatedAtoms>
  152.5204  134.3486  159.9242 H   0  0  0  0  0  0  0  0  0  0  0  0  # atno 6907 bound_to 6896
  151.3436  133.3946  159.2681 H   0  0  0  0  0  0  0  0  0  0  0  0  # atno 6908 bound_to 6896
  150.9783  134.9162  159.7887 H   0  0  0  0  0  0  0  0  0  0  0  0  # atno 6909 bound_to 6896
  144.9406  139.4936  143.5574 H   0  0  0  0  0  0  0  0  0  0  0  0  # atno 7974 bound_to 7965
  154.7162  140.2702  155.6583 H   0  0  0  0  0  0  0  0  0  0  0  0  # atno 8008 bound_to 7997
  156.2810  140.2743  156.1743 H   0  0  0  0  0  0  0  0  0  0  0  0  # atno 8009 bound_to 7997
  155.0568  140.0371  157.2553 H   0  0  0  0  0  0  0  0  0  0  0  0  # atno 8010 bound_to 7997
  139.8539  143.7163  152.2656 H   0  0  0  0  0  0  0  0  0  0  0  0  # atno 10167 bound_to 10162
  157.2894  130.7295  149.6602 H   0  0  0  0  0  0  0  0  0  0  0  0  # atno 10718 bound_to 10713
  154.5312  135.5715  153.6760 H   0  0  0  0  0  0  0  0  0  0  0  0  # atno 10763 bound_to 10752
  152.9940  135.6205  154.2626 H   0  0  0  0  0  0  0  0  0  0  0  0  # atno 10764 bound_to 10752
  154.2553  135.2858  155.2780 H   0  0  0  0  0  0  0  0  0  0  0  0  # atno 10765 bound_to 10752
  140.4883  134.0866  155.7765 H   0  0  0  0  0  0  0  0  0  0  0  0  # atno 11005 bound_to 11000
  146.3284  139.8421  142.8888 LP  0  0  0  0  0  0  0  0  0  0  0  0  # atno 17320 bound_to 7965
  145.2998  141.0191  143.3615 LP  0  0  0  0  0  0  0  0  0  0  0  0  # atno 17321 bound_to 7965
  139.7438  144.7552  151.0611 LP  0  0  0  0  0  0  0  0  0  0  0  0  # atno 17342 bound_to 10162
  140.7784  143.4940  150.9856 LP  0  0  0  0  0  0  0  0  0  0  0  0  # atno 17343 bound_to 10162
  155.9666  130.4313  150.4915 LP  0  0  0  0  0  0  0  0  0  0  0  0  # atno 17370 bound_to 10713
  157.2875  131.0619  151.2156 LP  0  0  0  0  0  0  0  0  0  0  0  0  # atno 17371 bound_to 10713
  141.1497  133.8992  157.2129 LP  0  0  0  0  0  0  0  0  0  0  0  0  # atno 17394 bound_to 11000
  139.9784  135.0106  156.9689 LP  0  0  0  0  0  0  0  0  0  0  0  0  # atno 17395 bound_to 11000

$$$$
