AV-unprocessed.smi:3263|AV-procd|sdf|12490|dock3
  -GOLD-   2272018393D 1   1.00000     0.00000
 Structure written by MMmdl.
 42 44  0  0  0  0  0  0  0  0  2 V2000
  153.9854  139.2733  157.6892 O   0  0  0  0  0  0  0  0  0  0  0  0
  152.9420  139.4101  158.3284 C   0  0  0  0  0  0  0  0  0  0  0  0
  151.6877  138.6256  157.9351 C   0  0  0  0  0  0  0  0  0  0  0  0
  151.5288  138.4736  156.4057 C   0  0  2  0  0  0  0  0  0  0  0  0
  151.9226  139.7324  155.6033 C   0  0  0  0  0  0  0  0  0  0  0  0
  150.7126  139.9416  154.6729 C   0  0  2  0  0  0  0  0  0  0  0  0
  149.5313  140.4862  155.4966 C   0  0  0  0  0  0  0  0  0  0  0  0
  149.0933  139.2563  156.3127 C   0  0  0  0  0  0  0  0  0  0  0  0
  150.1036  138.1765  155.8729 C   0  0  1  0  0  0  0  0  0  0  0  0
  150.2676  138.5102  154.3939 C   0  0  0  0  0  0  0  0  0  0  0  0
  152.8329  140.2166  159.3952 N   0  0  0  0  0  0  0  0  0  0  0  0
  153.9276  140.9883  159.9696 C   0  0  0  0  0  0  0  0  0  0  0  0
  153.5206  141.6209  161.3112 C   0  0  0  0  0  0  0  0  0  0  0  0
  152.7900  142.9361  161.1276 C   0  0  0  0  0  0  0  0  0  0  0  0
  152.3153  143.6935  162.2204 C   0  0  0  0  0  0  0  0  0  0  0  0
  151.6405  144.9076  161.9748 C   0  0  0  0  0  0  0  0  0  0  0  0
  151.4546  145.3375  160.6443 C   0  0  0  0  0  0  0  0  0  0  0  0
  151.9487  144.5411  159.5912 C   0  0  0  0  0  0  0  0  0  0  0  0
  152.5900  143.3844  159.8669 N   0  3  0  0  0  0  0  0  0  0  0  0
  151.6944  137.6477  158.4182 H   0  0  0  0  0  0  0  0  0  0  0  0
  150.8208  139.1502  158.3381 H   0  0  0  0  0  0  0  0  0  0  0  0
  152.1795  137.6579  156.0841 H   0  0  0  0  0  0  0  0  0  0  0  0
  152.1023  140.6027  156.2359 H   0  0  0  0  0  0  0  0  0  0  0  0
  152.8315  139.5503  155.0286 H   0  0  0  0  0  0  0  0  0  0  0  0
  150.9392  140.5366  153.7878 H   0  0  0  0  0  0  0  0  0  0  0  0
  149.8204  141.3251  156.1306 H   0  0  0  0  0  0  0  0  0  0  0  0
  148.7232  140.8219  154.8454 H   0  0  0  0  0  0  0  0  0  0  0  0
  149.0946  139.4391  157.3865 H   0  0  0  0  0  0  0  0  0  0  0  0
  148.0796  138.9626  156.0368 H   0  0  0  0  0  0  0  0  0  0  0  0
  149.7659  137.1584  156.0693 H   0  0  0  0  0  0  0  0  0  0  0  0
  149.3358  138.4487  153.8289 H   0  0  0  0  0  0  0  0  0  0  0  0
  151.0292  137.9091  153.8938 H   0  0  0  0  0  0  0  0  0  0  0  0
  151.9368  140.2749  159.8574 H   0  0  0  0  0  0  0  0  0  0  0  0
  154.8053  140.3514  160.0931 H   0  0  0  0  0  0  0  0  0  0  0  0
  154.2063  141.7677  159.2597 H   0  0  0  0  0  0  0  0  0  0  0  0
  152.8857  140.9322  161.8703 H   0  0  0  0  0  0  0  0  0  0  0  0
  154.4001  141.7977  161.9320 H   0  0  0  0  0  0  0  0  0  0  0  0
  152.4645  143.3505  163.2340 H   0  0  0  0  0  0  0  0  0  0  0  0
  151.2700  145.5019  162.7971 H   0  0  0  0  0  0  0  0  0  0  0  0
  150.9407  146.2643  160.4350 H   0  0  0  0  0  0  0  0  0  0  0  0
  151.8512  144.7918  158.5449 H   0  0  0  0  0  0  0  0  0  0  0  0
  152.9392  142.8233  159.0892 H   0  0  0  0  0  0  0  0  0  0  0  0
  1  2  2  0  0  0  0
  2  3  1  0  0  0  0
  2 11  1  0  0  0  0
  3  4  1  0  0  0  0
  3 20  1  0  0  0  0
  3 21  1  0  0  0  0
  4  9  1  0  0  0  0
  4  5  1  0  0  0  0
  4 22  1  0  0  0  0
  5  6  1  0  0  0  0
  5 23  1  0  0  0  0
  5 24  1  0  0  0  0
  6 10  1  0  0  0  0
  6  7  1  0  0  0  0
  6 25  1  0  0  0  0
  7  8  1  0  0  0  0
  7 26  1  0  0  0  0
  7 27  1  0  0  0  0
  8  9  1  0  0  0  0
  8 28  1  0  0  0  0
  8 29  1  0  0  0  0
  9 10  1  0  0  0  0
  9 30  1  0  0  0  0
 10 31  1  0  0  0  0
 10 32  1  0  0  0  0
 11 12  1  0  0  0  0
 11 33  1  0  0  0  0
 12 13  1  0  0  0  0
 12 34  1  0  0  0  0
 12 35  1  0  0  0  0
 13 14  1  0  0  0  0
 13 36  1  0  0  0  0
 13 37  1  0  0  0  0
 14 19  1  0  0  0  0
 14 15  2  0  0  0  0
 15 16  1  0  0  0  0
 15 38  1  0  0  0  0
 16 17  2  0  0  0  0
 16 39  1  0  0  0  0
 17 18  1  0  0  0  0
 17 40  1  0  0  0  0
 18 19  2  0  0  0  0
 18 41  1  0  0  0  0
 19 42  1  0  0  0  0
M  CHG  1  19   1
M  END
> <s_m_source_file>
AV-unprocessed.smi

> <i_m_source_file_index>
3263

> <i_lp_mmshare_version>
43012

> <i_f3d_flags>
0

> <s_epik_input>
W0NIMl0xW0NIMl1bQ0BASF0oW0NIMl0yKVtDQEBIXShbQ0gyXVtDQEhdMTIpW0NIMl1DKD1PKVtOSF1bQ0gyXVtDSDJdYzNbY0hdW2NIXVtjSF1bY0hdbjM=

> <s_epik_cmdline>
J2VwaWtfcHl0aG9uJywgJy1waCcsICc3LjAnLCAnLXRuJywgJzgnLCAnLW1hJywgJzIwMCcsICctbWV0YWxfYmluZGluZycsICctaW1hZScsICc8aW5maWxlLm1hZT4nLCAnLW9tYWUnLCAnPG91dGZpbGUubWFlPic=

> <r_epik_Ionization_Penalty>
1.83579

> <r_epik_Ionization_Penalty_Charging>
1.83579

> <r_epik_Ionization_Penalty_Neutral>
2.47288e-08

> <r_epik_State_Penalty>
1.95213

> <r_epik_Charging_Adjusted_Penalty>
3.78793

> <i_epik_Tot_Q>
1

> <i_epik_Tot_abs_Q>
1

> <r_epik_Metal_State_Penalty>
1.97847

> <b_epik_Metal_Only>
0

> <s_lp_Force_Field>
OPLS_2005

> <r_lp_Energy>
51.925

> <b_lp_Chiralities_Consistent>
1

> <s_lp_Variant>
AV-unprocessed.smi:3263-5

> <Gold.Version>
5.8.1

> <Gold.Id.Protein>
6NUR|6NUR_protein|mol2

> <Gold.PLP.Fitness>
46.2446

> <Gold.PLP.PLP>
-44.7537

> <Gold.PLP.part.hbond>
-1.0000

> <Gold.PLP.part.metal>
0.0000

> <Gold.PLP.part.buried>
-5.0598

> <Gold.PLP.part.nonpolar>
-38.9257

> <Gold.PLP.part.repulsive>
0.1459

> <Gold.PLP.ligand.clash>
0.1401

> <Gold.PLP.ligand.torsion>
0.7084

> <Gold.PLP.Chemscore.Hbond>
1.0000

> <Gold.PLP.Chemscore.CHOScore>
0.0000

> <Gold.PLP.Chemscore.Metal>
0.0000

> <Gold.Chemscore.Hbonds>
donor molecule, donor type, donor heavy atom, donor atom, acceptor molecule, acceptor atom, score
      P1  H  7997  8008       L1     1  0.11

> <Gold.PLP.Chemscore.Internal.Correction>
0.0478

> <Gold.Rescore>
     Score         DG    S(hbond)    S(metal)    S(lipo)     H(rot)  DE(clash)    DE(int)     intcor
     18.15     -18.48       0.87        0.00     120.46       1.56       0.02       0.31       ----

> <Gold.Chemscore.Fitness>
18.1520

> <Gold.Chemscore.DG>
-18.4787

> <Gold.Chemscore.ZeroCoef>
-5.4800

> <Gold.Chemscore.Hbond>
0.8708

> <Gold.Chemscore.Metal>
0.0000

> <Gold.Chemscore.Lipo>
120.4629

> <Gold.Chemscore.Internal_Hbond>
0.0000

> <Gold.Chemscore.DEClash>
0.0177

> <Gold.Chemscore.DEInternal>
0.3090

> <Gold.Chemscore.Rot>
1.5640

> <Gold.Chemscore.Internal.Correction>
   9.000000E+99

> <Gold.Chemscore.Hbonds>
donor molecule, donor type, donor heavy atom, donor atom, acceptor molecule, acceptor atom, score
      P1  H  7997  8008       L1     1  0.14

> <Gold.Chemscore.Hbond.Weighted>
-2.9083

> <Gold.Chemscore.Metal.Weighted>
-0.0000

> <Gold.Chemscore.Lipo.Weighted>
-14.0942

> <Gold.Chemscore.Internal_Hbond.Weighted>
0.0000

> <Gold.Chemscore.DEClash.Weighted>
0.0177

> <Gold.Chemscore.DEInternal.Weighted>
0.3090

> <Gold.Chemscore.Rot.Weighted>
4.0038

> <Gold.Chemscore.Internal.Correction.Weighted>
   9.000000E+99

> <Gold.Protein.RotatedTorsions>
[ 6907 6896 6895 6894 ] final  -71.39 input  -60.11 | X-H torsion
[ 7974 7965 7964 7962 ] final  138.05 input  175.53 | X-H torsion
[ 8008 7997 7996 7995 ] final  -85.37 input   59.86 | X-H torsion
[ 10167 10162 10161 10158 ] final   92.01 input  -65.29 | X-H torsion
[ 10718 10713 10712 10709 ] final -112.40 input   66.30 | X-H torsion
[ 10763 10752 10751 10750 ] final  -23.41 input  -60.55 | X-H torsion
[ 11005 11000 10999 10996 ] final   88.36 input  -57.11 | X-H torsion

> <Gold.Protein.ActiveResidues>
 VAL166  LYS551  ARG553  GLY616  TRP617  ASP618  TYR619  PRO620  LYS621  CYS622 
 ASP623  PHE694  ASN695  SER759  ASP760  ASP761  ALA762  ILE779  LEU786  VAL792 
 PHE793  MET794  SER795  GLU796  ALA797  LYS798  CYS799  TRP800  GLU811  SER814 

> <Gold.Protein.RotatedAtoms>
  150.7214  134.5315  159.5702 H   0  0  0  0  0  0  0  0  0  0  0  0  # atno 6907 bound_to 6896
  152.2847  134.7786  160.0399 H   0  0  0  0  0  0  0  0  0  0  0  0  # atno 6908 bound_to 6896
  151.8420  133.3390  159.3683 H   0  0  0  0  0  0  0  0  0  0  0  0  # atno 6909 bound_to 6896
  144.9409  139.4932  143.5572 H   0  0  0  0  0  0  0  0  0  0  0  0  # atno 7974 bound_to 7965
  154.6399  140.0592  156.9833 H   0  0  0  0  0  0  0  0  0  0  0  0  # atno 8008 bound_to 7997
  155.1533  140.3276  155.4408 H   0  0  0  0  0  0  0  0  0  0  0  0  # atno 8009 bound_to 7997
  156.2526  140.1943  156.6643 H   0  0  0  0  0  0  0  0  0  0  0  0  # atno 8010 bound_to 7997
  139.8319  144.6683  150.9390 H   0  0  0  0  0  0  0  0  0  0  0  0  # atno 10167 bound_to 10162
  156.0703  130.5918  150.8503 H   0  0  0  0  0  0  0  0  0  0  0  0  # atno 10718 bound_to 10713
  153.6674  135.6973  153.5158 H   0  0  0  0  0  0  0  0  0  0  0  0  # atno 10763 bound_to 10752
  153.2584  135.4252  155.0868 H   0  0  0  0  0  0  0  0  0  0  0  0  # atno 10764 bound_to 10752
  154.8436  135.3549  154.6219 H   0  0  0  0  0  0  0  0  0  0  0  0  # atno 10765 bound_to 10752
  139.8898  134.8483  156.2990 H   0  0  0  0  0  0  0  0  0  0  0  0  # atno 11005 bound_to 11000
  146.3285  139.8428  142.8887 LP  0  0  0  0  0  0  0  0  0  0  0  0  # atno 17320 bound_to 7965
  145.2992  141.0189  143.3618 LP  0  0  0  0  0  0  0  0  0  0  0  0  # atno 17321 bound_to 7965
  140.7806  143.3993  151.1176 LP  0  0  0  0  0  0  0  0  0  0  0  0  # atno 17342 bound_to 10162
  139.7646  143.8584  152.3108 LP  0  0  0  0  0  0  0  0  0  0  0  0  # atno 17343 bound_to 10162
  157.5770  131.0946  150.9329 LP  0  0  0  0  0  0  0  0  0  0  0  0  # atno 17370 bound_to 10713
  156.9533  130.5428  149.5283 LP  0  0  0  0  0  0  0  0  0  0  0  0  # atno 17371 bound_to 10713
  140.9926  133.7199  156.0837 LP  0  0  0  0  0  0  0  0  0  0  0  0  # atno 17394 bound_to 11000
  140.7605  134.3945  157.5526 LP  0  0  0  0  0  0  0  0  0  0  0  0  # atno 17395 bound_to 11000

$$$$
