AV-unprocessed.smi:2414|AV-procd|sdf|9538|dock4
  -GOLD-   2272013173D 1   1.00000     0.00000
 Structure written by MMmdl.
 43 44  0  0  0  0  0  0  0  0  1 V2000
  151.6631  140.3315  158.4087 C   0  0  0  0  0  0  0  0  0  0  0  0
  151.0806  140.1249  157.0519 C   0  0  0  0  0  0  0  0  0  0  0  0
  151.7357  139.7571  155.9028 C   0  0  0  0  0  0  0  0  0  0  0  0
  150.9032  139.6558  154.7860 N   0  0  0  0  0  0  0  0  0  0  0  0
  149.6288  139.9379  155.0717 C   0  0  0  0  0  0  0  0  0  0  0  0
  148.5249  139.9360  154.0577 C   0  0  2  0  0  0  0  0  0  0  0  0
  147.9434  141.3383  153.8310 C   0  0  0  0  0  0  0  0  0  0  0  0
  147.4399  138.8722  154.3400 C   0  0  0  0  0  0  0  0  0  0  0  0
  147.3490  137.8620  153.2900 N   0  0  0  0  0  0  0  0  0  0  0  0
  146.2106  137.4364  152.7272 C   0  0  0  0  0  0  0  0  0  0  0  0
  145.0892  137.8115  153.0693 O   0  0  0  0  0  0  0  0  0  0  0  0
  146.4477  136.5749  151.7295 N   0  0  0  0  0  0  0  0  0  0  0  0
  145.4376  135.9543  150.8764 C   0  0  0  0  0  0  0  0  0  0  0  0
  145.1331  134.4928  151.2791 C   0  0  1  0  0  0  0  0  0  0  0  0
  144.6345  134.4381  152.7336 C   0  0  0  0  0  0  0  0  0  0  0  0
  144.1532  133.7642  150.3374 C   0  0  0  0  0  0  0  0  0  0  0  0
  144.7332  132.3695  150.2523 C   0  0  0  0  0  0  0  0  0  0  0  0
  146.2248  132.6650  150.3007 C   0  0  0  0  0  0  0  0  0  0  0  0
  146.3436  133.7318  151.2346 O   0  0  0  0  0  0  0  0  0  0  0  0
  149.3751  140.3460  156.7648 S   0  0  0  0  0  0  0  0  0  0  0  0
  152.7313  140.1136  158.4151 H   0  0  0  0  0  0  0  0  0  0  0  0
  151.1821  139.6809  159.1391 H   0  0  0  0  0  0  0  0  0  0  0  0
  151.5292  141.3630  158.7339 H   0  0  0  0  0  0  0  0  0  0  0  0
  152.7900  139.5523  155.7885 H   0  0  0  0  0  0  0  0  0  0  0  0
  148.9918  139.6545  153.1131 H   0  0  0  0  0  0  0  0  0  0  0  0
  148.7212  142.0414  153.5316 H   0  0  0  0  0  0  0  0  0  0  0  0
  147.4755  141.7242  154.7372 H   0  0  0  0  0  0  0  0  0  0  0  0
  147.1878  141.3270  153.0453 H   0  0  0  0  0  0  0  0  0  0  0  0
  147.6772  138.3488  155.2667 H   0  0  0  0  0  0  0  0  0  0  0  0
  146.4682  139.3443  154.4936 H   0  0  0  0  0  0  0  0  0  0  0  0
  148.2203  137.4923  152.9391 H   0  0  0  0  0  0  0  0  0  0  0  0
  147.4087  136.3435  151.5246 H   0  0  0  0  0  0  0  0  0  0  0  0
  144.5322  136.5546  150.9681 H   0  0  0  0  0  0  0  0  0  0  0  0
  145.7245  136.0021  149.8245 H   0  0  0  0  0  0  0  0  0  0  0  0
  143.7029  134.9923  152.8526 H   0  0  0  0  0  0  0  0  0  0  0  0
  145.3659  134.8700  153.4173 H   0  0  0  0  0  0  0  0  0  0  0  0
  144.4531  133.4120  153.0552 H   0  0  0  0  0  0  0  0  0  0  0  0
  143.1236  133.7710  150.6963 H   0  0  0  0  0  0  0  0  0  0  0  0
  144.1482  134.2041  149.3414 H   0  0  0  0  0  0  0  0  0  0  0  0
  144.4358  131.7800  151.1204 H   0  0  0  0  0  0  0  0  0  0  0  0
  144.4305  131.8323  149.3535 H   0  0  0  0  0  0  0  0  0  0  0  0
  146.8180  131.8010  150.5996 H   0  0  0  0  0  0  0  0  0  0  0  0
  146.5795  133.0037  149.3261 H   0  0  0  0  0  0  0  0  0  0  0  0
  1  2  1  0  0  0  0
  1 21  1  0  0  0  0
  1 22  1  0  0  0  0
  1 23  1  0  0  0  0
  2 20  1  0  0  0  0
  2  3  2  0  0  0  0
  3  4  1  0  0  0  0
  3 24  1  0  0  0  0
  4  5  2  0  0  0  0
  5  6  1  0  0  0  0
  5 20  1  0  0  0  0
  6  7  1  0  0  0  0
  6  8  1  0  0  0  0
  6 25  1  0  0  0  0
  7 26  1  0  0  0  0
  7 27  1  0  0  0  0
  7 28  1  0  0  0  0
  8  9  1  0  0  0  0
  8 29  1  0  0  0  0
  8 30  1  0  0  0  0
  9 10  1  0  0  0  0
  9 31  1  0  0  0  0
 10 11  2  0  0  0  0
 10 12  1  0  0  0  0
 12 13  1  0  0  0  0
 12 32  1  0  0  0  0
 13 14  1  0  0  0  0
 13 33  1  0  0  0  0
 13 34  1  0  0  0  0
 14 19  1  0  0  0  0
 14 15  1  0  0  0  0
 14 16  1  0  0  0  0
 15 35  1  0  0  0  0
 15 36  1  0  0  0  0
 15 37  1  0  0  0  0
 16 17  1  0  0  0  0
 16 38  1  0  0  0  0
 16 39  1  0  0  0  0
 17 18  1  0  0  0  0
 17 40  1  0  0  0  0
 17 41  1  0  0  0  0
 18 19  1  0  0  0  0
 18 42  1  0  0  0  0
 18 43  1  0  0  0  0
M  END
> <s_m_source_file>
AV-unprocessed.smi

> <i_m_source_file_index>
2414

> <i_lp_mmshare_version>
43012

> <i_f3d_flags>
0

> <s_epik_input>
W0NIM11jMVtjSF1uYyhzMSlbQ0BIXShbQ0gzXSlbQ0gyXVtOSF1DKD1PKVtOSF1bQ0gyXVtDQEBdMihbQ0gzXSlbQ0gyXVtDSDJdW0NIMl1PMg==

> <s_epik_cmdline>
J2VwaWtfcHl0aG9uJywgJy1waCcsICc3LjAnLCAnLXRuJywgJzgnLCAnLW1hJywgJzIwMCcsICctbWV0YWxfYmluZGluZycsICctaW1hZScsICc8aW5maWxlLm1hZT4nLCAnLW9tYWUnLCAnPG91dGZpbGUubWFlPic=

> <r_epik_Ionization_Penalty>
0.000646956

> <r_epik_Ionization_Penalty_Charging>
0

> <r_epik_Ionization_Penalty_Neutral>
0.000646956

> <r_epik_State_Penalty>
0.000375727

> <r_epik_Charging_Adjusted_Penalty>
0.000375727

> <i_epik_Tot_Q>
0

> <i_epik_Tot_abs_Q>
0

> <r_epik_Metal_State_Penalty>
-0

> <b_epik_Metal_Only>
0

> <s_lp_Force_Field>
OPLS_2005

> <r_lp_Energy>
5.80605

> <b_lp_Chiralities_Consistent>
1

> <s_lp_Variant>
AV-unprocessed.smi:2414-1

> <Gold.Version>
5.8.1

> <Gold.Id.Protein>
6NUR|6NUR_protein|mol2

> <Gold.PLP.Fitness>
41.6769

> <Gold.PLP.PLP>
-34.7953

> <Gold.PLP.part.hbond>
-3.0000

> <Gold.PLP.part.metal>
0.0000

> <Gold.PLP.part.buried>
-4.0045

> <Gold.PLP.part.nonpolar>
-28.5299

> <Gold.PLP.part.repulsive>
0.7856

> <Gold.PLP.ligand.clash>
0.0000

> <Gold.PLP.ligand.torsion>
0.9908

> <Gold.PLP.Chemscore.Hbond>
2.9120

> <Gold.PLP.Chemscore.CHOScore>
0.0000

> <Gold.PLP.Chemscore.Metal>
0.0000

> <Gold.Chemscore.Hbonds>
donor molecule, donor type, donor heavy atom, donor atom, acceptor molecule, acceptor atom, score
      L1  H     9    31       P1  7948  0.90
      L1  H    12    32       P1  7948  1.00
      P1  H  7989  7998       L1     4  1.00

> <Gold.PLP.Chemscore.Internal.Correction>
0.1272

> <Gold.Rescore>
     Score         DG    S(hbond)    S(metal)    S(lipo)     H(rot)  DE(clash)    DE(int)     intcor
     18.82     -20.17       2.69        0.00      84.94       1.65       0.09       1.26       ----

> <Gold.Chemscore.Fitness>
18.8166

> <Gold.Chemscore.DG>
-20.1698

> <Gold.Chemscore.ZeroCoef>
-5.4800

> <Gold.Chemscore.Hbond>
2.6888

> <Gold.Chemscore.Metal>
0.0000

> <Gold.Chemscore.Lipo>
84.9448

> <Gold.Chemscore.Internal_Hbond>
0.0000

> <Gold.Chemscore.DEClash>
0.0906

> <Gold.Chemscore.DEInternal>
1.2625

> <Gold.Chemscore.Rot>
1.6522

> <Gold.Chemscore.Internal.Correction>
   9.000000E+99

> <Gold.Chemscore.Hbonds>
donor molecule, donor type, donor heavy atom, donor atom, acceptor molecule, acceptor atom, score
      L1  H     9    31       P1  7948  0.88
      L1  H    12    32       P1  7948  0.94
      P1  H  7989  7998       L1     4  0.41

> <Gold.Chemscore.Hbond.Weighted>
-8.9808

> <Gold.Chemscore.Metal.Weighted>
-0.0000

> <Gold.Chemscore.Lipo.Weighted>
-9.9385

> <Gold.Chemscore.Internal_Hbond.Weighted>
0.0000

> <Gold.Chemscore.DEClash.Weighted>
0.0906

> <Gold.Chemscore.DEInternal.Weighted>
1.2625

> <Gold.Chemscore.Rot.Weighted>
4.2295

> <Gold.Chemscore.Internal.Correction.Weighted>
   9.000000E+99

> <Gold.Protein.RotatedTorsions>
[ 6907 6896 6895 6894 ] final   52.19 input  -60.11 | X-H torsion
[ 7974 7965 7964 7962 ] final -121.32 input  175.53 | X-H torsion
[ 8008 7997 7996 7995 ] final -101.86 input   59.86 | X-H torsion
[ 10167 10162 10161 10158 ] final  -48.58 input  -65.29 | X-H torsion
[ 10718 10713 10712 10709 ] final -104.18 input   66.30 | X-H torsion
[ 10763 10752 10751 10750 ] final  -83.16 input  -60.55 | X-H torsion
[ 11005 11000 10999 10996 ] final   37.82 input  -57.11 | X-H torsion

> <Gold.Protein.ActiveResidues>
 VAL166  LYS551  ARG553  GLY616  TRP617  ASP618  TYR619  PRO620  LYS621  CYS622 
 ASP623  PHE694  ASN695  SER759  ASP760  ASP761  ALA762  ILE779  LEU786  VAL792 
 PHE793  MET794  SER795  GLU796  ALA797  LYS798  CYS799  TRP800  GLU811  SER814 

> <Gold.Protein.RotatedAtoms>
  152.3207  134.7384  160.0314 H   0  0  0  0  0  0  0  0  0  0  0  0  # atno 6907 bound_to 6896
  151.7833  133.3346  159.3486 H   0  0  0  0  0  0  0  0  0  0  0  0  # atno 6908 bound_to 6896
  150.7368  134.5841  159.5998 H   0  0  0  0  0  0  0  0  0  0  0  0  # atno 6909 bound_to 6896
  145.0416  140.8149  143.4263 H   0  0  0  0  0  0  0  0  0  0  0  0  # atno 7974 bound_to 7965
  154.8485  140.0432  157.1589 H   0  0  0  0  0  0  0  0  0  0  0  0  # atno 8008 bound_to 7997
  154.8968  140.2994  155.5319 H   0  0  0  0  0  0  0  0  0  0  0  0  # atno 8009 bound_to 7997
  156.2995  140.2383  156.3991 H   0  0  0  0  0  0  0  0  0  0  0  0  # atno 8010 bound_to 7997
  140.6724  143.2734  151.4091 H   0  0  0  0  0  0  0  0  0  0  0  0  # atno 10167 bound_to 10162
  156.0294  130.5503  150.7360 H   0  0  0  0  0  0  0  0  0  0  0  0  # atno 10718 bound_to 10713
  154.5844  135.5566  153.7216 H   0  0  0  0  0  0  0  0  0  0  0  0  # atno 10763 bound_to 10752
  153.0093  135.6328  154.1938 H   0  0  0  0  0  0  0  0  0  0  0  0  # atno 10764 bound_to 10752
  154.1878  135.2884  155.3011 H   0  0  0  0  0  0  0  0  0  0  0  0  # atno 10765 bound_to 10752
  140.2187  134.3666  155.8015 H   0  0  0  0  0  0  0  0  0  0  0  0  # atno 11005 bound_to 11000
  145.1641  139.2442  143.5376 LP  0  0  0  0  0  0  0  0  0  0  0  0  # atno 17320 bound_to 7965
  146.3510  140.1375  142.8595 LP  0  0  0  0  0  0  0  0  0  0  0  0  # atno 17321 bound_to 7965
  139.5999  144.1317  152.2187 LP  0  0  0  0  0  0  0  0  0  0  0  0  # atno 17342 bound_to 10162
  140.0698  144.5789  150.7200 LP  0  0  0  0  0  0  0  0  0  0  0  0  # atno 17343 bound_to 10162
  157.4941  131.0913  151.0393 LP  0  0  0  0  0  0  0  0  0  0  0  0  # atno 17370 bound_to 10713
  157.0791  130.5896  149.5417 LP  0  0  0  0  0  0  0  0  0  0  0  0  # atno 17371 bound_to 10713
  141.2224  133.7182  156.8540 LP  0  0  0  0  0  0  0  0  0  0  0  0  # atno 17394 bound_to 11000
  140.1872  134.8991  157.3018 LP  0  0  0  0  0  0  0  0  0  0  0  0  # atno 17395 bound_to 11000

$$$$
