AV-unprocessed.smi:2066|AV-procd|sdf|8419|dock10
  -GOLD-   2272011113D 1   1.00000     0.00000
 Structure written by MMmdl.
 39 40  0  0  0  0  0  0  0  0  1 V2000
  149.9318  135.7427  157.1271 C   0  0  0  0  0  0  0  0  0  0  0  0
  149.6433  135.7741  155.6068 C   0  0  0  0  0  0  0  0  0  0  0  0
  150.3504  134.5422  154.9861 C   0  0  0  0  0  0  0  0  0  0  0  0
  148.1122  135.5489  155.4261 C   0  0  0  0  0  0  0  0  0  0  0  0
  147.7327  135.2917  154.0366 N   0  0  0  0  0  0  0  0  0  0  0  0
  146.7214  134.5102  153.6320 C   0  0  0  0  0  0  0  0  0  0  0  0
  145.9621  133.9243  154.4045 O   0  0  0  0  0  0  0  0  0  0  0  0
  146.6613  134.4517  152.2902 N   0  0  0  0  0  0  0  0  0  0  0  0
  145.7550  133.7145  151.4839 C   0  0  0  0  0  0  0  0  0  0  0  0
  144.4282  133.7023  151.6574 N   0  0  0  0  0  0  0  0  0  0  0  0
  143.7842  132.8891  150.7216 C   0  0  0  0  0  0  0  0  0  0  0  0
  144.6423  132.2852  149.8368 C   0  0  0  0  0  0  0  0  0  0  0  0
  146.3034  132.7175  150.1444 S   0  0  0  0  0  0  0  0  0  0  0  0
  150.0942  137.0351  154.9533 N   0  0  0  0  0  0  0  0  0  0  0  0
  151.5079  137.3689  155.1614 C   0  0  0  0  0  0  0  0  0  0  0  0
  151.9330  138.6091  154.3569 C   0  0  0  0  0  0  0  0  0  0  0  0
  151.1033  139.7121  154.7006 O   0  0  0  0  0  0  0  0  0  0  0  0
  149.7262  139.4506  154.4597 C   0  0  0  0  0  0  0  0  0  0  0  0
  149.2840  138.2182  155.2668 C   0  0  0  0  0  0  0  0  0  0  0  0
  149.6009  134.8011  157.5671 H   0  0  0  0  0  0  0  0  0  0  0  0
  149.4126  136.5378  157.6616 H   0  0  0  0  0  0  0  0  0  0  0  0
  150.9951  135.8338  157.3475 H   0  0  0  0  0  0  0  0  0  0  0  0
  149.8932  133.6091  155.3176 H   0  0  0  0  0  0  0  0  0  0  0  0
  151.4012  134.4824  155.2694 H   0  0  0  0  0  0  0  0  0  0  0  0
  150.3048  134.5571  153.8968 H   0  0  0  0  0  0  0  0  0  0  0  0
  147.7693  134.7376  156.0709 H   0  0  0  0  0  0  0  0  0  0  0  0
  147.5489  136.4174  155.7662 H   0  0  0  0  0  0  0  0  0  0  0  0
  148.3062  135.7258  153.3285 H   0  0  0  0  0  0  0  0  0  0  0  0
  147.3527  134.9870  151.7862 H   0  0  0  0  0  0  0  0  0  0  0  0
  142.7085  132.7973  150.7582 H   0  0  0  0  0  0  0  0  0  0  0  0
  144.3984  131.6148  149.0261 H   0  0  0  0  0  0  0  0  0  0  0  0
  151.7005  137.5525  156.2183 H   0  0  0  0  0  0  0  0  0  0  0  0
  152.1512  136.5441  154.8604 H   0  0  0  0  0  0  0  0  0  0  0  0
  152.9707  138.8633  154.5732 H   0  0  0  0  0  0  0  0  0  0  0  0
  151.8673  138.4149  153.2851 H   0  0  0  0  0  0  0  0  0  0  0  0
  149.1419  140.3237  154.7504 H   0  0  0  0  0  0  0  0  0  0  0  0
  149.5585  139.2937  153.3929 H   0  0  0  0  0  0  0  0  0  0  0  0
  148.2323  138.0402  155.0502 H   0  0  0  0  0  0  0  0  0  0  0  0
  149.3534  138.4518  156.3293 H   0  0  0  0  0  0  0  0  0  0  0  0
  1  2  1  0  0  0  0
  1 20  1  0  0  0  0
  1 21  1  0  0  0  0
  1 22  1  0  0  0  0
  2  3  1  0  0  0  0
  2  4  1  0  0  0  0
  2 14  1  0  0  0  0
  3 23  1  0  0  0  0
  3 24  1  0  0  0  0
  3 25  1  0  0  0  0
  4  5  1  0  0  0  0
  4 26  1  0  0  0  0
  4 27  1  0  0  0  0
  5  6  1  0  0  0  0
  5 28  1  0  0  0  0
  6  7  2  0  0  0  0
  6  8  1  0  0  0  0
  8  9  1  0  0  0  0
  8 29  1  0  0  0  0
  9 13  1  0  0  0  0
  9 10  2  0  0  0  0
 10 11  1  0  0  0  0
 11 12  2  0  0  0  0
 11 30  1  0  0  0  0
 12 13  1  0  0  0  0
 12 31  1  0  0  0  0
 14 19  1  0  0  0  0
 14 15  1  0  0  0  0
 15 16  1  0  0  0  0
 15 32  1  0  0  0  0
 15 33  1  0  0  0  0
 16 17  1  0  0  0  0
 16 34  1  0  0  0  0
 16 35  1  0  0  0  0
 17 18  1  0  0  0  0
 18 19  1  0  0  0  0
 18 36  1  0  0  0  0
 18 37  1  0  0  0  0
 19 38  1  0  0  0  0
 19 39  1  0  0  0  0
M  END
> <s_m_source_file>
AV-unprocessed.smi

> <i_m_source_file_index>
2066

> <i_lp_mmshare_version>
43012

> <i_f3d_flags>
0

> <s_epik_input>
W0NIMl0xW0NIMl1PW0NIMl1bQ0gyXU4xQyhbQ0gzXSkoW0NIM10pW0NIMl1bTkhdQyg9TylbTkhdYzJuW2NIXVtjSF1zMg==

> <s_epik_cmdline>
J2VwaWtfcHl0aG9uJywgJy1waCcsICc3LjAnLCAnLXRuJywgJzgnLCAnLW1hJywgJzIwMCcsICctbWV0YWxfYmluZGluZycsICctaW1hZScsICc8aW5maWxlLm1hZT4nLCAnLW9tYWUnLCAnPG91dGZpbGUubWFlPic=

> <r_lp_tautomer_probability>
0.999

> <r_epik_Ionization_Penalty>
0.219202

> <r_epik_Ionization_Penalty_Charging>
0

> <r_epik_Ionization_Penalty_Neutral>
0.219202

> <r_epik_State_Penalty>
0.209349

> <r_epik_Charging_Adjusted_Penalty>
0.209349

> <i_epik_Tot_Q>
0

> <i_epik_Tot_abs_Q>
0

> <r_epik_Metal_State_Penalty>
0.2479

> <b_epik_Metal_Only>
0

> <s_lp_Force_Field>
OPLS_2005

> <r_lp_Energy>
39.7757

> <b_lp_Chiralities_Consistent>
1

> <s_lp_Variant>
AV-unprocessed.smi:2066-1

> <Gold.Version>
5.8.1

> <Gold.Id.Protein>
6NUR|6NUR_protein|mol2

> <Gold.PLP.Fitness>
39.4741

> <Gold.PLP.PLP>
-28.9899

> <Gold.PLP.part.hbond>
-3.0000

> <Gold.PLP.part.metal>
0.0000

> <Gold.PLP.part.buried>
-5.7790

> <Gold.PLP.part.nonpolar>
-21.1398

> <Gold.PLP.part.repulsive>
0.4364

> <Gold.PLP.ligand.clash>
0.0000

> <Gold.PLP.ligand.torsion>
0.7780

> <Gold.PLP.Chemscore.Hbond>
3.0000

> <Gold.PLP.Chemscore.CHOScore>
0.9922

> <Gold.PLP.Chemscore.Metal>
0.0000

> <Gold.Chemscore.Hbonds>
donor molecule, donor type, donor heavy atom, donor atom, acceptor molecule, acceptor atom, score
      L1  H     5    28       P1  7948  1.00
      L1  H     8    29       P1  7948  0.99
      P1  H  7989  7998       L1    17  0.95
      L1  C    11    30       P1 10186  0.66

> <Gold.PLP.Chemscore.Internal.Correction>
0.0637

> <Gold.Rescore>
     Score         DG    S(hbond)    S(metal)    S(lipo)     H(rot)  DE(clash)    DE(int)     intcor
     15.64     -16.55       2.14        0.00      68.05       1.58       0.19       0.72       ----

> <Gold.Chemscore.Fitness>
15.6382

> <Gold.Chemscore.DG>
-16.5480

> <Gold.Chemscore.ZeroCoef>
-5.4800

> <Gold.Chemscore.Hbond>
2.1417

> <Gold.Chemscore.Metal>
0.0000

> <Gold.Chemscore.Lipo>
68.0456

> <Gold.Chemscore.Internal_Hbond>
0.0000

> <Gold.Chemscore.DEClash>
0.1889

> <Gold.Chemscore.DEInternal>
0.7208

> <Gold.Chemscore.Rot>
1.5807

> <Gold.Chemscore.Internal.Correction>
   9.000000E+99

> <Gold.Chemscore.Hbonds>
donor molecule, donor type, donor heavy atom, donor atom, acceptor molecule, acceptor atom, score
      L1  H     5    28       P1  7948  1.00
      L1  H     8    29       P1  7948  0.78
      P1  H  7989  7998       L1    17  0.14

> <Gold.Chemscore.Hbond.Weighted>
-7.1532

> <Gold.Chemscore.Metal.Weighted>
-0.0000

> <Gold.Chemscore.Lipo.Weighted>
-7.9613

> <Gold.Chemscore.Internal_Hbond.Weighted>
0.0000

> <Gold.Chemscore.DEClash.Weighted>
0.1889

> <Gold.Chemscore.DEInternal.Weighted>
0.7208

> <Gold.Chemscore.Rot.Weighted>
4.0466

> <Gold.Chemscore.Internal.Correction.Weighted>
   9.000000E+99

> <Gold.Protein.RotatedTorsions>
[ 6907 6896 6895 6894 ] final -140.98 input  -60.11 | X-H torsion
[ 7974 7965 7964 7962 ] final -116.33 input  175.53 | X-H torsion
[ 8008 7997 7996 7995 ] final -105.25 input   59.86 | X-H torsion
[ 10167 10162 10161 10158 ] final -118.74 input  -65.29 | X-H torsion
[ 10718 10713 10712 10709 ] final  144.94 input   66.30 | X-H torsion
[ 10763 10752 10751 10750 ] final -168.02 input  -60.55 | X-H torsion
[ 11005 11000 10999 10996 ] final  153.52 input  -57.11 | X-H torsion

> <Gold.Protein.ActiveResidues>
 VAL166  LYS551  ARG553  GLY616  TRP617  ASP618  TYR619  PRO620  LYS621  CYS622 
 ASP623  PHE694  ASN695  SER759  ASP760  ASP761  ALA762  ILE779  LEU786  VAL792 
 PHE793  MET794  SER795  GLU796  ALA797  LYS798  CYS799  TRP800  GLU811  SER814 

> <Gold.Protein.RotatedAtoms>
  151.0678  133.5490  159.2629 H   0  0  0  0  0  0  0  0  0  0  0  0  # atno 6907 bound_to 6896
  151.2441  135.0598  159.9046 H   0  0  0  0  0  0  0  0  0  0  0  0  # atno 6908 bound_to 6896
  152.5407  134.0449  159.8138 H   0  0  0  0  0  0  0  0  0  0  0  0  # atno 6909 bound_to 6896
  145.0980  140.8533  143.3943 H   0  0  0  0  0  0  0  0  0  0  0  0  # atno 7974 bound_to 7965
  154.8971  140.0414  157.1872 H   0  0  0  0  0  0  0  0  0  0  0  0  # atno 8008 bound_to 7997
  154.8482  140.2925  155.5594 H   0  0  0  0  0  0  0  0  0  0  0  0  # atno 8009 bound_to 7997
  156.2995  140.2470  156.3436 H   0  0  0  0  0  0  0  0  0  0  0  0  # atno 8010 bound_to 7997
  140.0542  143.5030  152.2066 H   0  0  0  0  0  0  0  0  0  0  0  0  # atno 10167 bound_to 10162
  157.3512  131.0951  151.0998 H   0  0  0  0  0  0  0  0  0  0  0  0  # atno 10718 bound_to 10713
  154.6672  135.2933  154.9790 H   0  0  0  0  0  0  0  0  0  0  0  0  # atno 10763 bound_to 10752
  154.0830  135.6602  153.4844 H   0  0  0  0  0  0  0  0  0  0  0  0  # atno 10764 bound_to 10752
  153.0464  135.5202  154.7650 H   0  0  0  0  0  0  0  0  0  0  0  0  # atno 10765 bound_to 10752
  140.1405  134.8742  157.2325 H   0  0  0  0  0  0  0  0  0  0  0  0  # atno 11005 bound_to 11000
  145.0989  139.2837  143.5696 LP  0  0  0  0  0  0  0  0  0  0  0  0  # atno 17320 bound_to 7965
  146.3530  140.0549  142.8633 LP  0  0  0  0  0  0  0  0  0  0  0  0  # atno 17321 bound_to 7965
  139.5934  144.7558  151.3346 LP  0  0  0  0  0  0  0  0  0  0  0  0  # atno 17342 bound_to 10162
  140.7202  143.7156  150.7735 LP  0  0  0  0  0  0  0  0  0  0  0  0  # atno 17343 bound_to 10162
  157.2173  130.6465  149.5797 LP  0  0  0  0  0  0  0  0  0  0  0  0  # atno 17370 bound_to 10713
  155.9722  130.4640  150.6203 LP  0  0  0  0  0  0  0  0  0  0  0  0  # atno 17371 bound_to 10713
  140.2727  134.3441  155.7368 LP  0  0  0  0  0  0  0  0  0  0  0  0  # atno 17394 bound_to 11000
  141.2185  133.7433  156.9247 LP  0  0  0  0  0  0  0  0  0  0  0  0  # atno 17395 bound_to 11000

$$$$
