AV-unprocessed.smi:36|AV-procd|sdf|291|dock8
  -GOLD-   2262016 83D 1   1.00000     0.00000
 Structure written by MMmdl.
 64 67  0  0  0  0  0  0  0  0  1 V2000
  147.6623  135.6255  162.4184 C   0  0  0  0  0  0  0  0  0  0  0  0
  146.6638  134.5595  161.9374 C   0  0  0  0  0  0  0  0  0  0  0  0
  147.2904  133.1618  162.0821 C   0  0  0  0  0  0  0  0  0  0  0  0
  145.3700  134.6427  162.7645 C   0  0  0  0  0  0  0  0  0  0  0  0
  146.2607  134.8669  160.0960 Si  0  0  0  0  0  0  0  0  0  0  0  0
  144.8469  133.7359  159.5135 C   0  0  0  0  0  0  0  0  0  0  0  0
  145.7933  136.6814  159.7847 C   0  0  0  0  0  0  0  0  0  0  0  0
  147.6574  134.5278  159.2003 O   0  0  0  0  0  0  0  0  0  0  0  0
  147.6934  134.4165  157.7919 C   0  0  0  0  0  0  0  0  0  0  0  0
  149.0348  134.9638  157.2790 C   0  0  2  0  0  0  0  0  0  0  0  0
  148.8364  135.9412  156.2654 O   0  0  0  0  0  0  0  0  0  0  0  0
  149.9948  136.0664  155.4959 C   0  0  1  0  0  0  0  0  0  0  0  0
  150.7088  137.3198  155.8964 N   0  0  0  0  0  0  0  0  0  0  0  0
  151.0847  138.3542  155.1176 C   0  0  0  0  0  0  0  0  0  0  0  0
  151.7089  139.3454  155.7496 N   0  0  0  0  0  0  0  0  0  0  0  0
  151.7375  138.8972  157.0661 C   0  0  0  0  0  0  0  0  0  0  0  0
  152.2977  139.5267  158.2820 C   0  0  0  0  0  0  0  0  0  0  0  0
  152.8571  140.6921  158.1560 N   0  0  0  0  0  0  0  0  0  0  0  0
  153.4177  141.3201  159.2612 C   0  0  0  0  0  0  0  0  0  0  0  0
  154.2062  140.8605  160.0921 O   0  0  0  0  0  0  0  0  0  0  0  0
  152.9101  142.7104  159.4738 C   0  0  0  0  0  0  0  0  0  0  0  0
  152.4859  143.4889  158.3753 C   0  0  0  0  0  0  0  0  0  0  0  0
  152.0060  144.7973  158.5798 C   0  0  0  0  0  0  0  0  0  0  0  0
  151.9497  145.3324  159.8813 C   0  0  0  0  0  0  0  0  0  0  0  0
  152.3727  144.5589  160.9794 C   0  0  0  0  0  0  0  0  0  0  0  0
  152.8509  143.2494  160.7768 C   0  0  0  0  0  0  0  0  0  0  0  0
  152.0961  138.6890  159.3868 N   0  0  0  0  0  0  0  0  0  0  0  0
  151.4544  137.4409  159.3679 C   0  0  0  0  0  0  0  0  0  0  0  0
  150.9528  136.8747  158.3029 N   0  0  0  0  0  0  0  0  0  0  0  0
  151.1330  137.6636  157.1755 C   0  0  0  0  0  0  0  0  0  0  0  0
  150.8779  134.8427  155.7864 C   0  0  0  0  0  0  0  0  0  0  0  0
  149.9657  133.9492  156.6085 C   0  0  2  0  0  0  0  0  0  0  0  0
  149.2581  133.0497  155.7758 O   0  0  0  0  0  0  0  0  0  0  0  0
  147.9356  135.4703  163.4625 H   0  0  0  0  0  0  0  0  0  0  0  0
  147.2450  136.6292  162.3346 H   0  0  0  0  0  0  0  0  0  0  0  0
  148.5807  135.6013  161.8308 H   0  0  0  0  0  0  0  0  0  0  0  0
  148.2002  133.0722  161.4873 H   0  0  0  0  0  0  0  0  0  0  0  0
  146.6050  132.3809  161.7521 H   0  0  0  0  0  0  0  0  0  0  0  0
  147.5531  132.9498  163.1190 H   0  0  0  0  0  0  0  0  0  0  0  0
  145.5654  134.4719  163.8236 H   0  0  0  0  0  0  0  0  0  0  0  0
  144.6427  133.8976  162.4411 H   0  0  0  0  0  0  0  0  0  0  0  0
  144.9013  135.6228  162.6711 H   0  0  0  0  0  0  0  0  0  0  0  0
  143.9188  133.9553  160.0407 H   0  0  0  0  0  0  0  0  0  0  0  0
  145.0740  132.6842  159.6857 H   0  0  0  0  0  0  0  0  0  0  0  0
  144.6489  133.8554  158.4487 H   0  0  0  0  0  0  0  0  0  0  0  0
  144.9086  136.9708  160.3515 H   0  0  0  0  0  0  0  0  0  0  0  0
  145.5783  136.8626  158.7319 H   0  0  0  0  0  0  0  0  0  0  0  0
  146.5989  137.3571  160.0706 H   0  0  0  0  0  0  0  0  0  0  0  0
  147.5760  133.3700  157.5088 H   0  0  0  0  0  0  0  0  0  0  0  0
  146.8539  134.9635  157.3624 H   0  0  0  0  0  0  0  0  0  0  0  0
  149.5802  135.4304  158.0997 H   0  0  0  0  0  0  0  0  0  0  0  0
  149.7480  136.2027  154.4424 H   0  0  0  0  0  0  0  0  0  0  0  0
  150.8993  138.3861  154.0542 H   0  0  0  0  0  0  0  0  0  0  0  0
  152.5240  143.0855  157.3737 H   0  0  0  0  0  0  0  0  0  0  0  0
  151.6806  145.3906  157.7378 H   0  0  0  0  0  0  0  0  0  0  0  0
  151.5821  146.3360  160.0372 H   0  0  0  0  0  0  0  0  0  0  0  0
  152.3298  144.9688  161.9777 H   0  0  0  0  0  0  0  0  0  0  0  0
  153.1723  142.6623  161.6249 H   0  0  0  0  0  0  0  0  0  0  0  0
  151.4004  136.9557  160.3435 H   0  0  0  0  0  0  0  0  0  0  0  0
  151.2309  134.3843  154.8618 H   0  0  0  0  0  0  0  0  0  0  0  0
  151.7454  135.1413  156.3776 H   0  0  0  0  0  0  0  0  0  0  0  0
  150.5237  133.3691  157.3440 H   0  0  0  0  0  0  0  0  0  0  0  0
  148.7949  132.4337  156.3225 H   0  0  0  0  0  0  0  0  0  0  0  0
  152.4408  139.0158  160.2780 H   0  0  0  0  0  0  0  0  0  0  0  0
  1  2  1  0  0  0  0
  1 34  1  0  0  0  0
  1 35  1  0  0  0  0
  1 36  1  0  0  0  0
  2  3  1  0  0  0  0
  2  4  1  0  0  0  0
  2  5  1  0  0  0  0
  3 37  1  0  0  0  0
  3 38  1  0  0  0  0
  3 39  1  0  0  0  0
  4 40  1  0  0  0  0
  4 41  1  0  0  0  0
  4 42  1  0  0  0  0
  5  6  1  0  0  0  0
  5  7  1  0  0  0  0
  5  8  1  0  0  0  0
  6 43  1  0  0  0  0
  6 44  1  0  0  0  0
  6 45  1  0  0  0  0
  7 46  1  0  0  0  0
  7 47  1  0  0  0  0
  7 48  1  0  0  0  0
  8  9  1  0  0  0  0
  9 10  1  0  0  0  0
  9 49  1  0  0  0  0
  9 50  1  0  0  0  0
 10 32  1  0  0  0  0
 10 11  1  0  0  0  0
 10 51  1  0  0  0  0
 11 12  1  0  0  0  0
 12 13  1  0  0  0  0
 12 31  1  0  0  0  0
 12 52  1  0  0  0  0
 13 30  1  0  0  0  0
 13 14  1  0  0  0  0
 14 15  2  0  0  0  0
 14 53  1  0  0  0  0
 15 16  1  0  0  0  0
 16 30  2  0  0  0  0
 16 17  1  0  0  0  0
 17 18  2  0  0  0  0
 17 27  1  0  0  0  0
 18 19  1  0  0  0  0
 19 20  2  0  0  0  0
 19 21  1  0  0  0  0
 21 26  1  0  0  0  0
 21 22  2  0  0  0  0
 22 23  1  0  0  0  0
 22 54  1  0  0  0  0
 23 24  2  0  0  0  0
 23 55  1  0  0  0  0
 24 25  1  0  0  0  0
 24 56  1  0  0  0  0
 25 26  2  0  0  0  0
 25 57  1  0  0  0  0
 26 58  1  0  0  0  0
 27 28  1  0  0  0  0
 27 64  1  0  0  0  0
 28 29  2  0  0  0  0
 28 59  1  0  0  0  0
 29 30  1  0  0  0  0
 31 32  1  0  0  0  0
 31 60  1  0  0  0  0
 31 61  1  0  0  0  0
 32 33  1  0  0  0  0
 32 62  1  0  0  0  0
 33 63  1  0  0  0  0
M  END
> <s_m_source_file>
AV-unprocessed.smi

> <i_m_source_file_index>
36

> <i_lp_mmshare_version>
43012

> <i_f3d_flags>
0

> <s_epik_input>
W0NIM11DKFtDSDNdKShbQ0gzXSlbU2ldKFtDSDNdKShbQ0gzXSlPW0NIMl1bQ0BASF0xT1tDQEhdKFtDSDJdW0NASF0xW09IXSluKFtjSF1uMiljKGMyMyluW2NIXW5jM1tOSF1DKD1PKWM0W2NIXVtjSF1bY0hdW2NIXVtjSF00

> <s_epik_cmdline>
J2VwaWtfcHl0aG9uJywgJy1waCcsICc3LjAnLCAnLXRuJywgJzgnLCAnLW1hJywgJzIwMCcsICctbWV0YWxfYmluZGluZycsICctaW1hZScsICc8aW5maWxlLm1hZT4nLCAnLW9tYWUnLCAnPG91dGZpbGUubWFlPic=

> <r_epik_Ionization_Penalty>
0.0850405

> <r_epik_Ionization_Penalty_Charging>
0.0850403

> <r_epik_Ionization_Penalty_Neutral>
1.47497e-07

> <r_epik_State_Penalty>
2.6133

> <r_epik_Charging_Adjusted_Penalty>
2.69834

> <i_epik_Tot_Q>
0

> <i_epik_Tot_abs_Q>
0

> <r_epik_Metal_State_Penalty>
2.92945

> <b_epik_Metal_Only>
0

> <s_epik_Chemistry_Notes>
This compound contains an acetal/aminal-like group ( X-CH(R)-Y where X, Y are N, S, or O) that may be acid/base labile, releasing an aldehyde.

> <s_lp_Force_Field>
OPLS_2005

> <r_lp_Energy>
50.6146

> <b_lp_Chiralities_Consistent>
1

> <s_lp_Variant>
AV-unprocessed.smi:36-13

> <Gold.Version>
5.8.1

> <Gold.Id.Protein>
6NUR|6NUR_protein|mol2

> <Gold.PLP.Fitness>
51.4591

> <Gold.PLP.PLP>
-54.4560

> <Gold.PLP.part.hbond>
-1.4741

> <Gold.PLP.part.metal>
0.0000

> <Gold.PLP.part.buried>
-7.8818

> <Gold.PLP.part.nonpolar>
-45.6026

> <Gold.PLP.part.repulsive>
0.1437

> <Gold.PLP.ligand.clash>
0.0000

> <Gold.PLP.ligand.torsion>
2.0646

> <Gold.PLP.Chemscore.Hbond>
0.3514

> <Gold.PLP.Chemscore.CHOScore>
0.0000

> <Gold.PLP.Chemscore.Metal>
0.0000

> <Gold.Chemscore.Hbonds>
donor molecule, donor type, donor heavy atom, donor atom, acceptor molecule, acceptor atom, score
      P1  H  7997  8009       L1    18  0.47

> <Gold.PLP.Chemscore.Internal.Correction>
0.0782

> <Gold.Rescore>
     Score         DG    S(hbond)    S(metal)    S(lipo)     H(rot)  DE(clash)    DE(int)     intcor
     10.71     -13.77       0.03        0.00     129.16       2.70       0.07       2.99       ----

> <Gold.Chemscore.Fitness>
10.7066

> <Gold.Chemscore.DG>
-13.7669

> <Gold.Chemscore.ZeroCoef>
-5.4800

> <Gold.Chemscore.Hbond>
0.0292

> <Gold.Chemscore.Metal>
0.0000

> <Gold.Chemscore.Lipo>
129.1624

> <Gold.Chemscore.Internal_Hbond>
0.0000

> <Gold.Chemscore.DEClash>
0.0750

> <Gold.Chemscore.DEInternal>
2.9854

> <Gold.Chemscore.Rot>
2.7041

> <Gold.Chemscore.Internal.Correction>
   9.000000E+99

> <Gold.Chemscore.Hbonds>
donor molecule, donor type, donor heavy atom, donor atom, acceptor molecule, acceptor atom, score
      P1  H  7997  8009       L1    18  0.05

> <Gold.Chemscore.Hbond.Weighted>
-0.0974

> <Gold.Chemscore.Metal.Weighted>
-0.0000

> <Gold.Chemscore.Lipo.Weighted>
-15.1120

> <Gold.Chemscore.Internal_Hbond.Weighted>
0.0000

> <Gold.Chemscore.DEClash.Weighted>
0.0750

> <Gold.Chemscore.DEInternal.Weighted>
2.9854

> <Gold.Chemscore.Rot.Weighted>
6.9225

> <Gold.Chemscore.Internal.Correction.Weighted>
   9.000000E+99

> <Gold.Protein.RotatedTorsions>
[ 6907 6896 6895 6894 ] final -159.63 input  -60.11 | X-H torsion
[ 7974 7965 7964 7962 ] final  130.66 input  175.53 | X-H torsion
[ 8008 7997 7996 7995 ] final  161.47 input   59.86 | X-H torsion
[ 10167 10162 10161 10158 ] final -132.00 input  -65.29 | X-H torsion
[ 10718 10713 10712 10709 ] final -138.26 input   66.30 | X-H torsion
[ 10763 10752 10751 10750 ] final -114.89 input  -60.55 | X-H torsion
[ 11005 11000 10999 10996 ] final  -61.30 input  -57.11 | X-H torsion

> <Gold.Protein.ActiveResidues>
 VAL166  LYS551  ARG553  GLY616  TRP617  ASP618  TYR619  PRO620  LYS621  CYS622 
 ASP623  PHE694  ASN695  SER759  ASP760  ASP761  ALA762  ILE779  LEU786  VAL792 
 PHE793  MET794  SER795  GLU796  ALA797  LYS798  CYS799  TRP800  GLU811  SER814 

> <Gold.Protein.RotatedAtoms>
  151.3366  133.3979  159.2667 H   0  0  0  0  0  0  0  0  0  0  0  0  # atno 6907 bound_to 6896
  150.9912  134.9247  159.7911 H   0  0  0  0  0  0  0  0  0  0  0  0  # atno 6908 bound_to 6896
  152.5247  134.3331  159.9242 H   0  0  0  0  0  0  0  0  0  0  0  0  # atno 6909 bound_to 6896
  145.0155  139.4180  143.5223 H   0  0  0  0  0  0  0  0  0  0  0  0  # atno 7974 bound_to 7965
  156.2101  140.1776  156.7714 H   0  0  0  0  0  0  0  0  0  0  0  0  # atno 8008 bound_to 7997
  154.5710  140.0682  156.8994 H   0  0  0  0  0  0  0  0  0  0  0  0  # atno 8009 bound_to 7997
  155.2673  140.3340  155.4270 H   0  0  0  0  0  0  0  0  0  0  0  0  # atno 8010 bound_to 7997
  139.9131  143.6471  152.2571 H   0  0  0  0  0  0  0  0  0  0  0  0  # atno 10167 bound_to 10162
  156.2974  130.7409  151.1452 H   0  0  0  0  0  0  0  0  0  0  0  0  # atno 10718 bound_to 10713
  154.8459  135.4401  154.1577 H   0  0  0  0  0  0  0  0  0  0  0  0  # atno 10763 bound_to 10752
  153.2722  135.6946  153.7475 H   0  0  0  0  0  0  0  0  0  0  0  0  # atno 10764 bound_to 10752
  153.6712  135.3418  155.3129 H   0  0  0  0  0  0  0  0  0  0  0  0  # atno 10765 bound_to 10752
  141.1319  133.6629  156.5354 H   0  0  0  0  0  0  0  0  0  0  0  0  # atno 11005 bound_to 11000
  146.3477  139.9624  142.8716 LP  0  0  0  0  0  0  0  0  0  0  0  0  # atno 17320 bound_to 7965
  145.1965  140.9835  143.4180 LP  0  0  0  0  0  0  0  0  0  0  0  0  # atno 17321 bound_to 7965
  139.6926  144.7645  151.1413 LP  0  0  0  0  0  0  0  0  0  0  0  0  # atno 17342 bound_to 10162
  140.7680  143.5568  150.9142 LP  0  0  0  0  0  0  0  0  0  0  0  0  # atno 17343 bound_to 10162
  157.7359  131.0568  150.5445 LP  0  0  0  0  0  0  0  0  0  0  0  0  # atno 17370 bound_to 10713
  156.5568  130.4245  149.6081 LP  0  0  0  0  0  0  0  0  0  0  0  0  # atno 17371 bound_to 10713
  140.4182  134.7211  157.4875 LP  0  0  0  0  0  0  0  0  0  0  0  0  # atno 17394 bound_to 11000
  140.0378  134.6311  155.9020 LP  0  0  0  0  0  0  0  0  0  0  0  0  # atno 17395 bound_to 11000

$$$$
