AV-unprocessed.smi:1114|AV-procd|sdf|4800|dock2
  -GOLD-   22720 3343D 1   1.00000     0.00000
 Structure written by MMmdl.
 52 54  0  0  0  0  0  0  0  0  1 V2000
  144.0980  132.9993  149.1916 C   0  0  0  0  0  0  0  0  0  0  0  0
  144.2610  132.7266  150.6886 C   0  0  0  0  0  0  0  0  0  0  0  0
  144.5486  131.5822  151.0398 O   0  0  0  0  0  0  0  0  0  0  0  0
  144.0905  133.7417  151.5693 N   0  0  0  0  0  0  0  0  0  0  0  0
  144.3126  133.5871  153.0115 C   0  0  0  0  0  0  0  0  0  0  0  0
  145.5960  134.3442  153.3987 C   0  0  0  0  0  0  0  0  0  0  0  0
  145.5263  135.8275  152.9753 C   0  0  0  0  0  0  0  0  0  0  0  0
  146.8270  136.4565  153.1832 N   0  0  0  0  0  0  0  0  0  0  0  0
  147.1083  137.3611  154.1318 C   0  0  0  0  0  0  0  0  0  0  0  0
  146.2830  137.7597  154.9527 O   0  0  0  0  0  0  0  0  0  0  0  0
  148.3931  137.7501  154.0582 N   0  0  0  0  0  0  0  0  0  0  0  0
  149.0981  138.6964  154.8526 C   0  0  0  0  0  0  0  0  0  0  0  0
  148.6813  138.8647  156.1872 C   0  0  0  0  0  0  0  0  0  0  0  0
  149.3571  139.7828  157.0124 C   0  0  0  0  0  0  0  0  0  0  0  0
  150.4431  140.5171  156.4819 C   0  0  0  0  0  0  0  0  0  0  0  0
  151.1347  141.4470  157.2892 N   0  0  0  0  0  0  0  0  0  0  0  0
  151.7304  140.9002  158.5103 C   0  0  0  0  0  0  0  0  0  0  0  0
  152.7845  141.8576  159.0918 C   0  0  0  0  0  0  0  0  0  0  0  0
  152.2001  143.2625  159.3000 C   0  0  0  0  0  0  0  0  0  0  0  0
  151.6004  143.7809  157.9850 C   0  0  0  0  0  0  0  0  0  0  0  0
  150.5666  142.7917  157.4205 C   0  0  0  0  0  0  0  0  0  0  0  0
  150.8528  140.3467  155.2012 N   0  0  0  0  0  0  0  0  0  0  0  0
  150.2026  139.4650  154.4124 C   0  0  0  0  0  0  0  0  0  0  0  0
  145.0808  135.9755  151.5017 C   0  0  0  0  0  0  0  0  0  0  0  0
  143.8213  135.1400  151.2123 C   0  0  0  0  0  0  0  0  0  0  0  0
  144.7940  133.7706  148.8605 H   0  0  0  0  0  0  0  0  0  0  0  0
  143.0801  133.3175  148.9654 H   0  0  0  0  0  0  0  0  0  0  0  0
  144.3012  132.0978  148.6125 H   0  0  0  0  0  0  0  0  0  0  0  0
  143.4583  133.9918  153.5559 H   0  0  0  0  0  0  0  0  0  0  0  0
  144.3909  132.5430  153.3176 H   0  0  0  0  0  0  0  0  0  0  0  0
  145.7614  134.2692  154.4741 H   0  0  0  0  0  0  0  0  0  0  0  0
  146.4500  133.8619  152.9202 H   0  0  0  0  0  0  0  0  0  0  0  0
  144.7847  136.3167  153.6102 H   0  0  0  0  0  0  0  0  0  0  0  0
  147.5671  136.1839  152.5530 H   0  0  0  0  0  0  0  0  0  0  0  0
  148.9471  137.2939  153.3483 H   0  0  0  0  0  0  0  0  0  0  0  0
  147.8522  138.2947  156.5806 H   0  0  0  0  0  0  0  0  0  0  0  0
  149.0467  139.9011  158.0398 H   0  0  0  0  0  0  0  0  0  0  0  0
  150.9365  140.7372  159.2401 H   0  0  0  0  0  0  0  0  0  0  0  0
  152.1949  139.9308  158.3360 H   0  0  0  0  0  0  0  0  0  0  0  0
  153.1629  141.4659  160.0361 H   0  0  0  0  0  0  0  0  0  0  0  0
  153.6379  141.9133  158.4149 H   0  0  0  0  0  0  0  0  0  0  0  0
  151.4283  143.2311  160.0700 H   0  0  0  0  0  0  0  0  0  0  0  0
  152.9725  143.9441  159.6570 H   0  0  0  0  0  0  0  0  0  0  0  0
  151.1369  144.7550  158.1422 H   0  0  0  0  0  0  0  0  0  0  0  0
  152.3972  143.9310  157.2552 H   0  0  0  0  0  0  0  0  0  0  0  0
  150.2240  143.1531  156.4501 H   0  0  0  0  0  0  0  0  0  0  0  0
  149.6952  142.7488  158.0754 H   0  0  0  0  0  0  0  0  0  0  0  0
  150.6049  139.3855  153.4158 H   0  0  0  0  0  0  0  0  0  0  0  0
  144.8910  137.0238  151.2682 H   0  0  0  0  0  0  0  0  0  0  0  0
  145.8836  135.6521  150.8370 H   0  0  0  0  0  0  0  0  0  0  0  0
  143.5151  135.2754  150.1760 H   0  0  0  0  0  0  0  0  0  0  0  0
  142.9866  135.5086  151.8107 H   0  0  0  0  0  0  0  0  0  0  0  0
  1  2  1  0  0  0  0
  1 26  1  0  0  0  0
  1 27  1  0  0  0  0
  1 28  1  0  0  0  0
  2  3  2  0  0  0  0
  2  4  1  0  0  0  0
  4 25  1  0  0  0  0
  4  5  1  0  0  0  0
  5  6  1  0  0  0  0
  5 29  1  0  0  0  0
  5 30  1  0  0  0  0
  6  7  1  0  0  0  0
  6 31  1  0  0  0  0
  6 32  1  0  0  0  0
  7  8  1  0  0  0  0
  7 24  1  0  0  0  0
  7 33  1  0  0  0  0
  8  9  1  0  0  0  0
  8 34  1  0  0  0  0
  9 10  2  0  0  0  0
  9 11  1  0  0  0  0
 11 12  1  0  0  0  0
 11 35  1  0  0  0  0
 12 23  1  0  0  0  0
 12 13  2  0  0  0  0
 13 14  1  0  0  0  0
 13 36  1  0  0  0  0
 14 15  2  0  0  0  0
 14 37  1  0  0  0  0
 15 16  1  0  0  0  0
 15 22  1  0  0  0  0
 16 21  1  0  0  0  0
 16 17  1  0  0  0  0
 17 18  1  0  0  0  0
 17 38  1  0  0  0  0
 17 39  1  0  0  0  0
 18 19  1  0  0  0  0
 18 40  1  0  0  0  0
 18 41  1  0  0  0  0
 19 20  1  0  0  0  0
 19 42  1  0  0  0  0
 19 43  1  0  0  0  0
 20 21  1  0  0  0  0
 20 44  1  0  0  0  0
 20 45  1  0  0  0  0
 21 46  1  0  0  0  0
 21 47  1  0  0  0  0
 22 23  2  0  0  0  0
 23 48  1  0  0  0  0
 24 25  1  0  0  0  0
 24 49  1  0  0  0  0
 24 50  1  0  0  0  0
 25 51  1  0  0  0  0
 25 52  1  0  0  0  0
M  END
> <s_m_source_file>
AV-unprocessed.smi

> <i_m_source_file_index>
1114

> <i_lp_mmshare_version>
43012

> <i_f3d_flags>
0

> <s_epik_input>
W0NIM11DKD1PKU4xW0NIMl1bQ0gyXVtDSF0oW0NIMl1bQ0gyXTEpW05IXUMoPU8pW05IXWMyW2NIXVtjSF1jKG5bY0hdMilOM1tDSDJdW0NIMl1bQ0gyXVtDSDJdW0NIMl0z

> <s_epik_cmdline>
J2VwaWtfcHl0aG9uJywgJy1waCcsICc3LjAnLCAnLXRuJywgJzgnLCAnLW1hJywgJzIwMCcsICctbWV0YWxfYmluZGluZycsICctaW1hZScsICc8aW5maWxlLm1hZT4nLCAnLW9tYWUnLCAnPG91dGZpbGUubWFlPic=

> <r_lp_tautomer_probability>
1

> <r_epik_Ionization_Penalty>
0.108876

> <r_epik_Ionization_Penalty_Charging>
0

> <r_epik_Ionization_Penalty_Neutral>
0.108876

> <r_epik_State_Penalty>
0.0925502

> <r_epik_Charging_Adjusted_Penalty>
0.0925502

> <i_epik_Tot_Q>
0

> <i_epik_Tot_abs_Q>
0

> <r_epik_Metal_State_Penalty>
0.0787426

> <b_epik_Metal_Only>
0

> <s_lp_Force_Field>
OPLS_2005

> <r_lp_Energy>
37.4481

> <b_lp_Chiralities_Consistent>
1

> <s_lp_Variant>
AV-unprocessed.smi:1114-1

> <Gold.Version>
5.8.1

> <Gold.Id.Protein>
6NUR|6NUR_protein|mol2

> <Gold.PLP.Fitness>
45.2305

> <Gold.PLP.PLP>
-36.6593

> <Gold.PLP.part.hbond>
-2.9076

> <Gold.PLP.part.metal>
0.0000

> <Gold.PLP.part.buried>
-1.8542

> <Gold.PLP.part.nonpolar>
-33.4919

> <Gold.PLP.part.repulsive>
0.2933

> <Gold.PLP.ligand.clash>
0.0000

> <Gold.PLP.ligand.torsion>
0.6007

> <Gold.PLP.Chemscore.Hbond>
2.1100

> <Gold.PLP.Chemscore.CHOScore>
0.9987

> <Gold.PLP.Chemscore.Metal>
0.0000

> <Gold.Chemscore.Hbonds>
donor molecule, donor type, donor heavy atom, donor atom, acceptor molecule, acceptor atom, score
      L1  H     8    34       P1  7948  1.00
      L1  H    11    35       P1  7948  0.96
      P1  H  7989  7998       L1    22  0.10
      L1  C    23    48       P1  7957  0.98

> <Gold.PLP.Chemscore.Internal.Correction>
0.4466

> <Gold.Rescore>
     Score         DG    S(hbond)    S(metal)    S(lipo)     H(rot)  DE(clash)    DE(int)     intcor
     17.98     -20.09       1.93        0.00      96.07       1.20       0.35       1.77       ----

> <Gold.Chemscore.Fitness>
17.9753

> <Gold.Chemscore.DG>
-20.0923

> <Gold.Chemscore.ZeroCoef>
-5.4800

> <Gold.Chemscore.Hbond>
1.9295

> <Gold.Chemscore.Metal>
0.0000

> <Gold.Chemscore.Lipo>
96.0744

> <Gold.Chemscore.Internal_Hbond>
0.0000

> <Gold.Chemscore.DEClash>
0.3453

> <Gold.Chemscore.DEInternal>
1.7717

> <Gold.Chemscore.Rot>
1.2003

> <Gold.Chemscore.Internal.Correction>
   9.000000E+99

> <Gold.Chemscore.Hbonds>
donor molecule, donor type, donor heavy atom, donor atom, acceptor molecule, acceptor atom, score
      L1  H     8    34       P1  7948  0.94
      L1  H    11    35       P1  7948  0.92

> <Gold.Chemscore.Hbond.Weighted>
-6.4444

> <Gold.Chemscore.Metal.Weighted>
-0.0000

> <Gold.Chemscore.Lipo.Weighted>
-11.2407

> <Gold.Chemscore.Internal_Hbond.Weighted>
0.0000

> <Gold.Chemscore.DEClash.Weighted>
0.3453

> <Gold.Chemscore.DEInternal.Weighted>
1.7717

> <Gold.Chemscore.Rot.Weighted>
3.0728

> <Gold.Chemscore.Internal.Correction.Weighted>
   9.000000E+99

> <Gold.Protein.RotatedTorsions>
[ 6907 6896 6895 6894 ] final -113.45 input  -60.11 | X-H torsion
[ 7974 7965 7964 7962 ] final  -70.25 input  175.53 | X-H torsion
[ 8008 7997 7996 7995 ] final  -78.15 input   59.86 | X-H torsion
[ 10167 10162 10161 10158 ] final  138.22 input  -65.29 | X-H torsion
[ 10718 10713 10712 10709 ] final  126.20 input   66.30 | X-H torsion
[ 10763 10752 10751 10750 ] final  108.82 input  -60.55 | X-H torsion
[ 11005 11000 10999 10996 ] final -128.97 input  -57.11 | X-H torsion

> <Gold.Protein.ActiveResidues>
 VAL166  LYS551  ARG553  GLY616  TRP617  ASP618  TYR619  PRO620  LYS621  CYS622 
 ASP623  PHE694  ASN695  SER759  ASP760  ASP761  ALA762  ILE779  LEU786  VAL792 
 PHE793  MET794  SER795  GLU796  ALA797  LYS798  CYS799  TRP800  GLU811  SER814 

> <Gold.Protein.RotatedAtoms>
  150.7830  133.8943  159.3322 H   0  0  0  0  0  0  0  0  0  0  0  0  # atno 6907 bound_to 6896
  151.6801  135.0961  160.0224 H   0  0  0  0  0  0  0  0  0  0  0  0  # atno 6908 bound_to 6896
  152.3887  133.6609  159.6255 H   0  0  0  0  0  0  0  0  0  0  0  0  # atno 6909 bound_to 6896
  145.6933  140.9144  143.0770 H   0  0  0  0  0  0  0  0  0  0  0  0  # atno 7974 bound_to 7965
  154.5663  140.0699  156.8896 H   0  0  0  0  0  0  0  0  0  0  0  0  # atno 8008 bound_to 7997
  155.2717  140.3365  155.4246 H   0  0  0  0  0  0  0  0  0  0  0  0  # atno 8009 bound_to 7997
  156.2083  140.1749  156.7737 H   0  0  0  0  0  0  0  0  0  0  0  0  # atno 8010 bound_to 7997
  139.5118  144.6366  151.5680 H   0  0  0  0  0  0  0  0  0  0  0  0  # atno 10167 bound_to 10162
  157.5439  131.1096  150.8814 H   0  0  0  0  0  0  0  0  0  0  0  0  # atno 10718 bound_to 10713
  153.4260  135.3800  155.2141 H   0  0  0  0  0  0  0  0  0  0  0  0  # atno 10763 bound_to 10752
  154.8747  135.3828  154.4326 H   0  0  0  0  0  0  0  0  0  0  0  0  # atno 10764 bound_to 10752
  153.4852  135.7088  153.5978 H   0  0  0  0  0  0  0  0  0  0  0  0  # atno 10765 bound_to 10752
  140.9471  134.1115  157.4097 H   0  0  0  0  0  0  0  0  0  0  0  0  # atno 11005 bound_to 11000
  144.6990  139.8851  143.7449 LP  0  0  0  0  0  0  0  0  0  0  0  0  # atno 17320 bound_to 7965
  146.0862  139.3850  143.0434 LP  0  0  0  0  0  0  0  0  0  0  0  0  # atno 17321 bound_to 7965
  140.6117  143.9424  150.6458 LP  0  0  0  0  0  0  0  0  0  0  0  0  # atno 17342 bound_to 10162
  140.2668  143.3484  152.1273 LP  0  0  0  0  0  0  0  0  0  0  0  0  # atno 17343 bound_to 10162
  156.9359  130.5367  149.5279 LP  0  0  0  0  0  0  0  0  0  0  0  0  # atno 17370 bound_to 10713
  156.0519  130.5587  150.9008 LP  0  0  0  0  0  0  0  0  0  0  0  0  # atno 17371 bound_to 10713
  139.8836  135.0055  156.6315 LP  0  0  0  0  0  0  0  0  0  0  0  0  # atno 17394 bound_to 11000
  140.7654  133.8783  155.8450 LP  0  0  0  0  0  0  0  0  0  0  0  0  # atno 17395 bound_to 11000

$$$$
