AV-unprocessed.smi:1734|AV-procd|sdf|6983|dock3
  -GOLD-   22720 8193D 1   1.00000     0.00000
 Structure written by MMmdl.
 50 52  0  0  0  0  0  0  0  0  1 V2000
  146.9580  132.1462  152.5766 C   0  0  0  0  0  0  0  0  0  0  0  0
  145.9496  132.7176  151.5930 C   0  0  0  0  0  0  0  0  0  0  0  0
  145.2090  131.8379  150.7750 C   0  0  0  0  0  0  0  0  0  0  0  0
  144.2769  132.3674  149.8665 C   0  0  0  0  0  0  0  0  0  0  0  0
  144.1239  133.7633  149.8139 C   0  0  0  0  0  0  0  0  0  0  0  0
  144.8280  134.6112  150.5910 N   0  0  0  0  0  0  0  0  0  0  0  0
  145.7322  134.1167  151.4737 C   0  0  0  0  0  0  0  0  0  0  0  0
  146.5131  134.9513  152.3225 N   0  0  0  0  0  0  0  0  0  0  0  0
  146.3398  135.2109  153.6305 C   0  0  0  0  0  0  0  0  0  0  0  0
  145.4604  134.7254  154.3428 O   0  0  0  0  0  0  0  0  0  0  0  0
  147.2529  136.0880  154.0726 N   0  0  0  0  0  0  0  0  0  0  0  0
  147.3301  136.6295  155.4271 C   0  0  0  0  0  0  0  0  0  0  0  0
  148.7168  137.2649  155.7204 C   0  0  1  0  0  0  0  0  0  0  0  0
  149.0044  138.5238  154.8450 C   0  0  1  0  0  0  0  0  0  0  0  0
  148.4776  139.8786  155.3274 C   0  0  0  0  0  0  0  0  0  0  0  0
  149.6545  140.8324  155.1162 C   0  0  0  0  0  0  0  0  0  0  0  0
  150.4775  140.1723  154.1670 O   0  0  0  0  0  0  0  0  0  0  0  0
  150.4777  138.7983  154.5162 C   0  0  0  0  0  0  0  0  0  0  0  0
  149.0389  137.4195  157.1530 N   0  0  0  0  0  0  0  0  0  0  0  0
  148.5630  136.3485  158.0265 C   0  0  0  0  0  0  0  0  0  0  0  0
  148.8570  136.6480  159.5070 C   0  0  0  0  0  0  0  0  0  0  0  0
  150.2478  136.8946  159.6872 O   0  0  0  0  0  0  0  0  0  0  0  0
  150.7201  137.9764  158.8914 C   0  0  0  0  0  0  0  0  0  0  0  0
  150.4556  137.6709  157.4080 C   0  0  0  0  0  0  0  0  0  0  0  0
  146.9935  131.0577  152.5216 H   0  0  0  0  0  0  0  0  0  0  0  0
  146.6929  132.4218  153.5976 H   0  0  0  0  0  0  0  0  0  0  0  0
  147.9575  132.5254  152.3622 H   0  0  0  0  0  0  0  0  0  0  0  0
  145.3511  130.7691  150.8401 H   0  0  0  0  0  0  0  0  0  0  0  0
  143.6944  131.7208  149.2270 H   0  0  0  0  0  0  0  0  0  0  0  0
  143.4184  134.2120  149.1301 H   0  0  0  0  0  0  0  0  0  0  0  0
  147.2837  135.4223  151.8724 H   0  0  0  0  0  0  0  0  0  0  0  0
  147.9380  136.4280  153.4135 H   0  0  0  0  0  0  0  0  0  0  0  0
  146.5301  137.3469  155.6123 H   0  0  0  0  0  0  0  0  0  0  0  0
  147.1401  135.7931  156.0981 H   0  0  0  0  0  0  0  0  0  0  0  0
  149.4388  136.5362  155.3482 H   0  0  0  0  0  0  0  0  0  0  0  0
  148.5219  138.3528  153.8811 H   0  0  0  0  0  0  0  0  0  0  0  0
  147.6315  140.1858  154.7116 H   0  0  0  0  0  0  0  0  0  0  0  0
  148.1355  139.8867  156.3609 H   0  0  0  0  0  0  0  0  0  0  0  0
  149.3410  141.8143  154.7610 H   0  0  0  0  0  0  0  0  0  0  0  0
  150.2124  140.9680  156.0441 H   0  0  0  0  0  0  0  0  0  0  0  0
  151.1342  138.6597  155.3760 H   0  0  0  0  0  0  0  0  0  0  0  0
  150.8485  138.1769  153.7008 H   0  0  0  0  0  0  0  0  0  0  0  0
  147.4884  136.2208  157.9207 H   0  0  0  0  0  0  0  0  0  0  0  0
  149.0293  135.4021  157.7517 H   0  0  0  0  0  0  0  0  0  0  0  0
  148.2827  137.5121  159.8445 H   0  0  0  0  0  0  0  0  0  0  0  0
  148.5603  135.8043  160.1301 H   0  0  0  0  0  0  0  0  0  0  0  0
  150.2271  138.9027  159.1902 H   0  0  0  0  0  0  0  0  0  0  0  0
  151.7876  138.1093  159.0672 H   0  0  0  0  0  0  0  0  0  0  0  0
  151.0521  136.8045  157.1235 H   0  0  0  0  0  0  0  0  0  0  0  0
  150.8019  138.5074  156.8004 H   0  0  0  0  0  0  0  0  0  0  0  0
  1  2  1  0  0  0  0
  1 25  1  0  0  0  0
  1 26  1  0  0  0  0
  1 27  1  0  0  0  0
  2  7  1  0  0  0  0
  2  3  2  0  0  0  0
  3  4  1  0  0  0  0
  3 28  1  0  0  0  0
  4  5  2  0  0  0  0
  4 29  1  0  0  0  0
  5  6  1  0  0  0  0
  5 30  1  0  0  0  0
  6  7  2  0  0  0  0
  7  8  1  0  0  0  0
  8  9  1  0  0  0  0
  8 31  1  0  0  0  0
  9 10  2  0  0  0  0
  9 11  1  0  0  0  0
 11 12  1  0  0  0  0
 11 32  1  0  0  0  0
 12 13  1  0  0  0  0
 12 33  1  0  0  0  0
 12 34  1  0  0  0  0
 13 14  1  0  0  0  0
 13 19  1  0  0  0  0
 13 35  1  0  0  0  0
 14 18  1  0  0  0  0
 14 15  1  0  0  0  0
 14 36  1  0  0  0  0
 15 16  1  0  0  0  0
 15 37  1  0  0  0  0
 15 38  1  0  0  0  0
 16 17  1  0  0  0  0
 16 39  1  0  0  0  0
 16 40  1  0  0  0  0
 17 18  1  0  0  0  0
 18 41  1  0  0  0  0
 18 42  1  0  0  0  0
 19 24  1  0  0  0  0
 19 20  1  0  0  0  0
 20 21  1  0  0  0  0
 20 43  1  0  0  0  0
 20 44  1  0  0  0  0
 21 22  1  0  0  0  0
 21 45  1  0  0  0  0
 21 46  1  0  0  0  0
 22 23  1  0  0  0  0
 23 24  1  0  0  0  0
 23 47  1  0  0  0  0
 23 48  1  0  0  0  0
 24 49  1  0  0  0  0
 24 50  1  0  0  0  0
M  END
> <s_m_source_file>
AV-unprocessed.smi

> <i_m_source_file_index>
1734

> <i_lp_mmshare_version>
43012

> <i_f3d_flags>
0

> <s_epik_input>
W0NIM11jMVtjSF1bY0hdW2NIXW5jMVtOSF1DKD1PKVtOSF1bQ0gyXVtDQEhdKFtDQEBIXTJbQ0gyXVtDSDJdT1tDSDJdMilOM1tDSDJdW0NIMl1PW0NIMl1bQ0gyXTM=

> <s_epik_cmdline>
J2VwaWtfcHl0aG9uJywgJy1waCcsICc3LjAnLCAnLXRuJywgJzgnLCAnLW1hJywgJzIwMCcsICctbWV0YWxfYmluZGluZycsICctaW1hZScsICc8aW5maWxlLm1hZT4nLCAnLW9tYWUnLCAnPG91dGZpbGUubWFlPic=

> <r_epik_Ionization_Penalty>
0.125073

> <r_epik_Ionization_Penalty_Charging>
0

> <r_epik_Ionization_Penalty_Neutral>
0.125073

> <r_epik_State_Penalty>
0.114484

> <r_epik_Charging_Adjusted_Penalty>
0.114484

> <i_epik_Tot_Q>
0

> <i_epik_Tot_abs_Q>
0

> <r_epik_Metal_State_Penalty>
0.114483

> <b_epik_Metal_Only>
0

> <s_lp_Force_Field>
OPLS_2005

> <r_lp_Energy>
55.6911

> <b_lp_Chiralities_Consistent>
1

> <s_lp_Variant>
AV-unprocessed.smi:1734-4

> <Gold.Version>
5.8.1

> <Gold.Id.Protein>
6NUR|6NUR_protein|mol2

> <Gold.PLP.Fitness>
45.0350

> <Gold.PLP.PLP>
-32.6240

> <Gold.PLP.part.hbond>
-3.7846

> <Gold.PLP.part.metal>
0.0000

> <Gold.PLP.part.buried>
-6.4139

> <Gold.PLP.part.nonpolar>
-23.6689

> <Gold.PLP.part.repulsive>
0.7997

> <Gold.PLP.ligand.clash>
0.0000

> <Gold.PLP.ligand.torsion>
1.5508

> <Gold.PLP.Chemscore.Hbond>
4.0000

> <Gold.PLP.Chemscore.CHOScore>
1.0000

> <Gold.PLP.Chemscore.Metal>
0.0000

> <Gold.Chemscore.Hbonds>
donor molecule, donor type, donor heavy atom, donor atom, acceptor molecule, acceptor atom, score
      L1  H     8    31       P1  7948  1.00
      L1  H    11    32       P1  7948  1.00
      P1  H  6896  6908       L1    22  1.00
      P1  H  7989  7998       L1    17  0.93
      L1  C     5    30       P1 10186  0.91

> <Gold.PLP.Chemscore.Internal.Correction>
0.5125

> <Gold.Rescore>
     Score         DG    S(hbond)    S(metal)    S(lipo)     H(rot)  DE(clash)    DE(int)     intcor
     21.14     -22.93       3.77        0.00      77.54       1.65       0.06       1.73       ----

> <Gold.Chemscore.Fitness>
21.1388

> <Gold.Chemscore.DG>
-22.9286

> <Gold.Chemscore.ZeroCoef>
-5.4800

> <Gold.Chemscore.Hbond>
3.7710

> <Gold.Chemscore.Metal>
0.0000

> <Gold.Chemscore.Lipo>
77.5394

> <Gold.Chemscore.Internal_Hbond>
0.0000

> <Gold.Chemscore.DEClash>
0.0563

> <Gold.Chemscore.DEInternal>
1.7334

> <Gold.Chemscore.Rot>
1.6480

> <Gold.Chemscore.Internal.Correction>
   9.000000E+99

> <Gold.Chemscore.Hbonds>
donor molecule, donor type, donor heavy atom, donor atom, acceptor molecule, acceptor atom, score
      L1  H     8    31       P1  7948  0.98
      L1  H    11    32       P1  7948  0.95
      P1  H  6896  6908       L1    22  0.47
      P1  H  7989  7998       L1    17  0.86

> <Gold.Chemscore.Hbond.Weighted>
-12.5953

> <Gold.Chemscore.Metal.Weighted>
-0.0000

> <Gold.Chemscore.Lipo.Weighted>
-9.0721

> <Gold.Chemscore.Internal_Hbond.Weighted>
0.0000

> <Gold.Chemscore.DEClash.Weighted>
0.0563

> <Gold.Chemscore.DEInternal.Weighted>
1.7334

> <Gold.Chemscore.Rot.Weighted>
4.2188

> <Gold.Chemscore.Internal.Correction.Weighted>
   9.000000E+99

> <Gold.Protein.RotatedTorsions>
[ 6907 6896 6895 6894 ] final -149.55 input  -60.11 | X-H torsion
[ 7974 7965 7964 7962 ] final -149.43 input  175.53 | X-H torsion
[ 8008 7997 7996 7995 ] final    1.72 input   59.86 | X-H torsion
[ 10167 10162 10161 10158 ] final  -45.61 input  -65.29 | X-H torsion
[ 10718 10713 10712 10709 ] final  124.31 input   66.30 | X-H torsion
[ 10763 10752 10751 10750 ] final   34.36 input  -60.55 | X-H torsion
[ 11005 11000 10999 10996 ] final   35.24 input  -57.11 | X-H torsion

> <Gold.Protein.ActiveResidues>
 VAL166  LYS551  ARG553  GLY616  TRP617  ASP618  TYR619  PRO620  LYS621  CYS622 
 ASP623  PHE694  ASN695  SER759  ASP760  ASP761  ALA762  ILE779  LEU786  VAL792 
 PHE793  MET794  SER795  GLU796  ALA797  LYS798  CYS799  TRP800  GLU811  SER814 

> <Gold.Protein.RotatedAtoms>
  151.1857  133.4698  159.2594 H   0  0  0  0  0  0  0  0  0  0  0  0  # atno 6907 bound_to 6896
  151.1214  135.0081  159.8550 H   0  0  0  0  0  0  0  0  0  0  0  0  # atno 6908 bound_to 6896
  152.5456  134.1768  159.8672 H   0  0  0  0  0  0  0  0  0  0  0  0  # atno 6909 bound_to 6896
  144.7968  140.5065  143.5735 H   0  0  0  0  0  0  0  0  0  0  0  0  # atno 7974 bound_to 7965
  154.6831  140.2637  155.6888 H   0  0  0  0  0  0  0  0  0  0  0  0  # atno 8008 bound_to 7997
  156.2704  140.2806  156.1305 H   0  0  0  0  0  0  0  0  0  0  0  0  # atno 8009 bound_to 7997
  155.1003  140.0374  157.2685 H   0  0  0  0  0  0  0  0  0  0  0  0  # atno 8010 bound_to 7997
  140.6851  143.2871  151.3664 H   0  0  0  0  0  0  0  0  0  0  0  0  # atno 10167 bound_to 10162
  157.5595  131.1090  150.8563 H   0  0  0  0  0  0  0  0  0  0  0  0  # atno 10718 bound_to 10713
  153.0168  135.6362  154.1656 H   0  0  0  0  0  0  0  0  0  0  0  0  # atno 10763 bound_to 10752
  154.1395  135.2835  155.3166 H   0  0  0  0  0  0  0  0  0  0  0  0  # atno 10764 bound_to 10752
  154.6135  135.5548  153.7560 H   0  0  0  0  0  0  0  0  0  0  0  0  # atno 10765 bound_to 10752
  140.2446  134.3374  155.7912 H   0  0  0  0  0  0  0  0  0  0  0  0  # atno 11005 bound_to 11000
  145.5654  139.1481  143.3318 LP  0  0  0  0  0  0  0  0  0  0  0  0  # atno 17320 bound_to 7965
  146.2238  140.5788  142.9005 LP  0  0  0  0  0  0  0  0  0  0  0  0  # atno 17321 bound_to 7965
  139.6203  144.0921  152.2385 LP  0  0  0  0  0  0  0  0  0  0  0  0  # atno 17342 bound_to 10162
  140.0363  144.6042  150.7447 LP  0  0  0  0  0  0  0  0  0  0  0  0  # atno 17343 bound_to 10162
  156.9065  130.5265  149.5281 LP  0  0  0  0  0  0  0  0  0  0  0  0  # atno 17370 bound_to 10713
  156.0649  130.5694  150.9269 LP  0  0  0  0  0  0  0  0  0  0  0  0  # atno 17371 bound_to 10713
  141.2207  133.7318  156.8940 LP  0  0  0  0  0  0  0  0  0  0  0  0  # atno 17394 bound_to 11000
  140.1619  134.9160  157.2725 LP  0  0  0  0  0  0  0  0  0  0  0  0  # atno 17395 bound_to 11000

$$$$
