AV-unprocessed.smi:3298|AV-procd|sdf|12640|dock1
  -GOLD-   2272018573D 1   1.00000     0.00000
 Structure written by MMmdl.
 35 36  0  0  0  0  0  0  0  0  1 V2000
  152.6194  139.0553  155.8643 C   0  0  0  0  0  0  0  0  0  0  0  0
  151.3026  139.5586  155.3108 C   0  0  0  0  0  0  0  0  0  0  0  0
  150.5109  138.7407  154.4777 C   0  0  0  0  0  0  0  0  0  0  0  0
  149.2942  139.2514  153.9798 C   0  0  0  0  0  0  0  0  0  0  0  0
  148.5114  138.4005  153.1532 N   0  0  0  0  0  0  0  0  0  0  0  0
  147.2016  138.4811  152.8604 C   0  0  0  0  0  0  0  0  0  0  0  0
  146.4293  139.3490  153.2670 O   0  0  0  0  0  0  0  0  0  0  0  0
  146.8292  137.4925  152.0350 N   0  0  0  0  0  0  0  0  0  0  0  0
  145.4814  137.3105  151.5081 C   0  0  2  0  0  0  0  0  0  0  0  0
  144.5372  136.9034  152.6057 C   0  0  0  0  0  0  0  0  0  0  0  0
  143.8983  135.7667  152.3390 C   0  0  0  0  0  0  0  0  0  0  0  0
  144.2887  135.1738  151.0090 C   0  0  2  0  0  0  0  0  0  0  0  0
  144.7705  133.7170  151.1212 C   0  0  0  0  0  0  0  0  0  0  0  0
  145.4217  133.3157  149.9339 O   0  0  0  0  0  0  0  0  0  0  0  0
  145.3854  136.1403  150.4934 C   0  0  0  0  0  0  0  0  0  0  0  0
  148.9140  140.5599  154.3637 C   0  0  0  0  0  0  0  0  0  0  0  0
  149.7766  141.2931  155.2028 C   0  0  0  0  0  0  0  0  0  0  0  0
  150.9482  140.8114  155.6689 N   0  0  0  0  0  0  0  0  0  0  0  0
  145.1170  138.2404  151.0681 H   0  0  0  0  0  0  0  0  0  0  0  0
  143.4201  135.2248  150.3509 H   0  0  0  0  0  0  0  0  0  0  0  0
  152.9949  138.2160  155.2783 H   0  0  0  0  0  0  0  0  0  0  0  0
  152.4922  138.7242  156.8951 H   0  0  0  0  0  0  0  0  0  0  0  0
  153.3733  139.8431  155.8460 H   0  0  0  0  0  0  0  0  0  0  0  0
  150.8346  137.7422  154.2221 H   0  0  0  0  0  0  0  0  0  0  0  0
  149.0244  137.6712  152.6800 H   0  0  0  0  0  0  0  0  0  0  0  0
  147.5266  136.8232  151.7439 H   0  0  0  0  0  0  0  0  0  0  0  0
  144.3996  137.4975  153.4973 H   0  0  0  0  0  0  0  0  0  0  0  0
  143.1664  135.3013  152.9827 H   0  0  0  0  0  0  0  0  0  0  0  0
  145.4708  133.6135  151.9506 H   0  0  0  0  0  0  0  0  0  0  0  0
  143.9347  133.0443  151.3173 H   0  0  0  0  0  0  0  0  0  0  0  0
  145.4564  134.0541  149.3452 H   0  0  0  0  0  0  0  0  0  0  0  0
  145.1402  136.5114  149.4975 H   0  0  0  0  0  0  0  0  0  0  0  0
  146.3414  135.6215  150.4037 H   0  0  0  0  0  0  0  0  0  0  0  0
  147.9852  141.0084  154.0476 H   0  0  0  0  0  0  0  0  0  0  0  0
  149.5142  142.2935  155.5133 H   0  0  0  0  0  0  0  0  0  0  0  0
  1  2  1  0  0  0  0
  1 21  1  0  0  0  0
  1 22  1  0  0  0  0
  1 23  1  0  0  0  0
  2 18  1  0  0  0  0
  2  3  2  0  0  0  0
  3  4  1  0  0  0  0
  3 24  1  0  0  0  0
  4  5  1  0  0  0  0
  4 16  2  0  0  0  0
  5  6  1  0  0  0  0
  5 25  1  0  0  0  0
  6  7  2  0  0  0  0
  6  8  1  0  0  0  0
  8  9  1  0  0  0  0
  8 26  1  0  0  0  0
  9 19  1  0  0  0  0
  9 15  1  0  0  0  0
  9 10  1  0  0  0  0
 10 11  2  0  0  0  0
 10 27  1  0  0  0  0
 11 12  1  0  0  0  0
 11 28  1  0  0  0  0
 12 20  1  0  0  0  0
 12 13  1  0  0  0  0
 12 15  1  0  0  0  0
 13 14  1  0  0  0  0
 13 29  1  0  0  0  0
 13 30  1  0  0  0  0
 14 31  1  0  0  0  0
 15 32  1  0  0  0  0
 15 33  1  0  0  0  0
 16 17  1  0  0  0  0
 16 34  1  0  0  0  0
 17 18  2  0  0  0  0
 17 35  1  0  0  0  0
M  END
> <s_m_source_file>
AV-unprocessed.smi

> <i_m_source_file_index>
3298

> <i_lp_mmshare_version>
43012

> <i_f3d_flags>
0

> <s_epik_input>
W0NIM11jMVtjSF1jKFtjSF1bY0hdbjEpW05IXUMoPU8pW05IXVtDQEBIXTJbQ0hdPVtDSF1bQ0BASF0oW0NIMl0yKVtDSDJdW09IXQ==

> <s_epik_cmdline>
J2VwaWtfcHl0aG9uJywgJy1waCcsICc3LjAnLCAnLXRuJywgJzgnLCAnLW1hJywgJzIwMCcsICctbWV0YWxfYmluZGluZycsICctaW1hZScsICc8aW5maWxlLm1hZT4nLCAnLW9tYWUnLCAnPG91dGZpbGUubWFlPic=

> <r_epik_Ionization_Penalty>
0.379275

> <r_epik_Ionization_Penalty_Charging>
0

> <r_epik_Ionization_Penalty_Neutral>
0.379275

> <r_epik_State_Penalty>
0.377195

> <r_epik_Charging_Adjusted_Penalty>
0.377195

> <i_epik_Tot_Q>
0

> <i_epik_Tot_abs_Q>
0

> <r_epik_Metal_State_Penalty>
0.22815

> <b_epik_Metal_Only>
0

> <s_lp_Force_Field>
OPLS_2005

> <r_lp_Energy>
20.8901

> <b_lp_Chiralities_Consistent>
1

> <s_lp_Variant>
AV-unprocessed.smi:3298-1

> <Gold.Version>
5.8.1

> <Gold.Id.Protein>
6NUR|6NUR_protein|mol2

> <Gold.PLP.Fitness>
42.3599

> <Gold.PLP.PLP>
-31.0285

> <Gold.PLP.part.hbond>
-4.5150

> <Gold.PLP.part.metal>
0.0000

> <Gold.PLP.part.buried>
5.2233

> <Gold.PLP.part.nonpolar>
-32.6638

> <Gold.PLP.part.repulsive>
0.7495

> <Gold.PLP.ligand.clash>
0.0000

> <Gold.PLP.ligand.torsion>
0.2095

> <Gold.PLP.Chemscore.Hbond>
2.9113

> <Gold.PLP.Chemscore.CHOScore>
1.0000

> <Gold.PLP.Chemscore.Metal>
0.0000

> <Gold.Chemscore.Hbonds>
donor molecule, donor type, donor heavy atom, donor atom, acceptor molecule, acceptor atom, score
      L1  H     5    25       P1  7948  0.98
      L1  H     8    26       P1  7948  0.98
      L1  H    14    31       P1  7921  0.94
      L1  C    17    35       P1  8028  1.00

> <Gold.PLP.Chemscore.Internal.Correction>
0.0166

> <Gold.Rescore>
     Score         DG    S(hbond)    S(metal)    S(lipo)     H(rot)  DE(clash)    DE(int)     intcor
     13.77     -18.42       2.50        0.00      78.05       1.78       3.22       1.42       ----

> <Gold.Chemscore.Fitness>
13.7685

> <Gold.Chemscore.DG>
-18.4170

> <Gold.Chemscore.ZeroCoef>
-5.4800

> <Gold.Chemscore.Hbond>
2.5032

> <Gold.Chemscore.Metal>
0.0000

> <Gold.Chemscore.Lipo>
78.0518

> <Gold.Chemscore.Internal_Hbond>
0.0000

> <Gold.Chemscore.DEClash>
3.2235

> <Gold.Chemscore.DEInternal>
1.4250

> <Gold.Chemscore.Rot>
1.7796

> <Gold.Chemscore.Internal.Correction>
   9.000000E+99

> <Gold.Chemscore.Hbonds>
donor molecule, donor type, donor heavy atom, donor atom, acceptor molecule, acceptor atom, score
      L1  H     5    25       P1  7948  0.91
      L1  H     8    26       P1  7948  0.89
      L1  H    14    31       P1  7921  0.73

> <Gold.Chemscore.Hbond.Weighted>
-8.3608

> <Gold.Chemscore.Metal.Weighted>
-0.0000

> <Gold.Chemscore.Lipo.Weighted>
-9.1321

> <Gold.Chemscore.Internal_Hbond.Weighted>
0.0000

> <Gold.Chemscore.DEClash.Weighted>
3.2235

> <Gold.Chemscore.DEInternal.Weighted>
1.4250

> <Gold.Chemscore.Rot.Weighted>
4.5558

> <Gold.Chemscore.Internal.Correction.Weighted>
   9.000000E+99

> <Gold.Protein.RotatedTorsions>
[ 6907 6896 6895 6894 ] final   36.82 input  -60.11 | X-H torsion
[ 7974 7965 7964 7962 ] final  -43.51 input  175.53 | X-H torsion
[ 8008 7997 7996 7995 ] final   86.70 input   59.86 | X-H torsion
[ 10167 10162 10161 10158 ] final  -94.03 input  -65.29 | X-H torsion
[ 10718 10713 10712 10709 ] final  -90.86 input   66.30 | X-H torsion
[ 10763 10752 10751 10750 ] final  -87.69 input  -60.55 | X-H torsion
[ 11005 11000 10999 10996 ] final   10.00 input  -57.11 | X-H torsion

> <Gold.Protein.ActiveResidues>
 VAL166  LYS551  ARG553  GLY616  TRP617  ASP618  TYR619  PRO620  LYS621  CYS622 
 ASP623  PHE694  ASN695  SER759  ASP760  ASP761  ALA762  ILE779  LEU786  VAL792 
 PHE793  MET794  SER795  GLU796  ALA797  LYS798  CYS799  TRP800  GLU811  SER814 

> <Gold.Protein.RotatedAtoms>
  152.1349  134.9107  160.0556 H   0  0  0  0  0  0  0  0  0  0  0  0  # atno 6907 bound_to 6896
  152.0197  133.3889  159.4261 H   0  0  0  0  0  0  0  0  0  0  0  0  # atno 6908 bound_to 6896
  150.6859  134.3561  159.4974 H   0  0  0  0  0  0  0  0  0  0  0  0  # atno 6909 bound_to 6896
  146.0012  140.7072  142.9270 H   0  0  0  0  0  0  0  0  0  0  0  0  # atno 7974 bound_to 7965
  155.9661  140.3389  155.6534 H   0  0  0  0  0  0  0  0  0  0  0  0  # atno 8008 bound_to 7997
  155.6735  140.0729  157.2529 H   0  0  0  0  0  0  0  0  0  0  0  0  # atno 8009 bound_to 7997
  154.4155  140.1687  156.1893 H   0  0  0  0  0  0  0  0  0  0  0  0  # atno 8010 bound_to 7997
  140.3186  143.3062  152.0071 H   0  0  0  0  0  0  0  0  0  0  0  0  # atno 10167 bound_to 10162
  155.9990  130.4926  150.5387 H   0  0  0  0  0  0  0  0  0  0  0  0  # atno 10718 bound_to 10713
  154.6364  135.5404  153.7739 H   0  0  0  0  0  0  0  0  0  0  0  0  # atno 10763 bound_to 10752
  153.0311  135.6448  154.1225 H   0  0  0  0  0  0  0  0  0  0  0  0  # atno 10764 bound_to 10752
  154.1152  135.2924  155.3201 H   0  0  0  0  0  0  0  0  0  0  0  0  # atno 10765 bound_to 10752
  140.5194  134.0574  155.7840 H   0  0  0  0  0  0  0  0  0  0  0  0  # atno 11005 bound_to 11000
  144.6920  140.3236  143.7228 LP  0  0  0  0  0  0  0  0  0  0  0  0  # atno 17320 bound_to 7965
  145.7485  139.1786  143.2335 LP  0  0  0  0  0  0  0  0  0  0  0  0  # atno 17321 bound_to 7965
  139.4879  144.6329  151.7035 LP  0  0  0  0  0  0  0  0  0  0  0  0  # atno 17342 bound_to 10162
  140.5504  144.0435  150.6124 LP  0  0  0  0  0  0  0  0  0  0  0  0  # atno 17343 bound_to 10162
  157.3327  131.0702  151.1849 LP  0  0  0  0  0  0  0  0  0  0  0  0  # atno 17370 bound_to 10713
  157.2724  130.6711  149.6026 LP  0  0  0  0  0  0  0  0  0  0  0  0  # atno 17371 bound_to 10713
  141.1342  133.9249  157.2469 LP  0  0  0  0  0  0  0  0  0  0  0  0  # atno 17394 bound_to 11000
  139.9614  135.0153  156.9271 LP  0  0  0  0  0  0  0  0  0  0  0  0  # atno 17395 bound_to 11000

$$$$
