AV-unprocessed.smi:2919|AV-procd|sdf|11192|dock4
  -GOLD-   2272016 83D 1   1.00000     0.00000
 Structure written by MMmdl.
 34 36  0  0  0  0  0  0  0  0  1 V2000
  152.2914  137.9340  154.9308 C   0  0  0  0  0  0  0  0  0  0  0  0
  151.7017  139.2351  155.4458 C   0  0  0  0  0  0  0  0  0  0  0  0
  152.4697  139.8942  156.3409 N   0  0  0  0  0  0  0  0  0  0  0  0
  152.0573  141.0496  156.8644 N   0  0  0  0  0  0  0  0  0  0  0  0
  150.8632  141.5868  156.5150 C   0  0  0  0  0  0  0  0  0  0  0  0
  150.4978  142.8084  157.1108 N   0  0  0  0  0  0  0  0  0  0  0  0
  150.8004  143.1005  158.5079 C   0  0  2  0  0  0  0  0  0  0  0  0
  150.4703  144.5449  158.9067 C   0  0  0  0  0  0  0  0  0  0  0  0
  151.8177  145.0418  159.4445 C   0  0  1  0  0  0  0  0  0  0  0  0
  152.2031  144.3640  160.7665 C   0  0  0  0  0  0  0  0  0  0  0  0
  152.5863  142.9605  160.2977 C   0  0  0  0  0  0  0  0  0  0  0  0
  152.3115  143.0447  158.7904 C   0  0  2  0  0  0  0  0  0  0  0  0
  152.6972  144.3880  158.5470 O   0  0  0  0  0  0  0  0  0  0  0  0
  150.0072  140.9496  155.5796 C   0  0  0  0  0  0  0  0  0  0  0  0
  148.7207  141.5335  155.2048 C   0  0  0  0  0  0  0  0  0  0  0  0
  147.7023  141.9958  154.9080 N   0  0  0  0  0  0  0  0  0  0  0  0
  150.4419  139.7215  155.0202 C   0  0  0  0  0  0  0  0  0  0  0  0
  149.5859  138.9648  154.0076 C   0  0  0  0  0  0  0  0  0  0  0  0
  152.4280  137.9786  153.8501 H   0  0  0  0  0  0  0  0  0  0  0  0
  151.6340  137.0971  155.1668 H   0  0  0  0  0  0  0  0  0  0  0  0
  153.2641  137.7299  155.3806 H   0  0  0  0  0  0  0  0  0  0  0  0
  149.8561  143.4199  156.6264 H   0  0  0  0  0  0  0  0  0  0  0  0
  150.2820  142.3813  159.1440 H   0  0  0  0  0  0  0  0  0  0  0  0
  150.1681  145.1416  158.0447 H   0  0  0  0  0  0  0  0  0  0  0  0
  149.6765  144.6034  159.6521 H   0  0  0  0  0  0  0  0  0  0  0  0
  151.9151  146.1276  159.4575 H   0  0  0  0  0  0  0  0  0  0  0  0
  153.0589  144.8608  161.2249 H   0  0  0  0  0  0  0  0  0  0  0  0
  151.3824  144.3623  161.4846 H   0  0  0  0  0  0  0  0  0  0  0  0
  153.6435  142.7706  160.4864 H   0  0  0  0  0  0  0  0  0  0  0  0
  152.0061  142.1761  160.7853 H   0  0  0  0  0  0  0  0  0  0  0  0
  152.8557  142.3014  158.2064 H   0  0  0  0  0  0  0  0  0  0  0  0
  148.6256  138.6995  154.4511 H   0  0  0  0  0  0  0  0  0  0  0  0
  150.0458  138.0436  153.6545 H   0  0  0  0  0  0  0  0  0  0  0  0
  149.3971  139.5885  153.1332 H   0  0  0  0  0  0  0  0  0  0  0  0
  1  2  1  0  0  0  0
  1 19  1  0  0  0  0
  1 20  1  0  0  0  0
  1 21  1  0  0  0  0
  2 17  1  0  0  0  0
  2  3  2  0  0  0  0
  3  4  1  0  0  0  0
  4  5  2  0  0  0  0
  5  6  1  0  0  0  0
  5 14  1  0  0  0  0
  6  7  1  0  0  0  0
  6 22  1  0  0  0  0
  7 12  1  0  0  0  0
  7  8  1  0  0  0  0
  7 23  1  0  0  0  0
  8  9  1  0  0  0  0
  8 24  1  0  0  0  0
  8 25  1  0  0  0  0
  9 13  1  0  0  0  0
  9 10  1  0  0  0  0
  9 26  1  0  0  0  0
 10 11  1  0  0  0  0
 10 27  1  0  0  0  0
 10 28  1  0  0  0  0
 11 12  1  0  0  0  0
 11 29  1  0  0  0  0
 11 30  1  0  0  0  0
 12 13  1  0  0  0  0
 12 31  1  0  0  0  0
 14 15  1  0  0  0  0
 14 17  2  0  0  0  0
 15 16  3  0  0  0  0
 17 18  1  0  0  0  0
 18 32  1  0  0  0  0
 18 33  1  0  0  0  0
 18 34  1  0  0  0  0
M  END
> <s_m_source_file>
AV-unprocessed.smi

> <i_m_source_file_index>
2919

> <i_lp_mmshare_version>
43012

> <i_f3d_flags>
0

> <s_epik_input>
W0NIM11jMW5uYyhjKEMjTiljMVtDSDNdKVtOSF1bQ0BIXShbQ0gyXVtDQEBIXTIzKVtDQEBIXShPMylbQ0gyXVtDSDJdMg==

> <s_epik_cmdline>
J2VwaWtfcHl0aG9uJywgJy1waCcsICc3LjAnLCAnLXRuJywgJzgnLCAnLW1hJywgJzIwMCcsICctbWV0YWxfYmluZGluZycsICctaW1hZScsICc8aW5maWxlLm1hZT4nLCAnLW9tYWUnLCAnPG91dGZpbGUubWFlPic=

> <r_lp_tautomer_probability>
1

> <r_epik_Ionization_Penalty>
0.00143865

> <r_epik_Ionization_Penalty_Charging>
0

> <r_epik_Ionization_Penalty_Neutral>
0.00143865

> <r_epik_State_Penalty>
-0

> <r_epik_Charging_Adjusted_Penalty>
0

> <i_epik_Tot_Q>
0

> <i_epik_Tot_abs_Q>
0

> <r_epik_Metal_State_Penalty>
-0

> <b_epik_Metal_Only>
0

> <s_lp_Force_Field>
OPLS_2005

> <r_lp_Energy>
49.0133

> <b_lp_Chiralities_Consistent>
1

> <s_lp_Variant>
AV-unprocessed.smi:2919-1

> <Gold.Version>
5.8.1

> <Gold.Id.Protein>
6NUR|6NUR_protein|mol2

> <Gold.PLP.Fitness>
43.7225

> <Gold.PLP.PLP>
-38.3177

> <Gold.PLP.part.hbond>
-2.1849

> <Gold.PLP.part.metal>
0.0000

> <Gold.PLP.part.buried>
-0.2987

> <Gold.PLP.part.nonpolar>
-35.5824

> <Gold.PLP.part.repulsive>
0.7366

> <Gold.PLP.ligand.clash>
0.0000

> <Gold.PLP.ligand.torsion>
0.3075

> <Gold.PLP.Chemscore.Hbond>
2.0000

> <Gold.PLP.Chemscore.CHOScore>
0.0000

> <Gold.PLP.Chemscore.Metal>
0.0000

> <Gold.Chemscore.Hbonds>
donor molecule, donor type, donor heavy atom, donor atom, acceptor molecule, acceptor atom, score
      L1  H     6    22       P1  8028  1.00
      P1  H  7997  8010       L1     3  1.00

> <Gold.PLP.Chemscore.Internal.Correction>
0.0199

> <Gold.Rescore>
     Score         DG    S(hbond)    S(metal)    S(lipo)     H(rot)  DE(clash)    DE(int)     intcor
     17.06     -20.19       1.60        0.00     101.97       1.00       1.40       1.74       ----

> <Gold.Chemscore.Fitness>
17.0557

> <Gold.Chemscore.DG>
-20.1938

> <Gold.Chemscore.ZeroCoef>
-5.4800

> <Gold.Chemscore.Hbond>
1.5996

> <Gold.Chemscore.Metal>
0.0000

> <Gold.Chemscore.Lipo>
101.9748

> <Gold.Chemscore.Internal_Hbond>
0.0000

> <Gold.Chemscore.DEClash>
1.4025

> <Gold.Chemscore.DEInternal>
1.7355

> <Gold.Chemscore.Rot>
1.0000

> <Gold.Chemscore.Internal.Correction>
   9.000000E+99

> <Gold.Chemscore.Hbonds>
donor molecule, donor type, donor heavy atom, donor atom, acceptor molecule, acceptor atom, score
      L1  H     6    22       P1  8028  1.00
      P1  H  7997  8010       L1     3  0.30

> <Gold.Chemscore.Hbond.Weighted>
-5.3427

> <Gold.Chemscore.Metal.Weighted>
-0.0000

> <Gold.Chemscore.Lipo.Weighted>
-11.9311

> <Gold.Chemscore.Internal_Hbond.Weighted>
0.0000

> <Gold.Chemscore.DEClash.Weighted>
1.4025

> <Gold.Chemscore.DEInternal.Weighted>
1.7355

> <Gold.Chemscore.Rot.Weighted>
2.5600

> <Gold.Chemscore.Internal.Correction.Weighted>
   9.000000E+99

> <Gold.Protein.RotatedTorsions>
[ 6907 6896 6895 6894 ] final -136.95 input  -60.11 | X-H torsion
[ 7974 7965 7964 7962 ] final  113.61 input  175.53 | X-H torsion
[ 8008 7997 7996 7995 ] final   78.91 input   59.86 | X-H torsion
[ 10167 10162 10161 10158 ] final  143.63 input  -65.29 | X-H torsion
[ 10718 10713 10712 10709 ] final -108.22 input   66.30 | X-H torsion
[ 10763 10752 10751 10750 ] final   69.26 input  -60.55 | X-H torsion
[ 11005 11000 10999 10996 ] final  105.22 input  -57.11 | X-H torsion

> <Gold.Protein.ActiveResidues>
 VAL166  LYS551  ARG553  GLY616  TRP617  ASP618  TYR619  PRO620  LYS621  CYS622 
 ASP623  PHE694  ASN695  SER759  ASP760  ASP761  ALA762  ILE779  LEU786  VAL792 
 PHE793  MET794  SER795  GLU796  ALA797  LYS798  CYS799  TRP800  GLU811  SER814 

> <Gold.Protein.RotatedAtoms>
  151.0164  133.5917  159.2676 H   0  0  0  0  0  0  0  0  0  0  0  0  # atno 6907 bound_to 6896
  151.3050  135.0778  159.9262 H   0  0  0  0  0  0  0  0  0  0  0  0  # atno 6908 bound_to 6896
  152.5312  133.9839  159.7873 H   0  0  0  0  0  0  0  0  0  0  0  0  # atno 6909 bound_to 6896
  145.2148  139.2889  143.4249 H   0  0  0  0  0  0  0  0  0  0  0  0  # atno 7974 bound_to 7965
  155.8623  140.3453  155.5765 H   0  0  0  0  0  0  0  0  0  0  0  0  # atno 8008 bound_to 7997
  155.7919  140.0873  157.2023 H   0  0  0  0  0  0  0  0  0  0  0  0  # atno 8009 bound_to 7997
  154.4012  140.1481  156.3161 H   0  0  0  0  0  0  0  0  0  0  0  0  # atno 8010 bound_to 7997
  139.4965  144.6027  151.6446 H   0  0  0  0  0  0  0  0  0  0  0  0  # atno 10167 bound_to 10162
  156.0474  130.5702  150.7930 H   0  0  0  0  0  0  0  0  0  0  0  0  # atno 10718 bound_to 10713
  153.0277  135.5217  154.7260 H   0  0  0  0  0  0  0  0  0  0  0  0  # atno 10763 bound_to 10752
  154.6302  135.2899  155.0228 H   0  0  0  0  0  0  0  0  0  0  0  0  # atno 10764 bound_to 10752
  154.1182  135.6611  153.4950 H   0  0  0  0  0  0  0  0  0  0  0  0  # atno 10765 bound_to 10752
  139.8800  134.9328  156.5481 H   0  0  0  0  0  0  0  0  0  0  0  0  # atno 11005 bound_to 11000
  146.3389  140.2435  142.8596 LP  0  0  0  0  0  0  0  0  0  0  0  0  # atno 17320 bound_to 7965
  144.9821  140.8469  143.5391 LP  0  0  0  0  0  0  0  0  0  0  0  0  # atno 17321 bound_to 7965
  140.5681  144.0156  150.6202 LP  0  0  0  0  0  0  0  0  0  0  0  0  # atno 17342 bound_to 10162
  140.3264  143.3105  152.0732 LP  0  0  0  0  0  0  0  0  0  0  0  0  # atno 17343 bound_to 10162
  157.5365  131.0939  150.9885 LP  0  0  0  0  0  0  0  0  0  0  0  0  # atno 17370 bound_to 10713
  157.0178  130.5662  149.5328 LP  0  0  0  0  0  0  0  0  0  0  0  0  # atno 17371 bound_to 10713
  140.8260  133.8316  155.8939 LP  0  0  0  0  0  0  0  0  0  0  0  0  # atno 17394 bound_to 11000
  140.9373  134.1945  157.4822 LP  0  0  0  0  0  0  0  0  0  0  0  0  # atno 17395 bound_to 11000

$$$$
