AV-unprocessed.smi:718|AV-procd|sdf|3491|dock9
  -GOLD-   22720 0483D 1   1.00000     0.00000
 Structure written by MMmdl.
 27 28  0  0  0  0  0  0  0  0  1 V2000
  150.6182  142.5167  157.6516 O   0  0  0  0  0  0  0  0  0  0  0  0
  151.4346  141.6220  157.4286 C   0  0  0  0  0  0  0  0  0  0  0  0
  152.4144  141.2610  158.2798 N   0  0  0  0  0  0  0  0  0  0  0  0
  152.7000  141.7801  159.5702 C   0  0  0  0  0  0  0  0  0  0  0  0
  153.6084  141.0145  160.3350 C   0  0  0  0  0  0  0  0  0  0  0  0
  153.9589  141.4421  161.6306 C   0  0  0  0  0  0  0  0  0  0  0  0
  155.0689  140.5128  162.5734 Cl  0  0  0  0  0  0  0  0  0  0  0  0
  153.3885  142.6307  162.1292 C   0  0  0  0  0  0  0  0  0  0  0  0
  153.7643  143.2254  163.7069 Cl  0  0  0  0  0  0  0  0  0  0  0  0
  152.4930  143.3324  161.3011 C   0  0  0  0  0  0  0  0  0  0  0  0
  152.1572  142.9226  160.0597 N   0  0  0  0  0  0  0  0  0  0  0  0
  151.3903  140.8584  156.0960 C   0  0  2  0  0  0  0  0  0  0  0  0
  150.1041  141.1399  155.2846 C   0  0  0  0  0  0  0  0  0  0  0  0
  150.1235  140.3708  154.0891 O   0  0  0  0  0  0  0  0  0  0  0  0
  150.1918  138.9797  154.3684 C   0  0  0  0  0  0  0  0  0  0  0  0
  151.4761  138.6938  155.1631 C   0  0  0  0  0  0  0  0  0  0  0  0
  151.4585  139.4585  156.3609 O   0  0  0  0  0  0  0  0  0  0  0  0
  153.0184  140.5155  157.9659 H   0  0  0  0  0  0  0  0  0  0  0  0
  154.0350  140.1059  159.9351 H   0  0  0  0  0  0  0  0  0  0  0  0
  152.0329  144.2481  161.6421 H   0  0  0  0  0  0  0  0  0  0  0  0
  152.2650  141.1575  155.5158 H   0  0  0  0  0  0  0  0  0  0  0  0
  149.2102  140.9048  155.8651 H   0  0  0  0  0  0  0  0  0  0  0  0
  150.0419  142.1937  155.0109 H   0  0  0  0  0  0  0  0  0  0  0  0
  149.3093  138.6618  154.9257 H   0  0  0  0  0  0  0  0  0  0  0  0
  150.1956  138.4273  153.4288 H   0  0  0  0  0  0  0  0  0  0  0  0
  151.5367  137.6354  155.4171 H   0  0  0  0  0  0  0  0  0  0  0  0
  152.3620  138.9352  154.5737 H   0  0  0  0  0  0  0  0  0  0  0  0
  1  2  2  0  0  0  0
  2  3  1  0  0  0  0
  2 12  1  0  0  0  0
  3  4  1  0  0  0  0
  3 18  1  0  0  0  0
  4 11  1  0  0  0  0
  4  5  2  0  0  0  0
  5  6  1  0  0  0  0
  5 19  1  0  0  0  0
  6  7  1  0  0  0  0
  6  8  2  0  0  0  0
  8  9  1  0  0  0  0
  8 10  1  0  0  0  0
 10 11  2  0  0  0  0
 10 20  1  0  0  0  0
 12 17  1  0  0  0  0
 12 13  1  0  0  0  0
 12 21  1  0  0  0  0
 13 14  1  0  0  0  0
 13 22  1  0  0  0  0
 13 23  1  0  0  0  0
 14 15  1  0  0  0  0
 15 16  1  0  0  0  0
 15 24  1  0  0  0  0
 15 25  1  0  0  0  0
 16 17  1  0  0  0  0
 16 26  1  0  0  0  0
 16 27  1  0  0  0  0
M  END
> <s_m_source_file>
AV-unprocessed.smi

> <i_m_source_file_index>
718

> <i_lp_mmshare_version>
43012

> <i_f3d_flags>
0

> <s_epik_input>
TzFbQ0gyXVtDSDJdT1tDSDJdW0NASF0xQyg9TylbTkhdYzJbY0hdYyhDbCljKENsKVtjSF1uMg==

> <s_epik_cmdline>
J2VwaWtfcHl0aG9uJywgJy1waCcsICc3LjAnLCAnLXRuJywgJzgnLCAnLW1hJywgJzIwMCcsICctbWV0YWxfYmluZGluZycsICctaW1hZScsICc8aW5maWxlLm1hZT4nLCAnLW9tYWUnLCAnPG91dGZpbGUubWFlPic=

> <r_lp_tautomer_probability>
1

> <r_epik_Ionization_Penalty>
4.81693e-06

> <r_epik_Ionization_Penalty_Charging>
0

> <r_epik_Ionization_Penalty_Neutral>
4.81693e-06

> <r_epik_State_Penalty>
-0

> <r_epik_Charging_Adjusted_Penalty>
0

> <i_epik_Tot_Q>
0

> <i_epik_Tot_abs_Q>
0

> <r_epik_Metal_State_Penalty>
-0

> <b_epik_Metal_Only>
0

> <s_lp_Force_Field>
OPLS_2005

> <r_lp_Energy>
11.6855

> <b_lp_Chiralities_Consistent>
1

> <s_lp_Variant>
AV-unprocessed.smi:718-1

> <Gold.Version>
5.8.1

> <Gold.Id.Protein>
6NUR|6NUR_protein|mol2

> <Gold.PLP.Fitness>
41.9752

> <Gold.PLP.PLP>
-39.9175

> <Gold.PLP.part.hbond>
-1.0000

> <Gold.PLP.part.metal>
0.0000

> <Gold.PLP.part.buried>
-4.6534

> <Gold.PLP.part.nonpolar>
-32.9331

> <Gold.PLP.part.repulsive>
1.1746

> <Gold.PLP.ligand.clash>
0.0000

> <Gold.PLP.ligand.torsion>
0.2680

> <Gold.PLP.Chemscore.Hbond>
0.8640

> <Gold.PLP.Chemscore.CHOScore>
0.0000

> <Gold.PLP.Chemscore.Metal>
0.0000

> <Gold.Chemscore.Hbonds>
donor molecule, donor type, donor heavy atom, donor atom, acceptor molecule, acceptor atom, score
      P1  H  7989  7998       L1    14  0.81

> <Gold.PLP.Chemscore.Internal.Correction>
0.0017

> <Gold.Rescore>
     Score         DG    S(hbond)    S(metal)    S(lipo)     H(rot)  DE(clash)    DE(int)     intcor
     14.86     -16.40       0.91        0.00      89.23       1.00       0.19       1.35       ----

> <Gold.Chemscore.Fitness>
14.8589

> <Gold.Chemscore.DG>
-16.3989

> <Gold.Chemscore.ZeroCoef>
-5.4800

> <Gold.Chemscore.Hbond>
0.9097

> <Gold.Chemscore.Metal>
0.0000

> <Gold.Chemscore.Lipo>
89.2341

> <Gold.Chemscore.Internal_Hbond>
0.0000

> <Gold.Chemscore.DEClash>
0.1888

> <Gold.Chemscore.DEInternal>
1.3512

> <Gold.Chemscore.Rot>
1.0000

> <Gold.Chemscore.Internal.Correction>
   9.000000E+99

> <Gold.Chemscore.Hbonds>
donor molecule, donor type, donor heavy atom, donor atom, acceptor molecule, acceptor atom, score
      P1  H  7989  7998       L1    14  0.13

> <Gold.Chemscore.Hbond.Weighted>
-3.0385

> <Gold.Chemscore.Metal.Weighted>
-0.0000

> <Gold.Chemscore.Lipo.Weighted>
-10.4404

> <Gold.Chemscore.Internal_Hbond.Weighted>
0.0000

> <Gold.Chemscore.DEClash.Weighted>
0.1888

> <Gold.Chemscore.DEInternal.Weighted>
1.3512

> <Gold.Chemscore.Rot.Weighted>
2.5600

> <Gold.Chemscore.Internal.Correction.Weighted>
   9.000000E+99

> <Gold.Protein.RotatedTorsions>
[ 6907 6896 6895 6894 ] final -102.82 input  -60.11 | X-H torsion
[ 7974 7965 7964 7962 ] final -165.90 input  175.53 | X-H torsion
[ 8008 7997 7996 7995 ] final  115.81 input   59.86 | X-H torsion
[ 10167 10162 10161 10158 ] final  116.97 input  -65.29 | X-H torsion
[ 10718 10713 10712 10709 ] final -150.73 input   66.30 | X-H torsion
[ 10763 10752 10751 10750 ] final   72.45 input  -60.55 | X-H torsion
[ 11005 11000 10999 10996 ] final   31.17 input  -57.11 | X-H torsion

> <Gold.Protein.ActiveResidues>
 VAL166  LYS551  ARG553  GLY616  TRP617  ASP618  TYR619  PRO620  LYS621  CYS622 
 ASP623  PHE694  ASN695  SER759  ASP760  ASP761  ALA762  ILE779  LEU786  VAL792 
 PHE793  MET794  SER795  GLU796  ALA797  LYS798  CYS799  TRP800  GLU811  SER814 

> <Gold.Protein.RotatedAtoms>
  150.7212  134.0524  159.3802 H   0  0  0  0  0  0  0  0  0  0  0  0  # atno 6907 bound_to 6896
  151.8501  135.0558  160.0467 H   0  0  0  0  0  0  0  0  0  0  0  0  # atno 6908 bound_to 6896
  152.2797  133.5423  159.5526 H   0  0  0  0  0  0  0  0  0  0  0  0  # atno 6909 bound_to 6896
  144.7258  140.2746  143.6245 H   0  0  0  0  0  0  0  0  0  0  0  0  # atno 7974 bound_to 7965
  156.2403  140.2931  156.0425 H   0  0  0  0  0  0  0  0  0  0  0  0  # atno 8008 bound_to 7997
  155.1971  140.0408  157.2928 H   0  0  0  0  0  0  0  0  0  0  0  0  # atno 8009 bound_to 7997
  154.6155  140.2462  155.7621 H   0  0  0  0  0  0  0  0  0  0  0  0  # atno 8010 bound_to 7997
  139.6211  144.7101  151.2633 H   0  0  0  0  0  0  0  0  0  0  0  0  # atno 10167 bound_to 10162
  156.4499  130.8163  151.2393 H   0  0  0  0  0  0  0  0  0  0  0  0  # atno 10718 bound_to 10713
  153.0460  135.5099  154.7745 H   0  0  0  0  0  0  0  0  0  0  0  0  # atno 10763 bound_to 10752
  154.6645  135.2943  154.9825 H   0  0  0  0  0  0  0  0  0  0  0  0  # atno 10764 bound_to 10752
  154.0664  135.6683  153.4871 H   0  0  0  0  0  0  0  0  0  0  0  0  # atno 10765 bound_to 10752
  140.2867  134.2911  155.7786 H   0  0  0  0  0  0  0  0  0  0  0  0  # atno 11005 bound_to 11000
  145.8009  139.1964  143.2048 LP  0  0  0  0  0  0  0  0  0  0  0  0  # atno 17320 bound_to 7965
  146.0677  140.7903  142.9703 LP  0  0  0  0  0  0  0  0  0  0  0  0  # atno 17321 bound_to 7965
  140.7382  143.6655  150.8127 LP  0  0  0  0  0  0  0  0  0  0  0  0  # atno 17342 bound_to 10162
  140.0265  143.5487  152.2778 LP  0  0  0  0  0  0  0  0  0  0  0  0  # atno 17343 bound_to 10162
  157.7503  131.0141  150.3451 LP  0  0  0  0  0  0  0  0  0  0  0  0  # atno 17370 bound_to 10713
  156.3827  130.3883  149.7089 LP  0  0  0  0  0  0  0  0  0  0  0  0  # atno 17371 bound_to 10713
  141.2153  133.7559  156.9562 LP  0  0  0  0  0  0  0  0  0  0  0  0  # atno 17394 bound_to 11000
  140.1233  134.9403  157.2235 LP  0  0  0  0  0  0  0  0  0  0  0  0  # atno 17395 bound_to 11000

$$$$
