AV-unprocessed.smi:1648|AV-procd|sdf|6628|dock3
  -GOLD-   22720 7323D 1   1.00000     0.00000
 Structure written by MMmdl.
 42 42  0  0  0  0  0  0  0  0  2 V2000
  152.7932  138.0331  159.7123 C   0  0  0  0  0  0  0  0  0  0  0  0
  152.8006  139.2089  158.7334 C   0  0  0  0  0  0  0  0  0  0  0  0
  153.2747  139.0561  157.6103 O   0  0  0  0  0  0  0  0  0  0  0  0
  152.2857  140.3900  159.1176 N   0  0  0  0  0  0  0  0  0  0  0  0
  152.2003  141.6256  158.3328 C   0  0  1  0  0  0  0  0  0  0  0  0
  150.9806  141.5317  157.3942 C   0  0  0  0  0  0  0  0  0  0  0  0
  150.0944  142.3867  157.4312 O   0  0  0  0  0  0  0  0  0  0  0  0
  150.9578  140.4853  156.5534 N   0  0  0  0  0  0  0  0  0  0  0  0
  149.8752  140.1460  155.6311 C   0  0  2  0  0  0  0  0  0  0  0  0
  150.2810  138.8908  154.8468 C   0  0  0  0  0  0  0  0  0  0  0  0
  149.5511  141.3173  154.6770 C   0  0  0  0  0  0  0  0  0  0  0  0
  148.1154  141.4756  154.4161 N   0  0  0  0  0  0  0  0  0  0  0  0
  147.2456  142.3297  155.0458 C   0  0  0  0  0  0  0  0  0  0  0  0
  146.0148  142.1241  154.4781 C   0  0  0  0  0  0  0  0  0  0  0  0
  146.1808  141.1427  153.5384 N   0  3  0  0  0  0  0  0  0  0  0  0
  147.4561  140.7425  153.5095 C   0  0  0  0  0  0  0  0  0  0  0  0
  152.0291  142.8298  159.3059 C   0  0  0  0  0  0  0  0  0  0  0  0
  152.0320  144.1903  158.5796 C   0  0  0  0  0  0  0  0  0  0  0  0
  153.1128  142.8506  160.4029 C   0  0  0  0  0  0  0  0  0  0  0  0
  153.3520  138.2748  160.6165 H   0  0  0  0  0  0  0  0  0  0  0  0
  153.2559  137.1557  159.2592 H   0  0  0  0  0  0  0  0  0  0  0  0
  151.7732  137.7669  159.9894 H   0  0  0  0  0  0  0  0  0  0  0  0
  151.8987  140.4337  160.0491 H   0  0  0  0  0  0  0  0  0  0  0  0
  153.1138  141.7638  157.7516 H   0  0  0  0  0  0  0  0  0  0  0  0
  151.7352  139.8414  156.5901 H   0  0  0  0  0  0  0  0  0  0  0  0
  148.9806  139.8884  156.2011 H   0  0  0  0  0  0  0  0  0  0  0  0
  149.4851  138.5740  154.1722 H   0  0  0  0  0  0  0  0  0  0  0  0
  150.4908  138.0577  155.5188 H   0  0  0  0  0  0  0  0  0  0  0  0
  151.1743  139.0677  154.2464 H   0  0  0  0  0  0  0  0  0  0  0  0
  149.9475  142.2566  155.0667 H   0  0  0  0  0  0  0  0  0  0  0  0
  150.0252  141.1540  153.7084 H   0  0  0  0  0  0  0  0  0  0  0  0
  147.5606  143.0098  155.8240 H   0  0  0  0  0  0  0  0  0  0  0  0
  145.0582  142.5879  154.6699 H   0  0  0  0  0  0  0  0  0  0  0  0
  147.8700  139.9807  152.8733 H   0  0  0  0  0  0  0  0  0  0  0  0
  151.0666  142.7328  159.8116 H   0  0  0  0  0  0  0  0  0  0  0  0
  152.9615  144.3408  158.0298 H   0  0  0  0  0  0  0  0  0  0  0  0
  151.9307  145.0130  159.2881 H   0  0  0  0  0  0  0  0  0  0  0  0
  151.2101  144.2815  157.8721 H   0  0  0  0  0  0  0  0  0  0  0  0
  154.1119  142.9063  159.9696 H   0  0  0  0  0  0  0  0  0  0  0  0
  153.0737  141.9646  161.0363 H   0  0  0  0  0  0  0  0  0  0  0  0
  152.9896  143.7119  161.0601 H   0  0  0  0  0  0  0  0  0  0  0  0
  145.4451  140.7697  152.9514 H   0  0  0  0  0  0  0  0  0  0  0  0
  1  2  1  0  0  0  0
  1 20  1  0  0  0  0
  1 21  1  0  0  0  0
  1 22  1  0  0  0  0
  2  3  2  0  0  0  0
  2  4  1  0  0  0  0
  4  5  1  0  0  0  0
  4 23  1  0  0  0  0
  5  6  1  0  0  0  0
  5 17  1  0  0  0  0
  5 24  1  0  0  0  0
  6  7  2  0  0  0  0
  6  8  1  0  0  0  0
  8  9  1  0  0  0  0
  8 25  1  0  0  0  0
  9 10  1  0  0  0  0
  9 11  1  0  0  0  0
  9 26  1  0  0  0  0
 10 27  1  0  0  0  0
 10 28  1  0  0  0  0
 10 29  1  0  0  0  0
 11 12  1  0  0  0  0
 11 30  1  0  0  0  0
 11 31  1  0  0  0  0
 12 16  1  0  0  0  0
 12 13  1  0  0  0  0
 13 14  2  0  0  0  0
 13 32  1  0  0  0  0
 14 15  1  0  0  0  0
 14 33  1  0  0  0  0
 15 16  2  0  0  0  0
 15 42  1  0  0  0  0
 16 34  1  0  0  0  0
 17 18  1  0  0  0  0
 17 19  1  0  0  0  0
 17 35  1  0  0  0  0
 18 36  1  0  0  0  0
 18 37  1  0  0  0  0
 18 38  1  0  0  0  0
 19 39  1  0  0  0  0
 19 40  1  0  0  0  0
 19 41  1  0  0  0  0
M  CHG  1  15   1
M  END
> <s_m_source_file>
AV-unprocessed.smi

> <i_m_source_file_index>
1648

> <i_lp_mmshare_version>
43012

> <i_f3d_flags>
0

> <s_epik_input>
W0NIM11DKD1PKVtOSF1bQ0BASF0oW0NIXShbQ0gzXSlbQ0gzXSlDKD1PKVtOSF1bQ0BIXShbQ0gzXSlbQ0gyXW4xW2NIXVtjSF1uW2NIXTE=

> <s_epik_cmdline>
J2VwaWtfcHl0aG9uJywgJy1waCcsICc3LjAnLCAnLXRuJywgJzgnLCAnLW1hJywgJzIwMCcsICctbWV0YWxfYmluZGluZycsICctaW1hZScsICc8aW5maWxlLm1hZT4nLCAnLW9tYWUnLCAnPG91dGZpbGUubWFlPic=

> <r_lp_tautomer_probability>
1

> <r_epik_Ionization_Penalty>
0.251562

> <r_epik_Ionization_Penalty_Charging>
0

> <r_epik_Ionization_Penalty_Neutral>
0.251562

> <r_epik_State_Penalty>
0.242926

> <r_epik_Charging_Adjusted_Penalty>
0.242926

> <i_epik_Tot_Q>
1

> <i_epik_Tot_abs_Q>
1

> <r_epik_Metal_State_Penalty>
0.53388

> <b_epik_Metal_Only>
0

> <s_lp_Force_Field>
OPLS_2005

> <r_lp_Energy>
11.0591

> <b_lp_Chiralities_Consistent>
1

> <s_lp_Variant>
AV-unprocessed.smi:1648-2

> <Gold.Version>
5.8.1

> <Gold.Id.Protein>
6NUR|6NUR_protein|mol2

> <Gold.PLP.Fitness>
49.7899

> <Gold.PLP.PLP>
-37.1374

> <Gold.PLP.part.hbond>
-2.0000

> <Gold.PLP.part.metal>
0.0000

> <Gold.PLP.part.buried>
-2.4157

> <Gold.PLP.part.nonpolar>
-33.6368

> <Gold.PLP.part.repulsive>
0.3789

> <Gold.PLP.ligand.clash>
0.0000

> <Gold.PLP.ligand.torsion>
1.2261

> <Gold.PLP.Chemscore.Hbond>
3.0000

> <Gold.PLP.Chemscore.CHOScore>
2.0000

> <Gold.PLP.Chemscore.Metal>
0.0000

> <Gold.Chemscore.Hbonds>
donor molecule, donor type, donor heavy atom, donor atom, acceptor molecule, acceptor atom, score
      L1  H    15    42       P1 10175  2.00
      P1  H  7997  8010       L1     3  1.00
      L1  C    13    32       P1  8028  0.92
      L1  C    16    34       P1  7957  1.00

> <Gold.PLP.Chemscore.Internal.Correction>
0.1047

> <Gold.Rescore>
     Score         DG    S(hbond)    S(metal)    S(lipo)     H(rot)  DE(clash)    DE(int)     intcor
     12.06     -14.63       1.94        0.00      80.11       2.61       0.03       2.54       ----

> <Gold.Chemscore.Fitness>
12.0633

> <Gold.Chemscore.DG>
-14.6339

> <Gold.Chemscore.ZeroCoef>
-5.4800

> <Gold.Chemscore.Hbond>
1.9376

> <Gold.Chemscore.Metal>
0.0000

> <Gold.Chemscore.Lipo>
80.1118

> <Gold.Chemscore.Internal_Hbond>
0.0000

> <Gold.Chemscore.DEClash>
0.0257

> <Gold.Chemscore.DEInternal>
2.5449

> <Gold.Chemscore.Rot>
2.6135

> <Gold.Chemscore.Internal.Correction>
   9.000000E+99

> <Gold.Chemscore.Hbonds>
donor molecule, donor type, donor heavy atom, donor atom, acceptor molecule, acceptor atom, score
      L1  H    15    42       P1 10175  0.54
      P1  H  7997  8010       L1     3  1.00

> <Gold.Chemscore.Hbond.Weighted>
-6.4714

> <Gold.Chemscore.Metal.Weighted>
-0.0000

> <Gold.Chemscore.Lipo.Weighted>
-9.3731

> <Gold.Chemscore.Internal_Hbond.Weighted>
0.0000

> <Gold.Chemscore.DEClash.Weighted>
0.0257

> <Gold.Chemscore.DEInternal.Weighted>
2.5449

> <Gold.Chemscore.Rot.Weighted>
6.6906

> <Gold.Chemscore.Internal.Correction.Weighted>
   9.000000E+99

> <Gold.Protein.RotatedTorsions>
[ 6907 6896 6895 6894 ] final  151.42 input  -60.11 | X-H torsion
[ 7974 7965 7964 7962 ] final   22.84 input  175.53 | X-H torsion
[ 8008 7997 7996 7995 ] final   47.89 input   59.86 | X-H torsion
[ 10167 10162 10161 10158 ] final  154.86 input  -65.29 | X-H torsion
[ 10718 10713 10712 10709 ] final  133.51 input   66.30 | X-H torsion
[ 10763 10752 10751 10750 ] final  107.90 input  -60.55 | X-H torsion
[ 11005 11000 10999 10996 ] final  -87.66 input  -57.11 | X-H torsion

> <Gold.Protein.ActiveResidues>
 VAL166  LYS551  ARG553  GLY616  TRP617  ASP618  TYR619  PRO620  LYS621  CYS622 
 ASP623  PHE694  ASN695  SER759  ASP760  ASP761  ALA762  ILE779  LEU786  VAL792 
 PHE793  MET794  SER795  GLU796  ALA797  LYS798  CYS799  TRP800  GLU811  SER814 

> <Gold.Protein.RotatedAtoms>
  152.1008  133.4249  159.4586 H   0  0  0  0  0  0  0  0  0  0  0  0  # atno 6907 bound_to 6896
  150.6864  134.2762  159.4618 H   0  0  0  0  0  0  0  0  0  0  0  0  # atno 6908 bound_to 6896
  152.0622  134.9586  160.0625 H   0  0  0  0  0  0  0  0  0  0  0  0  # atno 6909 bound_to 6896
  146.2011  139.7828  142.8761 H   0  0  0  0  0  0  0  0  0  0  0  0  # atno 7974 bound_to 7965
  155.3765  140.3426  155.4245 H   0  0  0  0  0  0  0  0  0  0  0  0  # atno 8008 bound_to 7997
  156.1634  140.1608  156.8607 H   0  0  0  0  0  0  0  0  0  0  0  0  # atno 8009 bound_to 7997
  154.5161  140.0778  156.8066 H   0  0  0  0  0  0  0  0  0  0  0  0  # atno 8010 bound_to 7997
  139.4822  144.5149  151.7967 H   0  0  0  0  0  0  0  0  0  0  0  0  # atno 10167 bound_to 10162
  157.4765  131.1083  150.9736 H   0  0  0  0  0  0  0  0  0  0  0  0  # atno 10718 bound_to 10713
  153.4132  135.3829  155.2063 H   0  0  0  0  0  0  0  0  0  0  0  0  # atno 10763 bound_to 10752
  154.8739  135.3799  154.4476 H   0  0  0  0  0  0  0  0  0  0  0  0  # atno 10764 bound_to 10752
  153.4986  135.7088  153.5906 H   0  0  0  0  0  0  0  0  0  0  0  0  # atno 10765 bound_to 10752
  141.1613  133.7524  156.9338 H   0  0  0  0  0  0  0  0  0  0  0  0  # atno 11005 bound_to 11000
  145.3480  141.0302  143.3354 LP  0  0  0  0  0  0  0  0  0  0  0  0  # atno 17320 bound_to 7965
  144.8686  139.5072  143.6778 LP  0  0  0  0  0  0  0  0  0  0  0  0  # atno 17321 bound_to 7965
  140.4656  144.1659  150.5911 LP  0  0  0  0  0  0  0  0  0  0  0  0  # atno 17342 bound_to 10162
  140.4437  143.2515  151.9439 LP  0  0  0  0  0  0  0  0  0  0  0  0  # atno 17343 bound_to 10162
  157.0483  130.5777  149.5366 LP  0  0  0  0  0  0  0  0  0  0  0  0  # atno 17370 bound_to 10713
  156.0100  130.5190  150.7956 LP  0  0  0  0  0  0  0  0  0  0  0  0  # atno 17371 bound_to 10713
  140.1368  134.9320  157.2413 LP  0  0  0  0  0  0  0  0  0  0  0  0  # atno 17394 bound_to 11000
  140.2885  134.3267  155.7322 LP  0  0  0  0  0  0  0  0  0  0  0  0  # atno 17395 bound_to 11000

$$$$
