AV-unprocessed.smi:470|AV-procd|sdf|2656|dock5
  -GOLD-   2262023 63D 1   1.00000     0.00000
 Structure written by MMmdl.
 32 33  0  0  0  0  0  0  0  0  2 V2000
  147.4770  141.5593  156.8243 N   0  0  0  0  0  0  0  0  0  0  0  0
  147.5691  140.8710  155.6825 C   0  0  0  0  0  0  0  0  0  0  0  0
  146.9439  139.8295  155.4918 O   0  0  0  0  0  0  0  0  0  0  0  0
  148.5051  141.4226  154.6036 C   0  0  0  0  0  0  0  0  0  0  0  0
  149.9186  140.9878  154.8608 C   0  0  0  0  0  0  0  0  0  0  0  0
  150.7622  140.3586  153.9823 C   0  0  0  0  0  0  0  0  0  0  0  0
  152.3196  140.0503  154.6951 S   0  0  0  0  0  0  0  0  0  0  0  0
  151.7765  140.8160  156.1891 C   0  0  0  0  0  0  0  0  0  0  0  0
  152.5201  140.9558  157.3002 N   0  5  0  0  0  0  0  0  0  0  0  0
  152.1584  141.6963  158.3868 C   0  0  0  0  0  0  0  0  0  0  0  0
  151.0475  141.6579  158.9119 O   0  0  0  0  0  0  0  0  0  0  0  0
  153.2384  142.6435  158.9920 C   0  0  2  0  0  0  0  0  0  0  0  0
  153.5772  142.2758  160.4585 C   0  0  0  0  0  0  0  0  0  0  0  0
  152.6205  142.8817  161.4698 C   0  0  0  0  0  0  0  0  0  0  0  0
  151.8095  143.9174  161.1992 C   0  0  0  0  0  0  0  0  0  0  0  0
  151.7433  144.6027  159.8473 C   0  0  0  0  0  0  0  0  0  0  0  0
  152.8647  144.1444  158.8881 C   0  0  0  0  0  0  0  0  0  0  0  0
  150.5020  141.2147  156.1104 N   0  0  0  0  0  0  0  0  0  0  0  0
  146.8552  141.2435  157.5540 H   0  0  0  0  0  0  0  0  0  0  0  0
  148.0150  142.4064  156.9436 H   0  0  0  0  0  0  0  0  0  0  0  0
  148.1630  141.0804  153.6259 H   0  0  0  0  0  0  0  0  0  0  0  0
  148.4378  142.5111  154.5891 H   0  0  0  0  0  0  0  0  0  0  0  0
  150.5648  140.0624  152.9631 H   0  0  0  0  0  0  0  0  0  0  0  0
  154.1565  142.5567  158.4129 H   0  0  0  0  0  0  0  0  0  0  0  0
  153.5716  141.1949  160.5962 H   0  0  0  0  0  0  0  0  0  0  0  0
  154.5856  142.6094  160.7041 H   0  0  0  0  0  0  0  0  0  0  0  0
  152.6271  142.4525  162.4609 H   0  0  0  0  0  0  0  0  0  0  0  0
  151.1510  144.2957  161.9669 H   0  0  0  0  0  0  0  0  0  0  0  0
  150.7618  144.4064  159.4163 H   0  0  0  0  0  0  0  0  0  0  0  0
  151.8025  145.6816  159.9921 H   0  0  0  0  0  0  0  0  0  0  0  0
  153.7603  144.7261  159.1098 H   0  0  0  0  0  0  0  0  0  0  0  0
  152.5984  144.4004  157.8618 H   0  0  0  0  0  0  0  0  0  0  0  0
  1  2  1  0  0  0  0
  1 19  1  0  0  0  0
  1 20  1  0  0  0  0
  2  3  2  0  0  0  0
  2  4  1  0  0  0  0
  4  5  1  0  0  0  0
  4 21  1  0  0  0  0
  4 22  1  0  0  0  0
  5 18  1  0  0  0  0
  5  6  2  0  0  0  0
  6  7  1  0  0  0  0
  6 23  1  0  0  0  0
  7  8  1  0  0  0  0
  8  9  1  0  0  0  0
  8 18  2  0  0  0  0
  9 10  1  0  0  0  0
 10 11  2  0  0  0  0
 10 12  1  0  0  0  0
 12 17  1  0  0  0  0
 12 13  1  0  0  0  0
 12 24  1  0  0  0  0
 13 14  1  0  0  0  0
 13 25  1  0  0  0  0
 13 26  1  0  0  0  0
 14 15  2  0  0  0  0
 14 27  1  0  0  0  0
 15 16  1  0  0  0  0
 15 28  1  0  0  0  0
 16 17  1  0  0  0  0
 16 29  1  0  0  0  0
 16 30  1  0  0  0  0
 17 31  1  0  0  0  0
 17 32  1  0  0  0  0
M  CHG  1   9  -1
M  END
> <s_m_source_file>
AV-unprocessed.smi

> <i_m_source_file_index>
470

> <i_lp_mmshare_version>
43012

> <i_f3d_flags>
0

> <s_epik_input>
W05IMl1DKD1PKVtDSDJdYzFbY0hdc2MobjEpW05IXUMoPU8pW0NAQEhdMltDSDJdW0NIXT1bQ0hdW0NIMl1bQ0gyXTI=

> <s_epik_cmdline>
J2VwaWtfcHl0aG9uJywgJy1waCcsICc3LjAnLCAnLXRuJywgJzgnLCAnLW1hJywgJzIwMCcsICctbWV0YWxfYmluZGluZycsICctaW1hZScsICc8aW5maWxlLm1hZT4nLCAnLW9tYWUnLCAnPG91dGZpbGUubWFlPic=

> <r_lp_tautomer_probability>
1

> <r_epik_Ionization_Penalty>
4.98985

> <r_epik_Ionization_Penalty_Charging>
4.63309

> <r_epik_Ionization_Penalty_Neutral>
0.356756

> <r_epik_State_Penalty>
4.63286

> <r_epik_Charging_Adjusted_Penalty>
9.26595

> <i_epik_Tot_Q>
-1

> <i_epik_Tot_abs_Q>
1

> <r_epik_Metal_State_Penalty>
0.88943

> <b_epik_Metal_Only>
1

> <s_lp_Force_Field>
OPLS_2005

> <r_lp_Energy>
8.68427

> <b_lp_Chiralities_Consistent>
1

> <s_lp_Variant>
AV-unprocessed.smi:470-3

> <Gold.Version>
5.8.1

> <Gold.Id.Protein>
6NUR|6NUR_protein|mol2

> <Gold.PLP.Fitness>
47.1815

> <Gold.PLP.PLP>
-42.7916

> <Gold.PLP.part.hbond>
-1.2753

> <Gold.PLP.part.metal>
0.0000

> <Gold.PLP.part.buried>
-2.9751

> <Gold.PLP.part.nonpolar>
-38.8447

> <Gold.PLP.part.repulsive>
0.1490

> <Gold.PLP.ligand.clash>
0.0000

> <Gold.PLP.ligand.torsion>
0.8214

> <Gold.PLP.Chemscore.Hbond>
0.9920

> <Gold.PLP.Chemscore.CHOScore>
1.0000

> <Gold.PLP.Chemscore.Metal>
0.0000

> <Gold.Chemscore.Hbonds>
donor molecule, donor type, donor heavy atom, donor atom, acceptor molecule, acceptor atom, score
      P1  H  7997  8010       L1     9  0.06
      L1  C     6    23       P1  7957  0.99

> <Gold.PLP.Chemscore.Internal.Correction>
0.0567

> <Gold.Rescore>
     Score         DG    S(hbond)    S(metal)    S(lipo)     H(rot)  DE(clash)    DE(int)     intcor
     14.13     -16.25       0.91        0.00     107.07       1.87       0.04       2.08       ----

> <Gold.Chemscore.Fitness>
14.1340

> <Gold.Chemscore.DG>
-16.2532

> <Gold.Chemscore.ZeroCoef>
-5.4800

> <Gold.Chemscore.Hbond>
0.9073

> <Gold.Chemscore.Metal>
0.0000

> <Gold.Chemscore.Lipo>
107.0713

> <Gold.Chemscore.Internal_Hbond>
0.0000

> <Gold.Chemscore.DEClash>
0.0440

> <Gold.Chemscore.DEInternal>
2.0752

> <Gold.Chemscore.Rot>
1.8689

> <Gold.Chemscore.Internal.Correction>
   9.000000E+99

> <Gold.Chemscore.Hbond.Weighted>
-3.0303

> <Gold.Chemscore.Metal.Weighted>
-0.0000

> <Gold.Chemscore.Lipo.Weighted>
-12.5273

> <Gold.Chemscore.Internal_Hbond.Weighted>
0.0000

> <Gold.Chemscore.DEClash.Weighted>
0.0440

> <Gold.Chemscore.DEInternal.Weighted>
2.0752

> <Gold.Chemscore.Rot.Weighted>
4.7844

> <Gold.Chemscore.Internal.Correction.Weighted>
   9.000000E+99

> <Gold.Protein.RotatedTorsions>
[ 6907 6896 6895 6894 ] final  117.76 input  -60.11 | X-H torsion
[ 7974 7965 7964 7962 ] final   99.97 input  175.53 | X-H torsion
[ 8008 7997 7996 7995 ] final   94.00 input   59.86 | X-H torsion
[ 10167 10162 10161 10158 ] final  -18.13 input  -65.29 | X-H torsion
[ 10718 10713 10712 10709 ] final  103.78 input   66.30 | X-H torsion
[ 10763 10752 10751 10750 ] final  124.37 input  -60.55 | X-H torsion
[ 11005 11000 10999 10996 ] final -133.33 input  -57.11 | X-H torsion

> <Gold.Protein.ActiveResidues>
 VAL166  LYS551  ARG553  GLY616  TRP617  ASP618  TYR619  PRO620  LYS621  CYS622 
 ASP623  PHE694  ASN695  SER759  ASP760  ASP761  ALA762  ILE779  LEU786  VAL792 
 PHE793  MET794  SER795  GLU796  ALA797  LYS798  CYS799  TRP800  GLU811  SER814 

> <Gold.Protein.RotatedAtoms>
  152.4590  133.7782  159.6835 H   0  0  0  0  0  0  0  0  0  0  0  0  # atno 6907 bound_to 6896
  150.8526  133.7754  159.3026 H   0  0  0  0  0  0  0  0  0  0  0  0  # atno 6908 bound_to 6896
  151.5344  135.1071  159.9962 H   0  0  0  0  0  0  0  0  0  0  0  0  # atno 6909 bound_to 6896
  145.3918  139.2362  143.3348 H   0  0  0  0  0  0  0  0  0  0  0  0  # atno 7974 bound_to 7965
  156.0530  140.3305  155.7373 H   0  0  0  0  0  0  0  0  0  0  0  0  # atno 8008 bound_to 7997
  155.5572  140.0615  157.2854 H   0  0  0  0  0  0  0  0  0  0  0  0  # atno 8009 bound_to 7997
  154.4445  140.1884  156.0734 H   0  0  0  0  0  0  0  0  0  0  0  0  # atno 8010 bound_to 7997
  140.7255  143.4947  150.9946 H   0  0  0  0  0  0  0  0  0  0  0  0  # atno 10167 bound_to 10162
  157.6762  131.0787  150.5606 H   0  0  0  0  0  0  0  0  0  0  0  0  # atno 10718 bound_to 10713
  153.6603  135.3347  155.3125 H   0  0  0  0  0  0  0  0  0  0  0  0  # atno 10763 bound_to 10752
  154.8516  135.4362  154.1811 H   0  0  0  0  0  0  0  0  0  0  0  0  # atno 10764 bound_to 10752
  153.2776  135.7006  153.7493 H   0  0  0  0  0  0  0  0  0  0  0  0  # atno 10765 bound_to 10752
  140.9091  134.1592  157.4403 H   0  0  0  0  0  0  0  0  0  0  0  0  # atno 11005 bound_to 11000
  146.2794  140.4602  142.8782 LP  0  0  0  0  0  0  0  0  0  0  0  0  # atno 17320 bound_to 7965
  144.8435  140.6893  143.6214 LP  0  0  0  0  0  0  0  0  0  0  0  0  # atno 17321 bound_to 7965
  139.8653  143.7262  152.3170 LP  0  0  0  0  0  0  0  0  0  0  0  0  # atno 17342 bound_to 10162
  139.7491  144.7539  151.0533 LP  0  0  0  0  0  0  0  0  0  0  0  0  # atno 17343 bound_to 10162
  156.5909  130.4329  149.5937 LP  0  0  0  0  0  0  0  0  0  0  0  0  # atno 17370 bound_to 10713
  156.2584  130.6948  151.1709 LP  0  0  0  0  0  0  0  0  0  0  0  0  # atno 17371 bound_to 10713
  139.8754  134.9928  156.5615 LP  0  0  0  0  0  0  0  0  0  0  0  0  # atno 17394 bound_to 11000
  140.8134  133.8411  155.8830 LP  0  0  0  0  0  0  0  0  0  0  0  0  # atno 17395 bound_to 11000

$$$$
