AV-unprocessed.smi:2061|AV-procd|sdf|8376|dock5
  -GOLD-   2272011 53D 1   1.00000     0.00000
 Structure written by MMmdl.
 44 45  0  0  0  0  0  0  0  0  2 V2000
  146.1964  136.3765  162.2263 C   0  0  0  0  0  0  0  0  0  0  0  0
  147.2548  136.6122  161.2037 C   0  0  0  0  0  0  0  0  0  0  0  0
  148.4349  135.9818  160.9276 C   0  0  0  0  0  0  0  0  0  0  0  0
  148.9470  136.7192  159.8252 C   0  0  0  0  0  0  0  0  0  0  0  0
  150.1099  136.4910  159.1956 N   0  5  0  0  0  0  0  0  0  0  0  0
  151.0520  137.4601  159.1313 C   0  0  0  0  0  0  0  0  0  0  0  0
  151.9547  137.6580  159.9480 O   0  0  0  0  0  0  0  0  0  0  0  0
  150.9378  138.2531  158.0561 N   0  0  0  0  0  0  0  0  0  0  0  0
  151.7971  139.3907  157.7352 C   0  0  0  0  0  0  0  0  0  0  0  0
  151.0172  140.7256  157.5463 C   0  0  2  0  0  0  0  0  0  0  0  0
  150.7454  140.9347  156.0343 C   0  0  0  0  0  0  0  0  0  0  0  0
  151.6838  141.8917  158.1736 N   0  0  0  0  0  0  0  0  0  0  0  0
  150.8962  143.1233  158.0431 C   0  0  0  0  0  0  0  0  0  0  0  0
  151.5491  144.3511  158.7092 C   0  0  2  0  0  0  0  0  0  0  0  0
  152.7513  144.9037  157.9246 C   0  0  0  0  0  0  0  0  0  0  0  0
  151.8848  144.0628  160.0645 O   0  0  0  0  0  0  0  0  0  0  0  0
  152.6724  142.8912  160.2456 C   0  0  1  0  0  0  0  0  0  0  0  0
  152.8865  142.6918  161.7498 C   0  0  0  0  0  0  0  0  0  0  0  0
  151.9648  141.6875  159.5978 C   0  0  0  0  0  0  0  0  0  0  0  0
  148.1560  137.7195  159.4748 N   0  0  0  0  0  0  0  0  0  0  0  0
  147.0651  137.6537  160.3497 O   0  0  0  0  0  0  0  0  0  0  0  0
  146.5433  136.6769  163.2149 H   0  0  0  0  0  0  0  0  0  0  0  0
  145.9281  135.3209  162.2674 H   0  0  0  0  0  0  0  0  0  0  0  0
  145.2945  136.9449  161.9972 H   0  0  0  0  0  0  0  0  0  0  0  0
  148.8633  135.1279  161.4304 H   0  0  0  0  0  0  0  0  0  0  0  0
  150.1860  138.0543  157.4125 H   0  0  0  0  0  0  0  0  0  0  0  0
  152.5354  139.4542  158.5332 H   0  0  0  0  0  0  0  0  0  0  0  0
  152.3480  139.1515  156.8253 H   0  0  0  0  0  0  0  0  0  0  0  0
  150.0462  140.6004  158.0277 H   0  0  0  0  0  0  0  0  0  0  0  0
  150.3049  140.0561  155.5645 H   0  0  0  0  0  0  0  0  0  0  0  0
  151.6655  141.1660  155.4970 H   0  0  0  0  0  0  0  0  0  0  0  0
  150.0339  141.7377  155.8483 H   0  0  0  0  0  0  0  0  0  0  0  0
  150.7341  143.3724  156.9961 H   0  0  0  0  0  0  0  0  0  0  0  0
  149.9095  142.9673  158.4821 H   0  0  0  0  0  0  0  0  0  0  0  0
  150.8035  145.1459  158.7447 H   0  0  0  0  0  0  0  0  0  0  0  0
  152.4455  145.2368  156.9325 H   0  0  0  0  0  0  0  0  0  0  0  0
  153.5321  144.1557  157.7890 H   0  0  0  0  0  0  0  0  0  0  0  0
  153.1913  145.7584  158.4388 H   0  0  0  0  0  0  0  0  0  0  0  0
  153.6475  143.0329  159.7789 H   0  0  0  0  0  0  0  0  0  0  0  0
  153.4939  141.8078  161.9458 H   0  0  0  0  0  0  0  0  0  0  0  0
  151.9366  142.5680  162.2705 H   0  0  0  0  0  0  0  0  0  0  0  0
  153.3977  143.5494  162.1878 H   0  0  0  0  0  0  0  0  0  0  0  0
  151.0365  141.4736  160.1302 H   0  0  0  0  0  0  0  0  0  0  0  0
  152.6176  140.8298  159.7424 H   0  0  0  0  0  0  0  0  0  0  0  0
  1  2  1  0  0  0  0
  1 22  1  0  0  0  0
  1 23  1  0  0  0  0
  1 24  1  0  0  0  0
  2 21  1  0  0  0  0
  2  3  2  0  0  0  0
  3  4  1  0  0  0  0
  3 25  1  0  0  0  0
  4  5  1  0  0  0  0
  4 20  2  0  0  0  0
  5  6  1  0  0  0  0
  6  7  2  0  0  0  0
  6  8  1  0  0  0  0
  8  9  1  0  0  0  0
  8 26  1  0  0  0  0
  9 10  1  0  0  0  0
  9 27  1  0  0  0  0
  9 28  1  0  0  0  0
 10 11  1  0  0  0  0
 10 12  1  0  0  0  0
 10 29  1  0  0  0  0
 11 30  1  0  0  0  0
 11 31  1  0  0  0  0
 11 32  1  0  0  0  0
 12 19  1  0  0  0  0
 12 13  1  0  0  0  0
 13 14  1  0  0  0  0
 13 33  1  0  0  0  0
 13 34  1  0  0  0  0
 14 15  1  0  0  0  0
 14 16  1  0  0  0  0
 14 35  1  0  0  0  0
 15 36  1  0  0  0  0
 15 37  1  0  0  0  0
 15 38  1  0  0  0  0
 16 17  1  0  0  0  0
 17 18  1  0  0  0  0
 17 19  1  0  0  0  0
 17 39  1  0  0  0  0
 18 40  1  0  0  0  0
 18 41  1  0  0  0  0
 18 42  1  0  0  0  0
 19 43  1  0  0  0  0
 19 44  1  0  0  0  0
 20 21  1  0  0  0  0
M  CHG  1   5  -1
M  END
> <s_m_source_file>
AV-unprocessed.smi

> <i_m_source_file_index>
2061

> <i_lp_mmshare_version>
43012

> <i_f3d_flags>
0

> <s_epik_input>
W0NIM11jMVtjSF1jKG5vMSlbTkhdQyg9TylbTkhdW0NIMl1bQ0BIXShbQ0gzXSlOMltDSDJdW0NAQEhdKFtDSDNdKU9bQ0BASF0oW0NIM10pW0NIMl0y

> <s_epik_cmdline>
J2VwaWtfcHl0aG9uJywgJy1waCcsICc3LjAnLCAnLXRuJywgJzgnLCAnLW1hJywgJzIwMCcsICctbWV0YWxfYmluZGluZycsICctaW1hZScsICc8aW5maWxlLm1hZT4nLCAnLW9tYWUnLCAnPG91dGZpbGUubWFlPic=

> <r_epik_Ionization_Penalty>
6.88367

> <r_epik_Ionization_Penalty_Charging>
6.57198

> <r_epik_Ionization_Penalty_Neutral>
0.311681

> <r_epik_State_Penalty>
6.77619

> <r_epik_Charging_Adjusted_Penalty>
13.3482

> <i_epik_Tot_Q>
-1

> <i_epik_Tot_abs_Q>
1

> <r_epik_Metal_State_Penalty>
2.70524

> <b_epik_Metal_Only>
1

> <s_lp_Force_Field>
OPLS_2005

> <r_lp_Energy>
24.3932

> <b_lp_Chiralities_Consistent>
1

> <s_lp_Variant>
AV-unprocessed.smi:2061-17

> <Gold.Version>
5.8.1

> <Gold.Id.Protein>
6NUR|6NUR_protein|mol2

> <Gold.PLP.Fitness>
47.0699

> <Gold.PLP.PLP>
-41.7073

> <Gold.PLP.part.hbond>
-3.0106

> <Gold.PLP.part.metal>
0.0000

> <Gold.PLP.part.buried>
-6.9638

> <Gold.PLP.part.nonpolar>
-31.7335

> <Gold.PLP.part.repulsive>
0.1109

> <Gold.PLP.ligand.clash>
0.0000

> <Gold.PLP.ligand.torsion>
1.8455

> <Gold.PLP.Chemscore.Hbond>
3.0000

> <Gold.PLP.Chemscore.CHOScore>
0.0000

> <Gold.PLP.Chemscore.Metal>
0.0000

> <Gold.Chemscore.Hbonds>
donor molecule, donor type, donor heavy atom, donor atom, acceptor molecule, acceptor atom, score
      P1  H  6896  6909       L1     5  2.00
      P1  H  6934  6947       L1    21  0.80

> <Gold.PLP.Chemscore.Internal.Correction>
0.0536

> <Gold.Rescore>
     Score         DG    S(hbond)    S(metal)    S(lipo)     H(rot)  DE(clash)    DE(int)     intcor
     15.00     -17.16       0.77        0.00     111.24       1.52       0.29       1.86       ----

> <Gold.Chemscore.Fitness>
15.0040

> <Gold.Chemscore.DG>
-17.1633

> <Gold.Chemscore.ZeroCoef>
-5.4800

> <Gold.Chemscore.Hbond>
0.7654

> <Gold.Chemscore.Metal>
0.0000

> <Gold.Chemscore.Lipo>
111.2423

> <Gold.Chemscore.Internal_Hbond>
0.0000

> <Gold.Chemscore.DEClash>
0.2948

> <Gold.Chemscore.DEInternal>
1.8644

> <Gold.Chemscore.Rot>
1.5190

> <Gold.Chemscore.Internal.Correction>
   9.000000E+99

> <Gold.Chemscore.Hbonds>
donor molecule, donor type, donor heavy atom, donor atom, acceptor molecule, acceptor atom, score
      P1  H  6896  6909       L1     5  0.66
      P1  H  6934  6947       L1    21  0.14

> <Gold.Chemscore.Hbond.Weighted>
-2.5565

> <Gold.Chemscore.Metal.Weighted>
-0.0000

> <Gold.Chemscore.Lipo.Weighted>
-13.0153

> <Gold.Chemscore.Internal_Hbond.Weighted>
0.0000

> <Gold.Chemscore.DEClash.Weighted>
0.2948

> <Gold.Chemscore.DEInternal.Weighted>
1.8644

> <Gold.Chemscore.Rot.Weighted>
3.8886

> <Gold.Chemscore.Internal.Correction.Weighted>
   9.000000E+99

> <Gold.Protein.RotatedTorsions>
[ 6907 6896 6895 6894 ] final   64.62 input  -60.11 | X-H torsion
[ 7974 7965 7964 7962 ] final  129.93 input  175.53 | X-H torsion
[ 8008 7997 7996 7995 ] final  132.11 input   59.86 | X-H torsion
[ 10167 10162 10161 10158 ] final  -74.39 input  -65.29 | X-H torsion
[ 10718 10713 10712 10709 ] final  -64.02 input   66.30 | X-H torsion
[ 10763 10752 10751 10750 ] final  -78.18 input  -60.55 | X-H torsion
[ 11005 11000 10999 10996 ] final    6.83 input  -57.11 | X-H torsion

> <Gold.Protein.ActiveResidues>
 VAL166  LYS551  ARG553  GLY616  TRP617  ASP618  TYR619  PRO620  LYS621  CYS622 
 ASP623  PHE694  ASN695  SER759  ASP760  ASP761  ALA762  ILE779  LEU786  VAL792 
 PHE793  MET794  SER795  GLU796  ALA797  LYS798  CYS799  TRP800  GLU811  SER814 

> <Gold.Protein.RotatedAtoms>
  152.4345  134.5713  159.9921 H   0  0  0  0  0  0  0  0  0  0  0  0  # atno 6907 bound_to 6896
  151.5827  133.3370  159.3019 H   0  0  0  0  0  0  0  0  0  0  0  0  # atno 6908 bound_to 6896
  150.8242  134.7500  159.6863 H   0  0  0  0  0  0  0  0  0  0  0  0  # atno 6909 bound_to 6896
  145.0233  139.4112  143.5186 H   0  0  0  0  0  0  0  0  0  0  0  0  # atno 7974 bound_to 7965
  156.2978  140.2554  156.3036 H   0  0  0  0  0  0  0  0  0  0  0  0  # atno 8008 bound_to 7997
  154.9394  140.0396  157.2108 H   0  0  0  0  0  0  0  0  0  0  0  0  # atno 8009 bound_to 7997
  154.8141  140.2849  155.5837 H   0  0  0  0  0  0  0  0  0  0  0  0  # atno 8010 bound_to 7997
  140.5031  143.2357  151.7719 H   0  0  0  0  0  0  0  0  0  0  0  0  # atno 10167 bound_to 10162
  156.0754  130.4228  150.1361 H   0  0  0  0  0  0  0  0  0  0  0  0  # atno 10718 bound_to 10713
  154.5225  135.5739  153.6692 H   0  0  0  0  0  0  0  0  0  0  0  0  # atno 10763 bound_to 10752
  152.9920  135.6185  154.2735 H   0  0  0  0  0  0  0  0  0  0  0  0  # atno 10764 bound_to 10752
  154.2657  135.2855  155.2739 H   0  0  0  0  0  0  0  0  0  0  0  0  # atno 10765 bound_to 10752
  140.5551  134.0246  155.7951 H   0  0  0  0  0  0  0  0  0  0  0  0  # atno 11005 bound_to 11000
  146.3488  139.9743  142.8703 LP  0  0  0  0  0  0  0  0  0  0  0  0  # atno 17320 bound_to 7965
  145.1866  140.9792  143.4235 LP  0  0  0  0  0  0  0  0  0  0  0  0  # atno 17321 bound_to 7965
  139.4877  144.4495  151.9671 LP  0  0  0  0  0  0  0  0  0  0  0  0  # atno 17342 bound_to 10162
  140.3584  144.3003  150.5937 LP  0  0  0  0  0  0  0  0  0  0  0  0  # atno 17343 bound_to 10162
  156.9403  130.9742  151.3517 LP  0  0  0  0  0  0  0  0  0  0  0  0  # atno 17370 bound_to 10713
  157.5847  130.8401  149.8573 LP  0  0  0  0  0  0  0  0  0  0  0  0  # atno 17371 bound_to 10713
  141.1148  133.9557  157.2842 LP  0  0  0  0  0  0  0  0  0  0  0  0  # atno 17394 bound_to 11000
  139.9436  135.0187  156.8783 LP  0  0  0  0  0  0  0  0  0  0  0  0  # atno 17395 bound_to 11000

$$$$
