AV-unprocessed.smi:2828|AV-procd|sdf|10897|dock2
  -GOLD-   2272015343D 1   1.00000     0.00000
 Structure written by MMmdl.
 38 39  0  0  0  0  0  0  0  0  1 V2000
  153.0841  144.5603  158.2224 C   0  0  0  0  0  0  0  0  0  0  0  0
  152.2543  144.4402  159.5009 C   0  0  0  0  0  0  0  0  0  0  0  0
  152.0195  145.8431  160.0450 C   0  0  0  0  0  0  0  0  0  0  0  0
  151.1454  143.4057  159.6902 C   0  0  0  0  0  0  0  0  0  0  0  0
  150.8002  142.4756  158.5721 C   0  0  0  0  0  0  0  0  0  0  0  0
  151.5333  141.5481  158.2289 O   0  0  0  0  0  0  0  0  0  0  0  0
  149.6628  142.7866  157.9316 N   0  0  0  0  0  0  0  0  0  0  0  0
  149.1183  142.0579  156.7920 C   0  0  0  0  0  0  0  0  0  0  0  0
  150.1500  141.9205  155.6610 C   0  0  0  0  0  0  0  0  0  0  0  0
  149.8706  140.7533  154.7747 C   0  0  0  0  0  0  0  0  0  0  0  0
  148.7398  140.4918  154.1230 N   0  0  0  0  0  0  0  0  0  0  0  0
  149.0827  139.3600  153.4516 C   0  0  0  0  0  0  0  0  0  0  0  0
  148.1627  138.7021  152.6188 N   0  0  0  0  0  0  0  0  0  0  0  0
  150.3245  138.9299  153.6314 N   0  0  0  0  0  0  0  0  0  0  0  0
  150.8678  139.8738  154.5153 O   0  0  0  0  0  0  0  0  0  0  0  0
  152.4628  143.2559  160.4461 C   0  0  0  0  0  0  0  0  0  0  0  0
  153.4823  142.1653  160.1165 C   0  0  0  0  0  0  0  0  0  0  0  0
  152.4482  143.4539  161.9558 C   0  0  0  0  0  0  0  0  0  0  0  0
  152.5774  145.2037  157.5023 H   0  0  0  0  0  0  0  0  0  0  0  0
  153.2530  143.6013  157.7370 H   0  0  0  0  0  0  0  0  0  0  0  0
  154.0573  144.9976  158.4472 H   0  0  0  0  0  0  0  0  0  0  0  0
  151.3205  145.8396  160.8803 H   0  0  0  0  0  0  0  0  0  0  0  0
  151.5983  146.4859  159.2715 H   0  0  0  0  0  0  0  0  0  0  0  0
  152.9596  146.2793  160.3839 H   0  0  0  0  0  0  0  0  0  0  0  0
  150.2799  143.7510  160.2531 H   0  0  0  0  0  0  0  0  0  0  0  0
  149.1331  143.5797  158.2635 H   0  0  0  0  0  0  0  0  0  0  0  0
  148.7664  141.0751  157.1106 H   0  0  0  0  0  0  0  0  0  0  0  0
  148.2428  142.5990  156.4322 H   0  0  0  0  0  0  0  0  0  0  0  0
  150.1627  142.8245  155.0512 H   0  0  0  0  0  0  0  0  0  0  0  0
  151.1537  141.8075  156.0726 H   0  0  0  0  0  0  0  0  0  0  0  0
  147.2265  139.0635  152.5065 H   0  0  0  0  0  0  0  0  0  0  0  0
  148.4331  137.8672  152.1194 H   0  0  0  0  0  0  0  0  0  0  0  0
  153.2640  141.2592  160.6823 H   0  0  0  0  0  0  0  0  0  0  0  0
  154.4861  142.5002  160.3796 H   0  0  0  0  0  0  0  0  0  0  0  0
  153.4829  141.8945  159.0624 H   0  0  0  0  0  0  0  0  0  0  0  0
  152.3013  142.5008  162.4647 H   0  0  0  0  0  0  0  0  0  0  0  0
  151.6404  144.1153  162.2664 H   0  0  0  0  0  0  0  0  0  0  0  0
  153.3934  143.8832  162.2896 H   0  0  0  0  0  0  0  0  0  0  0  0
  1  2  1  0  0  0  0
  1 19  1  0  0  0  0
  1 20  1  0  0  0  0
  1 21  1  0  0  0  0
  2 16  1  0  0  0  0
  2  3  1  0  0  0  0
  2  4  1  0  0  0  0
  3 22  1  0  0  0  0
  3 23  1  0  0  0  0
  3 24  1  0  0  0  0
  4  5  1  0  0  0  0
  4 16  1  0  0  0  0
  4 25  1  0  0  0  0
  5  6  2  0  0  0  0
  5  7  1  0  0  0  0
  7  8  1  0  0  0  0
  7 26  1  0  0  0  0
  8  9  1  0  0  0  0
  8 27  1  0  0  0  0
  8 28  1  0  0  0  0
  9 10  1  0  0  0  0
  9 29  1  0  0  0  0
  9 30  1  0  0  0  0
 10 15  1  0  0  0  0
 10 11  2  0  0  0  0
 11 12  1  0  0  0  0
 12 13  1  0  0  0  0
 12 14  2  0  0  0  0
 13 31  1  0  0  0  0
 13 32  1  0  0  0  0
 14 15  1  0  0  0  0
 16 17  1  0  0  0  0
 16 18  1  0  0  0  0
 17 33  1  0  0  0  0
 17 34  1  0  0  0  0
 17 35  1  0  0  0  0
 18 36  1  0  0  0  0
 18 37  1  0  0  0  0
 18 38  1  0  0  0  0
M  END
> <s_m_source_file>
AV-unprocessed.smi

> <i_m_source_file_index>
2828

> <i_lp_mmshare_version>
43012

> <i_f3d_flags>
0

> <s_epik_input>
W0NIM11DMShbQ0gzXSlbQ0hdKEMxKFtDSDNdKVtDSDNdKUMoPU8pW05IXVtDSDJdW0NIMl1jMm5jKFtOSDJdKW5vMg==

> <s_epik_cmdline>
J2VwaWtfcHl0aG9uJywgJy1waCcsICc3LjAnLCAnLXRuJywgJzgnLCAnLW1hJywgJzIwMCcsICctbWV0YWxfYmluZGluZycsICctaW1hZScsICc8aW5maWxlLm1hZT4nLCAnLW9tYWUnLCAnPG91dGZpbGUubWFlPic=

> <r_lp_tautomer_probability>
1

> <r_epik_Ionization_Penalty>
9.99855e-05

> <r_epik_Ionization_Penalty_Charging>
0

> <r_epik_Ionization_Penalty_Neutral>
9.99855e-05

> <r_epik_State_Penalty>
-0

> <r_epik_Charging_Adjusted_Penalty>
0

> <i_epik_Tot_Q>
0

> <i_epik_Tot_abs_Q>
0

> <r_epik_Metal_State_Penalty>
-0

> <b_epik_Metal_Only>
0

> <s_lp_Force_Field>
OPLS_2005

> <r_lp_Energy>
20.4222

> <b_lp_Chiralities_Consistent>
1

> <s_lp_Variant>
AV-unprocessed.smi:2828-1

> <Gold.Version>
5.8.1

> <Gold.Id.Protein>
6NUR|6NUR_protein|mol2

> <Gold.PLP.Fitness>
43.6275

> <Gold.PLP.PLP>
-38.3809

> <Gold.PLP.part.hbond>
-3.2464

> <Gold.PLP.part.metal>
0.0000

> <Gold.PLP.part.buried>
-0.8023

> <Gold.PLP.part.nonpolar>
-34.5443

> <Gold.PLP.part.repulsive>
1.5224

> <Gold.PLP.ligand.clash>
0.0000

> <Gold.PLP.ligand.torsion>
0.3801

> <Gold.PLP.Chemscore.Hbond>
1.9500

> <Gold.PLP.Chemscore.CHOScore>
0.0000

> <Gold.PLP.Chemscore.Metal>
0.0000

> <Gold.Chemscore.Hbonds>
donor molecule, donor type, donor heavy atom, donor atom, acceptor molecule, acceptor atom, score
      L1  H    13    32       P1  7948  1.00
      P1  H  7989  7998       L1    15  0.70

> <Gold.PLP.Chemscore.Internal.Correction>
0.1568

> <Gold.Rescore>
     Score         DG    S(hbond)    S(metal)    S(lipo)     H(rot)  DE(clash)    DE(int)     intcor
     11.65     -14.20       1.00        0.00      95.81       2.28       0.07       2.47       ----

> <Gold.Chemscore.Fitness>
11.6525

> <Gold.Chemscore.DG>
-14.1953

> <Gold.Chemscore.ZeroCoef>
-5.4800

> <Gold.Chemscore.Hbond>
1.0008

> <Gold.Chemscore.Metal>
0.0000

> <Gold.Chemscore.Lipo>
95.8078

> <Gold.Chemscore.Internal_Hbond>
0.0000

> <Gold.Chemscore.DEClash>
0.0724

> <Gold.Chemscore.DEInternal>
2.4703

> <Gold.Chemscore.Rot>
2.2801

> <Gold.Chemscore.Internal.Correction>
   9.000000E+99

> <Gold.Chemscore.Hbonds>
donor molecule, donor type, donor heavy atom, donor atom, acceptor molecule, acceptor atom, score
      L1  H    13    32       P1  7948  1.00
      P1  H  7989  7998       L1    15  0.02

> <Gold.Chemscore.Hbond.Weighted>
-3.3427

> <Gold.Chemscore.Metal.Weighted>
-0.0000

> <Gold.Chemscore.Lipo.Weighted>
-11.2095

> <Gold.Chemscore.Internal_Hbond.Weighted>
0.0000

> <Gold.Chemscore.DEClash.Weighted>
0.0724

> <Gold.Chemscore.DEInternal.Weighted>
2.4703

> <Gold.Chemscore.Rot.Weighted>
5.8370

> <Gold.Chemscore.Internal.Correction.Weighted>
   9.000000E+99

> <Gold.Protein.RotatedTorsions>
[ 6907 6896 6895 6894 ] final -141.52 input  -60.11 | X-H torsion
[ 7974 7965 7964 7962 ] final   54.43 input  175.53 | X-H torsion
[ 8008 7997 7996 7995 ] final   85.05 input   59.86 | X-H torsion
[ 10167 10162 10161 10158 ] final -136.81 input  -65.29 | X-H torsion
[ 10718 10713 10712 10709 ] final  -11.22 input   66.30 | X-H torsion
[ 10763 10752 10751 10750 ] final   93.93 input  -60.55 | X-H torsion
[ 11005 11000 10999 10996 ] final  -64.03 input  -57.11 | X-H torsion

> <Gold.Protein.ActiveResidues>
 VAL166  LYS551  ARG553  GLY616  TRP617  ASP618  TYR619  PRO620  LYS621  CYS622 
 ASP623  PHE694  ASN695  SER759  ASP760  ASP761  ALA762  ILE779  LEU786  VAL792 
 PHE793  MET794  SER795  GLU796  ALA797  LYS798  CYS799  TRP800  GLU811  SER814 

> <Gold.Protein.RotatedAtoms>
  151.0749  133.5437  159.2624 H   0  0  0  0  0  0  0  0  0  0  0  0  # atno 6907 bound_to 6896
  151.2362  135.0572  159.9017 H   0  0  0  0  0  0  0  0  0  0  0  0  # atno 6908 bound_to 6896
  152.5416  134.0530  159.8172 H   0  0  0  0  0  0  0  0  0  0  0  0  # atno 6909 bound_to 6896
  145.9609  139.4058  143.0248 H   0  0  0  0  0  0  0  0  0  0  0  0  # atno 7974 bound_to 7965
  155.9450  140.3405  155.6359 H   0  0  0  0  0  0  0  0  0  0  0  0  # atno 8008 bound_to 7997
  155.6992  140.0758  157.2435 H   0  0  0  0  0  0  0  0  0  0  0  0  # atno 8009 bound_to 7997
  154.4110  140.1643  156.2159 H   0  0  0  0  0  0  0  0  0  0  0  0  # atno 8010 bound_to 7997
  139.8641  143.7040  152.2647 H   0  0  0  0  0  0  0  0  0  0  0  0  # atno 10167 bound_to 10162
  156.6622  130.4985  149.6027 H   0  0  0  0  0  0  0  0  0  0  0  0  # atno 10718 bound_to 10713
  153.2358  135.4308  155.0645 H   0  0  0  0  0  0  0  0  0  0  0  0  # atno 10763 bound_to 10752
  154.8318  135.3390  154.6720 H   0  0  0  0  0  0  0  0  0  0  0  0  # atno 10764 bound_to 10752
  153.7146  135.7021  153.5085 H   0  0  0  0  0  0  0  0  0  0  0  0  # atno 10765 bound_to 10752
  141.1412  133.6660  156.5771 H   0  0  0  0  0  0  0  0  0  0  0  0  # atno 11005 bound_to 11000
  145.8041  140.9757  143.0983 LP  0  0  0  0  0  0  0  0  0  0  0  0  # atno 17320 bound_to 7965
  144.6815  139.9838  143.7483 LP  0  0  0  0  0  0  0  0  0  0  0  0  # atno 17321 bound_to 7965
  139.7346  144.7574  151.0748 LP  0  0  0  0  0  0  0  0  0  0  0  0  # atno 17342 bound_to 10162
  140.7771  143.5046  150.9728 LP  0  0  0  0  0  0  0  0  0  0  0  0  # atno 17343 bound_to 10162
  156.2002  130.6615  151.1159 LP  0  0  0  0  0  0  0  0  0  0  0  0  # atno 17370 bound_to 10713
  157.7106  131.0736  150.6515 LP  0  0  0  0  0  0  0  0  0  0  0  0  # atno 17371 bound_to 10713
  140.3867  134.7476  157.4696 LP  0  0  0  0  0  0  0  0  0  0  0  0  # atno 17394 bound_to 11000
  140.0597  134.6014  155.8764 LP  0  0  0  0  0  0  0  0  0  0  0  0  # atno 17395 bound_to 11000

$$$$
