AV-unprocessed.smi:232|AV-procd|sdf|1778|dock4
  -GOLD-   2262020323D 1   1.00000     0.00000
 Structure written by MMmdl.
 52 55  0  0  0  0  0  0  0  0  1 V2000
  153.1712  137.4425  160.4664 C   0  0  0  0  0  0  0  0  0  0  0  0
  152.9322  138.4933  159.3747 C   0  0  0  0  0  0  0  0  0  0  0  0
  152.8575  139.9342  159.9253 C   0  0  1  0  0  0  0  0  0  0  0  0
  154.0668  140.3136  160.8031 C   0  0  0  0  0  0  0  0  0  0  0  0
  154.5831  141.6436  160.2433 C   0  0  0  0  0  0  0  0  0  0  0  0
  153.4425  142.1637  159.3680 C   0  0  2  0  0  0  0  0  0  0  0  0
  152.4673  143.0509  160.1694 C   0  0  0  0  0  0  0  0  0  0  0  0
  152.8231  140.9425  158.8651 N   0  0  0  0  0  0  0  0  0  0  0  0
  151.7374  141.0830  158.0580 C   0  0  0  0  0  0  0  0  0  0  0  0
  150.6824  141.8392  158.4639 N   0  0  0  0  0  0  0  0  0  0  0  0
  149.6189  141.9995  157.6715 C   0  0  0  0  0  0  0  0  0  0  0  0
  149.4050  141.5029  156.4523 N   0  0  0  0  0  0  0  0  0  0  0  0
  150.4574  140.7405  156.0395 C   0  0  0  0  0  0  0  0  0  0  0  0
  151.6507  140.4800  156.7711 C   0  0  0  0  0  0  0  0  0  0  0  0
  152.4850  139.6508  156.0301 N   0  0  0  0  0  0  0  0  0  0  0  0
  151.8229  139.4316  154.9272 C   0  0  0  0  0  0  0  0  0  0  0  0
  150.5938  140.0444  154.8515 N   0  0  0  0  0  0  0  0  0  0  0  0
  149.6481  139.9561  153.7542 C   0  0  0  0  0  0  0  0  0  0  0  0
  148.6386  138.8007  153.9201 C   0  0  2  0  0  0  0  0  0  0  0  0
  148.0590  138.5667  152.6524 O   0  0  0  0  0  0  0  0  0  0  0  0
  147.5175  139.0767  154.9469 C   0  0  1  0  0  0  0  0  0  0  0  0
  146.6032  140.2533  154.5981 C   0  0  0  0  0  0  0  0  0  0  0  0
  145.3182  139.9469  155.3519 C   0  0  0  0  0  0  0  0  0  0  0  0
  145.4434  138.4632  155.7064 C   0  0  0  0  0  0  0  0  0  0  0  0
  146.5786  138.0121  154.9838 O   0  0  0  0  0  0  0  0  0  0  0  0
  153.1886  136.4392  160.0401 H   0  0  0  0  0  0  0  0  0  0  0  0
  152.3803  137.4707  161.2166 H   0  0  0  0  0  0  0  0  0  0  0  0
  154.1221  137.6003  160.9754 H   0  0  0  0  0  0  0  0  0  0  0  0
  153.7195  138.4266  158.6227 H   0  0  0  0  0  0  0  0  0  0  0  0
  152.0062  138.2380  158.8599 H   0  0  0  0  0  0  0  0  0  0  0  0
  151.9531  140.0388  160.5270 H   0  0  0  0  0  0  0  0  0  0  0  0
  153.7512  140.4268  161.8408 H   0  0  0  0  0  0  0  0  0  0  0  0
  154.8566  139.5620  160.7828 H   0  0  0  0  0  0  0  0  0  0  0  0
  154.8861  142.3448  161.0215 H   0  0  0  0  0  0  0  0  0  0  0  0
  155.4563  141.4526  159.6178 H   0  0  0  0  0  0  0  0  0  0  0  0
  153.8643  142.7457  158.5491 H   0  0  0  0  0  0  0  0  0  0  0  0
  152.9821  143.9203  160.5784 H   0  0  0  0  0  0  0  0  0  0  0  0
  152.0189  142.5102  161.0034 H   0  0  0  0  0  0  0  0  0  0  0  0
  151.6579  143.4226  159.5404 H   0  0  0  0  0  0  0  0  0  0  0  0
  148.8265  142.6142  158.0721 H   0  0  0  0  0  0  0  0  0  0  0  0
  152.2115  138.8062  154.1365 H   0  0  0  0  0  0  0  0  0  0  0  0
  149.1248  140.9096  153.6701 H   0  0  0  0  0  0  0  0  0  0  0  0
  150.2144  139.8317  152.8299 H   0  0  0  0  0  0  0  0  0  0  0  0
  149.1716  137.8932  154.2072 H   0  0  0  0  0  0  0  0  0  0  0  0
  148.3713  137.7356  152.3292 H   0  0  0  0  0  0  0  0  0  0  0  0
  147.9401  139.2190  155.9438 H   0  0  0  0  0  0  0  0  0  0  0  0
  147.0330  141.2176  154.8707 H   0  0  0  0  0  0  0  0  0  0  0  0
  146.4022  140.2663  153.5258 H   0  0  0  0  0  0  0  0  0  0  0  0
  145.2317  140.5507  156.2558 H   0  0  0  0  0  0  0  0  0  0  0  0
  144.4439  140.1430  154.7303 H   0  0  0  0  0  0  0  0  0  0  0  0
  145.6252  138.3356  156.7746 H   0  0  0  0  0  0  0  0  0  0  0  0
  144.5556  137.8898  155.4395 H   0  0  0  0  0  0  0  0  0  0  0  0
  1  2  1  0  0  0  0
  1 26  1  0  0  0  0
  1 27  1  0  0  0  0
  1 28  1  0  0  0  0
  2  3  1  0  0  0  0
  2 29  1  0  0  0  0
  2 30  1  0  0  0  0
  3  8  1  0  0  0  0
  3  4  1  0  0  0  0
  3 31  1  0  0  0  0
  4  5  1  0  0  0  0
  4 32  1  0  0  0  0
  4 33  1  0  0  0  0
  5  6  1  0  0  0  0
  5 34  1  0  0  0  0
  5 35  1  0  0  0  0
  6  7  1  0  0  0  0
  6  8  1  0  0  0  0
  6 36  1  0  0  0  0
  7 37  1  0  0  0  0
  7 38  1  0  0  0  0
  7 39  1  0  0  0  0
  8  9  1  0  0  0  0
  9 14  1  0  0  0  0
  9 10  2  0  0  0  0
 10 11  1  0  0  0  0
 11 12  2  0  0  0  0
 11 40  1  0  0  0  0
 12 13  1  0  0  0  0
 13 17  1  0  0  0  0
 13 14  2  0  0  0  0
 14 15  1  0  0  0  0
 15 16  2  0  0  0  0
 16 17  1  0  0  0  0
 16 41  1  0  0  0  0
 17 18  1  0  0  0  0
 18 19  1  0  0  0  0
 18 42  1  0  0  0  0
 18 43  1  0  0  0  0
 19 20  1  0  0  0  0
 19 21  1  0  0  0  0
 19 44  1  0  0  0  0
 20 45  1  0  0  0  0
 21 25  1  0  0  0  0
 21 22  1  0  0  0  0
 21 46  1  0  0  0  0
 22 23  1  0  0  0  0
 22 47  1  0  0  0  0
 22 48  1  0  0  0  0
 23 24  1  0  0  0  0
 23 49  1  0  0  0  0
 23 50  1  0  0  0  0
 24 25  1  0  0  0  0
 24 51  1  0  0  0  0
 24 52  1  0  0  0  0
M  END
> <s_m_source_file>
AV-unprocessed.smi

> <i_m_source_file_index>
232

> <i_lp_mmshare_version>
43012

> <i_f3d_flags>
0

> <s_epik_input>
W0NIM11bQ0gyXVtDQEBIXTFbQ0gyXVtDSDJdW0NAQEhdKFtDSDNdKU4xYyhuW2NIXW4yKWMoYzIzKW5bY0hdbjNbQ0gyXVtDQEhdKFtPSF0pW0NAQEhdNFtDSDJdW0NIMl1bQ0gyXU80

> <s_epik_cmdline>
J2VwaWtfcHl0aG9uJywgJy1waCcsICc3LjAnLCAnLXRuJywgJzgnLCAnLW1hJywgJzIwMCcsICctbWV0YWxfYmluZGluZycsICctaW1hZScsICc8aW5maWxlLm1hZT4nLCAnLW9tYWUnLCAnPG91dGZpbGUubWFlPic=

> <r_lp_tautomer_probability>
1

> <r_epik_Ionization_Penalty>
0.00258048

> <r_epik_Ionization_Penalty_Charging>
0

> <r_epik_Ionization_Penalty_Neutral>
0.00258048

> <r_epik_State_Penalty>
0.00168551

> <r_epik_Charging_Adjusted_Penalty>
0.00168551

> <i_epik_Tot_Q>
0

> <i_epik_Tot_abs_Q>
0

> <r_epik_Metal_State_Penalty>
-0

> <b_epik_Metal_Only>
0

> <s_lp_Force_Field>
OPLS_2005

> <r_lp_Energy>
52.3854

> <b_lp_Chiralities_Consistent>
1

> <s_lp_Variant>
AV-unprocessed.smi:232-12

> <Gold.Version>
5.8.1

> <Gold.Id.Protein>
6NUR|6NUR_protein|mol2

> <Gold.PLP.Fitness>
40.7466

> <Gold.PLP.PLP>
-36.3205

> <Gold.PLP.part.hbond>
-2.9582

> <Gold.PLP.part.metal>
0.0000

> <Gold.PLP.part.buried>
0.3915

> <Gold.PLP.part.nonpolar>
-32.5213

> <Gold.PLP.part.repulsive>
0.1649

> <Gold.PLP.ligand.clash>
0.0000

> <Gold.PLP.ligand.torsion>
0.9328

> <Gold.PLP.Chemscore.Hbond>
1.9913

> <Gold.PLP.Chemscore.CHOScore>
0.0000

> <Gold.PLP.Chemscore.Metal>
0.0000

> <Gold.Chemscore.Hbonds>
donor molecule, donor type, donor heavy atom, donor atom, acceptor molecule, acceptor atom, score
      L1  H    20    45       P1  7948  1.00
      P1  H  7997  8009       L1    15  1.00

> <Gold.PLP.Chemscore.Internal.Correction>
0.3180

> <Gold.Rescore>
     Score         DG    S(hbond)    S(metal)    S(lipo)     H(rot)  DE(clash)    DE(int)     intcor
     11.43     -15.43       1.81        0.00      86.35       2.43       1.56       2.43       ----

> <Gold.Chemscore.Fitness>
11.4336

> <Gold.Chemscore.DG>
-15.4253

> <Gold.Chemscore.ZeroCoef>
-5.4800

> <Gold.Chemscore.Hbond>
1.8123

> <Gold.Chemscore.Metal>
0.0000

> <Gold.Chemscore.Lipo>
86.3485

> <Gold.Chemscore.Internal_Hbond>
0.0000

> <Gold.Chemscore.DEClash>
1.5604

> <Gold.Chemscore.DEInternal>
2.4313

> <Gold.Chemscore.Rot>
2.4260

> <Gold.Chemscore.Internal.Correction>
   9.000000E+99

> <Gold.Chemscore.Hbonds>
donor molecule, donor type, donor heavy atom, donor atom, acceptor molecule, acceptor atom, score
      L1  H    20    45       P1  7948  1.00
      P1  H  7997  8009       L1    15  0.78

> <Gold.Chemscore.Hbond.Weighted>
-6.0532

> <Gold.Chemscore.Metal.Weighted>
-0.0000

> <Gold.Chemscore.Lipo.Weighted>
-10.1028

> <Gold.Chemscore.Internal_Hbond.Weighted>
0.0000

> <Gold.Chemscore.DEClash.Weighted>
1.5604

> <Gold.Chemscore.DEInternal.Weighted>
2.4313

> <Gold.Chemscore.Rot.Weighted>
6.2107

> <Gold.Chemscore.Internal.Correction.Weighted>
   9.000000E+99

> <Gold.Protein.RotatedTorsions>
[ 6907 6896 6895 6894 ] final  173.32 input  -60.11 | X-H torsion
[ 7974 7965 7964 7962 ] final  122.69 input  175.53 | X-H torsion
[ 8008 7997 7996 7995 ] final -157.85 input   59.86 | X-H torsion
[ 10167 10162 10161 10158 ] final -119.21 input  -65.29 | X-H torsion
[ 10718 10713 10712 10709 ] final  -85.74 input   66.30 | X-H torsion
[ 10763 10752 10751 10750 ] final  -65.80 input  -60.55 | X-H torsion
[ 11005 11000 10999 10996 ] final  -16.26 input  -57.11 | X-H torsion

> <Gold.Protein.ActiveResidues>
 VAL166  LYS551  ARG553  GLY616  TRP617  ASP618  TYR619  PRO620  LYS621  CYS622 
 ASP623  PHE694  ASN695  SER759  ASP760  ASP761  ALA762  ILE779  LEU786  VAL792 
 PHE793  MET794  SER795  GLU796  ALA797  LYS798  CYS799  TRP800  GLU811  SER814 

> <Gold.Protein.RotatedAtoms>
  151.7701  133.3340  159.3441 H   0  0  0  0  0  0  0  0  0  0  0  0  # atno 6907 bound_to 6896
  150.7465  134.6026  159.6054 H   0  0  0  0  0  0  0  0  0  0  0  0  # atno 6908 bound_to 6896
  152.3347  134.7216  160.0331 H   0  0  0  0  0  0  0  0  0  0  0  0  # atno 6909 bound_to 6896
  145.1046  139.3495  143.4794 H   0  0  0  0  0  0  0  0  0  0  0  0  # atno 7974 bound_to 7965
  155.7387  140.0811  157.2255 H   0  0  0  0  0  0  0  0  0  0  0  0  # atno 8008 bound_to 7997
  154.4024  140.1582  156.2646 H   0  0  0  0  0  0  0  0  0  0  0  0  # atno 8009 bound_to 7997
  155.9041  140.3408  155.6051 H   0  0  0  0  0  0  0  0  0  0  0  0  # atno 8010 bound_to 7997
  140.0491  143.5077  152.2091 H   0  0  0  0  0  0  0  0  0  0  0  0  # atno 10167 bound_to 10162
  155.9994  130.4741  150.4608 H   0  0  0  0  0  0  0  0  0  0  0  0  # atno 10718 bound_to 10713
  154.3504  135.6137  153.5640 H   0  0  0  0  0  0  0  0  0  0  0  0  # atno 10763 bound_to 10752
  152.9798  135.5791  154.4750 H   0  0  0  0  0  0  0  0  0  0  0  0  # atno 10764 bound_to 10752
  154.4470  135.2852  155.1785 H   0  0  0  0  0  0  0  0  0  0  0  0  # atno 10765 bound_to 10752
  140.8049  133.8185  155.9506 H   0  0  0  0  0  0  0  0  0  0  0  0  # atno 11005 bound_to 11000
  146.3528  140.0938  142.8611 LP  0  0  0  0  0  0  0  0  0  0  0  0  # atno 17320 bound_to 7965
  145.0916  140.9288  143.4765 LP  0  0  0  0  0  0  0  0  0  0  0  0  # atno 17321 bound_to 7965
  139.5964  144.7568  151.3275 LP  0  0  0  0  0  0  0  0  0  0  0  0  # atno 17342 bound_to 10162
  140.7225  143.7096  150.7780 LP  0  0  0  0  0  0  0  0  0  0  0  0  # atno 17343 bound_to 10162
  157.2632  131.0571  151.2307 LP  0  0  0  0  0  0  0  0  0  0  0  0  # atno 17370 bound_to 10713
  157.3414  130.7035  149.6384 LP  0  0  0  0  0  0  0  0  0  0  0  0  # atno 17371 bound_to 10713
  140.9257  134.2086  157.4897 LP  0  0  0  0  0  0  0  0  0  0  0  0  # atno 17394 bound_to 11000
  139.8718  134.9811  156.5103 LP  0  0  0  0  0  0  0  0  0  0  0  0  # atno 17395 bound_to 11000

$$$$
