AV-unprocessed.smi:1525|AV-procd|sdf|6145|dock4
  -GOLD-   22720 6293D 1   1.00000     0.00000
 Structure written by MMmdl.
 49 51  0  0  0  0  0  0  0  0  4 V2000
  152.9270  138.7377  157.2362 O   0  0  0  0  0  0  0  0  0  0  0  0
  151.7044  138.5570  157.1985 C   0  0  0  0  0  0  0  0  0  0  0  0
  151.0408  137.3811  157.0390 N   0  5  0  0  0  0  0  0  0  0  0  0
  150.0968  137.0939  155.9605 C   0  0  0  0  0  0  0  0  0  0  0  0
  150.3457  135.6769  155.4044 C   0  0  0  0  0  0  0  0  0  0  0  0
  149.1924  135.1789  154.6096 N   0  3  0  0  0  0  0  0  0  0  0  0
  149.3188  133.7585  154.1891 C   0  0  0  0  0  0  0  0  0  0  0  0
  148.1185  133.3479  153.3207 C   0  0  0  0  0  0  0  0  0  0  0  0
  146.9112  133.5660  154.0406 O   0  0  0  0  0  0  0  0  0  0  0  0
  146.7337  134.9357  154.3797 C   0  0  0  0  0  0  0  0  0  0  0  0
  147.8890  135.4003  155.2817 C   0  0  0  0  0  0  0  0  0  0  0  0
  150.8610  139.5931  157.3360 N   0  0  0  0  0  0  0  0  0  0  0  0
  151.1652  140.9588  157.5891 C   0  0  0  0  0  0  0  0  0  0  0  0
  152.2729  141.3373  158.3883 C   0  0  0  0  0  0  0  0  0  0  0  0
  152.5620  142.7021  158.5821 C   0  0  0  0  0  0  0  0  0  0  0  0
  151.7473  143.6678  157.9631 C   0  0  0  0  0  0  0  0  0  0  0  0
  150.7101  143.2756  157.1938 N   0  3  0  0  0  0  0  0  0  0  0  0
  150.3859  141.9806  156.9780 C   0  0  0  0  0  0  0  0  0  0  0  0
  149.2709  141.7626  156.1505 N   0  0  0  0  0  0  0  0  0  0  0  0
  148.1123  141.1262  156.7706 C   0  0  0  0  0  0  0  0  0  0  0  0
  147.7334  139.9437  155.8740 C   0  0  0  0  0  0  0  0  0  0  0  0
  148.2864  140.3452  154.5109 C   0  0  0  0  0  0  0  0  0  0  0  0
  149.5527  141.1205  154.8725 C   0  0  0  0  0  0  0  0  0  0  0  0
  149.0582  137.1747  156.2847 H   0  0  0  0  0  0  0  0  0  0  0  0
  150.2023  137.8153  155.1502 H   0  0  0  0  0  0  0  0  0  0  0  0
  151.2569  135.6458  154.8047 H   0  0  0  0  0  0  0  0  0  0  0  0
  150.5201  135.0078  156.2488 H   0  0  0  0  0  0  0  0  0  0  0  0
  150.2422  133.6091  153.6285 H   0  0  0  0  0  0  0  0  0  0  0  0
  149.3747  133.1187  155.0713 H   0  0  0  0  0  0  0  0  0  0  0  0
  148.1056  133.9077  152.3840 H   0  0  0  0  0  0  0  0  0  0  0  0
  148.1880  132.2919  153.0597 H   0  0  0  0  0  0  0  0  0  0  0  0
  146.6781  135.5429  153.4747 H   0  0  0  0  0  0  0  0  0  0  0  0
  145.7823  135.0509  154.8991 H   0  0  0  0  0  0  0  0  0  0  0  0
  147.8684  134.8592  156.2290 H   0  0  0  0  0  0  0  0  0  0  0  0
  147.7671  136.4596  155.5123 H   0  0  0  0  0  0  0  0  0  0  0  0
  149.8836  139.3460  157.3898 H   0  0  0  0  0  0  0  0  0  0  0  0
  152.9141  140.5974  158.8434 H   0  0  0  0  0  0  0  0  0  0  0  0
  153.4017  143.0023  159.1917 H   0  0  0  0  0  0  0  0  0  0  0  0
  151.8961  144.7340  158.0534 H   0  0  0  0  0  0  0  0  0  0  0  0
  148.2946  140.8103  157.7987 H   0  0  0  0  0  0  0  0  0  0  0  0
  147.3017  141.8550  156.7936 H   0  0  0  0  0  0  0  0  0  0  0  0
  148.2322  139.0379  156.2209 H   0  0  0  0  0  0  0  0  0  0  0  0
  146.6607  139.7493  155.8598 H   0  0  0  0  0  0  0  0  0  0  0  0
  148.4811  139.4924  153.8599 H   0  0  0  0  0  0  0  0  0  0  0  0
  147.5793  141.0041  154.0051 H   0  0  0  0  0  0  0  0  0  0  0  0
  149.7960  141.8617  154.1111 H   0  0  0  0  0  0  0  0  0  0  0  0
  150.4016  140.4412  154.9560 H   0  0  0  0  0  0  0  0  0  0  0  0
  149.1729  135.7383  153.7686 H   0  0  0  0  0  0  0  0  0  0  0  0
  150.1376  143.9950  156.7517 H   0  0  0  0  0  0  0  0  0  0  0  0
  1  2  2  0  0  0  0
  2  3  1  0  0  0  0
  2 12  1  0  0  0  0
  3  4  1  0  0  0  0
  4  5  1  0  0  0  0
  4 24  1  0  0  0  0
  4 25  1  0  0  0  0
  5  6  1  0  0  0  0
  5 26  1  0  0  0  0
  5 27  1  0  0  0  0
  6 11  1  0  0  0  0
  6  7  1  0  0  0  0
  6 48  1  0  0  0  0
  7  8  1  0  0  0  0
  7 28  1  0  0  0  0
  7 29  1  0  0  0  0
  8  9  1  0  0  0  0
  8 30  1  0  0  0  0
  8 31  1  0  0  0  0
  9 10  1  0  0  0  0
 10 11  1  0  0  0  0
 10 32  1  0  0  0  0
 10 33  1  0  0  0  0
 11 34  1  0  0  0  0
 11 35  1  0  0  0  0
 12 13  1  0  0  0  0
 12 36  1  0  0  0  0
 13 18  1  0  0  0  0
 13 14  2  0  0  0  0
 14 15  1  0  0  0  0
 14 37  1  0  0  0  0
 15 16  2  0  0  0  0
 15 38  1  0  0  0  0
 16 17  1  0  0  0  0
 16 39  1  0  0  0  0
 17 18  2  0  0  0  0
 17 49  1  0  0  0  0
 18 19  1  0  0  0  0
 19 23  1  0  0  0  0
 19 20  1  0  0  0  0
 20 21  1  0  0  0  0
 20 40  1  0  0  0  0
 20 41  1  0  0  0  0
 21 22  1  0  0  0  0
 21 42  1  0  0  0  0
 21 43  1  0  0  0  0
 22 23  1  0  0  0  0
 22 44  1  0  0  0  0
 22 45  1  0  0  0  0
 23 46  1  0  0  0  0
 23 47  1  0  0  0  0
M  CHG  1   3  -1
M  CHG  1   6   1
M  CHG  1  17   1
M  END
> <s_m_source_file>
AV-unprocessed.smi

> <i_m_source_file_index>
1525

> <i_lp_mmshare_version>
43012

> <i_f3d_flags>
0

> <s_epik_input>
W0NIMl0xW0NIMl1PW0NIMl1bQ0gyXU4xW0NIMl1bQ0gyXVtOSF1DKD1PKVtOSF1jMltjSF1bY0hdW2NIXW5jMk4zW0NIMl1bQ0gyXVtDSDJdW0NIMl0z

> <s_epik_cmdline>
J2VwaWtfcHl0aG9uJywgJy1waCcsICc3LjAnLCAnLXRuJywgJzgnLCAnLW1hJywgJzIwMCcsICctbWV0YWxfYmluZGluZycsICctaW1hZScsICc8aW5maWxlLm1hZT4nLCAnLW9tYWUnLCAnPG91dGZpbGUubWFlPic=

> <r_lp_tautomer_probability>
0.999994

> <r_epik_Ionization_Penalty>
8.59159

> <r_epik_Ionization_Penalty_Charging>
8.59159

> <r_epik_Ionization_Penalty_Neutral>
3.55275e-06

> <r_epik_State_Penalty>
8.58545

> <r_epik_Charging_Adjusted_Penalty>
17.177

> <i_epik_Tot_Q>
1

> <i_epik_Tot_abs_Q>
3

> <r_epik_Metal_State_Penalty>
4.58086

> <b_epik_Metal_Only>
1

> <s_lp_Force_Field>
OPLS_2005

> <r_lp_Energy>
45.7376

> <b_lp_Chiralities_Consistent>
1

> <s_lp_Variant>
AV-unprocessed.smi:1525-5

> <Gold.Version>
5.8.1

> <Gold.Id.Protein>
6NUR|6NUR_protein|mol2

> <Gold.PLP.Fitness>
45.0898

> <Gold.PLP.PLP>
-32.0287

> <Gold.PLP.part.hbond>
-3.0000

> <Gold.PLP.part.metal>
0.0000

> <Gold.PLP.part.buried>
-4.1747

> <Gold.PLP.part.nonpolar>
-24.0196

> <Gold.PLP.part.repulsive>
0.7196

> <Gold.PLP.ligand.clash>
0.0000

> <Gold.PLP.ligand.torsion>
1.0937

> <Gold.PLP.Chemscore.Hbond>
5.0000

> <Gold.PLP.Chemscore.CHOScore>
0.0000

> <Gold.PLP.Chemscore.Metal>
0.0000

> <Gold.Chemscore.Hbonds>
donor molecule, donor type, donor heavy atom, donor atom, acceptor molecule, acceptor atom, score
      L1  H     6    48       P1  7948  2.00
      L1  H    17    49       P1  8028  2.00
      P1  H  7997  8010       L1     1  0.93

> <Gold.PLP.Chemscore.Internal.Correction>
0.2485

> <Gold.Rescore>
     Score         DG    S(hbond)    S(metal)    S(lipo)     H(rot)  DE(clash)    DE(int)     intcor
     16.86     -19.74       2.83        0.00      77.57       1.66       0.61       2.28       ----

> <Gold.Chemscore.Fitness>
16.8581

> <Gold.Chemscore.DG>
-19.7424

> <Gold.Chemscore.ZeroCoef>
-5.4800

> <Gold.Chemscore.Hbond>
2.8277

> <Gold.Chemscore.Metal>
0.0000

> <Gold.Chemscore.Lipo>
77.5685

> <Gold.Chemscore.Internal_Hbond>
0.0000

> <Gold.Chemscore.DEClash>
0.6093

> <Gold.Chemscore.DEInternal>
2.2750

> <Gold.Chemscore.Rot>
1.6632

> <Gold.Chemscore.Internal.Correction>
   9.000000E+99

> <Gold.Chemscore.Hbonds>
donor molecule, donor type, donor heavy atom, donor atom, acceptor molecule, acceptor atom, score
      L1  H     6    48       P1  7948  0.73
      L1  H    17    49       P1  8028  0.99
      P1  H  7997  8010       L1     1  0.88

> <Gold.Chemscore.Hbond.Weighted>
-9.4446

> <Gold.Chemscore.Metal.Weighted>
-0.0000

> <Gold.Chemscore.Lipo.Weighted>
-9.0755

> <Gold.Chemscore.Internal_Hbond.Weighted>
0.0000

> <Gold.Chemscore.DEClash.Weighted>
0.6093

> <Gold.Chemscore.DEInternal.Weighted>
2.2750

> <Gold.Chemscore.Rot.Weighted>
4.2577

> <Gold.Chemscore.Internal.Correction.Weighted>
   9.000000E+99

> <Gold.Protein.RotatedTorsions>
[ 6907 6896 6895 6894 ] final   44.74 input  -60.11 | X-H torsion
[ 7974 7965 7964 7962 ] final  -59.02 input  175.53 | X-H torsion
[ 8008 7997 7996 7995 ] final   61.10 input   59.86 | X-H torsion
[ 10167 10162 10161 10158 ] final   99.27 input  -65.29 | X-H torsion
[ 10718 10713 10712 10709 ] final  -59.56 input   66.30 | X-H torsion
[ 10763 10752 10751 10750 ] final  131.60 input  -60.55 | X-H torsion
[ 11005 11000 10999 10996 ] final  131.42 input  -57.11 | X-H torsion

> <Gold.Protein.ActiveResidues>
 VAL166  LYS551  ARG553  GLY616  TRP617  ASP618  TYR619  PRO620  LYS621  CYS622 
 ASP623  PHE694  ASN695  SER759  ASP760  ASP761  ALA762  ILE779  LEU786  VAL792 
 PHE793  MET794  SER795  GLU796  ALA797  LYS798  CYS799  TRP800  GLU811  SER814 

> <Gold.Protein.RotatedAtoms>
  152.2361  134.8274  160.0466 H   0  0  0  0  0  0  0  0  0  0  0  0  # atno 6907 bound_to 6896
  151.9006  133.3532  159.3837 H   0  0  0  0  0  0  0  0  0  0  0  0  # atno 6908 bound_to 6896
  150.7040  134.4758  159.5491 H   0  0  0  0  0  0  0  0  0  0  0  0  # atno 6909 bound_to 6896
  145.8324  140.8471  143.0076 H   0  0  0  0  0  0  0  0  0  0  0  0  # atno 7974 bound_to 7965
  155.5929  140.3493  155.4571 H   0  0  0  0  0  0  0  0  0  0  0  0  # atno 8008 bound_to 7997
  156.0288  140.1270  157.0305 H   0  0  0  0  0  0  0  0  0  0  0  0  # atno 8009 bound_to 7997
  154.4344  140.1047  156.6055 H   0  0  0  0  0  0  0  0  0  0  0  0  # atno 8010 bound_to 7997
  139.7632  144.6947  151.0262 H   0  0  0  0  0  0  0  0  0  0  0  0  # atno 10167 bound_to 10162
  156.1053  130.4181  150.0732 H   0  0  0  0  0  0  0  0  0  0  0  0  # atno 10718 bound_to 10713
  153.7770  135.3174  155.3360 H   0  0  0  0  0  0  0  0  0  0  0  0  # atno 10763 bound_to 10752
  154.8175  135.4626  154.0688 H   0  0  0  0  0  0  0  0  0  0  0  0  # atno 10764 bound_to 10752
  153.1965  135.6916  153.8370 H   0  0  0  0  0  0  0  0  0  0  0  0  # atno 10765 bound_to 10752
  139.9729  134.9572  156.9436 H   0  0  0  0  0  0  0  0  0  0  0  0  # atno 11005 bound_to 11000
  144.6739  140.0692  143.7473 LP  0  0  0  0  0  0  0  0  0  0  0  0  # atno 17320 bound_to 7965
  145.9556  139.2764  143.1186 LP  0  0  0  0  0  0  0  0  0  0  0  0  # atno 17321 bound_to 7965
  140.7809  143.4672  151.0195 LP  0  0  0  0  0  0  0  0  0  0  0  0  # atno 17342 bound_to 10162
  139.8358  143.7630  152.3180 LP  0  0  0  0  0  0  0  0  0  0  0  0  # atno 17343 bound_to 10162
  156.8709  130.9524  151.3609 LP  0  0  0  0  0  0  0  0  0  0  0  0  # atno 17370 bound_to 10713
  157.6229  130.8669  149.9139 LP  0  0  0  0  0  0  0  0  0  0  0  0  # atno 17371 bound_to 10713
  140.5255  134.0865  155.7302 LP  0  0  0  0  0  0  0  0  0  0  0  0  # atno 17394 bound_to 11000
  141.1408  133.9142  157.2330 LP  0  0  0  0  0  0  0  0  0  0  0  0  # atno 17395 bound_to 11000

$$$$
