AV-unprocessed.smi:21|AV-procd|sdf|141|dock3
  -GOLD-   2262015343D 1   1.00000     0.00000
 Structure written by MMmdl.
 62 65  0  0  0  0  0  0  0  0  2 V2000
  143.7802  132.6218  150.7225 C   0  0  0  0  0  0  0  0  0  0  0  0
  145.1719  132.5990  150.4484 O   0  0  0  0  0  0  0  0  0  0  0  0
  145.9192  133.5200  151.2288 C   0  0  1  0  0  0  0  0  0  0  0  0
  145.6042  134.9775  150.9074 C   0  0  0  0  0  0  0  0  0  0  0  0
  146.0217  135.7254  152.1813 C   0  0  1  0  0  0  0  0  0  0  0  0
  145.3128  137.0899  152.3669 C   0  0  0  0  0  0  0  0  0  0  0  0
  146.2603  138.1879  152.5834 N   0  0  0  0  0  0  0  0  0  0  0  0
  146.3234  139.2375  151.5732 C   0  0  0  0  0  0  0  0  0  0  0  0
  146.8960  138.3488  153.7822 C   0  0  0  0  0  0  0  0  0  0  0  0
  147.0244  137.2654  154.5947 N   0  0  0  0  0  0  0  0  0  0  0  0
  147.6362  137.3582  155.7773 C   0  0  0  0  0  0  0  0  0  0  0  0
  148.1935  138.4275  156.3425 N   0  0  0  0  0  0  0  0  0  0  0  0
  148.0796  139.5249  155.5430 C   0  0  0  0  0  0  0  0  0  0  0  0
  147.4488  139.5778  154.2642 C   0  0  0  0  0  0  0  0  0  0  0  0
  147.5195  140.8785  153.7758 N   0  0  0  0  0  0  0  0  0  0  0  0
  148.1541  141.5452  154.6990 C   0  0  0  0  0  0  0  0  0  0  0  0
  148.5453  140.8059  155.7906 N   0  0  0  0  0  0  0  0  0  0  0  0
  149.2672  141.2885  156.9608 C   0  0  0  0  0  0  0  0  0  0  0  0
  150.6150  140.5633  157.2300 C   0  0  1  0  0  0  0  0  0  0  0  0
  151.5700  140.6401  156.0156 C   0  0  0  0  0  0  0  0  0  0  0  0
  150.9383  140.1563  154.8488 O   0  0  0  0  0  0  0  0  0  0  0  0
  151.3061  141.0598  158.5278 C   0  0  2  0  0  0  0  0  0  0  0  0
  151.8078  142.4939  158.4842 C   0  0  0  0  0  0  0  0  0  0  0  0
  152.8188  142.5288  159.6267 C   0  0  0  0  0  0  0  0  0  0  0  0
  153.3243  141.2033  159.7427 O   0  0  0  0  0  0  0  0  0  0  0  0
  152.6149  140.3370  158.8650 C   0  0  0  0  0  0  0  0  0  0  0  0
  145.8547  134.7450  153.2953 N   0  3  1  0  0  0  0  0  0  0  0  0
  144.9650  135.1209  154.4195 C   0  0  0  0  0  0  0  0  0  0  0  0
  145.5152  133.4327  152.6988 C   0  0  0  0  0  0  0  0  0  0  0  0
  146.9910  133.3327  151.1369 H   0  0  0  0  0  0  0  0  0  0  0  0
  147.0965  135.9035  152.1233 H   0  0  0  0  0  0  0  0  0  0  0  0
  143.2681  131.9208  150.0636 H   0  0  0  0  0  0  0  0  0  0  0  0
  143.3594  133.6130  150.5484 H   0  0  0  0  0  0  0  0  0  0  0  0
  143.5684  132.3266  151.7505 H   0  0  0  0  0  0  0  0  0  0  0  0
  146.1215  135.3404  150.0187 H   0  0  0  0  0  0  0  0  0  0  0  0
  144.5317  135.0876  150.7410 H   0  0  0  0  0  0  0  0  0  0  0  0
  144.6383  137.2912  151.5354 H   0  0  0  0  0  0  0  0  0  0  0  0
  144.6742  137.0506  153.2496 H   0  0  0  0  0  0  0  0  0  0  0  0
  145.7941  140.1288  151.9106 H   0  0  0  0  0  0  0  0  0  0  0  0
  145.8626  138.9114  150.6406 H   0  0  0  0  0  0  0  0  0  0  0  0
  147.3580  139.5006  151.3515 H   0  0  0  0  0  0  0  0  0  0  0  0
  147.6883  136.4449  156.3516 H   0  0  0  0  0  0  0  0  0  0  0  0
  148.3561  142.6011  154.6016 H   0  0  0  0  0  0  0  0  0  0  0  0
  149.4290  142.3600  156.8414 H   0  0  0  0  0  0  0  0  0  0  0  0
  148.6123  141.1927  157.8273 H   0  0  0  0  0  0  0  0  0  0  0  0
  150.3793  139.5087  157.3815 H   0  0  0  0  0  0  0  0  0  0  0  0
  151.9223  141.6580  155.8482 H   0  0  0  0  0  0  0  0  0  0  0  0
  152.4544  140.0239  156.1718 H   0  0  0  0  0  0  0  0  0  0  0  0
  150.4509  139.3777  155.0710 H   0  0  0  0  0  0  0  0  0  0  0  0
  150.6216  140.9697  159.3721 H   0  0  0  0  0  0  0  0  0  0  0  0
  152.3100  142.6930  157.5361 H   0  0  0  0  0  0  0  0  0  0  0  0
  151.0173  143.2336  158.6134 H   0  0  0  0  0  0  0  0  0  0  0  0
  153.6199  143.2461  159.4483 H   0  0  0  0  0  0  0  0  0  0  0  0
  152.3282  142.7948  160.5637 H   0  0  0  0  0  0  0  0  0  0  0  0
  152.4604  139.3618  159.3247 H   0  0  0  0  0  0  0  0  0  0  0  0
  153.2171  140.1912  157.9670 H   0  0  0  0  0  0  0  0  0  0  0  0
  143.9425  135.2922  154.0808 H   0  0  0  0  0  0  0  0  0  0  0  0
  145.3245  136.0173  154.9249 H   0  0  0  0  0  0  0  0  0  0  0  0
  144.9419  134.3210  155.1603 H   0  0  0  0  0  0  0  0  0  0  0  0
  144.4377  133.2701  152.7666 H   0  0  0  0  0  0  0  0  0  0  0  0
  146.0084  132.6125  153.2213 H   0  0  0  0  0  0  0  0  0  0  0  0
  146.7767  134.6397  153.6947 H   0  0  0  0  0  0  0  0  0  0  0  0
  1  2  1  0  0  0  0
  1 32  1  0  0  0  0
  1 33  1  0  0  0  0
  1 34  1  0  0  0  0
  2  3  1  0  0  0  0
  3 30  1  0  0  0  0
  3 29  1  0  0  0  0
  3  4  1  0  0  0  0
  4  5  1  0  0  0  0
  4 35  1  0  0  0  0
  4 36  1  0  0  0  0
  5 31  1  0  0  0  0
  5  6  1  0  0  0  0
  5 27  1  0  0  0  0
  6  7  1  0  0  0  0
  6 37  1  0  0  0  0
  6 38  1  0  0  0  0
  7  8  1  0  0  0  0
  7  9  1  0  0  0  0
  8 39  1  0  0  0  0
  8 40  1  0  0  0  0
  8 41  1  0  0  0  0
  9 14  1  0  0  0  0
  9 10  2  0  0  0  0
 10 11  1  0  0  0  0
 11 12  2  0  0  0  0
 11 42  1  0  0  0  0
 12 13  1  0  0  0  0
 13 17  1  0  0  0  0
 13 14  2  0  0  0  0
 14 15  1  0  0  0  0
 15 16  2  0  0  0  0
 16 17  1  0  0  0  0
 16 43  1  0  0  0  0
 17 18  1  0  0  0  0
 18 19  1  0  0  0  0
 18 44  1  0  0  0  0
 18 45  1  0  0  0  0
 19 20  1  0  0  0  0
 19 22  1  0  0  0  0
 19 46  1  0  0  0  0
 20 21  1  0  0  0  0
 20 47  1  0  0  0  0
 20 48  1  0  0  0  0
 21 49  1  0  0  0  0
 22 26  1  0  0  0  0
 22 23  1  0  0  0  0
 22 50  1  0  0  0  0
 23 24  1  0  0  0  0
 23 51  1  0  0  0  0
 23 52  1  0  0  0  0
 24 25  1  0  0  0  0
 24 53  1  0  0  0  0
 24 54  1  0  0  0  0
 25 26  1  0  0  0  0
 26 55  1  0  0  0  0
 26 56  1  0  0  0  0
 27 28  1  0  0  0  0
 27 29  1  0  0  0  0
 27 62  1  0  0  0  0
 28 57  1  0  0  0  0
 28 58  1  0  0  0  0
 28 59  1  0  0  0  0
 29 60  1  0  0  0  0
 29 61  1  0  0  0  0
M  CHG  1  27   1
M  END
> <s_m_source_file>
AV-unprocessed.smi

> <i_m_source_file_index>
21

> <i_lp_mmshare_version>
43012

> <i_f3d_flags>
0

> <s_epik_input>
W0NIM11PW0NASF0xW0NIMl1bQ0BIXShOKFtDSDNdKVtDSDJdMSlbQ0gyXU4oW0NIM10pYyhuW2NIXW4yKWMoYzIzKW5bY0hdbjNbQ0gyXVtDQEhdKFtDSDJdW09IXSlbQ0BASF00W0NIMl1bQ0gyXU9bQ0gyXTQ=

> <s_epik_cmdline>
J2VwaWtfcHl0aG9uJywgJy1waCcsICc3LjAnLCAnLXRuJywgJzgnLCAnLW1hJywgJzIwMCcsICctbWV0YWxfYmluZGluZycsICctaW1hZScsICc8aW5maWxlLm1hZT4nLCAnLW9tYWUnLCAnPG91dGZpbGUubWFlPic=

> <r_lp_tautomer_probability>
1

> <r_epik_Ionization_Penalty>
0.0157465

> <r_epik_Ionization_Penalty_Charging>
0.015354

> <r_epik_Ionization_Penalty_Neutral>
0.000392529

> <r_epik_State_Penalty>
0.0120612

> <r_epik_Charging_Adjusted_Penalty>
0.0274152

> <i_epik_Tot_Q>
1

> <i_epik_Tot_abs_Q>
1

> <r_epik_Metal_State_Penalty>
0.0121253

> <b_epik_Metal_Only>
0

> <s_lp_Force_Field>
OPLS_2005

> <r_lp_Energy>
60.5885

> <b_lp_Chiralities_Consistent>
1

> <s_lp_Variant>
AV-unprocessed.smi:21-21

> <Gold.Version>
5.8.1

> <Gold.Id.Protein>
6NUR|6NUR_protein|mol2

> <Gold.PLP.Fitness>
46.2379

> <Gold.PLP.PLP>
-41.5607

> <Gold.PLP.part.hbond>
-1.0000

> <Gold.PLP.part.metal>
0.0000

> <Gold.PLP.part.buried>
-4.9335

> <Gold.PLP.part.nonpolar>
-36.8319

> <Gold.PLP.part.repulsive>
0.3937

> <Gold.PLP.ligand.clash>
0.0000

> <Gold.PLP.ligand.torsion>
1.0566

> <Gold.PLP.Chemscore.Hbond>
1.0000

> <Gold.PLP.Chemscore.CHOScore>
1.0000

> <Gold.PLP.Chemscore.Metal>
0.0000

> <Gold.Chemscore.Hbonds>
donor molecule, donor type, donor heavy atom, donor atom, acceptor molecule, acceptor atom, score
      P1  H  7989  7998       L1    21  1.00
      L1  C    16    43       P1  8028  1.00

> <Gold.PLP.Chemscore.Internal.Correction>
0.7903

> <Gold.Rescore>
     Score         DG    S(hbond)    S(metal)    S(lipo)     H(rot)  DE(clash)    DE(int)     intcor
      7.08     -12.03       0.95        0.00      96.22       3.08       0.18       4.77       ----

> <Gold.Chemscore.Fitness>
7.0754

> <Gold.Chemscore.DG>
-12.0315

> <Gold.Chemscore.ZeroCoef>
-5.4800

> <Gold.Chemscore.Hbond>
0.9486

> <Gold.Chemscore.Metal>
0.0000

> <Gold.Chemscore.Lipo>
96.2154

> <Gold.Chemscore.Internal_Hbond>
0.0000

> <Gold.Chemscore.DEClash>
0.1841

> <Gold.Chemscore.DEInternal>
4.7720

> <Gold.Chemscore.Rot>
3.0758

> <Gold.Chemscore.Internal.Correction>
   9.000000E+99

> <Gold.Chemscore.Hbonds>
donor molecule, donor type, donor heavy atom, donor atom, acceptor molecule, acceptor atom, score
      P1  H  7989  7998       L1    21  0.70

> <Gold.Chemscore.Hbond.Weighted>
-3.1684

> <Gold.Chemscore.Metal.Weighted>
-0.0000

> <Gold.Chemscore.Lipo.Weighted>
-11.2572

> <Gold.Chemscore.Internal_Hbond.Weighted>
0.0000

> <Gold.Chemscore.DEClash.Weighted>
0.1841

> <Gold.Chemscore.DEInternal.Weighted>
4.7720

> <Gold.Chemscore.Rot.Weighted>
7.8741

> <Gold.Chemscore.Internal.Correction.Weighted>
   9.000000E+99

> <Gold.Protein.RotatedTorsions>
[ 6907 6896 6895 6894 ] final -123.01 input  -60.11 | X-H torsion
[ 7974 7965 7964 7962 ] final   21.10 input  175.53 | X-H torsion
[ 8008 7997 7996 7995 ] final   90.52 input   59.86 | X-H torsion
[ 10167 10162 10161 10158 ] final  -64.67 input  -65.29 | X-H torsion
[ 10718 10713 10712 10709 ] final -128.74 input   66.30 | X-H torsion
[ 10763 10752 10751 10750 ] final  155.37 input  -60.55 | X-H torsion
[ 11005 11000 10999 10996 ] final  137.94 input  -57.11 | X-H torsion

> <Gold.Protein.ActiveResidues>
 VAL166  LYS551  ARG553  GLY616  TRP617  ASP618  TYR619  PRO620  LYS621  CYS622 
 ASP623  PHE694  ASN695  SER759  ASP760  ASP761  ALA762  ILE779  LEU786  VAL792 
 PHE793  MET794  SER795  GLU796  ALA797  LYS798  CYS799  TRP800  GLU811  SER814 

> <Gold.Protein.RotatedAtoms>
  150.8630  133.7616  159.2985 H   0  0  0  0  0  0  0  0  0  0  0  0  # atno 6907 bound_to 6896
  151.5252  135.1066  159.9898 H   0  0  0  0  0  0  0  0  0  0  0  0  # atno 6908 bound_to 6896
  152.4640  133.7839  159.6921 H   0  0  0  0  0  0  0  0  0  0  0  0  # atno 6909 bound_to 6896
  146.2085  139.8074  142.8707 H   0  0  0  0  0  0  0  0  0  0  0  0  # atno 7974 bound_to 7965
  156.0129  140.3348  155.6959 H   0  0  0  0  0  0  0  0  0  0  0  0  # atno 8008 bound_to 7997
  155.6132  140.0667  157.2718 H   0  0  0  0  0  0  0  0  0  0  0  0  # atno 8009 bound_to 7997
  154.4288  140.1790  156.1282 H   0  0  0  0  0  0  0  0  0  0  0  0  # atno 8010 bound_to 7997
  140.5784  143.2324  151.6393 H   0  0  0  0  0  0  0  0  0  0  0  0  # atno 10167 bound_to 10162
  156.1979  130.6838  151.0504 H   0  0  0  0  0  0  0  0  0  0  0  0  # atno 10718 bound_to 10713
  154.1672  135.2806  155.3091 H   0  0  0  0  0  0  0  0  0  0  0  0  # atno 10763 bound_to 10752
  154.6102  135.5501  153.7469 H   0  0  0  0  0  0  0  0  0  0  0  0  # atno 10764 bound_to 10752
  153.0175  135.6413  154.1813 H   0  0  0  0  0  0  0  0  0  0  0  0  # atno 10765 bound_to 10752
  140.0148  134.9423  157.0354 H   0  0  0  0  0  0  0  0  0  0  0  0  # atno 11005 bound_to 11000
  145.3231  141.0249  143.3489 LP  0  0  0  0  0  0  0  0  0  0  0  0  # atno 17320 bound_to 7965
  144.8852  139.4849  143.6704 LP  0  0  0  0  0  0  0  0  0  0  0  0  # atno 17321 bound_to 7965
  139.5156  144.3374  152.0771 LP  0  0  0  0  0  0  0  0  0  0  0  0  # atno 17342 bound_to 10162
  140.2521  144.4158  150.6218 LP  0  0  0  0  0  0  0  0  0  0  0  0  # atno 17343 bound_to 10162
  157.6968  131.0791  150.6942 LP  0  0  0  0  0  0  0  0  0  0  0  0  # atno 17370 bound_to 10713
  156.7000  130.4620  149.5576 LP  0  0  0  0  0  0  0  0  0  0  0  0  # atno 17371 bound_to 10713
  140.4489  134.1602  155.7180 LP  0  0  0  0  0  0  0  0  0  0  0  0  # atno 17394 bound_to 11000
  141.1736  133.8560  157.1494 LP  0  0  0  0  0  0  0  0  0  0  0  0  # atno 17395 bound_to 11000

$$$$
