AV-unprocessed.smi:3089|AV-procd|sdf|11771|dock1
  -GOLD-   2272017153D 1   1.00000     0.00000
 Structure written by MMmdl.
 25 25  0  0  0  0  0  0  0  0  2 V2000
  150.9246  142.0170  156.2473 C   0  0  0  0  0  0  0  0  0  0  0  0
  150.0451  141.2828  155.3628 N   0  0  0  0  0  0  0  0  0  0  0  0
  148.7340  141.5502  155.0353 C   0  0  0  0  0  0  0  0  0  0  0  0
  148.3170  140.5812  154.1637 C   0  0  0  0  0  0  0  0  0  0  0  0
  146.9634  140.4255  153.5024 C   0  0  2  0  0  0  0  0  0  0  0  0
  146.8228  141.4334  152.3487 C   0  0  0  0  0  0  0  0  0  0  0  0
  145.9030  140.7104  154.3961 O   0  0  0  0  0  0  0  0  0  0  0  0
  146.7560  138.9836  152.9883 C   0  0  0  0  0  0  0  0  0  0  0  0
  147.4422  138.7439  151.7049 N   0  3  0  0  0  0  0  0  0  0  0  0
  149.4705  139.7528  154.0279 C   0  0  0  0  0  0  0  0  0  0  0  0
  150.5006  140.1776  154.7403 N   0  0  0  0  0  0  0  0  0  0  0  0
  150.4027  142.8786  156.6644 H   0  0  0  0  0  0  0  0  0  0  0  0
  151.7980  142.3654  155.6950 H   0  0  0  0  0  0  0  0  0  0  0  0
  151.2507  141.3718  157.0635 H   0  0  0  0  0  0  0  0  0  0  0  0
  148.2093  142.4011  155.4444 H   0  0  0  0  0  0  0  0  0  0  0  0
  147.5820  141.2705  151.5828 H   0  0  0  0  0  0  0  0  0  0  0  0
  146.9302  142.4596  152.7031 H   0  0  0  0  0  0  0  0  0  0  0  0
  145.8492  141.3536  151.8635 H   0  0  0  0  0  0  0  0  0  0  0  0
  145.1012  140.7889  153.9016 H   0  0  0  0  0  0  0  0  0  0  0  0
  147.1141  138.2567  153.7185 H   0  0  0  0  0  0  0  0  0  0  0  0
  145.6936  138.7838  152.8432 H   0  0  0  0  0  0  0  0  0  0  0  0
  146.7649  138.7072  150.9569 H   0  0  0  0  0  0  0  0  0  0  0  0
  147.9423  137.8674  151.7535 H   0  0  0  0  0  0  0  0  0  0  0  0
  149.5904  138.8607  153.4308 H   0  0  0  0  0  0  0  0  0  0  0  0
  148.0981  139.4924  151.5320 H   0  0  0  0  0  0  0  0  0  0  0  0
  1  2  1  0  0  0  0
  1 12  1  0  0  0  0
  1 13  1  0  0  0  0
  1 14  1  0  0  0  0
  2 11  1  0  0  0  0
  2  3  1  0  0  0  0
  3  4  2  0  0  0  0
  3 15  1  0  0  0  0
  4  5  1  0  0  0  0
  4 10  1  0  0  0  0
  5  6  1  0  0  0  0
  5  7  1  0  0  0  0
  5  8  1  0  0  0  0
  6 16  1  0  0  0  0
  6 17  1  0  0  0  0
  6 18  1  0  0  0  0
  7 19  1  0  0  0  0
  8  9  1  0  0  0  0
  8 20  1  0  0  0  0
  8 21  1  0  0  0  0
  9 22  1  0  0  0  0
  9 23  1  0  0  0  0
  9 25  1  0  0  0  0
 10 11  2  0  0  0  0
 10 24  1  0  0  0  0
M  CHG  1   9   1
M  END
> <s_m_source_file>
AV-unprocessed.smi

> <i_m_source_file_index>
3089

> <i_lp_mmshare_version>
43012

> <i_f3d_flags>
0

> <s_epik_input>
W0NIM11uMVtjSF1jKFtjSF1uMSlbQ0BAXShbQ0gzXSkoW09IXSlbQ0gyXVtOSDJd

> <s_epik_cmdline>
J2VwaWtfcHl0aG9uJywgJy1waCcsICc3LjAnLCAnLXRuJywgJzgnLCAnLW1hJywgJzIwMCcsICctbWV0YWxfYmluZGluZycsICctaW1hZScsICc8aW5maWxlLm1hZT4nLCAnLW9tYWUnLCAnPG91dGZpbGUubWFlPic=

> <r_lp_tautomer_probability>
1

> <r_epik_Ionization_Penalty>
0.0140512

> <r_epik_Ionization_Penalty_Charging>
0.0140431

> <r_epik_Ionization_Penalty_Neutral>
8.10489e-06

> <r_epik_State_Penalty>
0.0109628

> <r_epik_Charging_Adjusted_Penalty>
0.0250059

> <i_epik_Tot_Q>
1

> <i_epik_Tot_abs_Q>
1

> <r_epik_Metal_State_Penalty>
0.0109638

> <b_epik_Metal_Only>
0

> <s_lp_Force_Field>
OPLS_2005

> <r_lp_Energy>
3.27267

> <b_lp_Chiralities_Consistent>
1

> <s_lp_Variant>
AV-unprocessed.smi:3089-2

> <Gold.Version>
5.8.1

> <Gold.Id.Protein>
6NUR|6NUR_protein|mol2

> <Gold.PLP.Fitness>
35.8575

> <Gold.PLP.PLP>
-18.9879

> <Gold.PLP.part.hbond>
-4.0000

> <Gold.PLP.part.metal>
0.0000

> <Gold.PLP.part.buried>
-0.5098

> <Gold.PLP.part.nonpolar>
-14.1487

> <Gold.PLP.part.repulsive>
0.7027

> <Gold.PLP.ligand.clash>
0.0000

> <Gold.PLP.ligand.torsion>
1.0348

> <Gold.PLP.Chemscore.Hbond>
5.0000

> <Gold.PLP.Chemscore.CHOScore>
1.3076

> <Gold.PLP.Chemscore.Metal>
0.0000

> <Gold.Chemscore.Hbonds>
donor molecule, donor type, donor heavy atom, donor atom, acceptor molecule, acceptor atom, score
      L1  H     7    19       P1 10175  1.00
      L1  H     9    23       P1  7948  2.00
      L1  H     9    25       P1  7957  1.00
      P1  H  7989  7998       L1    11  1.00
      L1  C     3    15       P1  8028  1.00
      L1  C    10    24       P1  7957  0.32

> <Gold.PLP.Chemscore.Internal.Correction>
0.0165

> <Gold.Rescore>
     Score         DG    S(hbond)    S(metal)    S(lipo)     H(rot)  DE(clash)    DE(int)     intcor
     14.66     -16.79       2.98        0.00      52.94       1.89       1.69       0.43       ----

> <Gold.Chemscore.Fitness>
14.6634

> <Gold.Chemscore.DG>
-16.7866

> <Gold.Chemscore.ZeroCoef>
-5.4800

> <Gold.Chemscore.Hbond>
2.9780

> <Gold.Chemscore.Metal>
0.0000

> <Gold.Chemscore.Lipo>
52.9397

> <Gold.Chemscore.Internal_Hbond>
0.0000

> <Gold.Chemscore.DEClash>
1.6924

> <Gold.Chemscore.DEInternal>
0.4308

> <Gold.Chemscore.Rot>
1.8883

> <Gold.Chemscore.Internal.Correction>
   9.000000E+99

> <Gold.Chemscore.Hbonds>
donor molecule, donor type, donor heavy atom, donor atom, acceptor molecule, acceptor atom, score
      L1  H     7    19       P1 10175  0.89
      L1  H     9    23       P1  7948  1.00
      L1  H     9    25       P1  7957  0.93
      P1  H  7989  7998       L1    11  0.15

> <Gold.Chemscore.Hbond.Weighted>
-9.9467

> <Gold.Chemscore.Metal.Weighted>
-0.0000

> <Gold.Chemscore.Lipo.Weighted>
-6.1939

> <Gold.Chemscore.Internal_Hbond.Weighted>
0.0000

> <Gold.Chemscore.DEClash.Weighted>
1.6924

> <Gold.Chemscore.DEInternal.Weighted>
0.4308

> <Gold.Chemscore.Rot.Weighted>
4.8341

> <Gold.Chemscore.Internal.Correction.Weighted>
   9.000000E+99

> <Gold.Protein.RotatedTorsions>
[ 6907 6896 6895 6894 ] final   52.62 input  -60.11 | X-H torsion
[ 7974 7965 7964 7962 ] final -112.99 input  175.53 | X-H torsion
[ 8008 7997 7996 7995 ] final   43.64 input   59.86 | X-H torsion
[ 10167 10162 10161 10158 ] final -127.34 input  -65.29 | X-H torsion
[ 10718 10713 10712 10709 ] final  -14.39 input   66.30 | X-H torsion
[ 10763 10752 10751 10750 ] final   99.74 input  -60.55 | X-H torsion
[ 11005 11000 10999 10996 ] final  152.54 input  -57.11 | X-H torsion

> <Gold.Protein.ActiveResidues>
 VAL166  LYS551  ARG553  GLY616  TRP617  ASP618  TYR619  PRO620  LYS621  CYS622 
 ASP623  PHE694  ASN695  SER759  ASP760  ASP761  ALA762  ILE779  LEU786  VAL792 
 PHE793  MET794  SER795  GLU796  ALA797  LYS798  CYS799  TRP800  GLU811  SER814 

> <Gold.Protein.RotatedAtoms>
  152.3252  134.7330  160.0303 H   0  0  0  0  0  0  0  0  0  0  0  0  # atno 6907 bound_to 6896
  151.7765  133.3340  159.3467 H   0  0  0  0  0  0  0  0  0  0  0  0  # atno 6908 bound_to 6896
  150.7392  134.5902  159.6028 H   0  0  0  0  0  0  0  0  0  0  0  0  # atno 6909 bound_to 6896
  145.1374  140.8759  143.3722 H   0  0  0  0  0  0  0  0  0  0  0  0  # atno 7974 bound_to 7965
  155.3060  140.3388  155.4245 H   0  0  0  0  0  0  0  0  0  0  0  0  # atno 8008 bound_to 7997
  156.1978  140.1721  156.8000 H   0  0  0  0  0  0  0  0  0  0  0  0  # atno 8009 bound_to 7997
  154.5521  140.0703  156.8668 H   0  0  0  0  0  0  0  0  0  0  0  0  # atno 8010 bound_to 7997
  139.9618  143.5941  152.2442 H   0  0  0  0  0  0  0  0  0  0  0  0  # atno 10167 bound_to 10162
  156.6167  130.4864  149.6180 H   0  0  0  0  0  0  0  0  0  0  0  0  # atno 10718 bound_to 10713
  153.3051  135.4103  155.1287 H   0  0  0  0  0  0  0  0  0  0  0  0  # atno 10763 bound_to 10752
  154.8560  135.3551  154.5799 H   0  0  0  0  0  0  0  0  0  0  0  0  # atno 10764 bound_to 10752
  153.6225  135.7064  153.5363 H   0  0  0  0  0  0  0  0  0  0  0  0  # atno 10765 bound_to 10752
  140.1317  134.8797  157.2212 H   0  0  0  0  0  0  0  0  0  0  0  0  # atno 11005 bound_to 11000
  145.0569  139.3136  143.5900 LP  0  0  0  0  0  0  0  0  0  0  0  0  # atno 17320 bound_to 7965
  146.3508  139.9997  142.8677 LP  0  0  0  0  0  0  0  0  0  0  0  0  # atno 17321 bound_to 7965
  139.6548  144.7662  151.2078 LP  0  0  0  0  0  0  0  0  0  0  0  0  # atno 17342 bound_to 10162
  140.7550  143.6103  150.8612 LP  0  0  0  0  0  0  0  0  0  0  0  0  # atno 17343 bound_to 10162
  156.2345  130.6814  151.1496 LP  0  0  0  0  0  0  0  0  0  0  0  0  # atno 17370 bound_to 10713
  157.7239  131.0663  150.6017 LP  0  0  0  0  0  0  0  0  0  0  0  0  # atno 17371 bound_to 10713
  140.2834  134.3324  155.7336 LP  0  0  0  0  0  0  0  0  0  0  0  0  # atno 17394 bound_to 11000
  141.2171  133.7492  156.9397 LP  0  0  0  0  0  0  0  0  0  0  0  0  # atno 17395 bound_to 11000

$$$$
