AV-unprocessed.smi:2750|AV-procd|sdf|10590|dock3
  -GOLD-   2272015 43D 1   1.00000     0.00000
 Structure written by MMmdl.
 25 26  0  0  0  0  0  0  0  0  2 V2000
  152.2260  135.6694  156.7748 O   0  0  0  0  0  0  0  0  0  0  0  0
  151.0650  136.0452  157.0486 C   0  0  0  0  0  0  0  0  0  0  0  0
  150.6240  136.2521  158.2012 O   0  5  0  0  0  0  0  0  0  0  0  0
  150.1212  136.2934  155.8678 C   0  0  0  0  0  0  0  0  0  0  0  0
  150.1939  137.6501  155.3517 N   0  0  0  0  0  0  0  0  0  0  0  0
  149.2235  138.6311  155.3699 C   0  0  0  0  0  0  0  0  0  0  0  0
  149.8304  139.6904  154.7580 C   0  0  0  0  0  0  0  0  0  0  0  0
  149.2859  141.0605  154.4816 C   0  0  0  0  0  0  0  0  0  0  0  0
  147.8626  141.2678  155.0386 C   0  0  1  0  0  0  0  0  0  0  0  0
  147.3495  142.6093  154.8159 N   0  0  0  0  0  0  0  0  0  0  0  0
  146.2220  142.6130  154.0920 C   0  0  0  0  0  0  0  0  0  0  0  0
  145.5806  143.6066  153.7590 O   0  0  0  0  0  0  0  0  0  0  0  0
  145.9191  141.3447  153.7941 N   0  0  0  0  0  0  0  0  0  0  0  0
  146.8085  140.4810  154.2810 C   0  0  0  0  0  0  0  0  0  0  0  0
  146.8002  139.2582  154.1527 O   0  0  0  0  0  0  0  0  0  0  0  0
  151.1263  139.3178  154.4006 N   0  0  0  0  0  0  0  0  0  0  0  0
  151.3307  138.0889  154.7591 N   0  0  0  0  0  0  0  0  0  0  0  0
  150.3730  135.6019  155.0634 H   0  0  0  0  0  0  0  0  0  0  0  0
  149.0916  136.0791  156.1595 H   0  0  0  0  0  0  0  0  0  0  0  0
  148.2392  138.4905  155.7911 H   0  0  0  0  0  0  0  0  0  0  0  0
  149.9596  141.8127  154.8954 H   0  0  0  0  0  0  0  0  0  0  0  0
  149.2772  141.2357  153.4050 H   0  0  0  0  0  0  0  0  0  0  0  0
  147.8164  141.0270  156.1015 H   0  0  0  0  0  0  0  0  0  0  0  0
  147.8106  143.4375  155.1644 H   0  0  0  0  0  0  0  0  0  0  0  0
  145.1132  141.0740  153.2495 H   0  0  0  0  0  0  0  0  0  0  0  0
  1  2  2  0  0  0  0
  2  3  1  0  0  0  0
  2  4  1  0  0  0  0
  4  5  1  0  0  0  0
  4 18  1  0  0  0  0
  4 19  1  0  0  0  0
  5 17  1  0  0  0  0
  5  6  1  0  0  0  0
  6  7  2  0  0  0  0
  6 20  1  0  0  0  0
  7  8  1  0  0  0  0
  7 16  1  0  0  0  0
  8  9  1  0  0  0  0
  8 21  1  0  0  0  0
  8 22  1  0  0  0  0
  9 14  1  0  0  0  0
  9 10  1  0  0  0  0
  9 23  1  0  0  0  0
 10 11  1  0  0  0  0
 10 24  1  0  0  0  0
 11 12  2  0  0  0  0
 11 13  1  0  0  0  0
 13 14  1  0  0  0  0
 13 25  1  0  0  0  0
 14 15  2  0  0  0  0
 16 17  2  0  0  0  0
M  CHG  1   3  -1
M  END
> <s_m_source_file>
AV-unprocessed.smi

> <i_m_source_file_index>
2750

> <i_lp_mmshare_version>
43012

> <i_f3d_flags>
0

> <s_epik_input>
Tz1DKFtPSF0pW0NIMl1uMVtjSF1jKG5uMSlbQ0gyXVtDQEBIXTJbTkhdQyg9TylbTkhdQzI9Tw==

> <s_epik_cmdline>
J2VwaWtfcHl0aG9uJywgJy1waCcsICc3LjAnLCAnLXRuJywgJzgnLCAnLW1hJywgJzIwMCcsICctbWV0YWxfYmluZGluZycsICctaW1hZScsICc8aW5maWxlLm1hZT4nLCAnLW9tYWUnLCAnPG91dGZpbGUubWFlPic=

> <r_lp_tautomer_probability>
1

> <r_epik_Ionization_Penalty>
0.019671

> <r_epik_Ionization_Penalty_Charging>
2.66176e-05

> <r_epik_Ionization_Penalty_Neutral>
0.0196444

> <r_epik_State_Penalty>
0.0155882

> <r_epik_Charging_Adjusted_Penalty>
0.0156148

> <i_epik_Tot_Q>
-1

> <i_epik_Tot_abs_Q>
1

> <r_epik_Metal_State_Penalty>
0.396229

> <b_epik_Metal_Only>
0

> <s_lp_Force_Field>
OPLS_2005

> <r_lp_Energy>
18.3652

> <b_lp_Chiralities_Consistent>
1

> <s_lp_Variant>
AV-unprocessed.smi:2750-2

> <Gold.Version>
5.8.1

> <Gold.Id.Protein>
6NUR|6NUR_protein|mol2

> <Gold.PLP.Fitness>
41.0769

> <Gold.PLP.PLP>
-22.3422

> <Gold.PLP.part.hbond>
-5.0000

> <Gold.PLP.part.metal>
0.0000

> <Gold.PLP.part.buried>
-5.1134

> <Gold.PLP.part.nonpolar>
-14.1468

> <Gold.PLP.part.repulsive>
0.7537

> <Gold.PLP.ligand.clash>
0.0000

> <Gold.PLP.ligand.torsion>
0.4487

> <Gold.PLP.Chemscore.Hbond>
6.5360

> <Gold.PLP.Chemscore.CHOScore>
0.0000

> <Gold.PLP.Chemscore.Metal>
0.0000

> <Gold.Chemscore.Hbonds>
donor molecule, donor type, donor heavy atom, donor atom, acceptor molecule, acceptor atom, score
      L1  H    10    24       P1  8028  1.00
      L1  H    13    25       P1 10175  1.00
      P1  H  6896  6909       L1     3  1.49
      P1  H  7989  7998       L1    16  1.00
      P1  H 10752 10765       L1     1  2.00

> <Gold.PLP.Chemscore.Internal.Correction>
0.0241

> <Gold.Rescore>
     Score         DG    S(hbond)    S(metal)    S(lipo)     H(rot)  DE(clash)    DE(int)     intcor
     10.98     -12.93       3.62        0.00      22.44       2.84       0.00       1.95       ----

> <Gold.Chemscore.Fitness>
10.9769

> <Gold.Chemscore.DG>
-12.9295

> <Gold.Chemscore.ZeroCoef>
-5.4800

> <Gold.Chemscore.Hbond>
3.6176

> <Gold.Chemscore.Metal>
0.0000

> <Gold.Chemscore.Lipo>
22.4384

> <Gold.Chemscore.Internal_Hbond>
0.0000

> <Gold.Chemscore.DEClash>
0.0000

> <Gold.Chemscore.DEInternal>
1.9526

> <Gold.Chemscore.Rot>
2.8354

> <Gold.Chemscore.Internal.Correction>
   9.000000E+99

> <Gold.Chemscore.Hbonds>
donor molecule, donor type, donor heavy atom, donor atom, acceptor molecule, acceptor atom, score
      L1  H    10    24       P1  8028  0.45
      L1  H    13    25       P1 10175  0.35
      P1  H  6896  6909       L1     3  0.69
      P1  H  7989  7998       L1    16  0.26
      P1  H 10752 10765       L1     1  1.00

> <Gold.Chemscore.Hbond.Weighted>
-12.0828

> <Gold.Chemscore.Metal.Weighted>
-0.0000

> <Gold.Chemscore.Lipo.Weighted>
-2.6253

> <Gold.Chemscore.Internal_Hbond.Weighted>
0.0000

> <Gold.Chemscore.DEClash.Weighted>
0.0000

> <Gold.Chemscore.DEInternal.Weighted>
1.9526

> <Gold.Chemscore.Rot.Weighted>
7.2586

> <Gold.Chemscore.Internal.Correction.Weighted>
   9.000000E+99

> <Gold.Protein.RotatedTorsions>
[ 6907 6896 6895 6894 ] final   77.85 input  -60.11 | X-H torsion
[ 7974 7965 7964 7962 ] final  152.52 input  175.53 | X-H torsion
[ 8008 7997 7996 7995 ] final  -79.28 input   59.86 | X-H torsion
[ 10167 10162 10161 10158 ] final -154.42 input  -65.29 | X-H torsion
[ 10718 10713 10712 10709 ] final  110.99 input   66.30 | X-H torsion
[ 10763 10752 10751 10750 ] final -132.71 input  -60.55 | X-H torsion
[ 11005 11000 10999 10996 ] final  -85.74 input  -57.11 | X-H torsion

> <Gold.Protein.ActiveResidues>
 VAL166  LYS551  ARG553  GLY616  TRP617  ASP618  TYR619  PRO620  LYS621  CYS622 
 ASP623  PHE694  ASN695  SER759  ASP760  ASP761  ALA762  ILE779  LEU786  VAL792 
 PHE793  MET794  SER795  GLU796  ALA797  LYS798  CYS799  TRP800  GLU811  SER814 

> <Gold.Protein.RotatedAtoms>
  152.5135  134.3754  159.9332 H   0  0  0  0  0  0  0  0  0  0  0  0  # atno 6907 bound_to 6896
  151.3710  133.3849  159.2707 H   0  0  0  0  0  0  0  0  0  0  0  0  # atno 6908 bound_to 6896
  150.9578  134.8990  159.7770 H   0  0  0  0  0  0  0  0  0  0  0  0  # atno 6909 bound_to 6896
  144.8217  139.6679  143.6097 H   0  0  0  0  0  0  0  0  0  0  0  0  # atno 7974 bound_to 7965
  154.5770  140.0681  156.9049 H   0  0  0  0  0  0  0  0  0  0  0  0  # atno 8008 bound_to 7997
  155.2531  140.3353  155.4262 H   0  0  0  0  0  0  0  0  0  0  0  0  # atno 8009 bound_to 7997
  156.2161  140.1779  156.7570 H   0  0  0  0  0  0  0  0  0  0  0  0  # atno 8010 bound_to 7997
  139.7015  143.9255  152.2430 H   0  0  0  0  0  0  0  0  0  0  0  0  # atno 10167 bound_to 10162
  157.6467  131.0943  150.6683 H   0  0  0  0  0  0  0  0  0  0  0  0  # atno 10718 bound_to 10713
  154.8740  135.3789  154.4453 H   0  0  0  0  0  0  0  0  0  0  0  0  # atno 10763 bound_to 10752
  153.5135  135.7029  153.5774 H   0  0  0  0  0  0  0  0  0  0  0  0  # atno 10764 bound_to 10752
  153.4053  135.3938  155.1980 H   0  0  0  0  0  0  0  0  0  0  0  0  # atno 10765 bound_to 10752
  141.1638  133.7416  156.9059 H   0  0  0  0  0  0  0  0  0  0  0  0  # atno 11005 bound_to 11000
  146.2522  139.6225  142.9419 LP  0  0  0  0  0  0  0  0  0  0  0  0  # atno 17320 bound_to 7965
  145.5090  141.0436  143.2498 LP  0  0  0  0  0  0  0  0  0  0  0  0  # atno 17321 bound_to 7965
  139.9099  144.6862  150.8573 LP  0  0  0  0  0  0  0  0  0  0  0  0  # atno 17342 bound_to 10162
  140.7711  143.3451  151.2128 LP  0  0  0  0  0  0  0  0  0  0  0  0  # atno 17343 bound_to 10162
  156.7000  130.4620  149.5575 LP  0  0  0  0  0  0  0  0  0  0  0  0  # atno 17370 bound_to 10713
  156.1802  130.6494  151.0942 LP  0  0  0  0  0  0  0  0  0  0  0  0  # atno 17371 bound_to 10713
  140.1550  134.9204  157.2642 LP  0  0  0  0  0  0  0  0  0  0  0  0  # atno 17394 bound_to 11000
  140.2677  134.3496  155.7384 LP  0  0  0  0  0  0  0  0  0  0  0  0  # atno 17395 bound_to 11000

$$$$
