AV-unprocessed.smi:116|AV-procd|sdf|1127|dock8
  -GOLD-   2262018253D 1   1.00000     0.00000
 Structure written by MMmdl.
 38 41  0  0  0  0  0  0  0  0  1 V2000
  151.2198  137.1508  159.8074 O   0  0  0  0  0  0  0  0  0  0  0  0
  151.0440  137.5917  158.6704 C   0  0  0  0  0  0  0  0  0  0  0  0
  149.9806  137.1232  157.7879 C   0  0  0  0  0  0  0  0  0  0  0  0
  149.1483  136.1550  158.2069 F   0  0  0  0  0  0  0  0  0  0  0  0
  149.8099  137.6525  156.5574 C   0  0  0  0  0  0  0  0  0  0  0  0
  150.6178  138.6554  156.0474 N   0  0  0  0  0  0  0  0  0  0  0  0
  150.3776  139.2477  154.6753 C   0  0  2  0  0  0  0  0  0  0  0  0
  150.0140  140.7317  154.7968 C   0  0  0  0  0  0  0  0  0  0  0  0
  148.5048  140.6719  154.8818 C   0  0  0  0  0  0  0  0  0  0  0  0
  148.1907  139.5050  153.9516 C   0  0  0  0  0  0  0  0  0  0  0  0
  149.2891  138.6032  154.0776 O   0  0  0  0  0  0  0  0  0  0  0  0
  151.6745  139.1680  156.8305 C   0  0  0  0  0  0  0  0  0  0  0  0
  152.3937  140.0749  156.4042 O   0  0  0  0  0  0  0  0  0  0  0  0
  151.8577  138.6135  158.1194 N   0  0  0  0  0  0  0  0  0  0  0  0
  152.9044  139.1858  158.9520 C   0  0  0  0  0  0  0  0  0  0  0  0
  152.5959  140.6145  159.2862 C   0  0  0  0  0  0  0  0  0  0  0  0
  151.9053  141.4123  158.4603 N   0  0  0  0  0  0  0  0  0  0  0  0
  151.7939  142.6875  159.0065 C   0  0  0  0  0  0  0  0  0  0  0  0
  151.1512  143.8070  158.4282 C   0  0  0  0  0  0  0  0  0  0  0  0
  151.1151  145.0497  159.0917 C   0  0  0  0  0  0  0  0  0  0  0  0
  151.7224  145.1975  160.3531 C   0  0  0  0  0  0  0  0  0  0  0  0
  152.3677  144.1007  160.9528 C   0  0  0  0  0  0  0  0  0  0  0  0
  152.4022  142.8627  160.2846 C   0  0  0  0  0  0  0  0  0  0  0  0
  153.1376  141.3494  160.8012 S   0  0  0  0  0  0  0  0  0  0  0  0
  148.9976  137.2687  155.9589 H   0  0  0  0  0  0  0  0  0  0  0  0
  151.2856  139.0548  154.1015 H   0  0  0  0  0  0  0  0  0  0  0  0
  150.4902  141.2122  155.6524 H   0  0  0  0  0  0  0  0  0  0  0  0
  150.3262  141.2422  153.8850 H   0  0  0  0  0  0  0  0  0  0  0  0
  148.1933  140.4394  155.9010 H   0  0  0  0  0  0  0  0  0  0  0  0
  148.0203  141.6009  154.5803 H   0  0  0  0  0  0  0  0  0  0  0  0
  147.2451  139.0196  154.1938 H   0  0  0  0  0  0  0  0  0  0  0  0
  148.1407  139.8485  152.9178 H   0  0  0  0  0  0  0  0  0  0  0  0
  153.0190  138.5897  159.8578 H   0  0  0  0  0  0  0  0  0  0  0  0
  153.8470  139.1008  158.4083 H   0  0  0  0  0  0  0  0  0  0  0  0
  150.6815  143.7075  157.4608 H   0  0  0  0  0  0  0  0  0  0  0  0
  150.6200  145.8918  158.6308 H   0  0  0  0  0  0  0  0  0  0  0  0
  151.6932  146.1515  160.8592 H   0  0  0  0  0  0  0  0  0  0  0  0
  152.8354  144.2080  161.9205 H   0  0  0  0  0  0  0  0  0  0  0  0
  1  2  2  0  0  0  0
  2 14  1  0  0  0  0
  2  3  1  0  0  0  0
  3  4  1  0  0  0  0
  3  5  2  0  0  0  0
  5  6  1  0  0  0  0
  5 25  1  0  0  0  0
  6  7  1  0  0  0  0
  6 12  1  0  0  0  0
  7 11  1  0  0  0  0
  7  8  1  0  0  0  0
  7 26  1  0  0  0  0
  8  9  1  0  0  0  0
  8 27  1  0  0  0  0
  8 28  1  0  0  0  0
  9 10  1  0  0  0  0
  9 29  1  0  0  0  0
  9 30  1  0  0  0  0
 10 11  1  0  0  0  0
 10 31  1  0  0  0  0
 10 32  1  0  0  0  0
 12 13  2  0  0  0  0
 12 14  1  0  0  0  0
 14 15  1  0  0  0  0
 15 16  1  0  0  0  0
 15 33  1  0  0  0  0
 15 34  1  0  0  0  0
 16 24  1  0  0  0  0
 16 17  2  0  0  0  0
 17 18  1  0  0  0  0
 18 23  2  0  0  0  0
 18 19  1  0  0  0  0
 19 20  2  0  0  0  0
 19 35  1  0  0  0  0
 20 21  1  0  0  0  0
 20 36  1  0  0  0  0
 21 22  2  0  0  0  0
 21 37  1  0  0  0  0
 22 23  1  0  0  0  0
 22 38  1  0  0  0  0
 23 24  1  0  0  0  0
M  END
> <s_m_source_file>
AV-unprocessed.smi

> <i_m_source_file_index>
116

> <i_lp_mmshare_version>
43012

> <i_f3d_flags>
0

> <s_epik_input>
TzFbQ0gyXVtDSDJdW0NIMl1bQ0BIXTFuKFtjSF1jKEYpYzI9TyljKD1PKW4yW0NIMl1jKG4zKXNjKGMzNClbY0hdW2NIXVtjSF1bY0hdNA==

> <s_epik_cmdline>
J2VwaWtfcHl0aG9uJywgJy1waCcsICc3LjAnLCAnLXRuJywgJzgnLCAnLW1hJywgJzIwMCcsICctbWV0YWxfYmluZGluZycsICctaW1hZScsICc8aW5maWxlLm1hZT4nLCAnLW9tYWUnLCAnPG91dGZpbGUubWFlPic=

> <r_lp_tautomer_probability>
1

> <r_epik_Ionization_Penalty>
4.2492e-05

> <r_epik_Ionization_Penalty_Charging>
2.84664e-09

> <r_epik_Ionization_Penalty_Neutral>
4.24891e-05

> <r_epik_State_Penalty>
-0

> <r_epik_Charging_Adjusted_Penalty>
2.84664e-09

> <i_epik_Tot_Q>
0

> <i_epik_Tot_abs_Q>
0

> <r_epik_Metal_State_Penalty>
-0

> <b_epik_Metal_Only>
0

> <s_epik_Chemistry_Notes>
This compound contains an acetal/aminal-like group ( X-CH(R)-Y where X, Y are N, S, or O) that may be acid/base labile, releasing an aldehyde.

> <s_lp_Force_Field>
OPLS_2005

> <r_lp_Energy>
31.0424

> <b_lp_Chiralities_Consistent>
1

> <s_lp_Variant>
AV-unprocessed.smi:116-1

> <Gold.Version>
5.8.1

> <Gold.Id.Protein>
6NUR|6NUR_protein|mol2

> <Gold.PLP.Fitness>
48.2539

> <Gold.PLP.PLP>
-43.1100

> <Gold.PLP.part.hbond>
-1.9493

> <Gold.PLP.part.metal>
0.0000

> <Gold.PLP.part.buried>
-4.4412

> <Gold.PLP.part.nonpolar>
-36.8783

> <Gold.PLP.part.repulsive>
0.2326

> <Gold.PLP.ligand.clash>
0.0000

> <Gold.PLP.ligand.torsion>
0.4223

> <Gold.PLP.Chemscore.Hbond>
1.9913

> <Gold.PLP.Chemscore.CHOScore>
0.0000

> <Gold.PLP.Chemscore.Metal>
0.0000

> <Gold.Chemscore.Hbonds>
donor molecule, donor type, donor heavy atom, donor atom, acceptor molecule, acceptor atom, score
      P1  H  6896  6908       L1     1  1.00
      P1  H  7997  8009       L1    13  1.00

> <Gold.PLP.Chemscore.Internal.Correction>
0.0148

> <Gold.Rescore>
     Score         DG    S(hbond)    S(metal)    S(lipo)     H(rot)  DE(clash)    DE(int)     intcor
     15.18     -20.48       1.94        0.00     105.98       1.52       0.18       5.12       ----

> <Gold.Chemscore.Fitness>
15.1788

> <Gold.Chemscore.DG>
-20.4778

> <Gold.Chemscore.ZeroCoef>
-5.4800

> <Gold.Chemscore.Hbond>
1.9409

> <Gold.Chemscore.Metal>
0.0000

> <Gold.Chemscore.Lipo>
105.9765

> <Gold.Chemscore.Internal_Hbond>
0.0000

> <Gold.Chemscore.DEClash>
0.1776

> <Gold.Chemscore.DEInternal>
5.1214

> <Gold.Chemscore.Rot>
1.5172

> <Gold.Chemscore.Internal.Correction>
   9.000000E+99

> <Gold.Chemscore.Hbonds>
donor molecule, donor type, donor heavy atom, donor atom, acceptor molecule, acceptor atom, score
      P1  H  6896  6908       L1     1  0.89
      P1  H  7997  8009       L1    13  0.98

> <Gold.Chemscore.Hbond.Weighted>
-6.4826

> <Gold.Chemscore.Metal.Weighted>
-0.0000

> <Gold.Chemscore.Lipo.Weighted>
-12.3993

> <Gold.Chemscore.Internal_Hbond.Weighted>
0.0000

> <Gold.Chemscore.DEClash.Weighted>
0.1776

> <Gold.Chemscore.DEInternal.Weighted>
5.1214

> <Gold.Chemscore.Rot.Weighted>
3.8841

> <Gold.Chemscore.Internal.Correction.Weighted>
   9.000000E+99

> <Gold.Protein.RotatedTorsions>
[ 6907 6896 6895 6894 ] final -131.31 input  -60.11 | X-H torsion
[ 7974 7965 7964 7962 ] final  -70.18 input  175.53 | X-H torsion
[ 8008 7997 7996 7995 ] final -159.49 input   59.86 | X-H torsion
[ 10167 10162 10161 10158 ] final    2.53 input  -65.29 | X-H torsion
[ 10718 10713 10712 10709 ] final  -31.54 input   66.30 | X-H torsion
[ 10763 10752 10751 10750 ] final  -36.76 input  -60.55 | X-H torsion
[ 11005 11000 10999 10996 ] final   44.74 input  -57.11 | X-H torsion

> <Gold.Protein.ActiveResidues>
 VAL166  LYS551  ARG553  GLY616  TRP617  ASP618  TYR619  PRO620  LYS621  CYS622 
 ASP623  PHE694  ASN695  SER759  ASP760  ASP761  ALA762  ILE779  LEU786  VAL792 
 PHE793  MET794  SER795  GLU796  ALA797  LYS798  CYS799  TRP800  GLU811  SER814 

> <Gold.Protein.RotatedAtoms>
  150.9495  133.6566  159.2774 H   0  0  0  0  0  0  0  0  0  0  0  0  # atno 6907 bound_to 6896
  151.3927  135.0957  159.9541 H   0  0  0  0  0  0  0  0  0  0  0  0  # atno 6908 bound_to 6896
  152.5104  133.9006  159.7494 H   0  0  0  0  0  0  0  0  0  0  0  0  # atno 6909 bound_to 6896
  145.6942  140.9141  143.0765 H   0  0  0  0  0  0  0  0  0  0  0  0  # atno 7974 bound_to 7965
  155.7633  140.0842  157.2144 H   0  0  0  0  0  0  0  0  0  0  0  0  # atno 8008 bound_to 7997
  154.4002  140.1539  156.2915 H   0  0  0  0  0  0  0  0  0  0  0  0  # atno 8009 bound_to 7997
  155.8818  140.3420  155.5896 H   0  0  0  0  0  0  0  0  0  0  0  0  # atno 8010 bound_to 7997
  140.6630  143.7253  150.7775 H   0  0  0  0  0  0  0  0  0  0  0  0  # atno 10167 bound_to 10162
  156.3860  130.4364  149.7432 H   0  0  0  0  0  0  0  0  0  0  0  0  # atno 10718 bound_to 10713
  153.8850  135.6818  153.4764 H   0  0  0  0  0  0  0  0  0  0  0  0  # atno 10763 bound_to 10752
  153.1212  135.4739  154.9196 H   0  0  0  0  0  0  0  0  0  0  0  0  # atno 10764 bound_to 10752
  154.7650  135.3221  154.8256 H   0  0  0  0  0  0  0  0  0  0  0  0  # atno 10765 bound_to 10752
  140.1524  134.4445  155.8373 H   0  0  0  0  0  0  0  0  0  0  0  0  # atno 11005 bound_to 11000
  144.6987  139.8862  143.7450 LP  0  0  0  0  0  0  0  0  0  0  0  0  # atno 17320 bound_to 7965
  146.0855  139.3843  143.0438 LP  0  0  0  0  0  0  0  0  0  0  0  0  # atno 17321 bound_to 7965
  140.0925  143.4864  152.2471 LP  0  0  0  0  0  0  0  0  0  0  0  0  # atno 17342 bound_to 10162
  139.5870  144.7535  151.3495 LP  0  0  0  0  0  0  0  0  0  0  0  0  # atno 17343 bound_to 10162
  156.4504  130.7904  151.2925 LP  0  0  0  0  0  0  0  0  0  0  0  0  # atno 17370 bound_to 10713
  157.7496  131.0097  150.3278 LP  0  0  0  0  0  0  0  0  0  0  0  0  # atno 17371 bound_to 10713
  141.2200  133.6878  156.7446 LP  0  0  0  0  0  0  0  0  0  0  0  0  # atno 17394 bound_to 11000
  140.2588  134.8483  157.3739 LP  0  0  0  0  0  0  0  0  0  0  0  0  # atno 17395 bound_to 11000

$$$$
