AV-unprocessed.smi:740|AV-procd|sdf|3550|dock7
  -GOLD-   22720 0543D 1   1.00000     0.00000
 Structure written by MMmdl.
 45 47  0  0  0  0  0  0  0  0  2 V2000
  152.5488  142.5596  159.4872 C   0  0  0  0  0  0  0  0  0  0  0  0
  151.8589  141.8261  158.3497 C   0  0  0  0  0  0  0  0  0  0  0  0
  151.0538  142.5699  157.4580 C   0  0  0  0  0  0  0  0  0  0  0  0
  150.4353  141.8712  156.4281 C   0  0  0  0  0  0  0  0  0  0  0  0
  149.5904  142.3086  155.4060 N   0  3  0  0  0  0  0  0  0  0  0  0
  149.2296  141.2494  154.6304 C   0  0  0  0  0  0  0  0  0  0  0  0
  149.8344  140.1422  155.1399 N   0  0  0  0  0  0  0  0  0  0  0  0
  149.7737  138.7487  154.6766 C   0  0  0  0  0  0  0  0  0  0  0  0
  148.3356  138.1957  154.6422 C   0  0  2  0  0  0  0  0  0  0  0  0
  148.3768  136.8370  154.2512 O   0  0  0  0  0  0  0  0  0  0  0  0
  147.4530  138.9725  153.6442 C   0  0  0  0  0  0  0  0  0  0  0  0
  146.3464  138.1544  153.1346 N   0  0  0  0  0  0  0  0  0  0  0  0
  146.1210  137.9230  151.8342 C   0  0  0  0  0  0  0  0  0  0  0  0
  146.7905  138.3471  150.8925 O   0  0  0  0  0  0  0  0  0  0  0  0
  144.8891  137.0502  151.6401 C   0  0  0  0  0  0  0  0  0  0  0  0
  144.4054  136.7981  153.0763 C   0  0  1  0  0  0  0  0  0  0  0  0
  144.3459  135.3097  153.4574 C   0  0  0  0  0  0  0  0  0  0  0  0
  145.4319  137.5592  153.9132 C   0  0  0  0  0  0  0  0  0  0  0  0
  145.3895  137.5994  155.1431 O   0  0  0  0  0  0  0  0  0  0  0  0
  150.5963  140.4814  156.2647 C   0  0  0  0  0  0  0  0  0  0  0  0
  151.3854  139.7335  157.1358 C   0  0  0  0  0  0  0  0  0  0  0  0
  152.0205  140.4252  158.1919 C   0  0  0  0  0  0  0  0  0  0  0  0
  152.8818  139.6336  159.1612 C   0  0  0  0  0  0  0  0  0  0  0  0
  152.3496  143.6309  159.4500 H   0  0  0  0  0  0  0  0  0  0  0  0
  153.6288  142.4205  159.4344 H   0  0  0  0  0  0  0  0  0  0  0  0
  152.1974  142.1883  160.4502 H   0  0  0  0  0  0  0  0  0  0  0  0
  150.9232  143.6360  157.5738 H   0  0  0  0  0  0  0  0  0  0  0  0
  148.5796  141.2810  153.7677 H   0  0  0  0  0  0  0  0  0  0  0  0
  150.1986  138.7328  153.6722 H   0  0  0  0  0  0  0  0  0  0  0  0
  150.4265  138.1295  155.2924 H   0  0  0  0  0  0  0  0  0  0  0  0
  147.9140  138.2568  155.6466 H   0  0  0  0  0  0  0  0  0  0  0  0
  148.7204  136.7868  153.3724 H   0  0  0  0  0  0  0  0  0  0  0  0
  147.0249  139.8452  154.1409 H   0  0  0  0  0  0  0  0  0  0  0  0
  148.0570  139.3783  152.8304 H   0  0  0  0  0  0  0  0  0  0  0  0
  144.1398  137.5757  151.0470 H   0  0  0  0  0  0  0  0  0  0  0  0
  145.1595  136.1296  151.1213 H   0  0  0  0  0  0  0  0  0  0  0  0
  143.4269  137.2561  153.2260 H   0  0  0  0  0  0  0  0  0  0  0  0
  143.9965  135.1776  154.4821 H   0  0  0  0  0  0  0  0  0  0  0  0
  145.3242  134.8346  153.3743 H   0  0  0  0  0  0  0  0  0  0  0  0
  143.6589  134.7699  152.8052 H   0  0  0  0  0  0  0  0  0  0  0  0
  151.5072  138.6670  157.0200 H   0  0  0  0  0  0  0  0  0  0  0  0
  152.8767  138.5696  158.9225 H   0  0  0  0  0  0  0  0  0  0  0  0
  152.5145  139.7464  160.1814 H   0  0  0  0  0  0  0  0  0  0  0  0
  153.9154  139.9783  159.1243 H   0  0  0  0  0  0  0  0  0  0  0  0
  149.2796  143.2589  155.2482 H   0  0  0  0  0  0  0  0  0  0  0  0
  1  2  1  0  0  0  0
  1 24  1  0  0  0  0
  1 25  1  0  0  0  0
  1 26  1  0  0  0  0
  2 22  1  0  0  0  0
  2  3  2  0  0  0  0
  3  4  1  0  0  0  0
  3 27  1  0  0  0  0
  4 20  2  0  0  0  0
  4  5  1  0  0  0  0
  5  6  2  0  0  0  0
  5 45  1  0  0  0  0
  6  7  1  0  0  0  0
  6 28  1  0  0  0  0
  7  8  1  0  0  0  0
  7 20  1  0  0  0  0
  8  9  1  0  0  0  0
  8 29  1  0  0  0  0
  8 30  1  0  0  0  0
  9 10  1  0  0  0  0
  9 11  1  0  0  0  0
  9 31  1  0  0  0  0
 10 32  1  0  0  0  0
 11 12  1  0  0  0  0
 11 33  1  0  0  0  0
 11 34  1  0  0  0  0
 12 18  1  0  0  0  0
 12 13  1  0  0  0  0
 13 14  2  0  0  0  0
 13 15  1  0  0  0  0
 15 16  1  0  0  0  0
 15 35  1  0  0  0  0
 15 36  1  0  0  0  0
 16 17  1  0  0  0  0
 16 18  1  0  0  0  0
 16 37  1  0  0  0  0
 17 38  1  0  0  0  0
 17 39  1  0  0  0  0
 17 40  1  0  0  0  0
 18 19  2  0  0  0  0
 20 21  1  0  0  0  0
 21 22  2  0  0  0  0
 21 41  1  0  0  0  0
 22 23  1  0  0  0  0
 23 42  1  0  0  0  0
 23 43  1  0  0  0  0
 23 44  1  0  0  0  0
M  CHG  1   5   1
M  END
> <s_m_source_file>
AV-unprocessed.smi

> <i_m_source_file_index>
740

> <i_lp_mmshare_version>
43012

> <i_f3d_flags>
0

> <s_epik_input>
W0NIM11jKFtjSF0xKWMoW0NIM10pW2NIXWMoYzEyKW4oW2NIXW4yKVtDSDJdW0NASF0oW09IXSlbQ0gyXU4zQyg9TylbQ0gyXVtDQEBIXShbQ0gzXSlDMz1P

> <s_epik_cmdline>
J2VwaWtfcHl0aG9uJywgJy1waCcsICc3LjAnLCAnLXRuJywgJzgnLCAnLW1hJywgJzIwMCcsICctbWV0YWxfYmluZGluZycsICctaW1hZScsICc8aW5maWxlLm1hZT4nLCAnLW9tYWUnLCAnPG91dGZpbGUubWFlPic=

> <r_lp_tautomer_probability>
1

> <r_epik_Ionization_Penalty>
1.08202

> <r_epik_Ionization_Penalty_Charging>
1.08202

> <r_epik_Ionization_Penalty_Neutral>
1.16605e-06

> <r_epik_State_Penalty>
1.13754

> <r_epik_Charging_Adjusted_Penalty>
2.21956

> <i_epik_Tot_Q>
1

> <i_epik_Tot_abs_Q>
1

> <r_epik_Metal_State_Penalty>
5.13645

> <b_epik_Metal_Only>
0

> <s_lp_Force_Field>
OPLS_2005

> <r_lp_Energy>
22.4261

> <b_lp_Chiralities_Consistent>
1

> <s_lp_Variant>
AV-unprocessed.smi:740-5

> <Gold.Version>
5.8.1

> <Gold.Id.Protein>
6NUR|6NUR_protein|mol2

> <Gold.PLP.Fitness>
46.5248

> <Gold.PLP.PLP>
-35.1698

> <Gold.PLP.part.hbond>
-2.9222

> <Gold.PLP.part.metal>
0.0000

> <Gold.PLP.part.buried>
-1.4660

> <Gold.PLP.part.nonpolar>
-34.4377

> <Gold.PLP.part.repulsive>
1.1182

> <Gold.PLP.ligand.clash>
0.0000

> <Gold.PLP.ligand.torsion>
0.3232

> <Gold.PLP.Chemscore.Hbond>
4.0000

> <Gold.PLP.Chemscore.CHOScore>
0.0000

> <Gold.PLP.Chemscore.Metal>
0.0000

> <Gold.Chemscore.Hbonds>
donor molecule, donor type, donor heavy atom, donor atom, acceptor molecule, acceptor atom, score
      L1  H     5    45       P1  8028  2.00
      L1  H    10    32       P1  7948  1.00
      P1  H  7954  7966       L1    14  1.00

> <Gold.PLP.Chemscore.Internal.Correction>
0.0015

> <Gold.Rescore>
     Score         DG    S(hbond)    S(metal)    S(lipo)     H(rot)  DE(clash)    DE(int)     intcor
     17.47     -19.01       2.95        0.00      83.37       2.37       1.36       0.18       ----

> <Gold.Chemscore.Fitness>
17.4655

> <Gold.Chemscore.DG>
-19.0103

> <Gold.Chemscore.ZeroCoef>
-5.4800

> <Gold.Chemscore.Hbond>
2.9489

> <Gold.Chemscore.Metal>
0.0000

> <Gold.Chemscore.Lipo>
83.3719

> <Gold.Chemscore.Internal_Hbond>
0.0000

> <Gold.Chemscore.DEClash>
1.3645

> <Gold.Chemscore.DEInternal>
0.1803

> <Gold.Chemscore.Rot>
2.3724

> <Gold.Chemscore.Internal.Correction>
   9.000000E+99

> <Gold.Chemscore.Hbonds>
donor molecule, donor type, donor heavy atom, donor atom, acceptor molecule, acceptor atom, score
      L1  H     5    45       P1  8028  0.95
      L1  H    10    32       P1  7948  0.99
      P1  H  7954  7966       L1    14  0.97

> <Gold.Chemscore.Hbond.Weighted>
-9.8492

> <Gold.Chemscore.Metal.Weighted>
-0.0000

> <Gold.Chemscore.Lipo.Weighted>
-9.7545

> <Gold.Chemscore.Internal_Hbond.Weighted>
0.0000

> <Gold.Chemscore.DEClash.Weighted>
1.3645

> <Gold.Chemscore.DEInternal.Weighted>
0.1803

> <Gold.Chemscore.Rot.Weighted>
6.0734

> <Gold.Chemscore.Internal.Correction.Weighted>
   9.000000E+99

> <Gold.Protein.RotatedTorsions>
[ 6907 6896 6895 6894 ] final  -54.61 input  -60.11 | X-H torsion
[ 7974 7965 7964 7962 ] final   22.15 input  175.53 | X-H torsion
[ 8008 7997 7996 7995 ] final -174.25 input   59.86 | X-H torsion
[ 10167 10162 10161 10158 ] final  -60.95 input  -65.29 | X-H torsion
[ 10718 10713 10712 10709 ] final  -44.93 input   66.30 | X-H torsion
[ 10763 10752 10751 10750 ] final  101.66 input  -60.55 | X-H torsion
[ 11005 11000 10999 10996 ] final    3.53 input  -57.11 | X-H torsion

> <Gold.Protein.ActiveResidues>
 VAL166  LYS551  ARG553  GLY616  TRP617  ASP618  TYR619  PRO620  LYS621  CYS622 
 ASP623  PHE694  ASN695  SER759  ASP760  ASP761  ALA762  ILE779  LEU786  VAL792 
 PHE793  MET794  SER795  GLU796  ALA797  LYS798  CYS799  TRP800  GLU811  SER814 

> <Gold.Protein.RotatedAtoms>
  150.8323  134.7582  159.6863 H   0  0  0  0  0  0  0  0  0  0  0  0  # atno 6907 bound_to 6896
  152.4426  134.5557  159.9889 H   0  0  0  0  0  0  0  0  0  0  0  0  # atno 6908 bound_to 6896
  151.5716  133.3351  159.3026 H   0  0  0  0  0  0  0  0  0  0  0  0  # atno 6909 bound_to 6896
  146.2041  139.7925  142.8739 H   0  0  0  0  0  0  0  0  0  0  0  0  # atno 7974 bound_to 7965
  155.9678  140.1157  157.0839 H   0  0  0  0  0  0  0  0  0  0  0  0  # atno 8008 bound_to 7997
  154.4148  140.1169  156.5332 H   0  0  0  0  0  0  0  0  0  0  0  0  # atno 8009 bound_to 7997
  155.6637  140.3473  155.4794 H   0  0  0  0  0  0  0  0  0  0  0  0  # atno 8010 bound_to 7997
  140.6038  143.2368  151.5868 H   0  0  0  0  0  0  0  0  0  0  0  0  # atno 10167 bound_to 10162
  156.2336  130.4174  149.8845 H   0  0  0  0  0  0  0  0  0  0  0  0  # atno 10718 bound_to 10713
  153.3296  135.4037  155.1484 H   0  0  0  0  0  0  0  0  0  0  0  0  # atno 10763 bound_to 10752
  154.8620  135.3607  154.5488 H   0  0  0  0  0  0  0  0  0  0  0  0  # atno 10764 bound_to 10752
  153.5926  135.7073  153.5476 H   0  0  0  0  0  0  0  0  0  0  0  0  # atno 10765 bound_to 10752
  140.5921  133.9914  155.8093 H   0  0  0  0  0  0  0  0  0  0  0  0  # atno 11005 bound_to 11000
  145.3382  141.0282  143.3407 LP  0  0  0  0  0  0  0  0  0  0  0  0  # atno 17320 bound_to 7965
  144.8751  139.4983  143.6749 LP  0  0  0  0  0  0  0  0  0  0  0  0  # atno 17321 bound_to 7965
  139.5310  144.2916  152.1147 LP  0  0  0  0  0  0  0  0  0  0  0  0  # atno 17342 bound_to 10162
  140.2102  144.4570  150.6389 LP  0  0  0  0  0  0  0  0  0  0  0  0  # atno 17343 bound_to 10162
  156.6451  130.8721  151.3521 LP  0  0  0  0  0  0  0  0  0  0  0  0  # atno 17370 bound_to 10713
  157.7144  130.9479  150.1202 LP  0  0  0  0  0  0  0  0  0  0  0  0  # atno 17371 bound_to 10713
  141.0928  133.9890  157.3209 LP  0  0  0  0  0  0  0  0  0  0  0  0  # atno 17394 bound_to 11000
  139.9269  135.0201  156.8267 LP  0  0  0  0  0  0  0  0  0  0  0  0  # atno 17395 bound_to 11000

$$$$
