AV-unprocessed.smi:1866|AV-procd|sdf|7558|dock1
  -GOLD-   22720 9273D 1   1.00000     0.00000
 Structure written by MMmdl.
 29 30  0  0  0  0  0  0  0  0  2 V2000
  146.3107  134.0516  162.4041 C   0  0  0  0  0  0  0  0  0  0  0  0
  147.1148  135.1319  161.7659 C   0  0  0  0  0  0  0  0  0  0  0  0
  147.4221  136.2696  162.3932 N   0  0  0  0  0  0  0  0  0  0  0  0
  148.1752  137.1194  161.5957 N   0  0  0  0  0  0  0  0  0  0  0  0
  148.4180  136.6183  160.3763 C   0  0  0  0  0  0  0  0  0  0  0  0
  149.1343  137.2828  159.4545 N   0  5  0  0  0  0  0  0  0  0  0  0
  149.8131  136.6002  158.5043 C   0  0  0  0  0  0  0  0  0  0  0  0
  149.6394  135.4212  158.1878 O   0  0  0  0  0  0  0  0  0  0  0  0
  150.7557  137.3299  157.8886 N   0  0  0  0  0  0  0  0  0  0  0  0
  151.6438  136.8881  156.8121 C   0  0  2  0  0  0  0  0  0  0  0  0
  152.6123  138.0431  156.4752 C   0  0  0  0  0  0  0  0  0  0  0  0
  151.9340  139.1547  155.6686 C   0  0  0  0  0  0  0  0  0  0  0  0
  151.3947  138.5855  154.3510 C   0  0  0  0  0  0  0  0  0  0  0  0
  150.7056  137.3092  154.5260 N   0  0  0  0  0  0  0  0  0  0  0  0
  150.8013  136.4789  155.5808 C   0  0  0  0  0  0  0  0  0  0  0  0
  150.2255  135.3926  155.5779 O   0  0  0  0  0  0  0  0  0  0  0  0
  147.7341  135.0116  160.1276 S   0  0  0  0  0  0  0  0  0  0  0  0
  145.2552  134.3236  162.4037 H   0  0  0  0  0  0  0  0  0  0  0  0
  146.6346  133.8980  163.4338 H   0  0  0  0  0  0  0  0  0  0  0  0
  146.4319  133.1160  161.8580 H   0  0  0  0  0  0  0  0  0  0  0  0
  150.8548  138.2890  158.1863 H   0  0  0  0  0  0  0  0  0  0  0  0
  152.2260  136.0284  157.1482 H   0  0  0  0  0  0  0  0  0  0  0  0
  153.0414  138.4534  157.3905 H   0  0  0  0  0  0  0  0  0  0  0  0
  153.4536  137.6505  155.9020 H   0  0  0  0  0  0  0  0  0  0  0  0
  151.1172  139.5871  156.2480 H   0  0  0  0  0  0  0  0  0  0  0  0
  152.6357  139.9649  155.4686 H   0  0  0  0  0  0  0  0  0  0  0  0
  150.7191  139.2988  153.8784 H   0  0  0  0  0  0  0  0  0  0  0  0
  152.2190  138.4240  153.6558 H   0  0  0  0  0  0  0  0  0  0  0  0
  150.1283  137.0043  153.7560 H   0  0  0  0  0  0  0  0  0  0  0  0
  1  2  1  0  0  0  0
  1 18  1  0  0  0  0
  1 19  1  0  0  0  0
  1 20  1  0  0  0  0
  2 17  1  0  0  0  0
  2  3  2  0  0  0  0
  3  4  1  0  0  0  0
  4  5  2  0  0  0  0
  5  6  1  0  0  0  0
  5 17  1  0  0  0  0
  6  7  1  0  0  0  0
  7  8  2  0  0  0  0
  7  9  1  0  0  0  0
  9 10  1  0  0  0  0
  9 21  1  0  0  0  0
 10 15  1  0  0  0  0
 10 11  1  0  0  0  0
 10 22  1  0  0  0  0
 11 12  1  0  0  0  0
 11 23  1  0  0  0  0
 11 24  1  0  0  0  0
 12 13  1  0  0  0  0
 12 25  1  0  0  0  0
 12 26  1  0  0  0  0
 13 14  1  0  0  0  0
 13 27  1  0  0  0  0
 13 28  1  0  0  0  0
 14 15  1  0  0  0  0
 14 29  1  0  0  0  0
 15 16  2  0  0  0  0
M  CHG  1   6  -1
M  END
> <s_m_source_file>
AV-unprocessed.smi

> <i_m_source_file_index>
1866

> <i_lp_mmshare_version>
43012

> <i_f3d_flags>
0

> <s_epik_input>
W0NIM11jMW5uYyhzMSlbTkhdQyg9TylbTkhdW0NAQEhdMltDSDJdW0NIMl1bQ0gyXVtOSF1DMj1P

> <s_epik_cmdline>
J2VwaWtfcHl0aG9uJywgJy1waCcsICc3LjAnLCAnLXRuJywgJzgnLCAnLW1hJywgJzIwMCcsICctbWV0YWxfYmluZGluZycsICctaW1hZScsICc8aW5maWxlLm1hZT4nLCAnLW9tYWUnLCAnPG91dGZpbGUubWFlPic=

> <r_lp_tautomer_probability>
1

> <r_epik_Ionization_Penalty>
3.97471

> <r_epik_Ionization_Penalty_Charging>
3.84029

> <r_epik_Ionization_Penalty_Neutral>
0.134427

> <r_epik_State_Penalty>
3.83938

> <r_epik_Charging_Adjusted_Penalty>
7.67966

> <i_epik_Tot_Q>
-1

> <i_epik_Tot_abs_Q>
1

> <r_epik_Metal_State_Penalty>
0.577306

> <b_epik_Metal_Only>
1

> <s_lp_Force_Field>
OPLS_2005

> <r_lp_Energy>
8.91555

> <b_lp_Chiralities_Consistent>
1

> <s_lp_Variant>
AV-unprocessed.smi:1866-3

> <Gold.Version>
5.8.1

> <Gold.Id.Protein>
6NUR|6NUR_protein|mol2

> <Gold.PLP.Fitness>
36.9796

> <Gold.PLP.PLP>
-26.0248

> <Gold.PLP.part.hbond>
-4.7000

> <Gold.PLP.part.metal>
0.0000

> <Gold.PLP.part.buried>
-5.0587

> <Gold.PLP.part.nonpolar>
-16.8595

> <Gold.PLP.part.repulsive>
0.2073

> <Gold.PLP.ligand.clash>
0.0106

> <Gold.PLP.ligand.torsion>
0.2192

> <Gold.PLP.Chemscore.Hbond>
3.7840

> <Gold.PLP.Chemscore.CHOScore>
0.0000

> <Gold.PLP.Chemscore.Metal>
0.0000

> <Gold.Chemscore.Hbonds>
donor molecule, donor type, donor heavy atom, donor atom, acceptor molecule, acceptor atom, score
      L1  H    14    29       P1  7948  0.29
      P1  H  6896  6909       L1     8  0.86
      P1  H  6931  6943       L1     4  0.80
      P1  H  6934  6947       L1     4  0.25

> <Gold.PLP.Chemscore.Internal.Correction>
0.0518

> <Gold.Rescore>
     Score         DG    S(hbond)    S(metal)    S(lipo)     H(rot)  DE(clash)    DE(int)     intcor
     15.69     -17.74       2.77        0.00      47.71       1.00       0.08       1.97       ----

> <Gold.Chemscore.Fitness>
15.6869

> <Gold.Chemscore.DG>
-17.7404

> <Gold.Chemscore.ZeroCoef>
-5.4800

> <Gold.Chemscore.Hbond>
2.7660

> <Gold.Chemscore.Metal>
0.0000

> <Gold.Chemscore.Lipo>
47.7082

> <Gold.Chemscore.Internal_Hbond>
0.0000

> <Gold.Chemscore.DEClash>
0.0850

> <Gold.Chemscore.DEInternal>
1.9684

> <Gold.Chemscore.Rot>
1.0000

> <Gold.Chemscore.Internal.Correction>
   9.000000E+99

> <Gold.Chemscore.Hbonds>
donor molecule, donor type, donor heavy atom, donor atom, acceptor molecule, acceptor atom, score
      L1  H    14    29       P1  7948  0.07
      P1  H  6896  6909       L1     8  0.65
      P1  H  6931  6943       L1     4  0.64
      P1  H  6934  6947       L1     4  0.05

> <Gold.Chemscore.Hbond.Weighted>
-9.2385

> <Gold.Chemscore.Metal.Weighted>
-0.0000

> <Gold.Chemscore.Lipo.Weighted>
-5.5819

> <Gold.Chemscore.Internal_Hbond.Weighted>
0.0000

> <Gold.Chemscore.DEClash.Weighted>
0.0850

> <Gold.Chemscore.DEInternal.Weighted>
1.9684

> <Gold.Chemscore.Rot.Weighted>
2.5600

> <Gold.Chemscore.Internal.Correction.Weighted>
   9.000000E+99

> <Gold.Protein.RotatedTorsions>
[ 6907 6896 6895 6894 ] final   24.72 input  -60.11 | X-H torsion
[ 7974 7965 7964 7962 ] final -103.81 input  175.53 | X-H torsion
[ 8008 7997 7996 7995 ] final   -3.81 input   59.86 | X-H torsion
[ 10167 10162 10161 10158 ] final -105.44 input  -65.29 | X-H torsion
[ 10718 10713 10712 10709 ] final  162.39 input   66.30 | X-H torsion
[ 10763 10752 10751 10750 ] final  172.73 input  -60.55 | X-H torsion
[ 11005 11000 10999 10996 ] final   32.60 input  -57.11 | X-H torsion

> <Gold.Protein.ActiveResidues>
 VAL166  LYS551  ARG553  GLY616  TRP617  ASP618  TYR619  PRO620  LYS621  CYS622 
 ASP623  PHE694  ASN695  SER759  ASP760  ASP761  ALA762  ILE779  LEU786  VAL792 
 PHE793  MET794  SER795  GLU796  ALA797  LYS798  CYS799  TRP800  GLU811  SER814 

> <Gold.Protein.RotatedAtoms>
  151.9618  135.0120  160.0547 H   0  0  0  0  0  0  0  0  0  0  0  0  # atno 6907 bound_to 6896
  152.1862  133.4737  159.4992 H   0  0  0  0  0  0  0  0  0  0  0  0  # atno 6908 bound_to 6896
  150.6926  134.1688  159.4247 H   0  0  0  0  0  0  0  0  0  0  0  0  # atno 6909 bound_to 6896
  145.2511  140.9238  143.3095 H   0  0  0  0  0  0  0  0  0  0  0  0  # atno 7974 bound_to 7965
  154.6210  140.2500  155.7550 H   0  0  0  0  0  0  0  0  0  0  0  0  # atno 8008 bound_to 7997
  156.2426  140.2926  156.0437 H   0  0  0  0  0  0  0  0  0  0  0  0  # atno 8009 bound_to 7997
  155.1897  140.0391  157.2888 H   0  0  0  0  0  0  0  0  0  0  0  0  # atno 8010 bound_to 7997
  140.1985  143.3837  152.1149 H   0  0  0  0  0  0  0  0  0  0  0  0  # atno 10167 bound_to 10162
  157.1232  131.0497  151.2405 H   0  0  0  0  0  0  0  0  0  0  0  0  # atno 10718 bound_to 10713
  154.4301  135.2759  155.1918 H   0  0  0  0  0  0  0  0  0  0  0  0  # atno 10763 bound_to 10752
  154.3827  135.6084  153.5803 H   0  0  0  0  0  0  0  0  0  0  0  0  # atno 10764 bound_to 10752
  152.9836  135.5884  154.4611 H   0  0  0  0  0  0  0  0  0  0  0  0  # atno 10765 bound_to 10752
  140.2718  134.3073  155.7825 H   0  0  0  0  0  0  0  0  0  0  0  0  # atno 11005 bound_to 11000
  144.9502  139.4091  143.6406 LP  0  0  0  0  0  0  0  0  0  0  0  0  # atno 17320 bound_to 7965
  146.3302  139.8506  142.8874 LP  0  0  0  0  0  0  0  0  0  0  0  0  # atno 17321 bound_to 7965
  139.5227  144.7062  151.5347 LP  0  0  0  0  0  0  0  0  0  0  0  0  # atno 17342 bound_to 10162
  140.6407  143.8895  150.6689 LP  0  0  0  0  0  0  0  0  0  0  0  0  # atno 17343 bound_to 10162
  157.4458  130.7570  149.7108 LP  0  0  0  0  0  0  0  0  0  0  0  0  # atno 17370 bound_to 10713
  155.9824  130.4010  150.3419 LP  0  0  0  0  0  0  0  0  0  0  0  0  # atno 17371 bound_to 10713
  141.2176  133.7471  156.9346 LP  0  0  0  0  0  0  0  0  0  0  0  0  # atno 17394 bound_to 11000
  140.1366  134.9321  157.2410 LP  0  0  0  0  0  0  0  0  0  0  0  0  # atno 17395 bound_to 11000

$$$$
