AV-unprocessed.smi:502|AV-procd|sdf|2744|dock9
  -GOLD-   2262023203D 1   1.00000     0.00000
 Structure written by MMmdl.
 48 50  0  0  0  0  0  0  0  0  1 V2000
  147.2448  133.3904  152.1748 C   0  0  0  0  0  0  0  0  0  0  0  0
  148.2037  132.9032  153.2548 C   0  0  0  0  0  0  0  0  0  0  0  0
  148.1588  131.7357  153.6408 O   0  0  0  0  0  0  0  0  0  0  0  0
  149.0599  133.8130  153.7420 N   0  0  0  0  0  0  0  0  0  0  0  0
  150.0490  133.5568  154.7843 C   0  0  0  0  0  0  0  0  0  0  0  0
  149.7418  134.3065  156.0948 C   0  0  0  0  0  0  0  0  0  0  0  0
  150.2353  135.7255  156.1109 C   0  0  0  0  0  0  0  0  0  0  0  0
  151.1416  136.1530  155.2305 N   0  0  0  0  0  0  0  0  0  0  0  0
  151.3226  137.4729  155.5928 C   0  0  0  0  0  0  0  0  0  0  0  0
  152.1638  138.4684  155.0462 C   0  0  0  0  0  0  0  0  0  0  0  0
  152.1856  139.7663  155.5976 C   0  0  0  0  0  0  0  0  0  0  0  0
  151.3674  140.0870  156.7000 C   0  0  0  0  0  0  0  0  0  0  0  0
  150.5203  139.1103  157.2579 C   0  0  0  0  0  0  0  0  0  0  0  0
  150.5021  137.8160  156.7036 C   0  0  0  0  0  0  0  0  0  0  0  0
  149.8078  136.6492  157.0103 N   0  0  0  0  0  0  0  0  0  0  0  0
  148.8487  136.4899  158.0946 C   0  0  0  0  0  0  0  0  0  0  0  0
  149.4192  136.9618  159.4393 C   0  0  0  0  0  0  0  0  0  0  0  0
  148.3533  137.1034  160.3686 O   0  0  0  0  0  0  0  0  0  0  0  0
  147.7965  135.9669  160.9144 C   0  0  0  0  0  0  0  0  0  0  0  0
  147.9215  134.6762  160.3407 C   0  0  0  0  0  0  0  0  0  0  0  0
  147.3208  133.5603  160.9541 C   0  0  0  0  0  0  0  0  0  0  0  0
  146.5888  133.7185  162.1445 C   0  0  0  0  0  0  0  0  0  0  0  0
  146.4587  134.9944  162.7224 C   0  0  0  0  0  0  0  0  0  0  0  0
  147.0592  136.1157  162.1123 C   0  0  0  0  0  0  0  0  0  0  0  0
  146.9169  137.4849  162.7511 C   0  0  0  0  0  0  0  0  0  0  0  0
  147.7971  133.7026  151.2880 H   0  0  0  0  0  0  0  0  0  0  0  0
  146.6627  134.2381  152.5375 H   0  0  0  0  0  0  0  0  0  0  0  0
  146.5519  132.5993  151.8857 H   0  0  0  0  0  0  0  0  0  0  0  0
  149.0222  134.7507  153.3688 H   0  0  0  0  0  0  0  0  0  0  0  0
  150.1325  132.4855  154.9738 H   0  0  0  0  0  0  0  0  0  0  0  0
  151.0196  133.8739  154.4025 H   0  0  0  0  0  0  0  0  0  0  0  0
  148.6727  134.2727  156.2989 H   0  0  0  0  0  0  0  0  0  0  0  0
  150.2100  133.7777  156.9257 H   0  0  0  0  0  0  0  0  0  0  0  0
  152.7957  138.2320  154.2030 H   0  0  0  0  0  0  0  0  0  0  0  0
  152.8339  140.5190  155.1738 H   0  0  0  0  0  0  0  0  0  0  0  0
  151.3913  141.0826  157.1182 H   0  0  0  0  0  0  0  0  0  0  0  0
  149.8975  139.3516  158.1064 H   0  0  0  0  0  0  0  0  0  0  0  0
  147.9540  137.0636  157.8513 H   0  0  0  0  0  0  0  0  0  0  0  0
  148.5306  135.4508  158.1557 H   0  0  0  0  0  0  0  0  0  0  0  0
  150.1466  136.2351  159.8031 H   0  0  0  0  0  0  0  0  0  0  0  0
  149.9313  137.9161  159.3071 H   0  0  0  0  0  0  0  0  0  0  0  0
  148.4716  134.5157  159.4263 H   0  0  0  0  0  0  0  0  0  0  0  0
  147.4214  132.5815  160.5090 H   0  0  0  0  0  0  0  0  0  0  0  0
  146.1278  132.8619  162.6138 H   0  0  0  0  0  0  0  0  0  0  0  0
  145.8963  135.1083  163.6377 H   0  0  0  0  0  0  0  0  0  0  0  0
  146.3443  137.4366  163.6778 H   0  0  0  0  0  0  0  0  0  0  0  0
  146.4071  138.1687  162.0719 H   0  0  0  0  0  0  0  0  0  0  0  0
  147.8989  137.8995  162.9817 H   0  0  0  0  0  0  0  0  0  0  0  0
  1  2  1  0  0  0  0
  1 26  1  0  0  0  0
  1 27  1  0  0  0  0
  1 28  1  0  0  0  0
  2  3  2  0  0  0  0
  2  4  1  0  0  0  0
  4  5  1  0  0  0  0
  4 29  1  0  0  0  0
  5  6  1  0  0  0  0
  5 30  1  0  0  0  0
  5 31  1  0  0  0  0
  6  7  1  0  0  0  0
  6 32  1  0  0  0  0
  6 33  1  0  0  0  0
  7 15  1  0  0  0  0
  7  8  2  0  0  0  0
  8  9  1  0  0  0  0
  9 14  2  0  0  0  0
  9 10  1  0  0  0  0
 10 11  2  0  0  0  0
 10 34  1  0  0  0  0
 11 12  1  0  0  0  0
 11 35  1  0  0  0  0
 12 13  2  0  0  0  0
 12 36  1  0  0  0  0
 13 14  1  0  0  0  0
 13 37  1  0  0  0  0
 14 15  1  0  0  0  0
 15 16  1  0  0  0  0
 16 17  1  0  0  0  0
 16 38  1  0  0  0  0
 16 39  1  0  0  0  0
 17 18  1  0  0  0  0
 17 40  1  0  0  0  0
 17 41  1  0  0  0  0
 18 19  1  0  0  0  0
 19 24  1  0  0  0  0
 19 20  2  0  0  0  0
 20 21  1  0  0  0  0
 20 42  1  0  0  0  0
 21 22  2  0  0  0  0
 21 43  1  0  0  0  0
 22 23  1  0  0  0  0
 22 44  1  0  0  0  0
 23 24  2  0  0  0  0
 23 45  1  0  0  0  0
 24 25  1  0  0  0  0
 25 46  1  0  0  0  0
 25 47  1  0  0  0  0
 25 48  1  0  0  0  0
M  END
> <s_m_source_file>
AV-unprocessed.smi

> <i_m_source_file_index>
502

> <i_lp_mmshare_version>
43012

> <i_f3d_flags>
0

> <s_epik_input>
W0NIM11DKD1PKVtOSF1bQ0gyXVtDSDJdYyhuMSluKGMoYzEyKVtjSF1bY0hdW2NIXVtjSF0yKVtDSDJdW0NIMl1PYzNbY0hdW2NIXVtjSF1bY0hdYzNbQ0gzXQ==

> <s_epik_cmdline>
J2VwaWtfcHl0aG9uJywgJy1waCcsICc3LjAnLCAnLXRuJywgJzgnLCAnLW1hJywgJzIwMCcsICctbWV0YWxfYmluZGluZycsICctaW1hZScsICc8aW5maWxlLm1hZT4nLCAnLW9tYWUnLCAnPG91dGZpbGUubWFlPic=

> <r_lp_tautomer_probability>
1

> <r_epik_Ionization_Penalty>
0.0991824

> <r_epik_Ionization_Penalty_Charging>
0

> <r_epik_Ionization_Penalty_Neutral>
0.0991824

> <r_epik_State_Penalty>
0.0892428

> <r_epik_Charging_Adjusted_Penalty>
0.0892428

> <i_epik_Tot_Q>
0

> <i_epik_Tot_abs_Q>
0

> <r_epik_Metal_State_Penalty>
0.076345

> <b_epik_Metal_Only>
0

> <s_lp_Force_Field>
OPLS_2005

> <r_lp_Energy>
12.9543

> <b_lp_Chiralities_Consistent>
1

> <s_lp_Variant>
AV-unprocessed.smi:502-1

> <Gold.Version>
5.8.1

> <Gold.Id.Protein>
6NUR|6NUR_protein|mol2

> <Gold.PLP.Fitness>
53.4852

> <Gold.PLP.PLP>
-46.6147

> <Gold.PLP.part.hbond>
-3.5838

> <Gold.PLP.part.metal>
0.0000

> <Gold.PLP.part.buried>
-3.6165

> <Gold.PLP.part.nonpolar>
-39.0934

> <Gold.PLP.part.repulsive>
0.2116

> <Gold.PLP.ligand.clash>
0.0000

> <Gold.PLP.ligand.torsion>
0.8103

> <Gold.PLP.Chemscore.Hbond>
2.7969

> <Gold.PLP.Chemscore.CHOScore>
0.0000

> <Gold.PLP.Chemscore.Metal>
0.0000

> <Gold.Chemscore.Hbonds>
donor molecule, donor type, donor heavy atom, donor atom, acceptor molecule, acceptor atom, score
      L1  H     4    29       P1  7948  0.76
      P1  H  6931  6943       L1    18  0.74
      P1  H  6934  6947       L1    18  0.19
      P1  H 10752 10764       L1     8  1.00

> <Gold.PLP.Chemscore.Internal.Correction>
0.1005

> <Gold.Rescore>
     Score         DG    S(hbond)    S(metal)    S(lipo)     H(rot)  DE(clash)    DE(int)     intcor
     17.49     -18.93       1.73        0.00     111.82       2.11       0.12       1.33       ----

> <Gold.Chemscore.Fitness>
17.4864

> <Gold.Chemscore.DG>
-18.9347

> <Gold.Chemscore.ZeroCoef>
-5.4800

> <Gold.Chemscore.Hbond>
1.7271

> <Gold.Chemscore.Metal>
0.0000

> <Gold.Chemscore.Lipo>
111.8157

> <Gold.Chemscore.Internal_Hbond>
0.0000

> <Gold.Chemscore.DEClash>
0.1207

> <Gold.Chemscore.DEInternal>
1.3276

> <Gold.Chemscore.Rot>
2.1078

> <Gold.Chemscore.Internal.Correction>
   9.000000E+99

> <Gold.Chemscore.Hbonds>
donor molecule, donor type, donor heavy atom, donor atom, acceptor molecule, acceptor atom, score
      L1  H     4    29       P1  7948  0.13
      P1  H  6931  6943       L1    18  0.27
      P1  H  6934  6947       L1    18  0.16
      P1  H 10752 10764       L1     8  0.43

> <Gold.Chemscore.Hbond.Weighted>
-5.7684

> <Gold.Chemscore.Metal.Weighted>
-0.0000

> <Gold.Chemscore.Lipo.Weighted>
-13.0824

> <Gold.Chemscore.Internal_Hbond.Weighted>
0.0000

> <Gold.Chemscore.DEClash.Weighted>
0.1207

> <Gold.Chemscore.DEInternal.Weighted>
1.3276

> <Gold.Chemscore.Rot.Weighted>
5.3961

> <Gold.Chemscore.Internal.Correction.Weighted>
   9.000000E+99

> <Gold.Protein.RotatedTorsions>
[ 6907 6896 6895 6894 ] final  141.85 input  -60.11 | X-H torsion
[ 7974 7965 7964 7962 ] final  151.83 input  175.53 | X-H torsion
[ 8008 7997 7996 7995 ] final   69.00 input   59.86 | X-H torsion
[ 10167 10162 10161 10158 ] final   -1.19 input  -65.29 | X-H torsion
[ 10718 10713 10712 10709 ] final  -43.76 input   66.30 | X-H torsion
[ 10763 10752 10751 10750 ] final  -64.11 input  -60.55 | X-H torsion
[ 11005 11000 10999 10996 ] final   98.87 input  -57.11 | X-H torsion

> <Gold.Protein.ActiveResidues>
 VAL166  LYS551  ARG553  GLY616  TRP617  ASP618  TYR619  PRO620  LYS621  CYS622 
 ASP623  PHE694  ASN695  SER759  ASP760  ASP761  ALA762  ILE779  LEU786  VAL792 
 PHE793  MET794  SER795  GLU796  ALA797  LYS798  CYS799  TRP800  GLU811  SER814 

> <Gold.Protein.RotatedAtoms>
  152.2259  133.5020  159.5188 H   0  0  0  0  0  0  0  0  0  0  0  0  # atno 6907 bound_to 6896
  150.7025  134.1280  159.4068 H   0  0  0  0  0  0  0  0  0  0  0  0  # atno 6908 bound_to 6896
  151.9201  135.0302  160.0572 H   0  0  0  0  0  0  0  0  0  0  0  0  # atno 6909 bound_to 6896
  144.8264  139.6589  143.6078 H   0  0  0  0  0  0  0  0  0  0  0  0  # atno 7974 bound_to 7965
  155.7169  140.3494  155.4998 H   0  0  0  0  0  0  0  0  0  0  0  0  # atno 8008 bound_to 7997
  155.9305  140.1083  157.1157 H   0  0  0  0  0  0  0  0  0  0  0  0  # atno 8009 bound_to 7997
  154.4084  140.1232  156.4783 H   0  0  0  0  0  0  0  0  0  0  0  0  # atno 8010 bound_to 7997
  140.6800  143.6804  150.8110 H   0  0  0  0  0  0  0  0  0  0  0  0  # atno 10167 bound_to 10162
  156.2457  130.4183  149.8708 H   0  0  0  0  0  0  0  0  0  0  0  0  # atno 10718 bound_to 10713
  154.3251  135.6188  153.5525 H   0  0  0  0  0  0  0  0  0  0  0  0  # atno 10763 bound_to 10752
  152.9816  135.5733  154.5025 H   0  0  0  0  0  0  0  0  0  0  0  0  # atno 10764 bound_to 10752
  154.4701  135.2859  155.1626 H   0  0  0  0  0  0  0  0  0  0  0  0  # atno 10765 bound_to 10752
  139.8771  134.9069  156.4521 H   0  0  0  0  0  0  0  0  0  0  0  0  # atno 11005 bound_to 11000
  146.2569  139.6323  142.9388 LP  0  0  0  0  0  0  0  0  0  0  0  0  # atno 17320 bound_to 7965
  145.4990  141.0438  143.2551 LP  0  0  0  0  0  0  0  0  0  0  0  0  # atno 17321 bound_to 7965
  140.0503  143.5256  152.2677 LP  0  0  0  0  0  0  0  0  0  0  0  0  # atno 17342 bound_to 10162
  139.6116  144.7610  151.2940 LP  0  0  0  0  0  0  0  0  0  0  0  0  # atno 17343 bound_to 10162
  156.6275  130.8652  151.3488 LP  0  0  0  0  0  0  0  0  0  0  0  0  # atno 17370 bound_to 10713
  157.7194  130.9538  150.1378 LP  0  0  0  0  0  0  0  0  0  0  0  0  # atno 17371 bound_to 10713
  140.8924  133.7838  155.9587 LP  0  0  0  0  0  0  0  0  0  0  0  0  # atno 17394 bound_to 11000
  140.8739  134.2693  157.5177 LP  0  0  0  0  0  0  0  0  0  0  0  0  # atno 17395 bound_to 11000

$$$$
