AV-unprocessed.smi:701|AV-procd|sdf|3411|dock3
  -GOLD-   22720 0393D 1   1.00000     0.00000
 Structure written by MMmdl.
 49 51  0  0  0  0  0  0  0  0  1 V2000
  153.8567  138.8753  154.4183 C   0  0  0  0  0  0  0  0  0  0  0  0
  152.4773  138.3830  154.8612 C   0  0  0  0  0  0  0  0  0  0  0  0
  151.4987  139.3114  154.4251 O   0  0  0  0  0  0  0  0  0  0  0  0
  150.2481  138.7028  154.1440 C   0  0  1  0  0  0  0  0  0  0  0  0
  149.7386  137.7568  155.2353 C   0  0  0  0  0  0  0  0  0  0  0  0
  148.3495  138.3645  155.0155 C   0  0  2  0  0  0  0  0  0  0  0  0
  147.5897  137.5843  154.0375 N   0  0  0  0  0  0  0  0  0  0  0  0
  146.2529  137.5620  153.9386 C   0  0  0  0  0  0  0  0  0  0  0  0
  145.5086  138.2135  154.6721 O   0  0  0  0  0  0  0  0  0  0  0  0
  145.6715  136.6939  152.8151 C   0  0  0  0  0  0  0  0  0  0  0  0
  144.3198  136.2066  153.1226 N   0  0  0  0  0  0  0  0  0  0  0  0
  143.2075  136.9718  152.8024 C   0  0  0  0  0  0  0  0  0  0  0  0
  141.9364  136.5845  153.0633 C   0  0  0  0  0  0  0  0  0  0  0  0
  141.6725  135.3050  153.7129 C   0  0  0  0  0  0  0  0  0  0  0  0
  140.5582  134.8654  153.9871 O   0  0  0  0  0  0  0  0  0  0  0  0
  142.8174  134.5665  154.0230 N   0  0  0  0  0  0  0  0  0  0  0  0
  144.1300  134.9611  153.7599 C   0  0  0  0  0  0  0  0  0  0  0  0
  145.0703  134.2348  154.0800 O   0  0  0  0  0  0  0  0  0  0  0  0
  149.0362  139.6273  154.4158 C   0  0  0  0  0  0  0  0  0  0  0  0
  149.2819  140.7622  155.4339 C   0  0  0  0  0  0  0  0  0  0  0  0
  147.9996  141.5351  155.7901 C   0  0  0  0  0  0  0  0  0  0  0  0
  147.3337  142.1184  154.5372 C   0  0  0  0  0  0  0  0  0  0  0  0
  147.1079  141.0360  153.4744 C   0  0  0  0  0  0  0  0  0  0  0  0
  148.4132  140.2829  153.1664 C   0  0  0  0  0  0  0  0  0  0  0  0
  142.6836  133.6745  154.4769 H   0  0  0  0  0  0  0  0  0  0  0  0
  154.6388  138.1886  154.7427 H   0  0  0  0  0  0  0  0  0  0  0  0
  154.0755  139.8561  154.8411 H   0  0  0  0  0  0  0  0  0  0  0  0
  153.9121  138.9573  153.3326 H   0  0  0  0  0  0  0  0  0  0  0  0
  152.2779  137.3988  154.4349 H   0  0  0  0  0  0  0  0  0  0  0  0
  152.4504  138.2844  155.9472 H   0  0  0  0  0  0  0  0  0  0  0  0
  150.2072  138.2543  153.1490 H   0  0  0  0  0  0  0  0  0  0  0  0
  149.8296  136.6961  154.9981 H   0  0  0  0  0  0  0  0  0  0  0  0
  150.1477  137.9818  156.2213 H   0  0  0  0  0  0  0  0  0  0  0  0
  147.8255  138.5493  155.9544 H   0  0  0  0  0  0  0  0  0  0  0  0
  148.1222  137.0226  153.3893 H   0  0  0  0  0  0  0  0  0  0  0  0
  145.6608  137.2906  151.9017 H   0  0  0  0  0  0  0  0  0  0  0  0
  146.3357  135.8537  152.6011 H   0  0  0  0  0  0  0  0  0  0  0  0
  143.3557  137.9293  152.3239 H   0  0  0  0  0  0  0  0  0  0  0  0
  141.1104  137.2253  152.7902 H   0  0  0  0  0  0  0  0  0  0  0  0
  149.7185  140.3687  156.3523 H   0  0  0  0  0  0  0  0  0  0  0  0
  150.0183  141.4639  155.0401 H   0  0  0  0  0  0  0  0  0  0  0  0
  147.2989  140.8732  156.3001 H   0  0  0  0  0  0  0  0  0  0  0  0
  148.2316  142.3362  156.4923 H   0  0  0  0  0  0  0  0  0  0  0  0
  146.3868  142.5907  154.7999 H   0  0  0  0  0  0  0  0  0  0  0  0
  147.9674  142.9041  154.1239 H   0  0  0  0  0  0  0  0  0  0  0  0
  146.3495  140.3346  153.8228 H   0  0  0  0  0  0  0  0  0  0  0  0
  146.7141  141.4875  152.5635 H   0  0  0  0  0  0  0  0  0  0  0  0
  149.1266  140.9801  152.7247 H   0  0  0  0  0  0  0  0  0  0  0  0
  148.2241  139.5432  152.3884 H   0  0  0  0  0  0  0  0  0  0  0  0
  1  2  1  0  0  0  0
  1 26  1  0  0  0  0
  1 27  1  0  0  0  0
  1 28  1  0  0  0  0
  2  3  1  0  0  0  0
  2 29  1  0  0  0  0
  2 30  1  0  0  0  0
  3  4  1  0  0  0  0
  4 19  1  0  0  0  0
  4  5  1  0  0  0  0
  4 31  1  0  0  0  0
  5  6  1  0  0  0  0
  5 32  1  0  0  0  0
  5 33  1  0  0  0  0
  6  7  1  0  0  0  0
  6 19  1  0  0  0  0
  6 34  1  0  0  0  0
  7  8  1  0  0  0  0
  7 35  1  0  0  0  0
  8  9  2  0  0  0  0
  8 10  1  0  0  0  0
 10 11  1  0  0  0  0
 10 36  1  0  0  0  0
 10 37  1  0  0  0  0
 11 17  1  0  0  0  0
 11 12  1  0  0  0  0
 12 13  2  0  0  0  0
 12 38  1  0  0  0  0
 13 14  1  0  0  0  0
 13 39  1  0  0  0  0
 14 15  2  0  0  0  0
 14 16  1  0  0  0  0
 16 25  1  0  0  0  0
 16 17  1  0  0  0  0
 17 18  2  0  0  0  0
 19 24  1  0  0  0  0
 19 20  1  0  0  0  0
 20 21  1  0  0  0  0
 20 40  1  0  0  0  0
 20 41  1  0  0  0  0
 21 22  1  0  0  0  0
 21 42  1  0  0  0  0
 21 43  1  0  0  0  0
 22 23  1  0  0  0  0
 22 44  1  0  0  0  0
 22 45  1  0  0  0  0
 23 24  1  0  0  0  0
 23 46  1  0  0  0  0
 23 47  1  0  0  0  0
 24 48  1  0  0  0  0
 24 49  1  0  0  0  0
M  END
> <s_m_source_file>
AV-unprocessed.smi

> <i_m_source_file_index>
701

> <i_lp_mmshare_version>
43012

> <i_f3d_flags>
0

> <s_epik_input>
W0NIMl0xW0NIMl1bQ0gyXVtDSDJdW0NIMl1DMTJbQ0BIXShPW0NIMl1bQ0gzXSlbQ0gyXVtDQEhdMltOSF1DKD1PKVtDSDJdbjNbY0hdW2NIXWMoPU8pW25IXWMzPU8=

> <s_epik_cmdline>
J2VwaWtfcHl0aG9uJywgJy1waCcsICc3LjAnLCAnLXRuJywgJzgnLCAnLW1hJywgJzIwMCcsICctbWV0YWxfYmluZGluZycsICctaW1hZScsICc8aW5maWxlLm1hZT4nLCAnLW9tYWUnLCAnPG91dGZpbGUubWFlPic=

> <r_lp_tautomer_probability>
0.999537

> <r_epik_Ionization_Penalty>
0.00304597

> <r_epik_Ionization_Penalty_Charging>
0.00304595

> <r_epik_Ionization_Penalty_Neutral>
1.88422e-08

> <r_epik_State_Penalty>
0.00214084

> <r_epik_Charging_Adjusted_Penalty>
0.00518679

> <i_epik_Tot_Q>
0

> <i_epik_Tot_abs_Q>
0

> <r_epik_Metal_State_Penalty>
0.361872

> <b_epik_Metal_Only>
0

> <s_lp_Force_Field>
OPLS_2005

> <r_lp_Energy>
29.1408

> <b_lp_Chiralities_Consistent>
1

> <s_lp_Variant>
AV-unprocessed.smi:701-4

> <Gold.Version>
5.8.1

> <Gold.Id.Protein>
6NUR|6NUR_protein|mol2

> <Gold.PLP.Fitness>
48.6862

> <Gold.PLP.PLP>
-33.1699

> <Gold.PLP.part.hbond>
-5.0000

> <Gold.PLP.part.metal>
0.0000

> <Gold.PLP.part.buried>
1.3021

> <Gold.PLP.part.nonpolar>
-29.7778

> <Gold.PLP.part.repulsive>
0.5108

> <Gold.PLP.ligand.clash>
0.0000

> <Gold.PLP.ligand.torsion>
1.4250

> <Gold.PLP.Chemscore.Hbond>
4.0000

> <Gold.PLP.Chemscore.CHOScore>
2.0000

> <Gold.PLP.Chemscore.Metal>
0.0000

> <Gold.Chemscore.Hbonds>
donor molecule, donor type, donor heavy atom, donor atom, acceptor molecule, acceptor atom, score
      L1  H     7    35       P1  7948  1.00
      L1  H    16    25       P1 10957  1.00
      P1  H  7989  7998       L1     3  1.00
      P1  H 11000 11005       L1    15  1.00
      L1  C    12    38       P1 10171  0.75
      L1  C    12    38       P1 10175  1.00

> <Gold.PLP.Chemscore.Internal.Correction>
0.3662

> <Gold.Rescore>
     Score         DG    S(hbond)    S(metal)    S(lipo)     H(rot)  DE(clash)    DE(int)     intcor
     17.85     -21.82       3.75        0.00      78.47       2.09       2.60       1.36       ----

> <Gold.Chemscore.Fitness>
17.8548

> <Gold.Chemscore.DG>
-21.8214

> <Gold.Chemscore.ZeroCoef>
-5.4800

> <Gold.Chemscore.Hbond>
3.7484

> <Gold.Chemscore.Metal>
0.0000

> <Gold.Chemscore.Lipo>
78.4661

> <Gold.Chemscore.Internal_Hbond>
0.0000

> <Gold.Chemscore.DEClash>
2.6018

> <Gold.Chemscore.DEInternal>
1.3648

> <Gold.Chemscore.Rot>
2.0933

> <Gold.Chemscore.Internal.Correction>
   9.000000E+99

> <Gold.Chemscore.Hbonds>
donor molecule, donor type, donor heavy atom, donor atom, acceptor molecule, acceptor atom, score
      L1  H     7    35       P1  7948  1.00
      L1  H    16    25       P1 10957  0.99
      P1  H  7989  7998       L1     3  0.74
      P1  H 11000 11005       L1    15  0.94

> <Gold.Chemscore.Hbond.Weighted>
-12.5196

> <Gold.Chemscore.Metal.Weighted>
-0.0000

> <Gold.Chemscore.Lipo.Weighted>
-9.1805

> <Gold.Chemscore.Internal_Hbond.Weighted>
0.0000

> <Gold.Chemscore.DEClash.Weighted>
2.6018

> <Gold.Chemscore.DEInternal.Weighted>
1.3648

> <Gold.Chemscore.Rot.Weighted>
5.3588

> <Gold.Chemscore.Internal.Correction.Weighted>
   9.000000E+99

> <Gold.Protein.RotatedTorsions>
[ 6907 6896 6895 6894 ] final  -87.84 input  -60.11 | X-H torsion
[ 7974 7965 7964 7962 ] final -160.31 input  175.53 | X-H torsion
[ 8008 7997 7996 7995 ] final  126.13 input   59.86 | X-H torsion
[ 10167 10162 10161 10158 ] final  -39.10 input  -65.29 | X-H torsion
[ 10718 10713 10712 10709 ] final    6.06 input   66.30 | X-H torsion
[ 10763 10752 10751 10750 ] final   40.68 input  -60.55 | X-H torsion
[ 11005 11000 10999 10996 ] final   35.05 input  -57.11 | X-H torsion

> <Gold.Protein.ActiveResidues>
 VAL166  LYS551  ARG553  GLY616  TRP617  ASP618  TYR619  PRO620  LYS621  CYS622 
 ASP623  PHE694  ASN695  SER759  ASP760  ASP761  ALA762  ILE779  LEU786  VAL792 
 PHE793  MET794  SER795  GLU796  ALA797  LYS798  CYS799  TRP800  GLU811  SER814 

> <Gold.Protein.RotatedAtoms>
  150.6867  134.2835  159.4636 H   0  0  0  0  0  0  0  0  0  0  0  0  # atno 6907 bound_to 6896
  152.0746  134.9508  160.0583 H   0  0  0  0  0  0  0  0  0  0  0  0  # atno 6908 bound_to 6896
  152.0885  133.4153  159.4570 H   0  0  0  0  0  0  0  0  0  0  0  0  # atno 6909 bound_to 6896
  144.7432  140.3560  143.6106 H   0  0  0  0  0  0  0  0  0  0  0  0  # atno 7974 bound_to 7965
  156.2855  140.2700  156.2061 H   0  0  0  0  0  0  0  0  0  0  0  0  # atno 8008 bound_to 7997
  155.0312  140.0386  157.2493 H   0  0  0  0  0  0  0  0  0  0  0  0  # atno 8009 bound_to 7997
  154.7353  140.2714  155.6425 H   0  0  0  0  0  0  0  0  0  0  0  0  # atno 8010 bound_to 7997
  140.7073  143.3235  151.2735 H   0  0  0  0  0  0  0  0  0  0  0  0  # atno 10167 bound_to 10162
  156.9165  130.5775  149.5647 H   0  0  0  0  0  0  0  0  0  0  0  0  # atno 10718 bound_to 10713
  152.9929  135.6184  154.2664 H   0  0  0  0  0  0  0  0  0  0  0  0  # atno 10763 bound_to 10752
  154.2399  135.2789  155.2859 H   0  0  0  0  0  0  0  0  0  0  0  0  # atno 10764 bound_to 10752
  154.5378  135.5769  153.6871 H   0  0  0  0  0  0  0  0  0  0  0  0  # atno 10765 bound_to 10752
  140.2466  134.3352  155.7905 H   0  0  0  0  0  0  0  0  0  0  0  0  # atno 11005 bound_to 11000
  145.7227  139.1714  143.2475 LP  0  0  0  0  0  0  0  0  0  0  0  0  # atno 17320 bound_to 7965
  146.1265  140.7241  142.9432 LP  0  0  0  0  0  0  0  0  0  0  0  0  # atno 17321 bound_to 7965
  139.6696  144.0043  152.2745 LP  0  0  0  0  0  0  0  0  0  0  0  0  # atno 17342 bound_to 10162
  139.9637  144.6540  150.8055 LP  0  0  0  0  0  0  0  0  0  0  0  0  # atno 17343 bound_to 10162
  156.0511  130.5580  150.8991 LP  0  0  0  0  0  0  0  0  0  0  0  0  # atno 17370 bound_to 10713
  157.5934  131.0944  150.9080 LP  0  0  0  0  0  0  0  0  0  0  0  0  # atno 17371 bound_to 10713
  141.2205  133.7329  156.8971 LP  0  0  0  0  0  0  0  0  0  0  0  0  # atno 17394 bound_to 11000
  140.1599  134.9172  157.2702 LP  0  0  0  0  0  0  0  0  0  0  0  0  # atno 17395 bound_to 11000

$$$$
