AV-unprocessed.smi:1593|AV-procd|sdf|6413|dock10
  -GOLD-   22720 7 53D 1   1.00000     0.00000
 Structure written by MMmdl.
 36 37  0  0  0  0  0  0  0  0  3 V2000
  152.1484  142.5371  159.9521 C   0  0  0  0  0  0  0  0  0  0  0  0
  152.3194  141.3662  159.0464 C   0  0  0  0  0  0  0  0  0  0  0  0
  151.6039  140.9034  157.9783 C   0  0  0  0  0  0  0  0  0  0  0  0
  152.3282  139.7472  157.5828 C   0  0  0  0  0  0  0  0  0  0  0  0
  151.9012  138.9701  156.4737 N   0  0  0  0  0  0  0  0  0  0  0  0
  151.1943  139.3569  155.3960 C   0  0  0  0  0  0  0  0  0  0  0  0
  150.8714  140.5425  155.2540 O   0  0  0  0  0  0  0  0  0  0  0  0
  150.9214  138.3176  154.5598 N   0  5  0  0  0  0  0  0  0  0  0  0
  150.7251  136.9355  154.9912 C   0  0  0  0  0  0  0  0  0  0  0  0
  149.2247  136.6701  155.2195 C   0  0  0  0  0  0  0  0  0  0  0  0
  148.7470  135.4863  154.4565 N   0  3  0  0  0  0  0  0  0  0  0  0
  149.5971  134.2870  154.6534 C   0  0  0  0  0  0  0  0  0  0  0  0
  149.1013  133.1290  153.7705 C   0  0  0  0  0  0  0  0  0  0  0  0
  147.7389  132.8486  154.0673 O   0  0  0  0  0  0  0  0  0  0  0  0
  146.8961  133.9647  153.8084 C   0  0  0  0  0  0  0  0  0  0  0  0
  147.3192  135.1465  154.6961 C   0  0  0  0  0  0  0  0  0  0  0  0
  153.3900  139.5249  158.3433 N   0  0  0  0  0  0  0  0  0  0  0  0
  153.3897  140.5608  159.2847 O   0  0  0  0  0  0  0  0  0  0  0  0
  151.2699  143.1199  159.6743 H   0  0  0  0  0  0  0  0  0  0  0  0
  153.0181  143.1925  159.9038 H   0  0  0  0  0  0  0  0  0  0  0  0
  152.0257  142.2117  160.9851 H   0  0  0  0  0  0  0  0  0  0  0  0
  150.7077  141.3262  157.5495 H   0  0  0  0  0  0  0  0  0  0  0  0
  152.1473  137.9921  156.5066 H   0  0  0  0  0  0  0  0  0  0  0  0
  151.0985  136.2192  154.2581 H   0  0  0  0  0  0  0  0  0  0  0  0
  151.2656  136.7245  155.9147 H   0  0  0  0  0  0  0  0  0  0  0  0
  149.0718  136.5024  156.2871 H   0  0  0  0  0  0  0  0  0  0  0  0
  148.6270  137.5468  154.9637 H   0  0  0  0  0  0  0  0  0  0  0  0
  150.6321  134.5195  154.4003 H   0  0  0  0  0  0  0  0  0  0  0  0
  149.5796  133.9938  155.7044 H   0  0  0  0  0  0  0  0  0  0  0  0
  149.2134  133.3712  152.7123 H   0  0  0  0  0  0  0  0  0  0  0  0
  149.6948  132.2339  153.9568 H   0  0  0  0  0  0  0  0  0  0  0  0
  146.9416  134.2344  152.7519 H   0  0  0  0  0  0  0  0  0  0  0  0
  145.8642  133.6853  154.0218 H   0  0  0  0  0  0  0  0  0  0  0  0
  147.1743  134.8926  155.7473 H   0  0  0  0  0  0  0  0  0  0  0  0
  146.6819  136.0059  154.4856 H   0  0  0  0  0  0  0  0  0  0  0  0
  148.8332  135.7345  153.4811 H   0  0  0  0  0  0  0  0  0  0  0  0
  1  2  1  0  0  0  0
  1 19  1  0  0  0  0
  1 20  1  0  0  0  0
  1 21  1  0  0  0  0
  2 18  1  0  0  0  0
  2  3  2  0  0  0  0
  3  4  1  0  0  0  0
  3 22  1  0  0  0  0
  4  5  1  0  0  0  0
  4 17  2  0  0  0  0
  5  6  1  0  0  0  0
  5 23  1  0  0  0  0
  6  7  2  0  0  0  0
  6  8  1  0  0  0  0
  8  9  1  0  0  0  0
  9 10  1  0  0  0  0
  9 24  1  0  0  0  0
  9 25  1  0  0  0  0
 10 11  1  0  0  0  0
 10 26  1  0  0  0  0
 10 27  1  0  0  0  0
 11 16  1  0  0  0  0
 11 12  1  0  0  0  0
 11 36  1  0  0  0  0
 12 13  1  0  0  0  0
 12 28  1  0  0  0  0
 12 29  1  0  0  0  0
 13 14  1  0  0  0  0
 13 30  1  0  0  0  0
 13 31  1  0  0  0  0
 14 15  1  0  0  0  0
 15 16  1  0  0  0  0
 15 32  1  0  0  0  0
 15 33  1  0  0  0  0
 16 34  1  0  0  0  0
 16 35  1  0  0  0  0
 17 18  1  0  0  0  0
M  CHG  1   8  -1
M  CHG  1  11   1
M  END
> <s_m_source_file>
AV-unprocessed.smi

> <i_m_source_file_index>
1593

> <i_lp_mmshare_version>
43012

> <i_f3d_flags>
0

> <s_epik_input>
W0NIM11jMVtjSF1jKG5vMSlbTkhdQyg9TylbTkhdW0NIMl1bQ0gyXU4yW0NIMl1bQ0gyXU9bQ0gyXVtDSDJdMg==

> <s_epik_cmdline>
J2VwaWtfcHl0aG9uJywgJy1waCcsICc3LjAnLCAnLXRuJywgJzgnLCAnLW1hJywgJzIwMCcsICctbWV0YWxfYmluZGluZycsICctaW1hZScsICc8aW5maWxlLm1hZT4nLCAnLW9tYWUnLCAnPG91dGZpbGUubWFlPic=

> <r_epik_Ionization_Penalty>
6.79272

> <r_epik_Ionization_Penalty_Charging>
6.79272

> <r_epik_Ionization_Penalty_Neutral>
5.6208e-06

> <r_epik_State_Penalty>
7.45901

> <r_epik_Charging_Adjusted_Penalty>
14.2517

> <i_epik_Tot_Q>
0

> <i_epik_Tot_abs_Q>
2

> <r_epik_Metal_State_Penalty>
3.38639

> <b_epik_Metal_Only>
1

> <s_lp_Force_Field>
OPLS_2005

> <r_lp_Energy>
12.9182

> <b_lp_Chiralities_Consistent>
1

> <s_lp_Variant>
AV-unprocessed.smi:1593-5

> <Gold.Version>
5.8.1

> <Gold.Id.Protein>
6NUR|6NUR_protein|mol2

> <Gold.PLP.Fitness>
36.2412

> <Gold.PLP.PLP>
-26.0886

> <Gold.PLP.part.hbond>
-3.0790

> <Gold.PLP.part.metal>
0.0000

> <Gold.PLP.part.buried>
-4.0163

> <Gold.PLP.part.nonpolar>
-19.6230

> <Gold.PLP.part.repulsive>
0.3991

> <Gold.PLP.ligand.clash>
0.0000

> <Gold.PLP.ligand.torsion>
0.9308

> <Gold.PLP.Chemscore.Hbond>
3.9920

> <Gold.PLP.Chemscore.CHOScore>
0.0000

> <Gold.PLP.Chemscore.Metal>
0.0000

> <Gold.Chemscore.Hbonds>
donor molecule, donor type, donor heavy atom, donor atom, acceptor molecule, acceptor atom, score
      L1  H    11    36       P1  7948  2.00
      P1  H  7989  7998       L1     7  0.96
      P1  H  7997  8009       L1    17  1.00

> <Gold.PLP.Chemscore.Internal.Correction>
0.0382

> <Gold.Rescore>
     Score         DG    S(hbond)    S(metal)    S(lipo)     H(rot)  DE(clash)    DE(int)     intcor
     12.67     -15.13       2.40        0.00      49.39       1.62       0.12       2.34       ----

> <Gold.Chemscore.Fitness>
12.6734

> <Gold.Chemscore.DG>
-15.1271

> <Gold.Chemscore.ZeroCoef>
-5.4800

> <Gold.Chemscore.Hbond>
2.4020

> <Gold.Chemscore.Metal>
0.0000

> <Gold.Chemscore.Lipo>
49.3893

> <Gold.Chemscore.Internal_Hbond>
0.0000

> <Gold.Chemscore.DEClash>
0.1185

> <Gold.Chemscore.DEInternal>
2.3353

> <Gold.Chemscore.Rot>
1.6228

> <Gold.Chemscore.Internal.Correction>
   9.000000E+99

> <Gold.Chemscore.Hbonds>
donor molecule, donor type, donor heavy atom, donor atom, acceptor molecule, acceptor atom, score
      L1  H    11    36       P1  7948  0.96
      P1  H  7989  7998       L1     7  0.23
      P1  H  7997  8009       L1    17  0.13

> <Gold.Chemscore.Hbond.Weighted>
-8.0228

> <Gold.Chemscore.Metal.Weighted>
-0.0000

> <Gold.Chemscore.Lipo.Weighted>
-5.7785

> <Gold.Chemscore.Internal_Hbond.Weighted>
0.0000

> <Gold.Chemscore.DEClash.Weighted>
0.1185

> <Gold.Chemscore.DEInternal.Weighted>
2.3353

> <Gold.Chemscore.Rot.Weighted>
4.1542

> <Gold.Chemscore.Internal.Correction.Weighted>
   9.000000E+99

> <Gold.Protein.RotatedTorsions>
[ 6907 6896 6895 6894 ] final   85.34 input  -60.11 | X-H torsion
[ 7974 7965 7964 7962 ] final   -2.87 input  175.53 | X-H torsion
[ 8008 7997 7996 7995 ] final  132.91 input   59.86 | X-H torsion
[ 10167 10162 10161 10158 ] final  -61.68 input  -65.29 | X-H torsion
[ 10718 10713 10712 10709 ] final  154.95 input   66.30 | X-H torsion
[ 10763 10752 10751 10750 ] final  -60.35 input  -60.55 | X-H torsion
[ 11005 11000 10999 10996 ] final -103.13 input  -57.11 | X-H torsion

> <Gold.Protein.ActiveResidues>
 VAL166  LYS551  ARG553  GLY616  TRP617  ASP618  TYR619  PRO620  LYS621  CYS622 
 ASP623  PHE694  ASN695  SER759  ASP760  ASP761  ALA762  ILE779  LEU786  VAL792 
 PHE793  MET794  SER795  GLU796  ALA797  LYS798  CYS799  TRP800  GLU811  SER814 

> <Gold.Protein.RotatedAtoms>
  152.5372  134.2601  159.8931 H   0  0  0  0  0  0  0  0  0  0  0  0  # atno 6907 bound_to 6896
  151.2561  133.4319  159.2621 H   0  0  0  0  0  0  0  0  0  0  0  0  # atno 6908 bound_to 6896
  151.0495  134.9677  159.8260 H   0  0  0  0  0  0  0  0  0  0  0  0  # atno 6909 bound_to 6896
  146.2398  140.1636  142.8332 H   0  0  0  0  0  0  0  0  0  0  0  0  # atno 7974 bound_to 7965
  156.2987  140.2534  156.3167 H   0  0  0  0  0  0  0  0  0  0  0  0  # atno 8008 bound_to 7997
  154.9274  140.0399  157.2049 H   0  0  0  0  0  0  0  0  0  0  0  0  # atno 8009 bound_to 7997
  154.8251  140.2866  155.5764 H   0  0  0  0  0  0  0  0  0  0  0  0  # atno 8010 bound_to 7997
  140.5990  143.2357  151.5972 H   0  0  0  0  0  0  0  0  0  0  0  0  # atno 10167 bound_to 10162
  157.2248  131.0726  151.1890 H   0  0  0  0  0  0  0  0  0  0  0  0  # atno 10718 bound_to 10713
  154.2678  135.6296  153.5298 H   0  0  0  0  0  0  0  0  0  0  0  0  # atno 10763 bound_to 10752
  152.9885  135.5603  154.5634 H   0  0  0  0  0  0  0  0  0  0  0  0  # atno 10764 bound_to 10752
  154.5197  135.2881  155.1248 H   0  0  0  0  0  0  0  0  0  0  0  0  # atno 10765 bound_to 10752
  141.1159  133.8615  157.1447 H   0  0  0  0  0  0  0  0  0  0  0  0  # atno 11005 bound_to 11000
  145.0069  140.8680  143.5248 LP  0  0  0  0  0  0  0  0  0  0  0  0  # atno 17320 bound_to 7965
  145.1664  139.2429  143.5365 LP  0  0  0  0  0  0  0  0  0  0  0  0  # atno 17321 bound_to 7965
  139.5278  144.3007  152.1075 LP  0  0  0  0  0  0  0  0  0  0  0  0  # atno 17342 bound_to 10162
  140.2185  144.4491  150.6353 LP  0  0  0  0  0  0  0  0  0  0  0  0  # atno 17343 bound_to 10162
  157.3539  130.7096  149.6458 LP  0  0  0  0  0  0  0  0  0  0  0  0  # atno 17370 bound_to 10713
  155.9679  130.4245  150.4609 LP  0  0  0  0  0  0  0  0  0  0  0  0  # atno 17371 bound_to 10713
  140.0081  135.0000  157.0337 LP  0  0  0  0  0  0  0  0  0  0  0  0  # atno 17394 bound_to 11000
  140.4646  134.1448  155.7195 LP  0  0  0  0  0  0  0  0  0  0  0  0  # atno 17395 bound_to 11000

$$$$
