AV-unprocessed.smi:1381|AV-procd|sdf|5610|dock8
  -GOLD-   22720 5223D 1   1.00000     0.00000
 Structure written by MMmdl.
 41 42  0  0  0  0  0  0  0  0  2 V2000
  150.8505  131.8543  156.2461 C   0  0  0  0  0  0  0  0  0  0  0  0
  150.9942  133.3240  156.0467 C   0  0  0  0  0  0  0  0  0  0  0  0
  150.2619  134.2442  155.3518 C   0  0  0  0  0  0  0  0  0  0  0  0
  150.9568  135.4609  155.5920 C   0  0  0  0  0  0  0  0  0  0  0  0
  150.6262  136.6660  155.1026 N   0  5  0  0  0  0  0  0  0  0  0  0
  151.4570  137.7208  155.2711 C   0  0  0  0  0  0  0  0  0  0  0  0
  152.6872  137.6774  155.3479 O   0  0  0  0  0  0  0  0  0  0  0  0
  150.8220  138.8982  155.3626 N   0  0  0  0  0  0  0  0  0  0  0  0
  151.4540  140.1971  155.5639 C   0  0  0  0  0  0  0  0  0  0  0  0
  150.6713  141.0469  156.5828 C   0  0  0  0  0  0  0  0  0  0  0  0
  151.4960  141.8872  157.4496 N   0  0  0  0  0  0  0  0  0  0  0  0
  152.2115  141.0795  158.4287 C   0  0  0  0  0  0  0  0  0  0  0  0
  153.1242  141.9357  159.3244 C   0  0  2  0  0  0  0  0  0  0  0  0
  153.8188  141.1005  160.4048 C   0  0  0  0  0  0  0  0  0  0  0  0
  152.3444  142.9399  159.9708 O   0  0  0  0  0  0  0  0  0  0  0  0
  151.5747  143.7681  159.0972 C   0  0  1  0  0  0  0  0  0  0  0  0
  152.4556  144.7879  158.3557 C   0  0  0  0  0  0  0  0  0  0  0  0
  150.7156  142.9030  158.1525 C   0  0  0  0  0  0  0  0  0  0  0  0
  152.0264  135.2910  156.3513 N   0  0  0  0  0  0  0  0  0  0  0  0
  152.0537  133.9239  156.6525 O   0  0  0  0  0  0  0  0  0  0  0  0
  151.6261  131.3145  155.7032 H   0  0  0  0  0  0  0  0  0  0  0  0
  149.8815  131.5064  155.8879 H   0  0  0  0  0  0  0  0  0  0  0  0
  150.9325  131.5966  157.3022 H   0  0  0  0  0  0  0  0  0  0  0  0
  149.3700  134.0761  154.7673 H   0  0  0  0  0  0  0  0  0  0  0  0
  149.8149  138.8871  155.2924 H   0  0  0  0  0  0  0  0  0  0  0  0
  152.4881  140.0657  155.8866 H   0  0  0  0  0  0  0  0  0  0  0  0
  151.4898  140.6896  154.5931 H   0  0  0  0  0  0  0  0  0  0  0  0
  149.9395  141.6634  156.0585 H   0  0  0  0  0  0  0  0  0  0  0  0
  150.0925  140.3666  157.2089 H   0  0  0  0  0  0  0  0  0  0  0  0
  151.4984  140.5329  159.0480 H   0  0  0  0  0  0  0  0  0  0  0  0
  152.8158  140.3300  157.9158 H   0  0  0  0  0  0  0  0  0  0  0  0
  153.8922  142.4104  158.7130 H   0  0  0  0  0  0  0  0  0  0  0  0
  154.4394  140.3224  159.9600 H   0  0  0  0  0  0  0  0  0  0  0  0
  153.0924  140.6170  161.0585 H   0  0  0  0  0  0  0  0  0  0  0  0
  154.4622  141.7243  161.0256 H   0  0  0  0  0  0  0  0  0  0  0  0
  150.8986  144.3386  159.7345 H   0  0  0  0  0  0  0  0  0  0  0  0
  151.8424  145.4822  157.7810 H   0  0  0  0  0  0  0  0  0  0  0  0
  153.1415  144.3068  157.6589 H   0  0  0  0  0  0  0  0  0  0  0  0
  153.0484  145.3737  159.0582 H   0  0  0  0  0  0  0  0  0  0  0  0
  150.2080  143.5552  157.4427 H   0  0  0  0  0  0  0  0  0  0  0  0
  149.9330  142.4161  158.7366 H   0  0  0  0  0  0  0  0  0  0  0  0
  1  2  1  0  0  0  0
  1 21  1  0  0  0  0
  1 22  1  0  0  0  0
  1 23  1  0  0  0  0
  2 20  1  0  0  0  0
  2  3  2  0  0  0  0
  3  4  1  0  0  0  0
  3 24  1  0  0  0  0
  4  5  1  0  0  0  0
  4 19  2  0  0  0  0
  5  6  1  0  0  0  0
  6  7  2  0  0  0  0
  6  8  1  0  0  0  0
  8  9  1  0  0  0  0
  8 25  1  0  0  0  0
  9 10  1  0  0  0  0
  9 26  1  0  0  0  0
  9 27  1  0  0  0  0
 10 11  1  0  0  0  0
 10 28  1  0  0  0  0
 10 29  1  0  0  0  0
 11 18  1  0  0  0  0
 11 12  1  0  0  0  0
 12 13  1  0  0  0  0
 12 30  1  0  0  0  0
 12 31  1  0  0  0  0
 13 14  1  0  0  0  0
 13 15  1  0  0  0  0
 13 32  1  0  0  0  0
 14 33  1  0  0  0  0
 14 34  1  0  0  0  0
 14 35  1  0  0  0  0
 15 16  1  0  0  0  0
 16 17  1  0  0  0  0
 16 18  1  0  0  0  0
 16 36  1  0  0  0  0
 17 37  1  0  0  0  0
 17 38  1  0  0  0  0
 17 39  1  0  0  0  0
 18 40  1  0  0  0  0
 18 41  1  0  0  0  0
 19 20  1  0  0  0  0
M  CHG  1   5  -1
M  END
> <s_m_source_file>
AV-unprocessed.smi

> <i_m_source_file_index>
1381

> <i_lp_mmshare_version>
43012

> <i_f3d_flags>
0

> <s_epik_input>
W0NIM11jMVtjSF1jKG5vMSlbTkhdQyg9TylbTkhdW0NIMl1bQ0gyXU4yW0NIMl1bQ0BASF0oW0NIM10pT1tDQEBIXShbQ0gzXSlbQ0gyXTI=

> <s_epik_cmdline>
J2VwaWtfcHl0aG9uJywgJy1waCcsICc3LjAnLCAnLXRuJywgJzgnLCAnLW1hJywgJzIwMCcsICctbWV0YWxfYmluZGluZycsICctaW1hZScsICc8aW5maWxlLm1hZT4nLCAnLW9tYWUnLCAnPG91dGZpbGUubWFlPic=

> <r_epik_Ionization_Penalty>
6.88366

> <r_epik_Ionization_Penalty_Charging>
6.57198

> <r_epik_Ionization_Penalty_Neutral>
0.311678

> <r_epik_State_Penalty>
6.77619

> <r_epik_Charging_Adjusted_Penalty>
13.3482

> <i_epik_Tot_Q>
-1

> <i_epik_Tot_abs_Q>
1

> <r_epik_Metal_State_Penalty>
2.70524

> <b_epik_Metal_Only>
1

> <s_lp_Force_Field>
OPLS_2005

> <r_lp_Energy>
15.7401

> <b_lp_Chiralities_Consistent>
1

> <s_lp_Variant>
AV-unprocessed.smi:1381-9

> <Gold.Version>
5.8.1

> <Gold.Id.Protein>
6NUR|6NUR_protein|mol2

> <Gold.PLP.Fitness>
39.4376

> <Gold.PLP.PLP>
-37.7081

> <Gold.PLP.part.hbond>
-2.8215

> <Gold.PLP.part.metal>
0.0000

> <Gold.PLP.part.buried>
-4.4449

> <Gold.PLP.part.nonpolar>
-30.4322

> <Gold.PLP.part.repulsive>
0.2570

> <Gold.PLP.ligand.clash>
0.0000

> <Gold.PLP.ligand.torsion>
0.6585

> <Gold.PLP.Chemscore.Hbond>
1.0000

> <Gold.PLP.Chemscore.CHOScore>
0.0000

> <Gold.PLP.Chemscore.Metal>
0.0000

> <Gold.Chemscore.Hbonds>
donor molecule, donor type, donor heavy atom, donor atom, acceptor molecule, acceptor atom, score
      P1  H 10752 10765       L1    19  1.00

> <Gold.PLP.Chemscore.Internal.Correction>
0.0465

> <Gold.Rescore>
     Score         DG    S(hbond)    S(metal)    S(lipo)     H(rot)  DE(clash)    DE(int)     intcor
     12.11     -14.65       0.72        0.00      91.48       1.54       0.31       2.23       ----

> <Gold.Chemscore.Fitness>
12.1073

> <Gold.Chemscore.DG>
-14.6493

> <Gold.Chemscore.ZeroCoef>
-5.4800

> <Gold.Chemscore.Hbond>
0.7219

> <Gold.Chemscore.Metal>
0.0000

> <Gold.Chemscore.Lipo>
91.4781

> <Gold.Chemscore.Internal_Hbond>
0.0000

> <Gold.Chemscore.DEClash>
0.3102

> <Gold.Chemscore.DEInternal>
2.2318

> <Gold.Chemscore.Rot>
1.5409

> <Gold.Chemscore.Internal.Correction>
   9.000000E+99

> <Gold.Chemscore.Hbonds>
donor molecule, donor type, donor heavy atom, donor atom, acceptor molecule, acceptor atom, score
      P1  H 10752 10765       L1    19  0.12

> <Gold.Chemscore.Hbond.Weighted>
-2.4110

> <Gold.Chemscore.Metal.Weighted>
-0.0000

> <Gold.Chemscore.Lipo.Weighted>
-10.7029

> <Gold.Chemscore.Internal_Hbond.Weighted>
0.0000

> <Gold.Chemscore.DEClash.Weighted>
0.3102

> <Gold.Chemscore.DEInternal.Weighted>
2.2318

> <Gold.Chemscore.Rot.Weighted>
3.9446

> <Gold.Chemscore.Internal.Correction.Weighted>
   9.000000E+99

> <Gold.Protein.RotatedTorsions>
[ 6907 6896 6895 6894 ] final  -96.93 input  -60.11 | X-H torsion
[ 7974 7965 7964 7962 ] final -163.71 input  175.53 | X-H torsion
[ 8008 7997 7996 7995 ] final  -56.56 input   59.86 | X-H torsion
[ 10167 10162 10161 10158 ] final  -42.55 input  -65.29 | X-H torsion
[ 10718 10713 10712 10709 ] final   25.95 input   66.30 | X-H torsion
[ 10763 10752 10751 10750 ] final -130.29 input  -60.55 | X-H torsion
[ 11005 11000 10999 10996 ] final   55.63 input  -57.11 | X-H torsion

> <Gold.Protein.ActiveResidues>
 VAL166  LYS551  ARG553  GLY616  TRP617  ASP618  TYR619  PRO620  LYS621  CYS622 
 ASP623  PHE694  ASN695  SER759  ASP760  ASP761  ALA762  ILE779  LEU786  VAL792 
 PHE793  MET794  SER795  GLU796  ALA797  LYS798  CYS799  TRP800  GLU811  SER814 

> <Gold.Protein.RotatedAtoms>
  150.7002  134.1427  159.4110 H   0  0  0  0  0  0  0  0  0  0  0  0  # atno 6907 bound_to 6896
  151.9411  135.0210  160.0545 H   0  0  0  0  0  0  0  0  0  0  0  0  # atno 6908 bound_to 6896
  152.2093  133.4864  159.5138 H   0  0  0  0  0  0  0  0  0  0  0  0  # atno 6909 bound_to 6896
  144.7318  140.3067  143.6195 H   0  0  0  0  0  0  0  0  0  0  0  0  # atno 7974 bound_to 7965
  154.4235  140.1127  156.5658 H   0  0  0  0  0  0  0  0  0  0  0  0  # atno 8008 bound_to 7997
  155.6264  140.3495  155.4649 H   0  0  0  0  0  0  0  0  0  0  0  0  # atno 8009 bound_to 7997
  155.9983  140.1194  157.0562 H   0  0  0  0  0  0  0  0  0  0  0  0  # atno 8010 bound_to 7997
  140.6965  143.3032  151.3225 H   0  0  0  0  0  0  0  0  0  0  0  0  # atno 10167 bound_to 10162
  157.2002  130.6886  149.6185 H   0  0  0  0  0  0  0  0  0  0  0  0  # atno 10718 bound_to 10713
  154.8756  135.3867  154.4059 H   0  0  0  0  0  0  0  0  0  0  0  0  # atno 10763 bound_to 10752
  153.4779  135.7030  153.5960 H   0  0  0  0  0  0  0  0  0  0  0  0  # atno 10764 bound_to 10752
  153.4389  135.3861  155.2183 H   0  0  0  0  0  0  0  0  0  0  0  0  # atno 10765 bound_to 10752
  140.0592  134.5627  155.9172 H   0  0  0  0  0  0  0  0  0  0  0  0  # atno 11005 bound_to 11000
  145.7706  139.1856  143.2214 LP  0  0  0  0  0  0  0  0  0  0  0  0  # atno 17320 bound_to 7965
  146.0914  140.7651  142.9593 LP  0  0  0  0  0  0  0  0  0  0  0  0  # atno 17321 bound_to 7965
  139.6427  144.0508  152.2567 LP  0  0  0  0  0  0  0  0  0  0  0  0  # atno 17342 bound_to 10162
  140.0019  144.6287  150.7722 LP  0  0  0  0  0  0  0  0  0  0  0  0  # atno 17343 bound_to 10162
  155.9701  130.4585  150.6002 LP  0  0  0  0  0  0  0  0  0  0  0  0  # atno 17370 bound_to 10713
  157.3774  131.0775  151.1506 LP  0  0  0  0  0  0  0  0  0  0  0  0  # atno 17371 bound_to 10713
  141.1965  133.6592  156.5697 LP  0  0  0  0  0  0  0  0  0  0  0  0  # atno 17394 bound_to 11000
  140.3797  134.7534  157.4653 LP  0  0  0  0  0  0  0  0  0  0  0  0  # atno 17395 bound_to 11000

$$$$
