AV-unprocessed.smi:53|AV-procd|sdf|517|dock7
  -GOLD-   2262016393D 1   1.00000     0.00000
 Structure written by MMmdl.
 30 31  0  0  0  0  0  0  0  0  1 V2000
  148.1353  133.5740  157.9115 N   0  0  0  0  0  0  0  0  0  0  0  0
  148.7649  134.6834  157.5003 C   0  0  0  0  0  0  0  0  0  0  0  0
  148.2996  135.3959  156.3319 C   0  0  0  0  0  0  0  0  0  0  0  0
  148.9856  136.5059  155.9817 C   0  0  0  0  0  0  0  0  0  0  0  0
  150.0819  136.9565  156.7035 N   0  0  0  0  0  0  0  0  0  0  0  0
  150.8335  138.2010  156.2787 C   0  0  2  0  0  0  0  0  0  0  0  0
  149.9403  139.2742  156.2559 O   0  0  0  0  0  0  0  0  0  0  0  0
  150.2056  140.0819  155.1161 C   0  0  2  0  0  0  0  0  0  0  0  0
  149.0020  140.9790  154.7773 C   0  0  0  0  0  0  0  0  0  0  0  0
  149.0237  141.3305  153.4101 O   0  0  0  0  0  0  0  0  0  0  0  0
  150.6515  139.0741  154.0469 C   0  0  2  0  0  0  0  0  0  0  0  0
  149.5350  138.4746  153.4102 O   0  0  0  0  0  0  0  0  0  0  0  0
  151.4607  138.0760  154.8714 C   0  0  2  0  0  0  0  0  0  0  0  0
  151.4781  136.7711  154.3156 O   0  0  0  0  0  0  0  0  0  0  0  0
  150.5229  136.2291  157.8354 C   0  0  0  0  0  0  0  0  0  0  0  0
  151.5104  136.5715  158.4848 O   0  0  0  0  0  0  0  0  0  0  0  0
  149.8142  135.1087  158.1772 N   0  0  0  0  0  0  0  0  0  0  0  0
  151.5741  138.4060  157.0537 H   0  0  0  0  0  0  0  0  0  0  0  0
  151.0570  140.7149  155.3742 H   0  0  0  0  0  0  0  0  0  0  0  0
  151.2616  139.5496  153.2783 H   0  0  0  0  0  0  0  0  0  0  0  0
  152.4897  138.4300  154.9478 H   0  0  0  0  0  0  0  0  0  0  0  0
  148.4636  133.0766  158.7264 H   0  0  0  0  0  0  0  0  0  0  0  0
  147.3294  133.2378  157.4042 H   0  0  0  0  0  0  0  0  0  0  0  0
  147.4483  135.0838  155.7441 H   0  0  0  0  0  0  0  0  0  0  0  0
  148.6551  137.0479  155.1081 H   0  0  0  0  0  0  0  0  0  0  0  0
  148.0555  140.4963  155.0211 H   0  0  0  0  0  0  0  0  0  0  0  0
  149.0478  141.8965  155.3642 H   0  0  0  0  0  0  0  0  0  0  0  0
  148.9788  140.5390  152.8957 H   0  0  0  0  0  0  0  0  0  0  0  0
  149.4034  138.8995  152.5766 H   0  0  0  0  0  0  0  0  0  0  0  0
  150.6416  136.6104  153.9055 H   0  0  0  0  0  0  0  0  0  0  0  0
  1  2  1  0  0  0  0
  1 22  1  0  0  0  0
  1 23  1  0  0  0  0
  2 17  2  0  0  0  0
  2  3  1  0  0  0  0
  3  4  2  0  0  0  0
  3 24  1  0  0  0  0
  4  5  1  0  0  0  0
  4 25  1  0  0  0  0
  5  6  1  0  0  0  0
  5 15  1  0  0  0  0
  6 18  1  0  0  0  0
  6 13  1  0  0  0  0
  6  7  1  0  0  0  0
  7  8  1  0  0  0  0
  8 19  1  0  0  0  0
  8  9  1  0  0  0  0
  8 11  1  0  0  0  0
  9 10  1  0  0  0  0
  9 26  1  0  0  0  0
  9 27  1  0  0  0  0
 10 28  1  0  0  0  0
 11 20  1  0  0  0  0
 11 12  1  0  0  0  0
 11 13  1  0  0  0  0
 12 29  1  0  0  0  0
 13 21  1  0  0  0  0
 13 14  1  0  0  0  0
 14 30  1  0  0  0  0
 15 16  2  0  0  0  0
 15 17  1  0  0  0  0
M  END
> <s_m_source_file>
AV-unprocessed.smi

> <i_m_source_file_index>
53

> <i_lp_mmshare_version>
43012

> <i_f3d_flags>
0

> <s_epik_input>
W05IMl1jMVtjSF1bY0hdbihjKD1PKW4xKVtDQEBIXTJPW0NASF0oW0NIMl1bT0hdKVtDQEBIXShbT0hdKVtDQEBIXTJbT0hd

> <s_epik_cmdline>
J2VwaWtfcHl0aG9uJywgJy1waCcsICc3LjAnLCAnLXRuJywgJzgnLCAnLW1hJywgJzIwMCcsICctbWV0YWxfYmluZGluZycsICctaW1hZScsICc8aW5maWxlLm1hZT4nLCAnLW9tYWUnLCAnPG91dGZpbGUubWFlPic=

> <r_lp_tautomer_probability>
0.99996

> <r_epik_Ionization_Penalty>
0.00069087

> <r_epik_Ionization_Penalty_Charging>
2.61959e-08

> <r_epik_Ionization_Penalty_Neutral>
0.000690844

> <r_epik_State_Penalty>
1.15523e-05

> <r_epik_Charging_Adjusted_Penalty>
1.15785e-05

> <i_epik_Tot_Q>
0

> <i_epik_Tot_abs_Q>
0

> <r_epik_Metal_State_Penalty>
-0

> <b_epik_Metal_Only>
0

> <s_epik_Chemistry_Notes>
This compound contains an acetal/aminal-like group ( X-CH(R)-Y where X, Y are N, S, or O) that may be acid/base labile, releasing an aldehyde.

> <s_lp_Force_Field>
OPLS_2005

> <r_lp_Energy>
39.6979

> <b_lp_Chiralities_Consistent>
1

> <s_lp_Variant>
AV-unprocessed.smi:53-5

> <Gold.Version>
5.8.1

> <Gold.Id.Protein>
6NUR|6NUR_protein|mol2

> <Gold.PLP.Fitness>
35.5492

> <Gold.PLP.PLP>
-21.1061

> <Gold.PLP.part.hbond>
-8.8957

> <Gold.PLP.part.metal>
0.0000

> <Gold.PLP.part.buried>
-0.9785

> <Gold.PLP.part.nonpolar>
-10.4845

> <Gold.PLP.part.repulsive>
0.0359

> <Gold.PLP.ligand.clash>
0.0000

> <Gold.PLP.ligand.torsion>
0.2726

> <Gold.PLP.Chemscore.Hbond>
4.9905

> <Gold.PLP.Chemscore.CHOScore>
0.0000

> <Gold.PLP.Chemscore.Metal>
0.0000

> <Gold.Chemscore.Hbonds>
donor molecule, donor type, donor heavy atom, donor atom, acceptor molecule, acceptor atom, score
      L1  H    10    28       P1  7957  0.67
      L1  H    12    29       P1  7957  1.00
      P1  H  6896  6907       L1    16  0.35
      P1  H  6896  6909       L1    17  0.78
      P1  H  8011  8017       L1    10  0.94
      P1  H 10752 10764       L1    14  0.99

> <Gold.PLP.Chemscore.Internal.Correction>
0.0167

> <Gold.Rescore>
     Score         DG    S(hbond)    S(metal)    S(lipo)     H(rot)  DE(clash)    DE(int)     intcor
     12.51     -13.24       3.97        0.00      34.11       3.71       0.26       0.46       ----

> <Gold.Chemscore.Fitness>
12.5087

> <Gold.Chemscore.DG>
-13.2362

> <Gold.Chemscore.ZeroCoef>
-5.4800

> <Gold.Chemscore.Hbond>
3.9705

> <Gold.Chemscore.Metal>
0.0000

> <Gold.Chemscore.Lipo>
34.1135

> <Gold.Chemscore.Internal_Hbond>
0.0000

> <Gold.Chemscore.DEClash>
0.2649

> <Gold.Chemscore.DEInternal>
0.4627

> <Gold.Chemscore.Rot>
3.7095

> <Gold.Chemscore.Internal.Correction>
   9.000000E+99

> <Gold.Chemscore.Hbonds>
donor molecule, donor type, donor heavy atom, donor atom, acceptor molecule, acceptor atom, score
      L1  H    10    28       P1  7957  0.68
      L1  H    12    29       P1  7957  0.92
      P1  H  6896  6907       L1    16  0.22
      P1  H  6896  6909       L1    17  0.63
      P1  H  8011  8017       L1    10  0.32
      P1  H 10752 10764       L1    14  0.93

> <Gold.Chemscore.Hbond.Weighted>
-13.2613

> <Gold.Chemscore.Metal.Weighted>
-0.0000

> <Gold.Chemscore.Lipo.Weighted>
-3.9913

> <Gold.Chemscore.Internal_Hbond.Weighted>
0.0000

> <Gold.Chemscore.DEClash.Weighted>
0.2649

> <Gold.Chemscore.DEInternal.Weighted>
0.4627

> <Gold.Chemscore.Rot.Weighted>
9.4964

> <Gold.Chemscore.Internal.Correction.Weighted>
   9.000000E+99

> <Gold.Protein.RotatedTorsions>
[ 6907 6896 6895 6894 ] final   17.75 input  -60.11 | X-H torsion
[ 7974 7965 7964 7962 ] final  -60.62 input  175.53 | X-H torsion
[ 8008 7997 7996 7995 ] final  101.12 input   59.86 | X-H torsion
[ 10167 10162 10161 10158 ] final  -24.83 input  -65.29 | X-H torsion
[ 10718 10713 10712 10709 ] final   13.94 input   66.30 | X-H torsion
[ 10763 10752 10751 10750 ] final  -55.99 input  -60.55 | X-H torsion
[ 11005 11000 10999 10996 ] final  -87.40 input  -57.11 | X-H torsion

> <Gold.Protein.ActiveResidues>
 VAL166  LYS551  ARG553  GLY616  TRP617  ASP618  TYR619  PRO620  LYS621  CYS622 
 ASP623  PHE694  ASN695  SER759  ASP760  ASP761  ALA762  ILE779  LEU786  VAL792 
 PHE793  MET794  SER795  GLU796  ALA797  LYS798  CYS799  TRP800  GLU811  SER814 

> <Gold.Protein.RotatedAtoms>
  151.8546  135.0546  160.0462 H   0  0  0  0  0  0  0  0  0  0  0  0  # atno 6907 bound_to 6896
  152.2710  133.5378  159.5447 H   0  0  0  0  0  0  0  0  0  0  0  0  # atno 6908 bound_to 6896
  150.7152  134.0614  159.3875 H   0  0  0  0  0  0  0  0  0  0  0  0  # atno 6909 bound_to 6896
  145.8133  140.8585  143.0171 H   0  0  0  0  0  0  0  0  0  0  0  0  # atno 7974 bound_to 7965
  156.1269  140.3202  155.8290 H   0  0  0  0  0  0  0  0  0  0  0  0  # atno 8008 bound_to 7997
  155.4403  140.0525  157.3028 H   0  0  0  0  0  0  0  0  0  0  0  0  # atno 8009 bound_to 7997
  154.4869  140.2076  155.9648 H   0  0  0  0  0  0  0  0  0  0  0  0  # atno 8010 bound_to 7997
  140.7287  143.4319  151.0789 H   0  0  0  0  0  0  0  0  0  0  0  0  # atno 10167 bound_to 10162
  157.0320  130.6196  149.5737 H   0  0  0  0  0  0  0  0  0  0  0  0  # atno 10718 bound_to 10713
  154.1996  135.6413  153.5083 H   0  0  0  0  0  0  0  0  0  0  0  0  # atno 10763 bound_to 10752
  153.0015  135.5448  154.6329 H   0  0  0  0  0  0  0  0  0  0  0  0  # atno 10764 bound_to 10752
  154.5739  135.2919  155.0773 H   0  0  0  0  0  0  0  0  0  0  0  0  # atno 10765 bound_to 10752
  141.1617  133.7509  156.9301 H   0  0  0  0  0  0  0  0  0  0  0  0  # atno 11005 bound_to 11000
  144.6755  140.0427  143.7480 LP  0  0  0  0  0  0  0  0  0  0  0  0  # atno 17320 bound_to 7965
  145.9754  139.2901  143.1074 LP  0  0  0  0  0  0  0  0  0  0  0  0  # atno 17321 bound_to 7965
  139.7976  143.8129  152.3159 LP  0  0  0  0  0  0  0  0  0  0  0  0  # atno 17342 bound_to 10162
  139.8134  144.7326  150.9667 LP  0  0  0  0  0  0  0  0  0  0  0  0  # atno 17343 bound_to 10162
  156.0066  130.5154  150.7851 LP  0  0  0  0  0  0  0  0  0  0  0  0  # atno 17370 bound_to 10713
  157.5170  131.0929  151.0126 LP  0  0  0  0  0  0  0  0  0  0  0  0  # atno 17371 bound_to 10713
  140.1392  134.9305  157.2444 LP  0  0  0  0  0  0  0  0  0  0  0  0  # atno 17394 bound_to 11000
  140.2857  134.3298  155.7329 LP  0  0  0  0  0  0  0  0  0  0  0  0  # atno 17395 bound_to 11000

$$$$
