AV-unprocessed.smi:906|AV-procd|sdf|4100|dock5
  -GOLD-   22720 1593D 1   1.00000     0.00000
 Structure written by MMmdl.
 47 48  0  0  0  0  0  0  0  0  1 V2000
  151.1209  144.9565  160.1559 C   0  0  0  0  0  0  0  0  0  0  0  0
  151.9235  143.7779  160.6654 C   0  0  0  0  0  0  0  0  0  0  0  0
  152.4501  143.7719  161.9743 C   0  0  0  0  0  0  0  0  0  0  0  0
  153.1908  142.6503  162.3936 C   0  0  0  0  0  0  0  0  0  0  0  0
  153.3777  141.5823  161.4917 C   0  0  0  0  0  0  0  0  0  0  0  0
  154.1849  140.3572  161.8857 C   0  0  0  0  0  0  0  0  0  0  0  0
  153.8815  139.1285  161.0117 C   0  0  0  0  0  0  0  0  0  0  0  0
  154.5424  137.9368  161.5358 N   0  0  0  0  0  0  0  0  0  0  0  0
  154.3113  136.6710  161.1496 C   0  0  0  0  0  0  0  0  0  0  0  0
  153.4448  136.3819  160.3233 O   0  0  0  0  0  0  0  0  0  0  0  0
  155.1329  135.7517  161.7147 N   0  0  0  0  0  0  0  0  0  0  0  0
  155.8597  135.8796  162.9862 C   0  0  0  0  0  0  0  0  0  0  0  0
  155.2204  134.9312  164.0184 C   0  0  0  0  0  0  0  0  0  0  0  0
  155.2756  133.5452  163.5325 N   0  0  0  0  0  0  0  0  0  0  0  0
  154.7982  132.5292  164.4864 C   0  0  2  0  0  0  0  0  0  0  0  0
  153.5200  132.9415  165.2499 C   0  0  0  0  0  0  0  0  0  0  0  0
  155.9234  132.0551  165.4371 C   0  0  0  0  0  0  0  0  0  0  0  0
  156.2970  133.0502  166.2425 F   0  0  0  0  0  0  0  0  0  0  0  0
  155.5512  131.0127  166.1800 F   0  0  0  0  0  0  0  0  0  0  0  0
  156.9817  131.6917  164.7126 F   0  0  0  0  0  0  0  0  0  0  0  0
  154.6121  133.4191  162.2284 C   0  0  0  0  0  0  0  0  0  0  0  0
  155.2518  134.3815  161.2094 C   0  0  0  0  0  0  0  0  0  0  0  0
  152.8086  141.6882  160.2051 C   0  0  0  0  0  0  0  0  0  0  0  0
  152.0960  142.7592  159.7946 N   0  0  0  0  0  0  0  0  0  0  0  0
  150.9659  145.6982  160.9402 H   0  0  0  0  0  0  0  0  0  0  0  0
  150.1433  144.6276  159.8022 H   0  0  0  0  0  0  0  0  0  0  0  0
  151.6415  145.4394  159.3286 H   0  0  0  0  0  0  0  0  0  0  0  0
  152.2941  144.6062  162.6422 H   0  0  0  0  0  0  0  0  0  0  0  0
  153.6128  142.6165  163.3873 H   0  0  0  0  0  0  0  0  0  0  0  0
  155.2475  140.5961  161.8259 H   0  0  0  0  0  0  0  0  0  0  0  0
  153.9848  140.1244  162.9321 H   0  0  0  0  0  0  0  0  0  0  0  0
  152.8066  138.9504  160.9737 H   0  0  0  0  0  0  0  0  0  0  0  0
  154.2000  139.3330  159.9883 H   0  0  0  0  0  0  0  0  0  0  0  0
  155.2743  138.0896  162.2141 H   0  0  0  0  0  0  0  0  0  0  0  0
  156.9067  135.6142  162.8305 H   0  0  0  0  0  0  0  0  0  0  0  0
  155.8758  136.8927  163.3873 H   0  0  0  0  0  0  0  0  0  0  0  0
  155.7567  135.0279  164.9602 H   0  0  0  0  0  0  0  0  0  0  0  0
  154.1881  135.2323  164.1998 H   0  0  0  0  0  0  0  0  0  0  0  0
  154.5424  131.6544  163.8867 H   0  0  0  0  0  0  0  0  0  0  0  0
  153.1454  132.1086  165.8448 H   0  0  0  0  0  0  0  0  0  0  0  0
  152.7156  133.2372  164.5771 H   0  0  0  0  0  0  0  0  0  0  0  0
  153.7040  133.7668  165.9376 H   0  0  0  0  0  0  0  0  0  0  0  0
  154.7066  132.3958  161.8634 H   0  0  0  0  0  0  0  0  0  0  0  0
  153.5467  133.6322  162.3179 H   0  0  0  0  0  0  0  0  0  0  0  0
  154.7814  134.2503  160.2341 H   0  0  0  0  0  0  0  0  0  0  0  0
  156.3053  134.1361  161.0647 H   0  0  0  0  0  0  0  0  0  0  0  0
  152.9334  140.8945  159.4830 H   0  0  0  0  0  0  0  0  0  0  0  0
  1  2  1  0  0  0  0
  1 25  1  0  0  0  0
  1 26  1  0  0  0  0
  1 27  1  0  0  0  0
  2 24  1  0  0  0  0
  2  3  2  0  0  0  0
  3  4  1  0  0  0  0
  3 28  1  0  0  0  0
  4  5  2  0  0  0  0
  4 29  1  0  0  0  0
  5  6  1  0  0  0  0
  5 23  1  0  0  0  0
  6  7  1  0  0  0  0
  6 30  1  0  0  0  0
  6 31  1  0  0  0  0
  7  8  1  0  0  0  0
  7 32  1  0  0  0  0
  7 33  1  0  0  0  0
  8  9  1  0  0  0  0
  8 34  1  0  0  0  0
  9 10  2  0  0  0  0
  9 11  1  0  0  0  0
 11 22  1  0  0  0  0
 11 12  1  0  0  0  0
 12 13  1  0  0  0  0
 12 35  1  0  0  0  0
 12 36  1  0  0  0  0
 13 14  1  0  0  0  0
 13 37  1  0  0  0  0
 13 38  1  0  0  0  0
 14 15  1  0  0  0  0
 14 21  1  0  0  0  0
 15 16  1  0  0  0  0
 15 17  1  0  0  0  0
 15 39  1  0  0  0  0
 16 40  1  0  0  0  0
 16 41  1  0  0  0  0
 16 42  1  0  0  0  0
 17 18  1  0  0  0  0
 17 19  1  0  0  0  0
 17 20  1  0  0  0  0
 21 22  1  0  0  0  0
 21 43  1  0  0  0  0
 21 44  1  0  0  0  0
 22 45  1  0  0  0  0
 22 46  1  0  0  0  0
 23 24  2  0  0  0  0
 23 47  1  0  0  0  0
M  END
> <s_m_source_file>
AV-unprocessed.smi

> <i_m_source_file_index>
906

> <i_lp_mmshare_version>
43012

> <i_f3d_flags>
0

> <s_epik_input>
W0NIM11jMVtjSF1bY0hdYyhbY0hdbjEpW0NIMl1bQ0gyXVtOSF1DKD1PKU4yW0NIMl1bQ0gyXU4oW0NASF0oW0NIM10pQyhGKShGKUYpW0NIMl1bQ0gyXTI=

> <s_epik_cmdline>
J2VwaWtfcHl0aG9uJywgJy1waCcsICc3LjAnLCAnLXRuJywgJzgnLCAnLW1hJywgJzIwMCcsICctbWV0YWxfYmluZGluZycsICctaW1hZScsICc8aW5maWxlLm1hZT4nLCAnLW9tYWUnLCAnPG91dGZpbGUubWFlPic=

> <r_epik_Ionization_Penalty>
0.0782886

> <r_epik_Ionization_Penalty_Charging>
0

> <r_epik_Ionization_Penalty_Neutral>
0.0782886

> <r_epik_State_Penalty>
0.0661423

> <r_epik_Charging_Adjusted_Penalty>
0.0661423

> <i_epik_Tot_Q>
0

> <i_epik_Tot_abs_Q>
0

> <r_epik_Metal_State_Penalty>
0.060629

> <b_epik_Metal_Only>
0

> <s_lp_Force_Field>
OPLS_2005

> <r_lp_Energy>
48.1538

> <b_lp_Chiralities_Consistent>
1

> <s_lp_Variant>
AV-unprocessed.smi:906-1

> <Gold.Version>
5.8.1

> <Gold.Id.Protein>
6NUR|6NUR_protein|mol2

> <Gold.PLP.Fitness>
47.1221

> <Gold.PLP.PLP>
-45.9029

> <Gold.PLP.part.hbond>
-0.9581

> <Gold.PLP.part.metal>
0.0000

> <Gold.PLP.part.buried>
-6.2871

> <Gold.PLP.part.nonpolar>
-38.4952

> <Gold.PLP.part.repulsive>
0.0112

> <Gold.PLP.ligand.clash>
0.0000

> <Gold.PLP.ligand.torsion>
1.1884

> <Gold.PLP.Chemscore.Hbond>
0.9913

> <Gold.PLP.Chemscore.CHOScore>
0.0000

> <Gold.PLP.Chemscore.Metal>
0.0000

> <Gold.Chemscore.Hbonds>
donor molecule, donor type, donor heavy atom, donor atom, acceptor molecule, acceptor atom, score
      P1  H  6896  6908       L1    10  1.00

> <Gold.PLP.Chemscore.Internal.Correction>
0.6222

> <Gold.Rescore>
     Score         DG    S(hbond)    S(metal)    S(lipo)     H(rot)  DE(clash)    DE(int)     intcor
     17.73     -19.00       1.00        0.00     121.72       1.58       0.12       1.14       ----

> <Gold.Chemscore.Fitness>
17.7314

> <Gold.Chemscore.DG>
-18.9999

> <Gold.Chemscore.ZeroCoef>
-5.4800

> <Gold.Chemscore.Hbond>
0.9983

> <Gold.Chemscore.Metal>
0.0000

> <Gold.Chemscore.Lipo>
121.7187

> <Gold.Chemscore.Internal_Hbond>
0.0000

> <Gold.Chemscore.DEClash>
0.1238

> <Gold.Chemscore.DEInternal>
1.1447

> <Gold.Chemscore.Rot>
1.5841

> <Gold.Chemscore.Internal.Correction>
   9.000000E+99

> <Gold.Chemscore.Hbonds>
donor molecule, donor type, donor heavy atom, donor atom, acceptor molecule, acceptor atom, score
      P1  H  6896  6908       L1    10  1.00

> <Gold.Chemscore.Hbond.Weighted>
-3.3342

> <Gold.Chemscore.Metal.Weighted>
-0.0000

> <Gold.Chemscore.Lipo.Weighted>
-14.2411

> <Gold.Chemscore.Internal_Hbond.Weighted>
0.0000

> <Gold.Chemscore.DEClash.Weighted>
0.1238

> <Gold.Chemscore.DEInternal.Weighted>
1.1447

> <Gold.Chemscore.Rot.Weighted>
4.0554

> <Gold.Chemscore.Internal.Correction.Weighted>
   9.000000E+99

> <Gold.Protein.RotatedTorsions>
[ 6907 6896 6895 6894 ] final  -78.69 input  -60.11 | X-H torsion
[ 7974 7965 7964 7962 ] final -174.30 input  175.53 | X-H torsion
[ 8008 7997 7996 7995 ] final  -55.32 input   59.86 | X-H torsion
[ 10167 10162 10161 10158 ] final  -69.59 input  -65.29 | X-H torsion
[ 10718 10713 10712 10709 ] final  -25.49 input   66.30 | X-H torsion
[ 10763 10752 10751 10750 ] final  -31.39 input  -60.55 | X-H torsion
[ 11005 11000 10999 10996 ] final  -20.13 input  -57.11 | X-H torsion

> <Gold.Protein.ActiveResidues>
 VAL166  LYS551  ARG553  GLY616  TRP617  ASP618  TYR619  PRO620  LYS621  CYS622 
 ASP623  PHE694  ASN695  SER759  ASP760  ASP761  ALA762  ILE779  LEU786  VAL792 
 PHE793  MET794  SER795  GLU796  ALA797  LYS798  CYS799  TRP800  GLU811  SER814 

> <Gold.Protein.RotatedAtoms>
  150.6967  134.4233  159.5214 H   0  0  0  0  0  0  0  0  0  0  0  0  # atno 6907 bound_to 6896
  152.1972  134.8617  160.0521 H   0  0  0  0  0  0  0  0  0  0  0  0  # atno 6908 bound_to 6896
  151.9550  133.3643  159.4051 H   0  0  0  0  0  0  0  0  0  0  0  0  # atno 6909 bound_to 6896
  144.7132  140.1492  143.6385 H   0  0  0  0  0  0  0  0  0  0  0  0  # atno 7974 bound_to 7965
  154.4191  140.1155  156.5458 H   0  0  0  0  0  0  0  0  0  0  0  0  # atno 8008 bound_to 7997
  155.6461  140.3496  155.4713 H   0  0  0  0  0  0  0  0  0  0  0  0  # atno 8009 bound_to 7997
  155.9831  140.1164  157.0698 H   0  0  0  0  0  0  0  0  0  0  0  0  # atno 8010 bound_to 7997
  140.5418  143.2314  151.7074 H   0  0  0  0  0  0  0  0  0  0  0  0  # atno 10167 bound_to 10162
  156.4637  130.4509  149.6912 H   0  0  0  0  0  0  0  0  0  0  0  0  # atno 10718 bound_to 10713
  153.7965  135.6893  153.4862 H   0  0  0  0  0  0  0  0  0  0  0  0  # atno 10763 bound_to 10752
  153.1716  135.4540  154.9908 H   0  0  0  0  0  0  0  0  0  0  0  0  # atno 10764 bound_to 10752
  154.8023  135.3343  154.7457 H   0  0  0  0  0  0  0  0  0  0  0  0  # atno 10765 bound_to 10752
  140.8434  133.7909  155.9886 H   0  0  0  0  0  0  0  0  0  0  0  0  # atno 11005 bound_to 11000
  145.9131  139.2499  143.1425 LP  0  0  0  0  0  0  0  0  0  0  0  0  # atno 17320 bound_to 7965
  145.9696  140.8771  143.0169 LP  0  0  0  0  0  0  0  0  0  0  0  0  # atno 17321 bound_to 7965
  139.4992  144.3956  152.0235 LP  0  0  0  0  0  0  0  0  0  0  0  0  # atno 17342 bound_to 10162
  140.3066  144.3586  150.6045 LP  0  0  0  0  0  0  0  0  0  0  0  0  # atno 17343 bound_to 10162
  156.3690  130.7520  151.2501 LP  0  0  0  0  0  0  0  0  0  0  0  0  # atno 17370 bound_to 10713
  157.7496  131.0328  150.4245 LP  0  0  0  0  0  0  0  0  0  0  0  0  # atno 17371 bound_to 10713
  140.8869  134.2542  157.5115 LP  0  0  0  0  0  0  0  0  0  0  0  0  # atno 17394 bound_to 11000
  139.8703  134.9643  156.4489 LP  0  0  0  0  0  0  0  0  0  0  0  0  # atno 17395 bound_to 11000

$$$$
