AV-unprocessed.smi:668|AV-procd|sdf|3261|dock4
  -GOLD-   22720 0213D 1   1.00000     0.00000
 Structure written by MMmdl.
 38 39  0  0  0  0  0  0  0  0  1 V2000
  152.7886  130.8237  158.0628 C   0  0  0  0  0  0  0  0  0  0  0  0
  152.7985  130.1049  156.8343 O   0  0  0  0  0  0  0  0  0  0  0  0
  151.7624  130.3108  155.9465 C   0  0  0  0  0  0  0  0  0  0  0  0
  150.9355  131.4372  156.1245 C   0  0  0  0  0  0  0  0  0  0  0  0
  149.8789  131.6583  155.2200 C   0  0  0  0  0  0  0  0  0  0  0  0
  149.6790  130.7387  154.1618 C   0  0  0  0  0  0  0  0  0  0  0  0
  148.6633  130.8410  153.1705 N   0  0  0  0  0  0  0  0  0  0  0  0
  147.3868  131.2452  153.2902 C   0  0  0  0  0  0  0  0  0  0  0  0
  146.8364  131.5895  154.3351 O   0  0  0  0  0  0  0  0  0  0  0  0
  146.7628  131.2180  152.1043 N   0  0  0  0  0  0  0  0  0  0  0  0
  145.3650  131.5921  151.8744 C   0  0  2  0  0  0  0  0  0  0  0  0
  145.0097  131.5863  150.3716 C   0  0  0  0  0  0  0  0  0  0  0  0
  144.3710  132.9421  150.0594 C   0  0  0  0  0  0  0  0  0  0  0  0
  143.9348  133.5004  151.4137 C   0  0  0  0  0  0  0  0  0  0  0  0
  144.9782  132.9950  152.4228 C   0  0  2  0  0  0  0  0  0  0  0  0
  146.1425  134.0008  152.5566 C   0  0  0  0  0  0  0  0  0  0  0  0
  146.8093  134.3073  151.4407 N   0  0  0  0  0  0  0  0  0  0  0  0
  146.4350  134.4961  153.6437 O   0  0  0  0  0  0  0  0  0  0  0  0
  150.5647  129.6445  154.0723 C   0  0  0  0  0  0  0  0  0  0  0  0
  151.5794  129.4271  154.9349 N   0  0  0  0  0  0  0  0  0  0  0  0
  153.6622  130.5444  158.6514 H   0  0  0  0  0  0  0  0  0  0  0  0
  151.9027  130.5892  158.6550 H   0  0  0  0  0  0  0  0  0  0  0  0
  152.8327  131.9006  157.8950 H   0  0  0  0  0  0  0  0  0  0  0  0
  151.1109  132.1238  156.9396 H   0  0  0  0  0  0  0  0  0  0  0  0
  149.2593  132.5290  155.3601 H   0  0  0  0  0  0  0  0  0  0  0  0
  148.9453  130.5593  152.2431 H   0  0  0  0  0  0  0  0  0  0  0  0
  147.2867  130.9101  151.2980 H   0  0  0  0  0  0  0  0  0  0  0  0
  144.7295  130.8616  152.3790 H   0  0  0  0  0  0  0  0  0  0  0  0
  145.8779  131.4175  149.7326 H   0  0  0  0  0  0  0  0  0  0  0  0
  144.3037  130.7807  150.1667 H   0  0  0  0  0  0  0  0  0  0  0  0
  145.1126  133.6021  149.6082 H   0  0  0  0  0  0  0  0  0  0  0  0
  143.5403  132.8592  149.3580 H   0  0  0  0  0  0  0  0  0  0  0  0
  143.8394  134.5872  151.3951 H   0  0  0  0  0  0  0  0  0  0  0  0
  142.9553  133.0984  151.6762 H   0  0  0  0  0  0  0  0  0  0  0  0
  144.5130  132.8865  153.4042 H   0  0  0  0  0  0  0  0  0  0  0  0
  147.5777  134.9615  151.4743 H   0  0  0  0  0  0  0  0  0  0  0  0
  146.5400  133.8835  150.5646 H   0  0  0  0  0  0  0  0  0  0  0  0
  150.4577  128.9172  153.2807 H   0  0  0  0  0  0  0  0  0  0  0  0
  1  2  1  0  0  0  0
  1 21  1  0  0  0  0
  1 22  1  0  0  0  0
  1 23  1  0  0  0  0
  2  3  1  0  0  0  0
  3 20  1  0  0  0  0
  3  4  2  0  0  0  0
  4  5  1  0  0  0  0
  4 24  1  0  0  0  0
  5  6  2  0  0  0  0
  5 25  1  0  0  0  0
  6  7  1  0  0  0  0
  6 19  1  0  0  0  0
  7  8  1  0  0  0  0
  7 26  1  0  0  0  0
  8  9  2  0  0  0  0
  8 10  1  0  0  0  0
 10 11  1  0  0  0  0
 10 27  1  0  0  0  0
 11 15  1  0  0  0  0
 11 12  1  0  0  0  0
 11 28  1  0  0  0  0
 12 13  1  0  0  0  0
 12 29  1  0  0  0  0
 12 30  1  0  0  0  0
 13 14  1  0  0  0  0
 13 31  1  0  0  0  0
 13 32  1  0  0  0  0
 14 15  1  0  0  0  0
 14 33  1  0  0  0  0
 14 34  1  0  0  0  0
 15 16  1  0  0  0  0
 15 35  1  0  0  0  0
 16 17  1  0  0  0  0
 16 18  2  0  0  0  0
 17 36  1  0  0  0  0
 17 37  1  0  0  0  0
 19 20  2  0  0  0  0
 19 38  1  0  0  0  0
M  END
> <s_m_source_file>
AV-unprocessed.smi

> <i_m_source_file_index>
668

> <i_lp_mmshare_version>
43012

> <i_f3d_flags>
0

> <s_epik_input>
W0NIM11PYzFbY0hdW2NIXWMoW2NIXW4xKVtOSF1DKD1PKVtOSF1bQ0BASF0yW0NIMl1bQ0gyXVtDSDJdW0NASF0yQyg9TylbTkgyXQ==

> <s_epik_cmdline>
J2VwaWtfcHl0aG9uJywgJy1waCcsICc3LjAnLCAnLXRuJywgJzgnLCAnLW1hJywgJzIwMCcsICctbWV0YWxfYmluZGluZycsICctaW1hZScsICc8aW5maWxlLm1hZT4nLCAnLW9tYWUnLCAnPG91dGZpbGUubWFlPic=

> <r_lp_tautomer_probability>
1

> <r_epik_Ionization_Penalty>
9.0916e-05

> <r_epik_Ionization_Penalty_Charging>
0

> <r_epik_Ionization_Penalty_Neutral>
9.0916e-05

> <r_epik_State_Penalty>
-0

> <r_epik_Charging_Adjusted_Penalty>
0

> <i_epik_Tot_Q>
0

> <i_epik_Tot_abs_Q>
0

> <r_epik_Metal_State_Penalty>
-0

> <b_epik_Metal_Only>
0

> <s_lp_Force_Field>
OPLS_2005

> <r_lp_Energy>
18.8655

> <b_lp_Chiralities_Consistent>
1

> <s_lp_Variant>
AV-unprocessed.smi:668-3

> <Gold.Version>
5.8.1

> <Gold.Id.Protein>
6NUR|6NUR_protein|mol2

> <Gold.PLP.Fitness>
39.1768

> <Gold.PLP.PLP>
-28.2300

> <Gold.PLP.part.hbond>
-3.0000

> <Gold.PLP.part.metal>
0.0000

> <Gold.PLP.part.buried>
-3.9870

> <Gold.PLP.part.nonpolar>
-20.6346

> <Gold.PLP.part.repulsive>
0.3582

> <Gold.PLP.ligand.clash>
0.0000

> <Gold.PLP.ligand.torsion>
0.5324

> <Gold.PLP.Chemscore.Hbond>
3.0000

> <Gold.PLP.Chemscore.CHOScore>
0.9987

> <Gold.PLP.Chemscore.Metal>
0.0000

> <Gold.Chemscore.Hbonds>
donor molecule, donor type, donor heavy atom, donor atom, acceptor molecule, acceptor atom, score
      L1  H     7    26       P1 10747  1.00
      L1  H    10    27       P1 10747  1.00
      L1  H    17    36       P1  7948  1.00
      L1  C    19    38       P1 10737  1.00

> <Gold.PLP.Chemscore.Internal.Correction>
0.0156

> <Gold.Rescore>
     Score         DG    S(hbond)    S(metal)    S(lipo)     H(rot)  DE(clash)    DE(int)     intcor
     13.76     -15.97       2.42        0.00      61.30       1.86       1.08       1.12       ----

> <Gold.Chemscore.Fitness>
13.7642

> <Gold.Chemscore.DG>
-15.9675

> <Gold.Chemscore.ZeroCoef>
-5.4800

> <Gold.Chemscore.Hbond>
2.4218

> <Gold.Chemscore.Metal>
0.0000

> <Gold.Chemscore.Lipo>
61.3038

> <Gold.Chemscore.Internal_Hbond>
0.0000

> <Gold.Chemscore.DEClash>
1.0789

> <Gold.Chemscore.DEInternal>
1.1244

> <Gold.Chemscore.Rot>
1.8648

> <Gold.Chemscore.Internal.Correction>
   9.000000E+99

> <Gold.Chemscore.Hbonds>
donor molecule, donor type, donor heavy atom, donor atom, acceptor molecule, acceptor atom, score
      L1  H     7    26       P1 10747  0.29
      L1  H    10    27       P1 10747  0.92
      L1  H    17    36       P1  7948  0.45

> <Gold.Chemscore.Hbond.Weighted>
-8.0888

> <Gold.Chemscore.Metal.Weighted>
-0.0000

> <Gold.Chemscore.Lipo.Weighted>
-7.1725

> <Gold.Chemscore.Internal_Hbond.Weighted>
0.0000

> <Gold.Chemscore.DEClash.Weighted>
1.0789

> <Gold.Chemscore.DEInternal.Weighted>
1.1244

> <Gold.Chemscore.Rot.Weighted>
4.7739

> <Gold.Chemscore.Internal.Correction.Weighted>
   9.000000E+99

> <Gold.Protein.RotatedTorsions>
[ 6907 6896 6895 6894 ] final  135.16 input  -60.11 | X-H torsion
[ 7974 7965 7964 7962 ] final  145.33 input  175.53 | X-H torsion
[ 8008 7997 7996 7995 ] final  138.84 input   59.86 | X-H torsion
[ 10167 10162 10161 10158 ] final  -70.75 input  -65.29 | X-H torsion
[ 10718 10713 10712 10709 ] final  -52.63 input   66.30 | X-H torsion
[ 10763 10752 10751 10750 ] final -137.65 input  -60.55 | X-H torsion
[ 11005 11000 10999 10996 ] final -179.45 input  -57.11 | X-H torsion

> <Gold.Protein.ActiveResidues>
 VAL166  LYS551  ARG553  GLY616  TRP617  ASP618  TYR619  PRO620  LYS621  CYS622 
 ASP623  PHE694  ASN695  SER759  ASP760  ASP761  ALA762  ILE779  LEU786  VAL792 
 PHE793  MET794  SER795  GLU796  ALA797  LYS798  CYS799  TRP800  GLU811  SER814 

> <Gold.Protein.RotatedAtoms>
  152.3035  133.5679  159.5633 H   0  0  0  0  0  0  0  0  0  0  0  0  # atno 6907 bound_to 6896
  150.7288  134.0257  159.3725 H   0  0  0  0  0  0  0  0  0  0  0  0  # atno 6908 bound_to 6896
  151.8155  135.0668  160.0469 H   0  0  0  0  0  0  0  0  0  0  0  0  # atno 6909 bound_to 6896
  144.8762  139.5769  143.5864 H   0  0  0  0  0  0  0  0  0  0  0  0  # atno 7974 bound_to 7965
  156.2994  140.2383  156.4140 H   0  0  0  0  0  0  0  0  0  0  0  0  # atno 8008 bound_to 7997
  154.8416  140.0428  157.1565 H   0  0  0  0  0  0  0  0  0  0  0  0  # atno 8009 bound_to 7997
  154.9097  140.2988  155.5277 H   0  0  0  0  0  0  0  0  0  0  0  0  # atno 8010 bound_to 7997
  140.5328  143.2320  151.7231 H   0  0  0  0  0  0  0  0  0  0  0  0  # atno 10167 bound_to 10162
  156.1605  130.4150  149.9801 H   0  0  0  0  0  0  0  0  0  0  0  0  # atno 10718 bound_to 10713
  154.8656  135.3635  154.5258 H   0  0  0  0  0  0  0  0  0  0  0  0  # atno 10763 bound_to 10752
  153.5886  135.7016  153.5437 H   0  0  0  0  0  0  0  0  0  0  0  0  # atno 10764 bound_to 10752
  153.3393  135.4102  155.1521 H   0  0  0  0  0  0  0  0  0  0  0  0  # atno 10765 bound_to 10752
  140.4185  134.6627  157.4651 H   0  0  0  0  0  0  0  0  0  0  0  0  # atno 11005 bound_to 11000
  146.2964  139.7290  142.9123 LP  0  0  0  0  0  0  0  0  0  0  0  0  # atno 17320 bound_to 7965
  145.4039  141.0388  143.3055 LP  0  0  0  0  0  0  0  0  0  0  0  0  # atno 17321 bound_to 7965
  139.4960  144.4088  152.0103 LP  0  0  0  0  0  0  0  0  0  0  0  0  # atno 17342 bound_to 10162
  140.3192  144.3448  150.6014 LP  0  0  0  0  0  0  0  0  0  0  0  0  # atno 17343 bound_to 10162
  156.7632  130.9158  151.3642 LP  0  0  0  0  0  0  0  0  0  0  0  0  # atno 17370 bound_to 10713
  157.6728  130.9067  150.0081 LP  0  0  0  0  0  0  0  0  0  0  0  0  # atno 17371 bound_to 10713
  140.0217  134.6537  155.9230 LP  0  0  0  0  0  0  0  0  0  0  0  0  # atno 17394 bound_to 11000
  141.1793  133.6544  156.4956 LP  0  0  0  0  0  0  0  0  0  0  0  0  # atno 17395 bound_to 11000

$$$$
