AV-unprocessed.smi:743|AV-procd|sdf|3566|dock2
  -GOLD-   22720 0563D 1   1.00000     0.00000
 Structure written by MMmdl.
 28 29  0  0  0  0  0  0  0  0  1 V2000
  152.3998  141.2985  158.5121 C   0  0  0  0  0  0  0  0  0  0  0  0
  151.7668  140.8963  157.2744 N   0  0  0  0  0  0  0  0  0  0  0  0
  150.6095  141.3807  156.7046 C   0  0  0  0  0  0  0  0  0  0  0  0
  150.4093  140.7043  155.5334 C   0  0  0  0  0  0  0  0  0  0  0  0
  149.2876  140.8687  154.5346 C   0  0  2  0  0  0  0  0  0  0  0  0
  148.3259  141.8736  154.9985 N   0  0  0  0  0  0  0  0  0  0  0  0
  146.9876  141.8409  154.8662 C   0  0  0  0  0  0  0  0  0  0  0  0
  146.2823  142.7704  155.2513 O   0  0  0  0  0  0  0  0  0  0  0  0
  146.3278  140.5993  154.2496 C   0  0  0  0  0  0  0  0  0  0  0  0
  147.3052  139.7288  153.4465 C   0  0  0  0  0  0  0  0  0  0  0  0
  148.6045  139.5138  154.2310 C   0  0  1  0  0  0  0  0  0  0  0  0
  149.4885  138.6398  153.4807 N   0  0  0  0  0  0  0  0  0  0  0  0
  151.5225  139.8146  155.4793 C   0  0  0  0  0  0  0  0  0  0  0  0
  152.3303  139.9313  156.5201 N   0  0  0  0  0  0  0  0  0  0  0  0
  148.3613  139.0148  155.1705 H   0  0  0  0  0  0  0  0  0  0  0  0
  151.6769  141.8042  159.1527 H   0  0  0  0  0  0  0  0  0  0  0  0
  153.2228  141.9801  158.2967 H   0  0  0  0  0  0  0  0  0  0  0  0
  152.7861  140.4246  159.0383 H   0  0  0  0  0  0  0  0  0  0  0  0
  150.0296  142.1627  157.1727 H   0  0  0  0  0  0  0  0  0  0  0  0
  149.6860  141.2667  153.5997 H   0  0  0  0  0  0  0  0  0  0  0  0
  148.7211  142.6958  155.4314 H   0  0  0  0  0  0  0  0  0  0  0  0
  145.9032  140.0128  155.0651 H   0  0  0  0  0  0  0  0  0  0  0  0
  145.4932  140.9055  153.6177 H   0  0  0  0  0  0  0  0  0  0  0  0
  146.8352  138.7708  153.2202 H   0  0  0  0  0  0  0  0  0  0  0  0
  147.5183  140.2045  152.4878 H   0  0  0  0  0  0  0  0  0  0  0  0
  148.9741  137.8303  153.1642 H   0  0  0  0  0  0  0  0  0  0  0  0
  149.8104  139.1162  152.6504 H   0  0  0  0  0  0  0  0  0  0  0  0
  151.7670  139.0917  154.7149 H   0  0  0  0  0  0  0  0  0  0  0  0
  1  2  1  0  0  0  0
  1 16  1  0  0  0  0
  1 17  1  0  0  0  0
  1 18  1  0  0  0  0
  2 14  1  0  0  0  0
  2  3  1  0  0  0  0
  3  4  2  0  0  0  0
  3 19  1  0  0  0  0
  4  5  1  0  0  0  0
  4 13  1  0  0  0  0
  5 11  1  0  0  0  0
  5  6  1  0  0  0  0
  5 20  1  0  0  0  0
  6  7  1  0  0  0  0
  6 21  1  0  0  0  0
  7  8  2  0  0  0  0
  7  9  1  0  0  0  0
  9 10  1  0  0  0  0
  9 22  1  0  0  0  0
  9 23  1  0  0  0  0
 10 11  1  0  0  0  0
 10 24  1  0  0  0  0
 10 25  1  0  0  0  0
 11 15  1  0  0  0  0
 11 12  1  0  0  0  0
 12 26  1  0  0  0  0
 12 27  1  0  0  0  0
 13 14  2  0  0  0  0
 13 28  1  0  0  0  0
M  END
> <s_m_source_file>
AV-unprocessed.smi

> <i_m_source_file_index>
743

> <i_lp_mmshare_version>
43012

> <i_f3d_flags>
0

> <s_epik_input>
W0NIM11uMVtjSF1jKFtjSF1uMSlbQ0BASF0yW05IXUMoPU8pW0NIMl1bQ0gyXVtDQEBIXTJbTkgyXQ==

> <s_epik_cmdline>
J2VwaWtfcHl0aG9uJywgJy1waCcsICc3LjAnLCAnLXRuJywgJzgnLCAnLW1hJywgJzIwMCcsICctbWV0YWxfYmluZGluZycsICctaW1hZScsICc8aW5maWxlLm1hZT4nLCAnLW9tYWUnLCAnPG91dGZpbGUubWFlPic=

> <r_lp_tautomer_probability>
1

> <r_epik_Ionization_Penalty>
2.50279

> <r_epik_Ionization_Penalty_Charging>
0

> <r_epik_Ionization_Penalty_Neutral>
2.50279

> <r_epik_State_Penalty>
2.66754

> <r_epik_Charging_Adjusted_Penalty>
2.66754

> <i_epik_Tot_Q>
0

> <i_epik_Tot_abs_Q>
0

> <r_epik_Metal_State_Penalty>
2.66721

> <b_epik_Metal_Only>
0

> <s_lp_Force_Field>
OPLS_2005

> <r_lp_Energy>
8.43832

> <b_lp_Chiralities_Consistent>
1

> <s_lp_Variant>
AV-unprocessed.smi:743-7

> <Gold.Version>
5.8.1

> <Gold.Id.Protein>
6NUR|6NUR_protein|mol2

> <Gold.PLP.Fitness>
37.5646

> <Gold.PLP.PLP>
-25.9992

> <Gold.PLP.part.hbond>
-4.0000

> <Gold.PLP.part.metal>
0.0000

> <Gold.PLP.part.buried>
-1.3947

> <Gold.PLP.part.nonpolar>
-21.2175

> <Gold.PLP.part.repulsive>
0.3342

> <Gold.PLP.ligand.clash>
0.0000

> <Gold.PLP.ligand.torsion>
0.0481

> <Gold.PLP.Chemscore.Hbond>
3.8786

> <Gold.PLP.Chemscore.CHOScore>
0.0000

> <Gold.PLP.Chemscore.Metal>
0.0000

> <Gold.Chemscore.Hbonds>
donor molecule, donor type, donor heavy atom, donor atom, acceptor molecule, acceptor atom, score
      L1  H     6    21       P1  8028  0.99
      L1  H    12    26       P1  7948  0.86
      L1  H    12    27       P1  7957  1.00
      P1  H  7997  8010       L1    14  1.00

> <Gold.PLP.Chemscore.Internal.Correction>
0.0258

> <Gold.Rescore>
     Score         DG    S(hbond)    S(metal)    S(lipo)     H(rot)  DE(clash)    DE(int)     intcor
     20.75     -20.85       3.49        0.00      53.61       1.00       0.08       0.01       ----

> <Gold.Chemscore.Fitness>
20.7545

> <Gold.Chemscore.DG>
-20.8486

> <Gold.Chemscore.ZeroCoef>
-5.4800

> <Gold.Chemscore.Hbond>
3.4901

> <Gold.Chemscore.Metal>
0.0000

> <Gold.Chemscore.Lipo>
53.6052

> <Gold.Chemscore.Internal_Hbond>
0.0000

> <Gold.Chemscore.DEClash>
0.0812

> <Gold.Chemscore.DEInternal>
0.0129

> <Gold.Chemscore.Rot>
1.0000

> <Gold.Chemscore.Internal.Correction>
   9.000000E+99

> <Gold.Chemscore.Hbonds>
donor molecule, donor type, donor heavy atom, donor atom, acceptor molecule, acceptor atom, score
      L1  H     6    21       P1  8028  0.88
      L1  H    12    26       P1  7948  0.80
      L1  H    12    27       P1  7957  0.86
      P1  H  7997  8010       L1    14  0.73

> <Gold.Chemscore.Hbond.Weighted>
-11.6568

> <Gold.Chemscore.Metal.Weighted>
-0.0000

> <Gold.Chemscore.Lipo.Weighted>
-6.2718

> <Gold.Chemscore.Internal_Hbond.Weighted>
0.0000

> <Gold.Chemscore.DEClash.Weighted>
0.0812

> <Gold.Chemscore.DEInternal.Weighted>
0.0129

> <Gold.Chemscore.Rot.Weighted>
2.5600

> <Gold.Chemscore.Internal.Correction.Weighted>
   9.000000E+99

> <Gold.Protein.RotatedTorsions>
[ 6907 6896 6895 6894 ] final  -24.93 input  -60.11 | X-H torsion
[ 7974 7965 7964 7962 ] final  -56.44 input  175.53 | X-H torsion
[ 8008 7997 7996 7995 ] final   66.43 input   59.86 | X-H torsion
[ 10167 10162 10161 10158 ] final -128.09 input  -65.29 | X-H torsion
[ 10718 10713 10712 10709 ] final -162.84 input   66.30 | X-H torsion
[ 10763 10752 10751 10750 ] final -107.57 input  -60.55 | X-H torsion
[ 11005 11000 10999 10996 ] final  108.81 input  -57.11 | X-H torsion

> <Gold.Protein.ActiveResidues>
 VAL166  LYS551  ARG553  GLY616  TRP617  ASP618  TYR619  PRO620  LYS621  CYS622 
 ASP623  PHE694  ASN695  SER759  ASP760  ASP761  ALA762  ILE779  LEU786  VAL792 
 PHE793  MET794  SER795  GLU796  ALA797  LYS798  CYS799  TRP800  GLU811  SER814 

> <Gold.Protein.RotatedAtoms>
  151.1825  135.0367  159.8798 H   0  0  0  0  0  0  0  0  0  0  0  0  # atno 6907 bound_to 6896
  152.5444  134.1047  159.8343 H   0  0  0  0  0  0  0  0  0  0  0  0  # atno 6908 bound_to 6896
  151.1166  133.5087  159.2636 H   0  0  0  0  0  0  0  0  0  0  0  0  # atno 6909 bound_to 6896
  145.8627  140.8274  142.9929 H   0  0  0  0  0  0  0  0  0  0  0  0  # atno 7974 bound_to 7965
  155.6772  140.3497  155.4841 H   0  0  0  0  0  0  0  0  0  0  0  0  # atno 8008 bound_to 7997
  155.9638  140.1142  157.0895 H   0  0  0  0  0  0  0  0  0  0  0  0  # atno 8009 bound_to 7997
  154.4149  140.1170  156.5200 H   0  0  0  0  0  0  0  0  0  0  0  0  # atno 8010 bound_to 7997
  139.9540  143.6024  152.2466 H   0  0  0  0  0  0  0  0  0  0  0  0  # atno 10167 bound_to 10162
  156.6162  130.8871  151.2947 H   0  0  0  0  0  0  0  0  0  0  0  0  # atno 10718 bound_to 10713
  154.8083  135.4670  154.0450 H   0  0  0  0  0  0  0  0  0  0  0  0  # atno 10763 bound_to 10752
  153.1901  135.6854  153.8370 H   0  0  0  0  0  0  0  0  0  0  0  0  # atno 10764 bound_to 10752
  153.7891  135.3246  155.3353 H   0  0  0  0  0  0  0  0  0  0  0  0  # atno 10765 bound_to 10752
  139.8850  134.9441  156.6029 H   0  0  0  0  0  0  0  0  0  0  0  0  # atno 11005 bound_to 11000
  144.6726  140.1119  143.7455 LP  0  0  0  0  0  0  0  0  0  0  0  0  # atno 17320 bound_to 7965
  145.9229  139.2557  143.1370 LP  0  0  0  0  0  0  0  0  0  0  0  0  # atno 17321 bound_to 7965
  139.6606  144.7662  151.1970 LP  0  0  0  0  0  0  0  0  0  0  0  0  # atno 17342 bound_to 10162
  140.7574  143.6016  150.8694 LP  0  0  0  0  0  0  0  0  0  0  0  0  # atno 17343 bound_to 10162
  157.7240  130.9597  150.1557 LP  0  0  0  0  0  0  0  0  0  0  0  0  # atno 17370 bound_to 10713
  156.2349  130.3685  149.8403 LP  0  0  0  0  0  0  0  0  0  0  0  0  # atno 17371 bound_to 10713
  140.7870  133.8613  155.8614 LP  0  0  0  0  0  0  0  0  0  0  0  0  # atno 17394 bound_to 11000
  140.9711  134.1530  157.4575 LP  0  0  0  0  0  0  0  0  0  0  0  0  # atno 17395 bound_to 11000

$$$$
