AV-unprocessed.smi:527|AV-procd|sdf|2819|dock4
  -GOLD-   2262023303D 1   1.00000     0.00000
 Structure written by MMmdl.
 42 43  0  0  0  0  0  0  0  0  1 V2000
  149.3039  140.7010  156.2906 C   0  0  0  0  0  0  0  0  0  0  0  0
  149.3788  140.8598  154.7580 C   0  0  2  0  0  0  0  0  0  0  0  0
  148.4648  141.9977  154.2603 C   0  0  0  0  0  0  0  0  0  0  0  0
  146.9774  141.6174  154.3244 C   0  0  0  0  0  0  0  0  0  0  0  0
  146.7012  140.3242  153.5452 C   0  0  0  0  0  0  0  0  0  0  0  0
  147.5960  139.1609  154.0226 C   0  0  1  0  0  0  0  0  0  0  0  0
  147.3496  137.9792  153.1979 N   0  0  0  0  0  0  0  0  0  0  0  0
  146.1835  137.3224  153.1079 C   0  0  0  0  0  0  0  0  0  0  0  0
  145.2596  137.4693  153.9111 O   0  0  0  0  0  0  0  0  0  0  0  0
  146.1745  136.5010  152.0402 N   0  0  0  0  0  0  0  0  0  0  0  0
  145.1325  135.7977  151.5516 C   0  0  0  0  0  0  0  0  0  0  0  0
  143.9921  135.8090  152.0223 O   0  0  0  0  0  0  0  0  0  0  0  0
  145.4588  134.9402  150.3214 C   0  0  0  0  0  0  0  0  0  0  0  0
  145.0616  133.5506  150.4731 N   0  0  0  0  0  0  0  0  0  0  0  0
  143.7676  133.0517  150.5582 C   0  0  0  0  0  0  0  0  0  0  0  0
  143.8806  131.6863  150.6919 C   0  0  0  0  0  0  0  0  0  0  0  0
  145.2259  131.3248  150.6911 N   0  0  0  0  0  0  0  0  0  0  0  0
  145.8642  132.4802  150.5558 C   0  0  0  0  0  0  0  0  0  0  0  0
  149.0954  139.5536  153.9686 C   0  0  2  0  0  0  0  0  0  0  0  0
  150.0348  138.4032  154.3815 C   0  0  0  0  0  0  0  0  0  0  0  0
  148.3279  140.3476  156.6215 H   0  0  0  0  0  0  0  0  0  0  0  0
  149.4926  141.6520  156.7891 H   0  0  0  0  0  0  0  0  0  0  0  0
  150.0514  139.9981  156.6575 H   0  0  0  0  0  0  0  0  0  0  0  0
  150.4033  141.1600  154.5334 H   0  0  0  0  0  0  0  0  0  0  0  0
  148.6428  142.9061  154.8369 H   0  0  0  0  0  0  0  0  0  0  0  0
  148.7242  142.2413  153.2293 H   0  0  0  0  0  0  0  0  0  0  0  0
  146.6665  141.4951  155.3621 H   0  0  0  0  0  0  0  0  0  0  0  0
  146.3712  142.4280  153.9191 H   0  0  0  0  0  0  0  0  0  0  0  0
  145.6485  140.0578  153.6483 H   0  0  0  0  0  0  0  0  0  0  0  0
  146.8690  140.5047  152.4824 H   0  0  0  0  0  0  0  0  0  0  0  0
  147.3402  138.9216  155.0563 H   0  0  0  0  0  0  0  0  0  0  0  0
  148.1333  137.6298  152.6664 H   0  0  0  0  0  0  0  0  0  0  0  0
  147.0503  136.3971  151.5496 H   0  0  0  0  0  0  0  0  0  0  0  0
  144.9575  135.3531  149.4449 H   0  0  0  0  0  0  0  0  0  0  0  0
  146.5315  134.9772  150.1273 H   0  0  0  0  0  0  0  0  0  0  0  0
  142.8982  133.6912  150.5157 H   0  0  0  0  0  0  0  0  0  0  0  0
  143.1037  130.9422  150.7880 H   0  0  0  0  0  0  0  0  0  0  0  0
  146.9413  132.5496  150.5159 H   0  0  0  0  0  0  0  0  0  0  0  0
  149.3280  139.7721  152.9247 H   0  0  0  0  0  0  0  0  0  0  0  0
  149.7953  138.0261  155.3760 H   0  0  0  0  0  0  0  0  0  0  0  0
  151.0751  138.7294  154.3881 H   0  0  0  0  0  0  0  0  0  0  0  0
  149.9668  137.5635  153.6898 H   0  0  0  0  0  0  0  0  0  0  0  0
  1  2  1  0  0  0  0
  1 21  1  0  0  0  0
  1 22  1  0  0  0  0
  1 23  1  0  0  0  0
  2 19  1  0  0  0  0
  2  3  1  0  0  0  0
  2 24  1  0  0  0  0
  3  4  1  0  0  0  0
  3 25  1  0  0  0  0
  3 26  1  0  0  0  0
  4  5  1  0  0  0  0
  4 27  1  0  0  0  0
  4 28  1  0  0  0  0
  5  6  1  0  0  0  0
  5 29  1  0  0  0  0
  5 30  1  0  0  0  0
  6  7  1  0  0  0  0
  6 19  1  0  0  0  0
  6 31  1  0  0  0  0
  7  8  1  0  0  0  0
  7 32  1  0  0  0  0
  8  9  2  0  0  0  0
  8 10  1  0  0  0  0
 10 11  1  0  0  0  0
 10 33  1  0  0  0  0
 11 12  2  0  0  0  0
 11 13  1  0  0  0  0
 13 14  1  0  0  0  0
 13 34  1  0  0  0  0
 13 35  1  0  0  0  0
 14 18  1  0  0  0  0
 14 15  1  0  0  0  0
 15 16  2  0  0  0  0
 15 36  1  0  0  0  0
 16 17  1  0  0  0  0
 16 37  1  0  0  0  0
 17 18  2  0  0  0  0
 18 38  1  0  0  0  0
 19 20  1  0  0  0  0
 19 39  1  0  0  0  0
 20 40  1  0  0  0  0
 20 41  1  0  0  0  0
 20 42  1  0  0  0  0
M  END
> <s_m_source_file>
AV-unprocessed.smi

> <i_m_source_file_index>
527

> <i_lp_mmshare_version>
43012

> <i_f3d_flags>
0

> <s_epik_input>
W0NIM11bQ0BASF0xW0NIMl1bQ0gyXVtDSDJdW0NASF0oW0NASF0xW0NIM10pW05IXUMoPU8pW05IXUMoPU8pW0NIMl1uMltjSF1bY0hdbltjSF0y

> <s_epik_cmdline>
J2VwaWtfcHl0aG9uJywgJy1waCcsICc3LjAnLCAnLXRuJywgJzgnLCAnLW1hJywgJzIwMCcsICctbWV0YWxfYmluZGluZycsICctaW1hZScsICc8aW5maWxlLm1hZT4nLCAnLW9tYWUnLCAnPG91dGZpbGUubWFlPic=

> <r_lp_tautomer_probability>
1

> <r_epik_Ionization_Penalty>
0.172132

> <r_epik_Ionization_Penalty_Charging>
0.172105

> <r_epik_Ionization_Penalty_Neutral>
2.71747e-05

> <r_epik_State_Penalty>
0.161503

> <r_epik_Charging_Adjusted_Penalty>
0.333607

> <i_epik_Tot_Q>
0

> <i_epik_Tot_abs_Q>
0

> <r_epik_Metal_State_Penalty>
0.124763

> <b_epik_Metal_Only>
0

> <s_lp_Force_Field>
OPLS_2005

> <r_lp_Energy>
17.7357

> <b_lp_Chiralities_Consistent>
1

> <s_lp_Variant>
AV-unprocessed.smi:527-5

> <Gold.Version>
5.8.1

> <Gold.Id.Protein>
6NUR|6NUR_protein|mol2

> <Gold.PLP.Fitness>
45.1579

> <Gold.PLP.PLP>
-31.2320

> <Gold.PLP.part.hbond>
-1.9777

> <Gold.PLP.part.metal>
0.0000

> <Gold.PLP.part.buried>
0.5908

> <Gold.PLP.part.nonpolar>
-30.1420

> <Gold.PLP.part.repulsive>
0.4350

> <Gold.PLP.ligand.clash>
0.0000

> <Gold.PLP.ligand.torsion>
0.1869

> <Gold.PLP.Chemscore.Hbond>
1.9440

> <Gold.PLP.Chemscore.CHOScore>
2.8171

> <Gold.PLP.Chemscore.Metal>
0.0000

> <Gold.Chemscore.Hbonds>
donor molecule, donor type, donor heavy atom, donor atom, acceptor molecule, acceptor atom, score
      L1  H     7    32       P1  7948  0.99
      L1  H    10    33       P1  7948  0.86
      L1  C    15    36       P1 10186  1.00
      L1  C    16    37       P1 10952  0.66
      L1  C    18    38       P1 10747  0.70

> <Gold.PLP.Chemscore.Internal.Correction>
0.0166

> <Gold.Rescore>
     Score         DG    S(hbond)    S(metal)    S(lipo)     H(rot)  DE(clash)    DE(int)     intcor
     14.37     -16.01       1.90        0.00      72.18       1.66       0.13       1.51       ----

> <Gold.Chemscore.Fitness>
14.3725

> <Gold.Chemscore.DG>
-16.0097

> <Gold.Chemscore.ZeroCoef>
-5.4800

> <Gold.Chemscore.Hbond>
1.8988

> <Gold.Chemscore.Metal>
0.0000

> <Gold.Chemscore.Lipo>
72.1759

> <Gold.Chemscore.Internal_Hbond>
0.0000

> <Gold.Chemscore.DEClash>
0.1260

> <Gold.Chemscore.DEInternal>
1.5112

> <Gold.Chemscore.Rot>
1.6629

> <Gold.Chemscore.Internal.Correction>
   9.000000E+99

> <Gold.Chemscore.Hbonds>
donor molecule, donor type, donor heavy atom, donor atom, acceptor molecule, acceptor atom, score
      L1  H     7    32       P1  7948  0.94
      L1  H    10    33       P1  7948  0.85

> <Gold.Chemscore.Hbond.Weighted>
-6.3421

> <Gold.Chemscore.Metal.Weighted>
-0.0000

> <Gold.Chemscore.Lipo.Weighted>
-8.4446

> <Gold.Chemscore.Internal_Hbond.Weighted>
0.0000

> <Gold.Chemscore.DEClash.Weighted>
0.1260

> <Gold.Chemscore.DEInternal.Weighted>
1.5112

> <Gold.Chemscore.Rot.Weighted>
4.2569

> <Gold.Chemscore.Internal.Correction.Weighted>
   9.000000E+99

> <Gold.Protein.RotatedTorsions>
[ 6907 6896 6895 6894 ] final  -23.66 input  -60.11 | X-H torsion
[ 7974 7965 7964 7962 ] final   81.90 input  175.53 | X-H torsion
[ 8008 7997 7996 7995 ] final -170.87 input   59.86 | X-H torsion
[ 10167 10162 10161 10158 ] final  -53.16 input  -65.29 | X-H torsion
[ 10718 10713 10712 10709 ] final   83.68 input   66.30 | X-H torsion
[ 10763 10752 10751 10750 ] final  -29.52 input  -60.55 | X-H torsion
[ 11005 11000 10999 10996 ] final  -32.04 input  -57.11 | X-H torsion

> <Gold.Protein.ActiveResidues>
 VAL166  LYS551  ARG553  GLY616  TRP617  ASP618  TYR619  PRO620  LYS621  CYS622 
 ASP623  PHE694  ASN695  SER759  ASP760  ASP761  ALA762  ILE779  LEU786  VAL792 
 PHE793  MET794  SER795  GLU796  ALA797  LYS798  CYS799  TRP800  GLU811  SER814 

> <Gold.Protein.RotatedAtoms>
  151.2008  135.0441  159.8870 H   0  0  0  0  0  0  0  0  0  0  0  0  # atno 6907 bound_to 6896
  152.5433  134.0853  159.8263 H   0  0  0  0  0  0  0  0  0  0  0  0  # atno 6908 bound_to 6896
  151.0993  133.5208  159.2643 H   0  0  0  0  0  0  0  0  0  0  0  0  # atno 6909 bound_to 6896
  145.6320  139.2407  143.2079 H   0  0  0  0  0  0  0  0  0  0  0  0  # atno 7974 bound_to 7965
  155.9240  140.1079  157.1184 H   0  0  0  0  0  0  0  0  0  0  0  0  # atno 8008 bound_to 7997
  154.4059  140.1250  156.4782 H   0  0  0  0  0  0  0  0  0  0  0  0  # atno 8009 bound_to 7997
  155.7161  140.3470  155.4997 H   0  0  0  0  0  0  0  0  0  0  0  0  # atno 8010 bound_to 7997
  140.6500  143.2559  151.4752 H   0  0  0  0  0  0  0  0  0  0  0  0  # atno 10167 bound_to 10162
  157.6883  131.0101  150.2559 H   0  0  0  0  0  0  0  0  0  0  0  0  # atno 10718 bound_to 10713
  153.7659  135.6916  153.4916 H   0  0  0  0  0  0  0  0  0  0  0  0  # atno 10763 bound_to 10752
  153.1907  135.4472  155.0144 H   0  0  0  0  0  0  0  0  0  0  0  0  # atno 10764 bound_to 10752
  154.8136  135.3388  154.7171 H   0  0  0  0  0  0  0  0  0  0  0  0  # atno 10765 bound_to 10752
  140.9519  133.7216  156.1233 H   0  0  0  0  0  0  0  0  0  0  0  0  # atno 11005 bound_to 11000
  146.1349  140.7136  142.9395 LP  0  0  0  0  0  0  0  0  0  0  0  0  # atno 17320 bound_to 7965
  144.7190  140.4308  143.7023 LP  0  0  0  0  0  0  0  0  0  0  0  0  # atno 17321 bound_to 7965
  139.5714  144.1921  152.1841 LP  0  0  0  0  0  0  0  0  0  0  0  0  # atno 17342 bound_to 10162
  140.1218  144.5366  150.6858 LP  0  0  0  0  0  0  0  0  0  0  0  0  # atno 17343 bound_to 10162
  156.3147  130.3777  149.7629 LP  0  0  0  0  0  0  0  0  0  0  0  0  # atno 17370 bound_to 10713
  156.5218  130.8218  151.3206 LP  0  0  0  0  0  0  0  0  0  0  0  0  # atno 17371 bound_to 10713
  140.7591  134.3959  157.5529 LP  0  0  0  0  0  0  0  0  0  0  0  0  # atno 17394 bound_to 11000
  139.8850  134.8949  156.2669 LP  0  0  0  0  0  0  0  0  0  0  0  0  # atno 17395 bound_to 11000

$$$$
