AV-unprocessed.smi:1056|AV-procd|sdf|4639|dock8
  -GOLD-   22720 3143D 1   1.00000     0.00000
 Structure written by MMmdl.
 44 46  0  0  0  0  0  0  0  0  1 V2000
  152.8605  142.6217  161.4421 C   0  0  0  0  0  0  0  0  0  0  0  0
  152.3553  142.3063  160.0451 C   0  0  0  0  0  0  0  0  0  0  0  0
  152.7492  141.0973  159.4284 C   0  0  0  0  0  0  0  0  0  0  0  0
  152.3005  140.7664  158.1309 C   0  0  0  0  0  0  0  0  0  0  0  0
  152.5560  139.6528  157.3488 N   0  0  0  0  0  0  0  0  0  0  0  0
  151.8566  139.9301  156.2524 C   0  0  0  0  0  0  0  0  0  0  0  0
  151.1777  141.0929  156.2310 N   0  0  0  0  0  0  0  0  0  0  0  0
  150.3527  141.6015  155.1496 C   0  0  0  0  0  0  0  0  0  0  0  0
  148.8537  141.3164  155.3654 C   0  0  1  0  0  0  0  0  0  0  0  0
  148.0957  142.3976  154.8575 O   0  0  0  0  0  0  0  0  0  0  0  0
  148.4137  140.0246  154.6457 C   0  0  0  0  0  0  0  0  0  0  0  0
  146.9600  139.8330  154.4975 N   0  0  0  0  0  0  0  0  0  0  0  0
  146.4795  138.5340  154.9823 C   0  0  0  0  0  0  0  0  0  0  0  0
  146.9810  137.3415  154.1429 C   0  0  0  0  0  0  0  0  0  0  0  0
  146.9493  137.6196  152.7074 N   0  0  0  0  0  0  0  0  0  0  0  0
  146.7896  138.8392  152.1645 C   0  0  0  0  0  0  0  0  0  0  0  0
  146.8297  139.0190  150.9497 O   0  0  0  0  0  0  0  0  0  0  0  0
  146.5191  140.0290  153.1077 C   0  0  0  0  0  0  0  0  0  0  0  0
  151.4416  141.6862  157.4610 C   0  0  0  0  0  0  0  0  0  0  0  0
  151.0424  142.8917  158.0645 C   0  0  0  0  0  0  0  0  0  0  0  0
  151.4990  143.2064  159.3614 C   0  0  0  0  0  0  0  0  0  0  0  0
  151.0606  144.5100  160.0049 C   0  0  0  0  0  0  0  0  0  0  0  0
  153.4829  141.8156  161.8320 H   0  0  0  0  0  0  0  0  0  0  0  0
  152.0257  142.7610  162.1294 H   0  0  0  0  0  0  0  0  0  0  0  0
  153.4594  143.5328  161.4342 H   0  0  0  0  0  0  0  0  0  0  0  0
  153.4013  140.4112  159.9485 H   0  0  0  0  0  0  0  0  0  0  0  0
  151.8347  139.2481  155.4150 H   0  0  0  0  0  0  0  0  0  0  0  0
  150.5301  142.6728  155.0473 H   0  0  0  0  0  0  0  0  0  0  0  0
  150.6916  141.1412  154.2206 H   0  0  0  0  0  0  0  0  0  0  0  0
  148.6764  141.2424  156.4373 H   0  0  0  0  0  0  0  0  0  0  0  0
  148.5574  143.2002  155.0474 H   0  0  0  0  0  0  0  0  0  0  0  0
  148.8747  140.0291  153.6566 H   0  0  0  0  0  0  0  0  0  0  0  0
  148.8527  139.1675  155.1572 H   0  0  0  0  0  0  0  0  0  0  0  0
  146.7195  138.3862  156.0338 H   0  0  0  0  0  0  0  0  0  0  0  0
  145.3888  138.5390  154.9487 H   0  0  0  0  0  0  0  0  0  0  0  0
  148.0069  137.0945  154.4173 H   0  0  0  0  0  0  0  0  0  0  0  0
  146.3822  136.4546  154.3510 H   0  0  0  0  0  0  0  0  0  0  0  0
  147.1011  136.8399  152.0840 H   0  0  0  0  0  0  0  0  0  0  0  0
  145.4413  140.1961  153.1017 H   0  0  0  0  0  0  0  0  0  0  0  0
  146.9573  140.9359  152.6888 H   0  0  0  0  0  0  0  0  0  0  0  0
  150.3868  143.5661  157.5336 H   0  0  0  0  0  0  0  0  0  0  0  0
  150.4279  145.0917  159.3337 H   0  0  0  0  0  0  0  0  0  0  0  0
  151.9264  145.1207  160.2611 H   0  0  0  0  0  0  0  0  0  0  0  0
  150.4925  144.3138  160.9145 H   0  0  0  0  0  0  0  0  0  0  0  0
  1  2  1  0  0  0  0
  1 23  1  0  0  0  0
  1 24  1  0  0  0  0
  1 25  1  0  0  0  0
  2 21  1  0  0  0  0
  2  3  2  0  0  0  0
  3  4  1  0  0  0  0
  3 26  1  0  0  0  0
  4 19  2  0  0  0  0
  4  5  1  0  0  0  0
  5  6  2  0  0  0  0
  6  7  1  0  0  0  0
  6 27  1  0  0  0  0
  7  8  1  0  0  0  0
  7 19  1  0  0  0  0
  8  9  1  0  0  0  0
  8 28  1  0  0  0  0
  8 29  1  0  0  0  0
  9 10  1  0  0  0  0
  9 11  1  0  0  0  0
  9 30  1  0  0  0  0
 10 31  1  0  0  0  0
 11 12  1  0  0  0  0
 11 32  1  0  0  0  0
 11 33  1  0  0  0  0
 12 18  1  0  0  0  0
 12 13  1  0  0  0  0
 13 14  1  0  0  0  0
 13 34  1  0  0  0  0
 13 35  1  0  0  0  0
 14 15  1  0  0  0  0
 14 36  1  0  0  0  0
 14 37  1  0  0  0  0
 15 16  1  0  0  0  0
 15 38  1  0  0  0  0
 16 17  2  0  0  0  0
 16 18  1  0  0  0  0
 18 39  1  0  0  0  0
 18 40  1  0  0  0  0
 19 20  1  0  0  0  0
 20 21  2  0  0  0  0
 20 41  1  0  0  0  0
 21 22  1  0  0  0  0
 22 42  1  0  0  0  0
 22 43  1  0  0  0  0
 22 44  1  0  0  0  0
M  END
> <s_m_source_file>
AV-unprocessed.smi

> <i_m_source_file_index>
1056

> <i_lp_mmshare_version>
43012

> <i_f3d_flags>
0

> <s_epik_input>
W0NIM11jKFtjSF0xKWMoW0NIM10pW2NIXWMoYzEyKW4oW2NIXW4yKVtDSDJdW0NASF0oW09IXSlbQ0gyXU4zW0NIMl1bQ0gyXVtOSF1DKD1PKVtDSDJdMw==

> <s_epik_cmdline>
J2VwaWtfcHl0aG9uJywgJy1waCcsICc3LjAnLCAnLXRuJywgJzgnLCAnLW1hJywgJzIwMCcsICctbWV0YWxfYmluZGluZycsICctaW1hZScsICc8aW5maWxlLm1hZT4nLCAnLW9tYWUnLCAnPG91dGZpbGUubWFlPic=

> <r_epik_Ionization_Penalty>
1.40166

> <r_epik_Ionization_Penalty_Charging>
0

> <r_epik_Ionization_Penalty_Neutral>
1.40166

> <r_epik_State_Penalty>
1.44226

> <r_epik_Charging_Adjusted_Penalty>
1.44226

> <i_epik_Tot_Q>
0

> <i_epik_Tot_abs_Q>
0

> <r_epik_Metal_State_Penalty>
1.50267

> <b_epik_Metal_Only>
0

> <s_lp_Force_Field>
OPLS_2005

> <r_lp_Energy>
31.4444

> <b_lp_Chiralities_Consistent>
1

> <s_lp_Variant>
AV-unprocessed.smi:1056-10

> <Gold.Version>
5.8.1

> <Gold.Id.Protein>
6NUR|6NUR_protein|mol2

> <Gold.PLP.Fitness>
45.2988

> <Gold.PLP.PLP>
-38.5145

> <Gold.PLP.part.hbond>
-4.0000

> <Gold.PLP.part.metal>
0.0000

> <Gold.PLP.part.buried>
-3.0995

> <Gold.PLP.part.nonpolar>
-32.7819

> <Gold.PLP.part.repulsive>
1.3130

> <Gold.PLP.ligand.clash>
0.0000

> <Gold.PLP.ligand.torsion>
1.5957

> <Gold.PLP.Chemscore.Hbond>
3.3120

> <Gold.PLP.Chemscore.CHOScore>
0.0000

> <Gold.PLP.Chemscore.Metal>
0.0000

> <Gold.Chemscore.Hbonds>
donor molecule, donor type, donor heavy atom, donor atom, acceptor molecule, acceptor atom, score
      L1  H    10    31       P1  8028  1.00
      L1  H    15    38       P1  7948  0.35
      P1  H  7954  7966       L1    17  0.76
      P1  H  7997  8009       L1     5  0.95

> <Gold.PLP.Chemscore.Internal.Correction>
0.0397

> <Gold.Rescore>
     Score         DG    S(hbond)    S(metal)    S(lipo)     H(rot)  DE(clash)    DE(int)     intcor
     15.79     -20.00       2.44        0.00     105.05       2.31       2.57       1.65       ----

> <Gold.Chemscore.Fitness>
15.7851

> <Gold.Chemscore.DG>
-20.0037

> <Gold.Chemscore.ZeroCoef>
-5.4800

> <Gold.Chemscore.Hbond>
2.4427

> <Gold.Chemscore.Metal>
0.0000

> <Gold.Chemscore.Lipo>
105.0488

> <Gold.Chemscore.Internal_Hbond>
0.0000

> <Gold.Chemscore.DEClash>
2.5667

> <Gold.Chemscore.DEInternal>
1.6519

> <Gold.Chemscore.Rot>
2.3147

> <Gold.Chemscore.Internal.Correction>
   9.000000E+99

> <Gold.Chemscore.Hbonds>
donor molecule, donor type, donor heavy atom, donor atom, acceptor molecule, acceptor atom, score
      L1  H    10    31       P1  8028  0.99
      L1  H    15    38       P1  7948  0.36
      P1  H  7954  7966       L1    17  0.67
      P1  H  7997  8009       L1     5  0.08

> <Gold.Chemscore.Hbond.Weighted>
-8.1585

> <Gold.Chemscore.Metal.Weighted>
-0.0000

> <Gold.Chemscore.Lipo.Weighted>
-12.2907

> <Gold.Chemscore.Internal_Hbond.Weighted>
0.0000

> <Gold.Chemscore.DEClash.Weighted>
2.5667

> <Gold.Chemscore.DEInternal.Weighted>
1.6519

> <Gold.Chemscore.Rot.Weighted>
5.9256

> <Gold.Chemscore.Internal.Correction.Weighted>
   9.000000E+99

> <Gold.Protein.RotatedTorsions>
[ 6907 6896 6895 6894 ] final  159.93 input  -60.11 | X-H torsion
[ 7974 7965 7964 7962 ] final  -77.95 input  175.53 | X-H torsion
[ 8008 7997 7996 7995 ] final  170.68 input   59.86 | X-H torsion
[ 10167 10162 10161 10158 ] final  123.26 input  -65.29 | X-H torsion
[ 10718 10713 10712 10709 ] final  -39.45 input   66.30 | X-H torsion
[ 10763 10752 10751 10750 ] final   41.71 input  -60.55 | X-H torsion
[ 11005 11000 10999 10996 ] final   43.95 input  -57.11 | X-H torsion

> <Gold.Protein.ActiveResidues>
 VAL166  LYS551  ARG553  GLY616  TRP617  ASP618  TYR619  PRO620  LYS621  CYS622 
 ASP623  PHE694  ASN695  SER759  ASP760  ASP761  ALA762  ILE779  LEU786  VAL792 
 PHE793  MET794  SER795  GLU796  ALA797  LYS798  CYS799  TRP800  GLU811  SER814 

> <Gold.Protein.RotatedAtoms>
  151.9782  133.3748  159.4096 H   0  0  0  0  0  0  0  0  0  0  0  0  # atno 6907 bound_to 6896
  150.6938  134.4067  159.5152 H   0  0  0  0  0  0  0  0  0  0  0  0  # atno 6908 bound_to 6896
  152.1782  134.8777  160.0579 H   0  0  0  0  0  0  0  0  0  0  0  0  # atno 6909 bound_to 6896
  145.5929  140.9425  143.1282 H   0  0  0  0  0  0  0  0  0  0  0  0  # atno 7974 bound_to 7965
  156.1343  140.1531  156.9018 H   0  0  0  0  0  0  0  0  0  0  0  0  # atno 8008 bound_to 7997
  154.4934  140.0845  156.7684 H   0  0  0  0  0  0  0  0  0  0  0  0  # atno 8009 bound_to 7997
  155.4198  140.3422  155.4272 H   0  0  0  0  0  0  0  0  0  0  0  0  # atno 8010 bound_to 7997
  139.5810  144.6986  151.3529 H   0  0  0  0  0  0  0  0  0  0  0  0  # atno 10167 bound_to 10162
  156.2923  130.4230  149.8226 H   0  0  0  0  0  0  0  0  0  0  0  0  # atno 10718 bound_to 10713
  152.9901  135.6153  154.2832 H   0  0  0  0  0  0  0  0  0  0  0  0  # atno 10763 bound_to 10752
  154.2560  135.2784  155.2799 H   0  0  0  0  0  0  0  0  0  0  0  0  # atno 10764 bound_to 10752
  154.5247  135.5805  153.6766 H   0  0  0  0  0  0  0  0  0  0  0  0  # atno 10765 bound_to 10752
  140.1597  134.4357  155.8326 H   0  0  0  0  0  0  0  0  0  0  0  0  # atno 11005 bound_to 11000
  144.7343  139.7631  143.7335 LP  0  0  0  0  0  0  0  0  0  0  0  0  # atno 17320 bound_to 7965
  146.1633  139.4756  142.9974 LP  0  0  0  0  0  0  0  0  0  0  0  0  # atno 17321 bound_to 7965
  140.7088  143.7444  150.7529 LP  0  0  0  0  0  0  0  0  0  0  0  0  # atno 17342 bound_to 10162
  140.0977  143.4817  152.2443 LP  0  0  0  0  0  0  0  0  0  0  0  0  # atno 17343 bound_to 10162
  156.5634  130.8393  151.3335 LP  0  0  0  0  0  0  0  0  0  0  0  0  # atno 17370 bound_to 10713
  157.7346  130.9748  150.2037 LP  0  0  0  0  0  0  0  0  0  0  0  0  # atno 17371 bound_to 10713
  141.2208  133.6908  156.7572 LP  0  0  0  0  0  0  0  0  0  0  0  0  # atno 17394 bound_to 11000
  140.2504  134.8545  157.3662 LP  0  0  0  0  0  0  0  0  0  0  0  0  # atno 17395 bound_to 11000

$$$$
