AV-unprocessed.smi:2567|AV-procd|sdf|10078|dock1
  -GOLD-   2272014103D 1   1.00000     0.00000
 Structure written by MMmdl.
 34 35  0  0  0  0  0  0  0  0  2 V2000
  151.1474  144.3936  160.5139 C   0  0  0  0  0  0  0  0  0  0  0  0
  151.8860  143.7994  159.2941 C   0  0  0  0  0  0  0  0  0  0  0  0
  152.5144  144.9881  158.5342 C   0  0  0  0  0  0  0  0  0  0  0  0
  152.9962  142.8452  159.7699 C   0  0  0  0  0  0  0  0  0  0  0  0
  150.9261  143.0517  158.3982 C   0  0  0  0  0  0  0  0  0  0  0  0
  149.7177  142.6808  158.8293 N   0  0  0  0  0  0  0  0  0  0  0  0
  149.2564  141.9377  157.8027 N   0  0  0  0  0  0  0  0  0  0  0  0
  150.1986  141.8519  156.8633 C   0  0  0  0  0  0  0  0  0  0  0  0
  150.0077  141.0613  155.6077 C   0  0  2  0  0  0  0  0  0  0  0  0
  148.7219  141.4549  154.8552 C   0  0  0  0  0  0  0  0  0  0  0  0
  148.5313  140.5750  153.6857 N   0  3  0  0  0  0  0  0  0  0  0  0
  148.5399  139.1508  154.0748 C   0  0  0  0  0  0  0  0  0  0  0  0
  149.8237  138.8230  154.8572 C   0  0  0  0  0  0  0  0  0  0  0  0
  149.9346  139.6878  155.9830 O   0  0  0  0  0  0  0  0  0  0  0  0
  151.3027  142.5117  157.1961 N   0  0  0  0  0  0  0  0  0  0  0  0
  148.3416  141.5095  157.8008 H   0  0  0  0  0  0  0  0  0  0  0  0
  151.8245  144.9704  161.1450 H   0  0  0  0  0  0  0  0  0  0  0  0
  150.7125  143.6165  161.1433 H   0  0  0  0  0  0  0  0  0  0  0  0
  150.3404  145.0595  160.2053 H   0  0  0  0  0  0  0  0  0  0  0  0
  151.7504  145.6735  158.1655 H   0  0  0  0  0  0  0  0  0  0  0  0
  153.1010  144.6559  157.6768 H   0  0  0  0  0  0  0  0  0  0  0  0
  153.1856  145.5596  159.1762 H   0  0  0  0  0  0  0  0  0  0  0  0
  153.7089  143.3562  160.4179 H   0  0  0  0  0  0  0  0  0  0  0  0
  153.5536  142.4348  158.9270 H   0  0  0  0  0  0  0  0  0  0  0  0
  152.5839  142.0061  160.3315 H   0  0  0  0  0  0  0  0  0  0  0  0
  150.8789  141.2127  154.9670 H   0  0  0  0  0  0  0  0  0  0  0  0
  147.8538  141.3659  155.5103 H   0  0  0  0  0  0  0  0  0  0  0  0
  148.7701  142.4925  154.5233 H   0  0  0  0  0  0  0  0  0  0  0  0
  147.6531  140.7956  153.2382 H   0  0  0  0  0  0  0  0  0  0  0  0
  147.6622  138.9415  154.6878 H   0  0  0  0  0  0  0  0  0  0  0  0
  148.4647  138.5302  153.1817 H   0  0  0  0  0  0  0  0  0  0  0  0
  149.7985  137.7905  155.2057 H   0  0  0  0  0  0  0  0  0  0  0  0
  150.7046  138.9225  154.2208 H   0  0  0  0  0  0  0  0  0  0  0  0
  149.2841  140.7363  153.0318 H   0  0  0  0  0  0  0  0  0  0  0  0
  1  2  1  0  0  0  0
  1 17  1  0  0  0  0
  1 18  1  0  0  0  0
  1 19  1  0  0  0  0
  2  3  1  0  0  0  0
  2  4  1  0  0  0  0
  2  5  1  0  0  0  0
  3 20  1  0  0  0  0
  3 21  1  0  0  0  0
  3 22  1  0  0  0  0
  4 23  1  0  0  0  0
  4 24  1  0  0  0  0
  4 25  1  0  0  0  0
  5 15  1  0  0  0  0
  5  6  2  0  0  0  0
  6  7  1  0  0  0  0
  7 16  1  0  0  0  0
  7  8  1  0  0  0  0
  8  9  1  0  0  0  0
  8 15  2  0  0  0  0
  9 14  1  0  0  0  0
  9 10  1  0  0  0  0
  9 26  1  0  0  0  0
 10 11  1  0  0  0  0
 10 27  1  0  0  0  0
 10 28  1  0  0  0  0
 11 12  1  0  0  0  0
 11 29  1  0  0  0  0
 11 34  1  0  0  0  0
 12 13  1  0  0  0  0
 12 30  1  0  0  0  0
 12 31  1  0  0  0  0
 13 14  1  0  0  0  0
 13 32  1  0  0  0  0
 13 33  1  0  0  0  0
M  CHG  1  11   1
M  END
> <s_m_source_file>
AV-unprocessed.smi

> <i_m_source_file_index>
2567

> <i_lp_mmshare_version>
43012

> <i_f3d_flags>
0

> <s_epik_input>
W0NIM11DKFtDSDNdKShbQ0gzXSljMW5bbkhdYyhuMSlbQ0BASF0yW0NIMl1bTkhdW0NIMl1bQ0gyXU8y

> <s_epik_cmdline>
J2VwaWtfcHl0aG9uJywgJy1waCcsICc3LjAnLCAnLXRuJywgJzgnLCAnLW1hJywgJzIwMCcsICctbWV0YWxfYmluZGluZycsICctaW1hZScsICc8aW5maWxlLm1hZT4nLCAnLW9tYWUnLCAnPG91dGZpbGUubWFlPic=

> <r_epik_Ionization_Penalty>
0.162344

> <r_epik_Ionization_Penalty_Charging>
0.125708

> <r_epik_Ionization_Penalty_Neutral>
0.0366363

> <r_epik_State_Penalty>
1.18286

> <r_epik_Charging_Adjusted_Penalty>
1.30856

> <i_epik_Tot_Q>
1

> <i_epik_Tot_abs_Q>
1

> <r_epik_Metal_State_Penalty>
1.49333

> <b_epik_Metal_Only>
0

> <s_lp_Force_Field>
OPLS_2005

> <r_lp_Energy>
12.4699

> <b_lp_Chiralities_Consistent>
1

> <s_lp_Variant>
AV-unprocessed.smi:2567-3

> <Gold.Version>
5.8.1

> <Gold.Id.Protein>
6NUR|6NUR_protein|mol2

> <Gold.PLP.Fitness>
32.3495

> <Gold.PLP.PLP>
-31.0296

> <Gold.PLP.part.hbond>
-1.6401

> <Gold.PLP.part.metal>
0.0000

> <Gold.PLP.part.buried>
-4.4961

> <Gold.PLP.part.nonpolar>
-25.7259

> <Gold.PLP.part.repulsive>
0.4351

> <Gold.PLP.ligand.clash>
0.0000

> <Gold.PLP.ligand.torsion>
0.4268

> <Gold.PLP.Chemscore.Hbond>
0.6560

> <Gold.PLP.Chemscore.CHOScore>
0.0000

> <Gold.PLP.Chemscore.Metal>
0.0000

> <Gold.Chemscore.Hbonds>
donor molecule, donor type, donor heavy atom, donor atom, acceptor molecule, acceptor atom, score
      L1  H    11    34       P1  7957  0.64

> <Gold.PLP.Chemscore.Internal.Correction>
0.2056

> <Gold.Rescore>
     Score         DG    S(hbond)    S(metal)    S(lipo)     H(rot)  DE(clash)    DE(int)     intcor
     14.03     -14.27       0.99        0.00      74.57       1.26       0.01       0.23       ----

> <Gold.Chemscore.Fitness>
14.0327

> <Gold.Chemscore.DG>
-14.2743

> <Gold.Chemscore.ZeroCoef>
-5.4800

> <Gold.Chemscore.Hbond>
0.9903

> <Gold.Chemscore.Metal>
0.0000

> <Gold.Chemscore.Lipo>
74.5662

> <Gold.Chemscore.Internal_Hbond>
0.0000

> <Gold.Chemscore.DEClash>
0.0086

> <Gold.Chemscore.DEInternal>
0.2330

> <Gold.Chemscore.Rot>
1.2647

> <Gold.Chemscore.Internal.Correction>
   9.000000E+99

> <Gold.Chemscore.Hbonds>
donor molecule, donor type, donor heavy atom, donor atom, acceptor molecule, acceptor atom, score
      L1  H    11    34       P1  7957  0.60

> <Gold.Chemscore.Hbond.Weighted>
-3.3076

> <Gold.Chemscore.Metal.Weighted>
-0.0000

> <Gold.Chemscore.Lipo.Weighted>
-8.7242

> <Gold.Chemscore.Internal_Hbond.Weighted>
0.0000

> <Gold.Chemscore.DEClash.Weighted>
0.0086

> <Gold.Chemscore.DEInternal.Weighted>
0.2330

> <Gold.Chemscore.Rot.Weighted>
3.2375

> <Gold.Chemscore.Internal.Correction.Weighted>
   9.000000E+99

> <Gold.Protein.RotatedTorsions>
[ 6907 6896 6895 6894 ] final  -28.71 input  -60.11 | X-H torsion
[ 7974 7965 7964 7962 ] final   76.61 input  175.53 | X-H torsion
[ 8008 7997 7996 7995 ] final  126.10 input   59.86 | X-H torsion
[ 10167 10162 10161 10158 ] final  112.18 input  -65.29 | X-H torsion
[ 10718 10713 10712 10709 ] final  164.98 input   66.30 | X-H torsion
[ 10763 10752 10751 10750 ] final  -69.96 input  -60.55 | X-H torsion
[ 11005 11000 10999 10996 ] final  179.57 input  -57.11 | X-H torsion

> <Gold.Protein.ActiveResidues>
 VAL166  LYS551  ARG553  GLY616  TRP617  ASP618  TYR619  PRO620  LYS621  CYS622 
 ASP623  PHE694  ASN695  SER759  ASP760  ASP761  ALA762  ILE779  LEU786  VAL792 
 PHE793  MET794  SER795  GLU796  ALA797  LYS798  CYS799  TRP800  GLU811  SER814 

> <Gold.Protein.RotatedAtoms>
  151.1292  135.0121  159.8574 H   0  0  0  0  0  0  0  0  0  0  0  0  # atno 6907 bound_to 6896
  152.5450  134.1630  159.8576 H   0  0  0  0  0  0  0  0  0  0  0  0  # atno 6908 bound_to 6896
  151.1695  133.4748  159.2627 H   0  0  0  0  0  0  0  0  0  0  0  0  # atno 6909 bound_to 6896
  145.7007  139.2582  143.1707 H   0  0  0  0  0  0  0  0  0  0  0  0  # atno 7974 bound_to 7965
  156.2854  140.2701  156.2056 H   0  0  0  0  0  0  0  0  0  0  0  0  # atno 8008 bound_to 7997
  155.0316  140.0386  157.2494 H   0  0  0  0  0  0  0  0  0  0  0  0  # atno 8009 bound_to 7997
  154.7349  140.2714  155.6428 H   0  0  0  0  0  0  0  0  0  0  0  0  # atno 8010 bound_to 7997
  139.6555  144.7129  151.1965 H   0  0  0  0  0  0  0  0  0  0  0  0  # atno 10167 bound_to 10162
  157.0867  131.0406  151.2553 H   0  0  0  0  0  0  0  0  0  0  0  0  # atno 10718 bound_to 10713
  154.4108  135.6009  153.5951 H   0  0  0  0  0  0  0  0  0  0  0  0  # atno 10763 bound_to 10752
  152.9790  135.5929  154.4072 H   0  0  0  0  0  0  0  0  0  0  0  0  # atno 10764 bound_to 10752
  154.3884  135.2842  155.2148 H   0  0  0  0  0  0  0  0  0  0  0  0  # atno 10765 bound_to 10752
  140.4077  134.6720  157.4597 H   0  0  0  0  0  0  0  0  0  0  0  0  # atno 11005 bound_to 11000
  146.0800  140.7774  142.9646 LP  0  0  0  0  0  0  0  0  0  0  0  0  # atno 17320 bound_to 7965
  144.6969  140.3475  143.7188 LP  0  0  0  0  0  0  0  0  0  0  0  0  # atno 17321 bound_to 7965
  140.7557  143.6079  150.8634 LP  0  0  0  0  0  0  0  0  0  0  0  0  # atno 17342 bound_to 10162
  139.9731  143.6034  152.2967 LP  0  0  0  0  0  0  0  0  0  0  0  0  # atno 17343 bound_to 10162
  157.4755  130.7734  149.7364 LP  0  0  0  0  0  0  0  0  0  0  0  0  # atno 17370 bound_to 10713
  155.9909  130.3941  150.3009 LP  0  0  0  0  0  0  0  0  0  0  0  0  # atno 17371 bound_to 10713
  140.0290  134.6434  155.9132 LP  0  0  0  0  0  0  0  0  0  0  0  0  # atno 17394 bound_to 11000
  141.1833  133.6550  156.5111 LP  0  0  0  0  0  0  0  0  0  0  0  0  # atno 17395 bound_to 11000

$$$$
