AV-unprocessed.smi:838|AV-procd|sdf|3909|dock2
  -GOLD-   22720 1373D 1   1.00000     0.00000
 Structure written by MMmdl.
 46 47  0  0  0  0  0  0  0  0  2 V2000
  146.3144  134.9209  152.3297 C   0  0  0  0  0  0  0  0  0  0  0  0
  145.2534  135.6443  153.1622 C   0  0  0  0  0  0  0  0  0  0  0  0
  144.5506  134.9708  153.9152 O   0  0  0  0  0  0  0  0  0  0  0  0
  145.1213  136.9877  153.0469 N   0  0  0  0  0  0  0  0  0  0  0  0
  145.9762  137.8621  152.2383 C   0  0  0  0  0  0  0  0  0  0  0  0
  146.7854  138.7781  153.1746 C   0  0  0  0  0  0  0  0  0  0  0  0
  145.8980  139.5478  154.0877 N   0  3  0  0  0  0  0  0  0  0  0  0
  146.6646  140.4473  154.9855 C   0  0  0  0  0  0  0  0  0  0  0  0
  147.7161  141.2806  154.2274 C   0  0  0  0  0  0  0  0  0  0  0  0
  148.5538  142.0455  155.1440 N   0  0  0  0  0  0  0  0  0  0  0  0
  149.3613  141.5093  156.0705 C   0  0  0  0  0  0  0  0  0  0  0  0
  149.4797  140.2953  156.2397 O   0  0  0  0  0  0  0  0  0  0  0  0
  150.0093  142.4625  156.7634 N   0  0  0  0  0  0  0  0  0  0  0  0
  150.9456  142.3041  157.8241 C   0  0  0  0  0  0  0  0  0  0  0  0
  151.0993  141.1349  158.4953 N   0  0  0  0  0  0  0  0  0  0  0  0
  152.0023  141.0547  159.4937 C   0  0  0  0  0  0  0  0  0  0  0  0
  152.8107  142.1351  159.8862 C   0  0  0  0  0  0  0  0  0  0  0  0
  152.6652  143.3533  159.2007 C   0  0  0  0  0  0  0  0  0  0  0  0
  151.7224  143.4469  158.1548 C   0  0  0  0  0  0  0  0  0  0  0  0
  151.5643  144.7642  157.4126 C   0  0  0  0  0  0  0  0  0  0  0  0
  144.9276  138.6786  154.8102 C   0  0  0  0  0  0  0  0  0  0  0  0
  144.1612  137.7626  153.8382 C   0  0  0  0  0  0  0  0  0  0  0  0
  147.3130  135.2840  152.5740 H   0  0  0  0  0  0  0  0  0  0  0  0
  146.1344  135.0640  151.2639 H   0  0  0  0  0  0  0  0  0  0  0  0
  146.2931  133.8488  152.5285 H   0  0  0  0  0  0  0  0  0  0  0  0
  146.6548  137.3245  151.5778 H   0  0  0  0  0  0  0  0  0  0  0  0
  145.3463  138.4640  151.5817 H   0  0  0  0  0  0  0  0  0  0  0  0
  147.4817  138.1810  153.7661 H   0  0  0  0  0  0  0  0  0  0  0  0
  147.3844  139.4677  152.5787 H   0  0  0  0  0  0  0  0  0  0  0  0
  145.9734  141.0882  155.5352 H   0  0  0  0  0  0  0  0  0  0  0  0
  147.1864  139.8473  155.7328 H   0  0  0  0  0  0  0  0  0  0  0  0
  148.3631  140.6231  153.6462 H   0  0  0  0  0  0  0  0  0  0  0  0
  147.2495  141.9643  153.5177 H   0  0  0  0  0  0  0  0  0  0  0  0
  148.5118  143.0519  155.0718 H   0  0  0  0  0  0  0  0  0  0  0  0
  149.8120  143.4174  156.5034 H   0  0  0  0  0  0  0  0  0  0  0  0
  152.0814  140.1009  159.9942 H   0  0  0  0  0  0  0  0  0  0  0  0
  153.5228  142.0317  160.6915 H   0  0  0  0  0  0  0  0  0  0  0  0
  153.2709  144.2037  159.4775 H   0  0  0  0  0  0  0  0  0  0  0  0
  152.2560  145.5182  157.7896 H   0  0  0  0  0  0  0  0  0  0  0  0
  150.5512  145.1497  157.5314 H   0  0  0  0  0  0  0  0  0  0  0  0
  151.7631  144.6301  156.3490 H   0  0  0  0  0  0  0  0  0  0  0  0
  145.4611  138.0714  155.5434 H   0  0  0  0  0  0  0  0  0  0  0  0
  144.2129  139.2864  155.3636 H   0  0  0  0  0  0  0  0  0  0  0  0
  143.5454  138.3615  153.1654 H   0  0  0  0  0  0  0  0  0  0  0  0
  143.4652  137.1347  154.3960 H   0  0  0  0  0  0  0  0  0  0  0  0
  145.3493  140.1475  153.4882 H   0  0  0  0  0  0  0  0  0  0  0  0
  1  2  1  0  0  0  0
  1 23  1  0  0  0  0
  1 24  1  0  0  0  0
  1 25  1  0  0  0  0
  2  3  2  0  0  0  0
  2  4  1  0  0  0  0
  4 22  1  0  0  0  0
  4  5  1  0  0  0  0
  5  6  1  0  0  0  0
  5 26  1  0  0  0  0
  5 27  1  0  0  0  0
  6  7  1  0  0  0  0
  6 28  1  0  0  0  0
  6 29  1  0  0  0  0
  7  8  1  0  0  0  0
  7 21  1  0  0  0  0
  7 46  1  0  0  0  0
  8  9  1  0  0  0  0
  8 30  1  0  0  0  0
  8 31  1  0  0  0  0
  9 10  1  0  0  0  0
  9 32  1  0  0  0  0
  9 33  1  0  0  0  0
 10 11  1  0  0  0  0
 10 34  1  0  0  0  0
 11 12  2  0  0  0  0
 11 13  1  0  0  0  0
 13 14  1  0  0  0  0
 13 35  1  0  0  0  0
 14 19  1  0  0  0  0
 14 15  2  0  0  0  0
 15 16  1  0  0  0  0
 16 17  2  0  0  0  0
 16 36  1  0  0  0  0
 17 18  1  0  0  0  0
 17 37  1  0  0  0  0
 18 19  2  0  0  0  0
 18 38  1  0  0  0  0
 19 20  1  0  0  0  0
 20 39  1  0  0  0  0
 20 40  1  0  0  0  0
 20 41  1  0  0  0  0
 21 22  1  0  0  0  0
 21 42  1  0  0  0  0
 21 43  1  0  0  0  0
 22 44  1  0  0  0  0
 22 45  1  0  0  0  0
M  CHG  1   7   1
M  END
> <s_m_source_file>
AV-unprocessed.smi

> <i_m_source_file_index>
838

> <i_lp_mmshare_version>
43012

> <i_f3d_flags>
0

> <s_epik_input>
W0NIM11DKD1PKU4xW0NIMl1bQ0gyXU4oW0NIMl1bQ0gyXTEpW0NIMl1bQ0gyXVtOSF1DKD1PKVtOSF1jMm5bY0hdW2NIXVtjSF1jMltDSDNd

> <s_epik_cmdline>
J2VwaWtfcHl0aG9uJywgJy1waCcsICc3LjAnLCAnLXRuJywgJzgnLCAnLW1hJywgJzIwMCcsICctbWV0YWxfYmluZGluZycsICctaW1hZScsICc8aW5maWxlLm1hZT4nLCAnLW9tYWUnLCAnPG91dGZpbGUubWFlPic=

> <r_epik_Ionization_Penalty>
0.630076

> <r_epik_Ionization_Penalty_Charging>
0.630034

> <r_epik_Ionization_Penalty_Neutral>
4.2229e-05

> <r_epik_State_Penalty>
0.646805

> <r_epik_Charging_Adjusted_Penalty>
1.27684

> <i_epik_Tot_Q>
1

> <i_epik_Tot_abs_Q>
1

> <r_epik_Metal_State_Penalty>
0.64681

> <b_epik_Metal_Only>
0

> <s_lp_Force_Field>
OPLS_2005

> <r_lp_Energy>
41.2384

> <b_lp_Chiralities_Consistent>
1

> <s_lp_Variant>
AV-unprocessed.smi:838-2

> <Gold.Version>
5.8.1

> <Gold.Id.Protein>
6NUR|6NUR_protein|mol2

> <Gold.PLP.Fitness>
44.8498

> <Gold.PLP.PLP>
-32.9906

> <Gold.PLP.part.hbond>
-3.0000

> <Gold.PLP.part.metal>
0.0000

> <Gold.PLP.part.buried>
-3.4771

> <Gold.PLP.part.nonpolar>
-27.4541

> <Gold.PLP.part.repulsive>
0.2730

> <Gold.PLP.ligand.clash>
0.0000

> <Gold.PLP.ligand.torsion>
0.1077

> <Gold.PLP.Chemscore.Hbond>
4.0000

> <Gold.PLP.Chemscore.CHOScore>
0.0000

> <Gold.PLP.Chemscore.Metal>
0.0000

> <Gold.Chemscore.Hbonds>
donor molecule, donor type, donor heavy atom, donor atom, acceptor molecule, acceptor atom, score
      L1  H     7    46       P1 10175  1.98
      L1  H    10    34       P1  8028  1.00
      L1  H    13    35       P1  8028  1.00

> <Gold.PLP.Chemscore.Internal.Correction>
0.0746

> <Gold.Rescore>
     Score         DG    S(hbond)    S(metal)    S(lipo)     H(rot)  DE(clash)    DE(int)     intcor
     19.10     -21.00       2.89        0.00      84.75       1.58       0.55       1.35       ----

> <Gold.Chemscore.Fitness>
19.0996

> <Gold.Chemscore.DG>
-20.9993

> <Gold.Chemscore.ZeroCoef>
-5.4800

> <Gold.Chemscore.Hbond>
2.8878

> <Gold.Chemscore.Metal>
0.0000

> <Gold.Chemscore.Lipo>
84.7502

> <Gold.Chemscore.Internal_Hbond>
0.0000

> <Gold.Chemscore.DEClash>
0.5522

> <Gold.Chemscore.DEInternal>
1.3476

> <Gold.Chemscore.Rot>
1.5788

> <Gold.Chemscore.Internal.Correction>
   9.000000E+99

> <Gold.Chemscore.Hbonds>
donor molecule, donor type, donor heavy atom, donor atom, acceptor molecule, acceptor atom, score
      L1  H     7    46       P1 10175  0.92
      L1  H    10    34       P1  8028  0.98
      L1  H    13    35       P1  8028  0.98

> <Gold.Chemscore.Hbond.Weighted>
-9.6452

> <Gold.Chemscore.Metal.Weighted>
-0.0000

> <Gold.Chemscore.Lipo.Weighted>
-9.9158

> <Gold.Chemscore.Internal_Hbond.Weighted>
0.0000

> <Gold.Chemscore.DEClash.Weighted>
0.5522

> <Gold.Chemscore.DEInternal.Weighted>
1.3476

> <Gold.Chemscore.Rot.Weighted>
4.0416

> <Gold.Chemscore.Internal.Correction.Weighted>
   9.000000E+99

> <Gold.Protein.RotatedTorsions>
[ 6907 6896 6895 6894 ] final  130.65 input  -60.11 | X-H torsion
[ 7974 7965 7964 7962 ] final   97.49 input  175.53 | X-H torsion
[ 8008 7997 7996 7995 ] final  166.19 input   59.86 | X-H torsion
[ 10167 10162 10161 10158 ] final  -41.92 input  -65.29 | X-H torsion
[ 10718 10713 10712 10709 ] final  153.92 input   66.30 | X-H torsion
[ 10763 10752 10751 10750 ] final -106.76 input  -60.55 | X-H torsion
[ 11005 11000 10999 10996 ] final -169.16 input  -57.11 | X-H torsion

> <Gold.Protein.ActiveResidues>
 VAL166  LYS551  ARG553  GLY616  TRP617  ASP618  TYR619  PRO620  LYS621  CYS622 
 ASP623  PHE694  ASN695  SER759  ASP760  ASP761  ALA762  ILE779  LEU786  VAL792 
 PHE793  MET794  SER795  GLU796  ALA797  LYS798  CYS799  TRP800  GLU811  SER814 

> <Gold.Protein.RotatedAtoms>
  152.3505  133.6173  159.5940 H   0  0  0  0  0  0  0  0  0  0  0  0  # atno 6907 bound_to 6896
  150.7534  133.9582  159.3516 H   0  0  0  0  0  0  0  0  0  0  0  0  # atno 6908 bound_to 6896
  151.7434  135.0850  160.0370 H   0  0  0  0  0  0  0  0  0  0  0  0  # atno 6909 bound_to 6896
  145.4248  139.2317  143.3176 H   0  0  0  0  0  0  0  0  0  0  0  0  # atno 7974 bound_to 7965
  156.1739  140.1650  156.8398 H   0  0  0  0  0  0  0  0  0  0  0  0  # atno 8008 bound_to 7997
  154.5286  140.0762  156.8337 H   0  0  0  0  0  0  0  0  0  0  0  0  # atno 8009 bound_to 7997
  155.3455  140.3387  155.4241 H   0  0  0  0  0  0  0  0  0  0  0  0  # atno 8010 bound_to 7997
  140.6986  143.3067  151.3136 H   0  0  0  0  0  0  0  0  0  0  0  0  # atno 10167 bound_to 10162
  157.2385  131.0754  151.1808 H   0  0  0  0  0  0  0  0  0  0  0  0  # atno 10718 bound_to 10713
  154.8032  135.4700  154.0328 H   0  0  0  0  0  0  0  0  0  0  0  0  # atno 10763 bound_to 10752
  153.1817  135.6841  153.8476 H   0  0  0  0  0  0  0  0  0  0  0  0  # atno 10764 bound_to 10752
  153.8024  135.3228  155.3369 H   0  0  0  0  0  0  0  0  0  0  0  0  # atno 10765 bound_to 10752
  140.5339  134.5589  157.5082 H   0  0  0  0  0  0  0  0  0  0  0  0  # atno 11005 bound_to 11000
  146.2638  140.4977  142.8842 LP  0  0  0  0  0  0  0  0  0  0  0  0  # atno 17320 bound_to 7965
  144.8222  140.6568  143.6346 LP  0  0  0  0  0  0  0  0  0  0  0  0  # atno 17321 bound_to 7965
  139.6475  144.0424  152.2601 LP  0  0  0  0  0  0  0  0  0  0  0  0  # atno 17342 bound_to 10162
  139.9950  144.6334  150.7780 LP  0  0  0  0  0  0  0  0  0  0  0  0  # atno 17343 bound_to 10162
  157.3404  130.7030  149.6378 LP  0  0  0  0  0  0  0  0  0  0  0  0  # atno 17370 bound_to 10713
  155.9671  130.4281  150.4775 LP  0  0  0  0  0  0  0  0  0  0  0  0  # atno 17371 bound_to 10713
  139.9539  134.7568  156.0385 LP  0  0  0  0  0  0  0  0  0  0  0  0  # atno 17394 bound_to 11000
  141.1266  133.6597  156.3352 LP  0  0  0  0  0  0  0  0  0  0  0  0  # atno 17395 bound_to 11000

$$$$
