AV-unprocessed.smi:2620|AV-procd|sdf|10224|dock1
  -GOLD-   2272014233D 1   1.00000     0.00000
 Structure written by MMmdl.
 35 36  0  0  0  0  0  0  0  0  2 V2000
  150.0337  132.4341  154.7519 C   0  0  0  0  0  0  0  0  0  0  0  0
  149.1298  133.3620  155.3258 O   0  0  0  0  0  0  0  0  0  0  0  0
  149.2830  134.6674  154.7954 C   0  0  0  0  0  0  0  0  0  0  0  0
  150.6087  135.2557  155.3005 C   0  0  0  0  0  0  0  0  0  0  0  0
  150.3813  136.3118  156.2958 N   0  0  0  0  0  0  0  0  0  0  0  0
  150.7817  137.6146  155.9418 C   0  0  0  0  0  0  0  0  0  0  0  0
  150.6246  138.6644  156.7702 C   0  0  0  0  0  0  0  0  0  0  0  0
  151.0714  140.0181  156.3599 C   0  0  0  0  0  0  0  0  0  0  0  0
  151.1001  140.3443  155.1720 O   0  0  0  0  0  0  0  0  0  0  0  0
  151.4607  140.9822  157.4330 C   0  0  0  0  0  0  0  0  0  0  0  0
  150.7242  142.1825  157.5747 C   0  0  0  0  0  0  0  0  0  0  0  0
  151.0645  143.1238  158.5642 C   0  0  0  0  0  0  0  0  0  0  0  0
  152.1473  142.8765  159.4262 C   0  0  0  0  0  0  0  0  0  0  0  0
  152.8865  141.6863  159.2988 C   0  0  0  0  0  0  0  0  0  0  0  0
  152.5519  140.7375  158.3108 C   0  0  0  0  0  0  0  0  0  0  0  0
  153.2922  139.5885  158.2495 O   0  5  0  0  0  0  0  0  0  0  0  0
  150.0330  138.4121  158.0701 C   0  0  0  0  0  0  0  0  0  0  0  0
  149.6580  137.1655  158.4190 C   0  0  0  0  0  0  0  0  0  0  0  0
  149.0828  136.8940  159.6946 C   0  0  0  0  0  0  0  0  0  0  0  0
  148.6055  136.6930  160.7298 N   0  0  0  0  0  0  0  0  0  0  0  0
  149.8271  136.0216  157.5118 C   0  0  0  0  0  0  0  0  0  0  0  0
  149.4982  134.8744  157.8194 O   0  0  0  0  0  0  0  0  0  0  0  0
  149.8745  131.4488  155.1898 H   0  0  0  0  0  0  0  0  0  0  0  0
  151.0685  132.7230  154.9405 H   0  0  0  0  0  0  0  0  0  0  0  0
  149.8839  132.3515  153.6747 H   0  0  0  0  0  0  0  0  0  0  0  0
  149.2757  134.6288  153.7049 H   0  0  0  0  0  0  0  0  0  0  0  0
  148.4488  135.2971  155.1093 H   0  0  0  0  0  0  0  0  0  0  0  0
  151.2192  134.4603  155.7308 H   0  0  0  0  0  0  0  0  0  0  0  0
  151.1923  135.6350  154.4600 H   0  0  0  0  0  0  0  0  0  0  0  0
  151.2232  137.6972  154.9583 H   0  0  0  0  0  0  0  0  0  0  0  0
  149.8945  142.3953  156.9162 H   0  0  0  0  0  0  0  0  0  0  0  0
  150.4964  144.0372  158.6595 H   0  0  0  0  0  0  0  0  0  0  0  0
  152.4110  143.5977  160.1853 H   0  0  0  0  0  0  0  0  0  0  0  0
  153.7143  141.5006  159.9679 H   0  0  0  0  0  0  0  0  0  0  0  0
  149.8997  139.2183  158.7773 H   0  0  0  0  0  0  0  0  0  0  0  0
  1  2  1  0  0  0  0
  1 23  1  0  0  0  0
  1 24  1  0  0  0  0
  1 25  1  0  0  0  0
  2  3  1  0  0  0  0
  3  4  1  0  0  0  0
  3 26  1  0  0  0  0
  3 27  1  0  0  0  0
  4  5  1  0  0  0  0
  4 28  1  0  0  0  0
  4 29  1  0  0  0  0
  5 21  1  0  0  0  0
  5  6  1  0  0  0  0
  6  7  2  0  0  0  0
  6 30  1  0  0  0  0
  7  8  1  0  0  0  0
  7 17  1  0  0  0  0
  8  9  2  0  0  0  0
  8 10  1  0  0  0  0
 10 15  1  0  0  0  0
 10 11  2  0  0  0  0
 11 12  1  0  0  0  0
 11 31  1  0  0  0  0
 12 13  2  0  0  0  0
 12 32  1  0  0  0  0
 13 14  1  0  0  0  0
 13 33  1  0  0  0  0
 14 15  2  0  0  0  0
 14 34  1  0  0  0  0
 15 16  1  0  0  0  0
 17 18  2  0  0  0  0
 17 35  1  0  0  0  0
 18 19  1  0  0  0  0
 18 21  1  0  0  0  0
 19 20  3  0  0  0  0
 21 22  2  0  0  0  0
M  CHG  1  16  -1
M  END
> <s_m_source_file>
AV-unprocessed.smi

> <i_m_source_file_index>
2620

> <i_lp_mmshare_version>
43012

> <i_f3d_flags>
0

> <s_epik_input>
W0NIM11PW0NIMl1bQ0gyXW4xW2NIXWMoW2NIXWMoQyNOKWMxPU8pQyg9TyljMltjSF1bY0hdW2NIXVtjSF1jMltPSF0=

> <s_epik_cmdline>
J2VwaWtfcHl0aG9uJywgJy1waCcsICc3LjAnLCAnLXRuJywgJzgnLCAnLW1hJywgJzIwMCcsICctbWV0YWxfYmluZGluZycsICctaW1hZScsICc8aW5maWxlLm1hZT4nLCAnLW9tYWUnLCAnPG91dGZpbGUubWFlPic=

> <r_epik_Ionization_Penalty>
0.694682

> <r_epik_Ionization_Penalty_Charging>
0.694682

> <r_epik_Ionization_Penalty_Neutral>
1.08437e-11

> <r_epik_State_Penalty>
0.716871

> <r_epik_Charging_Adjusted_Penalty>
1.41155

> <i_epik_Tot_Q>
-1

> <i_epik_Tot_abs_Q>
1

> <r_epik_Metal_State_Penalty>
0.716871

> <b_epik_Metal_Only>
0

> <s_lp_Force_Field>
OPLS_2005

> <r_lp_Energy>
23.3851

> <b_lp_Chiralities_Consistent>
1

> <s_lp_Variant>
AV-unprocessed.smi:2620-2

> <Gold.Version>
5.8.1

> <Gold.Id.Protein>
6NUR|6NUR_protein|mol2

> <Gold.PLP.Fitness>
46.6291

> <Gold.PLP.PLP>
-33.4545

> <Gold.PLP.part.hbond>
-4.0000

> <Gold.PLP.part.metal>
0.0000

> <Gold.PLP.part.buried>
-5.8257

> <Gold.PLP.part.nonpolar>
-24.3259

> <Gold.PLP.part.repulsive>
0.0609

> <Gold.PLP.ligand.clash>
0.0000

> <Gold.PLP.ligand.torsion>
1.8707

> <Gold.PLP.Chemscore.Hbond>
4.9920

> <Gold.PLP.Chemscore.CHOScore>
0.0000

> <Gold.PLP.Chemscore.Metal>
0.0000

> <Gold.Chemscore.Hbonds>
donor molecule, donor type, donor heavy atom, donor atom, acceptor molecule, acceptor atom, score
      P1  H  6896  6907       L1    22  0.96
      P1  H  6931  6943       L1    20  0.99
      P1  H  7989  7998       L1     9  1.00
      P1  H  7997  8008       L1    16  2.00

> <Gold.PLP.Chemscore.Internal.Correction>
1.9399

> <Gold.Rescore>
     Score         DG    S(hbond)    S(metal)    S(lipo)     H(rot)  DE(clash)    DE(int)     intcor
     19.16     -22.70       3.65        0.00      74.40       1.44       0.15       3.39       ----

> <Gold.Chemscore.Fitness>
19.1603

> <Gold.Chemscore.DG>
-22.6998

> <Gold.Chemscore.ZeroCoef>
-5.4800

> <Gold.Chemscore.Hbond>
3.6510

> <Gold.Chemscore.Metal>
0.0000

> <Gold.Chemscore.Lipo>
74.4026

> <Gold.Chemscore.Internal_Hbond>
0.0000

> <Gold.Chemscore.DEClash>
0.1474

> <Gold.Chemscore.DEInternal>
3.3922

> <Gold.Chemscore.Rot>
1.4374

> <Gold.Chemscore.Internal.Correction>
   9.000000E+99

> <Gold.Chemscore.Hbonds>
donor molecule, donor type, donor heavy atom, donor atom, acceptor molecule, acceptor atom, score
      P1  H  6896  6907       L1    22  0.54
      P1  H  6931  6943       L1    20  0.55
      P1  H  7989  7998       L1     9  0.97
      P1  H  7997  8008       L1    16  0.30

> <Gold.Chemscore.Hbond.Weighted>
-12.1945

> <Gold.Chemscore.Metal.Weighted>
-0.0000

> <Gold.Chemscore.Lipo.Weighted>
-8.7051

> <Gold.Chemscore.Internal_Hbond.Weighted>
0.0000

> <Gold.Chemscore.DEClash.Weighted>
0.1474

> <Gold.Chemscore.DEInternal.Weighted>
3.3922

> <Gold.Chemscore.Rot.Weighted>
3.6797

> <Gold.Chemscore.Internal.Correction.Weighted>
   9.000000E+99

> <Gold.Protein.RotatedTorsions>
[ 6907 6896 6895 6894 ] final  -87.08 input  -60.11 | X-H torsion
[ 7974 7965 7964 7962 ] final   31.07 input  175.53 | X-H torsion
[ 8008 7997 7996 7995 ] final  -79.46 input   59.86 | X-H torsion
[ 10167 10162 10161 10158 ] final  102.16 input  -65.29 | X-H torsion
[ 10718 10713 10712 10709 ] final   79.61 input   66.30 | X-H torsion
[ 10763 10752 10751 10750 ] final -128.52 input  -60.55 | X-H torsion
[ 11005 11000 10999 10996 ] final   45.91 input  -57.11 | X-H torsion

> <Gold.Protein.ActiveResidues>
 VAL166  LYS551  ARG553  GLY616  TRP617  ASP618  TYR619  PRO620  LYS621  CYS622 
 ASP623  PHE694  ASN695  SER759  ASP760  ASP761  ALA762  ILE779  LEU786  VAL792 
 PHE793  MET794  SER795  GLU796  ALA797  LYS798  CYS799  TRP800  GLU811  SER814 

> <Gold.Protein.RotatedAtoms>
  150.6866  134.2951  159.4682 H   0  0  0  0  0  0  0  0  0  0  0  0  # atno 6907 bound_to 6896
  152.0852  134.9441  160.0582 H   0  0  0  0  0  0  0  0  0  0  0  0  # atno 6908 bound_to 6896
  152.0779  133.4103  159.4525 H   0  0  0  0  0  0  0  0  0  0  0  0  # atno 6909 bound_to 6896
  146.1573  139.6705  142.9058 H   0  0  0  0  0  0  0  0  0  0  0  0  # atno 7974 bound_to 7965
  154.5787  140.0678  156.9072 H   0  0  0  0  0  0  0  0  0  0  0  0  # atno 8008 bound_to 7997
  155.2501  140.3351  155.4265 H   0  0  0  0  0  0  0  0  0  0  0  0  # atno 8009 bound_to 7997
  156.2173  140.1784  156.7543 H   0  0  0  0  0  0  0  0  0  0  0  0  # atno 8010 bound_to 7997
  139.7374  144.7020  151.0628 H   0  0  0  0  0  0  0  0  0  0  0  0  # atno 10167 bound_to 10162
  157.6782  130.9922  150.1957 H   0  0  0  0  0  0  0  0  0  0  0  0  # atno 10718 bound_to 10713
  154.8756  135.3926  154.3770 H   0  0  0  0  0  0  0  0  0  0  0  0  # atno 10763 bound_to 10752
  153.4523  135.7028  153.6107 H   0  0  0  0  0  0  0  0  0  0  0  0  # atno 10764 bound_to 10752
  153.4641  135.3805  155.2323 H   0  0  0  0  0  0  0  0  0  0  0  0  # atno 10765 bound_to 10752
  140.1417  134.4575  155.8445 H   0  0  0  0  0  0  0  0  0  0  0  0  # atno 11005 bound_to 11000
  145.4676  141.0435  143.2716 LP  0  0  0  0  0  0  0  0  0  0  0  0  # atno 17320 bound_to 7965
  144.7980  139.6196  143.7084 LP  0  0  0  0  0  0  0  0  0  0  0  0  # atno 17321 bound_to 7965
  140.7781  143.4967  150.9824 LP  0  0  0  0  0  0  0  0  0  0  0  0  # atno 17342 bound_to 10162
  139.8655  143.7259  152.3170 LP  0  0  0  0  0  0  0  0  0  0  0  0  # atno 17343 bound_to 10162
  156.2659  130.3716  149.8082 LP  0  0  0  0  0  0  0  0  0  0  0  0  # atno 17370 bound_to 10713
  156.5813  130.8467  151.3383 LP  0  0  0  0  0  0  0  0  0  0  0  0  # atno 17371 bound_to 10713
  141.2187  133.6836  156.7258 LP  0  0  0  0  0  0  0  0  0  0  0  0  # atno 17394 bound_to 11000
  140.2714  134.8389  157.3851 LP  0  0  0  0  0  0  0  0  0  0  0  0  # atno 17395 bound_to 11000

$$$$
