AV-unprocessed.smi:2710|AV-procd|sdf|10470|dock5
  -GOLD-   2272014513D 1   1.00000     0.00000
 Structure written by MMmdl.
 53 54  0  0  0  0  0  0  0  0  2 V2000
  146.7547  142.9221  157.8936 C   0  0  0  0  0  0  0  0  0  0  0  0
  147.7893  142.0258  157.1965 C   0  0  0  0  0  0  0  0  0  0  0  0
  147.9399  142.3321  155.7434 N   0  3  2  0  0  0  0  0  0  0  0  0
  146.6602  142.2984  154.9801 C   0  0  0  0  0  0  0  0  0  0  0  0
  146.1537  140.8588  154.7611 C   0  0  0  0  0  0  0  0  0  0  0  0
  147.2234  139.9817  154.0857 C   0  0  2  0  0  0  0  0  0  0  0  0
  146.7741  138.5926  154.0381 N   0  0  0  0  0  0  0  0  0  0  0  0
  146.4632  137.9069  152.9284 C   0  0  0  0  0  0  0  0  0  0  0  0
  146.5234  138.3799  151.7940 O   0  0  0  0  0  0  0  0  0  0  0  0
  146.0624  136.6594  153.2261 N   0  0  0  0  0  0  0  0  0  0  0  0
  145.6640  135.6322  152.3302 C   0  0  0  0  0  0  0  0  0  0  0  0
  145.9995  134.2949  152.6226 C   0  0  0  0  0  0  0  0  0  0  0  0
  145.6574  133.2770  151.8052 N   0  0  0  0  0  0  0  0  0  0  0  0
  144.9840  133.5793  150.6876 C   0  0  0  0  0  0  0  0  0  0  0  0
  144.6315  132.4011  149.7614 C   0  0  0  0  0  0  0  0  0  0  0  0
  143.8044  132.8518  148.5321 C   0  0  0  0  0  0  0  0  0  0  0  0
  143.7736  131.3707  150.5256 C   0  0  0  0  0  0  0  0  0  0  0  0
  145.9251  131.7442  149.2398 C   0  0  0  0  0  0  0  0  0  0  0  0
  144.6437  134.8156  150.3000 N   0  0  0  0  0  0  0  0  0  0  0  0
  144.9742  135.8420  151.1124 C   0  0  0  0  0  0  0  0  0  0  0  0
  148.5588  140.0741  154.8456 C   0  0  0  0  0  0  0  0  0  0  0  0
  148.9907  141.5435  155.0307 C   0  0  2  0  0  0  0  0  0  0  0  0
  150.3919  141.6748  155.6543 C   0  0  0  0  0  0  0  0  0  0  0  0
  146.7747  142.7582  158.9711 H   0  0  0  0  0  0  0  0  0  0  0  0
  145.7378  142.7171  157.5610 H   0  0  0  0  0  0  0  0  0  0  0  0
  146.9650  143.9776  157.7189 H   0  0  0  0  0  0  0  0  0  0  0  0
  148.7331  142.1932  157.7111 H   0  0  0  0  0  0  0  0  0  0  0  0
  147.5430  140.9759  157.3518 H   0  0  0  0  0  0  0  0  0  0  0  0
  145.8937  142.9021  155.4633 H   0  0  0  0  0  0  0  0  0  0  0  0
  146.8284  142.7687  154.0104 H   0  0  0  0  0  0  0  0  0  0  0  0
  145.8562  140.4207  155.7143 H   0  0  0  0  0  0  0  0  0  0  0  0
  145.2529  140.8791  154.1463 H   0  0  0  0  0  0  0  0  0  0  0  0
  147.3869  140.3651  153.0768 H   0  0  0  0  0  0  0  0  0  0  0  0
  146.6881  138.1149  154.9233 H   0  0  0  0  0  0  0  0  0  0  0  0
  145.9788  136.4367  154.2073 H   0  0  0  0  0  0  0  0  0  0  0  0
  146.5420  134.0358  153.5201 H   0  0  0  0  0  0  0  0  0  0  0  0
  143.5498  132.0052  147.8935 H   0  0  0  0  0  0  0  0  0  0  0  0
  144.3540  133.5626  147.9134 H   0  0  0  0  0  0  0  0  0  0  0  0
  142.8669  133.3243  148.8290 H   0  0  0  0  0  0  0  0  0  0  0  0
  142.8578  131.8244  150.9069 H   0  0  0  0  0  0  0  0  0  0  0  0
  144.3095  130.9479  151.3759 H   0  0  0  0  0  0  0  0  0  0  0  0
  143.4856  130.5382  149.8830 H   0  0  0  0  0  0  0  0  0  0  0  0
  145.7061  130.9143  148.5670 H   0  0  0  0  0  0  0  0  0  0  0  0
  146.5308  131.3471  150.0551 H   0  0  0  0  0  0  0  0  0  0  0  0
  146.5393  132.4599  148.6922 H   0  0  0  0  0  0  0  0  0  0  0  0
  144.6982  136.8241  150.7613 H   0  0  0  0  0  0  0  0  0  0  0  0
  148.4768  139.5828  155.8162 H   0  0  0  0  0  0  0  0  0  0  0  0
  149.3272  139.5310  154.2935 H   0  0  0  0  0  0  0  0  0  0  0  0
  149.0716  141.9855  154.0362 H   0  0  0  0  0  0  0  0  0  0  0  0
  151.1486  141.2738  154.9792 H   0  0  0  0  0  0  0  0  0  0  0  0
  150.4821  141.1236  156.5902 H   0  0  0  0  0  0  0  0  0  0  0  0
  150.6452  142.7179  155.8448 H   0  0  0  0  0  0  0  0  0  0  0  0
  148.2560  143.2908  155.7098 H   0  0  0  0  0  0  0  0  0  0  0  0
  1  2  1  0  0  0  0
  1 24  1  0  0  0  0
  1 25  1  0  0  0  0
  1 26  1  0  0  0  0
  2  3  1  0  0  0  0
  2 27  1  0  0  0  0
  2 28  1  0  0  0  0
  3 22  1  0  0  0  0
  3  4  1  0  0  0  0
  3 53  1  0  0  0  0
  4  5  1  0  0  0  0
  4 29  1  0  0  0  0
  4 30  1  0  0  0  0
  5  6  1  0  0  0  0
  5 31  1  0  0  0  0
  5 32  1  0  0  0  0
  6  7  1  0  0  0  0
  6 21  1  0  0  0  0
  6 33  1  0  0  0  0
  7  8  1  0  0  0  0
  7 34  1  0  0  0  0
  8  9  2  0  0  0  0
  8 10  1  0  0  0  0
 10 11  1  0  0  0  0
 10 35  1  0  0  0  0
 11 20  1  0  0  0  0
 11 12  2  0  0  0  0
 12 13  1  0  0  0  0
 12 36  1  0  0  0  0
 13 14  2  0  0  0  0
 14 15  1  0  0  0  0
 14 19  1  0  0  0  0
 15 16  1  0  0  0  0
 15 17  1  0  0  0  0
 15 18  1  0  0  0  0
 16 37  1  0  0  0  0
 16 38  1  0  0  0  0
 16 39  1  0  0  0  0
 17 40  1  0  0  0  0
 17 41  1  0  0  0  0
 17 42  1  0  0  0  0
 18 43  1  0  0  0  0
 18 44  1  0  0  0  0
 18 45  1  0  0  0  0
 19 20  2  0  0  0  0
 20 46  1  0  0  0  0
 21 22  1  0  0  0  0
 21 47  1  0  0  0  0
 21 48  1  0  0  0  0
 22 23  1  0  0  0  0
 22 49  1  0  0  0  0
 23 50  1  0  0  0  0
 23 51  1  0  0  0  0
 23 52  1  0  0  0  0
M  CHG  1   3   1
M  END
> <s_m_source_file>
AV-unprocessed.smi

> <i_m_source_file_index>
2710

> <i_lp_mmshare_version>
43012

> <i_f3d_flags>
0

> <s_epik_input>
W0NIM11bQ0gyXU4xW0NIMl1bQ0gyXVtDQEhdKFtDSDJdW0NASF0xW0NIM10pW05IXUMoPU8pW05IXWMyW2NIXW5jKEMoW0NIM10pKFtDSDNdKVtDSDNdKW5bY0hdMg==

> <s_epik_cmdline>
J2VwaWtfcHl0aG9uJywgJy1waCcsICc3LjAnLCAnLXRuJywgJzgnLCAnLW1hJywgJzIwMCcsICctbWV0YWxfYmluZGluZycsICctaW1hZScsICc8aW5maWxlLm1hZT4nLCAnLW9tYWUnLCAnPG91dGZpbGUubWFlPic=

> <r_lp_tautomer_probability>
1

> <r_epik_Ionization_Penalty>
0.00396003

> <r_epik_Ionization_Penalty_Charging>
0.0039379

> <r_epik_Ionization_Penalty_Neutral>
2.21316e-05

> <r_epik_State_Penalty>
0.00281651

> <r_epik_Charging_Adjusted_Penalty>
0.00675441

> <i_epik_Tot_Q>
1

> <i_epik_Tot_abs_Q>
1

> <r_epik_Metal_State_Penalty>
-0

> <b_epik_Metal_Only>
0

> <s_lp_Force_Field>
OPLS_2005

> <r_lp_Energy>
21.9784

> <b_lp_Chiralities_Consistent>
1

> <s_lp_Variant>
AV-unprocessed.smi:2710-7

> <Gold.Version>
5.8.1

> <Gold.Id.Protein>
6NUR|6NUR_protein|mol2

> <Gold.PLP.Fitness>
43.8639

> <Gold.PLP.PLP>
-35.4926

> <Gold.PLP.part.hbond>
-1.5247

> <Gold.PLP.part.metal>
0.0000

> <Gold.PLP.part.buried>
-2.0794

> <Gold.PLP.part.nonpolar>
-33.5273

> <Gold.PLP.part.repulsive>
1.4946

> <Gold.PLP.ligand.clash>
0.0000

> <Gold.PLP.ligand.torsion>
0.3404

> <Gold.PLP.Chemscore.Hbond>
2.0000

> <Gold.PLP.Chemscore.CHOScore>
1.0000

> <Gold.PLP.Chemscore.Metal>
0.0000

> <Gold.Chemscore.Hbonds>
donor molecule, donor type, donor heavy atom, donor atom, acceptor molecule, acceptor atom, score
      L1  H     3    53       P1  8028  2.00
      L1  C    20    46       P1 10171  1.00

> <Gold.PLP.Chemscore.Internal.Correction>
0.0520

> <Gold.Rescore>
     Score         DG    S(hbond)    S(metal)    S(lipo)     H(rot)  DE(clash)    DE(int)     intcor
     15.30     -16.88       0.95        0.00      99.01       1.31       0.33       1.25       ----

> <Gold.Chemscore.Fitness>
15.2957

> <Gold.Chemscore.DG>
-16.8795

> <Gold.Chemscore.ZeroCoef>
-5.4800

> <Gold.Chemscore.Hbond>
0.9472

> <Gold.Chemscore.Metal>
0.0000

> <Gold.Chemscore.Lipo>
99.0142

> <Gold.Chemscore.Internal_Hbond>
0.0000

> <Gold.Chemscore.DEClash>
0.3310

> <Gold.Chemscore.DEInternal>
1.2528

> <Gold.Chemscore.Rot>
1.3081

> <Gold.Chemscore.Internal.Correction>
   9.000000E+99

> <Gold.Chemscore.Hbonds>
donor molecule, donor type, donor heavy atom, donor atom, acceptor molecule, acceptor atom, score
      L1  H     3    53       P1  8028  0.81

> <Gold.Chemscore.Hbond.Weighted>
-3.1637

> <Gold.Chemscore.Metal.Weighted>
-0.0000

> <Gold.Chemscore.Lipo.Weighted>
-11.5847

> <Gold.Chemscore.Internal_Hbond.Weighted>
0.0000

> <Gold.Chemscore.DEClash.Weighted>
0.3310

> <Gold.Chemscore.DEInternal.Weighted>
1.2528

> <Gold.Chemscore.Rot.Weighted>
3.3488

> <Gold.Chemscore.Internal.Correction.Weighted>
   9.000000E+99

> <Gold.Protein.RotatedTorsions>
[ 6907 6896 6895 6894 ] final -171.46 input  -60.11 | X-H torsion
[ 7974 7965 7964 7962 ] final  -28.12 input  175.53 | X-H torsion
[ 8008 7997 7996 7995 ] final  -51.20 input   59.86 | X-H torsion
[ 10167 10162 10161 10158 ] final  117.29 input  -65.29 | X-H torsion
[ 10718 10713 10712 10709 ] final  -20.25 input   66.30 | X-H torsion
[ 10763 10752 10751 10750 ] final   84.89 input  -60.55 | X-H torsion
[ 11005 11000 10999 10996 ] final  -60.08 input  -57.11 | X-H torsion

> <Gold.Protein.ActiveResidues>
 VAL166  LYS551  ARG553  GLY616  TRP617  ASP618  TYR619  PRO620  LYS621  CYS622 
 ASP623  PHE694  ASN695  SER759  ASP760  ASP761  ALA762  ILE779  LEU786  VAL792 
 PHE793  MET794  SER795  GLU796  ALA797  LYS798  CYS799  TRP800  GLU811  SER814 

> <Gold.Protein.RotatedAtoms>
  151.5243  133.3461  159.2906 H   0  0  0  0  0  0  0  0  0  0  0  0  # atno 6907 bound_to 6896
  150.8633  134.7993  159.7110 H   0  0  0  0  0  0  0  0  0  0  0  0  # atno 6908 bound_to 6896
  152.4646  134.5115  159.9807 H   0  0  0  0  0  0  0  0  0  0  0  0  # atno 6909 bound_to 6896
  146.1310  140.5241  142.8693 H   0  0  0  0  0  0  0  0  0  0  0  0  # atno 7974 bound_to 7965
  154.4078  140.1253  156.4790 H   0  0  0  0  0  0  0  0  0  0  0  0  # atno 8008 bound_to 7997
  155.7103  140.3494  155.4951 H   0  0  0  0  0  0  0  0  0  0  0  0  # atno 8009 bound_to 7997
  155.9306  140.1069  157.1125 H   0  0  0  0  0  0  0  0  0  0  0  0  # atno 8010 bound_to 7997
  139.6189  144.7097  151.2679 H   0  0  0  0  0  0  0  0  0  0  0  0  # atno 10167 bound_to 10162
  156.5344  130.4663  149.6530 H   0  0  0  0  0  0  0  0  0  0  0  0  # atno 10718 bound_to 10713
  153.1423  135.4637  154.9515 H   0  0  0  0  0  0  0  0  0  0  0  0  # atno 10763 bound_to 10752
  154.7758  135.3172  154.8098 H   0  0  0  0  0  0  0  0  0  0  0  0  # atno 10764 bound_to 10752
  153.8618  135.6912  153.4836 H   0  0  0  0  0  0  0  0  0  0  0  0  # atno 10765 bound_to 10752
  141.1273  133.6620  156.5168 H   0  0  0  0  0  0  0  0  0  0  0  0  # atno 11005 bound_to 11000
  144.7691  140.5597  143.6682 LP  0  0  0  0  0  0  0  0  0  0  0  0  # atno 17320 bound_to 7965
  145.5260  139.1476  143.3526 LP  0  0  0  0  0  0  0  0  0  0  0  0  # atno 17321 bound_to 7965
  140.7369  143.6694  150.8095 LP  0  0  0  0  0  0  0  0  0  0  0  0  # atno 17342 bound_to 10162
  140.0301  143.5452  152.2763 LP  0  0  0  0  0  0  0  0  0  0  0  0  # atno 17343 bound_to 10162
  156.3029  130.7187  151.2063 LP  0  0  0  0  0  0  0  0  0  0  0  0  # atno 17370 bound_to 10713
  157.7416  131.0501  150.5084 LP  0  0  0  0  0  0  0  0  0  0  0  0  # atno 17371 bound_to 10713
  140.4324  134.7090  157.4949 LP  0  0  0  0  0  0  0  0  0  0  0  0  # atno 17394 bound_to 11000
  140.0285  134.6442  155.9140 LP  0  0  0  0  0  0  0  0  0  0  0  0  # atno 17395 bound_to 11000

$$$$
