AV-unprocessed.smi:3117|AV-procd|sdf|11885|dock8
  -GOLD-   2272017273D 1   1.00000     0.00000
 Structure written by MMmdl.
 36 36  0  0  0  0  0  0  0  0  1 V2000
  151.8090  140.4633  156.1760 C   0  0  0  0  0  0  0  0  0  0  0  0
  151.2407  141.8285  156.5974 C   0  0  1  0  0  0  0  0  0  0  0  0
  150.0237  142.0755  155.8112 N   0  0  0  0  0  0  0  0  0  0  0  0
  149.0736  140.9681  155.7067 C   0  0  0  0  0  0  0  0  0  0  0  0
  148.4229  140.8976  154.3101 C   0  0  0  0  0  0  0  0  0  0  0  0
  147.6997  139.5608  154.0679 C   0  0  0  0  0  0  0  0  0  0  0  0
  147.5064  142.1033  154.0355 C   0  0  0  0  0  0  0  0  0  0  0  0
  149.4790  140.9650  153.3736 O   0  0  0  0  0  0  0  0  0  0  0  0
  151.0502  141.9059  158.1440 C   0  0  1  0  0  0  0  0  0  0  0  0
  151.6532  140.7171  158.9213 C   0  0  0  0  0  0  0  0  0  0  0  0
  151.3973  143.2066  158.7152 N   0  0  0  0  0  0  0  0  0  0  0  0
  152.0247  144.2654  158.0900 C   0  0  0  0  0  0  0  0  0  0  0  0
  152.1749  145.2607  159.0127 C   0  0  0  0  0  0  0  0  0  0  0  0
  151.6090  144.7108  160.1957 C   0  0  0  0  0  0  0  0  0  0  0  0
  151.1476  143.4846  160.0162 N   0  0  0  0  0  0  0  0  0  0  0  0
  152.7515  140.2528  156.6820 H   0  0  0  0  0  0  0  0  0  0  0  0
  152.0053  140.4351  155.1038 H   0  0  0  0  0  0  0  0  0  0  0  0
  151.1185  139.6514  156.4048 H   0  0  0  0  0  0  0  0  0  0  0  0
  151.9921  142.5668  156.3150 H   0  0  0  0  0  0  0  0  0  0  0  0
  149.5451  142.8909  156.1798 H   0  0  0  0  0  0  0  0  0  0  0  0
  149.5730  140.0218  155.8984 H   0  0  0  0  0  0  0  0  0  0  0  0
  148.2978  141.0747  156.4661 H   0  0  0  0  0  0  0  0  0  0  0  0
  146.8438  139.4442  154.7336 H   0  0  0  0  0  0  0  0  0  0  0  0
  148.3650  138.7127  154.2342 H   0  0  0  0  0  0  0  0  0  0  0  0
  147.3266  139.4920  153.0453 H   0  0  0  0  0  0  0  0  0  0  0  0
  146.6458  142.1089  154.7050 H   0  0  0  0  0  0  0  0  0  0  0  0
  147.1240  142.0870  153.0143 H   0  0  0  0  0  0  0  0  0  0  0  0
  148.0365  143.0460  154.1759 H   0  0  0  0  0  0  0  0  0  0  0  0
  149.3184  140.3262  152.6960 H   0  0  0  0  0  0  0  0  0  0  0  0
  149.9787  141.7978  158.3190 H   0  0  0  0  0  0  0  0  0  0  0  0
  151.2903  139.7697  158.5229 H   0  0  0  0  0  0  0  0  0  0  0  0
  151.3624  140.7581  159.9714 H   0  0  0  0  0  0  0  0  0  0  0  0
  152.7397  140.6872  158.8917 H   0  0  0  0  0  0  0  0  0  0  0  0
  152.3109  144.2226  157.0496 H   0  0  0  0  0  0  0  0  0  0  0  0
  152.6246  146.2314  158.8658 H   0  0  0  0  0  0  0  0  0  0  0  0
  151.5218  145.1621  161.1730 H   0  0  0  0  0  0  0  0  0  0  0  0
  1  2  1  0  0  0  0
  1 16  1  0  0  0  0
  1 17  1  0  0  0  0
  1 18  1  0  0  0  0
  2  3  1  0  0  0  0
  2  9  1  0  0  0  0
  2 19  1  0  0  0  0
  3  4  1  0  0  0  0
  3 20  1  0  0  0  0
  4  5  1  0  0  0  0
  4 21  1  0  0  0  0
  4 22  1  0  0  0  0
  5  6  1  0  0  0  0
  5  7  1  0  0  0  0
  5  8  1  0  0  0  0
  6 23  1  0  0  0  0
  6 24  1  0  0  0  0
  6 25  1  0  0  0  0
  7 26  1  0  0  0  0
  7 27  1  0  0  0  0
  7 28  1  0  0  0  0
  8 29  1  0  0  0  0
  9 10  1  0  0  0  0
  9 11  1  0  0  0  0
  9 30  1  0  0  0  0
 10 31  1  0  0  0  0
 10 32  1  0  0  0  0
 10 33  1  0  0  0  0
 11 15  1  0  0  0  0
 11 12  1  0  0  0  0
 12 13  2  0  0  0  0
 12 34  1  0  0  0  0
 13 14  1  0  0  0  0
 13 35  1  0  0  0  0
 14 15  2  0  0  0  0
 14 36  1  0  0  0  0
M  END
> <s_m_source_file>
AV-unprocessed.smi

> <i_m_source_file_index>
3117

> <i_lp_mmshare_version>
43012

> <i_f3d_flags>
0

> <s_epik_input>
W0NIM11DKFtDSDNdKShbT0hdKVtDSDJdW05IXVtDQEBIXShbQ0gzXSlbQ0BIXShbQ0gzXSluMVtjSF1bY0hdW2NIXW4x

> <s_epik_cmdline>
J2VwaWtfcHl0aG9uJywgJy1waCcsICc3LjAnLCAnLXRuJywgJzgnLCAnLW1hJywgJzIwMCcsICctbWV0YWxfYmluZGluZycsICctaW1hZScsICc8aW5maWxlLm1hZT4nLCAnLW9tYWUnLCAnPG91dGZpbGUubWFlPic=

> <r_lp_tautomer_probability>
1

> <r_epik_Ionization_Penalty>
2.13419

> <r_epik_Ionization_Penalty_Charging>
0

> <r_epik_Ionization_Penalty_Neutral>
2.13419

> <r_epik_State_Penalty>
2.27148

> <r_epik_Charging_Adjusted_Penalty>
2.27148

> <i_epik_Tot_Q>
0

> <i_epik_Tot_abs_Q>
0

> <r_epik_Metal_State_Penalty>
2.27029

> <b_epik_Metal_Only>
0

> <s_lp_Force_Field>
OPLS_2005

> <r_lp_Energy>
16.3619

> <b_lp_Chiralities_Consistent>
1

> <s_lp_Variant>
AV-unprocessed.smi:3117-8

> <Gold.Version>
5.8.1

> <Gold.Id.Protein>
6NUR|6NUR_protein|mol2

> <Gold.PLP.Fitness>
43.5318

> <Gold.PLP.PLP>
-38.1698

> <Gold.PLP.part.hbond>
-3.7495

> <Gold.PLP.part.metal>
0.0000

> <Gold.PLP.part.buried>
-6.5165

> <Gold.PLP.part.nonpolar>
-27.4552

> <Gold.PLP.part.repulsive>
0.0537

> <Gold.PLP.ligand.clash>
0.0000

> <Gold.PLP.ligand.torsion>
1.7883

> <Gold.PLP.Chemscore.Hbond>
2.8803

> <Gold.PLP.Chemscore.CHOScore>
0.0000

> <Gold.PLP.Chemscore.Metal>
0.0000

> <Gold.Chemscore.Hbonds>
donor molecule, donor type, donor heavy atom, donor atom, acceptor molecule, acceptor atom, score
      L1  H     3    20       P1  8028  0.85
      L1  H     8    29       P1  7957  0.82
      P1  H  7989  7998       L1     8  0.17
      P1  H  8011  8017       L1     8  0.95

> <Gold.PLP.Chemscore.Internal.Correction>
0.2978

> <Gold.Rescore>
     Score         DG    S(hbond)    S(metal)    S(lipo)     H(rot)  DE(clash)    DE(int)     intcor
     16.32     -18.06       2.18        0.00      93.21       2.19       0.16       1.58       ----

> <Gold.Chemscore.Fitness>
16.3221

> <Gold.Chemscore.DG>
-18.0600

> <Gold.Chemscore.ZeroCoef>
-5.4800

> <Gold.Chemscore.Hbond>
2.1785

> <Gold.Chemscore.Metal>
0.0000

> <Gold.Chemscore.Lipo>
93.2094

> <Gold.Chemscore.Internal_Hbond>
0.0000

> <Gold.Chemscore.DEClash>
0.1624

> <Gold.Chemscore.DEInternal>
1.5754

> <Gold.Chemscore.Rot>
2.1882

> <Gold.Chemscore.Internal.Correction>
   9.000000E+99

> <Gold.Chemscore.Hbonds>
donor molecule, donor type, donor heavy atom, donor atom, acceptor molecule, acceptor atom, score
      L1  H     3    20       P1  8028  0.79
      L1  H     8    29       P1  7957  0.80
      P1  H  7989  7998       L1     8  0.05
      P1  H  8011  8017       L1     8  0.21

> <Gold.Chemscore.Hbond.Weighted>
-7.2762

> <Gold.Chemscore.Metal.Weighted>
-0.0000

> <Gold.Chemscore.Lipo.Weighted>
-10.9055

> <Gold.Chemscore.Internal_Hbond.Weighted>
0.0000

> <Gold.Chemscore.DEClash.Weighted>
0.1624

> <Gold.Chemscore.DEInternal.Weighted>
1.5754

> <Gold.Chemscore.Rot.Weighted>
5.6018

> <Gold.Chemscore.Internal.Correction.Weighted>
   9.000000E+99

> <Gold.Protein.RotatedTorsions>
[ 6907 6896 6895 6894 ] final  142.51 input  -60.11 | X-H torsion
[ 7974 7965 7964 7962 ] final   67.20 input  175.53 | X-H torsion
[ 8008 7997 7996 7995 ] final -104.91 input   59.86 | X-H torsion
[ 10167 10162 10161 10158 ] final  153.19 input  -65.29 | X-H torsion
[ 10718 10713 10712 10709 ] final  116.40 input   66.30 | X-H torsion
[ 10763 10752 10751 10750 ] final  -11.57 input  -60.55 | X-H torsion
[ 11005 11000 10999 10996 ] final   46.18 input  -57.11 | X-H torsion

> <Gold.Protein.ActiveResidues>
 VAL166  LYS551  ARG553  GLY616  TRP617  ASP618  TYR619  PRO620  LYS621  CYS622 
 ASP623  PHE694  ASN695  SER759  ASP760  ASP761  ALA762  ILE779  LEU786  VAL792 
 PHE793  MET794  SER795  GLU796  ALA797  LYS798  CYS799  TRP800  GLU811  SER814 

> <Gold.Protein.RotatedAtoms>
  152.2178  133.4960  159.5145 H   0  0  0  0  0  0  0  0  0  0  0  0  # atno 6907 bound_to 6896
  150.7005  134.1382  159.4104 H   0  0  0  0  0  0  0  0  0  0  0  0  # atno 6908 bound_to 6896
  151.9302  135.0259  160.0579 H   0  0  0  0  0  0  0  0  0  0  0  0  # atno 6909 bound_to 6896
  145.8175  139.3066  143.1063 H   0  0  0  0  0  0  0  0  0  0  0  0  # atno 7974 bound_to 7965
  154.8922  140.0415  157.1845 H   0  0  0  0  0  0  0  0  0  0  0  0  # atno 8008 bound_to 7997
  154.8529  140.2932  155.5566 H   0  0  0  0  0  0  0  0  0  0  0  0  # atno 8009 bound_to 7997
  156.2996  140.2461  156.3491 H   0  0  0  0  0  0  0  0  0  0  0  0  # atno 8010 bound_to 7997
  139.4828  144.5294  151.7748 H   0  0  0  0  0  0  0  0  0  0  0  0  # atno 10167 bound_to 10162
  157.6163  131.1025  150.7467 H   0  0  0  0  0  0  0  0  0  0  0  0  # atno 10718 bound_to 10713
  153.4857  135.7017  153.5912 H   0  0  0  0  0  0  0  0  0  0  0  0  # atno 10763 bound_to 10752
  153.4106  135.3849  155.2048 H   0  0  0  0  0  0  0  0  0  0  0  0  # atno 10764 bound_to 10752
  154.8719  135.3904  154.4312 H   0  0  0  0  0  0  0  0  0  0  0  0  # atno 10765 bound_to 10752
  140.1392  134.4605  155.8462 H   0  0  0  0  0  0  0  0  0  0  0  0  # atno 11005 bound_to 11000
  145.9711  140.8759  143.0162 LP  0  0  0  0  0  0  0  0  0  0  0  0  # atno 17320 bound_to 7965
  144.6751  140.1947  143.7393 LP  0  0  0  0  0  0  0  0  0  0  0  0  # atno 17321 bound_to 7965
  140.4818  144.1439  150.5934 LP  0  0  0  0  0  0  0  0  0  0  0  0  # atno 17342 bound_to 10162
  140.4269  143.2585  151.9644 LP  0  0  0  0  0  0  0  0  0  0  0  0  # atno 17343 bound_to 10162
  156.7834  130.4866  149.5397 LP  0  0  0  0  0  0  0  0  0  0  0  0  # atno 17370 bound_to 10713
  156.1286  130.6162  151.0300 LP  0  0  0  0  0  0  0  0  0  0  0  0  # atno 17371 bound_to 10713
  141.2183  133.6826  156.7215 LP  0  0  0  0  0  0  0  0  0  0  0  0  # atno 17394 bound_to 11000
  140.2743  134.8367  157.3876 LP  0  0  0  0  0  0  0  0  0  0  0  0  # atno 17395 bound_to 11000

$$$$
