AV-unprocessed.smi:512|AV-procd|sdf|2769|dock5
  -GOLD-   2262023233D 1   1.00000     0.00000
 Structure written by MMmdl.
 48 50  0  0  0  0  0  0  0  0  1 V2000
  151.5922  138.3005  154.8829 C   0  0  0  0  0  0  0  0  0  0  0  0
  152.3399  139.3860  155.6603 C   0  0  0  0  0  0  0  0  0  0  0  0
  152.3206  139.0492  157.0355 O   0  0  0  0  0  0  0  0  0  0  0  0
  152.5237  140.1670  157.8841 C   0  0  0  0  0  0  0  0  0  0  0  0
  152.0867  139.8112  159.3118 C   0  0  0  0  0  0  0  0  0  0  0  0
  153.2268  139.7531  160.2250 N   0  0  0  0  0  0  0  0  0  0  0  0
  153.9050  140.7843  160.7990 C   0  0  0  0  0  0  0  0  0  0  0  0
  153.5408  142.1163  160.6014 N   0  0  0  0  0  0  0  0  0  0  0  0
  153.1556  143.0869  161.6231 C   0  0  0  0  0  0  0  0  0  0  0  0
  151.8540  143.8131  161.2308 C   0  0  0  0  0  0  0  0  0  0  0  0
  152.0674  144.5386  159.9789 N   0  0  0  0  0  0  0  0  0  0  0  0
  150.8414  145.2215  159.5933 C   0  0  0  0  0  0  0  0  0  0  0  0
  152.4464  143.5815  158.9392 C   0  0  0  0  0  0  0  0  0  0  0  0
  153.7387  142.8506  159.3555 C   0  0  0  0  0  0  0  0  0  0  0  0
  154.9720  140.4197  161.5147 N   0  0  0  0  0  0  0  0  0  0  0  0
  154.9613  139.0375  161.4125 C   0  0  0  0  0  0  0  0  0  0  0  0
  153.9291  138.6174  160.6371 C   0  0  0  0  0  0  0  0  0  0  0  0
  153.7134  137.1977  160.3198 C   0  0  0  0  0  0  0  0  0  0  0  0
  152.7972  136.7890  159.6102 O   0  0  0  0  0  0  0  0  0  0  0  0
  154.6358  136.3802  160.8830 N   0  0  0  0  0  0  0  0  0  0  0  0
  155.6929  136.7382  161.6732 C   0  0  0  0  0  0  0  0  0  0  0  0
  156.4575  135.8756  162.1050 O   0  0  0  0  0  0  0  0  0  0  0  0
  155.8577  138.0708  161.9511 N   0  0  0  0  0  0  0  0  0  0  0  0
  156.9747  138.5142  162.7874 C   0  0  0  0  0  0  0  0  0  0  0  0
  154.5348  135.3939  160.6926 H   0  0  0  0  0  0  0  0  0  0  0  0
  151.5901  138.5168  153.8145 H   0  0  0  0  0  0  0  0  0  0  0  0
  150.5553  138.2284  155.2126 H   0  0  0  0  0  0  0  0  0  0  0  0
  152.0582  137.3255  155.0268 H   0  0  0  0  0  0  0  0  0  0  0  0
  153.3688  139.4574  155.3047 H   0  0  0  0  0  0  0  0  0  0  0  0
  151.8647  140.3550  155.5019 H   0  0  0  0  0  0  0  0  0  0  0  0
  153.5770  140.4514  157.8804 H   0  0  0  0  0  0  0  0  0  0  0  0
  151.9528  141.0223  157.5206 H   0  0  0  0  0  0  0  0  0  0  0  0
  151.3563  140.5321  159.6667 H   0  0  0  0  0  0  0  0  0  0  0  0
  151.5611  138.8589  159.3205 H   0  0  0  0  0  0  0  0  0  0  0  0
  153.0501  142.5987  162.5910 H   0  0  0  0  0  0  0  0  0  0  0  0
  153.9622  143.8108  161.7479 H   0  0  0  0  0  0  0  0  0  0  0  0
  151.0329  143.1019  161.1272 H   0  0  0  0  0  0  0  0  0  0  0  0
  151.5744  144.5171  162.0155 H   0  0  0  0  0  0  0  0  0  0  0  0
  150.9860  145.7683  158.6609 H   0  0  0  0  0  0  0  0  0  0  0  0
  150.5481  145.9410  160.3585 H   0  0  0  0  0  0  0  0  0  0  0  0
  150.0198  144.5174  159.4533 H   0  0  0  0  0  0  0  0  0  0  0  0
  151.6427  142.8629  158.7691 H   0  0  0  0  0  0  0  0  0  0  0  0
  152.6099  144.1109  157.9997 H   0  0  0  0  0  0  0  0  0  0  0  0
  154.5622  143.5572  159.4692 H   0  0  0  0  0  0  0  0  0  0  0  0
  154.0307  142.1546  158.5682 H   0  0  0  0  0  0  0  0  0  0  0  0
  157.0354  137.9274  163.7054 H   0  0  0  0  0  0  0  0  0  0  0  0
  156.8836  139.5594  163.0834 H   0  0  0  0  0  0  0  0  0  0  0  0
  157.9165  138.4024  162.2490 H   0  0  0  0  0  0  0  0  0  0  0  0
  1  2  1  0  0  0  0
  1 26  1  0  0  0  0
  1 27  1  0  0  0  0
  1 28  1  0  0  0  0
  2  3  1  0  0  0  0
  2 29  1  0  0  0  0
  2 30  1  0  0  0  0
  3  4  1  0  0  0  0
  4  5  1  0  0  0  0
  4 31  1  0  0  0  0
  4 32  1  0  0  0  0
  5  6  1  0  0  0  0
  5 33  1  0  0  0  0
  5 34  1  0  0  0  0
  6 17  1  0  0  0  0
  6  7  1  0  0  0  0
  7  8  1  0  0  0  0
  7 15  2  0  0  0  0
  8 14  1  0  0  0  0
  8  9  1  0  0  0  0
  9 10  1  0  0  0  0
  9 35  1  0  0  0  0
  9 36  1  0  0  0  0
 10 11  1  0  0  0  0
 10 37  1  0  0  0  0
 10 38  1  0  0  0  0
 11 12  1  0  0  0  0
 11 13  1  0  0  0  0
 12 39  1  0  0  0  0
 12 40  1  0  0  0  0
 12 41  1  0  0  0  0
 13 14  1  0  0  0  0
 13 42  1  0  0  0  0
 13 43  1  0  0  0  0
 14 44  1  0  0  0  0
 14 45  1  0  0  0  0
 15 16  1  0  0  0  0
 16 23  1  0  0  0  0
 16 17  2  0  0  0  0
 17 18  1  0  0  0  0
 18 19  2  0  0  0  0
 18 20  1  0  0  0  0
 20 25  1  0  0  0  0
 20 21  1  0  0  0  0
 21 22  2  0  0  0  0
 21 23  1  0  0  0  0
 23 24  1  0  0  0  0
 24 46  1  0  0  0  0
 24 47  1  0  0  0  0
 24 48  1  0  0  0  0
M  END
> <s_m_source_file>
AV-unprocessed.smi

> <i_m_source_file_index>
512

> <i_lp_mmshare_version>
43012

> <i_f3d_flags>
0

> <s_epik_input>
W0NIM11uMWMoPU8pW25IXWMoPU8pYyhjMTIpbihbQ0gyXVtDSDJdT1tDSDJdW0NIM10pYyhuMilOM1tDSDJdW0NIMl1OKFtDSDNdKVtDSDJdW0NIMl0z

> <s_epik_cmdline>
J2VwaWtfcHl0aG9uJywgJy1waCcsICc3LjAnLCAnLXRuJywgJzgnLCAnLW1hJywgJzIwMCcsICctbWV0YWxfYmluZGluZycsICctaW1hZScsICc8aW5maWxlLm1hZT4nLCAnLW9tYWUnLCAnPG91dGZpbGUubWFlPic=

> <r_epik_Ionization_Penalty>
1.34391

> <r_epik_Ionization_Penalty_Charging>
1.55829e-05

> <r_epik_Ionization_Penalty_Neutral>
1.34389

> <r_epik_State_Penalty>
1.4212

> <r_epik_Charging_Adjusted_Penalty>
1.42122

> <i_epik_Tot_Q>
0

> <i_epik_Tot_abs_Q>
0

> <r_epik_Metal_State_Penalty>
1.44738

> <b_epik_Metal_Only>
0

> <s_lp_Force_Field>
OPLS_2005

> <r_lp_Energy>
48.5788

> <b_lp_Chiralities_Consistent>
1

> <s_lp_Variant>
AV-unprocessed.smi:512-2

> <Gold.Version>
5.8.1

> <Gold.Id.Protein>
6NUR|6NUR_protein|mol2

> <Gold.PLP.Fitness>
42.0975

> <Gold.PLP.PLP>
-42.7830

> <Gold.PLP.part.hbond>
-1.0000

> <Gold.PLP.part.metal>
0.0000

> <Gold.PLP.part.buried>
-6.0848

> <Gold.PLP.part.nonpolar>
-35.3430

> <Gold.PLP.part.repulsive>
0.1410

> <Gold.PLP.ligand.clash>
0.0000

> <Gold.PLP.ligand.torsion>
2.0794

> <Gold.PLP.Chemscore.Hbond>
1.0000

> <Gold.PLP.Chemscore.CHOScore>
0.0000

> <Gold.PLP.Chemscore.Metal>
0.0000

> <Gold.Chemscore.Hbonds>
donor molecule, donor type, donor heavy atom, donor atom, acceptor molecule, acceptor atom, score
      P1  H  6896  6908       L1    19  1.00

> <Gold.PLP.Chemscore.Internal.Correction>
0.4733

> <Gold.Rescore>
     Score         DG    S(hbond)    S(metal)    S(lipo)     H(rot)  DE(clash)    DE(int)     intcor
     13.56     -15.48       0.99        0.00      92.83       1.63       0.02       1.90       ----

> <Gold.Chemscore.Fitness>
13.5596

> <Gold.Chemscore.DG>
-15.4789

> <Gold.Chemscore.ZeroCoef>
-5.4800

> <Gold.Chemscore.Hbond>
0.9933

> <Gold.Chemscore.Metal>
0.0000

> <Gold.Chemscore.Lipo>
92.8318

> <Gold.Chemscore.Internal_Hbond>
0.0000

> <Gold.Chemscore.DEClash>
0.0174

> <Gold.Chemscore.DEInternal>
1.9020

> <Gold.Chemscore.Rot>
1.6328

> <Gold.Chemscore.Internal.Correction>
   9.000000E+99

> <Gold.Chemscore.Hbonds>
donor molecule, donor type, donor heavy atom, donor atom, acceptor molecule, acceptor atom, score
      P1  H  6896  6908       L1    19  0.93

> <Gold.Chemscore.Hbond.Weighted>
-3.3176

> <Gold.Chemscore.Metal.Weighted>
-0.0000

> <Gold.Chemscore.Lipo.Weighted>
-10.8613

> <Gold.Chemscore.Internal_Hbond.Weighted>
0.0000

> <Gold.Chemscore.DEClash.Weighted>
0.0174

> <Gold.Chemscore.DEInternal.Weighted>
1.9020

> <Gold.Chemscore.Rot.Weighted>
4.1800

> <Gold.Chemscore.Internal.Correction.Weighted>
   9.000000E+99

> <Gold.Protein.RotatedTorsions>
[ 6907 6896 6895 6894 ] final  -90.25 input  -60.11 | X-H torsion
[ 7974 7965 7964 7962 ] final  -22.61 input  175.53 | X-H torsion
[ 8008 7997 7996 7995 ] final   82.24 input   59.86 | X-H torsion
[ 10167 10162 10161 10158 ] final  -75.13 input  -65.29 | X-H torsion
[ 10718 10713 10712 10709 ] final   63.34 input   66.30 | X-H torsion
[ 10763 10752 10751 10750 ] final  -67.41 input  -60.55 | X-H torsion
[ 11005 11000 10999 10996 ] final -114.40 input  -57.11 | X-H torsion

> <Gold.Protein.ActiveResidues>
 VAL166  LYS551  ARG553  GLY616  TRP617  ASP618  TYR619  PRO620  LYS621  CYS622 
 ASP623  PHE694  ASN695  SER759  ASP760  ASP761  ALA762  ILE779  LEU786  VAL792 
 PHE793  MET794  SER795  GLU796  ALA797  LYS798  CYS799  TRP800  GLU811  SER814 

> <Gold.Protein.RotatedAtoms>
  150.6880  134.2461  159.4491 H   0  0  0  0  0  0  0  0  0  0  0  0  # atno 6907 bound_to 6896
  152.0402  134.9713  160.0583 H   0  0  0  0  0  0  0  0  0  0  0  0  # atno 6908 bound_to 6896
  152.1218  133.4323  159.4716 H   0  0  0  0  0  0  0  0  0  0  0  0  # atno 6909 bound_to 6896
  146.1666  140.4502  142.8549 H   0  0  0  0  0  0  0  0  0  0  0  0  # atno 7974 bound_to 7965
  155.9079  140.3429  155.6076 H   0  0  0  0  0  0  0  0  0  0  0  0  # atno 8008 bound_to 7997
  155.7422  140.0809  157.2259 H   0  0  0  0  0  0  0  0  0  0  0  0  # atno 8009 bound_to 7997
  154.4052  140.1568  156.2616 H   0  0  0  0  0  0  0  0  0  0  0  0  # atno 8010 bound_to 7997
  140.4968  143.2369  151.7817 H   0  0  0  0  0  0  0  0  0  0  0  0  # atno 10167 bound_to 10162
  157.5964  130.9100  149.9703 H   0  0  0  0  0  0  0  0  0  0  0  0  # atno 10718 bound_to 10713
  154.3740  135.6089  153.5755 H   0  0  0  0  0  0  0  0  0  0  0  0  # atno 10763 bound_to 10752
  152.9789  135.5845  154.4488 H   0  0  0  0  0  0  0  0  0  0  0  0  # atno 10764 bound_to 10752
  154.4247  135.2846  155.1930 H   0  0  0  0  0  0  0  0  0  0  0  0  # atno 10765 bound_to 10752
  141.0554  133.9620  157.2762 H   0  0  0  0  0  0  0  0  0  0  0  0  # atno 11005 bound_to 11000
  144.8101  140.6370  143.6421 LP  0  0  0  0  0  0  0  0  0  0  0  0  # atno 17320 bound_to 7965
  145.4452  139.1530  143.3948 LP  0  0  0  0  0  0  0  0  0  0  0  0  # atno 17321 bound_to 7965
  139.4863  144.4575  151.9580 LP  0  0  0  0  0  0  0  0  0  0  0  0  # atno 17342 bound_to 10162
  140.3663  144.2911  150.5926 LP  0  0  0  0  0  0  0  0  0  0  0  0  # atno 17343 bound_to 10162
  156.1028  130.3654  150.0188 LP  0  0  0  0  0  0  0  0  0  0  0  0  # atno 17370 bound_to 10713
  156.8300  130.9389  151.3637 LP  0  0  0  0  0  0  0  0  0  0  0  0  # atno 17371 bound_to 10713
  139.9386  135.0194  156.8635 LP  0  0  0  0  0  0  0  0  0  0  0  0  # atno 17394 bound_to 11000
  140.5973  134.0205  155.7523 LP  0  0  0  0  0  0  0  0  0  0  0  0  # atno 17395 bound_to 11000

$$$$
