AV-unprocessed.smi:3157|AV-procd|sdf|12038|dock10
  -GOLD-   2272017463D 1   1.00000     0.00000
 Structure written by MMmdl.
 40 41  0  0  0  0  0  0  0  0  2 V2000
  148.2582  141.9864  154.1149 C   0  0  0  0  0  0  0  0  0  0  0  0
  149.5195  141.4358  154.8138 C   0  0  1  0  0  0  0  0  0  0  0  0
  149.7255  142.1285  156.1064 N   0  3  0  0  0  0  0  0  0  0  0  0
  151.1001  142.0636  156.6456 C   0  0  0  0  0  0  0  0  0  0  0  0
  151.2220  142.8647  157.9516 C   0  0  0  0  0  0  0  0  0  0  0  0
  151.5195  144.3554  157.7478 C   0  0  0  0  0  0  0  0  0  0  0  0
  152.1763  144.8309  159.0511 C   0  0  0  0  0  0  0  0  0  0  0  0
  152.6049  143.5659  159.8089 C   0  0  0  0  0  0  0  0  0  0  0  0
  152.3745  142.4010  158.8441 C   0  0  0  0  0  0  0  0  0  0  0  0
  149.4615  139.9031  155.0458 C   0  0  2  0  0  0  0  0  0  0  0  0
  148.8953  139.5344  156.4297 C   0  0  0  0  0  0  0  0  0  0  0  0
  150.7629  139.2720  154.8605 N   0  0  0  0  0  0  0  0  0  0  0  0
  151.1495  138.3491  153.9084 C   0  0  0  0  0  0  0  0  0  0  0  0
  152.4589  138.0429  154.1443 C   0  0  0  0  0  0  0  0  0  0  0  0
  152.7928  138.8366  155.2765 C   0  0  0  0  0  0  0  0  0  0  0  0
  151.7766  139.5690  155.7029 N   0  0  0  0  0  0  0  0  0  0  0  0
  148.1261  141.5587  153.1210 H   0  0  0  0  0  0  0  0  0  0  0  0
  148.3053  143.0667  153.9819 H   0  0  0  0  0  0  0  0  0  0  0  0
  147.3599  141.7635  154.6919 H   0  0  0  0  0  0  0  0  0  0  0  0
  150.3795  141.6426  154.1746 H   0  0  0  0  0  0  0  0  0  0  0  0
  149.4498  143.0949  156.0050 H   0  0  0  0  0  0  0  0  0  0  0  0
  151.3502  141.0187  156.8339 H   0  0  0  0  0  0  0  0  0  0  0  0
  151.8161  142.4343  155.9124 H   0  0  0  0  0  0  0  0  0  0  0  0
  150.2967  142.7679  158.5226 H   0  0  0  0  0  0  0  0  0  0  0  0
  152.2231  144.4861  156.9241 H   0  0  0  0  0  0  0  0  0  0  0  0
  150.6236  144.9276  157.5051 H   0  0  0  0  0  0  0  0  0  0  0  0
  153.0296  145.4764  158.8397 H   0  0  0  0  0  0  0  0  0  0  0  0
  151.4734  145.4087  159.6522 H   0  0  0  0  0  0  0  0  0  0  0  0
  153.6399  143.6161  160.1483 H   0  0  0  0  0  0  0  0  0  0  0  0
  151.9774  143.4404  160.6924 H   0  0  0  0  0  0  0  0  0  0  0  0
  152.1541  141.4679  159.3637 H   0  0  0  0  0  0  0  0  0  0  0  0
  153.2718  142.2420  158.2443 H   0  0  0  0  0  0  0  0  0  0  0  0
  148.7884  139.4793  154.2972 H   0  0  0  0  0  0  0  0  0  0  0  0
  147.8764  139.9004  156.5569 H   0  0  0  0  0  0  0  0  0  0  0  0
  149.5000  139.9532  157.2349 H   0  0  0  0  0  0  0  0  0  0  0  0
  148.8680  138.4525  156.5643 H   0  0  0  0  0  0  0  0  0  0  0  0
  150.4682  137.9890  153.1518 H   0  0  0  0  0  0  0  0  0  0  0  0
  153.0835  137.3558  153.5927 H   0  0  0  0  0  0  0  0  0  0  0  0
  153.7363  138.9009  155.7985 H   0  0  0  0  0  0  0  0  0  0  0  0
  149.1192  141.6941  156.7876 H   0  0  0  0  0  0  0  0  0  0  0  0
  1  2  1  0  0  0  0
  1 17  1  0  0  0  0
  1 18  1  0  0  0  0
  1 19  1  0  0  0  0
  2  3  1  0  0  0  0
  2 10  1  0  0  0  0
  2 20  1  0  0  0  0
  3  4  1  0  0  0  0
  3 21  1  0  0  0  0
  3 40  1  0  0  0  0
  4  5  1  0  0  0  0
  4 22  1  0  0  0  0
  4 23  1  0  0  0  0
  5  9  1  0  0  0  0
  5  6  1  0  0  0  0
  5 24  1  0  0  0  0
  6  7  1  0  0  0  0
  6 25  1  0  0  0  0
  6 26  1  0  0  0  0
  7  8  1  0  0  0  0
  7 27  1  0  0  0  0
  7 28  1  0  0  0  0
  8  9  1  0  0  0  0
  8 29  1  0  0  0  0
  8 30  1  0  0  0  0
  9 31  1  0  0  0  0
  9 32  1  0  0  0  0
 10 11  1  0  0  0  0
 10 12  1  0  0  0  0
 10 33  1  0  0  0  0
 11 34  1  0  0  0  0
 11 35  1  0  0  0  0
 11 36  1  0  0  0  0
 12 16  1  0  0  0  0
 12 13  1  0  0  0  0
 13 14  2  0  0  0  0
 13 37  1  0  0  0  0
 14 15  1  0  0  0  0
 14 38  1  0  0  0  0
 15 16  2  0  0  0  0
 15 39  1  0  0  0  0
M  CHG  1   3   1
M  END
> <s_m_source_file>
AV-unprocessed.smi

> <i_m_source_file_index>
3157

> <i_lp_mmshare_version>
43012

> <i_f3d_flags>
0

> <s_epik_input>
bjFbY0hdW2NIXVtjSF1uMVtDQEBIXShbQ0gzXSlbQ0BIXShbQ0gzXSlbTkhdW0NIMl1bQ0hdMltDSDJdW0NIMl1bQ0gyXVtDSDJdMg==

> <s_epik_cmdline>
J2VwaWtfcHl0aG9uJywgJy1waCcsICc3LjAnLCAnLXRuJywgJzgnLCAnLW1hJywgJzIwMCcsICctbWV0YWxfYmluZGluZycsICctaW1hZScsICc8aW5maWxlLm1hZT4nLCAnLW9tYWUnLCAnPG91dGZpbGUubWFlPic=

> <r_lp_tautomer_probability>
1

> <r_epik_Ionization_Penalty>
0.00132192

> <r_epik_Ionization_Penalty_Charging>
0.0013111

> <r_epik_Ionization_Penalty_Neutral>
1.08112e-05

> <r_epik_State_Penalty>
-0

> <r_epik_Charging_Adjusted_Penalty>
0.0013111

> <i_epik_Tot_Q>
1

> <i_epik_Tot_abs_Q>
1

> <r_epik_Metal_State_Penalty>
-0

> <b_epik_Metal_Only>
0

> <s_lp_Force_Field>
OPLS_2005

> <r_lp_Energy>
32.0676

> <b_lp_Chiralities_Consistent>
1

> <s_lp_Variant>
AV-unprocessed.smi:3157-2

> <Gold.Version>
5.8.1

> <Gold.Id.Protein>
6NUR|6NUR_protein|mol2

> <Gold.PLP.Fitness>
46.9364

> <Gold.PLP.PLP>
-40.6772

> <Gold.PLP.part.hbond>
-1.0000

> <Gold.PLP.part.metal>
0.0000

> <Gold.PLP.part.buried>
-3.3435

> <Gold.PLP.part.nonpolar>
-37.0151

> <Gold.PLP.part.repulsive>
0.0895

> <Gold.PLP.ligand.clash>
0.2616

> <Gold.PLP.ligand.torsion>
1.3509

> <Gold.PLP.Chemscore.Hbond>
2.0000

> <Gold.PLP.Chemscore.CHOScore>
1.0463

> <Gold.PLP.Chemscore.Metal>
0.0000

> <Gold.Chemscore.Hbonds>
donor molecule, donor type, donor heavy atom, donor atom, acceptor molecule, acceptor atom, score
      L1  H     3    21       P1  8028  2.00
      L1  C    13    37       P1  7948  0.60
      L1  C    13    37       P1  7949  0.26

> <Gold.PLP.Chemscore.Internal.Correction>
0.0837

> <Gold.Rescore>
     Score         DG    S(hbond)    S(metal)    S(lipo)     H(rot)  DE(clash)    DE(int)     intcor
     16.01     -18.80       1.00        0.00     118.24       1.50       0.02       2.77       ----

> <Gold.Chemscore.Fitness>
16.0121

> <Gold.Chemscore.DG>
-18.7990

> <Gold.Chemscore.ZeroCoef>
-5.4800

> <Gold.Chemscore.Hbond>
0.9992

> <Gold.Chemscore.Metal>
0.0000

> <Gold.Chemscore.Lipo>
118.2354

> <Gold.Chemscore.Internal_Hbond>
0.0000

> <Gold.Chemscore.DEClash>
0.0207

> <Gold.Chemscore.DEInternal>
2.7662

> <Gold.Chemscore.Rot>
1.5047

> <Gold.Chemscore.Internal.Correction>
   9.000000E+99

> <Gold.Chemscore.Hbonds>
donor molecule, donor type, donor heavy atom, donor atom, acceptor molecule, acceptor atom, score
      L1  H     3    21       P1  8028  1.00

> <Gold.Chemscore.Hbond.Weighted>
-3.3374

> <Gold.Chemscore.Metal.Weighted>
-0.0000

> <Gold.Chemscore.Lipo.Weighted>
-13.8335

> <Gold.Chemscore.Internal_Hbond.Weighted>
0.0000

> <Gold.Chemscore.DEClash.Weighted>
0.0207

> <Gold.Chemscore.DEInternal.Weighted>
2.7662

> <Gold.Chemscore.Rot.Weighted>
3.8520

> <Gold.Chemscore.Internal.Correction.Weighted>
   9.000000E+99

> <Gold.Protein.RotatedTorsions>
[ 6907 6896 6895 6894 ] final  -48.67 input  -60.11 | X-H torsion
[ 7974 7965 7964 7962 ] final    8.77 input  175.53 | X-H torsion
[ 8008 7997 7996 7995 ] final   13.87 input   59.86 | X-H torsion
[ 10167 10162 10161 10158 ] final  116.80 input  -65.29 | X-H torsion
[ 10718 10713 10712 10709 ] final   17.46 input   66.30 | X-H torsion
[ 10763 10752 10751 10750 ] final  -43.50 input  -60.55 | X-H torsion
[ 11005 11000 10999 10996 ] final  103.00 input  -57.11 | X-H torsion

> <Gold.Protein.ActiveResidues>
 VAL166  LYS551  ARG553  GLY616  TRP617  ASP618  TYR619  PRO620  LYS621  CYS622 
 ASP623  PHE694  ASN695  SER759  ASP760  ASP761  ALA762  ILE779  LEU786  VAL792 
 PHE793  MET794  SER795  GLU796  ALA797  LYS798  CYS799  TRP800  GLU811  SER814 

> <Gold.Protein.RotatedAtoms>
  150.8882  134.8283  159.7274 H   0  0  0  0  0  0  0  0  0  0  0  0  # atno 6907 bound_to 6896
  152.4821  134.4689  159.9639 H   0  0  0  0  0  0  0  0  0  0  0  0  # atno 6908 bound_to 6896
  151.4755  133.3520  159.2865 H   0  0  0  0  0  0  0  0  0  0  0  0  # atno 6909 bound_to 6896
  146.2412  139.9883  142.8428 H   0  0  0  0  0  0  0  0  0  0  0  0  # atno 7974 bound_to 7965
  154.8405  140.2914  155.5663 H   0  0  0  0  0  0  0  0  0  0  0  0  # atno 8008 bound_to 7997
  156.3011  140.2515  156.3278 H   0  0  0  0  0  0  0  0  0  0  0  0  # atno 8009 bound_to 7997
  154.9131  140.0388  157.1946 H   0  0  0  0  0  0  0  0  0  0  0  0  # atno 8010 bound_to 7997
  139.6222  144.7103  151.2609 H   0  0  0  0  0  0  0  0  0  0  0  0  # atno 10167 bound_to 10162
  157.0825  130.6393  149.5829 H   0  0  0  0  0  0  0  0  0  0  0  0  # atno 10718 bound_to 10713
  153.9966  135.6698  153.4757 H   0  0  0  0  0  0  0  0  0  0  0  0  # atno 10763 bound_to 10752
  153.0681  135.4989  154.8241 H   0  0  0  0  0  0  0  0  0  0  0  0  # atno 10764 bound_to 10752
  154.7077  135.3091  154.9207 H   0  0  0  0  0  0  0  0  0  0  0  0  # atno 10765 bound_to 10752
  139.8781  134.9246  156.5143 H   0  0  0  0  0  0  0  0  0  0  0  0  # atno 11005 bound_to 11000
  145.1527  140.9631  143.4423 LP  0  0  0  0  0  0  0  0  0  0  0  0  # atno 17320 bound_to 7965
  145.0190  139.3441  143.6082 LP  0  0  0  0  0  0  0  0  0  0  0  0  # atno 17321 bound_to 7965
  140.7389  143.6634  150.8144 LP  0  0  0  0  0  0  0  0  0  0  0  0  # atno 17342 bound_to 10162
  140.0246  143.5507  152.2786 LP  0  0  0  0  0  0  0  0  0  0  0  0  # atno 17343 bound_to 10162
  155.9920  130.4976  150.7321 LP  0  0  0  0  0  0  0  0  0  0  0  0  # atno 17370 bound_to 10713
  157.4789  131.0900  151.0559 LP  0  0  0  0  0  0  0  0  0  0  0  0  # atno 17371 bound_to 10713
  140.8497  133.8141  155.9157 LP  0  0  0  0  0  0  0  0  0  0  0  0  # atno 17394 bound_to 11000
  140.9156  134.2206  157.4959 LP  0  0  0  0  0  0  0  0  0  0  0  0  # atno 17395 bound_to 11000

$$$$
