AV-unprocessed.smi:3188|AV-procd|sdf|12185|dock8
  -GOLD-   2272018 23D 1   1.00000     0.00000
 Structure written by MMmdl.
 40 41  0  0  0  0  0  0  0  0  2 V2000
  151.9670  139.6629  157.9919 C   0  0  0  0  0  0  0  0  0  0  0  0
  152.1694  140.9779  158.7279 C   0  0  0  0  0  0  0  0  0  0  0  0
  152.8561  140.9925  159.8864 C   0  0  0  0  0  0  0  0  0  0  0  0
  153.1847  142.2434  160.6678 C   0  0  0  0  0  0  0  0  0  0  0  0
  153.1029  143.4846  159.7765 C   0  0  0  0  0  0  0  0  0  0  0  0
  151.7841  143.5232  158.9877 C   0  0  1  0  0  0  0  0  0  0  0  0
  151.7074  144.8363  158.1849 C   0  0  0  0  0  0  0  0  0  0  0  0
  151.5920  142.2604  158.0914 C   0  0  2  0  0  0  0  0  0  0  0  0
  150.0995  142.1159  157.6913 C   0  0  0  0  0  0  0  0  0  0  0  0
  149.9021  142.0636  156.2291 N   0  3  0  0  0  0  0  0  0  0  0  0
  149.0167  140.9749  155.7700 C   0  0  0  0  0  0  0  0  0  0  0  0
  149.4647  140.4243  154.4070 C   0  0  0  0  0  0  0  0  0  0  0  0
  150.7096  139.6840  154.5078 N   0  0  0  0  0  0  0  0  0  0  0  0
  150.9906  138.4102  154.0594 C   0  0  0  0  0  0  0  0  0  0  0  0
  152.2866  138.2173  154.4445 C   0  0  0  0  0  0  0  0  0  0  0  0
  152.7322  139.3624  155.1023 N   0  0  0  0  0  0  0  0  0  0  0  0
  151.7783  140.2384  155.1288 N   0  0  0  0  0  0  0  0  0  0  0  0
  152.2628  139.7584  156.9469 H   0  0  0  0  0  0  0  0  0  0  0  0
  150.9258  139.3442  158.0392 H   0  0  0  0  0  0  0  0  0  0  0  0
  152.5679  138.8655  158.4307 H   0  0  0  0  0  0  0  0  0  0  0  0
  153.2245  140.0676  160.3066 H   0  0  0  0  0  0  0  0  0  0  0  0
  152.4952  142.3217  161.5088 H   0  0  0  0  0  0  0  0  0  0  0  0
  154.1889  142.1532  161.0827 H   0  0  0  0  0  0  0  0  0  0  0  0
  153.2068  144.3785  160.3929 H   0  0  0  0  0  0  0  0  0  0  0  0
  153.9439  143.4901  159.0812 H   0  0  0  0  0  0  0  0  0  0  0  0
  150.9788  143.5396  159.7241 H   0  0  0  0  0  0  0  0  0  0  0  0
  152.4805  144.8755  157.4169 H   0  0  0  0  0  0  0  0  0  0  0  0
  151.8498  145.6993  158.8361 H   0  0  0  0  0  0  0  0  0  0  0  0
  150.7453  144.9695  157.6931 H   0  0  0  0  0  0  0  0  0  0  0  0
  152.1748  142.4191  157.1827 H   0  0  0  0  0  0  0  0  0  0  0  0
  149.6847  141.2175  158.1509 H   0  0  0  0  0  0  0  0  0  0  0  0
  149.5062  142.9508  158.0602 H   0  0  0  0  0  0  0  0  0  0  0  0
  149.5271  142.9476  155.9158 H   0  0  0  0  0  0  0  0  0  0  0  0
  149.0121  140.1706  156.5072 H   0  0  0  0  0  0  0  0  0  0  0  0
  147.9960  141.3529  155.7026 H   0  0  0  0  0  0  0  0  0  0  0  0
  148.7028  139.7534  154.0084 H   0  0  0  0  0  0  0  0  0  0  0  0
  149.5803  141.2322  153.6823 H   0  0  0  0  0  0  0  0  0  0  0  0
  150.2814  137.7847  153.5372 H   0  0  0  0  0  0  0  0  0  0  0  0
  152.9281  137.3592  154.3075 H   0  0  0  0  0  0  0  0  0  0  0  0
  150.8075  141.9294  155.8011 H   0  0  0  0  0  0  0  0  0  0  0  0
  1  2  1  0  0  0  0
  1 18  1  0  0  0  0
  1 19  1  0  0  0  0
  1 20  1  0  0  0  0
  2  8  1  0  0  0  0
  2  3  2  0  0  0  0
  3  4  1  0  0  0  0
  3 21  1  0  0  0  0
  4  5  1  0  0  0  0
  4 22  1  0  0  0  0
  4 23  1  0  0  0  0
  5  6  1  0  0  0  0
  5 24  1  0  0  0  0
  5 25  1  0  0  0  0
  6  7  1  0  0  0  0
  6  8  1  0  0  0  0
  6 26  1  0  0  0  0
  7 27  1  0  0  0  0
  7 28  1  0  0  0  0
  7 29  1  0  0  0  0
  8  9  1  0  0  0  0
  8 30  1  0  0  0  0
  9 10  1  0  0  0  0
  9 31  1  0  0  0  0
  9 32  1  0  0  0  0
 10 11  1  0  0  0  0
 10 33  1  0  0  0  0
 10 40  1  0  0  0  0
 11 12  1  0  0  0  0
 11 34  1  0  0  0  0
 11 35  1  0  0  0  0
 12 13  1  0  0  0  0
 12 36  1  0  0  0  0
 12 37  1  0  0  0  0
 13 17  1  0  0  0  0
 13 14  1  0  0  0  0
 14 15  2  0  0  0  0
 14 38  1  0  0  0  0
 15 16  1  0  0  0  0
 15 39  1  0  0  0  0
 16 17  2  0  0  0  0
M  CHG  1  10   1
M  END
> <s_m_source_file>
AV-unprocessed.smi

> <i_m_source_file_index>
3188

> <i_lp_mmshare_version>
43012

> <i_f3d_flags>
0

> <s_epik_input>
W0NIM11DMT1bQ0hdW0NIMl1bQ0gyXVtDQEBIXShbQ0gzXSlbQ0BIXTFbQ0gyXVtOSF1bQ0gyXVtDSDJdbjJbY0hdW2NIXW5uMg==

> <s_epik_cmdline>
J2VwaWtfcHl0aG9uJywgJy1waCcsICc3LjAnLCAnLXRuJywgJzgnLCAnLW1hJywgJzIwMCcsICctbWV0YWxfYmluZGluZycsICctaW1hZScsICc8aW5maWxlLm1hZT4nLCAnLW9tYWUnLCAnPG91dGZpbGUubWFlPic=

> <r_lp_tautomer_probability>
1

> <r_epik_Ionization_Penalty>
0.007268

> <r_epik_Ionization_Penalty_Charging>
0.00726786

> <r_epik_Ionization_Penalty_Neutral>
1.34882e-07

> <r_epik_State_Penalty>
0.00542069

> <r_epik_Charging_Adjusted_Penalty>
0.0126886

> <i_epik_Tot_Q>
1

> <i_epik_Tot_abs_Q>
1

> <r_epik_Metal_State_Penalty>
-0

> <b_epik_Metal_Only>
0

> <s_lp_Force_Field>
OPLS_2005

> <r_lp_Energy>
14.3192

> <b_lp_Chiralities_Consistent>
1

> <s_lp_Variant>
AV-unprocessed.smi:3188-3

> <Gold.Version>
5.8.1

> <Gold.Id.Protein>
6NUR|6NUR_protein|mol2

> <Gold.PLP.Fitness>
50.5311

> <Gold.PLP.PLP>
-41.6926

> <Gold.PLP.part.hbond>
-3.1842

> <Gold.PLP.part.metal>
0.0000

> <Gold.PLP.part.buried>
-3.5409

> <Gold.PLP.part.nonpolar>
-34.0121

> <Gold.PLP.part.repulsive>
0.1137

> <Gold.PLP.ligand.clash>
0.0000

> <Gold.PLP.ligand.torsion>
1.3778

> <Gold.PLP.Chemscore.Hbond>
2.9425

> <Gold.PLP.Chemscore.CHOScore>
0.8979

> <Gold.PLP.Chemscore.Metal>
0.0000

> <Gold.Chemscore.Hbonds>
donor molecule, donor type, donor heavy atom, donor atom, acceptor molecule, acceptor atom, score
      L1  H    10    33       P1  8028  2.00
      P1  H  7997  8010       L1    16  0.93
      L1  C    14    38       P1  7948  0.84
      L1  C    14    38       P1  7949  0.06

> <Gold.PLP.Chemscore.Internal.Correction>
0.0728

> <Gold.Rescore>
     Score         DG    S(hbond)    S(metal)    S(lipo)     H(rot)  DE(clash)    DE(int)     intcor
     17.85     -20.68       1.99        0.00     112.10       1.78       0.16       2.67       ----

> <Gold.Chemscore.Fitness>
17.8451

> <Gold.Chemscore.DG>
-20.6755

> <Gold.Chemscore.ZeroCoef>
-5.4800

> <Gold.Chemscore.Hbond>
1.9877

> <Gold.Chemscore.Metal>
0.0000

> <Gold.Chemscore.Lipo>
112.0979

> <Gold.Chemscore.Internal_Hbond>
0.0000

> <Gold.Chemscore.DEClash>
0.1628

> <Gold.Chemscore.DEInternal>
2.6676

> <Gold.Chemscore.Rot>
1.7809

> <Gold.Chemscore.Internal.Correction>
   9.000000E+99

> <Gold.Chemscore.Hbonds>
donor molecule, donor type, donor heavy atom, donor atom, acceptor molecule, acceptor atom, score
      L1  H    10    33       P1  8028  1.00
      P1  H  7997  8010       L1    16  0.62

> <Gold.Chemscore.Hbond.Weighted>
-6.6391

> <Gold.Chemscore.Metal.Weighted>
-0.0000

> <Gold.Chemscore.Lipo.Weighted>
-13.1155

> <Gold.Chemscore.Internal_Hbond.Weighted>
0.0000

> <Gold.Chemscore.DEClash.Weighted>
0.1628

> <Gold.Chemscore.DEInternal.Weighted>
2.6676

> <Gold.Chemscore.Rot.Weighted>
4.5590

> <Gold.Chemscore.Internal.Correction.Weighted>
   9.000000E+99

> <Gold.Protein.RotatedTorsions>
[ 6907 6896 6895 6894 ] final -175.52 input  -60.11 | X-H torsion
[ 7974 7965 7964 7962 ] final   49.32 input  175.53 | X-H torsion
[ 8008 7997 7996 7995 ] final   99.91 input   59.86 | X-H torsion
[ 10167 10162 10161 10158 ] final   71.26 input  -65.29 | X-H torsion
[ 10718 10713 10712 10709 ] final  150.66 input   66.30 | X-H torsion
[ 10763 10752 10751 10750 ] final  102.70 input  -60.55 | X-H torsion
[ 11005 11000 10999 10996 ] final   97.87 input  -57.11 | X-H torsion

> <Gold.Protein.ActiveResidues>
 VAL166  LYS551  ARG553  GLY616  TRP617  ASP618  TYR619  PRO620  LYS621  CYS622 
 ASP623  PHE694  ASN695  SER759  ASP760  ASP761  ALA762  ILE779  LEU786  VAL792 
 PHE793  MET794  SER795  GLU796  ALA797  LYS798  CYS799  TRP800  GLU811  SER814 

> <Gold.Protein.RotatedAtoms>
  151.5900  133.3367  159.3025 H   0  0  0  0  0  0  0  0  0  0  0  0  # atno 6907 bound_to 6896
  150.8266  134.7502  159.6829 H   0  0  0  0  0  0  0  0  0  0  0  0  # atno 6908 bound_to 6896
  152.4354  134.5702  159.9970 H   0  0  0  0  0  0  0  0  0  0  0  0  # atno 6909 bound_to 6896
  146.0120  139.4554  142.9950 H   0  0  0  0  0  0  0  0  0  0  0  0  # atno 7974 bound_to 7965
  156.1152  140.3221  155.8129 H   0  0  0  0  0  0  0  0  0  0  0  0  # atno 8008 bound_to 7997
  155.4603  140.0539  157.3009 H   0  0  0  0  0  0  0  0  0  0  0  0  # atno 8009 bound_to 7997
  154.4788  140.2044  155.9828 H   0  0  0  0  0  0  0  0  0  0  0  0  # atno 8010 bound_to 7997
  140.0480  144.5335  150.7384 H   0  0  0  0  0  0  0  0  0  0  0  0  # atno 10167 bound_to 10162
  157.2807  131.0835  151.1534 H   0  0  0  0  0  0  0  0  0  0  0  0  # atno 10718 bound_to 10713
  153.3430  135.4001  155.1587 H   0  0  0  0  0  0  0  0  0  0  0  0  # atno 10763 bound_to 10752
  154.8647  135.3638  154.5321 H   0  0  0  0  0  0  0  0  0  0  0  0  # atno 10764 bound_to 10752
  153.5767  135.7077  153.5540 H   0  0  0  0  0  0  0  0  0  0  0  0  # atno 10765 bound_to 10752
  139.8774  134.9022  156.4371 H   0  0  0  0  0  0  0  0  0  0  0  0  # atno 11005 bound_to 11000
  145.7327  141.0036  143.1343 LP  0  0  0  0  0  0  0  0  0  0  0  0  # atno 17320 bound_to 7965
  144.6956  139.9003  143.7458 LP  0  0  0  0  0  0  0  0  0  0  0  0  # atno 17321 bound_to 7965
  140.7230  143.2607  151.4216 LP  0  0  0  0  0  0  0  0  0  0  0  0  # atno 17342 bound_to 10162
  139.5971  144.1374  152.2156 LP  0  0  0  0  0  0  0  0  0  0  0  0  # atno 17343 bound_to 10162
  157.2969  130.6824  149.6143 LP  0  0  0  0  0  0  0  0  0  0  0  0  # atno 17370 bound_to 10713
  155.9664  130.4404  150.5297 LP  0  0  0  0  0  0  0  0  0  0  0  0  # atno 17371 bound_to 10713
  140.9026  133.7769  155.9697 LP  0  0  0  0  0  0  0  0  0  0  0  0  # atno 17394 bound_to 11000
  140.8635  134.2812  157.5224 LP  0  0  0  0  0  0  0  0  0  0  0  0  # atno 17395 bound_to 11000

$$$$
