AV-unprocessed.smi:634|AV-procd|sdf|3136|dock6
  -GOLD-   22720 0 63D 1   1.00000     0.00000
 Structure written by MMmdl.
 32 33  0  0  0  0  0  0  0  0  2 V2000
  145.3395  135.3682  162.1472 C   0  0  0  0  0  0  0  0  0  0  0  0
  146.4816  135.7965  161.2906 C   0  0  0  0  0  0  0  0  0  0  0  0
  147.4757  135.1064  160.6572 C   0  0  0  0  0  0  0  0  0  0  0  0
  148.2215  136.1303  160.0117 C   0  0  0  0  0  0  0  0  0  0  0  0
  149.3206  135.9528  159.2622 N   0  5  0  0  0  0  0  0  0  0  0  0
  149.6741  136.8774  158.3397 C   0  0  0  0  0  0  0  0  0  0  0  0
  148.9295  137.3833  157.4978 O   0  0  0  0  0  0  0  0  0  0  0  0
  150.9705  137.2260  158.4067 N   0  0  0  0  0  0  0  0  0  0  0  0
  151.7328  138.1861  157.5960 C   0  0  2  0  0  0  0  0  0  0  0  0
  153.2126  138.0179  157.9980 C   0  0  0  0  0  0  0  0  0  0  0  0
  151.2978  139.6542  157.8542 C   0  0  0  0  0  0  0  0  0  0  0  0
  151.8347  140.5556  156.7325 C   0  0  0  0  0  0  0  0  0  0  0  0
  151.9561  139.5028  155.2369 S   0  0  0  0  0  0  0  0  0  0  0  0
  150.8616  139.8325  154.3115 O   0  0  0  0  0  0  0  0  0  0  0  0
  153.3535  139.4891  154.7776 O   0  0  0  0  0  0  0  0  0  0  0  0
  151.5754  137.9204  156.0804 C   0  0  0  0  0  0  0  0  0  0  0  0
  147.7333  137.3366  160.2474 N   0  0  0  0  0  0  0  0  0  0  0  0
  146.6136  137.1307  161.0620 O   0  0  0  0  0  0  0  0  0  0  0  0
  145.6940  135.0352  163.1225 H   0  0  0  0  0  0  0  0  0  0  0  0
  144.7980  134.5434  161.6839 H   0  0  0  0  0  0  0  0  0  0  0  0
  144.6366  136.1869  162.3033 H   0  0  0  0  0  0  0  0  0  0  0  0
  147.6423  134.0396  160.6518 H   0  0  0  0  0  0  0  0  0  0  0  0
  151.5019  136.7608  159.1281 H   0  0  0  0  0  0  0  0  0  0  0  0
  153.8684  138.6842  157.4379 H   0  0  0  0  0  0  0  0  0  0  0  0
  153.5577  136.9989  157.8182 H   0  0  0  0  0  0  0  0  0  0  0  0
  153.3614  138.2298  159.0576 H   0  0  0  0  0  0  0  0  0  0  0  0
  150.2122  139.7381  157.8412 H   0  0  0  0  0  0  0  0  0  0  0  0
  151.6156  140.0087  158.8352 H   0  0  0  0  0  0  0  0  0  0  0  0
  151.1906  141.4129  156.5368 H   0  0  0  0  0  0  0  0  0  0  0  0
  152.8340  140.9199  156.9703 H   0  0  0  0  0  0  0  0  0  0  0  0
  152.2299  137.1318  155.7091 H   0  0  0  0  0  0  0  0  0  0  0  0
  150.5543  137.6567  155.8088 H   0  0  0  0  0  0  0  0  0  0  0  0
  1  2  1  0  0  0  0
  1 19  1  0  0  0  0
  1 20  1  0  0  0  0
  1 21  1  0  0  0  0
  2 18  1  0  0  0  0
  2  3  2  0  0  0  0
  3  4  1  0  0  0  0
  3 22  1  0  0  0  0
  4  5  1  0  0  0  0
  4 17  2  0  0  0  0
  5  6  1  0  0  0  0
  6  7  2  0  0  0  0
  6  8  1  0  0  0  0
  8  9  1  0  0  0  0
  8 23  1  0  0  0  0
  9 16  1  0  0  0  0
  9 10  1  0  0  0  0
  9 11  1  0  0  0  0
 10 24  1  0  0  0  0
 10 25  1  0  0  0  0
 10 26  1  0  0  0  0
 11 12  1  0  0  0  0
 11 27  1  0  0  0  0
 11 28  1  0  0  0  0
 12 13  1  0  0  0  0
 12 29  1  0  0  0  0
 12 30  1  0  0  0  0
 13 14  2  0  0  0  0
 13 15  2  0  0  0  0
 13 16  1  0  0  0  0
 16 31  1  0  0  0  0
 16 32  1  0  0  0  0
 17 18  1  0  0  0  0
M  CHG  1   5  -1
M  END
> <s_m_source_file>
AV-unprocessed.smi

> <i_m_source_file_index>
634

> <i_lp_mmshare_version>
43012

> <i_f3d_flags>
0

> <s_epik_input>
W0NIM11jMVtjSF1jKG5vMSlbTkhdQyg9TylbTkhdW0NAQF0yKFtDSDNdKVtDSDJdW0NIMl1TKD1PKSg9TylbQ0gyXTI=

> <s_epik_cmdline>
J2VwaWtfcHl0aG9uJywgJy1waCcsICc3LjAnLCAnLXRuJywgJzgnLCAnLW1hJywgJzIwMCcsICctbWV0YWxfYmluZGluZycsICctaW1hZScsICc8aW5maWxlLm1hZT4nLCAnLW9tYWUnLCAnPG91dGZpbGUubWFlPic=

> <r_lp_tautomer_probability>
1

> <r_epik_Ionization_Penalty>
6.15572

> <r_epik_Ionization_Penalty_Charging>
6.1556

> <r_epik_Ionization_Penalty_Neutral>
0.000118136

> <r_epik_State_Penalty>
6.15558

> <r_epik_Charging_Adjusted_Penalty>
12.3112

> <i_epik_Tot_Q>
-1

> <i_epik_Tot_abs_Q>
1

> <r_epik_Metal_State_Penalty>
2.10569

> <b_epik_Metal_Only>
1

> <s_lp_Force_Field>
OPLS_2005

> <r_lp_Energy>
-1.68809

> <b_lp_Chiralities_Consistent>
1

> <s_lp_Variant>
AV-unprocessed.smi:634-4

> <Gold.Version>
5.8.1

> <Gold.Id.Protein>
6NUR|6NUR_protein|mol2

> <Gold.PLP.Fitness>
38.2007

> <Gold.PLP.PLP>
-25.5382

> <Gold.PLP.part.hbond>
-6.3486

> <Gold.PLP.part.metal>
0.0000

> <Gold.PLP.part.buried>
-4.6504

> <Gold.PLP.part.nonpolar>
-14.9882

> <Gold.PLP.part.repulsive>
0.2418

> <Gold.PLP.ligand.clash>
0.0000

> <Gold.PLP.ligand.torsion>
0.6294

> <Gold.PLP.Chemscore.Hbond>
4.6384

> <Gold.PLP.Chemscore.CHOScore>
0.0000

> <Gold.PLP.Chemscore.Metal>
0.0000

> <Gold.Chemscore.Hbonds>
donor molecule, donor type, donor heavy atom, donor atom, acceptor molecule, acceptor atom, score
      P1  H  6896  6909       L1     5  2.00
      P1  H  6931  6943       L1    17  0.18
      P1  H  7989  7998       L1    14  0.84
      P1  H  7997  8009       L1    15  1.00

> <Gold.PLP.Chemscore.Internal.Correction>
0.0061

> <Gold.Rescore>
     Score         DG    S(hbond)    S(metal)    S(lipo)     H(rot)  DE(clash)    DE(int)     intcor
     12.62     -14.47       1.83        0.00      46.53       1.00       0.07       1.78       ----

> <Gold.Chemscore.Fitness>
12.6233

> <Gold.Chemscore.DG>
-14.4722

> <Gold.Chemscore.ZeroCoef>
-5.4800

> <Gold.Chemscore.Hbond>
1.8288

> <Gold.Chemscore.Metal>
0.0000

> <Gold.Chemscore.Lipo>
46.5294

> <Gold.Chemscore.Internal_Hbond>
0.0000

> <Gold.Chemscore.DEClash>
0.0661

> <Gold.Chemscore.DEInternal>
1.7828

> <Gold.Chemscore.Rot>
1.0000

> <Gold.Chemscore.Internal.Correction>
   9.000000E+99

> <Gold.Chemscore.Hbonds>
donor molecule, donor type, donor heavy atom, donor atom, acceptor molecule, acceptor atom, score
      P1  H  6896  6909       L1     5  0.70
      P1  H  6931  6943       L1    17  0.02
      P1  H  7989  7998       L1    14  0.14
      P1  H  7997  8009       L1    15  0.88

> <Gold.Chemscore.Hbond.Weighted>
-6.1083

> <Gold.Chemscore.Metal.Weighted>
-0.0000

> <Gold.Chemscore.Lipo.Weighted>
-5.4439

> <Gold.Chemscore.Internal_Hbond.Weighted>
0.0000

> <Gold.Chemscore.DEClash.Weighted>
0.0661

> <Gold.Chemscore.DEInternal.Weighted>
1.7828

> <Gold.Chemscore.Rot.Weighted>
2.5600

> <Gold.Chemscore.Internal.Correction.Weighted>
   9.000000E+99

> <Gold.Protein.RotatedTorsions>
[ 6907 6896 6895 6894 ] final   74.38 input  -60.11 | X-H torsion
[ 7974 7965 7964 7962 ] final   22.21 input  175.53 | X-H torsion
[ 8008 7997 7996 7995 ] final -136.96 input   59.86 | X-H torsion
[ 10167 10162 10161 10158 ] final   19.15 input  -65.29 | X-H torsion
[ 10718 10713 10712 10709 ] final    4.71 input   66.30 | X-H torsion
[ 10763 10752 10751 10750 ] final  149.32 input  -60.55 | X-H torsion
[ 11005 11000 10999 10996 ] final -104.44 input  -57.11 | X-H torsion

> <Gold.Protein.ActiveResidues>
 VAL166  LYS551  ARG553  GLY616  TRP617  ASP618  TYR619  PRO620  LYS621  CYS622 
 ASP623  PHE694  ASN695  SER759  ASP760  ASP761  ALA762  ILE779  LEU786  VAL792 
 PHE793  MET794  SER795  GLU796  ALA797  LYS798  CYS799  TRP800  GLU811  SER814 

> <Gold.Protein.RotatedAtoms>
  152.4972  134.4281  159.9502 H   0  0  0  0  0  0  0  0  0  0  0  0  # atno 6907 bound_to 6896
  151.4257  133.3679  159.2770 H   0  0  0  0  0  0  0  0  0  0  0  0  # atno 6908 bound_to 6896
  150.9190  134.8631  159.7536 H   0  0  0  0  0  0  0  0  0  0  0  0  # atno 6909 bound_to 6896
  146.2038  139.7917  142.8741 H   0  0  0  0  0  0  0  0  0  0  0  0  # atno 7974 bound_to 7965
  155.4038  140.0507  157.3035 H   0  0  0  0  0  0  0  0  0  0  0  0  # atno 8008 bound_to 7997
  154.4978  140.2145  155.9370 H   0  0  0  0  0  0  0  0  0  0  0  0  # atno 8009 bound_to 7997
  156.1428  140.3151  155.8528 H   0  0  0  0  0  0  0  0  0  0  0  0  # atno 8010 bound_to 7997
  140.5601  143.9353  150.6636 H   0  0  0  0  0  0  0  0  0  0  0  0  # atno 10167 bound_to 10162
  156.8966  130.5707  149.5648 H   0  0  0  0  0  0  0  0  0  0  0  0  # atno 10718 bound_to 10713
  154.0692  135.2868  155.3311 H   0  0  0  0  0  0  0  0  0  0  0  0  # atno 10763 bound_to 10752
  154.6758  135.5282  153.8200 H   0  0  0  0  0  0  0  0  0  0  0  0  # atno 10764 bound_to 10752
  153.0492  135.6569  154.0875 H   0  0  0  0  0  0  0  0  0  0  0  0  # atno 10765 bound_to 10752
  141.1100  133.8724  157.1612 H   0  0  0  0  0  0  0  0  0  0  0  0  # atno 11005 bound_to 11000
  145.3390  141.0283  143.3403 LP  0  0  0  0  0  0  0  0  0  0  0  0  # atno 17320 bound_to 7965
  144.8745  139.4991  143.6752 LP  0  0  0  0  0  0  0  0  0  0  0  0  # atno 17321 bound_to 7965
  140.2802  143.3395  152.1158 LP  0  0  0  0  0  0  0  0  0  0  0  0  # atno 17342 bound_to 10162
  139.5066  144.6816  151.5993 LP  0  0  0  0  0  0  0  0  0  0  0  0  # atno 17343 bound_to 10162
  156.0602  130.5656  150.9177 LP  0  0  0  0  0  0  0  0  0  0  0  0  # atno 17370 bound_to 10713
  157.6051  131.0939  150.8893 LP  0  0  0  0  0  0  0  0  0  0  0  0  # atno 17371 bound_to 10713
  139.9989  135.0036  157.0145 LP  0  0  0  0  0  0  0  0  0  0  0  0  # atno 17394 bound_to 11000
  140.4801  134.1298  155.7215 LP  0  0  0  0  0  0  0  0  0  0  0  0  # atno 17395 bound_to 11000

$$$$
