AV-unprocessed.smi:2510|AV-procd|sdf|9872|dock10
  -GOLD-   2272013503D 1   1.00000     0.00000
 Structure written by MMmdl.
 48 49  0  0  0  0  0  0  0  0  1 V2000
  149.3567  141.5314  154.6471 C   0  0  0  0  0  0  0  0  0  0  0  0
  149.7276  140.1899  155.3044 C   0  0  0  0  0  0  0  0  0  0  0  0
  150.7766  140.2472  156.4526 C   0  0  0  0  0  0  0  0  0  0  0  0
  150.9020  141.6925  156.9725 C   0  0  0  0  0  0  0  0  0  0  0  0
  151.8291  141.8560  158.1874 C   0  0  0  0  0  0  0  0  0  0  0  0
  150.6886  139.1567  157.5586 C   0  0  1  0  0  0  0  0  0  0  0  0
  149.3754  138.5497  157.7471 N   0  0  0  0  0  0  0  0  0  0  0  0
  149.1587  137.3381  158.2814 C   0  0  0  0  0  0  0  0  0  0  0  0
  150.0592  136.6105  158.6995 O   0  0  0  0  0  0  0  0  0  0  0  0
  147.7028  136.8714  158.3471 C   0  0  0  0  0  0  0  0  0  0  0  0
  147.3515  136.4342  159.7444 C   0  0  0  0  0  0  0  0  0  0  0  0
  147.7486  135.2400  160.4162 C   0  0  0  0  0  0  0  0  0  0  0  0
  147.1785  135.3424  161.6537 C   0  0  0  0  0  0  0  0  0  0  0  0
  147.2138  134.4340  162.8350 C   0  0  0  0  0  0  0  0  0  0  0  0
  146.4910  136.5339  161.6630 N   0  0  0  0  0  0  0  0  0  0  0  0
  146.5859  137.2084  160.5025 N   0  0  0  0  0  0  0  0  0  0  0  0
  151.6222  138.2592  156.7390 C   0  0  2  0  0  0  0  0  0  0  0  0
  152.5803  137.3326  157.4764 C   0  0  0  0  0  0  0  0  0  0  0  0
  152.1375  139.5714  156.1317 C   0  0  1  0  0  0  0  0  0  0  0  0
  152.4181  139.5214  154.7402 O   0  0  0  0  0  0  0  0  0  0  0  0
  153.4672  138.6280  154.4121 C   0  0  0  0  0  0  0  0  0  0  0  0
  145.9595  136.8936  162.4431 H   0  0  0  0  0  0  0  0  0  0  0  0
  148.4926  141.4113  153.9938 H   0  0  0  0  0  0  0  0  0  0  0  0
  150.1697  141.9177  154.0332 H   0  0  0  0  0  0  0  0  0  0  0  0
  149.1080  142.2931  155.3817 H   0  0  0  0  0  0  0  0  0  0  0  0
  148.8051  139.7363  155.6668 H   0  0  0  0  0  0  0  0  0  0  0  0
  150.0694  139.5183  154.5167 H   0  0  0  0  0  0  0  0  0  0  0  0
  151.2137  142.3685  156.1768 H   0  0  0  0  0  0  0  0  0  0  0  0
  149.9169  142.0574  157.2647 H   0  0  0  0  0  0  0  0  0  0  0  0
  151.8168  142.8863  158.5426 H   0  0  0  0  0  0  0  0  0  0  0  0
  152.8624  141.6084  157.9463 H   0  0  0  0  0  0  0  0  0  0  0  0
  151.5157  141.2187  159.0145 H   0  0  0  0  0  0  0  0  0  0  0  0
  151.1686  139.4694  158.4897 H   0  0  0  0  0  0  0  0  0  0  0  0
  148.5747  139.0840  157.4408 H   0  0  0  0  0  0  0  0  0  0  0  0
  147.0511  137.6804  158.0145 H   0  0  0  0  0  0  0  0  0  0  0  0
  147.5551  136.0484  157.6469 H   0  0  0  0  0  0  0  0  0  0  0  0
  148.3671  134.4359  160.0459 H   0  0  0  0  0  0  0  0  0  0  0  0
  147.8653  133.5796  162.6503 H   0  0  0  0  0  0  0  0  0  0  0  0
  146.2172  134.0550  163.0616 H   0  0  0  0  0  0  0  0  0  0  0  0
  147.5870  134.9575  163.7154 H   0  0  0  0  0  0  0  0  0  0  0  0
  151.0540  137.7071  155.9878 H   0  0  0  0  0  0  0  0  0  0  0  0
  153.2126  137.8847  158.1722 H   0  0  0  0  0  0  0  0  0  0  0  0
  153.2346  136.8018  156.7856 H   0  0  0  0  0  0  0  0  0  0  0  0
  152.0355  136.5835  158.0513 H   0  0  0  0  0  0  0  0  0  0  0  0
  152.9554  140.0073  156.7110 H   0  0  0  0  0  0  0  0  0  0  0  0
  153.6609  138.6722  153.3404 H   0  0  0  0  0  0  0  0  0  0  0  0
  153.2065  137.5997  154.6602 H   0  0  0  0  0  0  0  0  0  0  0  0
  154.3891  138.8931  154.9314 H   0  0  0  0  0  0  0  0  0  0  0  0
  1  2  1  0  0  0  0
  1 23  1  0  0  0  0
  1 24  1  0  0  0  0
  1 25  1  0  0  0  0
  2  3  1  0  0  0  0
  2 26  1  0  0  0  0
  2 27  1  0  0  0  0
  3 19  1  0  0  0  0
  3  4  1  0  0  0  0
  3  6  1  0  0  0  0
  4  5  1  0  0  0  0
  4 28  1  0  0  0  0
  4 29  1  0  0  0  0
  5 30  1  0  0  0  0
  5 31  1  0  0  0  0
  5 32  1  0  0  0  0
  6  7  1  0  0  0  0
  6 17  1  0  0  0  0
  6 33  1  0  0  0  0
  7  8  1  0  0  0  0
  7 34  1  0  0  0  0
  8  9  2  0  0  0  0
  8 10  1  0  0  0  0
 10 11  1  0  0  0  0
 10 35  1  0  0  0  0
 10 36  1  0  0  0  0
 11 16  2  0  0  0  0
 11 12  1  0  0  0  0
 12 13  2  0  0  0  0
 12 37  1  0  0  0  0
 13 14  1  0  0  0  0
 13 15  1  0  0  0  0
 14 38  1  0  0  0  0
 14 39  1  0  0  0  0
 14 40  1  0  0  0  0
 15 22  1  0  0  0  0
 15 16  1  0  0  0  0
 17 18  1  0  0  0  0
 17 19  1  0  0  0  0
 17 41  1  0  0  0  0
 18 42  1  0  0  0  0
 18 43  1  0  0  0  0
 18 44  1  0  0  0  0
 19 20  1  0  0  0  0
 19 45  1  0  0  0  0
 20 21  1  0  0  0  0
 21 46  1  0  0  0  0
 21 47  1  0  0  0  0
 21 48  1  0  0  0  0
M  END
> <s_m_source_file>
AV-unprocessed.smi

> <i_m_source_file_index>
2510

> <i_lp_mmshare_version>
43012

> <i_f3d_flags>
0

> <s_epik_input>
W0NIM11PW0NAQEhdMVtDQEhdKFtDSDNdKVtDQEBIXShDMShbQ0gyXVtDSDNdKVtDSDJdW0NIM10pW05IXUMoPU8pW0NIMl1jMltjSF1jKFtDSDNdKVtuSF1uMg==

> <s_epik_cmdline>
J2VwaWtfcHl0aG9uJywgJy1waCcsICc3LjAnLCAnLXRuJywgJzgnLCAnLW1hJywgJzIwMCcsICctbWV0YWxfYmluZGluZycsICctaW1hZScsICc8aW5maWxlLm1hZT4nLCAnLW9tYWUnLCAnPG91dGZpbGUubWFlPic=

> <r_lp_tautomer_probability>
0.5

> <r_epik_Ionization_Penalty>
9.73156e-05

> <r_epik_Ionization_Penalty_Charging>
0

> <r_epik_Ionization_Penalty_Neutral>
9.73156e-05

> <r_epik_State_Penalty>
0.41068

> <r_epik_Charging_Adjusted_Penalty>
0.41068

> <i_epik_Tot_Q>
0

> <i_epik_Tot_abs_Q>
0

> <r_epik_Metal_State_Penalty>
0.410699

> <b_epik_Metal_Only>
0

> <s_lp_Force_Field>
OPLS_2005

> <r_lp_Energy>
23.9763

> <b_lp_Chiralities_Consistent>
1

> <s_lp_Variant>
AV-unprocessed.smi:2510-3

> <Gold.Version>
5.8.1

> <Gold.Id.Protein>
6NUR|6NUR_protein|mol2

> <Gold.PLP.Fitness>
38.7530

> <Gold.PLP.PLP>
-33.1693

> <Gold.PLP.part.hbond>
-2.9149

> <Gold.PLP.part.metal>
0.0000

> <Gold.PLP.part.buried>
-4.8928

> <Gold.PLP.part.nonpolar>
-26.1394

> <Gold.PLP.part.repulsive>
0.2861

> <Gold.PLP.ligand.clash>
0.0000

> <Gold.PLP.ligand.torsion>
1.4077

> <Gold.PLP.Chemscore.Hbond>
2.5975

> <Gold.PLP.Chemscore.CHOScore>
0.0000

> <Gold.PLP.Chemscore.Metal>
0.0000

> <Gold.Chemscore.Hbonds>
donor molecule, donor type, donor heavy atom, donor atom, acceptor molecule, acceptor atom, score
      P1  H  6896  6908       L1     9  0.71
      P1  H  6934  6947       L1    16  1.00
      P1  H  7989  7998       L1    20  0.69

> <Gold.PLP.Chemscore.Internal.Correction>
0.6067

> <Gold.Rescore>
     Score         DG    S(hbond)    S(metal)    S(lipo)     H(rot)  DE(clash)    DE(int)     intcor
     16.10     -19.84       2.34        0.00      95.44       1.81       0.20       3.53       ----

> <Gold.Chemscore.Fitness>
16.1004

> <Gold.Chemscore.DG>
-19.8399

> <Gold.Chemscore.ZeroCoef>
-5.4800

> <Gold.Chemscore.Hbond>
2.3435

> <Gold.Chemscore.Metal>
0.0000

> <Gold.Chemscore.Lipo>
95.4431

> <Gold.Chemscore.Internal_Hbond>
0.0000

> <Gold.Chemscore.DEClash>
0.2045

> <Gold.Chemscore.DEInternal>
3.5350

> <Gold.Chemscore.Rot>
1.8102

> <Gold.Chemscore.Internal.Correction>
   9.000000E+99

> <Gold.Chemscore.Hbonds>
donor molecule, donor type, donor heavy atom, donor atom, acceptor molecule, acceptor atom, score
      P1  H  6896  6908       L1     9  0.70
      P1  H  6934  6947       L1    16  0.63
      P1  H  7989  7998       L1    20  0.66

> <Gold.Chemscore.Hbond.Weighted>
-7.8272

> <Gold.Chemscore.Metal.Weighted>
-0.0000

> <Gold.Chemscore.Lipo.Weighted>
-11.1668

> <Gold.Chemscore.Internal_Hbond.Weighted>
0.0000

> <Gold.Chemscore.DEClash.Weighted>
0.2045

> <Gold.Chemscore.DEInternal.Weighted>
3.5350

> <Gold.Chemscore.Rot.Weighted>
4.6341

> <Gold.Chemscore.Internal.Correction.Weighted>
   9.000000E+99

> <Gold.Protein.RotatedTorsions>
[ 6907 6896 6895 6894 ] final -164.00 input  -60.11 | X-H torsion
[ 7974 7965 7964 7962 ] final  -79.99 input  175.53 | X-H torsion
[ 8008 7997 7996 7995 ] final   -8.06 input   59.86 | X-H torsion
[ 10167 10162 10161 10158 ] final  178.38 input  -65.29 | X-H torsion
[ 10718 10713 10712 10709 ] final -172.86 input   66.30 | X-H torsion
[ 10763 10752 10751 10750 ] final   63.15 input  -60.55 | X-H torsion
[ 11005 11000 10999 10996 ] final -155.38 input  -57.11 | X-H torsion

> <Gold.Protein.ActiveResidues>
 VAL166  LYS551  ARG553  GLY616  TRP617  ASP618  TYR619  PRO620  LYS621  CYS622 
 ASP623  PHE694  ASN695  SER759  ASP760  ASP761  ALA762  ILE779  LEU786  VAL792 
 PHE793  MET794  SER795  GLU796  ALA797  LYS798  CYS799  TRP800  GLU811  SER814 

> <Gold.Protein.RotatedAtoms>
  151.4049  133.3745  159.2736 H   0  0  0  0  0  0  0  0  0  0  0  0  # atno 6907 bound_to 6896
  150.9406  134.8816  159.7620 H   0  0  0  0  0  0  0  0  0  0  0  0  # atno 6908 bound_to 6896
  152.5069  134.3999  159.9465 H   0  0  0  0  0  0  0  0  0  0  0  0  # atno 6909 bound_to 6896
  145.5659  140.9474  143.1422 H   0  0  0  0  0  0  0  0  0  0  0  0  # atno 7974 bound_to 7965
  154.5777  140.2391  155.8098 H   0  0  0  0  0  0  0  0  0  0  0  0  # atno 8008 bound_to 7997
  156.2156  140.3013  155.9788 H   0  0  0  0  0  0  0  0  0  0  0  0  # atno 8009 bound_to 7997
  155.2596  140.0414  157.2986 H   0  0  0  0  0  0  0  0  0  0  0  0  # atno 8010 bound_to 7997
  139.5291  144.2687  152.0646 H   0  0  0  0  0  0  0  0  0  0  0  0  # atno 10167 bound_to 10162
  156.7617  130.9416  151.3118 H   0  0  0  0  0  0  0  0  0  0  0  0  # atno 10718 bound_to 10713
  153.0007  135.5439  154.6306 H   0  0  0  0  0  0  0  0  0  0  0  0  # atno 10763 bound_to 10752
  154.5584  135.2832  155.0945 H   0  0  0  0  0  0  0  0  0  0  0  0  # atno 10764 bound_to 10752
  154.2157  135.6459  153.5181 H   0  0  0  0  0  0  0  0  0  0  0  0  # atno 10765 bound_to 10752
  140.6871  134.4082  157.5222 H   0  0  0  0  0  0  0  0  0  0  0  0  # atno 11005 bound_to 11000
  144.7460  139.7318  143.7292 LP  0  0  0  0  0  0  0  0  0  0  0  0  # atno 17320 bound_to 7965
  146.1818  139.5014  142.9861 LP  0  0  0  0  0  0  0  0  0  0  0  0  # atno 17321 bound_to 7965
  140.2148  144.4526  150.6369 LP  0  0  0  0  0  0  0  0  0  0  0  0  # atno 17342 bound_to 10162
  140.6457  143.2213  151.6191 LP  0  0  0  0  0  0  0  0  0  0  0  0  # atno 17343 bound_to 10162
  157.6731  130.9069  150.0087 LP  0  0  0  0  0  0  0  0  0  0  0  0  # atno 17370 bound_to 10713
  156.1334  130.3643  149.9695 LP  0  0  0  0  0  0  0  0  0  0  0  0  # atno 17371 bound_to 10713
  139.8934  134.8731  156.2223 LP  0  0  0  0  0  0  0  0  0  0  0  0  # atno 17394 bound_to 11000
  141.0271  133.7009  156.1367 LP  0  0  0  0  0  0  0  0  0  0  0  0  # atno 17395 bound_to 11000

$$$$
