AV-unprocessed.smi:3187|AV-procd|sdf|12179|dock4
  -GOLD-   2272018 23D 1   1.00000     0.00000
 Structure written by MMmdl.
 42 43  0  0  0  0  0  0  0  0  3 V2000
  147.6558  141.7603  154.0132 C   0  0  0  0  0  0  0  0  0  0  0  0
  148.6193  141.1032  154.9879 C   0  0  0  0  0  0  0  0  0  0  0  0
  148.6110  141.4362  156.2940 C   0  0  0  0  0  0  0  0  0  0  0  0
  149.5650  140.8800  157.3365 C   0  0  0  0  0  0  0  0  0  0  0  0
  150.4393  139.7333  156.8033 C   0  0  0  0  0  0  0  0  0  0  0  0
  150.8628  139.9826  155.3456 C   0  0  1  0  0  0  0  0  0  0  0  0
  151.9295  138.9803  154.8718 C   0  0  0  0  0  0  0  0  0  0  0  0
  149.6214  140.0912  154.4153 C   0  0  1  0  0  0  0  0  0  0  0  0
  148.9630  138.7179  154.1190 C   0  0  0  0  0  0  0  0  0  0  0  0
  148.3246  138.6643  152.7889 N   0  3  0  0  0  0  0  0  0  0  0  0
  146.8530  138.7708  152.8189 C   0  0  0  0  0  0  0  0  0  0  0  0
  146.2116  137.4379  153.2305 C   0  0  0  0  0  0  0  0  0  0  0  0
  145.6336  136.7336  152.0834 N   0  0  0  0  0  0  0  0  0  0  0  0
  144.4020  136.1344  152.0117 C   0  0  0  0  0  0  0  0  0  0  0  0
  144.2991  135.6020  150.7522 C   0  0  0  0  0  0  0  0  0  0  0  0
  145.4705  135.8992  150.1087 N   0  3  0  0  0  0  0  0  0  0  0  0
  146.2808  136.5879  150.9194 C   0  0  0  0  0  0  0  0  0  0  0  0
  148.1866  142.1165  153.1300 H   0  0  0  0  0  0  0  0  0  0  0  0
  147.1629  142.6193  154.4701 H   0  0  0  0  0  0  0  0  0  0  0  0
  146.8739  141.0717  153.6980 H   0  0  0  0  0  0  0  0  0  0  0  0
  147.9058  142.1719  156.6529 H   0  0  0  0  0  0  0  0  0  0  0  0
  150.2009  141.7018  157.6673 H   0  0  0  0  0  0  0  0  0  0  0  0
  149.0002  140.5489  158.2085 H   0  0  0  0  0  0  0  0  0  0  0  0
  151.3155  139.6212  157.4430 H   0  0  0  0  0  0  0  0  0  0  0  0
  149.8937  138.7921  156.8739 H   0  0  0  0  0  0  0  0  0  0  0  0
  151.3511  140.9587  155.3249 H   0  0  0  0  0  0  0  0  0  0  0  0
  151.6039  137.9472  154.9935 H   0  0  0  0  0  0  0  0  0  0  0  0
  152.8483  139.0952  155.4476 H   0  0  0  0  0  0  0  0  0  0  0  0
  152.1807  139.1375  153.8226 H   0  0  0  0  0  0  0  0  0  0  0  0
  149.9813  140.4979  153.4689 H   0  0  0  0  0  0  0  0  0  0  0  0
  149.7039  137.9200  154.1436 H   0  0  0  0  0  0  0  0  0  0  0  0
  148.2189  138.4847  154.8816 H   0  0  0  0  0  0  0  0  0  0  0  0
  148.6902  139.4247  152.2333 H   0  0  0  0  0  0  0  0  0  0  0  0
  146.5632  139.5576  153.5170 H   0  0  0  0  0  0  0  0  0  0  0  0
  146.4963  139.0670  151.8312 H   0  0  0  0  0  0  0  0  0  0  0  0
  146.9521  136.7788  153.6863 H   0  0  0  0  0  0  0  0  0  0  0  0
  145.4232  137.5955  153.9684 H   0  0  0  0  0  0  0  0  0  0  0  0
  143.7069  136.1307  152.8390 H   0  0  0  0  0  0  0  0  0  0  0  0
  143.5011  135.0488  150.2781 H   0  0  0  0  0  0  0  0  0  0  0  0
  147.2637  136.9524  150.6788 H   0  0  0  0  0  0  0  0  0  0  0  0
  148.5800  137.7916  152.3485 H   0  0  0  0  0  0  0  0  0  0  0  0
  145.6933  135.6375  149.1562 H   0  0  0  0  0  0  0  0  0  0  0  0
  1  2  1  0  0  0  0
  1 18  1  0  0  0  0
  1 19  1  0  0  0  0
  1 20  1  0  0  0  0
  2  8  1  0  0  0  0
  2  3  2  0  0  0  0
  3  4  1  0  0  0  0
  3 21  1  0  0  0  0
  4  5  1  0  0  0  0
  4 22  1  0  0  0  0
  4 23  1  0  0  0  0
  5  6  1  0  0  0  0
  5 24  1  0  0  0  0
  5 25  1  0  0  0  0
  6  7  1  0  0  0  0
  6  8  1  0  0  0  0
  6 26  1  0  0  0  0
  7 27  1  0  0  0  0
  7 28  1  0  0  0  0
  7 29  1  0  0  0  0
  8  9  1  0  0  0  0
  8 30  1  0  0  0  0
  9 10  1  0  0  0  0
  9 31  1  0  0  0  0
  9 32  1  0  0  0  0
 10 11  1  0  0  0  0
 10 33  1  0  0  0  0
 10 41  1  0  0  0  0
 11 12  1  0  0  0  0
 11 34  1  0  0  0  0
 11 35  1  0  0  0  0
 12 13  1  0  0  0  0
 12 36  1  0  0  0  0
 12 37  1  0  0  0  0
 13 17  1  0  0  0  0
 13 14  1  0  0  0  0
 14 15  2  0  0  0  0
 14 38  1  0  0  0  0
 15 16  1  0  0  0  0
 15 39  1  0  0  0  0
 16 17  2  0  0  0  0
 16 42  1  0  0  0  0
 17 40  1  0  0  0  0
M  CHG  1  10   1
M  CHG  1  16   1
M  END
> <s_m_source_file>
AV-unprocessed.smi

> <i_m_source_file_index>
3187

> <i_lp_mmshare_version>
43012

> <i_f3d_flags>
0

> <s_epik_input>
W0NIM11DMT1bQ0hdW0NIMl1bQ0gyXVtDQEBIXShbQ0gzXSlbQ0BIXTFbQ0gyXVtOSF1bQ0gyXVtDSDJdbjJbY0hdW2NIXW5bY0hdMg==

> <s_epik_cmdline>
J2VwaWtfcHl0aG9uJywgJy1waCcsICc3LjAnLCAnLXRuJywgJzgnLCAnLW1hJywgJzIwMCcsICctbWV0YWxfYmluZGluZycsICctaW1hZScsICc8aW5maWxlLm1hZT4nLCAnLW9tYWUnLCAnPG91dGZpbGUubWFlPic=

> <r_lp_tautomer_probability>
1

> <r_epik_Ionization_Penalty>
1.51066

> <r_epik_Ionization_Penalty_Charging>
0.0026721

> <r_epik_Ionization_Penalty_Neutral>
1.50798

> <r_epik_State_Penalty>
1.12593

> <r_epik_Charging_Adjusted_Penalty>
1.12861

> <i_epik_Tot_Q>
2

> <i_epik_Tot_abs_Q>
2

> <r_epik_Metal_State_Penalty>
5.12155

> <b_epik_Metal_Only>
0

> <s_lp_Force_Field>
OPLS_2005

> <r_lp_Energy>
24.2531

> <b_lp_Chiralities_Consistent>
1

> <s_lp_Variant>
AV-unprocessed.smi:3187-5

> <Gold.Version>
5.8.1

> <Gold.Id.Protein>
6NUR|6NUR_protein|mol2

> <Gold.PLP.Fitness>
45.6263

> <Gold.PLP.PLP>
-33.4322

> <Gold.PLP.part.hbond>
-3.9471

> <Gold.PLP.part.metal>
0.0000

> <Gold.PLP.part.buried>
0.0406

> <Gold.PLP.part.nonpolar>
-29.7965

> <Gold.PLP.part.repulsive>
0.1865

> <Gold.PLP.ligand.clash>
0.0000

> <Gold.PLP.ligand.torsion>
1.2081

> <Gold.PLP.Chemscore.Hbond>
4.0000

> <Gold.PLP.Chemscore.CHOScore>
0.8489

> <Gold.PLP.Chemscore.Metal>
0.0000

> <Gold.Chemscore.Hbonds>
donor molecule, donor type, donor heavy atom, donor atom, acceptor molecule, acceptor atom, score
      L1  H    10    33       P1  7957  0.99
      L1  H    10    41       P1  7948  2.00
      L1  H    16    42       P1  7921  1.00
      L1  C    17    40       P1  7948  0.79

> <Gold.PLP.Chemscore.Internal.Correction>
0.0636

> <Gold.Rescore>
     Score         DG    S(hbond)    S(metal)    S(lipo)     H(rot)  DE(clash)    DE(int)     intcor
     17.34     -18.93       2.93        0.00      74.43       1.97       0.40       1.20       ----

> <Gold.Chemscore.Fitness>
17.3363

> <Gold.Chemscore.DG>
-18.9337

> <Gold.Chemscore.ZeroCoef>
-5.4800

> <Gold.Chemscore.Hbond>
2.9333

> <Gold.Chemscore.Metal>
0.0000

> <Gold.Chemscore.Lipo>
74.4270

> <Gold.Chemscore.Internal_Hbond>
0.0000

> <Gold.Chemscore.DEClash>
0.3978

> <Gold.Chemscore.DEInternal>
1.1996

> <Gold.Chemscore.Rot>
1.9732

> <Gold.Chemscore.Internal.Correction>
   9.000000E+99

> <Gold.Chemscore.Hbonds>
donor molecule, donor type, donor heavy atom, donor atom, acceptor molecule, acceptor atom, score
      L1  H    10    33       P1  7957  0.90
      L1  H    10    41       P1  7948  1.00
      L1  H    16    42       P1  7921  1.00

> <Gold.Chemscore.Hbond.Weighted>
-9.7971

> <Gold.Chemscore.Metal.Weighted>
-0.0000

> <Gold.Chemscore.Lipo.Weighted>
-8.7080

> <Gold.Chemscore.Internal_Hbond.Weighted>
0.0000

> <Gold.Chemscore.DEClash.Weighted>
0.3978

> <Gold.Chemscore.DEInternal.Weighted>
1.1996

> <Gold.Chemscore.Rot.Weighted>
5.0514

> <Gold.Chemscore.Internal.Correction.Weighted>
   9.000000E+99

> <Gold.Protein.RotatedTorsions>
[ 6907 6896 6895 6894 ] final   44.99 input  -60.11 | X-H torsion
[ 7974 7965 7964 7962 ] final  115.52 input  175.53 | X-H torsion
[ 8008 7997 7996 7995 ] final  -25.10 input   59.86 | X-H torsion
[ 10167 10162 10161 10158 ] final -155.90 input  -65.29 | X-H torsion
[ 10718 10713 10712 10709 ] final -144.83 input   66.30 | X-H torsion
[ 10763 10752 10751 10750 ] final  -48.17 input  -60.55 | X-H torsion
[ 11005 11000 10999 10996 ] final  -39.93 input  -57.11 | X-H torsion

> <Gold.Protein.ActiveResidues>
 VAL166  LYS551  ARG553  GLY616  TRP617  ASP618  TYR619  PRO620  LYS621  CYS622 
 ASP623  PHE694  ASN695  SER759  ASP760  ASP761  ALA762  ILE779  LEU786  VAL792 
 PHE793  MET794  SER795  GLU796  ALA797  LYS798  CYS799  TRP800  GLU811  SER814 

> <Gold.Protein.RotatedAtoms>
  152.2392  134.8246  160.0462 H   0  0  0  0  0  0  0  0  0  0  0  0  # atno 6907 bound_to 6896
  151.8966  133.3523  159.3824 H   0  0  0  0  0  0  0  0  0  0  0  0  # atno 6908 bound_to 6896
  150.7048  134.4796  159.5508 H   0  0  0  0  0  0  0  0  0  0  0  0  # atno 6909 bound_to 6896
  145.1909  139.3000  143.4368 H   0  0  0  0  0  0  0  0  0  0  0  0  # atno 7974 bound_to 7965
  154.4493  140.1935  156.0567 H   0  0  0  0  0  0  0  0  0  0  0  0  # atno 8008 bound_to 7997
  156.0613  140.3296  155.7438 H   0  0  0  0  0  0  0  0  0  0  0  0  # atno 8009 bound_to 7997
  155.5406  140.0586  157.2861 H   0  0  0  0  0  0  0  0  0  0  0  0  # atno 8010 bound_to 7997
  139.6894  143.9447  152.2377 H   0  0  0  0  0  0  0  0  0  0  0  0  # atno 10167 bound_to 10162
  156.3749  130.7807  151.1992 H   0  0  0  0  0  0  0  0  0  0  0  0  # atno 10718 bound_to 10713
  154.0734  135.6601  153.4827 H   0  0  0  0  0  0  0  0  0  0  0  0  # atno 10763 bound_to 10752
  153.0382  135.5162  154.7545 H   0  0  0  0  0  0  0  0  0  0  0  0  # atno 10764 bound_to 10752
  154.6618  135.3016  154.9825 H   0  0  0  0  0  0  0  0  0  0  0  0  # atno 10765 bound_to 10752
  141.0138  133.6895  156.2253 H   0  0  0  0  0  0  0  0  0  0  0  0  # atno 11005 bound_to 11000
  146.3436  140.2122  142.8590 LP  0  0  0  0  0  0  0  0  0  0  0  0  # atno 17320 bound_to 7965
  145.0042  140.8658  143.5263 LP  0  0  0  0  0  0  0  0  0  0  0  0  # atno 17321 bound_to 7965
  139.9258  144.6771  150.8413 LP  0  0  0  0  0  0  0  0  0  0  0  0  # atno 17342 bound_to 10162
  140.7678  143.3343  151.2343 LP  0  0  0  0  0  0  0  0  0  0  0  0  # atno 17343 bound_to 10162
  157.7487  131.0361  150.4394 LP  0  0  0  0  0  0  0  0  0  0  0  0  # atno 17370 bound_to 10713
  156.4628  130.4035  149.6566 LP  0  0  0  0  0  0  0  0  0  0  0  0  # atno 17371 bound_to 10713
  140.6689  134.4889  157.5586 LP  0  0  0  0  0  0  0  0  0  0  0  0  # atno 17394 bound_to 11000
  139.9105  134.8355  156.1546 LP  0  0  0  0  0  0  0  0  0  0  0  0  # atno 17395 bound_to 11000

$$$$
