AV-unprocessed.smi:624|AV-procd|sdf|3099|dock4
  -GOLD-   22720 0 23D 1   1.00000     0.00000
 Structure written by MMmdl.
 30 32  0  0  0  0  0  0  0  0  1 V2000
  151.0012  140.7571  156.2252 O   0  0  0  0  0  0  0  0  0  0  0  0
  150.2929  141.7584  156.1244 C   0  0  0  0  0  0  0  0  0  0  0  0
  149.1920  141.8568  155.3617 N   0  0  0  0  0  0  0  0  0  0  0  0
  148.5984  140.8549  154.5538 C   0  0  0  0  0  0  0  0  0  0  0  0
  147.5491  141.1983  153.7975 N   0  0  0  0  0  0  0  0  0  0  0  0
  147.0644  140.1243  153.0610 N   0  0  0  0  0  0  0  0  0  0  0  0
  147.7673  139.0113  153.2926 C   0  0  0  0  0  0  0  0  0  0  0  0
  149.0929  139.1639  154.4321 S   0  0  0  0  0  0  0  0  0  0  0  0
  150.5320  142.9052  156.7774 N   0  0  0  0  0  0  0  0  0  0  0  0
  151.6294  143.1423  157.7100 C   0  0  0  0  0  0  0  0  0  0  0  0
  151.5338  142.2734  158.9544 C   0  0  0  0  0  0  0  0  0  0  0  0
  152.7302  142.0410  159.8476 C   0  0  0  0  0  0  0  0  0  0  0  0
  152.1772  140.9076  159.0154 C   0  0  0  0  0  0  0  0  0  0  0  0
  151.7194  144.6073  158.0981 C   0  0  0  0  0  0  0  0  0  0  0  0
  152.2217  145.0242  159.4597 C   0  0  0  0  0  0  0  0  0  0  0  0
  150.7670  145.2211  159.0972 C   0  0  0  0  0  0  0  0  0  0  0  0
  148.7149  142.7462  155.3689 H   0  0  0  0  0  0  0  0  0  0  0  0
  147.5024  138.0936  152.7886 H   0  0  0  0  0  0  0  0  0  0  0  0
  149.8966  143.6753  156.6267 H   0  0  0  0  0  0  0  0  0  0  0  0
  152.5637  142.8910  157.2032 H   0  0  0  0  0  0  0  0  0  0  0  0
  150.5805  142.3678  159.4714 H   0  0  0  0  0  0  0  0  0  0  0  0
  153.6873  142.4592  159.5429 H   0  0  0  0  0  0  0  0  0  0  0  0
  152.5564  142.0077  160.9212 H   0  0  0  0  0  0  0  0  0  0  0  0
  151.6327  140.1204  159.5326 H   0  0  0  0  0  0  0  0  0  0  0  0
  152.7689  140.5819  158.1624 H   0  0  0  0  0  0  0  0  0  0  0  0
  152.0089  145.2549  157.2721 H   0  0  0  0  0  0  0  0  0  0  0  0
  152.4570  144.2398  160.1766 H   0  0  0  0  0  0  0  0  0  0  0  0
  152.8519  145.9095  159.5129 H   0  0  0  0  0  0  0  0  0  0  0  0
  150.4273  146.2373  158.9070 H   0  0  0  0  0  0  0  0  0  0  0  0
  150.0420  144.5708  159.5821 H   0  0  0  0  0  0  0  0  0  0  0  0
  1  2  2  0  0  0  0
  2  3  1  0  0  0  0
  2  9  1  0  0  0  0
  3  4  1  0  0  0  0
  3 17  1  0  0  0  0
  4  8  1  0  0  0  0
  4  5  2  0  0  0  0
  5  6  1  0  0  0  0
  6  7  2  0  0  0  0
  7  8  1  0  0  0  0
  7 18  1  0  0  0  0
  9 10  1  0  0  0  0
  9 19  1  0  0  0  0
 10 11  1  0  0  0  0
 10 14  1  0  0  0  0
 10 20  1  0  0  0  0
 11 13  1  0  0  0  0
 11 12  1  0  0  0  0
 11 21  1  0  0  0  0
 12 13  1  0  0  0  0
 12 22  1  0  0  0  0
 12 23  1  0  0  0  0
 13 24  1  0  0  0  0
 13 25  1  0  0  0  0
 14 16  1  0  0  0  0
 14 15  1  0  0  0  0
 14 26  1  0  0  0  0
 15 16  1  0  0  0  0
 15 27  1  0  0  0  0
 15 28  1  0  0  0  0
 16 29  1  0  0  0  0
 16 30  1  0  0  0  0
M  END
> <s_m_source_file>
AV-unprocessed.smi

> <i_m_source_file_index>
624

> <i_lp_mmshare_version>
43012

> <i_f3d_flags>
0

> <s_epik_input>
W0NIMl0xW0NIMl1bQ0hdMVtDSF0oW0NIXTJbQ0gyXVtDSDJdMilbTkhdQyg9TylbTkhdYzNubltjSF1zMw==

> <s_epik_cmdline>
J2VwaWtfcHl0aG9uJywgJy1waCcsICc3LjAnLCAnLXRuJywgJzgnLCAnLW1hJywgJzIwMCcsICctbWV0YWxfYmluZGluZycsICctaW1hZScsICc8aW5maWxlLm1hZT4nLCAnLW9tYWUnLCAnPG91dGZpbGUubWFlPic=

> <r_lp_tautomer_probability>
1

> <r_epik_Ionization_Penalty>
0.000305758

> <r_epik_Ionization_Penalty_Charging>
0

> <r_epik_Ionization_Penalty_Neutral>
0.000305758

> <r_epik_State_Penalty>
-0

> <r_epik_Charging_Adjusted_Penalty>
0

> <i_epik_Tot_Q>
0

> <i_epik_Tot_abs_Q>
0

> <r_epik_Metal_State_Penalty>
0.165203

> <b_epik_Metal_Only>
0

> <s_lp_Force_Field>
OPLS_2005

> <r_lp_Energy>
21.213

> <b_lp_Chiralities_Consistent>
1

> <s_lp_Variant>
AV-unprocessed.smi:624-1

> <Gold.Version>
5.8.1

> <Gold.Id.Protein>
6NUR|6NUR_protein|mol2

> <Gold.PLP.Fitness>
42.9192

> <Gold.PLP.PLP>
-34.2740

> <Gold.PLP.part.hbond>
-2.0000

> <Gold.PLP.part.metal>
0.0000

> <Gold.PLP.part.buried>
-5.6786

> <Gold.PLP.part.nonpolar>
-28.0042

> <Gold.PLP.part.repulsive>
0.6023

> <Gold.PLP.ligand.clash>
0.0000

> <Gold.PLP.ligand.torsion>
1.1492

> <Gold.PLP.Chemscore.Hbond>
1.9440

> <Gold.PLP.Chemscore.CHOScore>
1.0000

> <Gold.PLP.Chemscore.Metal>
0.0000

> <Gold.Chemscore.Hbonds>
donor molecule, donor type, donor heavy atom, donor atom, acceptor molecule, acceptor atom, score
      L1  H     3    17       P1  8028  0.94
      L1  H     9    19       P1  8028  1.00
      L1  C     7    18       P1  7948  1.00

> <Gold.PLP.Chemscore.Internal.Correction>
2.1117

> <Gold.Rescore>
     Score         DG    S(hbond)    S(metal)    S(lipo)     H(rot)  DE(clash)    DE(int)     intcor
     15.23     -18.35       1.93        0.00      88.31       1.52       0.10       3.03       ----

> <Gold.Chemscore.Fitness>
15.2260

> <Gold.Chemscore.DG>
-18.3550

> <Gold.Chemscore.ZeroCoef>
-5.4800

> <Gold.Chemscore.Hbond>
1.9284

> <Gold.Chemscore.Metal>
0.0000

> <Gold.Chemscore.Lipo>
88.3111

> <Gold.Chemscore.Internal_Hbond>
0.0000

> <Gold.Chemscore.DEClash>
0.1011

> <Gold.Chemscore.DEInternal>
3.0278

> <Gold.Chemscore.Rot>
1.5227

> <Gold.Chemscore.Internal.Correction>
   9.000000E+99

> <Gold.Chemscore.Hbonds>
donor molecule, donor type, donor heavy atom, donor atom, acceptor molecule, acceptor atom, score
      L1  H     3    17       P1  8028  0.88
      L1  H     9    19       P1  8028  0.98

> <Gold.Chemscore.Hbond.Weighted>
-6.4407

> <Gold.Chemscore.Metal.Weighted>
-0.0000

> <Gold.Chemscore.Lipo.Weighted>
-10.3324

> <Gold.Chemscore.Internal_Hbond.Weighted>
0.0000

> <Gold.Chemscore.DEClash.Weighted>
0.1011

> <Gold.Chemscore.DEInternal.Weighted>
3.0278

> <Gold.Chemscore.Rot.Weighted>
3.8982

> <Gold.Chemscore.Internal.Correction.Weighted>
   9.000000E+99

> <Gold.Protein.RotatedTorsions>
[ 6907 6896 6895 6894 ] final  148.80 input  -60.11 | X-H torsion
[ 7974 7965 7964 7962 ] final -156.20 input  175.53 | X-H torsion
[ 8008 7997 7996 7995 ] final   89.57 input   59.86 | X-H torsion
[ 10167 10162 10161 10158 ] final   -7.16 input  -65.29 | X-H torsion
[ 10718 10713 10712 10709 ] final  -53.11 input   66.30 | X-H torsion
[ 10763 10752 10751 10750 ] final -149.44 input  -60.55 | X-H torsion
[ 11005 11000 10999 10996 ] final  158.91 input  -57.11 | X-H torsion

> <Gold.Protein.ActiveResidues>
 VAL166  LYS551  ARG553  GLY616  TRP617  ASP618  TYR619  PRO620  LYS621  CYS622 
 ASP623  PHE694  ASN695  SER759  ASP760  ASP761  ALA762  ILE779  LEU786  VAL792 
 PHE793  MET794  SER795  GLU796  ALA797  LYS798  CYS799  TRP800  GLU811  SER814 

> <Gold.Protein.RotatedAtoms>
  152.1366  133.4439  159.4746 H   0  0  0  0  0  0  0  0  0  0  0  0  # atno 6907 bound_to 6896
  150.6882  134.2356  159.4461 H   0  0  0  0  0  0  0  0  0  0  0  0  # atno 6908 bound_to 6896
  152.0244  134.9804  160.0622 H   0  0  0  0  0  0  0  0  0  0  0  0  # atno 6909 bound_to 6896
  144.7604  140.4142  143.5981 H   0  0  0  0  0  0  0  0  0  0  0  0  # atno 7974 bound_to 7965
  156.0016  140.3359  155.6851 H   0  0  0  0  0  0  0  0  0  0  0  0  # atno 8008 bound_to 7997
  155.6282  140.0682  157.2675 H   0  0  0  0  0  0  0  0  0  0  0  0  # atno 8009 bound_to 7997
  154.4251  140.1764  156.1432 H   0  0  0  0  0  0  0  0  0  0  0  0  # atno 8010 bound_to 7997
  140.7020  143.6112  150.8702 H   0  0  0  0  0  0  0  0  0  0  0  0  # atno 10167 bound_to 10162
  156.1563  130.4150  149.9863 H   0  0  0  0  0  0  0  0  0  0  0  0  # atno 10718 bound_to 10713
  154.8177  135.3309  154.7129 H   0  0  0  0  0  0  0  0  0  0  0  0  # atno 10763 bound_to 10752
  153.7767  135.6921  153.4900 H   0  0  0  0  0  0  0  0  0  0  0  0  # atno 10764 bound_to 10752
  153.2008  135.4517  155.0212 H   0  0  0  0  0  0  0  0  0  0  0  0  # atno 10765 bound_to 10752
  140.1910  134.8407  157.2912 H   0  0  0  0  0  0  0  0  0  0  0  0  # atno 11005 bound_to 11000
  145.6639  139.1586  143.2793 LP  0  0  0  0  0  0  0  0  0  0  0  0  # atno 17320 bound_to 7965
  146.1660  140.6717  142.9255 LP  0  0  0  0  0  0  0  0  0  0  0  0  # atno 17321 bound_to 7965
  139.9834  143.5925  152.2935 LP  0  0  0  0  0  0  0  0  0  0  0  0  # atno 17342 bound_to 10162
  139.6555  144.7662  151.2064 LP  0  0  0  0  0  0  0  0  0  0  0  0  # atno 17343 bound_to 10162
  156.7706  130.9185  151.3644 LP  0  0  0  0  0  0  0  0  0  0  0  0  # atno 17370 bound_to 10713
  157.6698  130.9040  150.0014 LP  0  0  0  0  0  0  0  0  0  0  0  0  # atno 17371 bound_to 10713
  140.2159  134.4082  155.7589 LP  0  0  0  0  0  0  0  0  0  0  0  0  # atno 17394 bound_to 11000
  141.2226  133.7141  156.8413 LP  0  0  0  0  0  0  0  0  0  0  0  0  # atno 17395 bound_to 11000

$$$$
