AV-unprocessed.smi:284|AV-procd|sdf|2160|dock4
  -GOLD-   2262021513D 1   1.00000     0.00000
 Structure written by MMmdl.
 60 62  0  0  0  0  0  0  0  0  1 V2000
  148.4534  136.1351  159.6164 C   0  0  0  0  0  0  0  0  0  0  0  0
  149.4032  136.2344  158.4332 C   0  0  0  0  0  0  0  0  0  0  0  0
  149.7831  137.4248  157.9145 C   0  0  0  0  0  0  0  0  0  0  0  0
  150.6443  137.5506  156.8403 N   0  0  0  0  0  0  0  0  0  0  0  0
  151.0330  138.9088  156.2983 C   0  0  1  0  0  0  0  0  0  0  0  0
  150.4921  139.0920  154.8783 C   0  0  0  0  0  0  0  0  0  0  0  0
  149.2584  139.9383  155.1186 C   0  0  2  0  0  0  0  0  0  0  0  0
  148.9470  140.7127  153.9789 O   0  0  0  0  0  0  0  0  0  0  0  0
  149.6884  140.7977  156.3102 C   0  0  1  0  0  0  0  0  0  0  0  0
  148.5110  141.3450  157.1325 C   0  0  0  0  0  0  0  0  0  0  0  0
  148.9903  142.1327  158.2013 O   0  0  0  0  0  0  0  0  0  0  0  0
  150.4690  139.9040  157.1021 O   0  0  0  0  0  0  0  0  0  0  0  0
  151.1469  136.3939  156.2106 C   0  0  0  0  0  0  0  0  0  0  0  0
  151.8931  136.4793  155.2324 O   0  0  0  0  0  0  0  0  0  0  0  0
  150.7694  135.1340  156.7277 N   0  0  0  0  0  0  0  0  0  0  0  0
  151.3217  133.9191  156.0879 C   0  0  0  0  0  0  0  0  0  0  0  0
  150.2560  133.0749  155.3715 C   0  0  0  0  0  0  0  0  0  0  0  0
  150.1240  131.8814  155.6451 O   0  0  0  0  0  0  0  0  0  0  0  0
  149.4906  133.7460  154.4914 N   0  0  0  0  0  0  0  0  0  0  0  0
  148.4535  133.2564  153.6509 C   0  0  0  0  0  0  0  0  0  0  0  0
  147.7156  134.2070  152.9192 C   0  0  0  0  0  0  0  0  0  0  0  0
  146.6864  133.8036  152.0469 C   0  0  0  0  0  0  0  0  0  0  0  0
  146.3735  132.4324  151.8787 C   0  0  0  0  0  0  0  0  0  0  0  0
  145.2564  131.9496  150.9338 C   0  0  0  0  0  0  0  0  0  0  0  0
  143.9186  132.6073  151.3328 C   0  0  0  0  0  0  0  0  0  0  0  0
  145.0535  130.4179  150.9723 C   0  0  0  0  0  0  0  0  0  0  0  0
  145.6029  132.3395  149.4818 C   0  0  0  0  0  0  0  0  0  0  0  0
  147.1273  131.4837  152.6089 C   0  0  0  0  0  0  0  0  0  0  0  0
  148.1585  131.8843  153.4792 C   0  0  0  0  0  0  0  0  0  0  0  0
  149.9102  134.9921  157.8452 C   0  0  0  0  0  0  0  0  0  0  0  0
  149.6234  133.8751  158.2800 O   0  0  0  0  0  0  0  0  0  0  0  0
  148.1387  137.1181  159.9683 H   0  0  0  0  0  0  0  0  0  0  0  0
  148.9344  135.6215  160.4497 H   0  0  0  0  0  0  0  0  0  0  0  0
  147.5576  135.5778  159.3405 H   0  0  0  0  0  0  0  0  0  0  0  0
  149.3845  138.3198  158.3673 H   0  0  0  0  0  0  0  0  0  0  0  0
  152.1197  138.9769  156.3634 H   0  0  0  0  0  0  0  0  0  0  0  0
  151.2383  139.6396  154.3003 H   0  0  0  0  0  0  0  0  0  0  0  0
  150.2905  138.1415  154.3826 H   0  0  0  0  0  0  0  0  0  0  0  0
  148.4114  139.3032  155.3818 H   0  0  0  0  0  0  0  0  0  0  0  0
  148.7723  140.1292  153.2563 H   0  0  0  0  0  0  0  0  0  0  0  0
  150.3332  141.6058  155.9586 H   0  0  0  0  0  0  0  0  0  0  0  0
  147.8865  141.9874  156.5109 H   0  0  0  0  0  0  0  0  0  0  0  0
  147.8766  140.5413  157.5068 H   0  0  0  0  0  0  0  0  0  0  0  0
  148.7868  143.0382  158.0228 H   0  0  0  0  0  0  0  0  0  0  0  0
  152.1024  134.1618  155.3657 H   0  0  0  0  0  0  0  0  0  0  0  0
  151.8339  133.3010  156.8277 H   0  0  0  0  0  0  0  0  0  0  0  0
  149.6475  134.7422  154.4447 H   0  0  0  0  0  0  0  0  0  0  0  0
  147.9346  135.2594  153.0262 H   0  0  0  0  0  0  0  0  0  0  0  0
  146.1522  134.5759  151.5162 H   0  0  0  0  0  0  0  0  0  0  0  0
  143.1029  132.2667  150.6938 H   0  0  0  0  0  0  0  0  0  0  0  0
  143.9533  133.6937  151.2515 H   0  0  0  0  0  0  0  0  0  0  0  0
  143.6508  132.3641  152.3616 H   0  0  0  0  0  0  0  0  0  0  0  0
  144.7743  130.0725  151.9686 H   0  0  0  0  0  0  0  0  0  0  0  0
  145.9541  129.8834  150.6675 H   0  0  0  0  0  0  0  0  0  0  0  0
  144.2570  130.1087  150.2947 H   0  0  0  0  0  0  0  0  0  0  0  0
  144.8393  131.9924  148.7848 H   0  0  0  0  0  0  0  0  0  0  0  0
  146.5521  131.9005  149.1721 H   0  0  0  0  0  0  0  0  0  0  0  0
  145.6840  133.4190  149.3541 H   0  0  0  0  0  0  0  0  0  0  0  0
  146.9243  130.4285  152.5036 H   0  0  0  0  0  0  0  0  0  0  0  0
  148.7163  131.1164  153.9917 H   0  0  0  0  0  0  0  0  0  0  0  0
  1  2  1  0  0  0  0
  1 32  1  0  0  0  0
  1 33  1  0  0  0  0
  1 34  1  0  0  0  0
  2 30  1  0  0  0  0
  2  3  2  0  0  0  0
  3  4  1  0  0  0  0
  3 35  1  0  0  0  0
  4  5  1  0  0  0  0
  4 13  1  0  0  0  0
  5 12  1  0  0  0  0
  5  6  1  0  0  0  0
  5 36  1  0  0  0  0
  6  7  1  0  0  0  0
  6 37  1  0  0  0  0
  6 38  1  0  0  0  0
  7  8  1  0  0  0  0
  7  9  1  0  0  0  0
  7 39  1  0  0  0  0
  8 40  1  0  0  0  0
  9 10  1  0  0  0  0
  9 12  1  0  0  0  0
  9 41  1  0  0  0  0
 10 11  1  0  0  0  0
 10 42  1  0  0  0  0
 10 43  1  0  0  0  0
 11 44  1  0  0  0  0
 13 14  2  0  0  0  0
 13 15  1  0  0  0  0
 15 16  1  0  0  0  0
 15 30  1  0  0  0  0
 16 17  1  0  0  0  0
 16 45  1  0  0  0  0
 16 46  1  0  0  0  0
 17 18  2  0  0  0  0
 17 19  1  0  0  0  0
 19 20  1  0  0  0  0
 19 47  1  0  0  0  0
 20 29  1  0  0  0  0
 20 21  2  0  0  0  0
 21 22  1  0  0  0  0
 21 48  1  0  0  0  0
 22 23  2  0  0  0  0
 22 49  1  0  0  0  0
 23 24  1  0  0  0  0
 23 28  1  0  0  0  0
 24 25  1  0  0  0  0
 24 26  1  0  0  0  0
 24 27  1  0  0  0  0
 25 50  1  0  0  0  0
 25 51  1  0  0  0  0
 25 52  1  0  0  0  0
 26 53  1  0  0  0  0
 26 54  1  0  0  0  0
 26 55  1  0  0  0  0
 27 56  1  0  0  0  0
 27 57  1  0  0  0  0
 27 58  1  0  0  0  0
 28 29  2  0  0  0  0
 28 59  1  0  0  0  0
 29 60  1  0  0  0  0
 30 31  2  0  0  0  0
M  END
> <s_m_source_file>
AV-unprocessed.smi

> <i_m_source_file_index>
284

> <i_lp_mmshare_version>
43012

> <i_f3d_flags>
0

> <s_epik_input>
W09IXVtDSDJdW0NAQEhdKE8xKVtDQEhdKFtPSF0pW0NIMl1bQ0BIXTFuKFtjSF1jMltDSDNdKWMoPU8pbihjMj1PKVtDSDJdQyg9TylbTkhdYzNbY0hdW2NIXWMoQyhbQ0gzXSkoW0NIM10pW0NIM10pW2NIXVtjSF0z

> <s_epik_cmdline>
J2VwaWtfcHl0aG9uJywgJy1waCcsICc3LjAnLCAnLXRuJywgJzgnLCAnLW1hJywgJzIwMCcsICctbWV0YWxfYmluZGluZycsICctaW1hZScsICc8aW5maWxlLm1hZT4nLCAnLW9tYWUnLCAnPG91dGZpbGUubWFlPic=

> <r_lp_tautomer_probability>
1

> <r_epik_Ionization_Penalty>
4.92358e-06

> <r_epik_Ionization_Penalty_Charging>
1.29777e-07

> <r_epik_Ionization_Penalty_Neutral>
4.79381e-06

> <r_epik_State_Penalty>
-0

> <r_epik_Charging_Adjusted_Penalty>
1.29777e-07

> <i_epik_Tot_Q>
0

> <i_epik_Tot_abs_Q>
0

> <r_epik_Metal_State_Penalty>
-0

> <b_epik_Metal_Only>
0

> <s_epik_Chemistry_Notes>
This compound contains an acetal/aminal-like group ( X-CH(R)-Y where X, Y are N, S, or O) that may be acid/base labile, releasing an aldehyde.

> <s_lp_Force_Field>
OPLS_2005

> <r_lp_Energy>
39.3511

> <b_lp_Chiralities_Consistent>
1

> <s_lp_Variant>
AV-unprocessed.smi:284-4

> <Gold.Version>
5.8.1

> <Gold.Id.Protein>
6NUR|6NUR_protein|mol2

> <Gold.PLP.Fitness>
56.1846

> <Gold.PLP.PLP>
-42.9633

> <Gold.PLP.part.hbond>
-5.0321

> <Gold.PLP.part.metal>
0.0000

> <Gold.PLP.part.buried>
-0.5803

> <Gold.PLP.part.nonpolar>
-36.4172

> <Gold.PLP.part.repulsive>
0.1221

> <Gold.PLP.ligand.clash>
0.0000

> <Gold.PLP.ligand.torsion>
0.1788

> <Gold.PLP.Chemscore.Hbond>
4.4960

> <Gold.PLP.Chemscore.CHOScore>
0.0000

> <Gold.PLP.Chemscore.Metal>
0.0000

> <Gold.Chemscore.Hbonds>
donor molecule, donor type, donor heavy atom, donor atom, acceptor molecule, acceptor atom, score
      L1  H     8    40       P1  7957  0.28
      P1  H  6896  6908       L1    31  0.55
      P1  H 10752 10763       L1    14  0.88

> <Gold.PLP.Chemscore.Internal.Correction>
0.0908

> <Gold.Rescore>
     Score         DG    S(hbond)    S(metal)    S(lipo)     H(rot)  DE(clash)    DE(int)     intcor
     17.73     -23.12       3.88        0.00     111.51       3.27       2.43       2.97       ----

> <Gold.Chemscore.Fitness>
17.7275

> <Gold.Chemscore.DG>
-23.1221

> <Gold.Chemscore.ZeroCoef>
-5.4800

> <Gold.Chemscore.Hbond>
3.8848

> <Gold.Chemscore.Metal>
0.0000

> <Gold.Chemscore.Lipo>
111.5134

> <Gold.Chemscore.Internal_Hbond>
0.0000

> <Gold.Chemscore.DEClash>
2.4292

> <Gold.Chemscore.DEInternal>
2.9654

> <Gold.Chemscore.Rot>
3.2735

> <Gold.Chemscore.Internal.Correction>
   9.000000E+99

> <Gold.Chemscore.Hbonds>
donor molecule, donor type, donor heavy atom, donor atom, acceptor molecule, acceptor atom, score
      L1  H     8    40       P1  7957  0.28
      P1  H  6896  6908       L1    31  0.04
      P1  H 10752 10763       L1    14  0.85

> <Gold.Chemscore.Hbond.Weighted>
-12.9751

> <Gold.Chemscore.Metal.Weighted>
-0.0000

> <Gold.Chemscore.Lipo.Weighted>
-13.0471

> <Gold.Chemscore.Internal_Hbond.Weighted>
0.0000

> <Gold.Chemscore.DEClash.Weighted>
2.4292

> <Gold.Chemscore.DEInternal.Weighted>
2.9654

> <Gold.Chemscore.Rot.Weighted>
8.3801

> <Gold.Chemscore.Internal.Correction.Weighted>
   9.000000E+99

> <Gold.Protein.RotatedTorsions>
[ 6907 6896 6895 6894 ] final  128.33 input  -60.11 | X-H torsion
[ 7974 7965 7964 7962 ] final  155.06 input  175.53 | X-H torsion
[ 8008 7997 7996 7995 ] final  122.55 input   59.86 | X-H torsion
[ 10167 10162 10161 10158 ] final   85.43 input  -65.29 | X-H torsion
[ 10718 10713 10712 10709 ] final -142.83 input   66.30 | X-H torsion
[ 10763 10752 10751 10750 ] final   44.05 input  -60.55 | X-H torsion
[ 11005 11000 10999 10996 ] final   40.20 input  -57.11 | X-H torsion

> <Gold.Protein.ActiveResidues>
 VAL166  LYS551  ARG553  GLY616  TRP617  ASP618  TYR619  PRO620  LYS621  CYS622 
 ASP623  PHE694  ASN695  SER759  ASP760  ASP761  ALA762  ILE779  LEU786  VAL792 
 PHE793  MET794  SER795  GLU796  ALA797  LYS798  CYS799  TRP800  GLU811  SER814 

> <Gold.Protein.RotatedAtoms>
  152.3729  133.6443  159.6100 H   0  0  0  0  0  0  0  0  0  0  0  0  # atno 6907 bound_to 6896
  150.7682  133.9240  159.3415 H   0  0  0  0  0  0  0  0  0  0  0  0  # atno 6908 bound_to 6896
  151.7060  135.0922  160.0310 H   0  0  0  0  0  0  0  0  0  0  0  0  # atno 6909 bound_to 6896
  144.8049  139.7017  143.6166 H   0  0  0  0  0  0  0  0  0  0  0  0  # atno 7974 bound_to 7965
  156.2732  140.2783  156.1485 H   0  0  0  0  0  0  0  0  0  0  0  0  # atno 8008 bound_to 7997
  155.0878  140.0388  157.2677 H   0  0  0  0  0  0  0  0  0  0  0  0  # atno 8009 bound_to 7997
  154.6913  140.2629  155.6816 H   0  0  0  0  0  0  0  0  0  0  0  0  # atno 8010 bound_to 7997
  139.8978  144.6347  150.8669 H   0  0  0  0  0  0  0  0  0  0  0  0  # atno 10167 bound_to 10162
  156.3506  130.7686  151.1838 H   0  0  0  0  0  0  0  0  0  0  0  0  # atno 10718 bound_to 10713
  152.9848  135.6083  154.3210 H   0  0  0  0  0  0  0  0  0  0  0  0  # atno 10763 bound_to 10752
  154.2920  135.2774  155.2652 H   0  0  0  0  0  0  0  0  0  0  0  0  # atno 10764 bound_to 10752
  154.4943  135.5883  153.6539 H   0  0  0  0  0  0  0  0  0  0  0  0  # atno 10765 bound_to 10752
  140.1954  134.3935  155.8124 H   0  0  0  0  0  0  0  0  0  0  0  0  # atno 11005 bound_to 11000
  146.2338  139.5865  142.9537 LP  0  0  0  0  0  0  0  0  0  0  0  0  # atno 17320 bound_to 7965
  145.5463  141.0417  143.2303 LP  0  0  0  0  0  0  0  0  0  0  0  0  # atno 17321 bound_to 7965
  140.7713  143.3460  151.2110 LP  0  0  0  0  0  0  0  0  0  0  0  0  # atno 17342 bound_to 10162
  139.7052  143.9467  152.2923 LP  0  0  0  0  0  0  0  0  0  0  0  0  # atno 17343 bound_to 10162
  157.7460  131.0428  150.4714 LP  0  0  0  0  0  0  0  0  0  0  0  0  # atno 17370 bound_to 10713
  156.4909  130.4095  149.6407 LP  0  0  0  0  0  0  0  0  0  0  0  0  # atno 17371 bound_to 10713
  141.2227  133.7067  156.8167 LP  0  0  0  0  0  0  0  0  0  0  0  0  # atno 17394 bound_to 11000
  140.2113  134.8825  157.3277 LP  0  0  0  0  0  0  0  0  0  0  0  0  # atno 17395 bound_to 11000

$$$$
