AV-unprocessed.smi:1446|AV-procd|sdf|5889|dock9
  -GOLD-   22720 5573D 1   1.00000     0.00000
 Structure written by MMmdl.
 47 48  0  0  0  0  0  0  0  0  1 V2000
  154.3716  134.1606  164.8104 C   0  0  0  0  0  0  0  0  0  0  0  0
  155.1747  134.9793  163.8060 C   0  0  0  0  0  0  0  0  0  0  0  0
  156.1957  135.5667  164.1616 O   0  0  0  0  0  0  0  0  0  0  0  0
  154.7010  135.0078  162.5503 N   0  0  0  0  0  0  0  0  0  0  0  0
  155.3081  135.7292  161.4293 C   0  0  2  0  0  0  0  0  0  0  0  0
  154.3418  136.8394  160.9706 C   0  0  0  0  0  0  0  0  0  0  0  0
  153.2197  136.5442  160.5550 O   0  0  0  0  0  0  0  0  0  0  0  0
  154.8218  138.0953  161.0452 N   0  0  0  0  0  0  0  0  0  0  0  0
  154.1776  139.3076  160.6823 C   0  0  0  0  0  0  0  0  0  0  0  0
  154.5601  140.4379  161.4346 C   0  0  0  0  0  0  0  0  0  0  0  0
  153.9822  141.6900  161.1499 C   0  0  0  0  0  0  0  0  0  0  0  0
  153.0225  141.7967  160.1151 C   0  0  0  0  0  0  0  0  0  0  0  0
  152.4049  143.0183  159.7685 N   0  0  0  0  0  0  0  0  0  0  0  0
  152.4207  144.0580  160.7947 C   0  0  0  0  0  0  0  0  0  0  0  0
  151.4424  145.1878  160.4277 C   0  0  0  0  0  0  0  0  0  0  0  0
  151.7440  145.6844  159.1278 O   0  0  0  0  0  0  0  0  0  0  0  0
  151.6075  144.6761  158.1321 C   0  0  0  0  0  0  0  0  0  0  0  0
  152.5953  143.5311  158.4147 C   0  0  0  0  0  0  0  0  0  0  0  0
  152.7083  140.6068  159.4189 C   0  0  0  0  0  0  0  0  0  0  0  0
  153.2626  139.4066  159.6888 N   0  0  0  0  0  0  0  0  0  0  0  0
  155.5618  134.7284  160.2630 C   0  0  0  0  0  0  0  0  0  0  0  0
  156.3211  133.4718  160.7340 C   0  0  0  0  0  0  0  0  0  0  0  0
  156.3244  135.3640  159.0819 C   0  0  0  0  0  0  0  0  0  0  0  0
  153.3712  134.5776  164.9271 H   0  0  0  0  0  0  0  0  0  0  0  0
  154.8577  134.1587  165.7866 H   0  0  0  0  0  0  0  0  0  0  0  0
  154.2797  133.1279  164.4731 H   0  0  0  0  0  0  0  0  0  0  0  0
  153.8503  134.5005  162.3541 H   0  0  0  0  0  0  0  0  0  0  0  0
  156.2583  136.1647  161.7461 H   0  0  0  0  0  0  0  0  0  0  0  0
  155.7595  138.1922  161.4058 H   0  0  0  0  0  0  0  0  0  0  0  0
  155.2905  140.3522  162.2261 H   0  0  0  0  0  0  0  0  0  0  0  0
  154.2817  142.5436  161.7389 H   0  0  0  0  0  0  0  0  0  0  0  0
  152.1554  143.6643  161.7750 H   0  0  0  0  0  0  0  0  0  0  0  0
  153.4332  144.4553  160.8764 H   0  0  0  0  0  0  0  0  0  0  0  0
  150.4104  144.8352  160.4632 H   0  0  0  0  0  0  0  0  0  0  0  0
  151.5246  146.0026  161.1470 H   0  0  0  0  0  0  0  0  0  0  0  0
  150.5806  144.3072  158.1106 H   0  0  0  0  0  0  0  0  0  0  0  0
  151.8092  145.1127  157.1540 H   0  0  0  0  0  0  0  0  0  0  0  0
  153.6200  143.8884  158.3039 H   0  0  0  0  0  0  0  0  0  0  0  0
  152.4415  142.7358  157.6845 H   0  0  0  0  0  0  0  0  0  0  0  0
  152.0038  140.6090  158.6006 H   0  0  0  0  0  0  0  0  0  0  0  0
  154.5973  134.3906  159.8797 H   0  0  0  0  0  0  0  0  0  0  0  0
  157.2864  133.7336  161.1684 H   0  0  0  0  0  0  0  0  0  0  0  0
  156.5064  132.7905  159.9030 H   0  0  0  0  0  0  0  0  0  0  0  0
  155.7606  132.9109  161.4817 H   0  0  0  0  0  0  0  0  0  0  0  0
  157.2810  135.7752  159.4057 H   0  0  0  0  0  0  0  0  0  0  0  0
  155.7580  136.1674  158.6105 H   0  0  0  0  0  0  0  0  0  0  0  0
  156.5285  134.6269  158.3050 H   0  0  0  0  0  0  0  0  0  0  0  0
  1  2  1  0  0  0  0
  1 24  1  0  0  0  0
  1 25  1  0  0  0  0
  1 26  1  0  0  0  0
  2  3  2  0  0  0  0
  2  4  1  0  0  0  0
  4  5  1  0  0  0  0
  4 27  1  0  0  0  0
  5  6  1  0  0  0  0
  5 21  1  0  0  0  0
  5 28  1  0  0  0  0
  6  7  2  0  0  0  0
  6  8  1  0  0  0  0
  8  9  1  0  0  0  0
  8 29  1  0  0  0  0
  9 20  1  0  0  0  0
  9 10  2  0  0  0  0
 10 11  1  0  0  0  0
 10 30  1  0  0  0  0
 11 12  2  0  0  0  0
 11 31  1  0  0  0  0
 12 13  1  0  0  0  0
 12 19  1  0  0  0  0
 13 18  1  0  0  0  0
 13 14  1  0  0  0  0
 14 15  1  0  0  0  0
 14 32  1  0  0  0  0
 14 33  1  0  0  0  0
 15 16  1  0  0  0  0
 15 34  1  0  0  0  0
 15 35  1  0  0  0  0
 16 17  1  0  0  0  0
 17 18  1  0  0  0  0
 17 36  1  0  0  0  0
 17 37  1  0  0  0  0
 18 38  1  0  0  0  0
 18 39  1  0  0  0  0
 19 20  2  0  0  0  0
 19 40  1  0  0  0  0
 21 22  1  0  0  0  0
 21 23  1  0  0  0  0
 21 41  1  0  0  0  0
 22 42  1  0  0  0  0
 22 43  1  0  0  0  0
 22 44  1  0  0  0  0
 23 45  1  0  0  0  0
 23 46  1  0  0  0  0
 23 47  1  0  0  0  0
M  END
> <s_m_source_file>
AV-unprocessed.smi

> <i_m_source_file_index>
1446

> <i_lp_mmshare_version>
43012

> <i_f3d_flags>
0

> <s_epik_input>
W0NIM11DKD1PKVtOSF1bQ0BASF0oW0NIXShbQ0gzXSlbQ0gzXSlDKD1PKVtOSF1jMVtjSF1bY0hdYyhbY0hdbjEpTjJbQ0gyXVtDSDJdT1tDSDJdW0NIMl0y

> <s_epik_cmdline>
J2VwaWtfcHl0aG9uJywgJy1waCcsICc3LjAnLCAnLXRuJywgJzgnLCAnLW1hJywgJzIwMCcsICctbWV0YWxfYmluZGluZycsICctaW1hZScsICc8aW5maWxlLm1hZT4nLCAnLW9tYWUnLCAnPG91dGZpbGUubWFlPic=

> <r_lp_tautomer_probability>
1

> <r_epik_Ionization_Penalty>
0.00298315

> <r_epik_Ionization_Penalty_Charging>
0

> <r_epik_Ionization_Penalty_Neutral>
0.00298315

> <r_epik_State_Penalty>
0.0038483

> <r_epik_Charging_Adjusted_Penalty>
0.0038483

> <i_epik_Tot_Q>
0

> <i_epik_Tot_abs_Q>
0

> <r_epik_Metal_State_Penalty>
-0

> <b_epik_Metal_Only>
0

> <s_lp_Force_Field>
OPLS_2005

> <r_lp_Energy>
27.9322

> <b_lp_Chiralities_Consistent>
1

> <s_lp_Variant>
AV-unprocessed.smi:1446-1

> <Gold.Version>
5.8.1

> <Gold.Id.Protein>
6NUR|6NUR_protein|mol2

> <Gold.PLP.Fitness>
43.4134

> <Gold.PLP.PLP>
-41.1875

> <Gold.PLP.part.hbond>
-1.9952

> <Gold.PLP.part.metal>
0.0000

> <Gold.PLP.part.buried>
-6.8107

> <Gold.PLP.part.nonpolar>
-33.3326

> <Gold.PLP.part.repulsive>
0.2537

> <Gold.PLP.ligand.clash>
0.0000

> <Gold.PLP.ligand.torsion>
0.5847

> <Gold.PLP.Chemscore.Hbond>
1.0000

> <Gold.PLP.Chemscore.CHOScore>
0.0000

> <Gold.PLP.Chemscore.Metal>
0.0000

> <Gold.Chemscore.Hbonds>
donor molecule, donor type, donor heavy atom, donor atom, acceptor molecule, acceptor atom, score
      P1  H  6896  6907       L1     7  1.00

> <Gold.PLP.Chemscore.Internal.Correction>
0.3954

> <Gold.Rescore>
     Score         DG    S(hbond)    S(metal)    S(lipo)     H(rot)  DE(clash)    DE(int)     intcor
     14.67     -16.37       1.00        0.00     102.63       1.74       0.04       1.66       ----

> <Gold.Chemscore.Fitness>
14.6711

> <Gold.Chemscore.DG>
-16.3738

> <Gold.Chemscore.ZeroCoef>
-5.4800

> <Gold.Chemscore.Hbond>
0.9995

> <Gold.Chemscore.Metal>
0.0000

> <Gold.Chemscore.Lipo>
102.6331

> <Gold.Chemscore.Internal_Hbond>
0.0000

> <Gold.Chemscore.DEClash>
0.0449

> <Gold.Chemscore.DEInternal>
1.6577

> <Gold.Chemscore.Rot>
1.7394

> <Gold.Chemscore.Internal.Correction>
   9.000000E+99

> <Gold.Chemscore.Hbonds>
donor molecule, donor type, donor heavy atom, donor atom, acceptor molecule, acceptor atom, score
      P1  H  6896  6907       L1     7  0.99

> <Gold.Chemscore.Hbond.Weighted>
-3.3385

> <Gold.Chemscore.Metal.Weighted>
-0.0000

> <Gold.Chemscore.Lipo.Weighted>
-12.0081

> <Gold.Chemscore.Internal_Hbond.Weighted>
0.0000

> <Gold.Chemscore.DEClash.Weighted>
0.0449

> <Gold.Chemscore.DEInternal.Weighted>
1.6577

> <Gold.Chemscore.Rot.Weighted>
4.4528

> <Gold.Chemscore.Internal.Correction.Weighted>
   9.000000E+99

> <Gold.Protein.RotatedTorsions>
[ 6907 6896 6895 6894 ] final   38.11 input  -60.11 | X-H torsion
[ 7974 7965 7964 7962 ] final  133.64 input  175.53 | X-H torsion
[ 8008 7997 7996 7995 ] final -178.73 input   59.86 | X-H torsion
[ 10167 10162 10161 10158 ] final  -29.59 input  -65.29 | X-H torsion
[ 10718 10713 10712 10709 ] final  100.60 input   66.30 | X-H torsion
[ 10763 10752 10751 10750 ] final  -37.19 input  -60.55 | X-H torsion
[ 11005 11000 10999 10996 ] final   68.27 input  -57.11 | X-H torsion

> <Gold.Protein.ActiveResidues>
 VAL166  LYS551  ARG553  GLY616  TRP617  ASP618  TYR619  PRO620  LYS621  CYS622 
 ASP623  PHE694  ASN695  SER759  ASP760  ASP761  ALA762  ILE779  LEU786  VAL792 
 PHE793  MET794  SER795  GLU796  ALA797  LYS798  CYS799  TRP800  GLU811  SER814 

> <Gold.Protein.RotatedAtoms>
  152.1521  134.8980  160.0547 H   0  0  0  0  0  0  0  0  0  0  0  0  # atno 6907 bound_to 6896
  152.0008  133.3820  159.4189 H   0  0  0  0  0  0  0  0  0  0  0  0  # atno 6908 bound_to 6896
  150.6877  134.3758  159.5056 H   0  0  0  0  0  0  0  0  0  0  0  0  # atno 6909 bound_to 6896
  144.9845  139.4470  143.5370 H   0  0  0  0  0  0  0  0  0  0  0  0  # atno 7974 bound_to 7965
  156.0223  140.1264  157.0345 H   0  0  0  0  0  0  0  0  0  0  0  0  # atno 8008 bound_to 7997
  154.4316  140.1066  156.6051 H   0  0  0  0  0  0  0  0  0  0  0  0  # atno 8009 bound_to 7997
  155.5927  140.3469  155.4573 H   0  0  0  0  0  0  0  0  0  0  0  0  # atno 8010 bound_to 7997
  140.7259  143.3916  151.1420 H   0  0  0  0  0  0  0  0  0  0  0  0  # atno 10167 bound_to 10162
  157.6850  131.0703  150.5125 H   0  0  0  0  0  0  0  0  0  0  0  0  # atno 10718 bound_to 10713
  153.8922  135.6811  153.4760 H   0  0  0  0  0  0  0  0  0  0  0  0  # atno 10763 bound_to 10752
  153.1175  135.4755  154.9137 H   0  0  0  0  0  0  0  0  0  0  0  0  # atno 10764 bound_to 10752
  154.7617  135.3212  154.8319 H   0  0  0  0  0  0  0  0  0  0  0  0  # atno 10765 bound_to 10752
  139.9721  134.6882  156.0426 H   0  0  0  0  0  0  0  0  0  0  0  0  # atno 11005 bound_to 11000
  146.3416  139.9138  142.8776 LP  0  0  0  0  0  0  0  0  0  0  0  0  # atno 17320 bound_to 7965
  145.2374  140.9996  143.3956 LP  0  0  0  0  0  0  0  0  0  0  0  0  # atno 17321 bound_to 7965
  139.7522  143.8761  152.3079 LP  0  0  0  0  0  0  0  0  0  0  0  0  # atno 17342 bound_to 10162
  139.8619  144.7113  150.9090 LP  0  0  0  0  0  0  0  0  0  0  0  0  # atno 17343 bound_to 10162
  156.5442  130.4215  149.6139 LP  0  0  0  0  0  0  0  0  0  0  0  0  # atno 17370 bound_to 10713
  156.2959  130.7150  151.2010 LP  0  0  0  0  0  0  0  0  0  0  0  0  # atno 17371 bound_to 10713
  141.1400  133.6566  156.3703 LP  0  0  0  0  0  0  0  0  0  0  0  0  # atno 17394 bound_to 11000
  140.5271  134.6248  157.5337 LP  0  0  0  0  0  0  0  0  0  0  0  0  # atno 17395 bound_to 11000

$$$$
