AV-unprocessed.smi:516|AV-procd|sdf|2785|dock7
  -GOLD-   2262023263D 1   1.00000     0.00000
 Structure written by MMmdl.
 45 47  0  0  0  0  0  0  0  0  2 V2000
  150.4914  136.0749  155.0230 C   0  0  0  0  0  0  0  0  0  0  0  0
  151.6317  136.8469  155.3537 O   0  0  0  0  0  0  0  0  0  0  0  0
  151.3247  137.9388  156.2046 C   0  0  0  0  0  0  0  0  0  0  0  0
  151.7205  139.2572  155.5237 C   0  0  0  0  0  0  0  0  0  0  0  0
  151.2968  140.4218  156.2946 N   0  0  0  0  0  0  0  0  0  0  0  0
  150.3319  141.3246  155.9730 C   0  0  0  0  0  0  0  0  0  0  0  0
  149.5144  141.2576  154.7138 C   0  0  0  0  0  0  0  0  0  0  0  0
  148.3107  142.0790  154.9992 N   0  3  0  0  0  0  0  0  0  0  0  0
  147.3957  142.1565  153.8363 C   0  0  0  0  0  0  0  0  0  0  0  0
  146.1968  143.0666  154.1531 C   0  0  0  0  0  0  0  0  0  0  0  0
  145.5234  142.5827  155.3082 O   0  0  0  0  0  0  0  0  0  0  0  0
  146.3646  142.5874  156.4546 C   0  0  0  0  0  0  0  0  0  0  0  0
  147.5688  141.6611  156.2162 C   0  0  0  0  0  0  0  0  0  0  0  0
  150.1698  142.2984  156.8757 N   0  0  0  0  0  0  0  0  0  0  0  0
  151.1103  141.9908  157.8467 C   0  0  0  0  0  0  0  0  0  0  0  0
  151.7962  140.8682  157.5187 C   0  0  0  0  0  0  0  0  0  0  0  0
  152.8607  140.3206  158.3709 C   0  0  0  0  0  0  0  0  0  0  0  0
  153.5014  139.3096  158.0927 O   0  0  0  0  0  0  0  0  0  0  0  0
  153.0635  141.0459  159.4975 N   0  0  0  0  0  0  0  0  0  0  0  0
  152.4076  142.1820  159.8868 C   0  0  0  0  0  0  0  0  0  0  0  0
  152.7100  142.7272  160.9475 O   0  0  0  0  0  0  0  0  0  0  0  0
  151.4258  142.6660  159.0576 N   0  0  0  0  0  0  0  0  0  0  0  0
  150.6731  143.8815  159.3741 C   0  0  0  0  0  0  0  0  0  0  0  0
  153.7829  140.7107  160.1215 H   0  0  0  0  0  0  0  0  0  0  0  0
  150.7841  135.2487  154.3752 H   0  0  0  0  0  0  0  0  0  0  0  0
  149.7508  136.6736  154.4914 H   0  0  0  0  0  0  0  0  0  0  0  0
  150.0273  135.6545  155.9162 H   0  0  0  0  0  0  0  0  0  0  0  0
  150.2577  137.9410  156.4322 H   0  0  0  0  0  0  0  0  0  0  0  0
  151.8590  137.8377  157.1504 H   0  0  0  0  0  0  0  0  0  0  0  0
  152.7989  139.2961  155.3744 H   0  0  0  0  0  0  0  0  0  0  0  0
  151.2951  139.3090  154.5231 H   0  0  0  0  0  0  0  0  0  0  0  0
  150.0989  141.6942  153.9029 H   0  0  0  0  0  0  0  0  0  0  0  0
  149.2564  140.2398  154.4238 H   0  0  0  0  0  0  0  0  0  0  0  0
  147.9313  142.5454  152.9694 H   0  0  0  0  0  0  0  0  0  0  0  0
  147.0475  141.1553  153.5770 H   0  0  0  0  0  0  0  0  0  0  0  0
  146.5194  144.0971  154.3093 H   0  0  0  0  0  0  0  0  0  0  0  0
  145.4997  143.0751  153.3152 H   0  0  0  0  0  0  0  0  0  0  0  0
  146.6933  143.6039  156.6771 H   0  0  0  0  0  0  0  0  0  0  0  0
  145.7904  142.2429  157.3148 H   0  0  0  0  0  0  0  0  0  0  0  0
  147.2294  140.6306  156.1022 H   0  0  0  0  0  0  0  0  0  0  0  0
  148.2190  141.6889  157.0905 H   0  0  0  0  0  0  0  0  0  0  0  0
  150.9811  144.3673  160.3005 H   0  0  0  0  0  0  0  0  0  0  0  0
  149.6115  143.6488  159.4639 H   0  0  0  0  0  0  0  0  0  0  0  0
  150.7900  144.6105  158.5717 H   0  0  0  0  0  0  0  0  0  0  0  0
  148.6421  143.0196  155.1628 H   0  0  0  0  0  0  0  0  0  0  0  0
  1  2  1  0  0  0  0
  1 25  1  0  0  0  0
  1 26  1  0  0  0  0
  1 27  1  0  0  0  0
  2  3  1  0  0  0  0
  3  4  1  0  0  0  0
  3 28  1  0  0  0  0
  3 29  1  0  0  0  0
  4  5  1  0  0  0  0
  4 30  1  0  0  0  0
  4 31  1  0  0  0  0
  5 16  1  0  0  0  0
  5  6  1  0  0  0  0
  6  7  1  0  0  0  0
  6 14  2  0  0  0  0
  7  8  1  0  0  0  0
  7 32  1  0  0  0  0
  7 33  1  0  0  0  0
  8 13  1  0  0  0  0
  8  9  1  0  0  0  0
  8 45  1  0  0  0  0
  9 10  1  0  0  0  0
  9 34  1  0  0  0  0
  9 35  1  0  0  0  0
 10 11  1  0  0  0  0
 10 36  1  0  0  0  0
 10 37  1  0  0  0  0
 11 12  1  0  0  0  0
 12 13  1  0  0  0  0
 12 38  1  0  0  0  0
 12 39  1  0  0  0  0
 13 40  1  0  0  0  0
 13 41  1  0  0  0  0
 14 15  1  0  0  0  0
 15 22  1  0  0  0  0
 15 16  2  0  0  0  0
 16 17  1  0  0  0  0
 17 18  2  0  0  0  0
 17 19  1  0  0  0  0
 19 24  1  0  0  0  0
 19 20  1  0  0  0  0
 20 21  2  0  0  0  0
 20 22  1  0  0  0  0
 22 23  1  0  0  0  0
 23 42  1  0  0  0  0
 23 43  1  0  0  0  0
 23 44  1  0  0  0  0
M  CHG  1   8   1
M  END
> <s_m_source_file>
AV-unprocessed.smi

> <i_m_source_file_index>
516

> <i_lp_mmshare_version>
43012

> <i_f3d_flags>
0

> <s_epik_input>
W0NIM11uMWMoPU8pW25IXWMoPU8pYyhjMTIpbihbQ0gyXVtDSDJdT1tDSDNdKWMobjIpW0NIMl1OM1tDSDJdW0NIMl1PW0NIMl1bQ0gyXTM=

> <s_epik_cmdline>
J2VwaWtfcHl0aG9uJywgJy1waCcsICc3LjAnLCAnLXRuJywgJzgnLCAnLW1hJywgJzIwMCcsICctbWV0YWxfYmluZGluZycsICctaW1hZScsICc8aW5maWxlLm1hZT4nLCAnLW9tYWUnLCAnPG91dGZpbGUubWFlPic=

> <r_epik_Ionization_Penalty>
1.12077

> <r_epik_Ionization_Penalty_Charging>
1.12077

> <r_epik_Ionization_Penalty_Neutral>
4.43299e-09

> <r_epik_State_Penalty>
1.17893

> <r_epik_Charging_Adjusted_Penalty>
2.29969

> <i_epik_Tot_Q>
1

> <i_epik_Tot_abs_Q>
1

> <r_epik_Metal_State_Penalty>
1.32838

> <b_epik_Metal_Only>
0

> <s_lp_Force_Field>
OPLS_2005

> <r_lp_Energy>
36.1073

> <b_lp_Chiralities_Consistent>
1

> <s_lp_Variant>
AV-unprocessed.smi:516-2

> <Gold.Version>
5.8.1

> <Gold.Id.Protein>
6NUR|6NUR_protein|mol2

> <Gold.PLP.Fitness>
49.7313

> <Gold.PLP.PLP>
-39.2012

> <Gold.PLP.part.hbond>
-3.0000

> <Gold.PLP.part.metal>
0.0000

> <Gold.PLP.part.buried>
-6.6757

> <Gold.PLP.part.nonpolar>
-29.9528

> <Gold.PLP.part.repulsive>
1.6011

> <Gold.PLP.ligand.clash>
0.0000

> <Gold.PLP.ligand.torsion>
0.7629

> <Gold.PLP.Chemscore.Hbond>
4.0000

> <Gold.PLP.Chemscore.CHOScore>
0.0000

> <Gold.PLP.Chemscore.Metal>
0.0000

> <Gold.Chemscore.Hbonds>
donor molecule, donor type, donor heavy atom, donor atom, acceptor molecule, acceptor atom, score
      L1  H     8    45       P1  8028  2.00
      P1  H  7997  8009       L1    18  1.00
      P1  H 10752 10763       L1     2  0.95

> <Gold.PLP.Chemscore.Internal.Correction>
0.0559

> <Gold.Rescore>
     Score         DG    S(hbond)    S(metal)    S(lipo)     H(rot)  DE(clash)    DE(int)     intcor
      9.82     -11.99       1.68        0.00      53.73       2.11       0.08       2.09       ----

> <Gold.Chemscore.Fitness>
9.8208

> <Gold.Chemscore.DG>
-11.9865

> <Gold.Chemscore.ZeroCoef>
-5.4800

> <Gold.Chemscore.Hbond>
1.6809

> <Gold.Chemscore.Metal>
0.0000

> <Gold.Chemscore.Lipo>
53.7256

> <Gold.Chemscore.Internal_Hbond>
0.0000

> <Gold.Chemscore.DEClash>
0.0756

> <Gold.Chemscore.DEInternal>
2.0900

> <Gold.Chemscore.Rot>
2.1069

> <Gold.Chemscore.Internal.Correction>
   9.000000E+99

> <Gold.Chemscore.Hbonds>
donor molecule, donor type, donor heavy atom, donor atom, acceptor molecule, acceptor atom, score
      L1  H     8    45       P1  8028  1.00
      P1  H  7997  8009       L1    18  0.25
      P1  H 10752 10763       L1     2  0.20

> <Gold.Chemscore.Hbond.Weighted>
-5.6142

> <Gold.Chemscore.Metal.Weighted>
-0.0000

> <Gold.Chemscore.Lipo.Weighted>
-6.2859

> <Gold.Chemscore.Internal_Hbond.Weighted>
0.0000

> <Gold.Chemscore.DEClash.Weighted>
0.0756

> <Gold.Chemscore.DEInternal.Weighted>
2.0900

> <Gold.Chemscore.Rot.Weighted>
5.3936

> <Gold.Chemscore.Internal.Correction.Weighted>
   9.000000E+99

> <Gold.Protein.RotatedTorsions>
[ 6907 6896 6895 6894 ] final -113.13 input  -60.11 | X-H torsion
[ 7974 7965 7964 7962 ] final  162.32 input  175.53 | X-H torsion
[ 8008 7997 7996 7995 ] final  138.18 input   59.86 | X-H torsion
[ 10167 10162 10161 10158 ] final   51.42 input  -65.29 | X-H torsion
[ 10718 10713 10712 10709 ] final   42.18 input   66.30 | X-H torsion
[ 10763 10752 10751 10750 ] final   81.57 input  -60.55 | X-H torsion
[ 11005 11000 10999 10996 ] final  154.84 input  -57.11 | X-H torsion

> <Gold.Protein.ActiveResidues>
 VAL166  LYS551  ARG553  GLY616  TRP617  ASP618  TYR619  PRO620  LYS621  CYS622 
 ASP623  PHE694  ASN695  SER759  ASP760  ASP761  ALA762  ILE779  LEU786  VAL792 
 PHE793  MET794  SER795  GLU796  ALA797  LYS798  CYS799  TRP800  GLU811  SER814 

> <Gold.Protein.RotatedAtoms>
  150.7807  133.8989  159.3335 H   0  0  0  0  0  0  0  0  0  0  0  0  # atno 6907 bound_to 6896
  151.6852  135.0953  160.0233 H   0  0  0  0  0  0  0  0  0  0  0  0  # atno 6908 bound_to 6896
  152.3858  133.6570  159.6233 H   0  0  0  0  0  0  0  0  0  0  0  0  # atno 6909 bound_to 6896
  144.7642  139.8023  143.6321 H   0  0  0  0  0  0  0  0  0  0  0  0  # atno 7974 bound_to 7965
  156.2999  140.2400  156.4031 H   0  0  0  0  0  0  0  0  0  0  0  0  # atno 8008 bound_to 7997
  154.8509  140.0424  157.1623 H   0  0  0  0  0  0  0  0  0  0  0  0  # atno 8009 bound_to 7997
  154.8999  140.2975  155.5327 H   0  0  0  0  0  0  0  0  0  0  0  0  # atno 8010 bound_to 7997
  140.2621  144.3361  150.6315 H   0  0  0  0  0  0  0  0  0  0  0  0  # atno 10167 bound_to 10162
  157.4019  130.7865  149.7356 H   0  0  0  0  0  0  0  0  0  0  0  0  # atno 10718 bound_to 10713
  153.1128  135.4760  154.9064 H   0  0  0  0  0  0  0  0  0  0  0  0  # atno 10763 bound_to 10752
  154.7498  135.3103  154.8581 H   0  0  0  0  0  0  0  0  0  0  0  0  # atno 10764 bound_to 10752
  153.9165  135.6859  153.4802 H   0  0  0  0  0  0  0  0  0  0  0  0  # atno 10765 bound_to 10752
  140.1526  134.8664  157.2474 H   0  0  0  0  0  0  0  0  0  0  0  0  # atno 11005 bound_to 11000
  146.1734  139.4895  142.9913 LP  0  0  0  0  0  0  0  0  0  0  0  0  # atno 17320 bound_to 7965
  145.6522  141.0260  143.1754 LP  0  0  0  0  0  0  0  0  0  0  0  0  # atno 17321 bound_to 7965
  140.5957  143.2167  151.7168 LP  0  0  0  0  0  0  0  0  0  0  0  0  # atno 17342 bound_to 10162
  139.5013  144.3870  152.0318 LP  0  0  0  0  0  0  0  0  0  0  0  0  # atno 17343 bound_to 10162
  155.9825  130.4008  150.3410 LP  0  0  0  0  0  0  0  0  0  0  0  0  # atno 17370 bound_to 10713
  157.1539  131.0328  151.2872 LP  0  0  0  0  0  0  0  0  0  0  0  0  # atno 17371 bound_to 10713
  140.2586  134.3598  155.7415 LP  0  0  0  0  0  0  0  0  0  0  0  0  # atno 17394 bound_to 11000
  141.2201  133.7356  156.9045 LP  0  0  0  0  0  0  0  0  0  0  0  0  # atno 17395 bound_to 11000

$$$$
