AV-unprocessed.smi:2158|AV-procd|sdf|8790|dock9
  -GOLD-   2272011573D 1   1.00000     0.00000
 Structure written by MMmdl.
 30 30  0  0  0  0  0  0  0  0  2 V2000
  151.4697  144.0047  158.6535 C   0  0  0  0  0  0  0  0  0  0  0  0
  152.8109  143.9508  159.3997 C   0  0  0  0  0  0  0  0  0  0  0  0
  153.0314  142.6418  160.1802 C   0  0  1  0  0  0  0  0  0  0  0  0
  152.5505  142.7610  161.6349 C   0  0  0  0  0  0  0  0  0  0  0  0
  152.3427  141.5391  159.5145 N   0  0  0  0  0  0  0  0  0  0  0  0
  152.9342  140.4684  158.9639 C   0  0  0  0  0  0  0  0  0  0  0  0
  154.1514  140.2811  158.9868 O   0  0  0  0  0  0  0  0  0  0  0  0
  151.9961  139.4407  158.3171 C   0  0  0  0  0  0  0  0  0  0  0  0
  151.2825  139.9762  157.1472 N   0  0  0  0  0  0  0  0  0  0  0  0
  150.0624  140.6383  157.3714 C   0  0  0  0  0  0  0  0  0  0  0  0
  149.3395  141.1566  156.3605 C   0  0  0  0  0  0  0  0  0  0  0  0
  149.8518  141.0170  155.0030 C   0  0  0  0  0  0  0  0  0  0  0  0
  149.2063  141.4872  154.0683 O   0  0  0  0  0  0  0  0  0  0  0  0
  151.0385  140.3625  154.8365 N   0  5  0  0  0  0  0  0  0  0  0  0
  151.7618  139.8380  155.8742 C   0  0  0  0  0  0  0  0  0  0  0  0
  152.8292  139.2480  155.7019 O   0  0  0  0  0  0  0  0  0  0  0  0
  151.3831  144.9280  158.0806 H   0  0  0  0  0  0  0  0  0  0  0  0
  150.6244  143.9635  159.3410 H   0  0  0  0  0  0  0  0  0  0  0  0
  151.3749  143.1715  157.9568 H   0  0  0  0  0  0  0  0  0  0  0  0
  153.6159  144.0754  158.6746 H   0  0  0  0  0  0  0  0  0  0  0  0
  152.8803  144.8022  160.0782 H   0  0  0  0  0  0  0  0  0  0  0  0
  154.1042  142.4389  160.1921 H   0  0  0  0  0  0  0  0  0  0  0  0
  153.0684  143.5680  162.1535 H   0  0  0  0  0  0  0  0  0  0  0  0
  152.7404  141.8420  162.1906 H   0  0  0  0  0  0  0  0  0  0  0  0
  151.4805  142.9657  161.6844 H   0  0  0  0  0  0  0  0  0  0  0  0
  151.3375  141.6056  159.4488 H   0  0  0  0  0  0  0  0  0  0  0  0
  152.5907  138.5708  158.0355 H   0  0  0  0  0  0  0  0  0  0  0  0
  151.2815  139.0720  159.0555 H   0  0  0  0  0  0  0  0  0  0  0  0
  149.7509  140.6919  158.4042 H   0  0  0  0  0  0  0  0  0  0  0  0
  148.4026  141.6597  156.5492 H   0  0  0  0  0  0  0  0  0  0  0  0
  1  2  1  0  0  0  0
  1 17  1  0  0  0  0
  1 18  1  0  0  0  0
  1 19  1  0  0  0  0
  2  3  1  0  0  0  0
  2 20  1  0  0  0  0
  2 21  1  0  0  0  0
  3  4  1  0  0  0  0
  3  5  1  0  0  0  0
  3 22  1  0  0  0  0
  4 23  1  0  0  0  0
  4 24  1  0  0  0  0
  4 25  1  0  0  0  0
  5  6  1  0  0  0  0
  5 26  1  0  0  0  0
  6  7  2  0  0  0  0
  6  8  1  0  0  0  0
  8  9  1  0  0  0  0
  8 27  1  0  0  0  0
  8 28  1  0  0  0  0
  9 15  1  0  0  0  0
  9 10  1  0  0  0  0
 10 11  2  0  0  0  0
 10 29  1  0  0  0  0
 11 12  1  0  0  0  0
 11 30  1  0  0  0  0
 12 13  2  0  0  0  0
 12 14  1  0  0  0  0
 14 15  1  0  0  0  0
 15 16  2  0  0  0  0
M  CHG  1  14  -1
M  END
> <s_m_source_file>
AV-unprocessed.smi

> <i_m_source_file_index>
2158

> <i_lp_mmshare_version>
43012

> <i_f3d_flags>
0

> <s_epik_input>
W0NIM11bQ0gyXVtDQEhdKFtDSDNdKVtOSF1DKD1PKVtDSDJdbjFbY0hdW2NIXWMoPU8pW25IXWMxPU8=

> <s_epik_cmdline>
J2VwaWtfcHl0aG9uJywgJy1waCcsICc3LjAnLCAnLXRuJywgJzgnLCAnLW1hJywgJzIwMCcsICctbWV0YWxfYmluZGluZycsICctaW1hZScsICc8aW5maWxlLm1hZT4nLCAnLW9tYWUnLCAnPG91dGZpbGUubWFlPic=

> <r_lp_tautomer_probability>
0.999537

> <r_epik_Ionization_Penalty>
3.08395

> <r_epik_Ionization_Penalty_Charging>
2.76809e-08

> <r_epik_Ionization_Penalty_Neutral>
3.08395

> <r_epik_State_Penalty>
3.08299

> <r_epik_Charging_Adjusted_Penalty>
3.08299

> <i_epik_Tot_Q>
-1

> <i_epik_Tot_abs_Q>
1

> <r_epik_Metal_State_Penalty>
0.460296

> <b_epik_Metal_Only>
1

> <s_lp_Force_Field>
OPLS_2005

> <r_lp_Energy>
11.8207

> <b_lp_Chiralities_Consistent>
1

> <s_lp_Variant>
AV-unprocessed.smi:2158-4

> <Gold.Version>
5.8.1

> <Gold.Id.Protein>
6NUR|6NUR_protein|mol2

> <Gold.PLP.Fitness>
42.4005

> <Gold.PLP.PLP>
-34.0600

> <Gold.PLP.part.hbond>
-4.7878

> <Gold.PLP.part.metal>
0.0000

> <Gold.PLP.part.buried>
-2.7949

> <Gold.PLP.part.nonpolar>
-26.0176

> <Gold.PLP.part.repulsive>
0.3806

> <Gold.PLP.ligand.clash>
0.0000

> <Gold.PLP.ligand.torsion>
0.7925

> <Gold.PLP.Chemscore.Hbond>
3.3040

> <Gold.PLP.Chemscore.CHOScore>
0.0000

> <Gold.PLP.Chemscore.Metal>
0.0000

> <Gold.Chemscore.Hbonds>
donor molecule, donor type, donor heavy atom, donor atom, acceptor molecule, acceptor atom, score
      P1  H  7989  7998       L1    14  1.00
      P1  H  7997  8009       L1     7  0.69
      P1  H  7997  8010       L1    16  0.94
      P1  H  8011  8017       L1    13  0.63

> <Gold.PLP.Chemscore.Internal.Correction>
0.0136

> <Gold.Rescore>
     Score         DG    S(hbond)    S(metal)    S(lipo)     H(rot)  DE(clash)    DE(int)     intcor
     16.12     -17.28       2.87        0.00      61.47       1.94       0.28       0.88       ----

> <Gold.Chemscore.Fitness>
16.1171

> <Gold.Chemscore.DG>
-17.2783

> <Gold.Chemscore.ZeroCoef>
-5.4800

> <Gold.Chemscore.Hbond>
2.8699

> <Gold.Chemscore.Metal>
0.0000

> <Gold.Chemscore.Lipo>
61.4683

> <Gold.Chemscore.Internal_Hbond>
0.0000

> <Gold.Chemscore.DEClash>
0.2792

> <Gold.Chemscore.DEInternal>
0.8820

> <Gold.Chemscore.Rot>
1.9449

> <Gold.Chemscore.Internal.Correction>
   9.000000E+99

> <Gold.Chemscore.Hbonds>
donor molecule, donor type, donor heavy atom, donor atom, acceptor molecule, acceptor atom, score
      P1  H  7989  7998       L1    14  0.52
      P1  H  7997  8009       L1     7  0.66
      P1  H  7997  8010       L1    16  0.89
      P1  H  8011  8017       L1    13  0.61

> <Gold.Chemscore.Hbond.Weighted>
-9.5856

> <Gold.Chemscore.Metal.Weighted>
-0.0000

> <Gold.Chemscore.Lipo.Weighted>
-7.1918

> <Gold.Chemscore.Internal_Hbond.Weighted>
0.0000

> <Gold.Chemscore.DEClash.Weighted>
0.2792

> <Gold.Chemscore.DEInternal.Weighted>
0.8820

> <Gold.Chemscore.Rot.Weighted>
4.9791

> <Gold.Chemscore.Internal.Correction.Weighted>
   9.000000E+99

> <Gold.Protein.RotatedTorsions>
[ 6907 6896 6895 6894 ] final    0.27 input  -60.11 | X-H torsion
[ 7974 7965 7964 7962 ] final  -23.88 input  175.53 | X-H torsion
[ 8008 7997 7996 7995 ] final  110.90 input   59.86 | X-H torsion
[ 10167 10162 10161 10158 ] final -174.26 input  -65.29 | X-H torsion
[ 10718 10713 10712 10709 ] final -152.94 input   66.30 | X-H torsion
[ 10763 10752 10751 10750 ] final  108.57 input  -60.55 | X-H torsion
[ 11005 11000 10999 10996 ] final  -41.62 input  -57.11 | X-H torsion

> <Gold.Protein.ActiveResidues>
 VAL166  LYS551  ARG553  GLY616  TRP617  ASP618  TYR619  PRO620  LYS621  CYS622 
 ASP623  PHE694  ASN695  SER759  ASP760  ASP761  ALA762  ILE779  LEU786  VAL792 
 PHE793  MET794  SER795  GLU796  ALA797  LYS798  CYS799  TRP800  GLU811  SER814 

> <Gold.Protein.RotatedAtoms>
  151.5738  135.1061  160.0001 H   0  0  0  0  0  0  0  0  0  0  0  0  # atno 6907 bound_to 6896
  152.4388  133.7405  159.6649 H   0  0  0  0  0  0  0  0  0  0  0  0  # atno 6908 bound_to 6896
  150.8290  133.8054  159.3130 H   0  0  0  0  0  0  0  0  0  0  0  0  # atno 6909 bound_to 6896
  146.1589  140.4676  142.8580 H   0  0  0  0  0  0  0  0  0  0  0  0  # atno 7974 bound_to 7965
  156.2086  140.3030  155.9681 H   0  0  0  0  0  0  0  0  0  0  0  0  # atno 8008 bound_to 7997
  155.2781  140.0436  157.3030 H   0  0  0  0  0  0  0  0  0  0  0  0  # atno 8009 bound_to 7997
  154.5667  140.2336  155.8261 H   0  0  0  0  0  0  0  0  0  0  0  0  # atno 8010 bound_to 7997
  139.5643  144.1793  152.1288 H   0  0  0  0  0  0  0  0  0  0  0  0  # atno 10167 bound_to 10162
  156.4792  130.8295  151.2522 H   0  0  0  0  0  0  0  0  0  0  0  0  # atno 10718 bound_to 10713
  153.4225  135.3808  155.2120 H   0  0  0  0  0  0  0  0  0  0  0  0  # atno 10763 bound_to 10752
  154.8745  135.3820  154.4367 H   0  0  0  0  0  0  0  0  0  0  0  0  # atno 10764 bound_to 10752
  153.4889  135.7088  153.5958 H   0  0  0  0  0  0  0  0  0  0  0  0  # atno 10765 bound_to 10752
  141.0259  133.6842  156.2482 H   0  0  0  0  0  0  0  0  0  0  0  0  # atno 11005 bound_to 11000
  144.8000  140.6195  143.6484 LP  0  0  0  0  0  0  0  0  0  0  0  0  # atno 17320 bound_to 7965
  145.4638  139.1510  143.3851 LP  0  0  0  0  0  0  0  0  0  0  0  0  # atno 17321 bound_to 7965
  140.1313  144.5286  150.6801 LP  0  0  0  0  0  0  0  0  0  0  0  0  # atno 17342 bound_to 10162
  140.6925  143.2384  151.5091 LP  0  0  0  0  0  0  0  0  0  0  0  0  # atno 17343 bound_to 10162
  157.7485  131.0051  150.3099 LP  0  0  0  0  0  0  0  0  0  0  0  0  # atno 17370 bound_to 10713
  156.3539  130.3835  149.7306 LP  0  0  0  0  0  0  0  0  0  0  0  0  # atno 17371 bound_to 10713
  140.6493  134.5084  157.5576 LP  0  0  0  0  0  0  0  0  0  0  0  0  # atno 17394 bound_to 11000
  139.9175  134.8216  156.1317 LP  0  0  0  0  0  0  0  0  0  0  0  0  # atno 17395 bound_to 11000

$$$$
