AV-unprocessed.smi:265|AV-procd|sdf|2017|dock2
  -GOLD-   2262021213D 1   1.00000     0.00000
 Structure written by MMmdl.
 52 56  0  0  0  0  0  0  0  0  1 V2000
  153.6633  138.7932  154.4583 C   0  0  0  0  0  0  0  0  0  0  0  0
  152.2685  138.8079  155.1029 C   0  0  2  0  0  0  0  0  0  0  0  0
  151.7039  140.1184  155.0825 O   0  0  0  0  0  0  0  0  0  0  0  0
  151.1631  140.4461  156.3569 C   0  0  0  0  0  0  0  0  0  0  0  0
  150.9871  139.1104  157.0709 C   0  0  0  0  0  0  0  0  0  0  0  0
  152.1760  138.3058  156.5626 C   0  0  2  0  0  0  0  0  0  0  0  0
  153.3274  138.6964  157.2922 O   0  0  0  0  0  0  0  0  0  0  0  0
  152.0619  136.7683  156.7331 C   0  0  0  0  0  0  0  0  0  0  0  0
  150.9246  136.1576  156.0627 N   0  0  0  0  0  0  0  0  0  0  0  0
  150.0296  136.7813  155.2212 C   0  0  0  0  0  0  0  0  0  0  0  0
  149.0886  136.0156  154.7394 N   0  0  0  0  0  0  0  0  0  0  0  0
  149.3690  134.7654  155.2741 C   0  0  0  0  0  0  0  0  0  0  0  0
  148.7598  133.4889  155.1681 C   0  0  0  0  0  0  0  0  0  0  0  0
  147.6511  133.2865  154.4260 N   0  0  0  0  0  0  0  0  0  0  0  0
  146.6194  134.3044  154.6272 C   0  0  0  0  0  0  0  0  0  0  0  0
  145.3087  133.9123  153.9188 C   0  0  0  0  0  0  0  0  0  0  0  0
  145.5861  133.6166  152.4385 C   0  0  2  0  0  0  0  0  0  0  0  0
  144.4307  133.1461  151.7612 O   0  0  0  0  0  0  0  0  0  0  0  0
  144.6152  133.0191  150.3468 C   0  0  0  0  0  0  0  0  0  0  0  0
  145.9319  132.3031  149.9751 C   0  0  0  0  0  0  0  0  0  0  0  0
  146.1136  131.9164  148.8229 O   0  0  0  0  0  0  0  0  0  0  0  0
  146.8683  132.1611  150.9280 N   0  0  0  0  0  0  0  0  0  0  0  0
  146.6430  132.5061  152.3253 C   0  0  1  0  0  0  0  0  0  0  0  0
  147.9357  132.9418  153.0332 C   0  0  0  0  0  0  0  0  0  0  0  0
  149.3234  132.4529  155.8429 N   0  0  0  0  0  0  0  0  0  0  0  0
  150.4204  132.6577  156.5793 C   0  0  0  0  0  0  0  0  0  0  0  0
  151.0951  133.7933  156.7756 N   0  0  0  0  0  0  0  0  0  0  0  0
  150.5260  134.8325  156.0989 C   0  0  0  0  0  0  0  0  0  0  0  0
  145.9381  134.5330  151.9594 H   0  0  0  0  0  0  0  0  0  0  0  0
  146.2666  131.6057  152.8144 H   0  0  0  0  0  0  0  0  0  0  0  0
  154.0940  137.7921  154.4803 H   0  0  0  0  0  0  0  0  0  0  0  0
  154.3505  139.4690  154.9677 H   0  0  0  0  0  0  0  0  0  0  0  0
  153.6084  139.1080  153.4162 H   0  0  0  0  0  0  0  0  0  0  0  0
  151.6028  138.2166  154.4762 H   0  0  0  0  0  0  0  0  0  0  0  0
  151.8767  141.0753  156.8900 H   0  0  0  0  0  0  0  0  0  0  0  0
  150.2281  140.9988  156.2635 H   0  0  0  0  0  0  0  0  0  0  0  0
  150.9515  139.2044  158.1568 H   0  0  0  0  0  0  0  0  0  0  0  0
  150.0463  138.6694  156.7437 H   0  0  0  0  0  0  0  0  0  0  0  0
  153.1339  138.6325  158.2149 H   0  0  0  0  0  0  0  0  0  0  0  0
  152.9679  136.2865  156.3626 H   0  0  0  0  0  0  0  0  0  0  0  0
  151.9994  136.5155  157.7924 H   0  0  0  0  0  0  0  0  0  0  0  0
  150.0923  137.8330  154.9817 H   0  0  0  0  0  0  0  0  0  0  0  0
  146.4369  134.4393  155.6942 H   0  0  0  0  0  0  0  0  0  0  0  0
  146.9745  135.2611  154.2410 H   0  0  0  0  0  0  0  0  0  0  0  0
  144.8780  133.0330  154.3997 H   0  0  0  0  0  0  0  0  0  0  0  0
  144.5751  134.7131  154.0139 H   0  0  0  0  0  0  0  0  0  0  0  0
  143.7684  132.4768  149.9255 H   0  0  0  0  0  0  0  0  0  0  0  0
  144.6181  134.0123  149.8961 H   0  0  0  0  0  0  0  0  0  0  0  0
  147.7457  131.7234  150.6871 H   0  0  0  0  0  0  0  0  0  0  0  0
  148.3721  133.8021  152.5232 H   0  0  0  0  0  0  0  0  0  0  0  0
  148.6714  132.1370  152.9972 H   0  0  0  0  0  0  0  0  0  0  0  0
  150.8136  131.7875  157.0840 H   0  0  0  0  0  0  0  0  0  0  0  0
  1  2  1  0  0  0  0
  1 31  1  0  0  0  0
  1 32  1  0  0  0  0
  1 33  1  0  0  0  0
  2  6  1  0  0  0  0
  2  3  1  0  0  0  0
  2 34  1  0  0  0  0
  3  4  1  0  0  0  0
  4  5  1  0  0  0  0
  4 35  1  0  0  0  0
  4 36  1  0  0  0  0
  5  6  1  0  0  0  0
  5 37  1  0  0  0  0
  5 38  1  0  0  0  0
  6  7  1  0  0  0  0
  6  8  1  0  0  0  0
  7 39  1  0  0  0  0
  8  9  1  0  0  0  0
  8 40  1  0  0  0  0
  8 41  1  0  0  0  0
  9 28  1  0  0  0  0
  9 10  1  0  0  0  0
 10 11  2  0  0  0  0
 10 42  1  0  0  0  0
 11 12  1  0  0  0  0
 12 28  2  0  0  0  0
 12 13  1  0  0  0  0
 13 14  1  0  0  0  0
 13 25  2  0  0  0  0
 14 24  1  0  0  0  0
 14 15  1  0  0  0  0
 15 16  1  0  0  0  0
 15 43  1  0  0  0  0
 15 44  1  0  0  0  0
 16 17  1  0  0  0  0
 16 45  1  0  0  0  0
 16 46  1  0  0  0  0
 17 29  1  0  0  0  0
 17 23  1  0  0  0  0
 17 18  1  0  0  0  0
 18 19  1  0  0  0  0
 19 20  1  0  0  0  0
 19 47  1  0  0  0  0
 19 48  1  0  0  0  0
 20 21  2  0  0  0  0
 20 22  1  0  0  0  0
 22 23  1  0  0  0  0
 22 49  1  0  0  0  0
 23 30  1  0  0  0  0
 23 24  1  0  0  0  0
 24 50  1  0  0  0  0
 24 51  1  0  0  0  0
 25 26  1  0  0  0  0
 26 27  2  0  0  0  0
 26 52  1  0  0  0  0
 27 28  1  0  0  0  0
M  END
> <s_m_source_file>
AV-unprocessed.smi

> <i_m_source_file_index>
265

> <i_lp_mmshare_version>
43012

> <i_f3d_flags>
0

> <s_epik_input>
W0NIMl0xW0NIMl1PW0NAQEhdKFtDSDNdKVtDQEBdMShbT0hdKVtDSDJdbihbY0hdbjIpYyhjMjMpbltjSF1uYzNOKFtDSDJdW0NIMl00KVtDSDJdW0NAQEhdKFtDQEhdNDUpW05IXUMoPU8pW0NIMl1PNQ==

> <s_epik_cmdline>
J2VwaWtfcHl0aG9uJywgJy1waCcsICc3LjAnLCAnLXRuJywgJzgnLCAnLW1hJywgJzIwMCcsICctbWV0YWxfYmluZGluZycsICctaW1hZScsICc8aW5maWxlLm1hZT4nLCAnLW9tYWUnLCAnPG91dGZpbGUubWFlPic=

> <r_lp_tautomer_probability>
1

> <r_epik_Ionization_Penalty>
0.00221504

> <r_epik_Ionization_Penalty_Charging>
0

> <r_epik_Ionization_Penalty_Neutral>
0.00221504

> <r_epik_State_Penalty>
-0

> <r_epik_Charging_Adjusted_Penalty>
0

> <i_epik_Tot_Q>
0

> <i_epik_Tot_abs_Q>
0

> <r_epik_Metal_State_Penalty>
-0

> <b_epik_Metal_Only>
0

> <s_lp_Force_Field>
OPLS_2005

> <r_lp_Energy>
49.4841

> <b_lp_Chiralities_Consistent>
1

> <s_lp_Variant>
AV-unprocessed.smi:265-3

> <Gold.Version>
5.8.1

> <Gold.Id.Protein>
6NUR|6NUR_protein|mol2

> <Gold.PLP.Fitness>
43.9843

> <Gold.PLP.PLP>
-36.0332

> <Gold.PLP.part.hbond>
-4.2716

> <Gold.PLP.part.metal>
0.0000

> <Gold.PLP.part.buried>
-7.0475

> <Gold.PLP.part.nonpolar>
-27.8134

> <Gold.PLP.part.repulsive>
2.5380

> <Gold.PLP.ligand.clash>
0.0000

> <Gold.PLP.ligand.torsion>
0.5761

> <Gold.PLP.Chemscore.Hbond>
2.9600

> <Gold.PLP.Chemscore.CHOScore>
0.0000

> <Gold.PLP.Chemscore.Metal>
0.0000

> <Gold.Chemscore.Hbonds>
donor molecule, donor type, donor heavy atom, donor atom, acceptor molecule, acceptor atom, score
      L1  H    22    49       P1 10747  1.00
      P1  H  7989  7998       L1     3  0.96
      P1  H  7997  8009       L1     7  1.00

> <Gold.PLP.Chemscore.Internal.Correction>
0.2233

> <Gold.Rescore>
     Score         DG    S(hbond)    S(metal)    S(lipo)     H(rot)  DE(clash)    DE(int)     intcor
     14.09     -17.51       2.86        0.00      70.35       2.25       1.48       1.93       ----

> <Gold.Chemscore.Fitness>
14.0899

> <Gold.Chemscore.DG>
-17.5067

> <Gold.Chemscore.ZeroCoef>
-5.4800

> <Gold.Chemscore.Hbond>
2.8575

> <Gold.Chemscore.Metal>
0.0000

> <Gold.Chemscore.Lipo>
70.3463

> <Gold.Chemscore.Internal_Hbond>
0.0000

> <Gold.Chemscore.DEClash>
1.4837

> <Gold.Chemscore.DEInternal>
1.9331

> <Gold.Chemscore.Rot>
2.2453

> <Gold.Chemscore.Internal.Correction>
   9.000000E+99

> <Gold.Chemscore.Hbonds>
donor molecule, donor type, donor heavy atom, donor atom, acceptor molecule, acceptor atom, score
      L1  H    22    49       P1 10747  0.96
      P1  H  7989  7998       L1     3  0.84
      P1  H  7997  8009       L1     7  0.88

> <Gold.Chemscore.Hbond.Weighted>
-9.5441

> <Gold.Chemscore.Metal.Weighted>
-0.0000

> <Gold.Chemscore.Lipo.Weighted>
-8.2305

> <Gold.Chemscore.Internal_Hbond.Weighted>
0.0000

> <Gold.Chemscore.DEClash.Weighted>
1.4837

> <Gold.Chemscore.DEInternal.Weighted>
1.9331

> <Gold.Chemscore.Rot.Weighted>
5.7479

> <Gold.Chemscore.Internal.Correction.Weighted>
   9.000000E+99

> <Gold.Protein.RotatedTorsions>
[ 6907 6896 6895 6894 ] final  164.02 input  -60.11 | X-H torsion
[ 7974 7965 7964 7962 ] final -146.51 input  175.53 | X-H torsion
[ 8008 7997 7996 7995 ] final  165.06 input   59.86 | X-H torsion
[ 10167 10162 10161 10158 ] final  -55.00 input  -65.29 | X-H torsion
[ 10718 10713 10712 10709 ] final  -46.13 input   66.30 | X-H torsion
[ 10763 10752 10751 10750 ] final   46.46 input  -60.55 | X-H torsion
[ 11005 11000 10999 10996 ] final   70.16 input  -57.11 | X-H torsion

> <Gold.Protein.ActiveResidues>
 VAL166  LYS551  ARG553  GLY616  TRP617  ASP618  TYR619  PRO620  LYS621  CYS622 
 ASP623  PHE694  ASN695  SER759  ASP760  ASP761  ALA762  ILE779  LEU786  VAL792 
 PHE793  MET794  SER795  GLU796  ALA797  LYS798  CYS799  TRP800  GLU811  SER814 

> <Gold.Protein.RotatedAtoms>
  151.9162  133.3574  159.3880 H   0  0  0  0  0  0  0  0  0  0  0  0  # atno 6907 bound_to 6896
  150.7047  134.4681  159.5422 H   0  0  0  0  0  0  0  0  0  0  0  0  # atno 6908 bound_to 6896
  152.2296  134.8334  160.0526 H   0  0  0  0  0  0  0  0  0  0  0  0  # atno 6909 bound_to 6896
  144.8154  140.5446  143.5614 H   0  0  0  0  0  0  0  0  0  0  0  0  # atno 7974 bound_to 7965
  156.1830  140.1680  156.8238 H   0  0  0  0  0  0  0  0  0  0  0  0  # atno 8008 bound_to 7997
  154.5382  140.0742  156.8497 H   0  0  0  0  0  0  0  0  0  0  0  0  # atno 8009 bound_to 7997
  155.3268  140.3376  155.4242 H   0  0  0  0  0  0  0  0  0  0  0  0  # atno 8010 bound_to 7997
  140.6399  143.2502  151.5017 H   0  0  0  0  0  0  0  0  0  0  0  0  # atno 10167 bound_to 10162
  156.2214  130.4166  149.8989 H   0  0  0  0  0  0  0  0  0  0  0  0  # atno 10718 bound_to 10713
  152.9810  135.6007  154.3604 H   0  0  0  0  0  0  0  0  0  0  0  0  # atno 10763 bound_to 10752
  154.3286  135.2769  155.2485 H   0  0  0  0  0  0  0  0  0  0  0  0  # atno 10764 bound_to 10752
  154.4619  135.5963  153.6317 H   0  0  0  0  0  0  0  0  0  0  0  0  # atno 10765 bound_to 10752
  139.9613  134.7056  156.0640 H   0  0  0  0  0  0  0  0  0  0  0  0  # atno 11005 bound_to 11000
  145.5226  139.1476  143.3544 LP  0  0  0  0  0  0  0  0  0  0  0  0  # atno 17320 bound_to 7965
  146.2457  140.5366  142.8915 LP  0  0  0  0  0  0  0  0  0  0  0  0  # atno 17321 bound_to 7965
  139.5608  144.2160  152.1689 LP  0  0  0  0  0  0  0  0  0  0  0  0  # atno 17342 bound_to 10162
  140.1427  144.5187  150.6734 LP  0  0  0  0  0  0  0  0  0  0  0  0  # atno 17343 bound_to 10162
  156.6634  130.8791  151.3551 LP  0  0  0  0  0  0  0  0  0  0  0  0  # atno 17370 bound_to 10713
  157.7089  130.9417  150.1022 LP  0  0  0  0  0  0  0  0  0  0  0  0  # atno 17371 bound_to 10713
  141.1290  133.6591  156.3414 LP  0  0  0  0  0  0  0  0  0  0  0  0  # atno 17394 bound_to 11000
  140.5494  134.6042  157.5403 LP  0  0  0  0  0  0  0  0  0  0  0  0  # atno 17395 bound_to 11000

$$$$
