AV-unprocessed.smi:354|AV-procd|sdf|2403|dock3
  -GOLD-   2262022333D 1   1.00000     0.00000
 Structure written by MMmdl.
 36 38  0  0  0  0  0  0  0  0  1 V2000
  152.8950  139.3462  156.8692 O   0  0  0  0  0  0  0  0  0  0  0  0
  152.0144  139.4824  157.9634 C   0  0  0  0  0  0  0  0  0  0  0  0
  151.9693  140.8769  158.5117 C   0  0  0  0  0  0  0  0  0  0  0  0
  152.2853  141.1385  159.7809 N   0  0  0  0  0  0  0  0  0  0  0  0
  152.1414  142.5097  159.8551 C   0  0  0  0  0  0  0  0  0  0  0  0
  152.3379  143.3964  160.9380 C   0  0  0  0  0  0  0  0  0  0  0  0
  152.1355  144.7822  160.7718 C   0  0  0  0  0  0  0  0  0  0  0  0
  151.7364  145.3004  159.5228 C   0  0  0  0  0  0  0  0  0  0  0  0
  151.5339  144.4342  158.4315 C   0  0  0  0  0  0  0  0  0  0  0  0
  151.7337  143.0508  158.6034 C   0  0  0  0  0  0  0  0  0  0  0  0
  151.6197  141.9515  157.7577 N   0  0  0  0  0  0  0  0  0  0  0  0
  151.2236  141.9947  156.3551 C   0  0  0  0  0  0  0  0  0  0  0  0
  150.2456  140.8645  155.9730 C   0  0  2  0  0  0  0  0  0  0  0  0
  150.8301  140.0263  154.9949 O   0  0  0  0  0  0  0  0  0  0  0  0
  148.9032  141.4293  155.5288 C   0  0  0  0  0  0  0  0  0  0  0  0
  148.5625  141.4678  154.1579 C   0  0  0  0  0  0  0  0  0  0  0  0
  147.3259  142.0011  153.7460 C   0  0  0  0  0  0  0  0  0  0  0  0
  146.4221  142.5028  154.7014 C   0  0  0  0  0  0  0  0  0  0  0  0
  146.7572  142.4737  156.0684 C   0  0  0  0  0  0  0  0  0  0  0  0
  147.9942  141.9415  156.4827 C   0  0  0  0  0  0  0  0  0  0  0  0
  148.3039  141.9299  157.8016 F   0  0  0  0  0  0  0  0  0  0  0  0
  152.5437  138.6963  156.2805 H   0  0  0  0  0  0  0  0  0  0  0  0
  151.0151  139.1920  157.6370 H   0  0  0  0  0  0  0  0  0  0  0  0
  152.2957  138.7847  158.7521 H   0  0  0  0  0  0  0  0  0  0  0  0
  152.6472  143.0098  161.8979 H   0  0  0  0  0  0  0  0  0  0  0  0
  152.2891  145.4510  161.6059 H   0  0  0  0  0  0  0  0  0  0  0  0
  151.5858  146.3632  159.4029 H   0  0  0  0  0  0  0  0  0  0  0  0
  151.2289  144.8291  157.4738 H   0  0  0  0  0  0  0  0  0  0  0  0
  150.7571  142.9636  156.1735 H   0  0  0  0  0  0  0  0  0  0  0  0
  152.1055  141.9601  155.7169 H   0  0  0  0  0  0  0  0  0  0  0  0
  150.0777  140.2301  156.8431 H   0  0  0  0  0  0  0  0  0  0  0  0
  151.5314  139.5383  155.3986 H   0  0  0  0  0  0  0  0  0  0  0  0
  149.2507  141.0907  153.4155 H   0  0  0  0  0  0  0  0  0  0  0  0
  147.0717  142.0269  152.6966 H   0  0  0  0  0  0  0  0  0  0  0  0
  145.4738  142.9127  154.3859 H   0  0  0  0  0  0  0  0  0  0  0  0
  146.0653  142.8626  156.8008 H   0  0  0  0  0  0  0  0  0  0  0  0
  1  2  1  0  0  0  0
  1 22  1  0  0  0  0
  2  3  1  0  0  0  0
  2 23  1  0  0  0  0
  2 24  1  0  0  0  0
  3 11  1  0  0  0  0
  3  4  2  0  0  0  0
  4  5  1  0  0  0  0
  5 10  2  0  0  0  0
  5  6  1  0  0  0  0
  6  7  2  0  0  0  0
  6 25  1  0  0  0  0
  7  8  1  0  0  0  0
  7 26  1  0  0  0  0
  8  9  2  0  0  0  0
  8 27  1  0  0  0  0
  9 10  1  0  0  0  0
  9 28  1  0  0  0  0
 10 11  1  0  0  0  0
 11 12  1  0  0  0  0
 12 13  1  0  0  0  0
 12 29  1  0  0  0  0
 12 30  1  0  0  0  0
 13 14  1  0  0  0  0
 13 15  1  0  0  0  0
 13 31  1  0  0  0  0
 14 32  1  0  0  0  0
 15 20  1  0  0  0  0
 15 16  2  0  0  0  0
 16 17  1  0  0  0  0
 16 33  1  0  0  0  0
 17 18  2  0  0  0  0
 17 34  1  0  0  0  0
 18 19  1  0  0  0  0
 18 35  1  0  0  0  0
 19 20  2  0  0  0  0
 19 36  1  0  0  0  0
 20 21  1  0  0  0  0
M  END
> <s_m_source_file>
AV-unprocessed.smi

> <i_m_source_file_index>
354

> <i_lp_mmshare_version>
43012

> <i_f3d_flags>
0

> <s_epik_input>
W2NIXTFbY0hdW2NIXVtjSF1jKGMxMiluKGMobjIpW0NIMl1bT0hdKVtDSDJdW0NASF0oW09IXSljM1tjSF1bY0hdW2NIXVtjSF1jM0Y=

> <s_epik_cmdline>
J2VwaWtfcHl0aG9uJywgJy1waCcsICc3LjAnLCAnLXRuJywgJzgnLCAnLW1hJywgJzIwMCcsICctbWV0YWxfYmluZGluZycsICctaW1hZScsICc8aW5maWxlLm1hZT4nLCAnLW9tYWUnLCAnPG91dGZpbGUubWFlPic=

> <r_epik_Ionization_Penalty>
0.0634722

> <r_epik_Ionization_Penalty_Charging>
0

> <r_epik_Ionization_Penalty_Neutral>
0.0634722

> <r_epik_State_Penalty>
0.0551572

> <r_epik_Charging_Adjusted_Penalty>
0.0551572

> <i_epik_Tot_Q>
0

> <i_epik_Tot_abs_Q>
0

> <r_epik_Metal_State_Penalty>
5.78034e-05

> <b_epik_Metal_Only>
0

> <s_lp_Force_Field>
OPLS_2005

> <r_lp_Energy>
13.1732

> <b_lp_Chiralities_Consistent>
1

> <s_lp_Variant>
AV-unprocessed.smi:354-1

> <Gold.Version>
5.8.1

> <Gold.Id.Protein>
6NUR|6NUR_protein|mol2

> <Gold.PLP.Fitness>
50.5185

> <Gold.PLP.PLP>
-47.3785

> <Gold.PLP.part.hbond>
-1.9461

> <Gold.PLP.part.metal>
0.0000

> <Gold.PLP.part.buried>
-8.0573

> <Gold.PLP.part.nonpolar>
-36.7406

> <Gold.PLP.part.repulsive>
0.0000

> <Gold.PLP.ligand.clash>
0.0000

> <Gold.PLP.ligand.torsion>
1.4573

> <Gold.PLP.Chemscore.Hbond>
2.0000

> <Gold.PLP.Chemscore.CHOScore>
0.0000

> <Gold.PLP.Chemscore.Metal>
0.0000

> <Gold.Chemscore.Hbonds>
donor molecule, donor type, donor heavy atom, donor atom, acceptor molecule, acceptor atom, score
      P1  H  7989  7998       L1    14  1.00
      P1  H  7997  8009       L1     1  1.00

> <Gold.PLP.Chemscore.Internal.Correction>
0.0545

> <Gold.Rescore>
     Score         DG    S(hbond)    S(metal)    S(lipo)     H(rot)  DE(clash)    DE(int)     intcor
     15.82     -17.33       1.47        0.00     119.38       2.75       0.31       1.20       ----

> <Gold.Chemscore.Fitness>
15.8188

> <Gold.Chemscore.DG>
-17.3342

> <Gold.Chemscore.ZeroCoef>
-5.4800

> <Gold.Chemscore.Hbond>
1.4749

> <Gold.Chemscore.Metal>
0.0000

> <Gold.Chemscore.Lipo>
119.3836

> <Gold.Chemscore.Internal_Hbond>
0.0000

> <Gold.Chemscore.DEClash>
0.3136

> <Gold.Chemscore.DEInternal>
1.2018

> <Gold.Chemscore.Rot>
2.7500

> <Gold.Chemscore.Internal.Correction>
   9.000000E+99

> <Gold.Chemscore.Hbonds>
donor molecule, donor type, donor heavy atom, donor atom, acceptor molecule, acceptor atom, score
      P1  H  7989  7998       L1    14  0.47
      P1  H  7997  8009       L1     1  0.92

> <Gold.Chemscore.Hbond.Weighted>
-4.9263

> <Gold.Chemscore.Metal.Weighted>
-0.0000

> <Gold.Chemscore.Lipo.Weighted>
-13.9679

> <Gold.Chemscore.Internal_Hbond.Weighted>
0.0000

> <Gold.Chemscore.DEClash.Weighted>
0.3136

> <Gold.Chemscore.DEInternal.Weighted>
1.2018

> <Gold.Chemscore.Rot.Weighted>
7.0399

> <Gold.Chemscore.Internal.Correction.Weighted>
   9.000000E+99

> <Gold.Protein.RotatedTorsions>
[ 6907 6896 6895 6894 ] final   77.53 input  -60.11 | X-H torsion
[ 7974 7965 7964 7962 ] final  -60.46 input  175.53 | X-H torsion
[ 8008 7997 7996 7995 ] final -162.22 input   59.86 | X-H torsion
[ 10167 10162 10161 10158 ] final  -52.42 input  -65.29 | X-H torsion
[ 10718 10713 10712 10709 ] final   25.25 input   66.30 | X-H torsion
[ 10763 10752 10751 10750 ] final  148.67 input  -60.55 | X-H torsion
[ 11005 11000 10999 10996 ] final   99.99 input  -57.11 | X-H torsion

> <Gold.Protein.ActiveResidues>
 VAL166  LYS551  ARG553  GLY616  TRP617  ASP618  TYR619  PRO620  LYS621  CYS622 
 ASP623  PHE694  ASN695  SER759  ASP760  ASP761  ALA762  ILE779  LEU786  VAL792 
 PHE793  MET794  SER795  GLU796  ALA797  LYS798  CYS799  TRP800  GLU811  SER814 

> <Gold.Protein.RotatedAtoms>
  152.5121  134.3802  159.9348 H   0  0  0  0  0  0  0  0  0  0  0  0  # atno 6907 bound_to 6896
  151.3759  133.3832  159.2712 H   0  0  0  0  0  0  0  0  0  0  0  0  # atno 6908 bound_to 6896
  150.9542  134.8958  159.7749 H   0  0  0  0  0  0  0  0  0  0  0  0  # atno 6909 bound_to 6896
  145.8152  140.8574  143.0161 H   0  0  0  0  0  0  0  0  0  0  0  0  # atno 7974 bound_to 7965
  155.8037  140.0895  157.1943 H   0  0  0  0  0  0  0  0  0  0  0  0  # atno 8008 bound_to 7997
  154.3981  140.1467  156.3364 H   0  0  0  0  0  0  0  0  0  0  0  0  # atno 8009 bound_to 7997
  155.8436  140.3437  155.5650 H   0  0  0  0  0  0  0  0  0  0  0  0  # atno 8010 bound_to 7997
  140.6538  143.2584  151.4645 H   0  0  0  0  0  0  0  0  0  0  0  0  # atno 10167 bound_to 10162
  157.1908  130.6845  149.6149 H   0  0  0  0  0  0  0  0  0  0  0  0  # atno 10718 bound_to 10713
  154.0586  135.2876  155.3328 H   0  0  0  0  0  0  0  0  0  0  0  0  # atno 10763 bound_to 10752
  154.6823  135.5258  153.8283 H   0  0  0  0  0  0  0  0  0  0  0  0  # atno 10764 bound_to 10752
  153.0532  135.6584  154.0776 H   0  0  0  0  0  0  0  0  0  0  0  0  # atno 10765 bound_to 10752
  139.8771  134.9120  156.4688 H   0  0  0  0  0  0  0  0  0  0  0  0  # atno 11005 bound_to 11000
  144.6753  140.0454  143.7480 LP  0  0  0  0  0  0  0  0  0  0  0  0  # atno 17320 bound_to 7965
  145.9734  139.2886  143.1085 LP  0  0  0  0  0  0  0  0  0  0  0  0  # atno 17321 bound_to 7965
  139.5757  144.1824  152.1900 LP  0  0  0  0  0  0  0  0  0  0  0  0  # atno 17342 bound_to 10162
  140.1134  144.5437  150.6910 LP  0  0  0  0  0  0  0  0  0  0  0  0  # atno 17343 bound_to 10162
  155.9712  130.4615  150.6113 LP  0  0  0  0  0  0  0  0  0  0  0  0  # atno 17370 bound_to 10713
  157.3863  131.0788  151.1433 LP  0  0  0  0  0  0  0  0  0  0  0  0  # atno 17371 bound_to 10713
  140.8810  133.7917  155.9467 LP  0  0  0  0  0  0  0  0  0  0  0  0  # atno 17394 bound_to 11000
  140.8854  134.2561  157.5123 LP  0  0  0  0  0  0  0  0  0  0  0  0  # atno 17395 bound_to 11000

$$$$
