AV-unprocessed.smi:1457|AV-procd|sdf|5919|dock3
  -GOLD-   22720 6 03D 1   1.00000     0.00000
 Structure written by MMmdl.
 36 37  0  0  0  0  0  0  0  0  2 V2000
  146.7806  138.7044  151.6700 C   0  0  0  0  0  0  0  0  0  0  0  0
  147.4867  139.6051  152.6062 N   0  3  2  0  0  0  0  0  0  0  0  0
  147.9073  138.9110  153.8490 C   0  0  0  0  0  0  0  0  0  0  0  0
  148.7482  139.8383  154.7421 C   0  0  0  0  0  0  0  0  0  0  0  0
  147.9865  141.1332  155.0692 C   0  0  1  0  0  0  0  0  0  0  0  0
  148.8455  142.0374  155.8295 N   0  0  0  0  0  0  0  0  0  0  0  0
  149.6803  141.6800  156.8162 C   0  0  0  0  0  0  0  0  0  0  0  0
  149.8131  140.5221  157.2119 O   0  0  0  0  0  0  0  0  0  0  0  0
  150.3231  142.7489  157.3163 N   0  0  0  0  0  0  0  0  0  0  0  0
  151.3185  142.7843  158.3296 C   0  0  0  0  0  0  0  0  0  0  0  0
  151.8466  143.9757  158.8835 C   0  0  0  0  0  0  0  0  0  0  0  0
  152.8149  143.8809  159.9014 C   0  0  0  0  0  0  0  0  0  0  0  0
  153.2146  142.6012  160.3325 C   0  0  0  0  0  0  0  0  0  0  0  0
  152.7097  141.4576  159.8235 N   0  0  0  0  0  0  0  0  0  0  0  0
  151.7806  141.5564  158.8489 C   0  0  0  0  0  0  0  0  0  0  0  0
  147.5276  141.8105  153.7668 C   0  0  0  0  0  0  0  0  0  0  0  0
  146.7149  140.8402  152.8928 C   0  0  0  0  0  0  0  0  0  0  0  0
  145.8469  138.3428  152.1028 H   0  0  0  0  0  0  0  0  0  0  0  0
  147.4008  137.8417  151.4242 H   0  0  0  0  0  0  0  0  0  0  0  0
  146.5487  139.2222  150.7388 H   0  0  0  0  0  0  0  0  0  0  0  0
  147.0257  138.5652  154.3915 H   0  0  0  0  0  0  0  0  0  0  0  0
  148.4906  138.0252  153.5943 H   0  0  0  0  0  0  0  0  0  0  0  0
  149.0165  139.3196  155.6636 H   0  0  0  0  0  0  0  0  0  0  0  0
  149.6856  140.0754  154.2362 H   0  0  0  0  0  0  0  0  0  0  0  0
  147.1009  140.8683  155.6496 H   0  0  0  0  0  0  0  0  0  0  0  0
  148.8039  143.0153  155.5822 H   0  0  0  0  0  0  0  0  0  0  0  0
  150.0377  143.6490  156.9590 H   0  0  0  0  0  0  0  0  0  0  0  0
  151.5198  144.9524  158.5618 H   0  0  0  0  0  0  0  0  0  0  0  0
  153.2380  144.7701  160.3449 H   0  0  0  0  0  0  0  0  0  0  0  0
  153.9557  142.4936  161.1106 H   0  0  0  0  0  0  0  0  0  0  0  0
  151.3960  140.6213  158.4682 H   0  0  0  0  0  0  0  0  0  0  0  0
  146.9277  142.6925  153.9949 H   0  0  0  0  0  0  0  0  0  0  0  0
  148.3944  142.1632  153.2056 H   0  0  0  0  0  0  0  0  0  0  0  0
  146.4496  141.3312  151.9557 H   0  0  0  0  0  0  0  0  0  0  0  0
  145.7792  140.5802  153.3906 H   0  0  0  0  0  0  0  0  0  0  0  0
  148.3334  139.8963  152.1384 H   0  0  0  0  0  0  0  0  0  0  0  0
  1  2  1  0  0  0  0
  1 18  1  0  0  0  0
  1 19  1  0  0  0  0
  1 20  1  0  0  0  0
  2 17  1  0  0  0  0
  2  3  1  0  0  0  0
  2 36  1  0  0  0  0
  3  4  1  0  0  0  0
  3 21  1  0  0  0  0
  3 22  1  0  0  0  0
  4  5  1  0  0  0  0
  4 23  1  0  0  0  0
  4 24  1  0  0  0  0
  5  6  1  0  0  0  0
  5 16  1  0  0  0  0
  5 25  1  0  0  0  0
  6  7  1  0  0  0  0
  6 26  1  0  0  0  0
  7  8  2  0  0  0  0
  7  9  1  0  0  0  0
  9 10  1  0  0  0  0
  9 27  1  0  0  0  0
 10 15  1  0  0  0  0
 10 11  2  0  0  0  0
 11 12  1  0  0  0  0
 11 28  1  0  0  0  0
 12 13  2  0  0  0  0
 12 29  1  0  0  0  0
 13 14  1  0  0  0  0
 13 30  1  0  0  0  0
 14 15  2  0  0  0  0
 15 31  1  0  0  0  0
 16 17  1  0  0  0  0
 16 32  1  0  0  0  0
 16 33  1  0  0  0  0
 17 34  1  0  0  0  0
 17 35  1  0  0  0  0
M  CHG  1   2   1
M  END
> <s_m_source_file>
AV-unprocessed.smi

> <i_m_source_file_index>
1457

> <i_lp_mmshare_version>
43012

> <i_f3d_flags>
0

> <s_epik_input>
W0NIM11OMVtDSDJdW0NIMl1bQ0hdKFtDSDJdW0NIMl0xKVtOSF1DKD1PKVtOSF1jMltjSF1bY0hdW2NIXW5bY0hdMg==

> <s_epik_cmdline>
J2VwaWtfcHl0aG9uJywgJy1waCcsICc3LjAnLCAnLXRuJywgJzgnLCAnLW1hJywgJzIwMCcsICctbWV0YWxfYmluZGluZycsICctaW1hZScsICc8aW5maWxlLm1hZT4nLCAnLW9tYWUnLCAnPG91dGZpbGUubWFlPic=

> <r_lp_tautomer_probability>
1

> <r_epik_Ionization_Penalty>
0.00766642

> <r_epik_Ionization_Penalty_Charging>
0.00366825

> <r_epik_Ionization_Penalty_Neutral>
0.00399817

> <r_epik_State_Penalty>
-0

> <r_epik_Charging_Adjusted_Penalty>
0.00366825

> <i_epik_Tot_Q>
1

> <i_epik_Tot_abs_Q>
1

> <r_epik_Metal_State_Penalty>
-0

> <b_epik_Metal_Only>
0

> <s_lp_Force_Field>
OPLS_2005

> <r_lp_Energy>
19.7358

> <b_lp_Chiralities_Consistent>
1

> <s_lp_Variant>
AV-unprocessed.smi:1457-1

> <Gold.Version>
5.8.1

> <Gold.Id.Protein>
6NUR|6NUR_protein|mol2

> <Gold.PLP.Fitness>
42.4838

> <Gold.PLP.PLP>
-34.0220

> <Gold.PLP.part.hbond>
-3.0000

> <Gold.PLP.part.metal>
0.0000

> <Gold.PLP.part.buried>
-3.8759

> <Gold.PLP.part.nonpolar>
-27.6645

> <Gold.PLP.part.repulsive>
0.2028

> <Gold.PLP.ligand.clash>
0.0000

> <Gold.PLP.ligand.torsion>
0.2577

> <Gold.PLP.Chemscore.Hbond>
2.9920

> <Gold.PLP.Chemscore.CHOScore>
0.0000

> <Gold.PLP.Chemscore.Metal>
0.0000

> <Gold.Chemscore.Hbonds>
donor molecule, donor type, donor heavy atom, donor atom, acceptor molecule, acceptor atom, score
      L1  H     2    36       P1  7957  1.00
      L1  H     6    26       P1  8028  1.00
      L1  H     9    27       P1  8028  0.99

> <Gold.PLP.Chemscore.Internal.Correction>
0.0012

> <Gold.Rescore>
     Score         DG    S(hbond)    S(metal)    S(lipo)     H(rot)  DE(clash)    DE(int)     intcor
     20.67     -23.86       2.93        0.00      95.33       1.00       0.15       3.04       ----

> <Gold.Chemscore.Fitness>
20.6669

> <Gold.Chemscore.DG>
-23.8626

> <Gold.Chemscore.ZeroCoef>
-5.4800

> <Gold.Chemscore.Hbond>
2.9309

> <Gold.Chemscore.Metal>
0.0000

> <Gold.Chemscore.Lipo>
95.3276

> <Gold.Chemscore.Internal_Hbond>
0.0000

> <Gold.Chemscore.DEClash>
0.1548

> <Gold.Chemscore.DEInternal>
3.0410

> <Gold.Chemscore.Rot>
1.0000

> <Gold.Chemscore.Internal.Correction>
   9.000000E+99

> <Gold.Chemscore.Hbonds>
donor molecule, donor type, donor heavy atom, donor atom, acceptor molecule, acceptor atom, score
      L1  H     2    36       P1  7957  0.98
      L1  H     6    26       P1  8028  1.00
      L1  H     9    27       P1  8028  0.88

> <Gold.Chemscore.Hbond.Weighted>
-9.7893

> <Gold.Chemscore.Metal.Weighted>
-0.0000

> <Gold.Chemscore.Lipo.Weighted>
-11.1533

> <Gold.Chemscore.Internal_Hbond.Weighted>
0.0000

> <Gold.Chemscore.DEClash.Weighted>
0.1548

> <Gold.Chemscore.DEInternal.Weighted>
3.0410

> <Gold.Chemscore.Rot.Weighted>
2.5600

> <Gold.Chemscore.Internal.Correction.Weighted>
   9.000000E+99

> <Gold.Protein.RotatedTorsions>
[ 6907 6896 6895 6894 ] final   75.98 input  -60.11 | X-H torsion
[ 7974 7965 7964 7962 ] final -107.26 input  175.53 | X-H torsion
[ 8008 7997 7996 7995 ] final -163.09 input   59.86 | X-H torsion
[ 10167 10162 10161 10158 ] final  154.82 input  -65.29 | X-H torsion
[ 10718 10713 10712 10709 ] final -134.49 input   66.30 | X-H torsion
[ 10763 10752 10751 10750 ] final -160.87 input  -60.55 | X-H torsion
[ 11005 11000 10999 10996 ] final  117.59 input  -57.11 | X-H torsion

> <Gold.Protein.ActiveResidues>
 VAL166  LYS551  ARG553  GLY616  TRP617  ASP618  TYR619  PRO620  LYS621  CYS622 
 ASP623  PHE694  ASN695  SER759  ASP760  ASP761  ALA762  ILE779  LEU786  VAL792 
 PHE793  MET794  SER795  GLU796  ALA797  LYS798  CYS799  TRP800  GLU811  SER814 

> <Gold.Protein.RotatedAtoms>
  152.5052  134.4038  159.9425 H   0  0  0  0  0  0  0  0  0  0  0  0  # atno 6907 bound_to 6896
  151.4003  133.3753  159.2739 H   0  0  0  0  0  0  0  0  0  0  0  0  # atno 6908 bound_to 6896
  150.9366  134.8800  159.7645 H   0  0  0  0  0  0  0  0  0  0  0  0  # atno 6909 bound_to 6896
  145.2075  140.9082  143.3333 H   0  0  0  0  0  0  0  0  0  0  0  0  # atno 7974 bound_to 7965
  155.8163  140.0913  157.1875 H   0  0  0  0  0  0  0  0  0  0  0  0  # atno 8008 bound_to 7997
  154.3979  140.1445  156.3507 H   0  0  0  0  0  0  0  0  0  0  0  0  # atno 8009 bound_to 7997
  155.8313  140.3442  155.5576 H   0  0  0  0  0  0  0  0  0  0  0  0  # atno 8010 bound_to 7997
  139.4822  144.5153  151.7961 H   0  0  0  0  0  0  0  0  0  0  0  0  # atno 10167 bound_to 10162
  156.2560  130.7181  151.1098 H   0  0  0  0  0  0  0  0  0  0  0  0  # atno 10718 bound_to 10713
  154.7353  135.3056  154.8822 H   0  0  0  0  0  0  0  0  0  0  0  0  # atno 10763 bound_to 10752
  153.9653  135.6748  153.4750 H   0  0  0  0  0  0  0  0  0  0  0  0  # atno 10764 bound_to 10752
  153.0956  135.4937  154.8695 H   0  0  0  0  0  0  0  0  0  0  0  0  # atno 10765 bound_to 10752
  139.9080  134.9612  156.7374 H   0  0  0  0  0  0  0  0  0  0  0  0  # atno 11005 bound_to 11000
  144.9888  139.3710  143.6225 LP  0  0  0  0  0  0  0  0  0  0  0  0  # atno 17320 bound_to 7965
  146.3404  139.9061  142.8787 LP  0  0  0  0  0  0  0  0  0  0  0  0  # atno 17321 bound_to 7965
  140.4661  144.1654  150.5912 LP  0  0  0  0  0  0  0  0  0  0  0  0  # atno 17342 bound_to 10162
  140.4433  143.2517  151.9444 LP  0  0  0  0  0  0  0  0  0  0  0  0  # atno 17343 bound_to 10162
  157.7233  131.0667  150.6044 LP  0  0  0  0  0  0  0  0  0  0  0  0  # atno 17370 bound_to 10713
  156.6127  130.4384  149.5852 LP  0  0  0  0  0  0  0  0  0  0  0  0  # atno 17371 bound_to 10713
  140.6876  133.9418  155.7947 LP  0  0  0  0  0  0  0  0  0  0  0  0  # atno 17394 bound_to 11000
  141.0465  134.0547  157.3838 LP  0  0  0  0  0  0  0  0  0  0  0  0  # atno 17395 bound_to 11000

$$$$
