AV-unprocessed.smi:527|AV-procd|sdf|2822|dock3
  -GOLD-   2262023303D 1   1.00000     0.00000
 Structure written by MMmdl.
 42 43  0  0  0  0  0  0  0  0  1 V2000
  145.8509  132.3576  149.6980 C   0  0  0  0  0  0  0  0  0  0  0  0
  145.8204  133.4832  150.7472 C   0  0  1  0  0  0  0  0  0  0  0  0
  144.6963  134.4832  150.4049 C   0  0  0  0  0  0  0  0  0  0  0  0
  144.6228  135.6395  151.4107 C   0  0  0  0  0  0  0  0  0  0  0  0
  144.4491  135.1113  152.8414 C   0  0  0  0  0  0  0  0  0  0  0  0
  145.5631  134.1162  153.2232 C   0  0  2  0  0  0  0  0  0  0  0  0
  146.8478  134.8035  153.3681 N   0  0  0  0  0  0  0  0  0  0  0  0
  147.4703  135.0586  154.5282 C   0  0  0  0  0  0  0  0  0  0  0  0
  146.9423  134.8963  155.6305 O   0  0  0  0  0  0  0  0  0  0  0  0
  148.7210  135.5098  154.3144 N   0  0  0  0  0  0  0  0  0  0  0  0
  149.6896  135.7113  155.2317 C   0  0  0  0  0  0  0  0  0  0  0  0
  149.5815  135.4940  156.4401 O   0  0  0  0  0  0  0  0  0  0  0  0
  151.0113  136.2563  154.6888 C   0  0  0  0  0  0  0  0  0  0  0  0
  151.0861  137.6960  154.8515 N   0  0  0  0  0  0  0  0  0  0  0  0
  151.7371  138.3938  155.8610 C   0  0  0  0  0  0  0  0  0  0  0  0
  151.5325  139.7316  155.6092 C   0  0  0  0  0  0  0  0  0  0  0  0
  150.7613  139.8796  154.4587 N   0  0  0  0  0  0  0  0  0  0  0  0
  150.5352  138.6326  154.0666 C   0  0  0  0  0  0  0  0  0  0  0  0
  145.6606  132.9541  152.2002 C   0  0  2  0  0  0  0  0  0  0  0  0
  146.7573  131.9471  152.6028 C   0  0  0  0  0  0  0  0  0  0  0  0
  144.9575  131.7354  149.7570 H   0  0  0  0  0  0  0  0  0  0  0  0
  146.7197  131.7117  149.8219 H   0  0  0  0  0  0  0  0  0  0  0  0
  145.9029  132.7663  148.6885 H   0  0  0  0  0  0  0  0  0  0  0  0
  146.7704  134.0153  150.6785 H   0  0  0  0  0  0  0  0  0  0  0  0
  144.8483  134.8872  149.4032 H   0  0  0  0  0  0  0  0  0  0  0  0
  143.7373  133.9636  150.3830 H   0  0  0  0  0  0  0  0  0  0  0  0
  145.5278  136.2446  151.3443 H   0  0  0  0  0  0  0  0  0  0  0  0
  143.7929  136.2994  151.1568 H   0  0  0  0  0  0  0  0  0  0  0  0
  144.4197  135.9436  153.5458 H   0  0  0  0  0  0  0  0  0  0  0  0
  143.4817  134.6144  152.9231 H   0  0  0  0  0  0  0  0  0  0  0  0
  145.3033  133.6801  154.1898 H   0  0  0  0  0  0  0  0  0  0  0  0
  147.2917  135.1089  152.5145 H   0  0  0  0  0  0  0  0  0  0  0  0
  148.9604  135.7287  153.3587 H   0  0  0  0  0  0  0  0  0  0  0  0
  151.8488  135.7963  155.2150 H   0  0  0  0  0  0  0  0  0  0  0  0
  151.1208  136.0091  153.6316 H   0  0  0  0  0  0  0  0  0  0  0  0
  152.2751  137.8949  156.6539 H   0  0  0  0  0  0  0  0  0  0  0  0
  151.8766  140.5919  156.1641 H   0  0  0  0  0  0  0  0  0  0  0  0
  149.9530  138.3946  153.1884 H   0  0  0  0  0  0  0  0  0  0  0  0
  144.7123  132.4162  152.2459 H   0  0  0  0  0  0  0  0  0  0  0  0
  147.7564  132.3611  152.4640 H   0  0  0  0  0  0  0  0  0  0  0  0
  146.6939  131.0290  152.0193 H   0  0  0  0  0  0  0  0  0  0  0  0
  146.6589  131.6627  153.6508 H   0  0  0  0  0  0  0  0  0  0  0  0
  1  2  1  0  0  0  0
  1 21  1  0  0  0  0
  1 22  1  0  0  0  0
  1 23  1  0  0  0  0
  2 19  1  0  0  0  0
  2  3  1  0  0  0  0
  2 24  1  0  0  0  0
  3  4  1  0  0  0  0
  3 25  1  0  0  0  0
  3 26  1  0  0  0  0
  4  5  1  0  0  0  0
  4 27  1  0  0  0  0
  4 28  1  0  0  0  0
  5  6  1  0  0  0  0
  5 29  1  0  0  0  0
  5 30  1  0  0  0  0
  6  7  1  0  0  0  0
  6 19  1  0  0  0  0
  6 31  1  0  0  0  0
  7  8  1  0  0  0  0
  7 32  1  0  0  0  0
  8  9  2  0  0  0  0
  8 10  1  0  0  0  0
 10 11  1  0  0  0  0
 10 33  1  0  0  0  0
 11 12  2  0  0  0  0
 11 13  1  0  0  0  0
 13 14  1  0  0  0  0
 13 34  1  0  0  0  0
 13 35  1  0  0  0  0
 14 18  1  0  0  0  0
 14 15  1  0  0  0  0
 15 16  2  0  0  0  0
 15 36  1  0  0  0  0
 16 17  1  0  0  0  0
 16 37  1  0  0  0  0
 17 18  2  0  0  0  0
 18 38  1  0  0  0  0
 19 20  1  0  0  0  0
 19 39  1  0  0  0  0
 20 40  1  0  0  0  0
 20 41  1  0  0  0  0
 20 42  1  0  0  0  0
M  END
> <s_m_source_file>
AV-unprocessed.smi

> <i_m_source_file_index>
527

> <i_lp_mmshare_version>
43012

> <i_f3d_flags>
0

> <s_epik_input>
W0NIM11bQ0BASF0xW0NIMl1bQ0gyXVtDSDJdW0NASF0oW0NASF0xW0NIM10pW05IXUMoPU8pW05IXUMoPU8pW0NIMl1uMltjSF1bY0hdbltjSF0y

> <s_epik_cmdline>
J2VwaWtfcHl0aG9uJywgJy1waCcsICc3LjAnLCAnLXRuJywgJzgnLCAnLW1hJywgJzIwMCcsICctbWV0YWxfYmluZGluZycsICctaW1hZScsICc8aW5maWxlLm1hZT4nLCAnLW9tYWUnLCAnPG91dGZpbGUubWFlPic=

> <r_lp_tautomer_probability>
1

> <r_epik_Ionization_Penalty>
0.172132

> <r_epik_Ionization_Penalty_Charging>
0.172105

> <r_epik_Ionization_Penalty_Neutral>
2.71747e-05

> <r_epik_State_Penalty>
0.161503

> <r_epik_Charging_Adjusted_Penalty>
0.333607

> <i_epik_Tot_Q>
0

> <i_epik_Tot_abs_Q>
0

> <r_epik_Metal_State_Penalty>
0.124763

> <b_epik_Metal_Only>
0

> <s_lp_Force_Field>
OPLS_2005

> <r_lp_Energy>
14.576

> <b_lp_Chiralities_Consistent>
1

> <s_lp_Variant>
AV-unprocessed.smi:527-8

> <Gold.Version>
5.8.1

> <Gold.Id.Protein>
6NUR|6NUR_protein|mol2

> <Gold.PLP.Fitness>
42.0650

> <Gold.PLP.PLP>
-31.0984

> <Gold.PLP.part.hbond>
-3.0000

> <Gold.PLP.part.metal>
0.0000

> <Gold.PLP.part.buried>
-1.5634

> <Gold.PLP.part.nonpolar>
-25.9930

> <Gold.PLP.part.repulsive>
0.1507

> <Gold.PLP.ligand.clash>
0.0000

> <Gold.PLP.ligand.torsion>
0.7778

> <Gold.PLP.Chemscore.Hbond>
2.7166

> <Gold.PLP.Chemscore.CHOScore>
1.4451

> <Gold.PLP.Chemscore.Metal>
0.0000

> <Gold.Chemscore.Hbonds>
donor molecule, donor type, donor heavy atom, donor atom, acceptor molecule, acceptor atom, score
      L1  H     7    32       P1  7948  0.73
      L1  H    10    33       P1  7948  1.00
      P1  H  7989  7998       L1    17  1.00
      L1  C    18    38       P1  7948  0.62
      L1  C    18    38       P1  7957  0.70

> <Gold.PLP.Chemscore.Internal.Correction>
0.0371

> <Gold.Rescore>
     Score         DG    S(hbond)    S(metal)    S(lipo)     H(rot)  DE(clash)    DE(int)     intcor
     14.73     -17.30       2.56        0.00      64.44       1.66       0.49       2.09       ----

> <Gold.Chemscore.Fitness>
14.7255

> <Gold.Chemscore.DG>
-17.2981

> <Gold.Chemscore.ZeroCoef>
-5.4800

> <Gold.Chemscore.Hbond>
2.5557

> <Gold.Chemscore.Metal>
0.0000

> <Gold.Chemscore.Lipo>
64.4369

> <Gold.Chemscore.Internal_Hbond>
0.0000

> <Gold.Chemscore.DEClash>
0.4863

> <Gold.Chemscore.DEInternal>
2.0863

> <Gold.Chemscore.Rot>
1.6629

> <Gold.Chemscore.Internal.Correction>
   9.000000E+99

> <Gold.Chemscore.Hbonds>
donor molecule, donor type, donor heavy atom, donor atom, acceptor molecule, acceptor atom, score
      L1  H     7    32       P1  7948  0.70
      L1  H    10    33       P1  7948  0.85
      P1  H  7989  7998       L1    17  0.48

> <Gold.Chemscore.Hbond.Weighted>
-8.5359

> <Gold.Chemscore.Metal.Weighted>
-0.0000

> <Gold.Chemscore.Lipo.Weighted>
-7.5391

> <Gold.Chemscore.Internal_Hbond.Weighted>
0.0000

> <Gold.Chemscore.DEClash.Weighted>
0.4863

> <Gold.Chemscore.DEInternal.Weighted>
2.0863

> <Gold.Chemscore.Rot.Weighted>
4.2569

> <Gold.Chemscore.Internal.Correction.Weighted>
   9.000000E+99

> <Gold.Protein.RotatedTorsions>
[ 6907 6896 6895 6894 ] final  170.71 input  -60.11 | X-H torsion
[ 7974 7965 7964 7962 ] final   25.38 input  175.53 | X-H torsion
[ 8008 7997 7996 7995 ] final  126.57 input   59.86 | X-H torsion
[ 10167 10162 10161 10158 ] final  -51.84 input  -65.29 | X-H torsion
[ 10718 10713 10712 10709 ] final  145.73 input   66.30 | X-H torsion
[ 10763 10752 10751 10750 ] final -104.09 input  -60.55 | X-H torsion
[ 11005 11000 10999 10996 ] final    9.84 input  -57.11 | X-H torsion

> <Gold.Protein.ActiveResidues>
 VAL166  LYS551  ARG553  GLY616  TRP617  ASP618  TYR619  PRO620  LYS621  CYS622 
 ASP623  PHE694  ASN695  SER759  ASP760  ASP761  ALA762  ILE779  LEU786  VAL792 
 PHE793  MET794  SER795  GLU796  ALA797  LYS798  CYS799  TRP800  GLU811  SER814 

> <Gold.Protein.RotatedAtoms>
  151.8118  133.3383  159.3557 H   0  0  0  0  0  0  0  0  0  0  0  0  # atno 6907 bound_to 6896
  150.7323  134.5657  159.5874 H   0  0  0  0  0  0  0  0  0  0  0  0  # atno 6908 bound_to 6896
  152.3070  134.7545  160.0396 H   0  0  0  0  0  0  0  0  0  0  0  0  # atno 6909 bound_to 6896
  146.1891  139.7474  142.8845 H   0  0  0  0  0  0  0  0  0  0  0  0  # atno 7974 bound_to 7965
  156.2867  140.2689  156.2133 H   0  0  0  0  0  0  0  0  0  0  0  0  # atno 8008 bound_to 7997
  155.0242  140.0386  157.2467 H   0  0  0  0  0  0  0  0  0  0  0  0  # atno 8009 bound_to 7997
  154.7409  140.2725  155.6379 H   0  0  0  0  0  0  0  0  0  0  0  0  # atno 8010 bound_to 7997
  140.6568  143.2605  151.4561 H   0  0  0  0  0  0  0  0  0  0  0  0  # atno 10167 bound_to 10162
  157.3417  131.0937  151.1077 H   0  0  0  0  0  0  0  0  0  0  0  0  # atno 10718 bound_to 10713
  154.7854  135.4799  153.9934 H   0  0  0  0  0  0  0  0  0  0  0  0  # atno 10763 bound_to 10752
  153.1552  135.6798  153.8829 H   0  0  0  0  0  0  0  0  0  0  0  0  # atno 10764 bound_to 10752
  153.8461  135.3173  155.3407 H   0  0  0  0  0  0  0  0  0  0  0  0  # atno 10765 bound_to 10752
  140.5212  134.0557  155.7845 H   0  0  0  0  0  0  0  0  0  0  0  0  # atno 11005 bound_to 11000
  145.3847  141.0363  143.3158 LP  0  0  0  0  0  0  0  0  0  0  0  0  # atno 17320 bound_to 7965
  144.8453  139.5407  143.6881 LP  0  0  0  0  0  0  0  0  0  0  0  0  # atno 17321 bound_to 7965
  139.5792  144.1747  152.1946 LP  0  0  0  0  0  0  0  0  0  0  0  0  # atno 17342 bound_to 10162
  140.1068  144.5492  150.6952 LP  0  0  0  0  0  0  0  0  0  0  0  0  # atno 17343 bound_to 10162
  157.2286  130.6514  149.5840 LP  0  0  0  0  0  0  0  0  0  0  0  0  # atno 17370 bound_to 10713
  155.9708  130.4606  150.6079 LP  0  0  0  0  0  0  0  0  0  0  0  0  # atno 17371 bound_to 10713
  141.1333  133.9265  157.2489 LP  0  0  0  0  0  0  0  0  0  0  0  0  # atno 17394 bound_to 11000
  139.9605  135.0155  156.9246 LP  0  0  0  0  0  0  0  0  0  0  0  0  # atno 17395 bound_to 11000

$$$$
