AV-unprocessed.smi:2976|AV-procd|sdf|11361|dock5
  -GOLD-   2272016273D 1   1.00000     0.00000
 Structure written by MMmdl.
 40 41  0  0  0  0  0  0  0  0  1 V2000
  151.5718  144.4803  159.8201 C   0  0  0  0  0  0  0  0  0  0  0  0
  151.9632  143.0042  160.0185 C   0  0  2  0  0  0  0  0  0  0  0  0
  153.3925  142.9250  160.5918 C   0  0  0  0  0  0  0  0  0  0  0  0
  153.8304  141.4777  160.8411 C   0  0  0  0  0  0  0  0  0  0  0  0
  153.7381  140.6587  159.5505 C   0  0  0  0  0  0  0  0  0  0  0  0
  152.3161  140.6991  158.9641 C   0  0  2  0  0  0  0  0  0  0  0  0
  152.3056  139.9297  157.7201 N   0  0  0  0  0  0  0  0  0  0  0  0
  152.5731  138.6197  157.6007 C   0  0  0  0  0  0  0  0  0  0  0  0
  152.8936  137.9019  158.5489 O   0  0  0  0  0  0  0  0  0  0  0  0
  152.4730  138.0381  156.1836 C   0  0  0  0  0  0  0  0  0  0  0  0
  151.1490  138.2381  155.5765 N   0  0  0  0  0  0  0  0  0  0  0  0
  150.3938  137.0829  155.4728 N   0  0  0  0  0  0  0  0  0  0  0  0
  149.2051  137.1444  154.9796 C   0  0  0  0  0  0  0  0  0  0  0  0
  148.6251  138.3870  154.5195 C   0  0  0  0  0  0  0  0  0  0  0  0
  147.0240  138.4075  153.8683 Cl  0  0  0  0  0  0  0  0  0  0  0  0
  149.3772  139.5122  154.6173 C   0  0  0  0  0  0  0  0  0  0  0  0
  148.7523  141.0359  154.0857 Cl  0  0  0  0  0  0  0  0  0  0  0  0
  150.7366  139.4801  155.1749 C   0  0  0  0  0  0  0  0  0  0  0  0
  151.4513  140.4782  155.2794 O   0  0  0  0  0  0  0  0  0  0  0  0
  151.8292  142.1547  158.7221 C   0  0  1  0  0  0  0  0  0  0  0  0
  150.3886  142.1753  158.1638 C   0  0  0  0  0  0  0  0  0  0  0  0
  152.1510  144.9405  159.0191 H   0  0  0  0  0  0  0  0  0  0  0  0
  151.7496  145.0566  160.7286 H   0  0  0  0  0  0  0  0  0  0  0  0
  150.5150  144.5941  159.5812 H   0  0  0  0  0  0  0  0  0  0  0  0
  151.2870  142.5854  160.7657 H   0  0  0  0  0  0  0  0  0  0  0  0
  154.0931  143.4029  159.9056 H   0  0  0  0  0  0  0  0  0  0  0  0
  153.4501  143.4828  161.5273 H   0  0  0  0  0  0  0  0  0  0  0  0
  154.8517  141.4578  161.2222 H   0  0  0  0  0  0  0  0  0  0  0  0
  153.2021  141.0278  161.6108 H   0  0  0  0  0  0  0  0  0  0  0  0
  154.4525  141.0474  158.8231 H   0  0  0  0  0  0  0  0  0  0  0  0
  154.0307  139.6273  159.7516 H   0  0  0  0  0  0  0  0  0  0  0  0
  151.6464  140.2404  159.6942 H   0  0  0  0  0  0  0  0  0  0  0  0
  152.0566  140.4346  156.8819 H   0  0  0  0  0  0  0  0  0  0  0  0
  153.2435  138.4757  155.5457 H   0  0  0  0  0  0  0  0  0  0  0  0
  152.7090  136.9738  156.2395 H   0  0  0  0  0  0  0  0  0  0  0  0
  148.5724  136.2621  154.8827 H   0  0  0  0  0  0  0  0  0  0  0  0
  152.4776  142.6002  157.9658 H   0  0  0  0  0  0  0  0  0  0  0  0
  149.6795  141.7745  158.8887 H   0  0  0  0  0  0  0  0  0  0  0  0
  150.2961  141.5848  157.2525 H   0  0  0  0  0  0  0  0  0  0  0  0
  150.0674  143.1825  157.9023 H   0  0  0  0  0  0  0  0  0  0  0  0
  1  2  1  0  0  0  0
  1 22  1  0  0  0  0
  1 23  1  0  0  0  0
  1 24  1  0  0  0  0
  2 20  1  0  0  0  0
  2  3  1  0  0  0  0
  2 25  1  0  0  0  0
  3  4  1  0  0  0  0
  3 26  1  0  0  0  0
  3 27  1  0  0  0  0
  4  5  1  0  0  0  0
  4 28  1  0  0  0  0
  4 29  1  0  0  0  0
  5  6  1  0  0  0  0
  5 30  1  0  0  0  0
  5 31  1  0  0  0  0
  6  7  1  0  0  0  0
  6 20  1  0  0  0  0
  6 32  1  0  0  0  0
  7  8  1  0  0  0  0
  7 33  1  0  0  0  0
  8  9  2  0  0  0  0
  8 10  1  0  0  0  0
 10 11  1  0  0  0  0
 10 34  1  0  0  0  0
 10 35  1  0  0  0  0
 11 18  1  0  0  0  0
 11 12  1  0  0  0  0
 12 13  2  0  0  0  0
 13 14  1  0  0  0  0
 13 36  1  0  0  0  0
 14 15  1  0  0  0  0
 14 16  2  0  0  0  0
 16 17  1  0  0  0  0
 16 18  1  0  0  0  0
 18 19  2  0  0  0  0
 20 21  1  0  0  0  0
 20 37  1  0  0  0  0
 21 38  1  0  0  0  0
 21 39  1  0  0  0  0
 21 40  1  0  0  0  0
M  END
> <s_m_source_file>
AV-unprocessed.smi

> <i_m_source_file_index>
2976

> <i_lp_mmshare_version>
43012

> <i_f3d_flags>
0

> <s_epik_input>
W0NIM11bQ0BASF0xW0NIMl1bQ0gyXVtDSDJdW0NASF0oW0NASF0xW0NIM10pW05IXUMoPU8pW0NIMl1uMm5bY0hdYyhDbCljKENsKWMyPU8=

> <s_epik_cmdline>
J2VwaWtfcHl0aG9uJywgJy1waCcsICc3LjAnLCAnLXRuJywgJzgnLCAnLW1hJywgJzIwMCcsICctbWV0YWxfYmluZGluZycsICctaW1hZScsICc8aW5maWxlLm1hZT4nLCAnLW9tYWUnLCAnPG91dGZpbGUubWFlPic=

> <r_lp_tautomer_probability>
1

> <r_epik_Ionization_Penalty>
1.90777e-08

> <r_epik_Ionization_Penalty_Charging>
3.07942e-11

> <r_epik_Ionization_Penalty_Neutral>
1.90469e-08

> <r_epik_State_Penalty>
-0

> <r_epik_Charging_Adjusted_Penalty>
3.07942e-11

> <i_epik_Tot_Q>
0

> <i_epik_Tot_abs_Q>
0

> <r_epik_Metal_State_Penalty>
-0

> <b_epik_Metal_Only>
0

> <s_lp_Force_Field>
OPLS_2005

> <r_lp_Energy>
26.5415

> <b_lp_Chiralities_Consistent>
1

> <s_lp_Variant>
AV-unprocessed.smi:2976-3

> <Gold.Version>
5.8.1

> <Gold.Id.Protein>
6NUR|6NUR_protein|mol2

> <Gold.PLP.Fitness>
38.5458

> <Gold.PLP.PLP>
-36.1860

> <Gold.PLP.part.hbond>
-1.0000

> <Gold.PLP.part.metal>
0.0000

> <Gold.PLP.part.buried>
-4.8403

> <Gold.PLP.part.nonpolar>
-30.4964

> <Gold.PLP.part.repulsive>
0.2117

> <Gold.PLP.ligand.clash>
0.0000

> <Gold.PLP.ligand.torsion>
0.1435

> <Gold.PLP.Chemscore.Hbond>
0.8800

> <Gold.PLP.Chemscore.CHOScore>
0.0000

> <Gold.PLP.Chemscore.Metal>
0.0000

> <Gold.Chemscore.Hbonds>
donor molecule, donor type, donor heavy atom, donor atom, acceptor molecule, acceptor atom, score
      P1  H  7989  7998       L1    19  0.88

> <Gold.PLP.Chemscore.Internal.Correction>
0.0067

> <Gold.Rescore>
     Score         DG    S(hbond)    S(metal)    S(lipo)     H(rot)  DE(clash)    DE(int)     intcor
     15.30     -17.24       0.97        0.00     105.33       1.49       0.21       1.72       ----

> <Gold.Chemscore.Fitness>
15.3037

> <Gold.Chemscore.DG>
-17.2361

> <Gold.Chemscore.ZeroCoef>
-5.4800

> <Gold.Chemscore.Hbond>
0.9694

> <Gold.Chemscore.Metal>
0.0000

> <Gold.Chemscore.Lipo>
105.3337

> <Gold.Chemscore.Internal_Hbond>
0.0000

> <Gold.Chemscore.DEClash>
0.2110

> <Gold.Chemscore.DEInternal>
1.7214

> <Gold.Chemscore.Rot>
1.4866

> <Gold.Chemscore.Internal.Correction>
   9.000000E+99

> <Gold.Chemscore.Hbonds>
donor molecule, donor type, donor heavy atom, donor atom, acceptor molecule, acceptor atom, score
      P1  H  7989  7998       L1    19  0.22

> <Gold.Chemscore.Hbond.Weighted>
-3.2378

> <Gold.Chemscore.Metal.Weighted>
-0.0000

> <Gold.Chemscore.Lipo.Weighted>
-12.3240

> <Gold.Chemscore.Internal_Hbond.Weighted>
0.0000

> <Gold.Chemscore.DEClash.Weighted>
0.2110

> <Gold.Chemscore.DEInternal.Weighted>
1.7214

> <Gold.Chemscore.Rot.Weighted>
3.8057

> <Gold.Chemscore.Internal.Correction.Weighted>
   9.000000E+99

> <Gold.Protein.RotatedTorsions>
[ 6907 6896 6895 6894 ] final  -28.62 input  -60.11 | X-H torsion
[ 7974 7965 7964 7962 ] final -153.40 input  175.53 | X-H torsion
[ 8008 7997 7996 7995 ] final  137.52 input   59.86 | X-H torsion
[ 10167 10162 10161 10158 ] final -127.87 input  -65.29 | X-H torsion
[ 10718 10713 10712 10709 ] final -151.12 input   66.30 | X-H torsion
[ 10763 10752 10751 10750 ] final  169.38 input  -60.55 | X-H torsion
[ 11005 11000 10999 10996 ] final  -90.53 input  -57.11 | X-H torsion

> <Gold.Protein.ActiveResidues>
 VAL166  LYS551  ARG553  GLY616  TRP617  ASP618  TYR619  PRO620  LYS621  CYS622 
 ASP623  PHE694  ASN695  SER759  ASP760  ASP761  ALA762  ILE779  LEU786  VAL792 
 PHE793  MET794  SER795  GLU796  ALA797  LYS798  CYS799  TRP800  GLU811  SER814 

> <Gold.Protein.RotatedAtoms>
  151.1304  135.0127  159.8579 H   0  0  0  0  0  0  0  0  0  0  0  0  # atno 6907 bound_to 6896
  152.5451  134.1616  159.8570 H   0  0  0  0  0  0  0  0  0  0  0  0  # atno 6908 bound_to 6896
  151.1683  133.4756  159.2627 H   0  0  0  0  0  0  0  0  0  0  0  0  # atno 6909 bound_to 6896
  144.7743  140.4531  143.5885 H   0  0  0  0  0  0  0  0  0  0  0  0  # atno 7974 bound_to 7965
  156.3002  140.2417  156.3922 H   0  0  0  0  0  0  0  0  0  0  0  0  # atno 8008 bound_to 7997
  154.8603  140.0420  157.1681 H   0  0  0  0  0  0  0  0  0  0  0  0  # atno 8009 bound_to 7997
  154.8903  140.2962  155.5378 H   0  0  0  0  0  0  0  0  0  0  0  0  # atno 8010 bound_to 7997
  139.9563  143.6000  152.2459 H   0  0  0  0  0  0  0  0  0  0  0  0  # atno 10167 bound_to 10162
  156.4550  130.8186  151.2417 H   0  0  0  0  0  0  0  0  0  0  0  0  # atno 10718 bound_to 10713
  154.3824  135.2753  155.2203 H   0  0  0  0  0  0  0  0  0  0  0  0  # atno 10763 bound_to 10752
  154.4305  135.5978  153.6069 H   0  0  0  0  0  0  0  0  0  0  0  0  # atno 10764 bound_to 10752
  152.9834  135.5994  154.4068 H   0  0  0  0  0  0  0  0  0  0  0  0  # atno 10765 bound_to 10752
  141.1564  133.7698  156.9751 H   0  0  0  0  0  0  0  0  0  0  0  0  # atno 11005 bound_to 11000
  145.6233  139.1527  143.3010 LP  0  0  0  0  0  0  0  0  0  0  0  0  # atno 17320 bound_to 7965
  146.1911  140.6341  142.9145 LP  0  0  0  0  0  0  0  0  0  0  0  0  # atno 17321 bound_to 7965
  139.6589  144.7662  151.2002 LP  0  0  0  0  0  0  0  0  0  0  0  0  # atno 17342 bound_to 10162
  140.7567  143.6042  150.8669 LP  0  0  0  0  0  0  0  0  0  0  0  0  # atno 17343 bound_to 10162
  157.7501  131.0125  150.3389 LP  0  0  0  0  0  0  0  0  0  0  0  0  # atno 17370 bound_to 10713
  156.3776  130.3874  149.7127 LP  0  0  0  0  0  0  0  0  0  0  0  0  # atno 17371 bound_to 10713
  140.1103  134.9481  157.2056 LP  0  0  0  0  0  0  0  0  0  0  0  0  # atno 17394 bound_to 11000
  140.3202  134.2925  155.7248 LP  0  0  0  0  0  0  0  0  0  0  0  0  # atno 17395 bound_to 11000

$$$$
