AV-unprocessed.smi:1762|AV-procd|sdf|7109|dock8
  -GOLD-   22720 8333D 1   1.00000     0.00000
 Structure written by MMmdl.
 53 54  0  0  0  0  0  0  0  0  2 V2000
  149.5682  131.0463  153.6827 C   0  0  0  0  0  0  0  0  0  0  0  0
  149.0716  132.3655  154.3008 C   0  0  1  0  0  0  0  0  0  0  0  0
  148.2792  133.2434  153.3118 C   0  0  0  0  0  0  0  0  0  0  0  0
  146.9320  132.7335  153.0262 N   0  0  0  0  0  0  0  0  0  0  0  0
  146.1896  133.5737  152.0446 C   0  0  2  0  0  0  0  0  0  0  0  0
  145.6059  134.8641  152.6670 C   0  0  0  0  0  0  0  0  0  0  0  0
  144.6515  134.8067  153.4431 O   0  0  0  0  0  0  0  0  0  0  0  0
  146.2121  136.0170  152.3416 N   0  0  0  0  0  0  0  0  0  0  0  0
  145.8353  137.3298  152.8503 C   0  0  0  0  0  0  0  0  0  0  0  0
  146.5140  138.4582  152.0551 C   0  0  0  0  0  0  0  0  0  0  0  0
  147.4273  139.3023  152.9220 C   0  0  0  0  0  0  0  0  0  0  0  0
  147.1336  140.6477  153.2327 C   0  0  0  0  0  0  0  0  0  0  0  0
  148.0291  141.3796  154.0405 C   0  0  0  0  0  0  0  0  0  0  0  0
  149.1983  140.7522  154.5181 C   0  0  0  0  0  0  0  0  0  0  0  0
  149.4431  139.4067  154.1754 C   0  0  0  0  0  0  0  0  0  0  0  0
  148.5608  138.7391  153.3996 N   0  3  0  0  0  0  0  0  0  0  0  0
  145.0992  132.8156  151.2145 C   0  0  0  0  0  0  0  0  0  0  0  0
  145.6021  131.4926  150.6019 C   0  0  0  0  0  0  0  0  0  0  0  0
  144.4203  133.6821  150.1355 C   0  0  0  0  0  0  0  0  0  0  0  0
  146.2314  132.5280  154.3052 C   0  0  0  0  0  0  0  0  0  0  0  0
  147.0089  131.6153  155.2709 C   0  0  2  0  0  0  0  0  0  0  0  0
  146.3180  131.4914  156.6337 C   0  0  0  0  0  0  0  0  0  0  0  0
  148.3120  132.1455  155.4868 O   0  0  0  0  0  0  0  0  0  0  0  0
  150.2510  131.2396  152.8551 H   0  0  0  0  0  0  0  0  0  0  0  0
  148.7502  130.4414  153.2918 H   0  0  0  0  0  0  0  0  0  0  0  0
  150.1044  130.4488  154.4202 H   0  0  0  0  0  0  0  0  0  0  0  0
  149.9570  132.9233  154.6074 H   0  0  0  0  0  0  0  0  0  0  0  0
  148.2075  134.2543  153.7165 H   0  0  0  0  0  0  0  0  0  0  0  0
  148.8740  133.3171  152.4037 H   0  0  0  0  0  0  0  0  0  0  0  0
  146.9254  133.9137  151.3124 H   0  0  0  0  0  0  0  0  0  0  0  0
  146.9919  135.9780  151.7011 H   0  0  0  0  0  0  0  0  0  0  0  0
  144.7511  137.4212  152.7800 H   0  0  0  0  0  0  0  0  0  0  0  0
  146.0857  137.4035  153.9101 H   0  0  0  0  0  0  0  0  0  0  0  0
  147.0965  138.0439  151.2309 H   0  0  0  0  0  0  0  0  0  0  0  0
  145.7593  139.1029  151.6021 H   0  0  0  0  0  0  0  0  0  0  0  0
  146.2345  141.1149  152.8571 H   0  0  0  0  0  0  0  0  0  0  0  0
  147.8215  142.4098  154.2904 H   0  0  0  0  0  0  0  0  0  0  0  0
  149.8966  141.2951  155.1384 H   0  0  0  0  0  0  0  0  0  0  0  0
  150.3108  138.8488  154.4962 H   0  0  0  0  0  0  0  0  0  0  0  0
  144.3178  132.5014  151.9043 H   0  0  0  0  0  0  0  0  0  0  0  0
  146.3170  131.6582  149.7955 H   0  0  0  0  0  0  0  0  0  0  0  0
  144.7739  130.9193  150.1843 H   0  0  0  0  0  0  0  0  0  0  0  0
  146.0835  130.8677  151.3546 H   0  0  0  0  0  0  0  0  0  0  0  0
  145.1119  133.9597  149.3406 H   0  0  0  0  0  0  0  0  0  0  0  0
  144.0103  134.6000  150.5568 H   0  0  0  0  0  0  0  0  0  0  0  0
  143.5935  133.1440  149.6713 H   0  0  0  0  0  0  0  0  0  0  0  0
  146.0449  133.4926  154.7806 H   0  0  0  0  0  0  0  0  0  0  0  0
  145.2584  132.0611  154.1571 H   0  0  0  0  0  0  0  0  0  0  0  0
  147.0896  130.6168  154.8403 H   0  0  0  0  0  0  0  0  0  0  0  0
  145.3153  131.0760  156.5302 H   0  0  0  0  0  0  0  0  0  0  0  0
  146.2303  132.4622  157.1222 H   0  0  0  0  0  0  0  0  0  0  0  0
  146.8818  130.8349  157.2967 H   0  0  0  0  0  0  0  0  0  0  0  0
  148.7580  137.7662  153.1641 H   0  0  0  0  0  0  0  0  0  0  0  0
  1  2  1  0  0  0  0
  1 24  1  0  0  0  0
  1 25  1  0  0  0  0
  1 26  1  0  0  0  0
  2 23  1  0  0  0  0
  2  3  1  0  0  0  0
  2 27  1  0  0  0  0
  3  4  1  0  0  0  0
  3 28  1  0  0  0  0
  3 29  1  0  0  0  0
  4  5  1  0  0  0  0
  4 20  1  0  0  0  0
  5  6  1  0  0  0  0
  5 17  1  0  0  0  0
  5 30  1  0  0  0  0
  6  7  2  0  0  0  0
  6  8  1  0  0  0  0
  8  9  1  0  0  0  0
  8 31  1  0  0  0  0
  9 10  1  0  0  0  0
  9 32  1  0  0  0  0
  9 33  1  0  0  0  0
 10 11  1  0  0  0  0
 10 34  1  0  0  0  0
 10 35  1  0  0  0  0
 11 16  1  0  0  0  0
 11 12  2  0  0  0  0
 12 13  1  0  0  0  0
 12 36  1  0  0  0  0
 13 14  2  0  0  0  0
 13 37  1  0  0  0  0
 14 15  1  0  0  0  0
 14 38  1  0  0  0  0
 15 16  2  0  0  0  0
 15 39  1  0  0  0  0
 16 53  1  0  0  0  0
 17 18  1  0  0  0  0
 17 19  1  0  0  0  0
 17 40  1  0  0  0  0
 18 41  1  0  0  0  0
 18 42  1  0  0  0  0
 18 43  1  0  0  0  0
 19 44  1  0  0  0  0
 19 45  1  0  0  0  0
 19 46  1  0  0  0  0
 20 21  1  0  0  0  0
 20 47  1  0  0  0  0
 20 48  1  0  0  0  0
 21 22  1  0  0  0  0
 21 23  1  0  0  0  0
 21 49  1  0  0  0  0
 22 50  1  0  0  0  0
 22 51  1  0  0  0  0
 22 52  1  0  0  0  0
M  CHG  1  16   1
M  END
> <s_m_source_file>
AV-unprocessed.smi

> <i_m_source_file_index>
1762

> <i_lp_mmshare_version>
43012

> <i_f3d_flags>
0

> <s_epik_input>
W0NIM11bQ0BASF0xW0NIMl1OKFtDSDJdW0NASF0oTzEpW0NIM10pW0NAQEhdKFtDSF0oW0NIM10pW0NIM10pQyg9TylbTkhdW0NIMl1bQ0gyXWMyW2NIXVtjSF1bY0hdW2NIXW4y

> <s_epik_cmdline>
J2VwaWtfcHl0aG9uJywgJy1waCcsICc3LjAnLCAnLXRuJywgJzgnLCAnLW1hJywgJzIwMCcsICctbWV0YWxfYmluZGluZycsICctaW1hZScsICc8aW5maWxlLm1hZT4nLCAnLW9tYWUnLCAnPG91dGZpbGUubWFlPic=

> <r_epik_Ionization_Penalty>
1.86475

> <r_epik_Ionization_Penalty_Charging>
1.85347

> <r_epik_Ionization_Penalty_Neutral>
0.0112771

> <r_epik_State_Penalty>
1.99714

> <r_epik_Charging_Adjusted_Penalty>
3.85061

> <i_epik_Tot_Q>
1

> <i_epik_Tot_abs_Q>
1

> <r_epik_Metal_State_Penalty>
2.02271

> <b_epik_Metal_Only>
0

> <s_lp_Force_Field>
OPLS_2005

> <r_lp_Energy>
35.2583

> <b_lp_Chiralities_Consistent>
1

> <s_lp_Variant>
AV-unprocessed.smi:1762-11

> <Gold.Version>
5.8.1

> <Gold.Id.Protein>
6NUR|6NUR_protein|mol2

> <Gold.PLP.Fitness>
46.5947

> <Gold.PLP.PLP>
-40.2001

> <Gold.PLP.part.hbond>
-3.0000

> <Gold.PLP.part.metal>
0.0000

> <Gold.PLP.part.buried>
-2.2352

> <Gold.PLP.part.nonpolar>
-34.8783

> <Gold.PLP.part.repulsive>
0.2527

> <Gold.PLP.ligand.clash>
0.0000

> <Gold.PLP.ligand.torsion>
1.0809

> <Gold.PLP.Chemscore.Hbond>
2.7520

> <Gold.PLP.Chemscore.CHOScore>
0.0000

> <Gold.PLP.Chemscore.Metal>
0.0000

> <Gold.Chemscore.Hbonds>
donor molecule, donor type, donor heavy atom, donor atom, acceptor molecule, acceptor atom, score
      L1  H     8    31       P1  7948  0.74
      L1  H    16    53       P1  7948  2.00

> <Gold.PLP.Chemscore.Internal.Correction>
0.3005

> <Gold.Rescore>
     Score         DG    S(hbond)    S(metal)    S(lipo)     H(rot)  DE(clash)    DE(int)     intcor
     16.13     -19.00       1.77        0.00     102.57       1.72       0.20       2.66       ----

> <Gold.Chemscore.Fitness>
16.1334

> <Gold.Chemscore.DG>
-18.9978

> <Gold.Chemscore.ZeroCoef>
-5.4800

> <Gold.Chemscore.Hbond>
1.7707

> <Gold.Chemscore.Metal>
0.0000

> <Gold.Chemscore.Lipo>
102.5658

> <Gold.Chemscore.Internal_Hbond>
0.0000

> <Gold.Chemscore.DEClash>
0.2025

> <Gold.Chemscore.DEInternal>
2.6619

> <Gold.Chemscore.Rot>
1.7174

> <Gold.Chemscore.Internal.Correction>
   9.000000E+99

> <Gold.Chemscore.Hbonds>
donor molecule, donor type, donor heavy atom, donor atom, acceptor molecule, acceptor atom, score
      L1  H     8    31       P1  7948  0.73
      L1  H    16    53       P1  7948  0.92

> <Gold.Chemscore.Hbond.Weighted>
-5.9142

> <Gold.Chemscore.Metal.Weighted>
-0.0000

> <Gold.Chemscore.Lipo.Weighted>
-12.0002

> <Gold.Chemscore.Internal_Hbond.Weighted>
0.0000

> <Gold.Chemscore.DEClash.Weighted>
0.2025

> <Gold.Chemscore.DEInternal.Weighted>
2.6619

> <Gold.Chemscore.Rot.Weighted>
4.3966

> <Gold.Chemscore.Internal.Correction.Weighted>
   9.000000E+99

> <Gold.Protein.RotatedTorsions>
[ 6907 6896 6895 6894 ] final  172.66 input  -60.11 | X-H torsion
[ 7974 7965 7964 7962 ] final  102.03 input  175.53 | X-H torsion
[ 8008 7997 7996 7995 ] final   14.28 input   59.86 | X-H torsion
[ 10167 10162 10161 10158 ] final   -7.43 input  -65.29 | X-H torsion
[ 10718 10713 10712 10709 ] final  135.13 input   66.30 | X-H torsion
[ 10763 10752 10751 10750 ] final  168.80 input  -60.55 | X-H torsion
[ 11005 11000 10999 10996 ] final   89.49 input  -57.11 | X-H torsion

> <Gold.Protein.ActiveResidues>
 VAL166  LYS551  ARG553  GLY616  TRP617  ASP618  TYR619  PRO620  LYS621  CYS622 
 ASP623  PHE694  ASN695  SER759  ASP760  ASP761  ALA762  ILE779  LEU786  VAL792 
 PHE793  MET794  SER795  GLU796  ALA797  LYS798  CYS799  TRP800  GLU811  SER814 

> <Gold.Protein.RotatedAtoms>
  151.7807  133.3349  159.3470 H   0  0  0  0  0  0  0  0  0  0  0  0  # atno 6907 bound_to 6896
  150.7427  134.5933  159.6008 H   0  0  0  0  0  0  0  0  0  0  0  0  # atno 6908 bound_to 6896
  152.3278  134.7300  160.0349 H   0  0  0  0  0  0  0  0  0  0  0  0  # atno 6909 bound_to 6896
  145.3645  139.2411  143.3489 H   0  0  0  0  0  0  0  0  0  0  0  0  # atno 7974 bound_to 7965
  154.8463  140.2922  155.5627 H   0  0  0  0  0  0  0  0  0  0  0  0  # atno 8008 bound_to 7997
  156.3014  140.2504  156.3346 H   0  0  0  0  0  0  0  0  0  0  0  0  # atno 8009 bound_to 7997
  154.9070  140.0389  157.1914 H   0  0  0  0  0  0  0  0  0  0  0  0  # atno 8010 bound_to 7997
  140.7028  143.6081  150.8731 H   0  0  0  0  0  0  0  0  0  0  0  0  # atno 10167 bound_to 10162
  157.4602  131.1073  150.9929 H   0  0  0  0  0  0  0  0  0  0  0  0  # atno 10718 bound_to 10713
  154.3739  135.2753  155.2250 H   0  0  0  0  0  0  0  0  0  0  0  0  # atno 10763 bound_to 10752
  154.4386  135.5960  153.6118 H   0  0  0  0  0  0  0  0  0  0  0  0  # atno 10764 bound_to 10752
  152.9837  135.6013  154.3974 H   0  0  0  0  0  0  0  0  0  0  0  0  # atno 10765 bound_to 10752
  139.8874  134.8555  156.3150 H   0  0  0  0  0  0  0  0  0  0  0  0  # atno 11005 bound_to 11000
  146.2913  140.4285  142.8738 LP  0  0  0  0  0  0  0  0  0  0  0  0  # atno 17320 bound_to 7965
  144.8622  140.7155  143.6100 LP  0  0  0  0  0  0  0  0  0  0  0  0  # atno 17321 bound_to 7965
  139.9805  143.5957  152.2944 LP  0  0  0  0  0  0  0  0  0  0  0  0  # atno 17342 bound_to 10162
  139.6576  144.7662  151.2026 LP  0  0  0  0  0  0  0  0  0  0  0  0  # atno 17343 bound_to 10162
  157.0729  130.5871  149.5406 LP  0  0  0  0  0  0  0  0  0  0  0  0  # atno 17370 bound_to 10713
  156.0025  130.5107  150.7714 LP  0  0  0  0  0  0  0  0  0  0  0  0  # atno 17371 bound_to 10713
  140.9825  133.7258  156.0693 LP  0  0  0  0  0  0  0  0  0  0  0  0  # atno 17394 bound_to 11000
  140.7731  134.3810  157.5503 LP  0  0  0  0  0  0  0  0  0  0  0  0  # atno 17395 bound_to 11000

$$$$
