AV-unprocessed.smi:3246|AV-procd|sdf|12411|dock2
  -GOLD-   2272018293D 1   1.00000     0.00000
 Structure written by MMmdl.
 36 37  0  0  0  0  0  0  0  0  2 V2000
  149.0143  132.6255  155.2155 O   0  0  0  0  0  0  0  0  0  0  0  0
  149.2426  133.6298  154.5419 C   0  0  0  0  0  0  0  0  0  0  0  0
  150.2795  134.6457  155.0493 C   0  0  0  0  0  0  0  0  0  0  0  0
  149.8539  136.0468  154.9957 N   0  0  0  0  0  0  0  0  0  0  0  0
  148.4671  136.4087  155.2391 C   0  0  0  0  0  0  0  0  0  0  0  0
  148.4631  137.9421  155.3170 C   0  0  0  0  0  0  0  0  0  0  0  0
  149.8171  138.3916  154.7573 C   0  0  0  0  0  0  0  0  0  0  0  0
  150.6242  137.1055  154.7149 C   0  0  0  0  0  0  0  0  0  0  0  0
  151.8274  137.0794  154.4613 O   0  0  0  0  0  0  0  0  0  0  0  0
  148.6245  133.8728  153.3732 N   0  0  0  0  0  0  0  0  0  0  0  0
  147.6206  133.0119  152.7608 C   0  0  0  0  0  0  0  0  0  0  0  0
  146.2573  133.7158  152.6660 C   0  0  0  0  0  0  0  0  0  0  0  0
  145.5141  133.3513  151.3961 C   0  0  0  0  0  0  0  0  0  0  0  0
  146.0783  132.4539  150.4626 C   0  0  0  0  0  0  0  0  0  0  0  0
  145.3629  132.1374  149.2887 C   0  0  0  0  0  0  0  0  0  0  0  0
  144.0993  132.7258  149.0750 C   0  0  0  0  0  0  0  0  0  0  0  0
  143.5923  133.5812  149.9900 N   0  3  0  0  0  0  0  0  0  0  0  0
  144.2458  133.9099  151.1261 C   0  0  0  0  0  0  0  0  0  0  0  0
  150.5475  134.3865  156.0749 H   0  0  0  0  0  0  0  0  0  0  0  0
  151.1901  134.5280  154.4605 H   0  0  0  0  0  0  0  0  0  0  0  0
  147.8522  136.0577  154.4092 H   0  0  0  0  0  0  0  0  0  0  0  0
  148.0930  135.9559  156.1583 H   0  0  0  0  0  0  0  0  0  0  0  0
  147.6288  138.3715  154.7614 H   0  0  0  0  0  0  0  0  0  0  0  0
  148.3663  138.2643  156.3547 H   0  0  0  0  0  0  0  0  0  0  0  0
  149.7182  138.7915  153.7477 H   0  0  0  0  0  0  0  0  0  0  0  0
  150.2952  139.1423  155.3873 H   0  0  0  0  0  0  0  0  0  0  0  0
  148.8629  134.7210  152.8795 H   0  0  0  0  0  0  0  0  0  0  0  0
  147.9573  132.6919  151.7729 H   0  0  0  0  0  0  0  0  0  0  0  0
  147.5333  132.1092  153.3659 H   0  0  0  0  0  0  0  0  0  0  0  0
  145.6418  133.4567  153.5287 H   0  0  0  0  0  0  0  0  0  0  0  0
  146.3866  134.7987  152.6961 H   0  0  0  0  0  0  0  0  0  0  0  0
  147.0483  132.0130  150.6416 H   0  0  0  0  0  0  0  0  0  0  0  0
  145.7777  131.4529  148.5632 H   0  0  0  0  0  0  0  0  0  0  0  0
  143.4842  132.5402  148.2064 H   0  0  0  0  0  0  0  0  0  0  0  0
  143.7385  134.6056  151.7792 H   0  0  0  0  0  0  0  0  0  0  0  0
  142.6765  133.9967  149.8158 H   0  0  0  0  0  0  0  0  0  0  0  0
  1  2  2  0  0  0  0
  2  3  1  0  0  0  0
  2 10  1  0  0  0  0
  3  4  1  0  0  0  0
  3 19  1  0  0  0  0
  3 20  1  0  0  0  0
  4  8  1  0  0  0  0
  4  5  1  0  0  0  0
  5  6  1  0  0  0  0
  5 21  1  0  0  0  0
  5 22  1  0  0  0  0
  6  7  1  0  0  0  0
  6 23  1  0  0  0  0
  6 24  1  0  0  0  0
  7  8  1  0  0  0  0
  7 25  1  0  0  0  0
  7 26  1  0  0  0  0
  8  9  2  0  0  0  0
 10 11  1  0  0  0  0
 10 27  1  0  0  0  0
 11 12  1  0  0  0  0
 11 28  1  0  0  0  0
 11 29  1  0  0  0  0
 12 13  1  0  0  0  0
 12 30  1  0  0  0  0
 12 31  1  0  0  0  0
 13 18  1  0  0  0  0
 13 14  2  0  0  0  0
 14 15  1  0  0  0  0
 14 32  1  0  0  0  0
 15 16  2  0  0  0  0
 15 33  1  0  0  0  0
 16 17  1  0  0  0  0
 16 34  1  0  0  0  0
 17 18  2  0  0  0  0
 17 36  1  0  0  0  0
 18 35  1  0  0  0  0
M  CHG  1  17   1
M  END
> <s_m_source_file>
AV-unprocessed.smi

> <i_m_source_file_index>
3246

> <i_lp_mmshare_version>
43012

> <i_f3d_flags>
0

> <s_epik_input>
Tz1DMVtDSDJdW0NIMl1bQ0gyXU4xW0NIMl1DKD1PKVtOSF1bQ0gyXVtDSDJdYzJbY0hdW2NIXVtjSF1uW2NIXTI=

> <s_epik_cmdline>
J2VwaWtfcHl0aG9uJywgJy1waCcsICc3LjAnLCAnLXRuJywgJzgnLCAnLW1hJywgJzIwMCcsICctbWV0YWxfYmluZGluZycsICctaW1hZScsICc8aW5maWxlLm1hZT4nLCAnLW9tYWUnLCAnPG91dGZpbGUubWFlPic=

> <r_epik_Ionization_Penalty>
2.27275

> <r_epik_Ionization_Penalty_Charging>
2.27275

> <r_epik_Ionization_Penalty_Neutral>
5.87859e-08

> <r_epik_State_Penalty>
2.42145

> <r_epik_Charging_Adjusted_Penalty>
4.69419

> <i_epik_Tot_Q>
1

> <i_epik_Tot_abs_Q>
1

> <r_epik_Metal_State_Penalty>
2.43419

> <b_epik_Metal_Only>
0

> <s_lp_Force_Field>
OPLS_2005

> <r_lp_Energy>
18.8936

> <b_lp_Chiralities_Consistent>
1

> <s_lp_Variant>
AV-unprocessed.smi:3246-2

> <Gold.Version>
5.8.1

> <Gold.Id.Protein>
6NUR|6NUR_protein|mol2

> <Gold.PLP.Fitness>
43.4051

> <Gold.PLP.PLP>
-33.7942

> <Gold.PLP.part.hbond>
-3.0000

> <Gold.PLP.part.metal>
0.0000

> <Gold.PLP.part.buried>
-4.8180

> <Gold.PLP.part.nonpolar>
-26.2861

> <Gold.PLP.part.repulsive>
0.2005

> <Gold.PLP.ligand.clash>
0.0000

> <Gold.PLP.ligand.torsion>
0.7525

> <Gold.PLP.Chemscore.Hbond>
3.7000

> <Gold.PLP.Chemscore.CHOScore>
0.0000

> <Gold.PLP.Chemscore.Metal>
0.0000

> <Gold.Chemscore.Hbonds>
donor molecule, donor type, donor heavy atom, donor atom, acceptor molecule, acceptor atom, score
      L1  H    10    27       P1  7948  0.70
      L1  H    17    36       P1 10186  2.00
      P1  H 10752 10765       L1     9  1.00

> <Gold.PLP.Chemscore.Internal.Correction>
0.0158

> <Gold.Rescore>
     Score         DG    S(hbond)    S(metal)    S(lipo)     H(rot)  DE(clash)    DE(int)     intcor
     15.14     -15.88       2.08        0.00      72.28       1.96       0.01       0.74       ----

> <Gold.Chemscore.Fitness>
15.1361

> <Gold.Chemscore.DG>
-15.8836

> <Gold.Chemscore.ZeroCoef>
-5.4800

> <Gold.Chemscore.Hbond>
2.0835

> <Gold.Chemscore.Metal>
0.0000

> <Gold.Chemscore.Lipo>
72.2799

> <Gold.Chemscore.Internal_Hbond>
0.0000

> <Gold.Chemscore.DEClash>
0.0082

> <Gold.Chemscore.DEInternal>
0.7393

> <Gold.Chemscore.Rot>
1.9579

> <Gold.Chemscore.Internal.Correction>
   9.000000E+99

> <Gold.Chemscore.Hbonds>
donor molecule, donor type, donor heavy atom, donor atom, acceptor molecule, acceptor atom, score
      L1  H    10    27       P1  7948  0.07
      L1  H    17    36       P1 10186  1.00
      P1  H 10752 10765       L1     9  0.96

> <Gold.Chemscore.Hbond.Weighted>
-6.9589

> <Gold.Chemscore.Metal.Weighted>
-0.0000

> <Gold.Chemscore.Lipo.Weighted>
-8.4568

> <Gold.Chemscore.Internal_Hbond.Weighted>
0.0000

> <Gold.Chemscore.DEClash.Weighted>
0.0082

> <Gold.Chemscore.DEInternal.Weighted>
0.7393

> <Gold.Chemscore.Rot.Weighted>
5.0121

> <Gold.Chemscore.Internal.Correction.Weighted>
   9.000000E+99

> <Gold.Protein.RotatedTorsions>
[ 6907 6896 6895 6894 ] final  -88.26 input  -60.11 | X-H torsion
[ 7974 7965 7964 7962 ] final  -65.78 input  175.53 | X-H torsion
[ 8008 7997 7996 7995 ] final  177.36 input   59.86 | X-H torsion
[ 10167 10162 10161 10158 ] final   19.67 input  -65.29 | X-H torsion
[ 10718 10713 10712 10709 ] final   58.25 input   66.30 | X-H torsion
[ 10763 10752 10751 10750 ] final  173.49 input  -60.55 | X-H torsion
[ 11005 11000 10999 10996 ] final -173.78 input  -57.11 | X-H torsion

> <Gold.Protein.ActiveResidues>
 VAL166  LYS551  ARG553  GLY616  TRP617  ASP618  TYR619  PRO620  LYS621  CYS622 
 ASP623  PHE694  ASN695  SER759  ASP760  ASP761  ALA762  ILE779  LEU786  VAL792 
 PHE793  MET794  SER795  GLU796  ALA797  LYS798  CYS799  TRP800  GLU811  SER814 

> <Gold.Protein.RotatedAtoms>
  150.6868  134.2769  159.4610 H   0  0  0  0  0  0  0  0  0  0  0  0  # atno 6907 bound_to 6896
  152.0686  134.9545  160.0584 H   0  0  0  0  0  0  0  0  0  0  0  0  # atno 6908 bound_to 6896
  152.0944  133.4182  159.4595 H   0  0  0  0  0  0  0  0  0  0  0  0  # atno 6909 bound_to 6896
  145.7500  140.8913  143.0485 H   0  0  0  0  0  0  0  0  0  0  0  0  # atno 7974 bound_to 7965
  156.0665  140.1360  156.9880 H   0  0  0  0  0  0  0  0  0  0  0  0  # atno 8008 bound_to 7997
  154.4509  140.0981  156.6665 H   0  0  0  0  0  0  0  0  0  0  0  0  # atno 8009 bound_to 7997
  155.5296  140.3458  155.4426 H   0  0  0  0  0  0  0  0  0  0  0  0  # atno 8010 bound_to 7997
  140.5562  143.9421  150.6611 H   0  0  0  0  0  0  0  0  0  0  0  0  # atno 10167 bound_to 10162
  157.5581  130.8815  149.9067 H   0  0  0  0  0  0  0  0  0  0  0  0  # atno 10718 bound_to 10713
  154.4408  135.2762  155.1849 H   0  0  0  0  0  0  0  0  0  0  0  0  # atno 10763 bound_to 10752
  154.3716  135.6107  153.5747 H   0  0  0  0  0  0  0  0  0  0  0  0  # atno 10764 bound_to 10752
  152.9841  135.5859  154.4735 H   0  0  0  0  0  0  0  0  0  0  0  0  # atno 10765 bound_to 10752
  140.4819  134.6067  157.4923 H   0  0  0  0  0  0  0  0  0  0  0  0  # atno 11005 bound_to 11000
  144.6852  139.9578  143.7479 LP  0  0  0  0  0  0  0  0  0  0  0  0  # atno 17320 bound_to 7965
  146.0366  139.3383  143.0723 LP  0  0  0  0  0  0  0  0  0  0  0  0  # atno 17321 bound_to 7965
  140.2859  143.3357  152.1107 LP  0  0  0  0  0  0  0  0  0  0  0  0  # atno 17342 bound_to 10162
  139.5049  144.6784  151.6070 LP  0  0  0  0  0  0  0  0  0  0  0  0  # atno 17343 bound_to 10162
  156.0637  130.3695  150.0926 LP  0  0  0  0  0  0  0  0  0  0  0  0  # atno 17370 bound_to 10713
  156.9092  130.9646  151.3565 LP  0  0  0  0  0  0  0  0  0  0  0  0  # atno 17371 bound_to 10713
  139.9821  134.7120  155.9840 LP  0  0  0  0  0  0  0  0  0  0  0  0  # atno 17394 bound_to 11000
  141.1527  133.6546  156.4063 LP  0  0  0  0  0  0  0  0  0  0  0  0  # atno 17395 bound_to 11000

$$$$
