AV-unprocessed.smi:72|AV-procd|sdf|719|dock2
  -GOLD-   2262017 43D 1   1.00000     0.00000
 Structure written by MMmdl.
 28 29  0  0  0  0  0  0  0  0  2 V2000
  154.0682  138.1339  154.4229 N   0  0  0  0  0  0  0  0  0  0  0  0
  152.8674  138.4880  154.5704 C   0  0  0  0  0  0  0  0  0  0  0  0
  151.8082  137.7589  153.9066 N   0  0  0  0  0  0  0  0  0  0  0  0
  150.5874  138.1508  154.1070 C   0  0  0  0  0  0  0  0  0  0  0  0
  150.2757  139.2763  154.9773 N   0  0  0  0  0  0  0  0  0  0  0  0
  148.8440  139.7228  155.1970 C   0  0  2  0  0  0  0  0  0  0  0  0
  147.9904  138.6448  154.9697 O   0  0  0  0  0  0  0  0  0  0  0  0
  146.7501  139.1428  154.4930 C   0  0  2  0  0  0  0  0  0  0  0  0
  145.9760  138.0241  153.7788 C   0  0  0  0  0  0  0  0  0  0  0  0
  144.5965  138.3227  153.7561 O   0  0  0  0  0  0  0  0  0  0  0  0
  147.1843  140.2778  153.5596 C   0  0  1  0  0  0  0  0  0  0  0  0
  146.1575  141.2425  153.4437 O   0  0  0  0  0  0  0  0  0  0  0  0
  148.4030  140.8712  154.2607 C   0  0  2  0  0  0  0  0  0  0  0  0
  149.3763  141.2651  153.3101 O   0  0  0  0  0  0  0  0  0  0  0  0
  151.3365  139.9951  155.5885 C   0  0  0  0  0  0  0  0  0  0  0  0
  151.0535  140.9746  156.2785 O   0  0  0  0  0  0  0  0  0  0  0  0
  152.6161  139.5794  155.3728 N   0  5  0  0  0  0  0  0  0  0  0  0
  148.7573  139.9851  156.2527 H   0  0  0  0  0  0  0  0  0  0  0  0
  146.1809  139.5478  155.3330 H   0  0  0  0  0  0  0  0  0  0  0  0
  147.4525  139.8787  152.5796 H   0  0  0  0  0  0  0  0  0  0  0  0
  148.1376  141.7245  154.8869 H   0  0  0  0  0  0  0  0  0  0  0  0
  154.1593  137.3282  153.8210 H   0  0  0  0  0  0  0  0  0  0  0  0
  149.7270  137.6727  153.6372 H   0  0  0  0  0  0  0  0  0  0  0  0
  146.3078  137.9415  152.7435 H   0  0  0  0  0  0  0  0  0  0  0  0
  146.1495  137.0571  154.2522 H   0  0  0  0  0  0  0  0  0  0  0  0
  144.4263  138.9011  153.0285 H   0  0  0  0  0  0  0  0  0  0  0  0
  145.4308  140.8475  152.9860 H   0  0  0  0  0  0  0  0  0  0  0  0
  149.3877  140.6255  152.6136 H   0  0  0  0  0  0  0  0  0  0  0  0
  1  2  2  0  0  0  0
  1 22  1  0  0  0  0
  2 17  1  0  0  0  0
  2  3  1  0  0  0  0
  3  4  2  0  0  0  0
  4  5  1  0  0  0  0
  4 23  1  0  0  0  0
  5  6  1  0  0  0  0
  5 15  1  0  0  0  0
  6 18  1  0  0  0  0
  6 13  1  0  0  0  0
  6  7  1  0  0  0  0
  7  8  1  0  0  0  0
  8 19  1  0  0  0  0
  8  9  1  0  0  0  0
  8 11  1  0  0  0  0
  9 10  1  0  0  0  0
  9 24  1  0  0  0  0
  9 25  1  0  0  0  0
 10 26  1  0  0  0  0
 11 20  1  0  0  0  0
 11 12  1  0  0  0  0
 11 13  1  0  0  0  0
 12 27  1  0  0  0  0
 13 21  1  0  0  0  0
 13 14  1  0  0  0  0
 14 28  1  0  0  0  0
 15 16  2  0  0  0  0
 15 17  1  0  0  0  0
M  CHG  1  17  -1
M  END
> <s_m_source_file>
AV-unprocessed.smi

> <i_m_source_file_index>
72

> <i_lp_mmshare_version>
43012

> <i_f3d_flags>
0

> <s_epik_input>
W05IMl1jMW5bY0hdbihjKD1PKW4xKVtDQEBIXTJPW0NASF0oW0NIMl1bT0hdKVtDQEBIXShbT0hdKVtDQEhdMltPSF0=

> <s_epik_cmdline>
J2VwaWtfcHl0aG9uJywgJy1waCcsICc3LjAnLCAnLXRuJywgJzgnLCAnLW1hJywgJzIwMCcsICctbWV0YWxfYmluZGluZycsICctaW1hZScsICc8aW5maWxlLm1hZT4nLCAnLW9tYWUnLCAnPG91dGZpbGUubWFlPic=

> <r_lp_tautomer_probability>
7.17554e-07

> <r_epik_Ionization_Penalty>
12.8705

> <r_epik_Ionization_Penalty_Charging>
5.64144

> <r_epik_Ionization_Penalty_Neutral>
7.22905

> <r_epik_State_Penalty>
3.30104

> <r_epik_Charging_Adjusted_Penalty>
8.94249

> <i_epik_Tot_Q>
-1

> <i_epik_Tot_abs_Q>
1

> <r_epik_Metal_State_Penalty>
0.529074

> <b_epik_Metal_Only>
1

> <s_epik_Chemistry_Notes>
This compound contains an acetal/aminal-like group ( X-CH(R)-Y where X, Y are N, S, or O) that may be acid/base labile, releasing an aldehyde.

> <s_lp_Force_Field>
OPLS_2005

> <r_lp_Energy>
37.3643

> <b_lp_Chiralities_Consistent>
1

> <s_lp_Variant>
AV-unprocessed.smi:72-57

> <Gold.Version>
5.8.1

> <Gold.Id.Protein>
6NUR|6NUR_protein|mol2

> <Gold.PLP.Fitness>
47.3900

> <Gold.PLP.PLP>
-28.1237

> <Gold.PLP.part.hbond>
-7.5561

> <Gold.PLP.part.metal>
0.0000

> <Gold.PLP.part.buried>
-4.6693

> <Gold.PLP.part.nonpolar>
-16.8754

> <Gold.PLP.part.repulsive>
0.2818

> <Gold.PLP.ligand.clash>
0.0000

> <Gold.PLP.ligand.torsion>
0.9593

> <Gold.PLP.Chemscore.Hbond>
6.0031

> <Gold.PLP.Chemscore.CHOScore>
0.9529

> <Gold.PLP.Chemscore.Metal>
0.0000

> <Gold.Chemscore.Hbonds>
donor molecule, donor type, donor heavy atom, donor atom, acceptor molecule, acceptor atom, score
      L1  H    10    26       P1 10175  0.93
      L1  H    12    27       P1 10175  1.00
      L1  H    14    28       P1  7957  1.00
      P1  H  7989  7998       L1    14  0.02
      P1  H  7997  8009       L1    17  2.00
      P1  H  8011  8017       L1    14  0.60
      L1  C     4    23       P1  7948  1.00

> <Gold.PLP.Chemscore.Internal.Correction>
0.3172

> <Gold.Rescore>
     Score         DG    S(hbond)    S(metal)    S(lipo)     H(rot)  DE(clash)    DE(int)     intcor
      7.57      -8.32       3.42        0.00      14.97       4.04       0.04       0.70       ----

> <Gold.Chemscore.Fitness>
7.5746

> <Gold.Chemscore.DG>
-8.3209

> <Gold.Chemscore.ZeroCoef>
-5.4800

> <Gold.Chemscore.Hbond>
3.4230

> <Gold.Chemscore.Metal>
0.0000

> <Gold.Chemscore.Lipo>
14.9672

> <Gold.Chemscore.Internal_Hbond>
0.0000

> <Gold.Chemscore.DEClash>
0.0446

> <Gold.Chemscore.DEInternal>
0.7017

> <Gold.Chemscore.Rot>
4.0403

> <Gold.Chemscore.Internal.Correction>
   9.000000E+99

> <Gold.Chemscore.Hbonds>
donor molecule, donor type, donor heavy atom, donor atom, acceptor molecule, acceptor atom, score
      L1  H    10    26       P1 10175  0.91
      L1  H    12    27       P1 10175  0.45
      L1  H    14    28       P1  7957  0.96
      P1  H  7997  8009       L1    17  0.63
      P1  H  8011  8017       L1    14  0.04

> <Gold.Chemscore.Hbond.Weighted>
-11.4328

> <Gold.Chemscore.Metal.Weighted>
-0.0000

> <Gold.Chemscore.Lipo.Weighted>
-1.7512

> <Gold.Chemscore.Internal_Hbond.Weighted>
0.0000

> <Gold.Chemscore.DEClash.Weighted>
0.0446

> <Gold.Chemscore.DEInternal.Weighted>
0.7017

> <Gold.Chemscore.Rot.Weighted>
10.3431

> <Gold.Chemscore.Internal.Correction.Weighted>
   9.000000E+99

> <Gold.Protein.RotatedTorsions>
[ 6907 6896 6895 6894 ] final -153.35 input  -60.11 | X-H torsion
[ 7974 7965 7964 7962 ] final  146.23 input  175.53 | X-H torsion
[ 8008 7997 7996 7995 ] final -155.65 input   59.86 | X-H torsion
[ 10167 10162 10161 10158 ] final   48.24 input  -65.29 | X-H torsion
[ 10718 10713 10712 10709 ] final  156.34 input   66.30 | X-H torsion
[ 10763 10752 10751 10750 ] final -130.42 input  -60.55 | X-H torsion
[ 11005 11000 10999 10996 ] final  102.89 input  -57.11 | X-H torsion

> <Gold.Protein.ActiveResidues>
 VAL166  LYS551  ARG553  GLY616  TRP617  ASP618  TYR619  PRO620  LYS621  CYS622 
 ASP623  PHE694  ASN695  SER759  ASP760  ASP761  ALA762  ILE779  LEU786  VAL792 
 PHE793  MET794  SER795  GLU796  ALA797  LYS798  CYS799  TRP800  GLU811  SER814 

> <Gold.Protein.RotatedAtoms>
  151.2413  133.4398  159.2607 H   0  0  0  0  0  0  0  0  0  0  0  0  # atno 6907 bound_to 6896
  151.0703  134.9794  159.8315 H   0  0  0  0  0  0  0  0  0  0  0  0  # atno 6908 bound_to 6896
  152.5411  134.2358  159.8895 H   0  0  0  0  0  0  0  0  0  0  0  0  # atno 6909 bound_to 6896
  144.8688  139.5879  143.5896 H   0  0  0  0  0  0  0  0  0  0  0  0  # atno 7974 bound_to 7965
  155.7051  140.0771  157.2394 H   0  0  0  0  0  0  0  0  0  0  0  0  # atno 8008 bound_to 7997
  154.4067  140.1640  156.2288 H   0  0  0  0  0  0  0  0  0  0  0  0  # atno 8009 bound_to 7997
  155.9333  140.3390  155.6269 H   0  0  0  0  0  0  0  0  0  0  0  0  # atno 8010 bound_to 7997
  140.2953  144.2998  150.6231 H   0  0  0  0  0  0  0  0  0  0  0  0  # atno 10167 bound_to 10162
  157.2062  131.0687  151.1996 H   0  0  0  0  0  0  0  0  0  0  0  0  # atno 10718 bound_to 10713
  154.8755  135.3863  154.4080 H   0  0  0  0  0  0  0  0  0  0  0  0  # atno 10763 bound_to 10752
  153.4797  135.7030  153.5950 H   0  0  0  0  0  0  0  0  0  0  0  0  # atno 10764 bound_to 10752
  153.4371  135.3865  155.2173 H   0  0  0  0  0  0  0  0  0  0  0  0  # atno 10765 bound_to 10752
  139.8780  134.9242  156.5127 H   0  0  0  0  0  0  0  0  0  0  0  0  # atno 11005 bound_to 11000
  146.2915  139.7154  142.9157 LP  0  0  0  0  0  0  0  0  0  0  0  0  # atno 17320 bound_to 7965
  145.4170  141.0402  143.2985 LP  0  0  0  0  0  0  0  0  0  0  0  0  # atno 17321 bound_to 7965
  140.5697  143.2182  151.7620 LP  0  0  0  0  0  0  0  0  0  0  0  0  # atno 17342 bound_to 10162
  139.4928  144.4233  151.9953 LP  0  0  0  0  0  0  0  0  0  0  0  0  # atno 17343 bound_to 10162
  157.3718  130.7185  149.6570 LP  0  0  0  0  0  0  0  0  0  0  0  0  # atno 17370 bound_to 10713
  155.9695  130.4197  150.4386 LP  0  0  0  0  0  0  0  0  0  0  0  0  # atno 17371 bound_to 10713
  140.8508  133.8133  155.9167 LP  0  0  0  0  0  0  0  0  0  0  0  0  # atno 17394 bound_to 11000
  140.9146  134.2218  157.4965 LP  0  0  0  0  0  0  0  0  0  0  0  0  # atno 17395 bound_to 11000

$$$$
