AV-unprocessed.smi:2524|AV-procd|sdf|9923|dock8
  -GOLD-   2272013563D 1   1.00000     0.00000
 Structure written by MMmdl.
 37 38  0  0  0  0  0  0  0  0  2 V2000
  146.2384  142.6654  154.3352 C   0  0  0  0  0  0  0  0  0  0  0  0
  146.9855  141.6935  153.7906 C   0  0  0  0  0  0  0  0  0  0  0  0
  148.0828  140.9448  154.5173 C   0  0  0  0  0  0  0  0  0  0  0  0
  149.3271  141.8155  154.7282 C   0  0  0  0  0  0  0  0  0  0  0  0
  150.5097  141.0022  155.8806 S   0  0  0  0  0  0  0  0  0  0  0  0
  149.8695  139.7985  156.4326 O   0  0  0  0  0  0  0  0  0  0  0  0
  151.8226  140.8965  155.2270 O   0  0  0  0  0  0  0  0  0  0  0  0
  150.6533  142.1621  157.1504 N   0  0  0  0  0  0  0  0  0  0  0  0
  151.8992  142.9228  157.2809 C   0  0  0  0  0  0  0  0  0  0  0  0
  151.9422  143.7212  158.5788 C   0  0  0  0  0  0  0  0  0  0  0  0
  152.7737  143.0383  159.6286 C   0  0  0  0  0  0  0  0  0  0  0  0
  152.6047  143.3377  161.0001 C   0  0  0  0  0  0  0  0  0  0  0  0
  153.3840  142.6623  161.9610 C   0  0  0  0  0  0  0  0  0  0  0  0
  154.2870  141.7395  161.5655 N   0  3  0  0  0  0  0  0  0  0  0  0
  154.4871  141.4235  160.2681 C   0  0  0  0  0  0  0  0  0  0  0  0
  153.7342  142.0673  159.2653 C   0  0  0  0  0  0  0  0  0  0  0  0
  151.9895  145.2337  158.5021 C   0  0  0  0  0  0  0  0  0  0  0  0
  150.7418  144.5470  158.9944 C   0  0  0  0  0  0  0  0  0  0  0  0
  146.3835  142.9800  155.3583 H   0  0  0  0  0  0  0  0  0  0  0  0
  145.4687  143.1601  153.7610 H   0  0  0  0  0  0  0  0  0  0  0  0
  146.8088  141.4063  152.7642 H   0  0  0  0  0  0  0  0  0  0  0  0
  147.7106  140.5872  155.4780 H   0  0  0  0  0  0  0  0  0  0  0  0
  148.3416  140.0625  153.9312 H   0  0  0  0  0  0  0  0  0  0  0  0
  149.8408  141.9913  153.7830 H   0  0  0  0  0  0  0  0  0  0  0  0
  149.0556  142.7849  155.1465 H   0  0  0  0  0  0  0  0  0  0  0  0
  149.8399  142.7766  157.1843 H   0  0  0  0  0  0  0  0  0  0  0  0
  152.7571  142.2505  157.2341 H   0  0  0  0  0  0  0  0  0  0  0  0
  151.9813  143.5998  156.4301 H   0  0  0  0  0  0  0  0  0  0  0  0
  151.8745  144.0696  161.3133 H   0  0  0  0  0  0  0  0  0  0  0  0
  153.3101  142.8286  163.0258 H   0  0  0  0  0  0  0  0  0  0  0  0
  155.2351  140.6692  160.0727 H   0  0  0  0  0  0  0  0  0  0  0  0
  153.8866  141.8119  158.2267 H   0  0  0  0  0  0  0  0  0  0  0  0
  152.5866  145.7669  159.2393 H   0  0  0  0  0  0  0  0  0  0  0  0
  151.9340  145.7022  157.5214 H   0  0  0  0  0  0  0  0  0  0  0  0
  149.8790  144.5673  158.3314 H   0  0  0  0  0  0  0  0  0  0  0  0
  150.5150  144.6253  160.0559 H   0  0  0  0  0  0  0  0  0  0  0  0
  154.8399  141.2596  162.2762 H   0  0  0  0  0  0  0  0  0  0  0  0
  1  2  2  0  0  0  0
  1 19  1  0  0  0  0
  1 20  1  0  0  0  0
  2  3  1  0  0  0  0
  2 21  1  0  0  0  0
  3  4  1  0  0  0  0
  3 22  1  0  0  0  0
  3 23  1  0  0  0  0
  4  5  1  0  0  0  0
  4 24  1  0  0  0  0
  4 25  1  0  0  0  0
  5  6  2  0  0  0  0
  5  7  2  0  0  0  0
  5  8  1  0  0  0  0
  8  9  1  0  0  0  0
  8 26  1  0  0  0  0
  9 10  1  0  0  0  0
  9 27  1  0  0  0  0
  9 28  1  0  0  0  0
 10 18  1  0  0  0  0
 10 11  1  0  0  0  0
 10 17  1  0  0  0  0
 11 16  1  0  0  0  0
 11 12  2  0  0  0  0
 12 13  1  0  0  0  0
 12 29  1  0  0  0  0
 13 14  2  0  0  0  0
 13 30  1  0  0  0  0
 14 15  1  0  0  0  0
 14 37  1  0  0  0  0
 15 16  2  0  0  0  0
 15 31  1  0  0  0  0
 16 32  1  0  0  0  0
 17 18  1  0  0  0  0
 17 33  1  0  0  0  0
 17 34  1  0  0  0  0
 18 35  1  0  0  0  0
 18 36  1  0  0  0  0
M  CHG  1  14   1
M  END
> <s_m_source_file>
AV-unprocessed.smi

> <i_m_source_file_index>
2524

> <i_lp_mmshare_version>
43012

> <i_f3d_flags>
0

> <s_epik_input>
W0NIMl09W0NIXVtDSDJdW0NIMl1TKD1PKSg9TylbTkhdW0NIMl1DMShbQ0gyXVtDSDJdMSljMltjSF1bY0hdbltjSF1bY0hdMg==

> <s_epik_cmdline>
J2VwaWtfcHl0aG9uJywgJy1waCcsICc3LjAnLCAnLXRuJywgJzgnLCAnLW1hJywgJzIwMCcsICctbWV0YWxfYmluZGluZycsICctaW1hZScsICc8aW5maWxlLm1hZT4nLCAnLW9tYWUnLCAnPG91dGZpbGUubWFlPic=

> <r_epik_Ionization_Penalty>
1.70311

> <r_epik_Ionization_Penalty_Charging>
1.7031

> <r_epik_Ionization_Penalty_Neutral>
1.31612e-05

> <r_epik_State_Penalty>
1.80925

> <r_epik_Charging_Adjusted_Penalty>
3.51235

> <i_epik_Tot_Q>
1

> <i_epik_Tot_abs_Q>
1

> <r_epik_Metal_State_Penalty>
1.86078

> <b_epik_Metal_Only>
0

> <s_lp_Force_Field>
OPLS_2005

> <r_lp_Energy>
15.9515

> <b_lp_Chiralities_Consistent>
1

> <s_lp_Variant>
AV-unprocessed.smi:2524-2

> <Gold.Version>
5.8.1

> <Gold.Id.Protein>
6NUR|6NUR_protein|mol2

> <Gold.PLP.Fitness>
47.8943

> <Gold.PLP.PLP>
-46.9432

> <Gold.PLP.part.hbond>
-1.0000

> <Gold.PLP.part.metal>
0.0000

> <Gold.PLP.part.buried>
-5.9637

> <Gold.PLP.part.nonpolar>
-38.9496

> <Gold.PLP.part.repulsive>
0.0259

> <Gold.PLP.ligand.clash>
0.0000

> <Gold.PLP.ligand.torsion>
1.4869

> <Gold.PLP.Chemscore.Hbond>
0.7840

> <Gold.PLP.Chemscore.CHOScore>
0.0000

> <Gold.PLP.Chemscore.Metal>
0.0000

> <Gold.Chemscore.Hbonds>
donor molecule, donor type, donor heavy atom, donor atom, acceptor molecule, acceptor atom, score
      P1  H  7989  7998       L1     7  0.53

> <Gold.PLP.Chemscore.Internal.Correction>
1.5728

> <Gold.Rescore>
     Score         DG    S(hbond)    S(metal)    S(lipo)     H(rot)  DE(clash)    DE(int)     intcor
     15.38     -17.74       0.81        0.00     124.79       1.97       0.90       1.46       ----

> <Gold.Chemscore.Fitness>
15.3846

> <Gold.Chemscore.DG>
-17.7424

> <Gold.Chemscore.ZeroCoef>
-5.4800

> <Gold.Chemscore.Hbond>
0.8132

> <Gold.Chemscore.Metal>
0.0000

> <Gold.Chemscore.Lipo>
124.7929

> <Gold.Chemscore.Internal_Hbond>
0.0000

> <Gold.Chemscore.DEClash>
0.9023

> <Gold.Chemscore.DEInternal>
1.4556

> <Gold.Chemscore.Rot>
1.9744

> <Gold.Chemscore.Internal.Correction>
   9.000000E+99

> <Gold.Chemscore.Hbonds>
donor molecule, donor type, donor heavy atom, donor atom, acceptor molecule, acceptor atom, score
      P1  H  7989  7998       L1     7  0.42

> <Gold.Chemscore.Hbond.Weighted>
-2.7162

> <Gold.Chemscore.Metal.Weighted>
-0.0000

> <Gold.Chemscore.Lipo.Weighted>
-14.6008

> <Gold.Chemscore.Internal_Hbond.Weighted>
0.0000

> <Gold.Chemscore.DEClash.Weighted>
0.9023

> <Gold.Chemscore.DEInternal.Weighted>
1.4556

> <Gold.Chemscore.Rot.Weighted>
5.0546

> <Gold.Chemscore.Internal.Correction.Weighted>
   9.000000E+99

> <Gold.Protein.RotatedTorsions>
[ 6907 6896 6895 6894 ] final  -78.67 input  -60.11 | X-H torsion
[ 7974 7965 7964 7962 ] final  -55.02 input  175.53 | X-H torsion
[ 8008 7997 7996 7995 ] final  105.85 input   59.86 | X-H torsion
[ 10167 10162 10161 10158 ] final   62.50 input  -65.29 | X-H torsion
[ 10718 10713 10712 10709 ] final  165.41 input   66.30 | X-H torsion
[ 10763 10752 10751 10750 ] final  -80.13 input  -60.55 | X-H torsion
[ 11005 11000 10999 10996 ] final  110.15 input  -57.11 | X-H torsion

> <Gold.Protein.ActiveResidues>
 VAL166  LYS551  ARG553  GLY616  TRP617  ASP618  TYR619  PRO620  LYS621  CYS622 
 ASP623  PHE694  ASN695  SER759  ASP760  ASP761  ALA762  ILE779  LEU786  VAL792 
 PHE793  MET794  SER795  GLU796  ALA797  LYS798  CYS799  TRP800  GLU811  SER814 

> <Gold.Protein.RotatedAtoms>
  150.6967  134.4237  159.5216 H   0  0  0  0  0  0  0  0  0  0  0  0  # atno 6907 bound_to 6896
  152.1976  134.8614  160.0520 H   0  0  0  0  0  0  0  0  0  0  0  0  # atno 6908 bound_to 6896
  151.9546  133.3641  159.4049 H   0  0  0  0  0  0  0  0  0  0  0  0  # atno 6909 bound_to 6896
  145.8789  140.8159  142.9850 H   0  0  0  0  0  0  0  0  0  0  0  0  # atno 7974 bound_to 7965
  156.1694  140.3123  155.8947 H   0  0  0  0  0  0  0  0  0  0  0  0  # atno 8008 bound_to 7997
  155.3618  140.0477  157.3063 H   0  0  0  0  0  0  0  0  0  0  0  0  # atno 8009 bound_to 7997
  154.5225  140.2203  155.8960 H   0  0  0  0  0  0  0  0  0  0  0  0  # atno 8010 bound_to 7997
  140.1432  144.4534  150.6799 H   0  0  0  0  0  0  0  0  0  0  0  0  # atno 10167 bound_to 10162
  157.0805  131.0391  151.2577 H   0  0  0  0  0  0  0  0  0  0  0  0  # atno 10718 bound_to 10713
  154.5473  135.5672  153.6891 H   0  0  0  0  0  0  0  0  0  0  0  0  # atno 10763 bound_to 10752
  152.9980  135.6242  154.2421 H   0  0  0  0  0  0  0  0  0  0  0  0  # atno 10764 bound_to 10752
  154.2355  135.2864  155.2853 H   0  0  0  0  0  0  0  0  0  0  0  0  # atno 10765 bound_to 10752
  139.8876  134.9477  156.6235 H   0  0  0  0  0  0  0  0  0  0  0  0  # atno 11005 bound_to 11000
  144.6727  140.1354  143.7441 LP  0  0  0  0  0  0  0  0  0  0  0  0  # atno 17320 bound_to 7965
  145.9047  139.2451  143.1473 LP  0  0  0  0  0  0  0  0  0  0  0  0  # atno 17321 bound_to 7965
  140.6748  143.2300  151.5535 LP  0  0  0  0  0  0  0  0  0  0  0  0  # atno 17342 bound_to 10162
  139.5462  144.2516  152.1446 LP  0  0  0  0  0  0  0  0  0  0  0  0  # atno 17343 bound_to 10162
  157.4804  130.7761  149.7408 LP  0  0  0  0  0  0  0  0  0  0  0  0  # atno 17370 bound_to 10713
  155.9925  130.3930  150.2940 LP  0  0  0  0  0  0  0  0  0  0  0  0  # atno 17371 bound_to 10713
  140.7721  133.8730  155.8500 LP  0  0  0  0  0  0  0  0  0  0  0  0  # atno 17394 bound_to 11000
  140.9833  134.1376  157.4474 LP  0  0  0  0  0  0  0  0  0  0  0  0  # atno 17395 bound_to 11000

$$$$
