AV-unprocessed.smi:1608|AV-procd|sdf|6468|dock10
  -GOLD-   22720 7123D 1   1.00000     0.00000
 Structure written by MMmdl.
 42 43  0  0  0  0  0  0  0  0  1 V2000
  145.1833  130.4493  151.9382 C   0  0  0  0  0  0  0  0  0  0  0  0
  145.2077  131.8678  151.5730 N   0  0  0  0  0  0  0  0  0  0  0  0
  146.0727  132.7153  152.2903 C   0  0  0  0  0  0  0  0  0  0  0  0
  146.1646  134.0348  152.0444 C   0  0  0  0  0  0  0  0  0  0  0  0
  147.0573  134.7865  152.8211 N   0  0  0  0  0  0  0  0  0  0  0  0
  147.2069  134.8035  154.1582 C   0  0  0  0  0  0  0  0  0  0  0  0
  146.5911  134.1042  154.9622 O   0  0  0  0  0  0  0  0  0  0  0  0
  148.1493  135.6849  154.5234 N   0  0  0  0  0  0  0  0  0  0  0  0
  148.5841  135.9355  155.8942 C   0  0  1  0  0  0  0  0  0  0  0  0
  150.0916  136.2358  155.9386 C   0  0  0  0  0  0  0  0  0  0  0  0
  150.5159  136.5543  157.3765 C   0  0  0  0  0  0  0  0  0  0  0  0
  149.6879  137.7123  157.9597 C   0  0  0  0  0  0  0  0  0  0  0  0
  148.2375  137.4573  157.8453 N   0  0  0  0  0  0  0  0  0  0  0  0
  147.3376  136.9164  159.2334 S   0  0  0  0  0  0  0  0  0  0  0  0
  145.6420  136.6183  158.5851 C   0  0  0  0  0  0  0  0  0  0  0  0
  147.8996  135.6247  159.6566 O   0  0  0  0  0  0  0  0  0  0  0  0
  147.2733  138.0315  160.1904 O   0  0  0  0  0  0  0  0  0  0  0  0
  147.7780  137.1089  156.4857 C   0  0  0  0  0  0  0  0  0  0  0  0
  145.3354  134.5624  150.9705 C   0  0  0  0  0  0  0  0  0  0  0  0
  144.5081  133.7555  150.2773 C   0  0  0  0  0  0  0  0  0  0  0  0
  144.4048  132.3235  150.5689 C   0  0  0  0  0  0  0  0  0  0  0  0
  143.6466  131.5786  149.9476 O   0  0  0  0  0  0  0  0  0  0  0  0
  145.8400  130.2180  152.7774 H   0  0  0  0  0  0  0  0  0  0  0  0
  145.5007  129.8331  151.0959 H   0  0  0  0  0  0  0  0  0  0  0  0
  144.1755  130.1429  152.2225 H   0  0  0  0  0  0  0  0  0  0  0  0
  146.6507  132.2247  153.0605 H   0  0  0  0  0  0  0  0  0  0  0  0
  147.6741  135.3871  152.2940 H   0  0  0  0  0  0  0  0  0  0  0  0
  148.6066  136.2181  153.7985 H   0  0  0  0  0  0  0  0  0  0  0  0
  148.3858  135.0447  156.4904 H   0  0  0  0  0  0  0  0  0  0  0  0
  150.6629  135.3853  155.5649 H   0  0  0  0  0  0  0  0  0  0  0  0
  150.3256  137.0810  155.2898 H   0  0  0  0  0  0  0  0  0  0  0  0
  150.4064  135.6645  157.9951 H   0  0  0  0  0  0  0  0  0  0  0  0
  151.5752  136.8112  157.4007 H   0  0  0  0  0  0  0  0  0  0  0  0
  149.9625  137.8896  158.9993 H   0  0  0  0  0  0  0  0  0  0  0  0
  149.9183  138.6316  157.4204 H   0  0  0  0  0  0  0  0  0  0  0  0
  145.0097  136.2590  159.3965 H   0  0  0  0  0  0  0  0  0  0  0  0
  145.6713  135.8636  157.8010 H   0  0  0  0  0  0  0  0  0  0  0  0
  145.2233  137.5449  158.1969 H   0  0  0  0  0  0  0  0  0  0  0  0
  147.8892  137.9906  155.8531 H   0  0  0  0  0  0  0  0  0  0  0  0
  146.7139  136.8731  156.4976 H   0  0  0  0  0  0  0  0  0  0  0  0
  145.3706  135.6013  150.6859 H   0  0  0  0  0  0  0  0  0  0  0  0
  143.9098  134.1723  149.4803 H   0  0  0  0  0  0  0  0  0  0  0  0
  1  2  1  0  0  0  0
  1 23  1  0  0  0  0
  1 24  1  0  0  0  0
  1 25  1  0  0  0  0
  2 21  1  0  0  0  0
  2  3  1  0  0  0  0
  3  4  2  0  0  0  0
  3 26  1  0  0  0  0
  4  5  1  0  0  0  0
  4 19  1  0  0  0  0
  5  6  1  0  0  0  0
  5 27  1  0  0  0  0
  6  7  2  0  0  0  0
  6  8  1  0  0  0  0
  8  9  1  0  0  0  0
  8 28  1  0  0  0  0
  9 18  1  0  0  0  0
  9 10  1  0  0  0  0
  9 29  1  0  0  0  0
 10 11  1  0  0  0  0
 10 30  1  0  0  0  0
 10 31  1  0  0  0  0
 11 12  1  0  0  0  0
 11 32  1  0  0  0  0
 11 33  1  0  0  0  0
 12 13  1  0  0  0  0
 12 34  1  0  0  0  0
 12 35  1  0  0  0  0
 13 14  1  0  0  0  0
 13 18  1  0  0  0  0
 14 15  1  0  0  0  0
 14 16  2  0  0  0  0
 14 17  2  0  0  0  0
 15 36  1  0  0  0  0
 15 37  1  0  0  0  0
 15 38  1  0  0  0  0
 18 39  1  0  0  0  0
 18 40  1  0  0  0  0
 19 20  2  0  0  0  0
 19 41  1  0  0  0  0
 20 21  1  0  0  0  0
 20 42  1  0  0  0  0
 21 22  2  0  0  0  0
M  END
> <s_m_source_file>
AV-unprocessed.smi

> <i_m_source_file_index>
1608

> <i_lp_mmshare_version>
43012

> <i_f3d_flags>
0

> <s_epik_input>
Tz1jMVtjSF1bY0hdYyhbY0hdbjFbQ0gzXSlbTkhdQyg9TylbTkhdW0NAQEhdMltDSDJdW0NIMl1bQ0gyXU4oW0NIMl0yKVMoPU8pKD1PKVtDSDNd

> <s_epik_cmdline>
J2VwaWtfcHl0aG9uJywgJy1waCcsICc3LjAnLCAnLXRuJywgJzgnLCAnLW1hJywgJzIwMCcsICctbWV0YWxfYmluZGluZycsICctaW1hZScsICc8aW5maWxlLm1hZT4nLCAnLW9tYWUnLCAnPG91dGZpbGUubWFlPic=

> <r_lp_tautomer_probability>
1

> <r_epik_Ionization_Penalty>
2.44111e-05

> <r_epik_Ionization_Penalty_Charging>
5.7429e-06

> <r_epik_Ionization_Penalty_Neutral>
1.86682e-05

> <r_epik_State_Penalty>
-0

> <r_epik_Charging_Adjusted_Penalty>
5.7429e-06

> <i_epik_Tot_Q>
0

> <i_epik_Tot_abs_Q>
0

> <r_epik_Metal_State_Penalty>
-0

> <b_epik_Metal_Only>
0

> <s_lp_Force_Field>
OPLS_2005

> <r_lp_Energy>
11.6091

> <b_lp_Chiralities_Consistent>
1

> <s_lp_Variant>
AV-unprocessed.smi:1608-2

> <Gold.Version>
5.8.1

> <Gold.Id.Protein>
6NUR|6NUR_protein|mol2

> <Gold.PLP.Fitness>
42.1204

> <Gold.PLP.PLP>
-28.6394

> <Gold.PLP.part.hbond>
-5.9620

> <Gold.PLP.part.metal>
0.0000

> <Gold.PLP.part.buried>
-5.7863

> <Gold.PLP.part.nonpolar>
-18.7713

> <Gold.PLP.part.repulsive>
0.5054

> <Gold.PLP.ligand.clash>
0.0000

> <Gold.PLP.ligand.torsion>
1.9851

> <Gold.PLP.Chemscore.Hbond>
5.1323

> <Gold.PLP.Chemscore.CHOScore>
0.0000

> <Gold.PLP.Chemscore.Metal>
0.0000

> <Gold.Chemscore.Hbonds>
donor molecule, donor type, donor heavy atom, donor atom, acceptor molecule, acceptor atom, score
      L1  H     5    27       P1  7948  1.00
      L1  H     8    28       P1  7948  0.85
      P1  H  6934  6947       L1    17  0.22
      P1  H 10785 10796       L1    22  0.90

> <Gold.PLP.Chemscore.Internal.Correction>
2.0546

> <Gold.Rescore>
     Score         DG    S(hbond)    S(metal)    S(lipo)     H(rot)  DE(clash)    DE(int)     intcor
     21.75     -24.77       5.00        0.00      44.00       1.00       0.11       2.90       ----

> <Gold.Chemscore.Fitness>
21.7523

> <Gold.Chemscore.DG>
-24.7675

> <Gold.Chemscore.ZeroCoef>
-5.4800

> <Gold.Chemscore.Hbond>
4.9999

> <Gold.Chemscore.Metal>
0.0000

> <Gold.Chemscore.Lipo>
43.9997

> <Gold.Chemscore.Internal_Hbond>
0.0000

> <Gold.Chemscore.DEClash>
0.1116

> <Gold.Chemscore.DEInternal>
2.9037

> <Gold.Chemscore.Rot>
1.0000

> <Gold.Chemscore.Internal.Correction>
   9.000000E+99

> <Gold.Chemscore.Hbonds>
donor molecule, donor type, donor heavy atom, donor atom, acceptor molecule, acceptor atom, score
      L1  H     5    27       P1  7948  0.96
      L1  H     8    28       P1  7948  0.82
      P1  H  6931  6943       L1    17  0.01
      P1  H  6934  6947       L1    17  0.22
      P1  H 10785 10796       L1    22  0.88

> <Gold.Chemscore.Hbond.Weighted>
-16.6996

> <Gold.Chemscore.Metal.Weighted>
-0.0000

> <Gold.Chemscore.Lipo.Weighted>
-5.1480

> <Gold.Chemscore.Internal_Hbond.Weighted>
0.0000

> <Gold.Chemscore.DEClash.Weighted>
0.1116

> <Gold.Chemscore.DEInternal.Weighted>
2.9037

> <Gold.Chemscore.Rot.Weighted>
2.5600

> <Gold.Chemscore.Internal.Correction.Weighted>
   9.000000E+99

> <Gold.Protein.RotatedTorsions>
[ 6907 6896 6895 6894 ] final   45.73 input  -60.11 | X-H torsion
[ 7974 7965 7964 7962 ] final -153.78 input  175.53 | X-H torsion
[ 8008 7997 7996 7995 ] final -140.98 input   59.86 | X-H torsion
[ 10167 10162 10161 10158 ] final  -43.74 input  -65.29 | X-H torsion
[ 10718 10713 10712 10709 ] final -176.48 input   66.30 | X-H torsion
[ 10763 10752 10751 10750 ] final  -92.58 input  -60.55 | X-H torsion
[ 11005 11000 10999 10996 ] final -170.17 input  -57.11 | X-H torsion

> <Gold.Protein.ActiveResidues>
 VAL166  LYS551  ARG553  GLY616  TRP617  ASP618  TYR619  PRO620  LYS621  CYS622 
 ASP623  PHE694  ASN695  SER759  ASP760  ASP761  ALA762  ILE779  LEU786  VAL792 
 PHE793  MET794  SER795  GLU796  ALA797  LYS798  CYS799  TRP800  GLU811  SER814 

> <Gold.Protein.RotatedAtoms>
  152.2480  134.8161  160.0450 H   0  0  0  0  0  0  0  0  0  0  0  0  # atno 6907 bound_to 6896
  151.8851  133.3498  159.3787 H   0  0  0  0  0  0  0  0  0  0  0  0  # atno 6908 bound_to 6896
  150.7075  134.4906  159.5558 H   0  0  0  0  0  0  0  0  0  0  0  0  # atno 6909 bound_to 6896
  144.7723  140.4479  143.5898 H   0  0  0  0  0  0  0  0  0  0  0  0  # atno 7974 bound_to 7965
  155.4703  140.0552  157.2980 H   0  0  0  0  0  0  0  0  0  0  0  0  # atno 8008 bound_to 7997
  154.4701  140.2036  155.9970 H   0  0  0  0  0  0  0  0  0  0  0  0  # atno 8009 bound_to 7997
  156.1041  140.3214  155.7987 H   0  0  0  0  0  0  0  0  0  0  0  0  # atno 8010 bound_to 7997
  140.6923  143.2967  151.3395 H   0  0  0  0  0  0  0  0  0  0  0  0  # atno 10167 bound_to 10162
  156.8153  130.9601  151.3114 H   0  0  0  0  0  0  0  0  0  0  0  0  # atno 10718 bound_to 10713
  154.6875  135.5226  153.8346 H   0  0  0  0  0  0  0  0  0  0  0  0  # atno 10763 bound_to 10752
  153.0608  135.6567  154.0477 H   0  0  0  0  0  0  0  0  0  0  0  0  # atno 10764 bound_to 10752
  154.0356  135.2981  155.3342 H   0  0  0  0  0  0  0  0  0  0  0  0  # atno 10765 bound_to 10752
  140.5226  134.5695  157.5052 H   0  0  0  0  0  0  0  0  0  0  0  0  # atno 11005 bound_to 11000
  145.6287  139.1533  143.2981 LP  0  0  0  0  0  0  0  0  0  0  0  0  # atno 17320 bound_to 7965
  146.1878  140.6393  142.9159 LP  0  0  0  0  0  0  0  0  0  0  0  0  # atno 17321 bound_to 7965
  139.6338  144.0669  152.2499 LP  0  0  0  0  0  0  0  0  0  0  0  0  # atno 17342 bound_to 10162
  140.0152  144.6194  150.7613 LP  0  0  0  0  0  0  0  0  0  0  0  0  # atno 17343 bound_to 10162
  157.6484  130.8864  149.9585 LP  0  0  0  0  0  0  0  0  0  0  0  0  # atno 17370 bound_to 10713
  156.1020  130.3655  150.0201 LP  0  0  0  0  0  0  0  0  0  0  0  0  # atno 17371 bound_to 10713
  139.9598  134.7473  156.0262 LP  0  0  0  0  0  0  0  0  0  0  0  0  # atno 17394 bound_to 11000
  141.1326  133.6583  156.3506 LP  0  0  0  0  0  0  0  0  0  0  0  0  # atno 17395 bound_to 11000

$$$$
