AV-unprocessed.smi:199|AV-procd|sdf|1571|dock8
  -GOLD-   2262019453D 1   1.00000     0.00000
 Structure written by MMmdl.
 51 55  0  0  0  0  0  0  0  0  1 V2000
  152.1798  132.3577  156.7087 C   0  0  0  0  0  0  0  0  0  0  0  0
  151.4433  131.2209  157.4342 C   0  0  1  0  0  0  0  0  0  0  0  0
  150.4629  131.8154  158.2813 O   0  0  0  0  0  0  0  0  0  0  0  0
  149.3614  130.9324  158.3990 C   0  0  0  0  0  0  0  0  0  0  0  0
  149.2229  130.3931  156.9840 C   0  0  0  0  0  0  0  0  0  0  0  0
  150.6724  130.2039  156.5449 C   0  0  2  0  0  0  0  0  0  0  0  0
  151.0751  128.9016  156.9359 O   0  0  0  0  0  0  0  0  0  0  0  0
  150.8807  130.3256  155.0119 C   0  0  0  0  0  0  0  0  0  0  0  0
  149.6558  130.6295  154.2870 N   0  0  0  0  0  0  0  0  0  0  0  0
  148.9587  129.7854  153.4542 C   0  0  0  0  0  0  0  0  0  0  0  0
  147.8803  130.2939  152.9254 N   0  0  0  0  0  0  0  0  0  0  0  0
  147.8240  131.5891  153.4280 C   0  0  0  0  0  0  0  0  0  0  0  0
  146.9231  132.6849  153.2762 C   0  0  0  0  0  0  0  0  0  0  0  0
  145.7918  132.6521  152.5177 N   0  0  0  0  0  0  0  0  0  0  0  0
  144.8159  133.7310  152.5847 C   0  0  1  0  0  0  0  0  0  0  0  0
  145.4953  134.8933  151.8349 C   0  0  0  0  0  0  0  0  0  0  0  0
  146.2687  134.1333  150.7467 C   0  0  0  0  0  0  0  0  0  0  0  0
  145.8811  132.6694  151.0629 C   0  0  2  0  0  0  0  0  0  0  0  0
  144.4193  132.3717  150.6650 C   0  0  2  0  0  0  0  0  0  0  0  0
  144.0365  132.6592  149.2012 C   0  0  0  0  0  0  0  0  0  0  0  0
  142.7617  132.1215  148.9221 O   0  0  0  0  0  0  0  0  0  0  0  0
  143.6590  133.1941  151.7221 C   0  0  0  0  0  0  0  0  0  0  0  0
  147.2397  133.8402  153.9201 N   0  0  0  0  0  0  0  0  0  0  0  0
  148.3346  133.9187  154.6801 C   0  0  0  0  0  0  0  0  0  0  0  0
  149.2451  132.9772  154.9281 N   0  0  0  0  0  0  0  0  0  0  0  0
  148.9483  131.8189  154.2734 C   0  0  0  0  0  0  0  0  0  0  0  0
  152.9531  131.9717  156.0442 H   0  0  0  0  0  0  0  0  0  0  0  0
  152.6670  133.0182  157.4261 H   0  0  0  0  0  0  0  0  0  0  0  0
  151.4941  132.9673  156.1200 H   0  0  0  0  0  0  0  0  0  0  0  0
  152.1594  130.7010  158.0736 H   0  0  0  0  0  0  0  0  0  0  0  0
  149.5985  130.1351  159.1053 H   0  0  0  0  0  0  0  0  0  0  0  0
  148.4658  131.4489  158.7447 H   0  0  0  0  0  0  0  0  0  0  0  0
  148.6206  129.4853  156.9252 H   0  0  0  0  0  0  0  0  0  0  0  0
  148.7398  131.1529  156.3687 H   0  0  0  0  0  0  0  0  0  0  0  0
  151.6611  128.9781  157.6731 H   0  0  0  0  0  0  0  0  0  0  0  0
  151.6004  131.1121  154.7844 H   0  0  0  0  0  0  0  0  0  0  0  0
  151.2961  129.4018  154.6071 H   0  0  0  0  0  0  0  0  0  0  0  0
  149.2740  128.7716  153.2544 H   0  0  0  0  0  0  0  0  0  0  0  0
  144.4769  134.0034  153.5821 H   0  0  0  0  0  0  0  0  0  0  0  0
  144.7801  135.6084  151.4276 H   0  0  0  0  0  0  0  0  0  0  0  0
  146.1807  135.4345  152.4884 H   0  0  0  0  0  0  0  0  0  0  0  0
  146.0143  134.4501  149.7364 H   0  0  0  0  0  0  0  0  0  0  0  0
  147.3414  134.2857  150.8713 H   0  0  0  0  0  0  0  0  0  0  0  0
  146.5748  131.9410  150.6415 H   0  0  0  0  0  0  0  0  0  0  0  0
  144.2437  131.3115  150.8586 H   0  0  0  0  0  0  0  0  0  0  0  0
  144.0156  133.7280  148.9901 H   0  0  0  0  0  0  0  0  0  0  0  0
  144.7599  132.2044  148.5243 H   0  0  0  0  0  0  0  0  0  0  0  0
  142.1131  132.7920  149.0733 H   0  0  0  0  0  0  0  0  0  0  0  0
  143.0008  132.5493  152.3056 H   0  0  0  0  0  0  0  0  0  0  0  0
  143.0531  133.9952  151.2974 H   0  0  0  0  0  0  0  0  0  0  0  0
  148.5047  134.8720  155.1582 H   0  0  0  0  0  0  0  0  0  0  0  0
  1  2  1  0  0  0  0
  1 27  1  0  0  0  0
  1 28  1  0  0  0  0
  1 29  1  0  0  0  0
  2  6  1  0  0  0  0
  2  3  1  0  0  0  0
  2 30  1  0  0  0  0
  3  4  1  0  0  0  0
  4  5  1  0  0  0  0
  4 31  1  0  0  0  0
  4 32  1  0  0  0  0
  5  6  1  0  0  0  0
  5 33  1  0  0  0  0
  5 34  1  0  0  0  0
  6  7  1  0  0  0  0
  6  8  1  0  0  0  0
  7 35  1  0  0  0  0
  8  9  1  0  0  0  0
  8 36  1  0  0  0  0
  8 37  1  0  0  0  0
  9 26  1  0  0  0  0
  9 10  1  0  0  0  0
 10 11  2  0  0  0  0
 10 38  1  0  0  0  0
 11 12  1  0  0  0  0
 12 26  2  0  0  0  0
 12 13  1  0  0  0  0
 13 14  1  0  0  0  0
 13 23  2  0  0  0  0
 14 18  1  0  0  0  0
 14 15  1  0  0  0  0
 15 22  1  0  0  0  0
 15 16  1  0  0  0  0
 15 39  1  0  0  0  0
 16 17  1  0  0  0  0
 16 40  1  0  0  0  0
 16 41  1  0  0  0  0
 17 18  1  0  0  0  0
 17 42  1  0  0  0  0
 17 43  1  0  0  0  0
 18 19  1  0  0  0  0
 18 44  1  0  0  0  0
 19 20  1  0  0  0  0
 19 22  1  0  0  0  0
 19 45  1  0  0  0  0
 20 21  1  0  0  0  0
 20 46  1  0  0  0  0
 20 47  1  0  0  0  0
 21 48  1  0  0  0  0
 22 49  1  0  0  0  0
 22 50  1  0  0  0  0
 23 24  1  0  0  0  0
 24 25  2  0  0  0  0
 24 51  1  0  0  0  0
 25 26  1  0  0  0  0
M  END
> <s_m_source_file>
AV-unprocessed.smi

> <i_m_source_file_index>
199

> <i_lp_mmshare_version>
43012

> <i_f3d_flags>
0

> <s_epik_input>
W0NIMl0xW0NIMl1PW0NAQEhdKFtDSDNdKVtDQEBdMShbT0hdKVtDSDJdbihbY0hdbjIpYyhjMjMpbltjSF1uYzNOKFtDQEBIXTQ1KVtDQEhdKFtDSDJdW0NIMl00KVtDQEhdKFtDSDJdNSlbQ0gyXVtPSF0=

> <s_epik_cmdline>
J2VwaWtfcHl0aG9uJywgJy1waCcsICc3LjAnLCAnLXRuJywgJzgnLCAnLW1hJywgJzIwMCcsICctbWV0YWxfYmluZGluZycsICctaW1hZScsICc8aW5maWxlLm1hZT4nLCAnLW9tYWUnLCAnPG91dGZpbGUubWFlPic=

> <r_lp_tautomer_probability>
1

> <r_epik_Ionization_Penalty>
0.00583903

> <r_epik_Ionization_Penalty_Charging>
0

> <r_epik_Ionization_Penalty_Neutral>
0.00583903

> <r_epik_State_Penalty>
-0

> <r_epik_Charging_Adjusted_Penalty>
0

> <i_epik_Tot_Q>
0

> <i_epik_Tot_abs_Q>
0

> <r_epik_Metal_State_Penalty>
-0

> <b_epik_Metal_Only>
0

> <s_lp_Force_Field>
OPLS_2005

> <r_lp_Energy>
83.1527

> <b_lp_Chiralities_Consistent>
1

> <s_lp_Variant>
AV-unprocessed.smi:199-12

> <Gold.Version>
5.8.1

> <Gold.Id.Protein>
6NUR|6NUR_protein|mol2

> <Gold.PLP.Fitness>
44.0116

> <Gold.PLP.PLP>
-38.1235

> <Gold.PLP.part.hbond>
-4.0000

> <Gold.PLP.part.metal>
0.0000

> <Gold.PLP.part.buried>
-7.1380

> <Gold.PLP.part.nonpolar>
-28.1893

> <Gold.PLP.part.repulsive>
1.4252

> <Gold.PLP.ligand.clash>
0.0000

> <Gold.PLP.ligand.torsion>
1.5646

> <Gold.PLP.Chemscore.Hbond>
3.0000

> <Gold.PLP.Chemscore.CHOScore>
0.0000

> <Gold.PLP.Chemscore.Metal>
0.0000

> <Gold.Chemscore.Hbonds>
donor molecule, donor type, donor heavy atom, donor atom, acceptor molecule, acceptor atom, score
      L1  H    21    48       P1 10186  1.00
      P1  H  6896  6908       L1     3  1.00
      P1  H 10785 10796       L1    21  1.00

> <Gold.PLP.Chemscore.Internal.Correction>
0.0174

> <Gold.Rescore>
     Score         DG    S(hbond)    S(metal)    S(lipo)     H(rot)  DE(clash)    DE(int)     intcor
     10.77     -14.71       2.56        0.00      73.12       3.07       0.03       3.92       ----

> <Gold.Chemscore.Fitness>
10.7665

> <Gold.Chemscore.DG>
-14.7093

> <Gold.Chemscore.ZeroCoef>
-5.4800

> <Gold.Chemscore.Hbond>
2.5571

> <Gold.Chemscore.Metal>
0.0000

> <Gold.Chemscore.Lipo>
73.1232

> <Gold.Chemscore.Internal_Hbond>
0.0000

> <Gold.Chemscore.DEClash>
0.0260

> <Gold.Chemscore.DEInternal>
3.9169

> <Gold.Chemscore.Rot>
3.0729

> <Gold.Chemscore.Internal.Correction>
   9.000000E+99

> <Gold.Chemscore.Hbonds>
donor molecule, donor type, donor heavy atom, donor atom, acceptor molecule, acceptor atom, score
      L1  H    21    48       P1 10186  0.95
      P1  H  6896  6908       L1     3  0.80
      P1  H 10785 10796       L1    21  0.32

> <Gold.Chemscore.Hbond.Weighted>
-8.5406

> <Gold.Chemscore.Metal.Weighted>
-0.0000

> <Gold.Chemscore.Lipo.Weighted>
-8.5554

> <Gold.Chemscore.Internal_Hbond.Weighted>
0.0000

> <Gold.Chemscore.DEClash.Weighted>
0.0260

> <Gold.Chemscore.DEInternal.Weighted>
3.9169

> <Gold.Chemscore.Rot.Weighted>
7.8667

> <Gold.Chemscore.Internal.Correction.Weighted>
   9.000000E+99

> <Gold.Protein.RotatedTorsions>
[ 6907 6896 6895 6894 ] final   88.70 input  -60.11 | X-H torsion
[ 7974 7965 7964 7962 ] final  -28.54 input  175.53 | X-H torsion
[ 8008 7997 7996 7995 ] final   49.93 input   59.86 | X-H torsion
[ 10167 10162 10161 10158 ] final  -82.06 input  -65.29 | X-H torsion
[ 10718 10713 10712 10709 ] final  -26.41 input   66.30 | X-H torsion
[ 10763 10752 10751 10750 ] final  -84.97 input  -60.55 | X-H torsion
[ 11005 11000 10999 10996 ] final    1.83 input  -57.11 | X-H torsion

> <Gold.Protein.ActiveResidues>
 VAL166  LYS551  ARG553  GLY616  TRP617  ASP618  TYR619  PRO620  LYS621  CYS622 
 ASP623  PHE694  ASN695  SER759  ASP760  ASP761  ALA762  ILE779  LEU786  VAL792 
 PHE793  MET794  SER795  GLU796  ALA797  LYS798  CYS799  TRP800  GLU811  SER814 

> <Gold.Protein.RotatedAtoms>
  152.5428  134.2081  159.8738 H   0  0  0  0  0  0  0  0  0  0  0  0  # atno 6907 bound_to 6896
  151.2065  133.4573  159.2605 H   0  0  0  0  0  0  0  0  0  0  0  0  # atno 6908 bound_to 6896
  151.0938  134.9944  159.8471 H   0  0  0  0  0  0  0  0  0  0  0  0  # atno 6909 bound_to 6896
  146.1281  140.5295  142.8705 H   0  0  0  0  0  0  0  0  0  0  0  0  # atno 7974 bound_to 7965
  155.4103  140.3442  155.4263 H   0  0  0  0  0  0  0  0  0  0  0  0  # atno 8008 bound_to 7997
  156.1452  140.1554  156.8889 H   0  0  0  0  0  0  0  0  0  0  0  0  # atno 8009 bound_to 7997
  154.5005  140.0816  156.7768 H   0  0  0  0  0  0  0  0  0  0  0  0  # atno 8010 bound_to 7997
  140.4355  143.2533  151.8700 H   0  0  0  0  0  0  0  0  0  0  0  0  # atno 10167 bound_to 10162
  156.4515  130.4485  149.6986 H   0  0  0  0  0  0  0  0  0  0  0  0  # atno 10718 bound_to 10713
  154.6057  135.5501  153.7420 H   0  0  0  0  0  0  0  0  0  0  0  0  # atno 10763 bound_to 10752
  153.0173  135.6377  154.1651 H   0  0  0  0  0  0  0  0  0  0  0  0  # atno 10764 bound_to 10752
  154.1589  135.2898  155.3094 H   0  0  0  0  0  0  0  0  0  0  0  0  # atno 10765 bound_to 10752
  140.6110  133.9748  155.8177 H   0  0  0  0  0  0  0  0  0  0  0  0  # atno 11005 bound_to 11000
  144.7662  140.5536  143.6701 LP  0  0  0  0  0  0  0  0  0  0  0  0  # atno 17320 bound_to 7965
  145.5321  139.1475  143.3494 LP  0  0  0  0  0  0  0  0  0  0  0  0  # atno 17321 bound_to 7965
  139.4787  144.5287  151.8697 LP  0  0  0  0  0  0  0  0  0  0  0  0  # atno 17342 bound_to 10162
  140.4379  144.2027  150.5890 LP  0  0  0  0  0  0  0  0  0  0  0  0  # atno 17343 bound_to 10162
  156.3811  130.7579  151.2572 LP  0  0  0  0  0  0  0  0  0  0  0  0  # atno 17370 bound_to 10713
  157.7502  131.0295  150.4097 LP  0  0  0  0  0  0  0  0  0  0  0  0  # atno 17371 bound_to 10713
  141.0808  134.0065  157.3389 LP  0  0  0  0  0  0  0  0  0  0  0  0  # atno 17394 bound_to 11000
  139.9192  135.0199  156.8000 LP  0  0  0  0  0  0  0  0  0  0  0  0  # atno 17395 bound_to 11000

$$$$
