AV-unprocessed.smi:1074|AV-procd|sdf|4692|dock9
  -GOLD-   22720 3213D 1   1.00000     0.00000
 Structure written by MMmdl.
 44 45  0  0  0  0  0  0  0  0  1 V2000
  143.6610  132.9863  148.4160 C   0  0  0  0  0  0  0  0  0  0  0  0
  143.3488  133.5429  149.7235 N   0  0  0  0  0  0  0  0  0  0  0  0
  144.1546  133.4612  150.7926 C   0  0  0  0  0  0  0  0  0  0  0  0
  145.2504  132.9014  150.7579 O   0  0  0  0  0  0  0  0  0  0  0  0
  143.6355  134.1098  152.0901 C   0  0  2  0  0  0  0  0  0  0  0  0
  143.5287  135.6499  151.9910 C   0  0  0  0  0  0  0  0  0  0  0  0
  144.8819  136.3757  152.1163 C   0  0  0  0  0  0  0  0  0  0  0  0
  145.6353  135.9511  153.3919 C   0  0  2  0  0  0  0  0  0  0  0  0
  146.9441  136.5941  153.4559 N   0  0  0  0  0  0  0  0  0  0  0  0
  147.3246  137.4918  154.3759 C   0  0  0  0  0  0  0  0  0  0  0  0
  146.5866  137.8955  155.2737 O   0  0  0  0  0  0  0  0  0  0  0  0
  148.5947  137.8811  154.1691 N   0  0  0  0  0  0  0  0  0  0  0  0
  149.4053  138.7697  154.9288 C   0  0  0  0  0  0  0  0  0  0  0  0
  150.8053  138.9217  154.7791 C   0  0  0  0  0  0  0  0  0  0  0  0
  151.4798  139.8535  155.5909 C   0  0  0  0  0  0  0  0  0  0  0  0
  150.7413  140.6071  156.5244 C   0  0  0  0  0  0  0  0  0  0  0  0
  151.4102  141.5204  157.3135 O   0  0  0  0  0  0  0  0  0  0  0  0
  150.6786  142.2011  158.3273 C   0  0  0  0  0  0  0  0  0  0  0  0
  149.4008  140.4692  156.6723 N   0  0  0  0  0  0  0  0  0  0  0  0
  148.7605  139.5742  155.8911 C   0  0  0  0  0  0  0  0  0  0  0  0
  145.8120  134.4236  153.4418 C   0  0  0  0  0  0  0  0  0  0  0  0
  144.4600  133.6953  153.3308 C   0  0  0  0  0  0  0  0  0  0  0  0
  142.8343  133.1664  147.7290 H   0  0  0  0  0  0  0  0  0  0  0  0
  143.8224  131.9095  148.4804 H   0  0  0  0  0  0  0  0  0  0  0  0
  144.5571  133.4488  148.0008 H   0  0  0  0  0  0  0  0  0  0  0  0
  142.4626  134.0163  149.8246 H   0  0  0  0  0  0  0  0  0  0  0  0
  142.6227  133.7321  152.2415 H   0  0  0  0  0  0  0  0  0  0  0  0
  143.0464  135.9352  151.0550 H   0  0  0  0  0  0  0  0  0  0  0  0
  142.8684  136.0053  152.7830 H   0  0  0  0  0  0  0  0  0  0  0  0
  145.4963  136.1788  151.2378 H   0  0  0  0  0  0  0  0  0  0  0  0
  144.7104  137.4527  152.1262 H   0  0  0  0  0  0  0  0  0  0  0  0
  145.0484  136.2505  154.2625 H   0  0  0  0  0  0  0  0  0  0  0  0
  147.6133  136.3259  152.7494 H   0  0  0  0  0  0  0  0  0  0  0  0
  149.0449  137.4848  153.3571 H   0  0  0  0  0  0  0  0  0  0  0  0
  151.3791  138.3583  154.0613 H   0  0  0  0  0  0  0  0  0  0  0  0
  152.5470  139.9899  155.4961 H   0  0  0  0  0  0  0  0  0  0  0  0
  151.3449  142.8818  158.8571 H   0  0  0  0  0  0  0  0  0  0  0  0
  150.2680  141.5037  159.0588 H   0  0  0  0  0  0  0  0  0  0  0  0
  149.8676  142.7954  157.9038 H   0  0  0  0  0  0  0  0  0  0  0  0
  147.6932  139.4998  156.0408 H   0  0  0  0  0  0  0  0  0  0  0  0
  146.4791  134.0982  152.6429 H   0  0  0  0  0  0  0  0  0  0  0  0
  146.2995  134.1383  154.3748 H   0  0  0  0  0  0  0  0  0  0  0  0
  143.8743  133.9040  154.2270 H   0  0  0  0  0  0  0  0  0  0  0  0
  144.6255  132.6171  153.3303 H   0  0  0  0  0  0  0  0  0  0  0  0
  1  2  1  0  0  0  0
  1 23  1  0  0  0  0
  1 24  1  0  0  0  0
  1 25  1  0  0  0  0
  2  3  1  0  0  0  0
  2 26  1  0  0  0  0
  3  4  2  0  0  0  0
  3  5  1  0  0  0  0
  5 22  1  0  0  0  0
  5  6  1  0  0  0  0
  5 27  1  0  0  0  0
  6  7  1  0  0  0  0
  6 28  1  0  0  0  0
  6 29  1  0  0  0  0
  7  8  1  0  0  0  0
  7 30  1  0  0  0  0
  7 31  1  0  0  0  0
  8  9  1  0  0  0  0
  8 21  1  0  0  0  0
  8 32  1  0  0  0  0
  9 10  1  0  0  0  0
  9 33  1  0  0  0  0
 10 11  2  0  0  0  0
 10 12  1  0  0  0  0
 12 13  1  0  0  0  0
 12 34  1  0  0  0  0
 13 20  1  0  0  0  0
 13 14  2  0  0  0  0
 14 15  1  0  0  0  0
 14 35  1  0  0  0  0
 15 16  2  0  0  0  0
 15 36  1  0  0  0  0
 16 17  1  0  0  0  0
 16 19  1  0  0  0  0
 17 18  1  0  0  0  0
 18 37  1  0  0  0  0
 18 38  1  0  0  0  0
 18 39  1  0  0  0  0
 19 20  2  0  0  0  0
 20 40  1  0  0  0  0
 21 22  1  0  0  0  0
 21 41  1  0  0  0  0
 21 42  1  0  0  0  0
 22 43  1  0  0  0  0
 22 44  1  0  0  0  0
M  END
> <s_m_source_file>
AV-unprocessed.smi

> <i_m_source_file_index>
1074

> <i_lp_mmshare_version>
43012

> <i_f3d_flags>
0

> <s_epik_input>
W0NIM11bTkhdQyg9TylbQ0BASF0xW0NIMl1bQ0gyXVtDQEhdKFtDSDJdW0NIMl0xKVtOSF1DKD1PKVtOSF1jMltjSF1bY0hdYyhPW0NIM10pbltjSF0y

> <s_epik_cmdline>
J2VwaWtfcHl0aG9uJywgJy1waCcsICc3LjAnLCAnLXRuJywgJzgnLCAnLW1hJywgJzIwMCcsICctbWV0YWxfYmluZGluZycsICctaW1hZScsICc8aW5maWxlLm1hZT4nLCAnLW9tYWUnLCAnPG91dGZpbGUubWFlPic=

> <r_lp_tautomer_probability>
1

> <r_epik_Ionization_Penalty>
9.85099e-05

> <r_epik_Ionization_Penalty_Charging>
0

> <r_epik_Ionization_Penalty_Neutral>
9.85099e-05

> <r_epik_State_Penalty>
-0

> <r_epik_Charging_Adjusted_Penalty>
0

> <i_epik_Tot_Q>
0

> <i_epik_Tot_abs_Q>
0

> <r_epik_Metal_State_Penalty>
-0

> <b_epik_Metal_Only>
0

> <s_lp_Force_Field>
OPLS_2005

> <r_lp_Energy>
10.6819

> <b_lp_Chiralities_Consistent>
1

> <s_lp_Variant>
AV-unprocessed.smi:1074-2

> <Gold.Version>
5.8.1

> <Gold.Id.Protein>
6NUR|6NUR_protein|mol2

> <Gold.PLP.Fitness>
36.9671

> <Gold.PLP.PLP>
-28.4957

> <Gold.PLP.part.hbond>
-3.0000

> <Gold.PLP.part.metal>
0.0000

> <Gold.PLP.part.buried>
-2.0954

> <Gold.PLP.part.nonpolar>
-24.7140

> <Gold.PLP.part.repulsive>
0.3394

> <Gold.PLP.ligand.clash>
0.0000

> <Gold.PLP.ligand.torsion>
0.2759

> <Gold.PLP.Chemscore.Hbond>
2.9920

> <Gold.PLP.Chemscore.CHOScore>
0.0000

> <Gold.PLP.Chemscore.Metal>
0.0000

> <Gold.Chemscore.Hbonds>
donor molecule, donor type, donor heavy atom, donor atom, acceptor molecule, acceptor atom, score
      L1  H     2    26       P1 10186  1.00
      L1  H     9    33       P1  7948  1.00
      L1  H    12    34       P1  7948  0.99

> <Gold.PLP.Chemscore.Internal.Correction>
0.0473

> <Gold.Rescore>
     Score         DG    S(hbond)    S(metal)    S(lipo)     H(rot)  DE(clash)    DE(int)     intcor
     16.65     -18.53       2.91        0.00      63.88       1.62       0.13       1.75       ----

> <Gold.Chemscore.Fitness>
16.6485

> <Gold.Chemscore.DG>
-18.5286

> <Gold.Chemscore.ZeroCoef>
-5.4800

> <Gold.Chemscore.Hbond>
2.9143

> <Gold.Chemscore.Metal>
0.0000

> <Gold.Chemscore.Lipo>
63.8824

> <Gold.Chemscore.Internal_Hbond>
0.0000

> <Gold.Chemscore.DEClash>
0.1334

> <Gold.Chemscore.DEInternal>
1.7467

> <Gold.Chemscore.Rot>
1.6248

> <Gold.Chemscore.Internal.Correction>
   9.000000E+99

> <Gold.Chemscore.Hbonds>
donor molecule, donor type, donor heavy atom, donor atom, acceptor molecule, acceptor atom, score
      L1  H     2    26       P1 10186  0.93
      L1  H     9    33       P1  7948  0.99
      L1  H    12    34       P1  7948  0.93

> <Gold.Chemscore.Hbond.Weighted>
-9.7339

> <Gold.Chemscore.Metal.Weighted>
-0.0000

> <Gold.Chemscore.Lipo.Weighted>
-7.4742

> <Gold.Chemscore.Internal_Hbond.Weighted>
0.0000

> <Gold.Chemscore.DEClash.Weighted>
0.1334

> <Gold.Chemscore.DEInternal.Weighted>
1.7467

> <Gold.Chemscore.Rot.Weighted>
4.1595

> <Gold.Chemscore.Internal.Correction.Weighted>
   9.000000E+99

> <Gold.Protein.RotatedTorsions>
[ 6907 6896 6895 6894 ] final   96.66 input  -60.11 | X-H torsion
[ 7974 7965 7964 7962 ] final   64.45 input  175.53 | X-H torsion
[ 8008 7997 7996 7995 ] final  -48.05 input   59.86 | X-H torsion
[ 10167 10162 10161 10158 ] final -103.58 input  -65.29 | X-H torsion
[ 10718 10713 10712 10709 ] final   94.26 input   66.30 | X-H torsion
[ 10763 10752 10751 10750 ] final    7.88 input  -60.55 | X-H torsion
[ 11005 11000 10999 10996 ] final -132.90 input  -57.11 | X-H torsion

> <Gold.Protein.ActiveResidues>
 VAL166  LYS551  ARG553  GLY616  TRP617  ASP618  TYR619  PRO620  LYS621  CYS622 
 ASP623  PHE694  ASN695  SER759  ASP760  ASP761  ALA762  ILE779  LEU786  VAL792 
 PHE793  MET794  SER795  GLU796  ALA797  LYS798  CYS799  TRP800  GLU811  SER814 

> <Gold.Protein.RotatedAtoms>
  152.5432  134.0853  159.8252 H   0  0  0  0  0  0  0  0  0  0  0  0  # atno 6907 bound_to 6896
  151.0949  133.5280  159.2620 H   0  0  0  0  0  0  0  0  0  0  0  0  # atno 6908 bound_to 6896
  151.2057  135.0469  159.8944 H   0  0  0  0  0  0  0  0  0  0  0  0  # atno 6909 bound_to 6896
  145.8501  139.3248  143.0880 H   0  0  0  0  0  0  0  0  0  0  0  0  # atno 7974 bound_to 7965
  154.4024  140.1331  156.4276 H   0  0  0  0  0  0  0  0  0  0  0  0  # atno 8008 bound_to 7997
  155.7582  140.3486  155.5164 H   0  0  0  0  0  0  0  0  0  0  0  0  # atno 8009 bound_to 7997
  155.8884  140.0999  157.1426 H   0  0  0  0  0  0  0  0  0  0  0  0  # atno 8010 bound_to 7997
  140.2185  143.3694  152.0990 H   0  0  0  0  0  0  0  0  0  0  0  0  # atno 10167 bound_to 10162
  157.6949  131.0506  150.4160 H   0  0  0  0  0  0  0  0  0  0  0  0  # atno 10718 bound_to 10713
  153.2313  135.6893  153.7887 H   0  0  0  0  0  0  0  0  0  0  0  0  # atno 10763 bound_to 10752
  153.7050  135.3291  155.3234 H   0  0  0  0  0  0  0  0  0  0  0  0  # atno 10764 bound_to 10752
  154.8315  135.4577  154.1200 H   0  0  0  0  0  0  0  0  0  0  0  0  # atno 10765 bound_to 10752
  140.9129  134.1544  157.4375 H   0  0  0  0  0  0  0  0  0  0  0  0  # atno 11005 bound_to 11000
  145.9367  140.9009  143.0328 LP  0  0  0  0  0  0  0  0  0  0  0  0  # atno 17320 bound_to 7965
  144.6729  140.1493  143.7431 LP  0  0  0  0  0  0  0  0  0  0  0  0  # atno 17321 bound_to 7965
  139.5153  144.6961  151.5627 LP  0  0  0  0  0  0  0  0  0  0  0  0  # atno 17342 bound_to 10162
  140.6272  143.9145  150.6575 LP  0  0  0  0  0  0  0  0  0  0  0  0  # atno 17343 bound_to 10162
  156.4539  130.4017  149.6618 LP  0  0  0  0  0  0  0  0  0  0  0  0  # atno 17370 bound_to 10713
  156.3758  130.7554  151.2541 LP  0  0  0  0  0  0  0  0  0  0  0  0  # atno 17371 bound_to 10713
  139.8761  134.9942  156.5684 LP  0  0  0  0  0  0  0  0  0  0  0  0  # atno 17394 bound_to 11000
  140.8087  133.8447  155.8790 LP  0  0  0  0  0  0  0  0  0  0  0  0  # atno 17395 bound_to 11000

$$$$
