AV-unprocessed.smi:1870|AV-procd|sdf|7594|dock4
  -GOLD-   22720 9303D 1   1.00000     0.00000
 Structure written by MMmdl.
 48 50  0  0  0  0  0  0  0  0  2 V2000
  146.8710  137.0018  157.7304 C   0  0  0  0  0  0  0  0  0  0  0  0
  148.1112  136.6923  156.9361 C   0  0  0  0  0  0  0  0  0  0  0  0
  148.5416  137.6220  156.1479 N   0  0  0  0  0  0  0  0  0  0  0  0
  149.6696  137.4429  155.3709 N   0  0  0  0  0  0  0  0  0  0  0  0
  150.0201  138.6069  154.5460 C   0  0  0  0  0  0  0  0  0  0  0  0
  150.4970  139.8172  155.3806 C   0  0  1  0  0  0  0  0  0  0  0  0
  151.8769  139.9880  155.1243 O   0  0  0  0  0  0  0  0  0  0  0  0
  149.7532  141.1263  155.0307 C   0  0  0  0  0  0  0  0  0  0  0  0
  149.6036  142.0466  156.1878 N   0  3  1  0  0  0  0  0  0  0  0  0
  148.7757  141.4601  157.2678 C   0  0  0  0  0  0  0  0  0  0  0  0
  148.3703  142.5469  158.2712 C   0  0  0  0  0  0  0  0  0  0  0  0
  149.5567  143.3692  158.7393 C   0  0  0  0  0  0  0  0  0  0  0  0
  149.4524  144.1444  159.9126 C   0  0  0  0  0  0  0  0  0  0  0  0
  150.5363  144.9374  160.3350 C   0  0  0  0  0  0  0  0  0  0  0  0
  151.7268  144.9591  159.5842 C   0  0  0  0  0  0  0  0  0  0  0  0
  151.8343  144.1876  158.4111 C   0  0  0  0  0  0  0  0  0  0  0  0
  150.7525  143.3906  157.9815 C   0  0  0  0  0  0  0  0  0  0  0  0
  150.9001  142.5490  156.7185 C   0  0  0  0  0  0  0  0  0  0  0  0
  150.4127  136.3001  155.3343 C   0  0  0  0  0  0  0  0  0  0  0  0
  151.4019  136.1771  154.6110 O   0  0  0  0  0  0  0  0  0  0  0  0
  149.9259  135.2542  156.2365 C   0  0  0  0  0  0  0  0  0  0  0  0
  150.6846  134.0451  156.2404 C   0  0  0  0  0  0  0  0  0  0  0  0
  151.3023  133.0665  156.2637 N   0  0  0  0  0  0  0  0  0  0  0  0
  148.8292  135.4243  157.0165 C   0  0  0  0  0  0  0  0  0  0  0  0
  148.2837  134.3672  157.9669 C   0  0  0  0  0  0  0  0  0  0  0  0
  146.1206  136.2216  157.5994 H   0  0  0  0  0  0  0  0  0  0  0  0
  146.4170  137.9457  157.4244 H   0  0  0  0  0  0  0  0  0  0  0  0
  147.1019  137.0751  158.7934 H   0  0  0  0  0  0  0  0  0  0  0  0
  150.7938  138.3203  153.8309 H   0  0  0  0  0  0  0  0  0  0  0  0
  149.1625  138.9012  153.9371 H   0  0  0  0  0  0  0  0  0  0  0  0
  150.3824  139.5787  156.4367 H   0  0  0  0  0  0  0  0  0  0  0  0
  152.3394  140.0373  155.9468 H   0  0  0  0  0  0  0  0  0  0  0  0
  150.3015  141.6272  154.2313 H   0  0  0  0  0  0  0  0  0  0  0  0
  148.7607  140.9143  154.6311 H   0  0  0  0  0  0  0  0  0  0  0  0
  147.8740  141.0015  156.8597 H   0  0  0  0  0  0  0  0  0  0  0  0
  149.3380  140.6678  157.7651 H   0  0  0  0  0  0  0  0  0  0  0  0
  147.6488  143.2239  157.8125 H   0  0  0  0  0  0  0  0  0  0  0  0
  147.8756  142.0930  159.1309 H   0  0  0  0  0  0  0  0  0  0  0  0
  148.5384  144.1377  160.4888 H   0  0  0  0  0  0  0  0  0  0  0  0
  150.4533  145.5311  161.2336 H   0  0  0  0  0  0  0  0  0  0  0  0
  152.5581  145.5677  159.9089 H   0  0  0  0  0  0  0  0  0  0  0  0
  152.7532  144.2069  157.8431 H   0  0  0  0  0  0  0  0  0  0  0  0
  151.5561  141.7075  156.9461 H   0  0  0  0  0  0  0  0  0  0  0  0
  151.4028  143.1540  155.9646 H   0  0  0  0  0  0  0  0  0  0  0  0
  148.9681  133.5275  158.0848 H   0  0  0  0  0  0  0  0  0  0  0  0
  147.3376  133.9750  157.5929 H   0  0  0  0  0  0  0  0  0  0  0  0
  148.1148  134.7855  158.9596 H   0  0  0  0  0  0  0  0  0  0  0  0
  149.0893  142.8481  155.8517 H   0  0  0  0  0  0  0  0  0  0  0  0
  1  2  1  0  0  0  0
  1 26  1  0  0  0  0
  1 27  1  0  0  0  0
  1 28  1  0  0  0  0
  2 24  1  0  0  0  0
  2  3  2  0  0  0  0
  3  4  1  0  0  0  0
  4  5  1  0  0  0  0
  4 19  1  0  0  0  0
  5  6  1  0  0  0  0
  5 29  1  0  0  0  0
  5 30  1  0  0  0  0
  6  7  1  0  0  0  0
  6  8  1  0  0  0  0
  6 31  1  0  0  0  0
  7 32  1  0  0  0  0
  8  9  1  0  0  0  0
  8 33  1  0  0  0  0
  8 34  1  0  0  0  0
  9 18  1  0  0  0  0
  9 10  1  0  0  0  0
  9 48  1  0  0  0  0
 10 11  1  0  0  0  0
 10 35  1  0  0  0  0
 10 36  1  0  0  0  0
 11 12  1  0  0  0  0
 11 37  1  0  0  0  0
 11 38  1  0  0  0  0
 12 17  2  0  0  0  0
 12 13  1  0  0  0  0
 13 14  2  0  0  0  0
 13 39  1  0  0  0  0
 14 15  1  0  0  0  0
 14 40  1  0  0  0  0
 15 16  2  0  0  0  0
 15 41  1  0  0  0  0
 16 17  1  0  0  0  0
 16 42  1  0  0  0  0
 17 18  1  0  0  0  0
 18 43  1  0  0  0  0
 18 44  1  0  0  0  0
 19 20  2  0  0  0  0
 19 21  1  0  0  0  0
 21 22  1  0  0  0  0
 21 24  2  0  0  0  0
 22 23  3  0  0  0  0
 24 25  1  0  0  0  0
 25 45  1  0  0  0  0
 25 46  1  0  0  0  0
 25 47  1  0  0  0  0
M  CHG  1   9   1
M  END
> <s_m_source_file>
AV-unprocessed.smi

> <i_m_source_file_index>
1870

> <i_lp_mmshare_version>
43012

> <i_f3d_flags>
0

> <s_epik_input>
TiNDYyhjMVtDSDNdKWMoPU8pbihuYzFbQ0gzXSlbQ0gyXVtDQEhdKFtPSF0pW0NIMl1OKFtDSDJdW0NIMl0yKVtDSDJdYyhjMjMpW2NIXVtjSF1bY0hdW2NIXTM=

> <s_epik_cmdline>
J2VwaWtfcHl0aG9uJywgJy1waCcsICc3LjAnLCAnLXRuJywgJzgnLCAnLW1hJywgJzIwMCcsICctbWV0YWxfYmluZGluZycsICctaW1hZScsICc8aW5maWxlLm1hZT4nLCAnLW9tYWUnLCAnPG91dGZpbGUubWFlPic=

> <r_epik_Ionization_Penalty>
0.0122865

> <r_epik_Ionization_Penalty_Charging>
0.0122864

> <r_epik_Ionization_Penalty_Neutral>
1.48087e-07

> <r_epik_State_Penalty>
0.00950248

> <r_epik_Charging_Adjusted_Penalty>
0.0217889

> <i_epik_Tot_Q>
1

> <i_epik_Tot_abs_Q>
1

> <r_epik_Metal_State_Penalty>
0.00950248

> <b_epik_Metal_Only>
0

> <s_lp_Force_Field>
OPLS_2005

> <r_lp_Energy>
36.9803

> <b_lp_Chiralities_Consistent>
1

> <s_lp_Variant>
AV-unprocessed.smi:1870-2

> <Gold.Version>
5.8.1

> <Gold.Id.Protein>
6NUR|6NUR_protein|mol2

> <Gold.PLP.Fitness>
51.1175

> <Gold.PLP.PLP>
-41.6582

> <Gold.PLP.part.hbond>
-3.0000

> <Gold.PLP.part.metal>
0.0000

> <Gold.PLP.part.buried>
-5.9465

> <Gold.PLP.part.nonpolar>
-33.1748

> <Gold.PLP.part.repulsive>
0.2691

> <Gold.PLP.ligand.clash>
0.0000

> <Gold.PLP.ligand.torsion>
1.1921

> <Gold.PLP.Chemscore.Hbond>
3.9280

> <Gold.PLP.Chemscore.CHOScore>
0.0000

> <Gold.PLP.Chemscore.Metal>
0.0000

> <Gold.Chemscore.Hbonds>
donor molecule, donor type, donor heavy atom, donor atom, acceptor molecule, acceptor atom, score
      L1  H     9    48       P1  8028  2.00
      P1  H  7989  7998       L1     7  0.72
      P1  H 10752 10763       L1    20  1.00

> <Gold.PLP.Chemscore.Internal.Correction>
0.0596

> <Gold.Rescore>
     Score         DG    S(hbond)    S(metal)    S(lipo)     H(rot)  DE(clash)    DE(int)     intcor
     20.62     -22.05       2.72        0.00     111.16       2.16       0.10       1.33       ----

> <Gold.Chemscore.Fitness>
20.6179

> <Gold.Chemscore.DG>
-22.0468

> <Gold.Chemscore.ZeroCoef>
-5.4800

> <Gold.Chemscore.Hbond>
2.7239

> <Gold.Chemscore.Metal>
0.0000

> <Gold.Chemscore.Lipo>
111.1599

> <Gold.Chemscore.Internal_Hbond>
0.0000

> <Gold.Chemscore.DEClash>
0.1038

> <Gold.Chemscore.DEInternal>
1.3250

> <Gold.Chemscore.Rot>
2.1628

> <Gold.Chemscore.Internal.Correction>
   9.000000E+99

> <Gold.Chemscore.Hbonds>
donor molecule, donor type, donor heavy atom, donor atom, acceptor molecule, acceptor atom, score
      L1  H     9    48       P1  8028  0.95
      P1  H  7989  7998       L1     7  0.10
      P1  H 10752 10763       L1    20  1.00

> <Gold.Chemscore.Hbond.Weighted>
-9.0978

> <Gold.Chemscore.Metal.Weighted>
-0.0000

> <Gold.Chemscore.Lipo.Weighted>
-13.0057

> <Gold.Chemscore.Internal_Hbond.Weighted>
0.0000

> <Gold.Chemscore.DEClash.Weighted>
0.1038

> <Gold.Chemscore.DEInternal.Weighted>
1.3250

> <Gold.Chemscore.Rot.Weighted>
5.5367

> <Gold.Chemscore.Internal.Correction.Weighted>
   9.000000E+99

> <Gold.Protein.RotatedTorsions>
[ 6907 6896 6895 6894 ] final -174.86 input  -60.11 | X-H torsion
[ 7974 7965 7964 7962 ] final  101.81 input  175.53 | X-H torsion
[ 8008 7997 7996 7995 ] final -123.20 input   59.86 | X-H torsion
[ 10167 10162 10161 10158 ] final  124.38 input  -65.29 | X-H torsion
[ 10718 10713 10712 10709 ] final  -97.74 input   66.30 | X-H torsion
[ 10763 10752 10751 10750 ] final   60.78 input  -60.55 | X-H torsion
[ 11005 11000 10999 10996 ] final   10.46 input  -57.11 | X-H torsion

> <Gold.Protein.ActiveResidues>
 VAL166  LYS551  ARG553  GLY616  TRP617  ASP618  TYR619  PRO620  LYS621  CYS622 
 ASP623  PHE694  ASN695  SER759  ASP760  ASP761  ALA762  ILE779  LEU786  VAL792 
 PHE793  MET794  SER795  GLU796  ALA797  LYS798  CYS799  TRP800  GLU811  SER814 

> <Gold.Protein.RotatedAtoms>
  151.5792  133.3380  159.3004 H   0  0  0  0  0  0  0  0  0  0  0  0  # atno 6907 bound_to 6896
  150.8323  134.7585  159.6875 H   0  0  0  0  0  0  0  0  0  0  0  0  # atno 6908 bound_to 6896
  152.4405  134.5607  159.9945 H   0  0  0  0  0  0  0  0  0  0  0  0  # atno 6909 bound_to 6896
  145.3674  139.2405  143.3473 H   0  0  0  0  0  0  0  0  0  0  0  0  # atno 7974 bound_to 7965
  155.1767  140.0409  157.2874 H   0  0  0  0  0  0  0  0  0  0  0  0  # atno 8008 bound_to 7997
  154.6232  140.2506  155.7497 H   0  0  0  0  0  0  0  0  0  0  0  0  # atno 8009 bound_to 7997
  156.2445  140.2890  156.0549 H   0  0  0  0  0  0  0  0  0  0  0  0  # atno 8010 bound_to 7997
  139.5745  144.6956  151.3691 H   0  0  0  0  0  0  0  0  0  0  0  0  # atno 10167 bound_to 10162
  156.0091  130.5208  150.6420 H   0  0  0  0  0  0  0  0  0  0  0  0  # atno 10718 bound_to 10713
  152.9931  135.5524  154.5929 H   0  0  0  0  0  0  0  0  0  0  0  0  # atno 10763 bound_to 10752
  154.5287  135.2812  155.1201 H   0  0  0  0  0  0  0  0  0  0  0  0  # atno 10764 bound_to 10752
  154.2525  135.6396  153.5298 H   0  0  0  0  0  0  0  0  0  0  0  0  # atno 10765 bound_to 10752
  140.5142  134.0622  155.7826 H   0  0  0  0  0  0  0  0  0  0  0  0  # atno 11005 bound_to 11000
  146.2900  140.4319  142.8743 LP  0  0  0  0  0  0  0  0  0  0  0  0  # atno 17320 bound_to 7965
  144.8601  140.7127  143.6113 LP  0  0  0  0  0  0  0  0  0  0  0  0  # atno 17321 bound_to 7965
  140.7028  143.7589  150.7431 LP  0  0  0  0  0  0  0  0  0  0  0  0  # atno 17342 bound_to 10162
  140.1105  143.4704  152.2373 LP  0  0  0  0  0  0  0  0  0  0  0  0  # atno 17343 bound_to 10162
  157.4198  131.0835  151.1142 LP  0  0  0  0  0  0  0  0  0  0  0  0  # atno 17370 bound_to 10713
  157.1747  130.6283  149.5652 LP  0  0  0  0  0  0  0  0  0  0  0  0  # atno 17371 bound_to 10713
  141.1369  133.9206  157.2413 LP  0  0  0  0  0  0  0  0  0  0  0  0  # atno 17394 bound_to 11000
  139.9642  135.0146  156.9342 LP  0  0  0  0  0  0  0  0  0  0  0  0  # atno 17395 bound_to 11000

$$$$
