AV-unprocessed.smi:281|AV-procd|sdf|2104|dock6
  -GOLD-   2262021393D 1   1.00000     0.00000
 Structure written by MMmdl.
 55 59  0  0  0  0  0  0  0  0  1 V2000
  148.4064  135.3610  160.1373 C   0  0  0  0  0  0  0  0  0  0  0  0
  148.6011  135.4539  158.6209 C   0  0  1  0  0  0  0  0  0  0  0  0
  149.2913  136.7614  158.2035 C   0  0  0  0  0  0  0  0  0  0  0  0
  149.5134  136.7492  156.7667 N   0  0  0  0  0  0  0  0  0  0  0  0
  149.9394  137.9258  156.2637 C   0  0  0  0  0  0  0  0  0  0  0  0
  150.0781  138.0057  154.9182 N   0  0  0  0  0  0  0  0  0  0  0  0
  150.5069  139.1411  154.3585 C   0  0  0  0  0  0  0  0  0  0  0  0
  150.8480  140.2880  154.9509 N   0  0  0  0  0  0  0  0  0  0  0  0
  150.7099  140.2078  156.3059 C   0  0  0  0  0  0  0  0  0  0  0  0
  150.2592  139.0752  157.0402 C   0  0  0  0  0  0  0  0  0  0  0  0
  150.2393  139.3676  158.3985 N   0  0  0  0  0  0  0  0  0  0  0  0
  150.6588  140.6016  158.4638 C   0  0  0  0  0  0  0  0  0  0  0  0
  150.9760  141.1794  157.2548 N   0  0  0  0  0  0  0  0  0  0  0  0
  151.4778  142.5271  157.0355 C   0  0  0  0  0  0  0  0  0  0  0  0
  151.9114  143.2394  158.3383 C   0  0  2  0  0  0  0  0  0  0  0  0
  152.9246  142.4765  158.9703 O   0  0  0  0  0  0  0  0  0  0  0  0
  150.7756  143.4571  159.3360 C   0  0  0  0  0  0  0  0  0  0  0  0
  151.1447  144.7790  159.9939 C   0  0  0  0  0  0  0  0  0  0  0  0
  151.6551  145.5291  158.9056 O   0  0  0  0  0  0  0  0  0  0  0  0
  152.4510  144.6644  158.1024 C   0  0  0  0  0  0  0  0  0  0  0  0
  150.3041  135.6055  156.3357 C   0  0  0  0  0  0  0  0  0  0  0  0
  149.6583  134.2765  156.8013 C   0  0  2  0  0  0  0  0  0  0  0  0
  150.5993  133.1113  156.5420 C   0  0  0  0  0  0  0  0  0  0  0  0
  150.3428  132.7911  155.0740 C   0  0  0  0  0  0  0  0  0  0  0  0
  148.9817  133.1364  154.8381 O   0  0  0  0  0  0  0  0  0  0  0  0
  148.4409  133.8604  155.9434 C   0  0  1  0  0  0  0  0  0  0  0  0
  147.4557  132.8978  156.6340 C   0  0  0  0  0  0  0  0  0  0  0  0
  149.3956  134.3398  158.2076 O   0  0  0  0  0  0  0  0  0  0  0  0
  147.7937  136.1839  160.5060 H   0  0  0  0  0  0  0  0  0  0  0  0
  149.3627  135.3931  160.6606 H   0  0  0  0  0  0  0  0  0  0  0  0
  147.9094  134.4291  160.4082 H   0  0  0  0  0  0  0  0  0  0  0  0
  147.6218  135.4067  158.1449 H   0  0  0  0  0  0  0  0  0  0  0  0
  148.6722  137.6175  158.4759 H   0  0  0  0  0  0  0  0  0  0  0  0
  150.2422  136.8675  158.7272 H   0  0  0  0  0  0  0  0  0  0  0  0
  150.5916  139.1283  153.2820 H   0  0  0  0  0  0  0  0  0  0  0  0
  150.7553  141.1249  159.4039 H   0  0  0  0  0  0  0  0  0  0  0  0
  152.3134  142.4756  156.3359 H   0  0  0  0  0  0  0  0  0  0  0  0
  150.6967  143.1020  156.5359 H   0  0  0  0  0  0  0  0  0  0  0  0
  152.5387  142.0034  159.6915 H   0  0  0  0  0  0  0  0  0  0  0  0
  149.8295  143.5855  158.8089 H   0  0  0  0  0  0  0  0  0  0  0  0
  150.6502  142.6410  160.0491 H   0  0  0  0  0  0  0  0  0  0  0  0
  150.2914  145.2728  160.4595 H   0  0  0  0  0  0  0  0  0  0  0  0
  151.9218  144.6413  160.7473 H   0  0  0  0  0  0  0  0  0  0  0  0
  153.4971  144.7605  158.3985 H   0  0  0  0  0  0  0  0  0  0  0  0
  152.3793  144.9719  157.0586 H   0  0  0  0  0  0  0  0  0  0  0  0
  150.4136  135.6221  155.2504 H   0  0  0  0  0  0  0  0  0  0  0  0
  151.3065  135.6897  156.7570 H   0  0  0  0  0  0  0  0  0  0  0  0
  151.6452  133.3369  156.7527 H   0  0  0  0  0  0  0  0  0  0  0  0
  150.3187  132.2555  157.1572 H   0  0  0  0  0  0  0  0  0  0  0  0
  150.9762  133.4027  154.4304 H   0  0  0  0  0  0  0  0  0  0  0  0
  150.5342  131.7440  154.8386 H   0  0  0  0  0  0  0  0  0  0  0  0
  147.8925  134.7314  155.5829 H   0  0  0  0  0  0  0  0  0  0  0  0
  146.9626  133.3585  157.4883 H   0  0  0  0  0  0  0  0  0  0  0  0
  147.9527  131.9951  156.9886 H   0  0  0  0  0  0  0  0  0  0  0  0
  146.6731  132.5892  155.9404 H   0  0  0  0  0  0  0  0  0  0  0  0
  1  2  1  0  0  0  0
  1 29  1  0  0  0  0
  1 30  1  0  0  0  0
  1 31  1  0  0  0  0
  2 28  1  0  0  0  0
  2  3  1  0  0  0  0
  2 32  1  0  0  0  0
  3  4  1  0  0  0  0
  3 33  1  0  0  0  0
  3 34  1  0  0  0  0
  4  5  1  0  0  0  0
  4 21  1  0  0  0  0
  5 10  1  0  0  0  0
  5  6  2  0  0  0  0
  6  7  1  0  0  0  0
  7  8  2  0  0  0  0
  7 35  1  0  0  0  0
  8  9  1  0  0  0  0
  9 13  1  0  0  0  0
  9 10  2  0  0  0  0
 10 11  1  0  0  0  0
 11 12  2  0  0  0  0
 12 13  1  0  0  0  0
 12 36  1  0  0  0  0
 13 14  1  0  0  0  0
 14 15  1  0  0  0  0
 14 37  1  0  0  0  0
 14 38  1  0  0  0  0
 15 20  1  0  0  0  0
 15 16  1  0  0  0  0
 15 17  1  0  0  0  0
 16 39  1  0  0  0  0
 17 18  1  0  0  0  0
 17 40  1  0  0  0  0
 17 41  1  0  0  0  0
 18 19  1  0  0  0  0
 18 42  1  0  0  0  0
 18 43  1  0  0  0  0
 19 20  1  0  0  0  0
 20 44  1  0  0  0  0
 20 45  1  0  0  0  0
 21 22  1  0  0  0  0
 21 46  1  0  0  0  0
 21 47  1  0  0  0  0
 22 26  1  0  0  0  0
 22 23  1  0  0  0  0
 22 28  1  0  0  0  0
 23 24  1  0  0  0  0
 23 48  1  0  0  0  0
 23 49  1  0  0  0  0
 24 25  1  0  0  0  0
 24 50  1  0  0  0  0
 24 51  1  0  0  0  0
 25 26  1  0  0  0  0
 26 27  1  0  0  0  0
 26 52  1  0  0  0  0
 27 53  1  0  0  0  0
 27 54  1  0  0  0  0
 27 55  1  0  0  0  0
M  END
> <s_m_source_file>
AV-unprocessed.smi

> <i_m_source_file_index>
281

> <i_lp_mmshare_version>
43012

> <i_f3d_flags>
0

> <s_epik_input>
W0NIM11bQ0BASF0xT1tDSDJdW0NIMl1bQ0BAXTEyW0NIMl1OKFtDSDJdW0NASF0oTzIpW0NIM10pYyhuW2NIXW4zKWMoYzM0KW5bY0hdbjRbQ0gyXVtDQEBdNShbT0hdKVtDSDJdW0NIMl1PW0NIMl01

> <s_epik_cmdline>
J2VwaWtfcHl0aG9uJywgJy1waCcsICc3LjAnLCAnLXRuJywgJzgnLCAnLW1hJywgJzIwMCcsICctbWV0YWxfYmluZGluZycsICctaW1hZScsICc8aW5maWxlLm1hZT4nLCAnLW9tYWUnLCAnPG91dGZpbGUubWFlPic=

> <r_lp_tautomer_probability>
1

> <r_epik_Ionization_Penalty>
0.00571331

> <r_epik_Ionization_Penalty_Charging>
0

> <r_epik_Ionization_Penalty_Neutral>
0.00571331

> <r_epik_State_Penalty>
0.00399586

> <r_epik_Charging_Adjusted_Penalty>
0.00399586

> <i_epik_Tot_Q>
0

> <i_epik_Tot_abs_Q>
0

> <r_epik_Metal_State_Penalty>
-0

> <b_epik_Metal_Only>
0

> <s_lp_Force_Field>
OPLS_2005

> <r_lp_Energy>
57.1517

> <b_lp_Chiralities_Consistent>
1

> <s_lp_Variant>
AV-unprocessed.smi:281-4

> <Gold.Version>
5.8.1

> <Gold.Id.Protein>
6NUR|6NUR_protein|mol2

> <Gold.PLP.Fitness>
44.1417

> <Gold.PLP.PLP>
-37.4981

> <Gold.PLP.part.hbond>
-3.0000

> <Gold.PLP.part.metal>
0.0000

> <Gold.PLP.part.buried>
-7.2104

> <Gold.PLP.part.nonpolar>
-28.0630

> <Gold.PLP.part.repulsive>
0.3533

> <Gold.PLP.ligand.clash>
0.9228

> <Gold.PLP.ligand.torsion>
0.1787

> <Gold.PLP.Chemscore.Hbond>
1.6000

> <Gold.PLP.Chemscore.CHOScore>
1.0000

> <Gold.PLP.Chemscore.Metal>
0.0000

> <Gold.Chemscore.Hbonds>
donor molecule, donor type, donor heavy atom, donor atom, acceptor molecule, acceptor atom, score
      P1  H  6896  6907       L1    28  1.00
      P1  H  7989  7998       L1     8  0.60
      L1  C     7    35       P1  7957  1.00

> <Gold.PLP.Chemscore.Internal.Correction>
0.1238

> <Gold.Rescore>
     Score         DG    S(hbond)    S(metal)    S(lipo)     H(rot)  DE(clash)    DE(int)     intcor
     10.48     -14.68       1.35        0.00      86.01       2.09       0.47       3.73       ----

> <Gold.Chemscore.Fitness>
10.4789

> <Gold.Chemscore.DG>
-14.6823

> <Gold.Chemscore.ZeroCoef>
-5.4800

> <Gold.Chemscore.Hbond>
1.3464

> <Gold.Chemscore.Metal>
0.0000

> <Gold.Chemscore.Lipo>
86.0072

> <Gold.Chemscore.Internal_Hbond>
0.0000

> <Gold.Chemscore.DEClash>
0.4746

> <Gold.Chemscore.DEInternal>
3.7289

> <Gold.Chemscore.Rot>
2.0927

> <Gold.Chemscore.Internal.Correction>
   9.000000E+99

> <Gold.Chemscore.Hbonds>
donor molecule, donor type, donor heavy atom, donor atom, acceptor molecule, acceptor atom, score
      P1  H  6896  6907       L1    28  0.84
      P1  H  7989  7998       L1     8  0.04

> <Gold.Chemscore.Hbond.Weighted>
-4.4968

> <Gold.Chemscore.Metal.Weighted>
-0.0000

> <Gold.Chemscore.Lipo.Weighted>
-10.0628

> <Gold.Chemscore.Internal_Hbond.Weighted>
0.0000

> <Gold.Chemscore.DEClash.Weighted>
0.4746

> <Gold.Chemscore.DEInternal.Weighted>
3.7289

> <Gold.Chemscore.Rot.Weighted>
5.3573

> <Gold.Chemscore.Internal.Correction.Weighted>
   9.000000E+99

> <Gold.Protein.RotatedTorsions>
[ 6907 6896 6895 6894 ] final -110.55 input  -60.11 | X-H torsion
[ 7974 7965 7964 7962 ] final -107.78 input  175.53 | X-H torsion
[ 8008 7997 7996 7995 ] final  112.52 input   59.86 | X-H torsion
[ 10167 10162 10161 10158 ] final  162.62 input  -65.29 | X-H torsion
[ 10718 10713 10712 10709 ] final    0.08 input   66.30 | X-H torsion
[ 10763 10752 10751 10750 ] final -116.11 input  -60.55 | X-H torsion
[ 11005 11000 10999 10996 ] final  123.03 input  -57.11 | X-H torsion

> <Gold.Protein.ActiveResidues>
 VAL166  LYS551  ARG553  GLY616  TRP617  ASP618  TYR619  PRO620  LYS621  CYS622 
 ASP623  PHE694  ASN695  SER759  ASP760  ASP761  ALA762  ILE779  LEU786  VAL792 
 PHE793  MET794  SER795  GLU796  ALA797  LYS798  CYS799  TRP800  GLU811  SER814 

> <Gold.Protein.RotatedAtoms>
  150.7632  133.9366  159.3443 H   0  0  0  0  0  0  0  0  0  0  0  0  # atno 6907 bound_to 6896
  151.7270  135.0881  160.0303 H   0  0  0  0  0  0  0  0  0  0  0  0  # atno 6908 bound_to 6896
  152.3614  133.6264  159.6053 H   0  0  0  0  0  0  0  0  0  0  0  0  # atno 6909 bound_to 6896
  145.2011  140.9056  143.3369 H   0  0  0  0  0  0  0  0  0  0  0  0  # atno 7974 bound_to 7965
  156.2198  140.2998  155.9924 H   0  0  0  0  0  0  0  0  0  0  0  0  # atno 8008 bound_to 7997
  155.2512  140.0426  157.3004 H   0  0  0  0  0  0  0  0  0  0  0  0  # atno 8009 bound_to 7997
  154.5822  140.2378  155.8045 H   0  0  0  0  0  0  0  0  0  0  0  0  # atno 8010 bound_to 7997
  139.4863  144.4419  151.8941 H   0  0  0  0  0  0  0  0  0  0  0  0  # atno 10167 bound_to 10162
  156.8281  130.5479  149.5690 H   0  0  0  0  0  0  0  0  0  0  0  0  # atno 10718 bound_to 10713
  154.8507  135.4357  154.1769 H   0  0  0  0  0  0  0  0  0  0  0  0  # atno 10763 bound_to 10752
  153.2869  135.6958  153.7336 H   0  0  0  0  0  0  0  0  0  0  0  0  # atno 10764 bound_to 10752
  153.6519  135.3450  155.3077 H   0  0  0  0  0  0  0  0  0  0  0  0  # atno 10765 bound_to 10752
  139.9294  134.9641  156.8198 H   0  0  0  0  0  0  0  0  0  0  0  0  # atno 11005 bound_to 11000
  144.9947  139.3655  143.6197 LP  0  0  0  0  0  0  0  0  0  0  0  0  # atno 17320 bound_to 7965
  146.3417  139.9145  142.8775 LP  0  0  0  0  0  0  0  0  0  0  0  0  # atno 17321 bound_to 7965
  140.3871  144.2662  150.5903 LP  0  0  0  0  0  0  0  0  0  0  0  0  # atno 17342 bound_to 10162
  140.5180  143.2273  151.8433 LP  0  0  0  0  0  0  0  0  0  0  0  0  # atno 17343 bound_to 10162
  156.0950  130.5925  150.9797 LP  0  0  0  0  0  0  0  0  0  0  0  0  # atno 17370 bound_to 10713
  157.6421  131.0909  150.8229 LP  0  0  0  0  0  0  0  0  0  0  0  0  # atno 17371 bound_to 10713
  140.6243  133.9964  155.7632 LP  0  0  0  0  0  0  0  0  0  0  0  0  # atno 17394 bound_to 11000
  141.0874  133.9970  157.3292 LP  0  0  0  0  0  0  0  0  0  0  0  0  # atno 17395 bound_to 11000

$$$$
