AV-unprocessed.smi:769|AV-procd|sdf|3677|dock1
  -GOLD-   22720 1 93D 1   1.00000     0.00000
 Structure written by MMmdl.
 51 53  0  0  0  0  0  0  0  0  3 V2000
  147.0323  132.6425  154.0186 O   0  0  0  0  0  0  0  0  0  0  0  0
  147.5706  133.6232  153.5056 C   0  0  0  0  0  0  0  0  0  0  0  0
  148.7704  134.0853  153.8864 N   0  0  0  0  0  0  0  0  0  0  0  0
  149.6055  133.4833  154.9200 C   0  0  0  0  0  0  0  0  0  0  0  0
  149.9304  134.4852  156.0454 C   0  0  0  0  0  0  0  0  0  0  0  0
  149.7214  135.8951  155.6309 N   0  3  0  0  0  0  0  0  0  0  0  0
  149.4637  136.7873  156.7942 C   0  0  0  0  0  0  0  0  0  0  0  0
  149.2497  138.2476  156.3547 C   0  0  0  0  0  0  0  0  0  0  0  0
  150.4090  138.6796  155.5693 N   0  0  0  0  0  0  0  0  0  0  0  0
  151.2818  139.6221  156.0019 C   0  0  0  0  0  0  0  0  0  0  0  0
  152.3015  139.9037  155.3713 O   0  0  0  0  0  0  0  0  0  0  0  0
  150.9649  140.3953  157.3004 C   0  0  0  0  0  0  0  0  0  0  0  0
  149.9065  141.5119  157.1958 C   0  0  0  0  0  0  0  0  0  0  0  0
  151.0307  142.5514  157.1616 C   0  0  0  0  0  0  0  0  0  0  0  0
  152.0026  141.4744  157.6543 C   0  0  0  0  0  0  0  0  0  0  0  0
  150.5421  137.8814  154.3474 C   0  0  0  0  0  0  0  0  0  0  0  0
  150.7941  136.4131  154.7350 C   0  0  0  0  0  0  0  0  0  0  0  0
  147.0456  134.3758  152.5228 N   0  0  0  0  0  0  0  0  0  0  0  0
  145.8088  134.2130  151.8397 C   0  0  0  0  0  0  0  0  0  0  0  0
  145.3026  135.3284  151.1355 C   0  0  0  0  0  0  0  0  0  0  0  0
  144.0873  135.2145  150.4302 C   0  0  0  0  0  0  0  0  0  0  0  0
  143.4209  134.0404  150.4249 N   0  3  0  0  0  0  0  0  0  0  0  0
  143.8703  132.9433  151.0708 C   0  0  0  0  0  0  0  0  0  0  0  0
  145.0802  132.9966  151.7929 C   0  0  0  0  0  0  0  0  0  0  0  0
  149.1410  134.8990  153.4168 H   0  0  0  0  0  0  0  0  0  0  0  0
  149.1039  132.5953  155.3060 H   0  0  0  0  0  0  0  0  0  0  0  0
  150.5280  133.1390  154.4517 H   0  0  0  0  0  0  0  0  0  0  0  0
  149.2807  134.2624  156.8934 H   0  0  0  0  0  0  0  0  0  0  0  0
  150.9539  134.3606  156.4025 H   0  0  0  0  0  0  0  0  0  0  0  0
  148.5840  136.4382  157.3362 H   0  0  0  0  0  0  0  0  0  0  0  0
  150.3065  136.7303  157.4854 H   0  0  0  0  0  0  0  0  0  0  0  0
  148.3499  138.3290  155.7432 H   0  0  0  0  0  0  0  0  0  0  0  0
  149.0700  138.8722  157.2306 H   0  0  0  0  0  0  0  0  0  0  0  0
  150.7362  139.7247  158.1296 H   0  0  0  0  0  0  0  0  0  0  0  0
  149.2792  141.5096  156.3038 H   0  0  0  0  0  0  0  0  0  0  0  0
  149.2952  141.5865  158.0961 H   0  0  0  0  0  0  0  0  0  0  0  0
  151.2575  142.8908  156.1499 H   0  0  0  0  0  0  0  0  0  0  0  0
  150.8951  143.3877  157.8480 H   0  0  0  0  0  0  0  0  0  0  0  0
  152.1950  141.5314  158.7266 H   0  0  0  0  0  0  0  0  0  0  0  0
  152.9336  141.4318  157.0870 H   0  0  0  0  0  0  0  0  0  0  0  0
  149.6178  137.9583  153.7729 H   0  0  0  0  0  0  0  0  0  0  0  0
  151.3236  138.2315  153.6749 H   0  0  0  0  0  0  0  0  0  0  0  0
  151.7597  136.3258  155.2359 H   0  0  0  0  0  0  0  0  0  0  0  0
  150.8528  135.8131  153.8279 H   0  0  0  0  0  0  0  0  0  0  0  0
  147.5771  135.1937  152.2617 H   0  0  0  0  0  0  0  0  0  0  0  0
  145.8359  136.2681  151.1367 H   0  0  0  0  0  0  0  0  0  0  0  0
  143.6329  136.0209  149.8730 H   0  0  0  0  0  0  0  0  0  0  0  0
  143.2557  132.0587  150.9867 H   0  0  0  0  0  0  0  0  0  0  0  0
  145.4269  132.1002  152.2834 H   0  0  0  0  0  0  0  0  0  0  0  0
  148.8691  135.9088  155.0891 H   0  0  0  0  0  0  0  0  0  0  0  0
  142.5433  133.9782  149.9077 H   0  0  0  0  0  0  0  0  0  0  0  0
  1  2  2  0  0  0  0
  2  3  1  0  0  0  0
  2 18  1  0  0  0  0
  3  4  1  0  0  0  0
  3 25  1  0  0  0  0
  4  5  1  0  0  0  0
  4 26  1  0  0  0  0
  4 27  1  0  0  0  0
  5  6  1  0  0  0  0
  5 28  1  0  0  0  0
  5 29  1  0  0  0  0
  6 17  1  0  0  0  0
  6  7  1  0  0  0  0
  6 50  1  0  0  0  0
  7  8  1  0  0  0  0
  7 30  1  0  0  0  0
  7 31  1  0  0  0  0
  8  9  1  0  0  0  0
  8 32  1  0  0  0  0
  8 33  1  0  0  0  0
  9 10  1  0  0  0  0
  9 16  1  0  0  0  0
 10 11  2  0  0  0  0
 10 12  1  0  0  0  0
 12 15  1  0  0  0  0
 12 13  1  0  0  0  0
 12 34  1  0  0  0  0
 13 14  1  0  0  0  0
 13 35  1  0  0  0  0
 13 36  1  0  0  0  0
 14 15  1  0  0  0  0
 14 37  1  0  0  0  0
 14 38  1  0  0  0  0
 15 39  1  0  0  0  0
 15 40  1  0  0  0  0
 16 17  1  0  0  0  0
 16 41  1  0  0  0  0
 16 42  1  0  0  0  0
 17 43  1  0  0  0  0
 17 44  1  0  0  0  0
 18 19  1  0  0  0  0
 18 45  1  0  0  0  0
 19 24  1  0  0  0  0
 19 20  2  0  0  0  0
 20 21  1  0  0  0  0
 20 46  1  0  0  0  0
 21 22  2  0  0  0  0
 21 47  1  0  0  0  0
 22 23  1  0  0  0  0
 22 51  1  0  0  0  0
 23 24  2  0  0  0  0
 23 48  1  0  0  0  0
 24 49  1  0  0  0  0
M  CHG  1   6   1
M  CHG  1  22   1
M  END
> <s_m_source_file>
AV-unprocessed.smi

> <i_m_source_file_index>
769

> <i_lp_mmshare_version>
43012

> <i_f3d_flags>
0

> <s_epik_input>
W2NIXTFbY0hdbltjSF1bY0hdYzFbTkhdQyg9TylbTkhdW0NIMl1bQ0gyXU4yW0NIMl1bQ0gyXU4oW0NIMl1bQ0gyXTIpQyg9TylbQ0hdM1tDSDJdW0NIMl1bQ0gyXTM=

> <s_epik_cmdline>
J2VwaWtfcHl0aG9uJywgJy1waCcsICc3LjAnLCAnLXRuJywgJzgnLCAnLW1hJywgJzIwMCcsICctbWV0YWxfYmluZGluZycsICctaW1hZScsICc8aW5maWxlLm1hZT4nLCAnLW9tYWUnLCAnPG91dGZpbGUubWFlPic=

> <r_epik_Ionization_Penalty>
1.74797

> <r_epik_Ionization_Penalty_Charging>
1.74795

> <r_epik_Ionization_Penalty_Neutral>
1.97893e-05

> <r_epik_State_Penalty>
1.75255

> <r_epik_Charging_Adjusted_Penalty>
3.5005

> <i_epik_Tot_Q>
2

> <i_epik_Tot_abs_Q>
2

> <r_epik_Metal_State_Penalty>
1.84999

> <b_epik_Metal_Only>
0

> <s_lp_Force_Field>
OPLS_2005

> <r_lp_Energy>
63.8018

> <b_lp_Chiralities_Consistent>
1

> <s_lp_Variant>
AV-unprocessed.smi:769-4

> <Gold.Version>
5.8.1

> <Gold.Id.Protein>
6NUR|6NUR_protein|mol2

> <Gold.PLP.Fitness>
50.5141

> <Gold.PLP.PLP>
-37.5099

> <Gold.PLP.part.hbond>
-4.4996

> <Gold.PLP.part.metal>
0.0000

> <Gold.PLP.part.buried>
-6.2115

> <Gold.PLP.part.nonpolar>
-28.3637

> <Gold.PLP.part.repulsive>
0.1393

> <Gold.PLP.ligand.clash>
0.0000

> <Gold.PLP.ligand.torsion>
0.8215

> <Gold.PLP.Chemscore.Hbond>
4.7320

> <Gold.PLP.Chemscore.CHOScore>
0.0000

> <Gold.PLP.Chemscore.Metal>
0.0000

> <Gold.Chemscore.Hbonds>
donor molecule, donor type, donor heavy atom, donor atom, acceptor molecule, acceptor atom, score
      L1  H     3    25       P1  7948  0.80
      L1  H    18    45       P1  7948  1.00
      L1  H    22    51       P1 10186  2.00
      P1  H  7989  7998       L1    11  0.43
      P1  H  7997  8010       L1    11  0.57

> <Gold.PLP.Chemscore.Internal.Correction>
0.4513

> <Gold.Rescore>
     Score         DG    S(hbond)    S(metal)    S(lipo)     H(rot)  DE(clash)    DE(int)     intcor
     18.85     -20.95       3.05        0.00      83.62       1.76       0.10       1.99       ----

> <Gold.Chemscore.Fitness>
18.8503

> <Gold.Chemscore.DG>
-20.9475

> <Gold.Chemscore.ZeroCoef>
-5.4800

> <Gold.Chemscore.Hbond>
3.0517

> <Gold.Chemscore.Metal>
0.0000

> <Gold.Chemscore.Lipo>
83.6223

> <Gold.Chemscore.Internal_Hbond>
0.0000

> <Gold.Chemscore.DEClash>
0.1047

> <Gold.Chemscore.DEInternal>
1.9926

> <Gold.Chemscore.Rot>
1.7614

> <Gold.Chemscore.Internal.Correction>
   9.000000E+99

> <Gold.Chemscore.Hbonds>
donor molecule, donor type, donor heavy atom, donor atom, acceptor molecule, acceptor atom, score
      L1  H     3    25       P1  7948  0.13
      L1  H    18    45       P1  7948  0.98
      L1  H    22    51       P1 10186  0.97
      P1  H  7989  7998       L1    11  0.28
      P1  H  7997  8010       L1    11  0.56

> <Gold.Chemscore.Hbond.Weighted>
-10.1928

> <Gold.Chemscore.Metal.Weighted>
-0.0000

> <Gold.Chemscore.Lipo.Weighted>
-9.7838

> <Gold.Chemscore.Internal_Hbond.Weighted>
0.0000

> <Gold.Chemscore.DEClash.Weighted>
0.1047

> <Gold.Chemscore.DEInternal.Weighted>
1.9926

> <Gold.Chemscore.Rot.Weighted>
4.5091

> <Gold.Chemscore.Internal.Correction.Weighted>
   9.000000E+99

> <Gold.Protein.RotatedTorsions>
[ 6907 6896 6895 6894 ] final  164.36 input  -60.11 | X-H torsion
[ 7974 7965 7964 7962 ] final -127.87 input  175.53 | X-H torsion
[ 8008 7997 7996 7995 ] final   97.03 input   59.86 | X-H torsion
[ 10167 10162 10161 10158 ] final -150.32 input  -65.29 | X-H torsion
[ 10718 10713 10712 10709 ] final   70.98 input   66.30 | X-H torsion
[ 10763 10752 10751 10750 ] final -137.10 input  -60.55 | X-H torsion
[ 11005 11000 10999 10996 ] final   35.99 input  -57.11 | X-H torsion

> <Gold.Protein.ActiveResidues>
 VAL166  LYS551  ARG553  GLY616  TRP617  ASP618  TYR619  PRO620  LYS621  CYS622 
 ASP623  PHE694  ASN695  SER759  ASP760  ASP761  ALA762  ILE779  LEU786  VAL792 
 PHE793  MET794  SER795  GLU796  ALA797  LYS798  CYS799  TRP800  GLU811  SER814 

> <Gold.Protein.RotatedAtoms>
  151.9111  133.3561  159.3863 H   0  0  0  0  0  0  0  0  0  0  0  0  # atno 6907 bound_to 6896
  150.7058  134.4731  159.5444 H   0  0  0  0  0  0  0  0  0  0  0  0  # atno 6908 bound_to 6896
  152.2337  134.8297  160.0521 H   0  0  0  0  0  0  0  0  0  0  0  0  # atno 6909 bound_to 6896
  144.9728  140.7562  143.4660 H   0  0  0  0  0  0  0  0  0  0  0  0  # atno 7974 bound_to 7965
  156.0859  140.3264  155.7753 H   0  0  0  0  0  0  0  0  0  0  0  0  # atno 8008 bound_to 7997
  155.5077  140.0574  157.2946 H   0  0  0  0  0  0  0  0  0  0  0  0  # atno 8009 bound_to 7997
  154.4609  140.1966  156.0265 H   0  0  0  0  0  0  0  0  0  0  0  0  # atno 8010 bound_to 7997
  139.7365  143.8728  152.2550 H   0  0  0  0  0  0  0  0  0  0  0  0  # atno 10167 bound_to 10162
  157.6428  130.9505  150.0726 H   0  0  0  0  0  0  0  0  0  0  0  0  # atno 10718 bound_to 10713
  154.8669  135.3652  154.5168 H   0  0  0  0  0  0  0  0  0  0  0  0  # atno 10763 bound_to 10752
  153.5801  135.7018  153.5472 H   0  0  0  0  0  0  0  0  0  0  0  0  # atno 10764 bound_to 10752
  153.3465  135.4083  155.1575 H   0  0  0  0  0  0  0  0  0  0  0  0  # atno 10765 bound_to 10752
  140.2371  134.3459  155.7940 H   0  0  0  0  0  0  0  0  0  0  0  0  # atno 11005 bound_to 11000
  145.2534  139.2022  143.4930 LP  0  0  0  0  0  0  0  0  0  0  0  0  # atno 17320 bound_to 7965
  146.3387  140.2452  142.8597 LP  0  0  0  0  0  0  0  0  0  0  0  0  # atno 17321 bound_to 7965
  139.8666  144.7090  150.9036 LP  0  0  0  0  0  0  0  0  0  0  0  0  # atno 17342 bound_to 10162
  140.7779  143.3773  151.1541 LP  0  0  0  0  0  0  0  0  0  0  0  0  # atno 17343 bound_to 10162
  156.1725  130.3647  149.9145 LP  0  0  0  0  0  0  0  0  0  0  0  0  # atno 17370 bound_to 10713
  156.7117  130.8972  151.3610 LP  0  0  0  0  0  0  0  0  0  0  0  0  # atno 17371 bound_to 10713
  141.2213  133.7278  156.8825 LP  0  0  0  0  0  0  0  0  0  0  0  0  # atno 17394 bound_to 11000
  140.1691  134.9112  157.2811 LP  0  0  0  0  0  0  0  0  0  0  0  0  # atno 17395 bound_to 11000

$$$$
