AV-unprocessed.smi:204|AV-procd|sdf|1598|dock6
  -GOLD-   2262019503D 1   1.00000     0.00000
 Structure written by MMmdl.
 53 56  0  0  0  0  0  0  0  0  1 V2000
  155.9105  133.9089  157.0637 C   0  0  0  0  0  0  0  0  0  0  0  0
  155.0560  134.4150  158.2212 C   0  0  0  0  0  0  0  0  0  0  0  0
  153.9859  133.8680  158.4857 O   0  0  0  0  0  0  0  0  0  0  0  0
  155.5413  135.4622  158.9024 N   0  0  0  0  0  0  0  0  0  0  0  0
  154.8743  136.0912  160.0358 C   0  0  0  0  0  0  0  0  0  0  0  0
  154.5754  137.5771  159.7631 C   0  0  2  0  0  0  0  0  0  0  0  0
  154.0731  138.3215  161.0197 C   0  0  0  0  0  0  0  0  0  0  0  0
  153.7436  139.7861  160.6907 C   0  0  0  0  0  0  0  0  0  0  0  0
  152.7527  139.8774  159.5201 C   0  0  0  0  0  0  0  0  0  0  0  0
  153.2551  139.1379  158.3668 N   0  0  0  0  0  0  0  0  0  0  0  0
  152.5389  139.3547  157.2441 C   0  0  0  0  0  0  0  0  0  0  0  0
  152.7836  138.5422  156.1875 N   0  0  0  0  0  0  0  0  0  0  0  0
  152.1068  138.7099  155.0472 C   0  0  0  0  0  0  0  0  0  0  0  0
  151.1661  139.6124  154.7591 N   0  0  0  0  0  0  0  0  0  0  0  0
  150.9241  140.4357  155.8192 C   0  0  0  0  0  0  0  0  0  0  0  0
  151.5592  140.3758  157.0918 C   0  0  0  0  0  0  0  0  0  0  0  0
  151.0555  141.3700  157.9215 N   0  0  0  0  0  0  0  0  0  0  0  0
  150.1689  141.9796  157.1833 C   0  0  0  0  0  0  0  0  0  0  0  0
  150.0329  141.4917  155.9026 N   0  0  0  0  0  0  0  0  0  0  0  0
  149.1262  141.9888  154.8786 C   0  0  0  0  0  0  0  0  0  0  0  0
  147.8933  141.0932  154.6334 C   0  0  0  0  0  0  0  0  0  0  0  0
  147.0188  141.0027  155.8967 C   0  0  0  0  0  0  0  0  0  0  0  0
  146.9442  142.2463  156.5646 O   0  0  0  0  0  0  0  0  0  0  0  0
  147.1088  141.3667  153.3416 C   0  0  0  0  0  0  0  0  0  0  0  0
  147.1467  139.9759  152.9588 O   0  0  0  0  0  0  0  0  0  0  0  0
  148.1732  139.7488  153.9476 C   0  0  0  0  0  0  0  0  0  0  0  0
  153.5508  137.7302  158.6213 C   0  0  0  0  0  0  0  0  0  0  0  0
  156.0321  134.6883  156.3110 H   0  0  0  0  0  0  0  0  0  0  0  0
  155.4473  133.0441  156.5878 H   0  0  0  0  0  0  0  0  0  0  0  0
  156.8979  133.6140  157.4198 H   0  0  0  0  0  0  0  0  0  0  0  0
  156.4290  135.8499  158.6173 H   0  0  0  0  0  0  0  0  0  0  0  0
  153.9447  135.5555  160.2347 H   0  0  0  0  0  0  0  0  0  0  0  0
  155.4958  135.9921  160.9276 H   0  0  0  0  0  0  0  0  0  0  0  0
  155.5037  138.0508  159.4386 H   0  0  0  0  0  0  0  0  0  0  0  0
  153.1826  137.8269  161.4104 H   0  0  0  0  0  0  0  0  0  0  0  0
  154.8203  138.2891  161.8130 H   0  0  0  0  0  0  0  0  0  0  0  0
  153.3323  140.2846  161.5687 H   0  0  0  0  0  0  0  0  0  0  0  0
  154.6610  140.3167  160.4329 H   0  0  0  0  0  0  0  0  0  0  0  0
  151.7855  139.4718  159.8204 H   0  0  0  0  0  0  0  0  0  0  0  0
  152.5928  140.9224  159.2503 H   0  0  0  0  0  0  0  0  0  0  0  0
  152.3551  138.0234  154.2512 H   0  0  0  0  0  0  0  0  0  0  0  0
  149.5907  142.8144  157.5524 H   0  0  0  0  0  0  0  0  0  0  0  0
  148.8180  142.9946  155.1669 H   0  0  0  0  0  0  0  0  0  0  0  0
  149.6933  142.1136  153.9555 H   0  0  0  0  0  0  0  0  0  0  0  0
  146.0109  140.6574  155.6663 H   0  0  0  0  0  0  0  0  0  0  0  0
  147.4317  140.2744  156.5959 H   0  0  0  0  0  0  0  0  0  0  0  0
  147.5773  142.8327  156.1786 H   0  0  0  0  0  0  0  0  0  0  0  0
  146.0946  141.7332  153.5051 H   0  0  0  0  0  0  0  0  0  0  0  0
  147.6361  141.9913  152.6195 H   0  0  0  0  0  0  0  0  0  0  0  0
  149.1633  139.6804  153.4938 H   0  0  0  0  0  0  0  0  0  0  0  0
  147.9705  138.8776  154.5717 H   0  0  0  0  0  0  0  0  0  0  0  0
  153.9375  137.2702  157.7106 H   0  0  0  0  0  0  0  0  0  0  0  0
  152.6318  137.2029  158.8796 H   0  0  0  0  0  0  0  0  0  0  0  0
  1  2  1  0  0  0  0
  1 28  1  0  0  0  0
  1 29  1  0  0  0  0
  1 30  1  0  0  0  0
  2  3  2  0  0  0  0
  2  4  1  0  0  0  0
  4  5  1  0  0  0  0
  4 31  1  0  0  0  0
  5  6  1  0  0  0  0
  5 32  1  0  0  0  0
  5 33  1  0  0  0  0
  6 27  1  0  0  0  0
  6  7  1  0  0  0  0
  6 34  1  0  0  0  0
  7  8  1  0  0  0  0
  7 35  1  0  0  0  0
  7 36  1  0  0  0  0
  8  9  1  0  0  0  0
  8 37  1  0  0  0  0
  8 38  1  0  0  0  0
  9 10  1  0  0  0  0
  9 39  1  0  0  0  0
  9 40  1  0  0  0  0
 10 11  1  0  0  0  0
 10 27  1  0  0  0  0
 11 16  1  0  0  0  0
 11 12  2  0  0  0  0
 12 13  1  0  0  0  0
 13 14  2  0  0  0  0
 13 41  1  0  0  0  0
 14 15  1  0  0  0  0
 15 19  1  0  0  0  0
 15 16  2  0  0  0  0
 16 17  1  0  0  0  0
 17 18  2  0  0  0  0
 18 19  1  0  0  0  0
 18 42  1  0  0  0  0
 19 20  1  0  0  0  0
 20 21  1  0  0  0  0
 20 43  1  0  0  0  0
 20 44  1  0  0  0  0
 21 26  1  0  0  0  0
 21 22  1  0  0  0  0
 21 24  1  0  0  0  0
 22 23  1  0  0  0  0
 22 45  1  0  0  0  0
 22 46  1  0  0  0  0
 23 47  1  0  0  0  0
 24 25  1  0  0  0  0
 24 48  1  0  0  0  0
 24 49  1  0  0  0  0
 25 26  1  0  0  0  0
 26 50  1  0  0  0  0
 26 51  1  0  0  0  0
 27 52  1  0  0  0  0
 27 53  1  0  0  0  0
M  END
> <s_m_source_file>
AV-unprocessed.smi

> <i_m_source_file_index>
204

> <i_lp_mmshare_version>
43012

> <i_f3d_flags>
0

> <s_epik_input>
W0NIM11DKD1PKVtOSF1bQ0gyXVtDQEBIXTFbQ0gyXVtDSDJdW0NIMl1OKFtDSDJdMSljKG5bY0hdbjIpYyhjMjMpbltjSF1uM1tDSDJdQzQoW0NIMl1bT0hdKVtDSDJdT1tDSDJdNA==

> <s_epik_cmdline>
J2VwaWtfcHl0aG9uJywgJy1waCcsICc3LjAnLCAnLXRuJywgJzgnLCAnLW1hJywgJzIwMCcsICctbWV0YWxfYmluZGluZycsICctaW1hZScsICc8aW5maWxlLm1hZT4nLCAnLW9tYWUnLCAnPG91dGZpbGUubWFlPic=

> <r_lp_tautomer_probability>
1

> <r_epik_Ionization_Penalty>
0.00166599

> <r_epik_Ionization_Penalty_Charging>
0

> <r_epik_Ionization_Penalty_Neutral>
0.00166599

> <r_epik_State_Penalty>
0.000989951

> <r_epik_Charging_Adjusted_Penalty>
0.000989951

> <i_epik_Tot_Q>
0

> <i_epik_Tot_abs_Q>
0

> <r_epik_Metal_State_Penalty>
-0

> <b_epik_Metal_Only>
0

> <s_lp_Force_Field>
OPLS_2005

> <r_lp_Energy>
36.8691

> <b_lp_Chiralities_Consistent>
1

> <s_lp_Variant>
AV-unprocessed.smi:204-1

> <Gold.Version>
5.8.1

> <Gold.Id.Protein>
6NUR|6NUR_protein|mol2

> <Gold.PLP.Fitness>
44.6610

> <Gold.PLP.PLP>
-34.1755

> <Gold.PLP.part.hbond>
-4.7794

> <Gold.PLP.part.metal>
0.0000

> <Gold.PLP.part.buried>
1.0788

> <Gold.PLP.part.nonpolar>
-29.3862

> <Gold.PLP.part.repulsive>
0.3447

> <Gold.PLP.ligand.clash>
0.0000

> <Gold.PLP.ligand.torsion>
1.1096

> <Gold.PLP.Chemscore.Hbond>
3.1928

> <Gold.PLP.Chemscore.CHOScore>
0.8466

> <Gold.PLP.Chemscore.Metal>
0.0000

> <Gold.Chemscore.Hbonds>
donor molecule, donor type, donor heavy atom, donor atom, acceptor molecule, acceptor atom, score
      L1  H    23    47       P1  8028  0.25
      P1  H  6896  6909       L1     3  0.83
      P1  H  7989  7998       L1    14  1.00
      P1  H  7997  8008       L1    10  0.15
      L1  C    18    42       P1  8028  0.29

> <Gold.PLP.Chemscore.Internal.Correction>
0.5866

> <Gold.Rescore>
     Score         DG    S(hbond)    S(metal)    S(lipo)     H(rot)  DE(clash)    DE(int)     intcor
      6.51     -10.08       1.49        0.00      69.50       3.33       0.87       2.69       ----

> <Gold.Chemscore.Fitness>
6.5147

> <Gold.Chemscore.DG>
-10.0807

> <Gold.Chemscore.ZeroCoef>
-5.4800

> <Gold.Chemscore.Hbond>
1.4922

> <Gold.Chemscore.Metal>
0.0000

> <Gold.Chemscore.Lipo>
69.4994

> <Gold.Chemscore.Internal_Hbond>
0.0000

> <Gold.Chemscore.DEClash>
0.8738

> <Gold.Chemscore.DEInternal>
2.6921

> <Gold.Chemscore.Rot>
3.3261

> <Gold.Chemscore.Internal.Correction>
   9.000000E+99

> <Gold.Chemscore.Hbonds>
donor molecule, donor type, donor heavy atom, donor atom, acceptor molecule, acceptor atom, score
      L1  H    23    47       P1  8028  0.06
      P1  H  6896  6909       L1     3  0.83
      P1  H  7989  7998       L1    14  0.23

> <Gold.Chemscore.Hbond.Weighted>
-4.9841

> <Gold.Chemscore.Metal.Weighted>
-0.0000

> <Gold.Chemscore.Lipo.Weighted>
-8.1314

> <Gold.Chemscore.Internal_Hbond.Weighted>
0.0000

> <Gold.Chemscore.DEClash.Weighted>
0.8738

> <Gold.Chemscore.DEInternal.Weighted>
2.6921

> <Gold.Chemscore.Rot.Weighted>
8.5149

> <Gold.Chemscore.Internal.Correction.Weighted>
   9.000000E+99

> <Gold.Protein.RotatedTorsions>
[ 6907 6896 6895 6894 ] final -147.32 input  -60.11 | X-H torsion
[ 7974 7965 7964 7962 ] final -145.08 input  175.53 | X-H torsion
[ 8008 7997 7996 7995 ] final -113.21 input   59.86 | X-H torsion
[ 10167 10162 10161 10158 ] final -166.22 input  -65.29 | X-H torsion
[ 10718 10713 10712 10709 ] final -117.71 input   66.30 | X-H torsion
[ 10763 10752 10751 10750 ] final -164.68 input  -60.55 | X-H torsion
[ 11005 11000 10999 10996 ] final -160.65 input  -57.11 | X-H torsion

> <Gold.Protein.ActiveResidues>
 VAL166  LYS551  ARG553  GLY616  TRP617  ASP618  TYR619  PRO620  LYS621  CYS622 
 ASP623  PHE694  ASN695  SER759  ASP760  ASP761  ALA762  ILE779  LEU786  VAL792 
 PHE793  MET794  SER795  GLU796  ALA797  LYS798  CYS799  TRP800  GLU811  SER814 

> <Gold.Protein.RotatedAtoms>
  151.1539  133.4889  159.2594 H   0  0  0  0  0  0  0  0  0  0  0  0  # atno 6907 bound_to 6896
  151.1524  135.0233  159.8684 H   0  0  0  0  0  0  0  0  0  0  0  0  # atno 6908 bound_to 6896
  152.5463  134.1422  159.8537 H   0  0  0  0  0  0  0  0  0  0  0  0  # atno 6909 bound_to 6896
  144.8252  140.5629  143.5551 H   0  0  0  0  0  0  0  0  0  0  0  0  # atno 7974 bound_to 7965
  155.0172  140.0393  157.2423 H   0  0  0  0  0  0  0  0  0  0  0  0  # atno 8008 bound_to 7997
  154.7409  140.2748  155.6351 H   0  0  0  0  0  0  0  0  0  0  0  0  # atno 8009 bound_to 7997
  156.2864  140.2666  156.2136 H   0  0  0  0  0  0  0  0  0  0  0  0  # atno 8010 bound_to 7997
  139.6129  144.0778  152.1860 H   0  0  0  0  0  0  0  0  0  0  0  0  # atno 10167 bound_to 10162
  156.1054  130.6206  150.9199 H   0  0  0  0  0  0  0  0  0  0  0  0  # atno 10718 bound_to 10713
  154.7005  135.2987  154.9348 H   0  0  0  0  0  0  0  0  0  0  0  0  # atno 10763 bound_to 10752
  154.0282  135.6673  153.4782 H   0  0  0  0  0  0  0  0  0  0  0  0  # atno 10764 bound_to 10752
  153.0677  135.5078  154.8146 H   0  0  0  0  0  0  0  0  0  0  0  0  # atno 10765 bound_to 10752
  140.6292  134.4669  157.5228 H   0  0  0  0  0  0  0  0  0  0  0  0  # atno 11005 bound_to 11000
  145.5015  139.1483  143.3654 LP  0  0  0  0  0  0  0  0  0  0  0  0  # atno 17320 bound_to 7965
  146.2558  140.5155  142.8874 LP  0  0  0  0  0  0  0  0  0  0  0  0  # atno 17321 bound_to 7965
  140.0401  144.6014  150.7418 LP  0  0  0  0  0  0  0  0  0  0  0  0  # atno 17342 bound_to 10162
  140.7331  143.2714  151.3878 LP  0  0  0  0  0  0  0  0  0  0  0  0  # atno 17343 bound_to 10162
  157.6230  131.0928  150.8587 LP  0  0  0  0  0  0  0  0  0  0  0  0  # atno 17370 bound_to 10713
  156.8707  130.5145  149.5297 LP  0  0  0  0  0  0  0  0  0  0  0  0  # atno 17371 bound_to 10713
  139.9123  134.8319  156.1486 LP  0  0  0  0  0  0  0  0  0  0  0  0  # atno 17394 bound_to 11000
  141.0688  133.6807  156.2098 LP  0  0  0  0  0  0  0  0  0  0  0  0  # atno 17395 bound_to 11000

$$$$
