AV-unprocessed.smi:1517|AV-procd|sdf|6120|dock2
  -GOLD-   22720 6253D 1   1.00000     0.00000
 Structure written by MMmdl.
 42 44  0  0  0  0  0  0  0  0  2 V2000
  146.8074  137.5011  151.1834 O   0  0  0  0  0  0  0  0  0  0  0  0
  146.1905  138.1881  152.2490 C   0  0  0  0  0  0  0  0  0  0  0  0
  147.1058  139.3231  152.7201 C   0  0  0  0  0  0  0  0  0  0  0  0
  148.4567  138.8478  152.9672 N   0  0  0  0  0  0  0  0  0  0  0  0
  149.1559  139.3915  154.0500 C   0  0  0  0  0  0  0  0  0  0  0  0
  148.8812  140.5713  154.6676 N   0  3  0  0  0  0  0  0  0  0  0  0
  149.7920  140.7418  155.7143 C   0  0  0  0  0  0  0  0  0  0  0  0
  149.9296  141.7719  156.6395 C   0  0  0  0  0  0  0  0  0  0  0  0
  150.9627  141.6361  157.5900 C   0  0  0  0  0  0  0  0  0  0  0  0
  151.8111  140.5097  157.5990 C   0  0  0  0  0  0  0  0  0  0  0  0
  151.6654  139.4702  156.6568 C   0  0  0  0  0  0  0  0  0  0  0  0
  150.6445  139.6113  155.7178 C   0  0  0  0  0  0  0  0  0  0  0  0
  150.2139  138.7986  154.6619 N   0  0  0  0  0  0  0  0  0  0  0  0
  150.8838  137.5148  154.4063 C   0  0  0  0  0  0  0  0  0  0  0  0
  150.7168  136.5236  155.5755 C   0  0  2  0  0  0  0  0  0  0  0  0
  152.0052  136.1379  156.0083 O   0  0  0  0  0  0  0  0  0  0  0  0
  149.8480  135.3295  155.1940 C   0  0  0  0  0  0  0  0  0  0  0  0
  150.4208  134.0444  155.0613 C   0  0  0  0  0  0  0  0  0  0  0  0
  149.6269  132.9468  154.6772 C   0  0  0  0  0  0  0  0  0  0  0  0
  148.2553  133.1264  154.4178 C   0  0  0  0  0  0  0  0  0  0  0  0
  147.4933  132.0724  154.0413 F   0  0  0  0  0  0  0  0  0  0  0  0
  147.6777  134.4036  154.5452 C   0  0  0  0  0  0  0  0  0  0  0  0
  148.4693  135.5029  154.9311 C   0  0  0  0  0  0  0  0  0  0  0  0
  147.9004  136.7287  155.0295 F   0  0  0  0  0  0  0  0  0  0  0  0
  147.3187  136.7902  151.5395 H   0  0  0  0  0  0  0  0  0  0  0  0
  145.2307  138.5791  151.9102 H   0  0  0  0  0  0  0  0  0  0  0  0
  145.9927  137.4866  153.0601 H   0  0  0  0  0  0  0  0  0  0  0  0
  147.1356  140.1134  151.9688 H   0  0  0  0  0  0  0  0  0  0  0  0
  146.7085  139.7608  153.6371 H   0  0  0  0  0  0  0  0  0  0  0  0
  148.7055  137.9235  152.6447 H   0  0  0  0  0  0  0  0  0  0  0  0
  149.2798  142.6348  156.6380 H   0  0  0  0  0  0  0  0  0  0  0  0
  151.1062  142.4114  158.3289 H   0  0  0  0  0  0  0  0  0  0  0  0
  152.5899  140.4405  158.3446 H   0  0  0  0  0  0  0  0  0  0  0  0
  152.3192  138.6107  156.6741 H   0  0  0  0  0  0  0  0  0  0  0  0
  150.4742  137.0979  153.4851 H   0  0  0  0  0  0  0  0  0  0  0  0
  151.9380  137.7140  154.2088 H   0  0  0  0  0  0  0  0  0  0  0  0
  150.2590  137.0407  156.4192 H   0  0  0  0  0  0  0  0  0  0  0  0
  152.2982  136.7515  156.6648 H   0  0  0  0  0  0  0  0  0  0  0  0
  151.4750  133.8963  155.2447 H   0  0  0  0  0  0  0  0  0  0  0  0
  150.0720  131.9679  154.5757 H   0  0  0  0  0  0  0  0  0  0  0  0
  146.6260  134.5415  154.3412 H   0  0  0  0  0  0  0  0  0  0  0  0
  148.1353  141.2000  154.3992 H   0  0  0  0  0  0  0  0  0  0  0  0
  1  2  1  0  0  0  0
  1 25  1  0  0  0  0
  2  3  1  0  0  0  0
  2 26  1  0  0  0  0
  2 27  1  0  0  0  0
  3  4  1  0  0  0  0
  3 28  1  0  0  0  0
  3 29  1  0  0  0  0
  4  5  1  0  0  0  0
  4 30  1  0  0  0  0
  5 13  1  0  0  0  0
  5  6  2  0  0  0  0
  6  7  1  0  0  0  0
  6 42  1  0  0  0  0
  7 12  2  0  0  0  0
  7  8  1  0  0  0  0
  8  9  2  0  0  0  0
  8 31  1  0  0  0  0
  9 10  1  0  0  0  0
  9 32  1  0  0  0  0
 10 11  2  0  0  0  0
 10 33  1  0  0  0  0
 11 12  1  0  0  0  0
 11 34  1  0  0  0  0
 12 13  1  0  0  0  0
 13 14  1  0  0  0  0
 14 15  1  0  0  0  0
 14 35  1  0  0  0  0
 14 36  1  0  0  0  0
 15 16  1  0  0  0  0
 15 17  1  0  0  0  0
 15 37  1  0  0  0  0
 16 38  1  0  0  0  0
 17 23  1  0  0  0  0
 17 18  2  0  0  0  0
 18 19  1  0  0  0  0
 18 39  1  0  0  0  0
 19 20  2  0  0  0  0
 19 40  1  0  0  0  0
 20 21  1  0  0  0  0
 20 22  1  0  0  0  0
 22 23  2  0  0  0  0
 22 41  1  0  0  0  0
 23 24  1  0  0  0  0
M  CHG  1   6   1
M  END
> <s_m_source_file>
AV-unprocessed.smi

> <i_m_source_file_index>
1517

> <i_lp_mmshare_version>
43012

> <i_f3d_flags>
0

> <s_epik_input>
W09IXVtDSDJdW0NIMl1bTkhdYyhuMSluKGMoYzEyKVtjSF1bY0hdW2NIXVtjSF0yKVtDSDJdW0NASF0oW09IXSljM1tjSF1bY0hdYyhGKVtjSF1jM0Y=

> <s_epik_cmdline>
J2VwaWtfcHl0aG9uJywgJy1waCcsICc3LjAnLCAnLXRuJywgJzgnLCAnLW1hJywgJzIwMCcsICctbWV0YWxfYmluZGluZycsICctaW1hZScsICc8aW5maWxlLm1hZT4nLCAnLW9tYWUnLCAnPG91dGZpbGUubWFlPic=

> <r_epik_Ionization_Penalty>
0.0688096

> <r_epik_Ionization_Penalty_Charging>
0.0688055

> <r_epik_Ionization_Penalty_Neutral>
4.12262e-06

> <r_epik_State_Penalty>
0.0602293

> <r_epik_Charging_Adjusted_Penalty>
0.129035

> <i_epik_Tot_Q>
1

> <i_epik_Tot_abs_Q>
1

> <r_epik_Metal_State_Penalty>
2.77411

> <b_epik_Metal_Only>
0

> <s_lp_Force_Field>
OPLS_2005

> <r_lp_Energy>
18.8563

> <b_lp_Chiralities_Consistent>
1

> <s_lp_Variant>
AV-unprocessed.smi:1517-1

> <Gold.Version>
5.8.1

> <Gold.Id.Protein>
6NUR|6NUR_protein|mol2

> <Gold.PLP.Fitness>
51.2713

> <Gold.PLP.PLP>
-40.1147

> <Gold.PLP.part.hbond>
-4.6465

> <Gold.PLP.part.metal>
0.0000

> <Gold.PLP.part.buried>
-2.7646

> <Gold.PLP.part.nonpolar>
-33.9538

> <Gold.PLP.part.repulsive>
0.2049

> <Gold.PLP.ligand.clash>
0.0000

> <Gold.PLP.ligand.torsion>
1.1113

> <Gold.PLP.Chemscore.Hbond>
4.4300

> <Gold.PLP.Chemscore.CHOScore>
0.0000

> <Gold.PLP.Chemscore.Metal>
0.0000

> <Gold.Chemscore.Hbonds>
donor molecule, donor type, donor heavy atom, donor atom, acceptor molecule, acceptor atom, score
      L1  H     1    25       P1  7948  0.86
      L1  H     4    30       P1  7948  2.00
      P1  H  7954  7966       L1     1  0.55
      P1  H 10752 10764       L1    16  1.00

> <Gold.PLP.Chemscore.Internal.Correction>
0.0893

> <Gold.Rescore>
     Score         DG    S(hbond)    S(metal)    S(lipo)     H(rot)  DE(clash)    DE(int)     intcor
     15.87     -17.10       2.94        0.00      87.49       3.29       0.15       1.09       ----

> <Gold.Chemscore.Fitness>
15.8674

> <Gold.Chemscore.DG>
-17.1048

> <Gold.Chemscore.ZeroCoef>
-5.4800

> <Gold.Chemscore.Hbond>
2.9355

> <Gold.Chemscore.Metal>
0.0000

> <Gold.Chemscore.Lipo>
87.4877

> <Gold.Chemscore.Internal_Hbond>
0.0000

> <Gold.Chemscore.DEClash>
0.1483

> <Gold.Chemscore.DEInternal>
1.0891

> <Gold.Chemscore.Rot>
3.2874

> <Gold.Chemscore.Internal.Correction>
   9.000000E+99

> <Gold.Chemscore.Hbonds>
donor molecule, donor type, donor heavy atom, donor atom, acceptor molecule, acceptor atom, score
      L1  H     1    25       P1  7948  0.85
      L1  H     4    30       P1  7948  1.00
      P1  H  7954  7966       L1     1  0.03
      P1  H 10752 10764       L1    16  0.86

> <Gold.Chemscore.Hbond.Weighted>
-9.8046

> <Gold.Chemscore.Metal.Weighted>
-0.0000

> <Gold.Chemscore.Lipo.Weighted>
-10.2361

> <Gold.Chemscore.Internal_Hbond.Weighted>
0.0000

> <Gold.Chemscore.DEClash.Weighted>
0.1483

> <Gold.Chemscore.DEInternal.Weighted>
1.0891

> <Gold.Chemscore.Rot.Weighted>
8.4158

> <Gold.Chemscore.Internal.Correction.Weighted>
   9.000000E+99

> <Gold.Protein.RotatedTorsions>
[ 6907 6896 6895 6894 ] final -145.76 input  -60.11 | X-H torsion
[ 7974 7965 7964 7962 ] final  136.61 input  175.53 | X-H torsion
[ 8008 7997 7996 7995 ] final -126.16 input   59.86 | X-H torsion
[ 10167 10162 10161 10158 ] final  102.54 input  -65.29 | X-H torsion
[ 10718 10713 10712 10709 ] final    8.42 input   66.30 | X-H torsion
[ 10763 10752 10751 10750 ] final  -49.58 input  -60.55 | X-H torsion
[ 11005 11000 10999 10996 ] final  141.53 input  -57.11 | X-H torsion

> <Gold.Protein.ActiveResidues>
 VAL166  LYS551  ARG553  GLY616  TRP617  ASP618  TYR619  PRO620  LYS621  CYS622 
 ASP623  PHE694  ASN695  SER759  ASP760  ASP761  ALA762  ILE779  LEU786  VAL792 
 PHE793  MET794  SER795  GLU796  ALA797  LYS798  CYS799  TRP800  GLU811  SER814 

> <Gold.Protein.RotatedAtoms>
  151.1322  133.5029  159.2598 H   0  0  0  0  0  0  0  0  0  0  0  0  # atno 6907 bound_to 6896
  151.1745  135.0332  159.8776 H   0  0  0  0  0  0  0  0  0  0  0  0  # atno 6908 bound_to 6896
  152.5460  134.1181  159.8441 H   0  0  0  0  0  0  0  0  0  0  0  0  # atno 6909 bound_to 6896
  144.9548  139.4777  143.5508 H   0  0  0  0  0  0  0  0  0  0  0  0  # atno 7974 bound_to 7965
  155.2251  140.0423  157.2954 H   0  0  0  0  0  0  0  0  0  0  0  0  # atno 8008 bound_to 7997
  154.5924  140.2430  155.7873 H   0  0  0  0  0  0  0  0  0  0  0  0  # atno 8009 bound_to 7997
  156.2268  140.2952  156.0096 H   0  0  0  0  0  0  0  0  0  0  0  0  # atno 8010 bound_to 7997
  139.7341  144.7028  151.0677 H   0  0  0  0  0  0  0  0  0  0  0  0  # atno 10167 bound_to 10162
  156.9514  130.5898  149.5657 H   0  0  0  0  0  0  0  0  0  0  0  0  # atno 10718 bound_to 10713
  154.0963  135.6570  153.4861 H   0  0  0  0  0  0  0  0  0  0  0  0  # atno 10763 bound_to 10752
  153.0304  135.5214  154.7330 H   0  0  0  0  0  0  0  0  0  0  0  0  # atno 10764 bound_to 10752
  154.6469  135.2996  155.0004 H   0  0  0  0  0  0  0  0  0  0  0  0  # atno 10765 bound_to 10752
  140.0409  134.9305  157.0840 H   0  0  0  0  0  0  0  0  0  0  0  0  # atno 11005 bound_to 11000
  146.3333  139.8658  142.8848 LP  0  0  0  0  0  0  0  0  0  0  0  0  # atno 17320 bound_to 7965
  145.2789  141.0132  143.3729 LP  0  0  0  0  0  0  0  0  0  0  0  0  # atno 17321 bound_to 7965
  140.7776  143.5006  150.9776 LP  0  0  0  0  0  0  0  0  0  0  0  0  # atno 17342 bound_to 10162
  139.8695  143.7211  152.3167 LP  0  0  0  0  0  0  0  0  0  0  0  0  # atno 17343 bound_to 10162
  156.0361  130.5448  150.8657 LP  0  0  0  0  0  0  0  0  0  0  0  0  # atno 17370 bound_to 10713
  157.5719  131.0946  150.9404 LP  0  0  0  0  0  0  0  0  0  0  0  0  # atno 17371 bound_to 10713
  140.4071  134.2020  155.7163 LP  0  0  0  0  0  0  0  0  0  0  0  0  # atno 17394 bound_to 11000
  141.1882  133.8265  157.1003 LP  0  0  0  0  0  0  0  0  0  0  0  0  # atno 17395 bound_to 11000

$$$$
