AV-unprocessed.smi:3349|AV-procd|sdf|12933|dock7
  -GOLD-   2272019363D 1   1.00000     0.00000
 Structure written by MMmdl.
 40 41  0  0  0  0  0  0  0  0  1 V2000
  151.2362  140.5037  157.7655 C   0  0  0  0  0  0  0  0  0  0  0  0
  150.9201  142.0184  157.6566 C   0  0  2  0  0  0  0  0  0  0  0  0
  151.0710  142.4566  156.1735 C   0  0  0  0  0  0  0  0  0  0  0  0
  149.8155  142.3542  155.4391 N   0  0  0  0  0  0  0  0  0  0  0  0
  149.4260  141.2878  154.7241 C   0  0  0  0  0  0  0  0  0  0  0  0
  150.1325  140.2910  154.5697 O   0  0  0  0  0  0  0  0  0  0  0  0
  148.0253  141.3710  154.0929 C   0  0  1  0  0  0  0  0  0  0  0  0
  147.6056  140.0707  153.3770 C   0  0  0  0  0  0  0  0  0  0  0  0
  147.0420  141.7855  155.0875 N   0  0  0  0  0  0  0  0  0  0  0  0
  145.7220  141.9482  154.9735 C   0  0  0  0  0  0  0  0  0  0  0  0
  145.1359  142.3892  156.0777 N   0  0  0  0  0  0  0  0  0  0  0  0
  146.2290  142.4921  156.8903 C   0  0  0  0  0  0  0  0  0  0  0  0
  147.3964  142.1518  156.3447 N   0  0  0  0  0  0  0  0  0  0  0  0
  151.7216  142.8387  158.5945 N   0  0  0  0  0  0  0  0  0  0  0  0
  151.1377  144.1639  158.8339 C   0  0  0  0  0  0  0  0  0  0  0  0
  151.9515  145.0051  159.8327 C   0  0  0  0  0  0  0  0  0  0  0  0
  152.0834  144.2999  161.0589 O   0  0  0  0  0  0  0  0  0  0  0  0
  152.7194  143.0417  160.8834 C   0  0  0  0  0  0  0  0  0  0  0  0
  151.9085  142.1854  159.8953 C   0  0  0  0  0  0  0  0  0  0  0  0
  150.6836  139.9057  157.0414 H   0  0  0  0  0  0  0  0  0  0  0  0
  150.9633  140.0924  158.7363 H   0  0  0  0  0  0  0  0  0  0  0  0
  152.2973  140.3110  157.6041 H   0  0  0  0  0  0  0  0  0  0  0  0
  149.8679  142.1429  157.9182 H   0  0  0  0  0  0  0  0  0  0  0  0
  151.3762  143.4982  156.0879 H   0  0  0  0  0  0  0  0  0  0  0  0
  151.8418  141.8541  155.6892 H   0  0  0  0  0  0  0  0  0  0  0  0
  149.1808  143.1357  155.5120 H   0  0  0  0  0  0  0  0  0  0  0  0
  148.0667  142.1573  153.3375 H   0  0  0  0  0  0  0  0  0  0  0  0
  148.3074  139.8144  152.5826 H   0  0  0  0  0  0  0  0  0  0  0  0
  146.6224  140.1802  152.9189 H   0  0  0  0  0  0  0  0  0  0  0  0
  147.5577  139.2233  154.0625 H   0  0  0  0  0  0  0  0  0  0  0  0
  145.1792  141.7470  154.0615 H   0  0  0  0  0  0  0  0  0  0  0  0
  146.1632  142.8336  157.9129 H   0  0  0  0  0  0  0  0  0  0  0  0
  151.0874  144.7358  157.9096 H   0  0  0  0  0  0  0  0  0  0  0  0
  150.1151  144.0574  159.1993 H   0  0  0  0  0  0  0  0  0  0  0  0
  152.9385  145.2365  159.4287 H   0  0  0  0  0  0  0  0  0  0  0  0
  151.4524  145.9558  160.0215 H   0  0  0  0  0  0  0  0  0  0  0  0
  153.7392  143.1865  160.5235 H   0  0  0  0  0  0  0  0  0  0  0  0
  152.7889  142.5409  161.8491 H   0  0  0  0  0  0  0  0  0  0  0  0
  150.9376  141.9497  160.3338 H   0  0  0  0  0  0  0  0  0  0  0  0
  152.4415  141.2433  159.7796 H   0  0  0  0  0  0  0  0  0  0  0  0
  1  2  1  0  0  0  0
  1 20  1  0  0  0  0
  1 21  1  0  0  0  0
  1 22  1  0  0  0  0
  2  3  1  0  0  0  0
  2 14  1  0  0  0  0
  2 23  1  0  0  0  0
  3  4  1  0  0  0  0
  3 24  1  0  0  0  0
  3 25  1  0  0  0  0
  4  5  1  0  0  0  0
  4 26  1  0  0  0  0
  5  6  2  0  0  0  0
  5  7  1  0  0  0  0
  7  8  1  0  0  0  0
  7  9  1  0  0  0  0
  7 27  1  0  0  0  0
  8 28  1  0  0  0  0
  8 29  1  0  0  0  0
  8 30  1  0  0  0  0
  9 13  1  0  0  0  0
  9 10  1  0  0  0  0
 10 11  2  0  0  0  0
 10 31  1  0  0  0  0
 11 12  1  0  0  0  0
 12 13  2  0  0  0  0
 12 32  1  0  0  0  0
 14 19  1  0  0  0  0
 14 15  1  0  0  0  0
 15 16  1  0  0  0  0
 15 33  1  0  0  0  0
 15 34  1  0  0  0  0
 16 17  1  0  0  0  0
 16 35  1  0  0  0  0
 16 36  1  0  0  0  0
 17 18  1  0  0  0  0
 18 19  1  0  0  0  0
 18 37  1  0  0  0  0
 18 38  1  0  0  0  0
 19 39  1  0  0  0  0
 19 40  1  0  0  0  0
M  END
> <s_m_source_file>
AV-unprocessed.smi

> <i_m_source_file_index>
3349

> <i_lp_mmshare_version>
43012

> <i_f3d_flags>
0

> <s_epik_input>
W0NIMl0xW0NIMl1PW0NIMl1bQ0gyXU4xW0NASF0oW0NIM10pW0NIMl1bTkhdQyg9TylbQ0BIXShbQ0gzXSluMltjSF1uW2NIXW4y

> <s_epik_cmdline>
J2VwaWtfcHl0aG9uJywgJy1waCcsICc3LjAnLCAnLXRuJywgJzgnLCAnLW1hJywgJzIwMCcsICctbWV0YWxfYmluZGluZycsICctaW1hZScsICc8aW5maWxlLm1hZT4nLCAnLW9tYWUnLCAnPG91dGZpbGUubWFlPic=

> <r_lp_tautomer_probability>
1

> <r_epik_Ionization_Penalty>
0.211373

> <r_epik_Ionization_Penalty_Charging>
0

> <r_epik_Ionization_Penalty_Neutral>
0.211373

> <r_epik_State_Penalty>
0.201459

> <r_epik_Charging_Adjusted_Penalty>
0.201459

> <i_epik_Tot_Q>
0

> <i_epik_Tot_abs_Q>
0

> <r_epik_Metal_State_Penalty>
0.201458

> <b_epik_Metal_Only>
0

> <s_lp_Force_Field>
OPLS_2005

> <r_lp_Energy>
35.2026

> <b_lp_Chiralities_Consistent>
1

> <s_lp_Variant>
AV-unprocessed.smi:3349-3

> <Gold.Version>
5.8.1

> <Gold.Id.Protein>
6NUR|6NUR_protein|mol2

> <Gold.PLP.Fitness>
40.8483

> <Gold.PLP.PLP>
-34.1583

> <Gold.PLP.part.hbond>
-2.0000

> <Gold.PLP.part.metal>
0.0000

> <Gold.PLP.part.buried>
-5.2930

> <Gold.PLP.part.nonpolar>
-27.7446

> <Gold.PLP.part.repulsive>
0.8383

> <Gold.PLP.ligand.clash>
0.0000

> <Gold.PLP.ligand.torsion>
1.2184

> <Gold.PLP.Chemscore.Hbond>
1.9920

> <Gold.PLP.Chemscore.CHOScore>
1.0000

> <Gold.PLP.Chemscore.Metal>
0.0000

> <Gold.Chemscore.Hbonds>
donor molecule, donor type, donor heavy atom, donor atom, acceptor molecule, acceptor atom, score
      L1  H     4    26       P1  8028  1.00
      P1  H  7989  7998       L1     6  1.00
      L1  C    10    31       P1 10175  0.88

> <Gold.PLP.Chemscore.Internal.Correction>
0.1508

> <Gold.Rescore>
     Score         DG    S(hbond)    S(metal)    S(lipo)     H(rot)  DE(clash)    DE(int)     intcor
     10.35     -13.15       1.43        0.00      80.65       2.56       0.20       2.60       ----

> <Gold.Chemscore.Fitness>
10.3537

> <Gold.Chemscore.DG>
-13.1532

> <Gold.Chemscore.ZeroCoef>
-5.4800

> <Gold.Chemscore.Hbond>
1.4320

> <Gold.Chemscore.Metal>
0.0000

> <Gold.Chemscore.Lipo>
80.6508

> <Gold.Chemscore.Internal_Hbond>
0.0000

> <Gold.Chemscore.DEClash>
0.2043

> <Gold.Chemscore.DEInternal>
2.5952

> <Gold.Chemscore.Rot>
2.5570

> <Gold.Chemscore.Internal.Correction>
   9.000000E+99

> <Gold.Chemscore.Hbonds>
donor molecule, donor type, donor heavy atom, donor atom, acceptor molecule, acceptor atom, score
      L1  H     4    26       P1  8028  0.95
      P1  H  7989  7998       L1     6  0.47

> <Gold.Chemscore.Hbond.Weighted>
-4.7829

> <Gold.Chemscore.Metal.Weighted>
-0.0000

> <Gold.Chemscore.Lipo.Weighted>
-9.4361

> <Gold.Chemscore.Internal_Hbond.Weighted>
0.0000

> <Gold.Chemscore.DEClash.Weighted>
0.2043

> <Gold.Chemscore.DEInternal.Weighted>
2.5952

> <Gold.Chemscore.Rot.Weighted>
6.5459

> <Gold.Chemscore.Internal.Correction.Weighted>
   9.000000E+99

> <Gold.Protein.RotatedTorsions>
[ 6907 6896 6895 6894 ] final  139.07 input  -60.11 | X-H torsion
[ 7974 7965 7964 7962 ] final -132.18 input  175.53 | X-H torsion
[ 8008 7997 7996 7995 ] final   41.62 input   59.86 | X-H torsion
[ 10167 10162 10161 10158 ] final  -49.96 input  -65.29 | X-H torsion
[ 10718 10713 10712 10709 ] final   74.85 input   66.30 | X-H torsion
[ 10763 10752 10751 10750 ] final  -98.65 input  -60.55 | X-H torsion
[ 11005 11000 10999 10996 ] final -145.16 input  -57.11 | X-H torsion

> <Gold.Protein.ActiveResidues>
 VAL166  LYS551  ARG553  GLY616  TRP617  ASP618  TYR619  PRO620  LYS621  CYS622 
 ASP623  PHE694  ASN695  SER759  ASP760  ASP761  ALA762  ILE779  LEU786  VAL792 
 PHE793  MET794  SER795  GLU796  ALA797  LYS798  CYS799  TRP800  GLU811  SER814 

> <Gold.Protein.RotatedAtoms>
  152.2592  133.5282  159.5371 H   0  0  0  0  0  0  0  0  0  0  0  0  # atno 6907 bound_to 6896
  150.7119  134.0853  159.3921 H   0  0  0  0  0  0  0  0  0  0  0  0  # atno 6908 bound_to 6896
  151.8771  135.0467  160.0536 H   0  0  0  0  0  0  0  0  0  0  0  0  # atno 6909 bound_to 6896
  144.9310  140.7128  143.4906 H   0  0  0  0  0  0  0  0  0  0  0  0  # atno 7974 bound_to 7965
  155.2727  140.3367  155.4264 H   0  0  0  0  0  0  0  0  0  0  0  0  # atno 8008 bound_to 7997
  156.2125  140.1776  156.7704 H   0  0  0  0  0  0  0  0  0  0  0  0  # atno 8009 bound_to 7997
  154.5707  140.0670  156.8944 H   0  0  0  0  0  0  0  0  0  0  0  0  # atno 8010 bound_to 7997
  140.6660  143.2676  151.4291 H   0  0  0  0  0  0  0  0  0  0  0  0  # atno 10167 bound_to 10162
  157.6610  130.9698  150.1270 H   0  0  0  0  0  0  0  0  0  0  0  0  # atno 10718 bound_to 10713
  154.7432  135.5001  153.9158 H   0  0  0  0  0  0  0  0  0  0  0  0  # atno 10763 bound_to 10752
  153.1064  135.6698  153.9586 H   0  0  0  0  0  0  0  0  0  0  0  0  # atno 10764 bound_to 10752
  153.9358  135.3073  155.3423 H   0  0  0  0  0  0  0  0  0  0  0  0  # atno 10765 bound_to 10752
  140.7950  134.2923  157.4999 H   0  0  0  0  0  0  0  0  0  0  0  0  # atno 11005 bound_to 11000
  145.3142  139.1809  143.4622 LP  0  0  0  0  0  0  0  0  0  0  0  0  # atno 17320 bound_to 7965
  146.3247  140.3151  142.8629 LP  0  0  0  0  0  0  0  0  0  0  0  0  # atno 17321 bound_to 7965
  139.5909  144.1500  152.2087 LP  0  0  0  0  0  0  0  0  0  0  0  0  # atno 17342 bound_to 10162
  140.0855  144.5665  150.7092 LP  0  0  0  0  0  0  0  0  0  0  0  0  # atno 17343 bound_to 10162
  156.2126  130.3668  149.8651 LP  0  0  0  0  0  0  0  0  0  0  0  0  # atno 17370 bound_to 10713
  156.6526  130.8750  151.3534 LP  0  0  0  0  0  0  0  0  0  0  0  0  # atno 17371 bound_to 10713
  139.8727  134.9397  156.3748 LP  0  0  0  0  0  0  0  0  0  0  0  0  # atno 17394 bound_to 11000
  140.9351  133.7552  156.0074 LP  0  0  0  0  0  0  0  0  0  0  0  0  # atno 17395 bound_to 11000

$$$$
