AV-unprocessed.smi:2775|AV-procd|sdf|10688|dock10
  -GOLD-   2272015133D 1   1.00000     0.00000
 Structure written by MMmdl.
 42 45  0  0  0  0  0  0  0  0  1 V2000
  144.2734  132.2866  151.3266 C   0  0  0  0  0  0  0  0  0  0  0  0
  144.2426  133.6897  151.9028 C   0  0  0  0  0  0  0  0  0  0  0  0
  143.0131  134.2086  152.1119 N   0  0  0  0  0  0  0  0  0  0  0  0
  142.9281  135.4551  152.6197 C   0  0  0  0  0  0  0  0  0  0  0  0
  144.0522  136.2353  152.9499 C   0  0  0  0  0  0  0  0  0  0  0  0
  145.3421  135.6882  152.7485 C   0  0  0  0  0  0  0  0  0  0  0  0
  146.5459  136.3891  153.0357 N   0  0  0  0  0  0  0  0  0  0  0  0
  146.8293  137.2020  154.0722 C   0  0  0  0  0  0  0  0  0  0  0  0
  146.0339  137.5314  154.9491 O   0  0  0  0  0  0  0  0  0  0  0  0
  148.1022  137.6324  154.0909 N   0  0  0  0  0  0  0  0  0  0  0  0
  148.7264  138.5234  155.0790 C   0  0  2  0  0  0  0  0  0  0  0  0
  148.1954  139.9636  155.0490 C   0  0  2  0  0  0  0  0  0  0  0  0
  146.9378  140.6207  154.6078 C   0  0  0  0  0  0  0  0  0  0  0  0
  147.5893  141.8805  153.9830 C   0  0  0  0  0  0  0  0  0  0  0  0
  149.0169  141.6261  153.9774 O   0  0  0  0  0  0  0  0  0  0  0  0
  149.1275  140.2182  153.8755 C   0  0  1  0  0  0  0  0  0  0  0  0
  150.0447  139.2004  154.5746 C   0  0  0  0  0  0  0  0  0  0  0  0
  151.1453  139.6502  155.5495 C   0  0  0  0  0  0  0  0  0  0  0  0
  151.9826  138.4595  155.0730 C   0  0  0  0  0  0  0  0  0  0  0  0
  151.1176  138.4135  153.8092 C   0  0  0  0  0  0  0  0  0  0  0  0
  145.4366  134.3894  152.1958 C   0  0  0  0  0  0  0  0  0  0  0  0
  146.9808  133.6667  151.8893 Cl  0  0  0  0  0  0  0  0  0  0  0  0
  144.7897  131.6095  152.0076 H   0  0  0  0  0  0  0  0  0  0  0  0
  144.7963  132.2795  150.3700 H   0  0  0  0  0  0  0  0  0  0  0  0
  143.2674  131.8974  151.1643 H   0  0  0  0  0  0  0  0  0  0  0  0
  141.9316  135.8460  152.7632 H   0  0  0  0  0  0  0  0  0  0  0  0
  143.9015  137.2313  153.3361 H   0  0  0  0  0  0  0  0  0  0  0  0
  147.3246  136.1647  152.4334 H   0  0  0  0  0  0  0  0  0  0  0  0
  148.7021  137.3088  153.3459 H   0  0  0  0  0  0  0  0  0  0  0  0
  148.8142  138.0980  156.0798 H   0  0  0  0  0  0  0  0  0  0  0  0
  148.5470  140.4579  155.9622 H   0  0  0  0  0  0  0  0  0  0  0  0
  146.3982  140.0300  153.8666 H   0  0  0  0  0  0  0  0  0  0  0  0
  146.2696  140.8603  155.4347 H   0  0  0  0  0  0  0  0  0  0  0  0
  147.2272  142.0399  152.9666 H   0  0  0  0  0  0  0  0  0  0  0  0
  147.3790  142.7795  154.5629 H   0  0  0  0  0  0  0  0  0  0  0  0
  148.7481  139.8558  152.9155 H   0  0  0  0  0  0  0  0  0  0  0  0
  151.5837  140.6109  155.2748 H   0  0  0  0  0  0  0  0  0  0  0  0
  150.8697  139.6185  156.6041 H   0  0  0  0  0  0  0  0  0  0  0  0
  153.0354  138.6827  154.8974 H   0  0  0  0  0  0  0  0  0  0  0  0
  151.8548  137.5775  155.7025 H   0  0  0  0  0  0  0  0  0  0  0  0
  150.8268  137.4102  153.4975 H   0  0  0  0  0  0  0  0  0  0  0  0
  151.5477  138.9833  152.9841 H   0  0  0  0  0  0  0  0  0  0  0  0
  1  2  1  0  0  0  0
  1 23  1  0  0  0  0
  1 24  1  0  0  0  0
  1 25  1  0  0  0  0
  2 21  1  0  0  0  0
  2  3  2  0  0  0  0
  3  4  1  0  0  0  0
  4  5  2  0  0  0  0
  4 26  1  0  0  0  0
  5  6  1  0  0  0  0
  5 27  1  0  0  0  0
  6  7  1  0  0  0  0
  6 21  2  0  0  0  0
  7  8  1  0  0  0  0
  7 28  1  0  0  0  0
  8  9  2  0  0  0  0
  8 10  1  0  0  0  0
 10 11  1  0  0  0  0
 10 29  1  0  0  0  0
 11 17  1  0  0  0  0
 11 12  1  0  0  0  0
 11 30  1  0  0  0  0
 12 16  1  0  0  0  0
 12 13  1  0  0  0  0
 12 31  1  0  0  0  0
 13 14  1  0  0  0  0
 13 32  1  0  0  0  0
 13 33  1  0  0  0  0
 14 15  1  0  0  0  0
 14 34  1  0  0  0  0
 14 35  1  0  0  0  0
 15 16  1  0  0  0  0
 16 17  1  0  0  0  0
 16 36  1  0  0  0  0
 17 20  1  0  0  0  0
 17 18  1  0  0  0  0
 18 19  1  0  0  0  0
 18 37  1  0  0  0  0
 18 38  1  0  0  0  0
 19 20  1  0  0  0  0
 19 39  1  0  0  0  0
 19 40  1  0  0  0  0
 20 41  1  0  0  0  0
 20 42  1  0  0  0  0
 21 22  1  0  0  0  0
M  END
> <s_m_source_file>
AV-unprocessed.smi

> <i_m_source_file_index>
2775

> <i_lp_mmshare_version>
43012

> <i_f3d_flags>
0

> <s_epik_input>
W0NIM11jMW5bY0hdW2NIXWMoYzFDbClbTkhdQyg9TylbTkhdW0NAQEhdMltDQEhdKFtDSDJdW0NIMl1PMylbQ0BASF0zQzI0W0NIMl1bQ0gyXVtDSDJdNA==

> <s_epik_cmdline>
J2VwaWtfcHl0aG9uJywgJy1waCcsICc3LjAnLCAnLXRuJywgJzgnLCAnLW1hJywgJzIwMCcsICctbWV0YWxfYmluZGluZycsICctaW1hZScsICc8aW5maWxlLm1hZT4nLCAnLW9tYWUnLCAnPG91dGZpbGUubWFlPic=

> <r_epik_Ionization_Penalty>
0.01026

> <r_epik_Ionization_Penalty_Charging>
0

> <r_epik_Ionization_Penalty_Neutral>
0.01026

> <r_epik_State_Penalty>
0.00780685

> <r_epik_Charging_Adjusted_Penalty>
0.00780685

> <i_epik_Tot_Q>
0

> <i_epik_Tot_abs_Q>
0

> <r_epik_Metal_State_Penalty>
0.00767411

> <b_epik_Metal_Only>
0

> <s_lp_Force_Field>
OPLS_2005

> <r_lp_Energy>
81.865

> <b_lp_Chiralities_Consistent>
1

> <s_lp_Variant>
AV-unprocessed.smi:2775-1

> <Gold.Version>
5.8.1

> <Gold.Id.Protein>
6NUR|6NUR_protein|mol2

> <Gold.PLP.Fitness>
40.2295

> <Gold.PLP.PLP>
-32.9037

> <Gold.PLP.part.hbond>
-3.4771

> <Gold.PLP.part.metal>
0.0000

> <Gold.PLP.part.buried>
-3.5535

> <Gold.PLP.part.nonpolar>
-26.2679

> <Gold.PLP.part.repulsive>
0.4646

> <Gold.PLP.ligand.clash>
0.0000

> <Gold.PLP.ligand.torsion>
0.4553

> <Gold.PLP.Chemscore.Hbond>
2.6400

> <Gold.PLP.Chemscore.CHOScore>
0.0000

> <Gold.PLP.Chemscore.Metal>
0.0000

> <Gold.Chemscore.Hbonds>
donor molecule, donor type, donor heavy atom, donor atom, acceptor molecule, acceptor atom, score
      L1  H     7    28       P1  7948  1.00
      L1  H    10    29       P1  7948  1.00
      P1  H  8011  8017       L1    15  0.62

> <Gold.PLP.Chemscore.Internal.Correction>
0.3163

> <Gold.Rescore>
     Score         DG    S(hbond)    S(metal)    S(lipo)     H(rot)  DE(clash)    DE(int)     intcor
     18.78     -19.51       1.96        0.00      85.71       1.00       0.28       0.46       ----

> <Gold.Chemscore.Fitness>
18.7766

> <Gold.Chemscore.DG>
-19.5078

> <Gold.Chemscore.ZeroCoef>
-5.4800

> <Gold.Chemscore.Hbond>
1.9639

> <Gold.Chemscore.Metal>
0.0000

> <Gold.Chemscore.Lipo>
85.7140

> <Gold.Chemscore.Internal_Hbond>
0.0000

> <Gold.Chemscore.DEClash>
0.2761

> <Gold.Chemscore.DEInternal>
0.4551

> <Gold.Chemscore.Rot>
1.0000

> <Gold.Chemscore.Internal.Correction>
   9.000000E+99

> <Gold.Chemscore.Hbonds>
donor molecule, donor type, donor heavy atom, donor atom, acceptor molecule, acceptor atom, score
      L1  H     7    28       P1  7948  0.99
      L1  H    10    29       P1  7948  0.94
      P1  H  8011  8017       L1    15  0.26

> <Gold.Chemscore.Hbond.Weighted>
-6.5593

> <Gold.Chemscore.Metal.Weighted>
-0.0000

> <Gold.Chemscore.Lipo.Weighted>
-10.0285

> <Gold.Chemscore.Internal_Hbond.Weighted>
0.0000

> <Gold.Chemscore.DEClash.Weighted>
0.2761

> <Gold.Chemscore.DEInternal.Weighted>
0.4551

> <Gold.Chemscore.Rot.Weighted>
2.5600

> <Gold.Chemscore.Internal.Correction.Weighted>
   9.000000E+99

> <Gold.Protein.RotatedTorsions>
[ 6907 6896 6895 6894 ] final  -57.98 input  -60.11 | X-H torsion
[ 7974 7965 7964 7962 ] final   95.72 input  175.53 | X-H torsion
[ 8008 7997 7996 7995 ] final   52.13 input   59.86 | X-H torsion
[ 10167 10162 10161 10158 ] final -111.66 input  -65.29 | X-H torsion
[ 10718 10713 10712 10709 ] final   51.01 input   66.30 | X-H torsion
[ 10763 10752 10751 10750 ] final   42.73 input  -60.55 | X-H torsion
[ 11005 11000 10999 10996 ] final   85.72 input  -57.11 | X-H torsion

> <Gold.Protein.ActiveResidues>
 VAL166  LYS551  ARG553  GLY616  TRP617  ASP618  TYR619  PRO620  LYS621  CYS622 
 ASP623  PHE694  ASN695  SER759  ASP760  ASP761  ALA762  ILE779  LEU786  VAL792 
 PHE793  MET794  SER795  GLU796  ALA797  LYS798  CYS799  TRP800  GLU811  SER814 

> <Gold.Protein.RotatedAtoms>
  150.8043  134.7158  159.6629 H   0  0  0  0  0  0  0  0  0  0  0  0  # atno 6907 bound_to 6896
  152.4162  134.6034  160.0016 H   0  0  0  0  0  0  0  0  0  0  0  0  # atno 6908 bound_to 6896
  151.6263  133.3298  159.3135 H   0  0  0  0  0  0  0  0  0  0  0  0  # atno 6909 bound_to 6896
  145.4484  139.2295  143.3053 H   0  0  0  0  0  0  0  0  0  0  0  0  # atno 7974 bound_to 7965
  155.4468  140.3456  155.4296 H   0  0  0  0  0  0  0  0  0  0  0  0  # atno 8008 bound_to 7997
  156.1245  140.1496  156.9186 H   0  0  0  0  0  0  0  0  0  0  0  0  # atno 8009 bound_to 7997
  154.4848  140.0859  156.7440 H   0  0  0  0  0  0  0  0  0  0  0  0  # atno 8010 bound_to 7997
  140.1312  143.4359  152.1626 H   0  0  0  0  0  0  0  0  0  0  0  0  # atno 10167 bound_to 10162
  157.4940  130.8394  149.8236 H   0  0  0  0  0  0  0  0  0  0  0  0  # atno 10718 bound_to 10713
  152.9876  135.6123  154.2997 H   0  0  0  0  0  0  0  0  0  0  0  0  # atno 10763 bound_to 10752
  154.2718  135.2779  155.2736 H   0  0  0  0  0  0  0  0  0  0  0  0  # atno 10764 bound_to 10752
  154.5115  135.5839  153.6665 H   0  0  0  0  0  0  0  0  0  0  0  0  # atno 10765 bound_to 10752
  139.8964  134.8306  156.2621 H   0  0  0  0  0  0  0  0  0  0  0  0  # atno 11005 bound_to 11000
  146.2518  140.5241  142.8890 LP  0  0  0  0  0  0  0  0  0  0  0  0  # atno 17320 bound_to 7965
  144.8077  140.6329  143.6436 LP  0  0  0  0  0  0  0  0  0  0  0  0  # atno 17321 bound_to 7965
  139.5519  144.7344  151.4411 LP  0  0  0  0  0  0  0  0  0  0  0  0  # atno 17342 bound_to 10162
  140.6816  143.8069  150.7129 LP  0  0  0  0  0  0  0  0  0  0  0  0  # atno 17343 bound_to 10162
  156.0190  130.3803  150.2021 LP  0  0  0  0  0  0  0  0  0  0  0  0  # atno 17370 bound_to 10713
  157.0210  130.9979  151.3339 LP  0  0  0  0  0  0  0  0  0  0  0  0  # atno 17371 bound_to 10713
  141.0156  133.7070  156.1183 LP  0  0  0  0  0  0  0  0  0  0  0  0  # atno 17394 bound_to 11000
  140.7306  134.4258  157.5566 LP  0  0  0  0  0  0  0  0  0  0  0  0  # atno 17395 bound_to 11000

$$$$
