AV-unprocessed.smi:2261|AV-procd|sdf|9136|dock5
  -GOLD-   2272012343D 1   1.00000     0.00000
 Structure written by MMmdl.
 41 42  0  0  0  0  0  0  0  0  1 V2000
  146.1884  141.9254  154.1048 C   0  0  0  0  0  0  0  0  0  0  0  0
  147.4445  141.1399  154.5116 C   0  0  0  0  0  0  0  0  0  0  0  0
  147.6868  139.9549  153.5611 C   0  0  0  0  0  0  0  0  0  0  0  0
  148.6801  142.0405  154.6312 C   0  0  0  0  0  0  0  0  0  0  0  0
  149.4340  141.4423  155.8025 C   0  0  1  0  0  0  0  0  0  0  0  0
  150.3123  142.4269  156.4305 N   0  0  0  0  0  0  0  0  0  0  0  0
  151.1958  142.1694  157.4064 C   0  0  0  0  0  0  0  0  0  0  0  0
  151.3737  141.0506  157.8869 O   0  0  0  0  0  0  0  0  0  0  0  0
  152.0071  143.3590  157.9191 C   0  0  0  0  0  0  0  0  0  0  0  0
  152.2876  143.2029  159.4024 C   0  0  0  0  0  0  0  0  0  0  0  0
  151.8259  144.1569  160.3331 C   0  0  0  0  0  0  0  0  0  0  0  0
  152.1146  143.9677  161.6981 C   0  0  0  0  0  0  0  0  0  0  0  0
  152.8543  142.8291  162.0756 C   0  0  0  0  0  0  0  0  0  0  0  0
  153.3008  141.9088  161.1941 N   0  0  0  0  0  0  0  0  0  0  0  0
  153.0203  142.0981  159.8867 C   0  0  0  0  0  0  0  0  0  0  0  0
  148.2904  140.9470  156.7150 C   0  0  0  0  0  0  0  0  0  0  0  0
  148.6718  139.6802  157.4973 C   0  0  0  0  0  0  0  0  0  0  0  0
  147.7217  142.0234  157.6634 C   0  0  0  0  0  0  0  0  0  0  0  0
  147.2374  140.6011  155.8165 O   0  0  0  0  0  0  0  0  0  0  0  0
  146.3069  142.3753  153.1188 H   0  0  0  0  0  0  0  0  0  0  0  0
  145.9763  142.7267  154.8134 H   0  0  0  0  0  0  0  0  0  0  0  0
  145.3118  141.2779  154.0726 H   0  0  0  0  0  0  0  0  0  0  0  0
  147.8639  140.2968  152.5410 H   0  0  0  0  0  0  0  0  0  0  0  0
  146.8264  139.2850  153.5409 H   0  0  0  0  0  0  0  0  0  0  0  0
  148.5517  139.3664  153.8680 H   0  0  0  0  0  0  0  0  0  0  0  0
  149.2759  142.0763  153.7183 H   0  0  0  0  0  0  0  0  0  0  0  0
  148.3808  143.0637  154.8646 H   0  0  0  0  0  0  0  0  0  0  0  0
  150.0161  140.5955  155.4336 H   0  0  0  0  0  0  0  0  0  0  0  0
  150.2381  143.3776  156.0991 H   0  0  0  0  0  0  0  0  0  0  0  0
  152.9446  143.4437  157.3674 H   0  0  0  0  0  0  0  0  0  0  0  0
  151.4538  144.2823  157.7423 H   0  0  0  0  0  0  0  0  0  0  0  0
  151.2630  145.0197  160.0083 H   0  0  0  0  0  0  0  0  0  0  0  0
  151.7781  144.6780  162.4384 H   0  0  0  0  0  0  0  0  0  0  0  0
  153.0933  142.6530  163.1140 H   0  0  0  0  0  0  0  0  0  0  0  0
  153.3933  141.3460  159.2068 H   0  0  0  0  0  0  0  0  0  0  0  0
  149.4689  139.8808  158.2132 H   0  0  0  0  0  0  0  0  0  0  0  0
  149.0156  138.8907  156.8283 H   0  0  0  0  0  0  0  0  0  0  0  0
  147.8191  139.2902  158.0535 H   0  0  0  0  0  0  0  0  0  0  0  0
  148.4498  142.3174  158.4201 H   0  0  0  0  0  0  0  0  0  0  0  0
  146.8408  141.6532  158.1883 H   0  0  0  0  0  0  0  0  0  0  0  0
  147.4230  142.9208  157.1212 H   0  0  0  0  0  0  0  0  0  0  0  0
  1  2  1  0  0  0  0
  1 20  1  0  0  0  0
  1 21  1  0  0  0  0
  1 22  1  0  0  0  0
  2 19  1  0  0  0  0
  2  3  1  0  0  0  0
  2  4  1  0  0  0  0
  3 23  1  0  0  0  0
  3 24  1  0  0  0  0
  3 25  1  0  0  0  0
  4  5  1  0  0  0  0
  4 26  1  0  0  0  0
  4 27  1  0  0  0  0
  5  6  1  0  0  0  0
  5 16  1  0  0  0  0
  5 28  1  0  0  0  0
  6  7  1  0  0  0  0
  6 29  1  0  0  0  0
  7  8  2  0  0  0  0
  7  9  1  0  0  0  0
  9 10  1  0  0  0  0
  9 30  1  0  0  0  0
  9 31  1  0  0  0  0
 10 15  1  0  0  0  0
 10 11  2  0  0  0  0
 11 12  1  0  0  0  0
 11 32  1  0  0  0  0
 12 13  2  0  0  0  0
 12 33  1  0  0  0  0
 13 14  1  0  0  0  0
 13 34  1  0  0  0  0
 14 15  2  0  0  0  0
 15 35  1  0  0  0  0
 16 17  1  0  0  0  0
 16 18  1  0  0  0  0
 16 19  1  0  0  0  0
 17 36  1  0  0  0  0
 17 37  1  0  0  0  0
 17 38  1  0  0  0  0
 18 39  1  0  0  0  0
 18 40  1  0  0  0  0
 18 41  1  0  0  0  0
M  END
> <s_m_source_file>
AV-unprocessed.smi

> <i_m_source_file_index>
2261

> <i_lp_mmshare_version>
43012

> <i_f3d_flags>
0

> <s_epik_input>
W0NIM11DMShbQ0gzXSlbQ0gyXVtDQEhdKEMoTzEpKFtDSDNdKVtDSDNdKVtOSF1DKD1PKVtDSDJdYzJbY0hdW2NIXVtjSF1uW2NIXTI=

> <s_epik_cmdline>
J2VwaWtfcHl0aG9uJywgJy1waCcsICc3LjAnLCAnLXRuJywgJzgnLCAnLW1hJywgJzIwMCcsICctbWV0YWxfYmluZGluZycsICctaW1hZScsICc8aW5maWxlLm1hZT4nLCAnLW9tYWUnLCAnPG91dGZpbGUubWFlPic=

> <r_epik_Ionization_Penalty>
0.00420617

> <r_epik_Ionization_Penalty_Charging>
0

> <r_epik_Ionization_Penalty_Neutral>
0.00420617

> <r_epik_State_Penalty>
0.0030219

> <r_epik_Charging_Adjusted_Penalty>
0.0030219

> <i_epik_Tot_Q>
0

> <i_epik_Tot_abs_Q>
0

> <r_epik_Metal_State_Penalty>
-0

> <b_epik_Metal_Only>
0

> <s_lp_Force_Field>
OPLS_2005

> <r_lp_Energy>
17.0757

> <b_lp_Chiralities_Consistent>
1

> <s_lp_Variant>
AV-unprocessed.smi:2261-1

> <Gold.Version>
5.8.1

> <Gold.Id.Protein>
6NUR|6NUR_protein|mol2

> <Gold.PLP.Fitness>
40.0964

> <Gold.PLP.PLP>
-38.7528

> <Gold.PLP.part.hbond>
-1.0000

> <Gold.PLP.part.metal>
0.0000

> <Gold.PLP.part.buried>
-2.7691

> <Gold.PLP.part.nonpolar>
-35.2566

> <Gold.PLP.part.repulsive>
0.1264

> <Gold.PLP.ligand.clash>
0.0000

> <Gold.PLP.ligand.torsion>
0.4387

> <Gold.PLP.Chemscore.Hbond>
0.7360

> <Gold.PLP.Chemscore.CHOScore>
0.0000

> <Gold.PLP.Chemscore.Metal>
0.0000

> <Gold.Chemscore.Hbonds>
donor molecule, donor type, donor heavy atom, donor atom, acceptor molecule, acceptor atom, score
      L1  H     6    29       P1  8028  0.83

> <Gold.PLP.Chemscore.Internal.Correction>
0.0129

> <Gold.Rescore>
     Score         DG    S(hbond)    S(metal)    S(lipo)     H(rot)  DE(clash)    DE(int)     intcor
     16.11     -17.82       0.97        0.00     105.93       1.28       0.87       0.84       ----

> <Gold.Chemscore.Fitness>
16.1087

> <Gold.Chemscore.DG>
-17.8217

> <Gold.Chemscore.ZeroCoef>
-5.4800

> <Gold.Chemscore.Hbond>
0.9685

> <Gold.Chemscore.Metal>
0.0000

> <Gold.Chemscore.Lipo>
105.9346

> <Gold.Chemscore.Internal_Hbond>
0.0000

> <Gold.Chemscore.DEClash>
0.8687

> <Gold.Chemscore.DEInternal>
0.8443

> <Gold.Chemscore.Rot>
1.2842

> <Gold.Chemscore.Internal.Correction>
   9.000000E+99

> <Gold.Chemscore.Hbonds>
donor molecule, donor type, donor heavy atom, donor atom, acceptor molecule, acceptor atom, score
      L1  H     6    29       P1  8028  0.81

> <Gold.Chemscore.Hbond.Weighted>
-3.2349

> <Gold.Chemscore.Metal.Weighted>
-0.0000

> <Gold.Chemscore.Lipo.Weighted>
-12.3943

> <Gold.Chemscore.Internal_Hbond.Weighted>
0.0000

> <Gold.Chemscore.DEClash.Weighted>
0.8687

> <Gold.Chemscore.DEInternal.Weighted>
0.8443

> <Gold.Chemscore.Rot.Weighted>
3.2875

> <Gold.Chemscore.Internal.Correction.Weighted>
   9.000000E+99

> <Gold.Protein.RotatedTorsions>
[ 6907 6896 6895 6894 ] final  171.77 input  -60.11 | X-H torsion
[ 7974 7965 7964 7962 ] final -162.96 input  175.53 | X-H torsion
[ 8008 7997 7996 7995 ] final -130.97 input   59.86 | X-H torsion
[ 10167 10162 10161 10158 ] final  127.90 input  -65.29 | X-H torsion
[ 10718 10713 10712 10709 ] final -151.68 input   66.30 | X-H torsion
[ 10763 10752 10751 10750 ] final  -75.52 input  -60.55 | X-H torsion
[ 11005 11000 10999 10996 ] final -166.32 input  -57.11 | X-H torsion

> <Gold.Protein.ActiveResidues>
 VAL166  LYS551  ARG553  GLY616  TRP617  ASP618  TYR619  PRO620  LYS621  CYS622 
 ASP623  PHE694  ASN695  SER759  ASP760  ASP761  ALA762  ILE779  LEU786  VAL792 
 PHE793  MET794  SER795  GLU796  ALA797  LYS798  CYS799  TRP800  GLU811  SER814 

> <Gold.Protein.RotatedAtoms>
  151.7949  133.3363  159.3509 H   0  0  0  0  0  0  0  0  0  0  0  0  # atno 6907 bound_to 6896
  150.7378  134.5807  159.5947 H   0  0  0  0  0  0  0  0  0  0  0  0  # atno 6908 bound_to 6896
  152.3184  134.7413  160.0371 H   0  0  0  0  0  0  0  0  0  0  0  0  # atno 6909 bound_to 6896
  144.7341  140.3176  143.6176 H   0  0  0  0  0  0  0  0  0  0  0  0  # atno 7974 bound_to 7965
  155.3046  140.0454  157.3031 H   0  0  0  0  0  0  0  0  0  0  0  0  # atno 8008 bound_to 7997
  154.5467  140.2305  155.8518 H   0  0  0  0  0  0  0  0  0  0  0  0  # atno 8009 bound_to 7997
  156.1930  140.3045  155.9378 H   0  0  0  0  0  0  0  0  0  0  0  0  # atno 8010 bound_to 7997
  139.5555  144.6845  151.4197 H   0  0  0  0  0  0  0  0  0  0  0  0  # atno 10167 bound_to 10162
  156.4625  130.8220  151.2450 H   0  0  0  0  0  0  0  0  0  0  0  0  # atno 10718 bound_to 10713
  154.4877  135.5828  153.6436 H   0  0  0  0  0  0  0  0  0  0  0  0  # atno 10763 bound_to 10752
  152.9857  135.6105  154.3165 H   0  0  0  0  0  0  0  0  0  0  0  0  # atno 10764 bound_to 10752
  154.3062  135.2846  155.2567 H   0  0  0  0  0  0  0  0  0  0  0  0  # atno 10765 bound_to 10752
  140.5658  134.5288  157.5152 H   0  0  0  0  0  0  0  0  0  0  0  0  # atno 11005 bound_to 11000
  145.7601  139.1822  143.2272 LP  0  0  0  0  0  0  0  0  0  0  0  0  # atno 17320 bound_to 7965
  146.0993  140.7563  142.9557 LP  0  0  0  0  0  0  0  0  0  0  0  0  # atno 17321 bound_to 7965
  140.6826  143.8046  150.7142 LP  0  0  0  0  0  0  0  0  0  0  0  0  # atno 17342 bound_to 10162
  140.1504  143.4362  152.2135 LP  0  0  0  0  0  0  0  0  0  0  0  0  # atno 17343 bound_to 10162
  157.7497  131.0102  150.3299 LP  0  0  0  0  0  0  0  0  0  0  0  0  # atno 17370 bound_to 10713
  156.3702  130.3862  149.7181 LP  0  0  0  0  0  0  0  0  0  0  0  0  # atno 17371 bound_to 10713
  139.9386  134.7829  156.0738 LP  0  0  0  0  0  0  0  0  0  0  0  0  # atno 17394 bound_to 11000
  141.1087  133.6651  156.2925 LP  0  0  0  0  0  0  0  0  0  0  0  0  # atno 17395 bound_to 11000

$$$$
