AV-unprocessed.smi:61|AV-procd|sdf|597|dock3
  -GOLD-   2262016493D 1   1.00000     0.00000
 Structure written by MMmdl.
 28 29  0  0  0  0  0  0  0  0  1 V2000
  152.2993  138.5593  155.5425 N   0  0  0  0  0  0  0  0  0  0  0  0
  151.9313  139.7925  156.0214 C   0  0  0  0  0  0  0  0  0  0  0  0
  151.0316  140.4668  155.3049 N   0  0  0  0  0  0  0  0  0  0  0  0
  150.6703  141.6782  155.7781 C   0  0  0  0  0  0  0  0  0  0  0  0
  151.2144  142.2051  156.9669 C   0  0  0  0  0  0  0  0  0  0  0  0
  152.1625  141.4043  157.6473 C   0  0  0  0  0  0  0  0  0  0  0  0
  152.7610  141.8574  158.8422 N   0  0  0  0  0  0  0  0  0  0  0  0
  153.4693  140.8646  159.6440 C   0  0  0  0  0  0  0  0  0  0  0  0
  153.2107  141.2312  161.1078 C   0  0  0  0  0  0  0  0  0  0  0  0
  152.8356  142.7077  161.0482 C   0  0  0  0  0  0  0  0  0  0  0  0
  152.0867  142.8170  159.7156 C   0  0  1  0  0  0  0  0  0  0  0  0
  152.0744  144.2498  159.1447 C   0  0  0  0  0  0  0  0  0  0  0  0
  151.0011  144.9818  159.6969 O   0  0  0  0  0  0  0  0  0  0  0  0
  152.5112  140.1900  157.1552 N   0  0  0  0  0  0  0  0  0  0  0  0
  152.9764  137.9996  156.0403 H   0  0  0  0  0  0  0  0  0  0  0  0
  151.9220  138.2164  154.6713 H   0  0  0  0  0  0  0  0  0  0  0  0
  149.9408  142.2314  155.2055 H   0  0  0  0  0  0  0  0  0  0  0  0
  150.9091  143.1736  157.3342 H   0  0  0  0  0  0  0  0  0  0  0  0
  153.1411  139.8451  159.4363 H   0  0  0  0  0  0  0  0  0  0  0  0
  154.5336  140.9303  159.4156 H   0  0  0  0  0  0  0  0  0  0  0  0
  152.3654  140.6551  161.4866 H   0  0  0  0  0  0  0  0  0  0  0  0
  154.0679  141.0341  161.7520 H   0  0  0  0  0  0  0  0  0  0  0  0
  152.2340  143.0272  161.8997 H   0  0  0  0  0  0  0  0  0  0  0  0
  153.7421  143.3146  161.0288 H   0  0  0  0  0  0  0  0  0  0  0  0
  151.0613  142.4747  159.8648 H   0  0  0  0  0  0  0  0  0  0  0  0
  153.0115  144.7637  159.3621 H   0  0  0  0  0  0  0  0  0  0  0  0
  151.9567  144.2488  158.0616 H   0  0  0  0  0  0  0  0  0  0  0  0
  150.2974  145.0034  159.0666 H   0  0  0  0  0  0  0  0  0  0  0  0
  1  2  1  0  0  0  0
  1 15  1  0  0  0  0
  1 16  1  0  0  0  0
  2 14  1  0  0  0  0
  2  3  2  0  0  0  0
  3  4  1  0  0  0  0
  4  5  2  0  0  0  0
  4 17  1  0  0  0  0
  5  6  1  0  0  0  0
  5 18  1  0  0  0  0
  6  7  1  0  0  0  0
  6 14  2  0  0  0  0
  7 11  1  0  0  0  0
  7  8  1  0  0  0  0
  8  9  1  0  0  0  0
  8 19  1  0  0  0  0
  8 20  1  0  0  0  0
  9 10  1  0  0  0  0
  9 21  1  0  0  0  0
  9 22  1  0  0  0  0
 10 11  1  0  0  0  0
 10 23  1  0  0  0  0
 10 24  1  0  0  0  0
 11 12  1  0  0  0  0
 11 25  1  0  0  0  0
 12 13  1  0  0  0  0
 12 26  1  0  0  0  0
 12 27  1  0  0  0  0
 13 28  1  0  0  0  0
M  END
> <s_m_source_file>
AV-unprocessed.smi

> <i_m_source_file_index>
61

> <i_lp_mmshare_version>
43012

> <i_f3d_flags>
0

> <s_epik_input>
W05IMl1jMW5bY0hdW2NIXWMobjEpTjJbQ0gyXVtDSDJdW0NIMl1bQ0BIXTJbQ0gyXVtPSF0=

> <s_epik_cmdline>
J2VwaWtfcHl0aG9uJywgJy1waCcsICc3LjAnLCAnLXRuJywgJzgnLCAnLW1hJywgJzIwMCcsICctbWV0YWxfYmluZGluZycsICctaW1hZScsICc8aW5maWxlLm1hZT4nLCAnLW9tYWUnLCAnPG91dGZpbGUubWFlPic=

> <r_lp_tautomer_probability>
1

> <r_epik_Ionization_Penalty>
0.76024

> <r_epik_Ionization_Penalty_Charging>
0

> <r_epik_Ionization_Penalty_Neutral>
0.76024

> <r_epik_State_Penalty>
0.587668

> <r_epik_Charging_Adjusted_Penalty>
0.587668

> <i_epik_Tot_Q>
0

> <i_epik_Tot_abs_Q>
0

> <r_epik_Metal_State_Penalty>
0.307814

> <b_epik_Metal_Only>
0

> <s_lp_Force_Field>
OPLS_2005

> <r_lp_Energy>
20.8196

> <b_lp_Chiralities_Consistent>
1

> <s_lp_Variant>
AV-unprocessed.smi:61-3

> <Gold.Version>
5.8.1

> <Gold.Id.Protein>
6NUR|6NUR_protein|mol2

> <Gold.PLP.Fitness>
36.2754

> <Gold.PLP.PLP>
-28.9833

> <Gold.PLP.part.hbond>
-2.0000

> <Gold.PLP.part.metal>
0.0000

> <Gold.PLP.part.buried>
-3.4820

> <Gold.PLP.part.nonpolar>
-22.3673

> <Gold.PLP.part.repulsive>
0.2302

> <Gold.PLP.ligand.clash>
0.0000

> <Gold.PLP.ligand.torsion>
0.8097

> <Gold.PLP.Chemscore.Hbond>
1.8817

> <Gold.PLP.Chemscore.CHOScore>
0.9704

> <Gold.PLP.Chemscore.Metal>
0.0000

> <Gold.Chemscore.Hbonds>
donor molecule, donor type, donor heavy atom, donor atom, acceptor molecule, acceptor atom, score
      P1  H  7989  7998       L1     3  0.98
      P1  H  7997  8010       L1    14  1.00
      L1  C     4    17       P1  8028  0.49

> <Gold.PLP.Chemscore.Internal.Correction>
0.3552

> <Gold.Rescore>
     Score         DG    S(hbond)    S(metal)    S(lipo)     H(rot)  DE(clash)    DE(int)     intcor
      9.85     -10.81       0.67        0.00      69.21       1.96       0.02       0.94       ----

> <Gold.Chemscore.Fitness>
9.8467

> <Gold.Chemscore.DG>
-10.8126

> <Gold.Chemscore.ZeroCoef>
-5.4800

> <Gold.Chemscore.Hbond>
0.6714

> <Gold.Chemscore.Metal>
0.0000

> <Gold.Chemscore.Lipo>
69.2126

> <Gold.Chemscore.Internal_Hbond>
0.0000

> <Gold.Chemscore.DEClash>
0.0235

> <Gold.Chemscore.DEInternal>
0.9424

> <Gold.Chemscore.Rot>
1.9561

> <Gold.Chemscore.Internal.Correction>
   9.000000E+99

> <Gold.Chemscore.Hbonds>
donor molecule, donor type, donor heavy atom, donor atom, acceptor molecule, acceptor atom, score
      P1  H  7989  7998       L1     3  0.27
      P1  H  7997  8010       L1    14  0.21

> <Gold.Chemscore.Hbond.Weighted>
-2.2424

> <Gold.Chemscore.Metal.Weighted>
-0.0000

> <Gold.Chemscore.Lipo.Weighted>
-8.0979

> <Gold.Chemscore.Internal_Hbond.Weighted>
0.0000

> <Gold.Chemscore.DEClash.Weighted>
0.0235

> <Gold.Chemscore.DEInternal.Weighted>
0.9424

> <Gold.Chemscore.Rot.Weighted>
5.0077

> <Gold.Chemscore.Internal.Correction.Weighted>
   9.000000E+99

> <Gold.Protein.RotatedTorsions>
[ 6907 6896 6895 6894 ] final  -36.52 input  -60.11 | X-H torsion
[ 7974 7965 7964 7962 ] final   -2.49 input  175.53 | X-H torsion
[ 8008 7997 7996 7995 ] final   60.62 input   59.86 | X-H torsion
[ 10167 10162 10161 10158 ] final  128.99 input  -65.29 | X-H torsion
[ 10718 10713 10712 10709 ] final   41.12 input   66.30 | X-H torsion
[ 10763 10752 10751 10750 ] final  140.46 input  -60.55 | X-H torsion
[ 11005 11000 10999 10996 ] final -102.30 input  -57.11 | X-H torsion

> <Gold.Protein.ActiveResidues>
 VAL166  LYS551  ARG553  GLY616  TRP617  ASP618  TYR619  PRO620  LYS621  CYS622 
 ASP623  PHE694  ASN695  SER759  ASP760  ASP761  ALA762  ILE779  LEU786  VAL792 
 PHE793  MET794  SER795  GLU796  ALA797  LYS798  CYS799  TRP800  GLU811  SER814 

> <Gold.Protein.RotatedAtoms>
  151.0262  134.9505  159.8086 H   0  0  0  0  0  0  0  0  0  0  0  0  # atno 6907 bound_to 6896
  152.5336  134.2839  159.9028 H   0  0  0  0  0  0  0  0  0  0  0  0  # atno 6908 bound_to 6896
  151.2848  133.4150  159.2663 H   0  0  0  0  0  0  0  0  0  0  0  0  # atno 6909 bound_to 6896
  146.2404  140.1578  142.8333 H   0  0  0  0  0  0  0  0  0  0  0  0  # atno 7974 bound_to 7965
  155.5852  140.3492  155.4551 H   0  0  0  0  0  0  0  0  0  0  0  0  # atno 8008 bound_to 7997
  156.0343  140.1281  157.0250 H   0  0  0  0  0  0  0  0  0  0  0  0  # atno 8009 bound_to 7997
  154.4365  140.1037  156.6130 H   0  0  0  0  0  0  0  0  0  0  0  0  # atno 8010 bound_to 7997
  139.5500  144.6805  151.4354 H   0  0  0  0  0  0  0  0  0  0  0  0  # atno 10167 bound_to 10162
  157.3899  130.7801  149.7261 H   0  0  0  0  0  0  0  0  0  0  0  0  # atno 10718 bound_to 10713
  153.9231  135.2998  155.3447 H   0  0  0  0  0  0  0  0  0  0  0  0  # atno 10763 bound_to 10752
  154.7565  135.4955  153.9387 H   0  0  0  0  0  0  0  0  0  0  0  0  # atno 10764 bound_to 10752
  153.1131  135.6764  153.9569 H   0  0  0  0  0  0  0  0  0  0  0  0  # atno 10765 bound_to 10752
  141.1195  133.8548  157.1343 H   0  0  0  0  0  0  0  0  0  0  0  0  # atno 11005 bound_to 11000
  145.0114  140.8717  143.5222 LP  0  0  0  0  0  0  0  0  0  0  0  0  # atno 17320 bound_to 7965
  145.1612  139.2457  143.5390 LP  0  0  0  0  0  0  0  0  0  0  0  0  # atno 17321 bound_to 7965
  140.6759  143.8190  150.7058 LP  0  0  0  0  0  0  0  0  0  0  0  0  # atno 17342 bound_to 10162
  140.1629  143.4260  152.2054 LP  0  0  0  0  0  0  0  0  0  0  0  0  # atno 17343 bound_to 10162
  155.9796  130.4038  150.3579 LP  0  0  0  0  0  0  0  0  0  0  0  0  # atno 17370 bound_to 10713
  157.1694  131.0365  151.2803 LP  0  0  0  0  0  0  0  0  0  0  0  0  # atno 17371 bound_to 10713
  140.0141  134.9975  157.0456 LP  0  0  0  0  0  0  0  0  0  0  0  0  # atno 17394 bound_to 11000
  140.4550  134.1543  155.7185 LP  0  0  0  0  0  0  0  0  0  0  0  0  # atno 17395 bound_to 11000

$$$$
