AV-unprocessed.smi:101|AV-procd|sdf|924|dock8
  -GOLD-   2262017433D 1   1.00000     0.00000
 Structure written by MMmdl.
 44 46  0  0  0  0  0  0  0  0  1 V2000
  144.6845  145.0967  153.2580 C   0  0  0  0  0  0  0  0  0  0  0  0
  145.3164  143.9452  154.0232 C   0  0  0  0  0  0  0  0  0  0  0  0
  146.2549  143.1328  153.4725 C   0  0  0  0  0  0  0  0  0  0  0  0
  146.8535  142.0737  154.1474 N   0  0  0  0  0  0  0  0  0  0  0  0
  147.8829  141.1589  153.5034 C   0  0  1  0  0  0  0  0  0  0  0  0
  149.1379  141.3745  154.0738 O   0  0  0  0  0  0  0  0  0  0  0  0
  149.3537  140.4228  155.1050 C   0  0  2  0  0  0  0  0  0  0  0  0
  150.8480  140.3261  155.4419 C   0  0  0  0  0  0  0  0  0  0  0  0
  151.0956  140.8762  156.7263 O   0  0  0  0  0  0  0  0  0  0  0  0
  152.1907  140.5138  157.4197 C   0  0  0  0  0  0  0  0  0  0  0  0
  152.9456  139.6019  157.0762 O   0  0  0  0  0  0  0  0  0  0  0  0
  152.3937  141.3336  158.6489 C   0  0  0  0  0  0  0  0  0  0  0  0
  153.3492  140.9219  159.6072 C   0  0  0  0  0  0  0  0  0  0  0  0
  153.5616  141.6754  160.7780 C   0  0  0  0  0  0  0  0  0  0  0  0
  152.8219  142.8507  161.0043 C   0  0  0  0  0  0  0  0  0  0  0  0
  151.8693  143.2717  160.0583 C   0  0  0  0  0  0  0  0  0  0  0  0
  151.6545  142.5188  158.8873 C   0  0  0  0  0  0  0  0  0  0  0  0
  148.7115  139.1439  154.5646 C   0  0  1  0  0  0  0  0  0  0  0  0
  148.2560  138.3387  155.6334 O   0  0  0  0  0  0  0  0  0  0  0  0
  147.5363  139.6669  153.7395 C   0  0  2  0  0  0  0  0  0  0  0  0
  147.4408  138.9551  152.5222 O   0  0  0  0  0  0  0  0  0  0  0  0
  146.4336  141.7776  155.4618 C   0  0  0  0  0  0  0  0  0  0  0  0
  146.8783  140.8265  156.1040 O   0  0  0  0  0  0  0  0  0  0  0  0
  145.4756  142.6145  156.0295 N   0  0  0  0  0  0  0  0  0  0  0  0
  144.8773  143.7079  155.4007 C   0  0  0  0  0  0  0  0  0  0  0  0
  144.0459  144.3788  156.0097 O   0  0  0  0  0  0  0  0  0  0  0  0
  145.1845  142.4098  156.9743 H   0  0  0  0  0  0  0  0  0  0  0  0
  145.0834  145.1802  152.2465 H   0  0  0  0  0  0  0  0  0  0  0  0
  144.8716  146.0417  153.7694 H   0  0  0  0  0  0  0  0  0  0  0  0
  143.6058  144.9565  153.1811 H   0  0  0  0  0  0  0  0  0  0  0  0
  146.5319  143.3351  152.4494 H   0  0  0  0  0  0  0  0  0  0  0  0
  147.9045  141.4612  152.4542 H   0  0  0  0  0  0  0  0  0  0  0  0
  148.8113  140.7565  155.9912 H   0  0  0  0  0  0  0  0  0  0  0  0
  151.1671  139.2833  155.4192 H   0  0  0  0  0  0  0  0  0  0  0  0
  151.4326  140.8637  154.6942 H   0  0  0  0  0  0  0  0  0  0  0  0
  153.9299  140.0236  159.4548 H   0  0  0  0  0  0  0  0  0  0  0  0
  154.2933  141.3509  161.5029 H   0  0  0  0  0  0  0  0  0  0  0  0
  152.9853  143.4286  161.9020 H   0  0  0  0  0  0  0  0  0  0  0  0
  151.3012  144.1740  160.2305 H   0  0  0  0  0  0  0  0  0  0  0  0
  150.9155  142.8704  158.1821 H   0  0  0  0  0  0  0  0  0  0  0  0
  149.4105  138.5855  153.9400 H   0  0  0  0  0  0  0  0  0  0  0  0
  147.8513  137.5650  155.2718 H   0  0  0  0  0  0  0  0  0  0  0  0
  146.5977  139.5796  154.2892 H   0  0  0  0  0  0  0  0  0  0  0  0
  148.1820  139.1871  151.9833 H   0  0  0  0  0  0  0  0  0  0  0  0
  1  2  1  0  0  0  0
  1 28  1  0  0  0  0
  1 29  1  0  0  0  0
  1 30  1  0  0  0  0
  2 25  1  0  0  0  0
  2  3  2  0  0  0  0
  3  4  1  0  0  0  0
  3 31  1  0  0  0  0
  4  5  1  0  0  0  0
  4 22  1  0  0  0  0
  5 20  1  0  0  0  0
  5  6  1  0  0  0  0
  5 32  1  0  0  0  0
  6  7  1  0  0  0  0
  7  8  1  0  0  0  0
  7 18  1  0  0  0  0
  7 33  1  0  0  0  0
  8  9  1  0  0  0  0
  8 34  1  0  0  0  0
  8 35  1  0  0  0  0
  9 10  1  0  0  0  0
 10 11  2  0  0  0  0
 10 12  1  0  0  0  0
 12 17  1  0  0  0  0
 12 13  2  0  0  0  0
 13 14  1  0  0  0  0
 13 36  1  0  0  0  0
 14 15  2  0  0  0  0
 14 37  1  0  0  0  0
 15 16  1  0  0  0  0
 15 38  1  0  0  0  0
 16 17  2  0  0  0  0
 16 39  1  0  0  0  0
 17 40  1  0  0  0  0
 18 19  1  0  0  0  0
 18 20  1  0  0  0  0
 18 41  1  0  0  0  0
 19 42  1  0  0  0  0
 20 21  1  0  0  0  0
 20 43  1  0  0  0  0
 21 44  1  0  0  0  0
 22 23  2  0  0  0  0
 22 24  1  0  0  0  0
 24 27  1  0  0  0  0
 24 25  1  0  0  0  0
 25 26  2  0  0  0  0
M  END
> <s_m_source_file>
AV-unprocessed.smi

> <i_m_source_file_index>
101

> <i_lp_mmshare_version>
43012

> <i_f3d_flags>
0

> <s_epik_input>
Tz1jMVtuSF1jKD1PKW4oW2NIXWMxW0NIM10pW0NAQEhdMk9bQ0BIXShbQ0BASF0oW09IXSlbQ0BIXTJbT0hdKVtDSDJdT0MoPU8pYzNbY0hdW2NIXVtjSF1bY0hdW2NIXTM=

> <s_epik_cmdline>
J2VwaWtfcHl0aG9uJywgJy1waCcsICc3LjAnLCAnLXRuJywgJzgnLCAnLW1hJywgJzIwMCcsICctbWV0YWxfYmluZGluZycsICctaW1hZScsICc8aW5maWxlLm1hZT4nLCAnLW9tYWUnLCAnPG91dGZpbGUubWFlPic=

> <r_lp_tautomer_probability>
0.999537

> <r_epik_Ionization_Penalty>
0.00263537

> <r_epik_Ionization_Penalty_Charging>
0.00263428

> <r_epik_Ionization_Penalty_Neutral>
1.09111e-06

> <r_epik_State_Penalty>
0.00183335

> <r_epik_Charging_Adjusted_Penalty>
0.00446763

> <i_epik_Tot_Q>
0

> <i_epik_Tot_abs_Q>
0

> <r_epik_Metal_State_Penalty>
1.00528

> <b_epik_Metal_Only>
0

> <s_epik_Chemistry_Notes>
This compound has an ester and may undergo hydrolysis at high or low pH. This compound contains an acetal/aminal-like group ( X-CH(R)-Y where X, Y are N, S, or O) that may be acid/base labile, releasing an aldehyde.

> <s_lp_Force_Field>
OPLS_2005

> <r_lp_Energy>
29.5421

> <b_lp_Chiralities_Consistent>
1

> <s_lp_Variant>
AV-unprocessed.smi:101-12

> <Gold.Version>
5.8.1

> <Gold.Id.Protein>
6NUR|6NUR_protein|mol2

> <Gold.PLP.Fitness>
52.1303

> <Gold.PLP.PLP>
-50.5185

> <Gold.PLP.part.hbond>
-4.2963

> <Gold.PLP.part.metal>
0.0000

> <Gold.PLP.part.buried>
-5.8514

> <Gold.PLP.part.nonpolar>
-38.8862

> <Gold.PLP.part.repulsive>
0.3056

> <Gold.PLP.ligand.clash>
3.0937

> <Gold.PLP.ligand.torsion>
1.1977

> <Gold.PLP.Chemscore.Hbond>
2.3444

> <Gold.PLP.Chemscore.CHOScore>
0.0000

> <Gold.PLP.Chemscore.Metal>
0.0000

> <Gold.Chemscore.Hbonds>
donor molecule, donor type, donor heavy atom, donor atom, acceptor molecule, acceptor atom, score
      L1  H    21    44       P1  7957  1.00
      P1  H  7997  8009       L1    11  1.00
      P1  H  8011  8017       L1     6  0.30

> <Gold.PLP.Chemscore.Internal.Correction>
0.0675

> <Gold.Rescore>
     Score         DG    S(hbond)    S(metal)    S(lipo)     H(rot)  DE(clash)    DE(int)     intcor
      9.70     -16.56       2.01        0.00     109.81       3.32       0.05       6.80       ----

> <Gold.Chemscore.Fitness>
9.7007

> <Gold.Chemscore.DG>
-16.5566

> <Gold.Chemscore.ZeroCoef>
-5.4800

> <Gold.Chemscore.Hbond>
2.0123

> <Gold.Chemscore.Metal>
0.0000

> <Gold.Chemscore.Lipo>
109.8079

> <Gold.Chemscore.Internal_Hbond>
0.0000

> <Gold.Chemscore.DEClash>
0.0539

> <Gold.Chemscore.DEInternal>
6.8020

> <Gold.Chemscore.Rot>
3.3172

> <Gold.Chemscore.Internal.Correction>
   9.000000E+99

> <Gold.Chemscore.Hbonds>
donor molecule, donor type, donor heavy atom, donor atom, acceptor molecule, acceptor atom, score
      L1  H    21    44       P1  7957  1.00
      P1  H  7997  8009       L1    11  0.86
      P1  H  8011  8017       L1     6  0.02

> <Gold.Chemscore.Hbond.Weighted>
-6.7211

> <Gold.Chemscore.Metal.Weighted>
-0.0000

> <Gold.Chemscore.Lipo.Weighted>
-12.8475

> <Gold.Chemscore.Internal_Hbond.Weighted>
0.0000

> <Gold.Chemscore.DEClash.Weighted>
0.0539

> <Gold.Chemscore.DEInternal.Weighted>
6.8020

> <Gold.Chemscore.Rot.Weighted>
8.4920

> <Gold.Chemscore.Internal.Correction.Weighted>
   9.000000E+99

> <Gold.Protein.RotatedTorsions>
[ 6907 6896 6895 6894 ] final  -29.78 input  -60.11 | X-H torsion
[ 7974 7965 7964 7962 ] final -142.31 input  175.53 | X-H torsion
[ 8008 7997 7996 7995 ] final -175.05 input   59.86 | X-H torsion
[ 10167 10162 10161 10158 ] final   53.76 input  -65.29 | X-H torsion
[ 10718 10713 10712 10709 ] final   74.39 input   66.30 | X-H torsion
[ 10763 10752 10751 10750 ] final -101.03 input  -60.55 | X-H torsion
[ 11005 11000 10999 10996 ] final -157.19 input  -57.11 | X-H torsion

> <Gold.Protein.ActiveResidues>
 VAL166  LYS551  ARG553  GLY616  TRP617  ASP618  TYR619  PRO620  LYS621  CYS622 
 ASP623  PHE694  ASN695  SER759  ASP760  ASP761  ALA762  ILE779  LEU786  VAL792 
 PHE793  MET794  SER795  GLU796  ALA797  LYS798  CYS799  TRP800  GLU811  SER814 

> <Gold.Protein.RotatedAtoms>
  151.1146  135.0045  159.8509 H   0  0  0  0  0  0  0  0  0  0  0  0  # atno 6907 bound_to 6896
  152.5445  134.1795  159.8640 H   0  0  0  0  0  0  0  0  0  0  0  0  # atno 6908 bound_to 6896
  151.1848  133.4658  159.2627 H   0  0  0  0  0  0  0  0  0  0  0  0  # atno 6909 bound_to 6896
  144.8453  140.5973  143.5425 H   0  0  0  0  0  0  0  0  0  0  0  0  # atno 7974 bound_to 7965
  155.9778  140.1175  157.0754 H   0  0  0  0  0  0  0  0  0  0  0  0  # atno 8008 bound_to 7997
  154.4174  140.1150  156.5461 H   0  0  0  0  0  0  0  0  0  0  0  0  # atno 8009 bound_to 7997
  155.6511  140.3473  155.4751 H   0  0  0  0  0  0  0  0  0  0  0  0  # atno 8010 bound_to 7997
  140.2373  144.3622  150.6393 H   0  0  0  0  0  0  0  0  0  0  0  0  # atno 10167 bound_to 10162
  157.6590  130.9675  150.1204 H   0  0  0  0  0  0  0  0  0  0  0  0  # atno 10718 bound_to 10713
  154.7626  135.4913  153.9493 H   0  0  0  0  0  0  0  0  0  0  0  0  # atno 10763 bound_to 10752
  153.1269  135.6744  153.9250 H   0  0  0  0  0  0  0  0  0  0  0  0  # atno 10764 bound_to 10752
  153.8965  135.3115  155.3427 H   0  0  0  0  0  0  0  0  0  0  0  0  # atno 10765 bound_to 10752
  140.6673  134.4285  157.5233 H   0  0  0  0  0  0  0  0  0  0  0  0  # atno 11005 bound_to 11000
  145.4610  139.1513  143.3866 LP  0  0  0  0  0  0  0  0  0  0  0  0  # atno 17320 bound_to 7965
  146.2738  140.4740  142.8803 LP  0  0  0  0  0  0  0  0  0  0  0  0  # atno 17321 bound_to 7965
  140.6140  143.2171  151.6829 LP  0  0  0  0  0  0  0  0  0  0  0  0  # atno 17342 bound_to 10162
  139.5089  144.3595  152.0576 LP  0  0  0  0  0  0  0  0  0  0  0  0  # atno 17343 bound_to 10162
  156.2077  130.3664  149.8709 LP  0  0  0  0  0  0  0  0  0  0  0  0  # atno 17370 bound_to 10713
  156.6596  130.8776  151.3545 LP  0  0  0  0  0  0  0  0  0  0  0  0  # atno 17371 bound_to 10713
  139.8993  134.8594  156.1966 LP  0  0  0  0  0  0  0  0  0  0  0  0  # atno 17394 bound_to 11000
  141.0419  133.6933  156.1613 LP  0  0  0  0  0  0  0  0  0  0  0  0  # atno 17395 bound_to 11000

$$$$
