AV-unprocessed.smi:373|AV-procd|sdf|2449|dock8
  -GOLD-   2262022383D 1   1.00000     0.00000
 Structure written by MMmdl.
 40 41  0  0  0  0  0  0  0  0  1 V2000
  155.6295  139.1875  162.0280 C   0  0  0  0  0  0  0  0  0  0  0  0
  154.5673  140.2846  161.8990 C   0  0  0  0  0  0  0  0  0  0  0  0
  154.1530  140.5354  160.4450 C   0  0  0  0  0  0  0  0  0  0  0  0
  153.0387  141.4152  160.4348 O   0  0  0  0  0  0  0  0  0  0  0  0
  152.8716  142.1368  159.2217 C   0  0  2  0  0  0  0  0  0  0  0  0
  152.7628  143.6517  159.4918 C   0  0  0  0  0  0  0  0  0  0  0  0
  152.4202  144.4018  158.1946 C   0  0  0  0  0  0  0  0  0  0  0  0
  151.1549  143.8240  157.5397 C   0  0  0  0  0  0  0  0  0  0  0  0
  151.2873  142.3829  157.3387 N   0  0  0  0  0  0  0  0  0  0  0  0
  150.2965  141.8497  156.4936 C   0  0  0  0  0  0  0  0  0  0  0  0
  150.6988  141.2762  155.3337 N   0  0  0  0  0  0  0  0  0  0  0  0
  149.7692  140.7390  154.5161 C   0  0  0  0  0  0  0  0  0  0  0  0
  148.3883  140.7296  154.8068 C   0  0  0  0  0  0  0  0  0  0  0  0
  147.4077  140.1321  153.8396 C   0  0  0  0  0  0  0  0  0  0  0  0
  146.2031  140.7090  153.7880 N   0  0  0  0  0  0  0  0  0  0  0  0
  147.6900  139.1353  153.1778 O   0  0  0  0  0  0  0  0  0  0  0  0
  147.9684  141.3411  156.0087 C   0  0  0  0  0  0  0  0  0  0  0  0
  148.9309  141.9061  156.8682 C   0  0  0  0  0  0  0  0  0  0  0  0
  148.4146  142.6718  158.3311 Cl  0  0  0  0  0  0  0  0  0  0  0  0
  151.5845  141.6232  158.5527 C   0  0  0  0  0  0  0  0  0  0  0  0
  155.9088  139.0382  163.0712 H   0  0  0  0  0  0  0  0  0  0  0  0
  156.5328  139.4465  161.4752 H   0  0  0  0  0  0  0  0  0  0  0  0
  155.2610  138.2364  161.6427 H   0  0  0  0  0  0  0  0  0  0  0  0
  153.6900  140.0080  162.4850 H   0  0  0  0  0  0  0  0  0  0  0  0
  154.9488  141.2096  162.3322 H   0  0  0  0  0  0  0  0  0  0  0  0
  154.9890  140.9629  159.8911 H   0  0  0  0  0  0  0  0  0  0  0  0
  153.8862  139.5924  159.9656 H   0  0  0  0  0  0  0  0  0  0  0  0
  153.7085  141.9391  158.5489 H   0  0  0  0  0  0  0  0  0  0  0  0
  151.9873  143.8370  160.2360 H   0  0  0  0  0  0  0  0  0  0  0  0
  153.6921  144.0431  159.9047 H   0  0  0  0  0  0  0  0  0  0  0  0
  152.2813  145.4634  158.4004 H   0  0  0  0  0  0  0  0  0  0  0  0
  153.2567  144.3272  157.4985 H   0  0  0  0  0  0  0  0  0  0  0  0
  150.2878  144.0134  158.1741 H   0  0  0  0  0  0  0  0  0  0  0  0
  150.9672  144.3301  156.5923 H   0  0  0  0  0  0  0  0  0  0  0  0
  150.1479  140.2986  153.6051 H   0  0  0  0  0  0  0  0  0  0  0  0
  145.5002  140.3587  153.1538 H   0  0  0  0  0  0  0  0  0  0  0  0
  146.0027  141.5004  154.3824 H   0  0  0  0  0  0  0  0  0  0  0  0
  146.9222  141.3878  156.2746 H   0  0  0  0  0  0  0  0  0  0  0  0
  151.6924  140.5657  158.3076 H   0  0  0  0  0  0  0  0  0  0  0  0
  150.7481  141.7087  159.2482 H   0  0  0  0  0  0  0  0  0  0  0  0
  1  2  1  0  0  0  0
  1 21  1  0  0  0  0
  1 22  1  0  0  0  0
  1 23  1  0  0  0  0
  2  3  1  0  0  0  0
  2 24  1  0  0  0  0
  2 25  1  0  0  0  0
  3  4  1  0  0  0  0
  3 26  1  0  0  0  0
  3 27  1  0  0  0  0
  4  5  1  0  0  0  0
  5 20  1  0  0  0  0
  5  6  1  0  0  0  0
  5 28  1  0  0  0  0
  6  7  1  0  0  0  0
  6 29  1  0  0  0  0
  6 30  1  0  0  0  0
  7  8  1  0  0  0  0
  7 31  1  0  0  0  0
  7 32  1  0  0  0  0
  8  9  1  0  0  0  0
  8 33  1  0  0  0  0
  8 34  1  0  0  0  0
  9 10  1  0  0  0  0
  9 20  1  0  0  0  0
 10 18  1  0  0  0  0
 10 11  2  0  0  0  0
 11 12  1  0  0  0  0
 12 13  2  0  0  0  0
 12 35  1  0  0  0  0
 13 14  1  0  0  0  0
 13 17  1  0  0  0  0
 14 15  1  0  0  0  0
 14 16  2  0  0  0  0
 15 36  1  0  0  0  0
 15 37  1  0  0  0  0
 17 18  2  0  0  0  0
 17 38  1  0  0  0  0
 18 19  1  0  0  0  0
 20 39  1  0  0  0  0
 20 40  1  0  0  0  0
M  END
> <s_m_source_file>
AV-unprocessed.smi

> <i_m_source_file_index>
373

> <i_lp_mmshare_version>
43012

> <i_f3d_flags>
0

> <s_epik_input>
W0NIM11bQ0gyXVtDSDJdT1tDQEBIXTFbQ0gyXVtDSDJdW0NIMl1OKFtDSDJdMSljMm5bY0hdYyhDKD1PKVtOSDJdKVtjSF1jMkNs

> <s_epik_cmdline>
J2VwaWtfcHl0aG9uJywgJy1waCcsICc3LjAnLCAnLXRuJywgJzgnLCAnLW1hJywgJzIwMCcsICctbWV0YWxfYmluZGluZycsICctaW1hZScsICc8aW5maWxlLm1hZT4nLCAnLW9tYWUnLCAnPG91dGZpbGUubWFlPic=

> <r_lp_tautomer_probability>
1

> <r_epik_Ionization_Penalty>
3.23666e-05

> <r_epik_Ionization_Penalty_Charging>
0

> <r_epik_Ionization_Penalty_Neutral>
3.23666e-05

> <r_epik_State_Penalty>
-0

> <r_epik_Charging_Adjusted_Penalty>
0

> <i_epik_Tot_Q>
0

> <i_epik_Tot_abs_Q>
0

> <r_epik_Metal_State_Penalty>
-0

> <b_epik_Metal_Only>
0

> <s_lp_Force_Field>
OPLS_2005

> <r_lp_Energy>
19.8682

> <b_lp_Chiralities_Consistent>
1

> <s_lp_Variant>
AV-unprocessed.smi:373-1

> <Gold.Version>
5.8.1

> <Gold.Id.Protein>
6NUR|6NUR_protein|mol2

> <Gold.PLP.Fitness>
38.5702

> <Gold.PLP.PLP>
-35.3244

> <Gold.PLP.part.hbond>
-2.0000

> <Gold.PLP.part.metal>
0.0000

> <Gold.PLP.part.buried>
0.1296

> <Gold.PLP.part.nonpolar>
-33.3504

> <Gold.PLP.part.repulsive>
0.9274

> <Gold.PLP.ligand.clash>
0.0000

> <Gold.PLP.ligand.torsion>
1.4773

> <Gold.PLP.Chemscore.Hbond>
0.9760

> <Gold.PLP.Chemscore.CHOScore>
0.9991

> <Gold.PLP.Chemscore.Metal>
0.0000

> <Gold.Chemscore.Hbonds>
donor molecule, donor type, donor heavy atom, donor atom, acceptor molecule, acceptor atom, score
      L1  H    15    36       P1 10175  0.96
      L1  C    12    35       P1  7957  1.00

> <Gold.PLP.Chemscore.Internal.Correction>
0.2750

> <Gold.Rescore>
     Score         DG    S(hbond)    S(metal)    S(lipo)     H(rot)  DE(clash)    DE(int)     intcor
     14.04     -16.69       0.97        0.00     102.36       1.57       0.11       2.54       ----

> <Gold.Chemscore.Fitness>
14.0421

> <Gold.Chemscore.DG>
-16.6928

> <Gold.Chemscore.ZeroCoef>
-5.4800

> <Gold.Chemscore.Hbond>
0.9738

> <Gold.Chemscore.Metal>
0.0000

> <Gold.Chemscore.Lipo>
102.3593

> <Gold.Chemscore.Internal_Hbond>
0.0000

> <Gold.Chemscore.DEClash>
0.1088

> <Gold.Chemscore.DEInternal>
2.5419

> <Gold.Chemscore.Rot>
1.5687

> <Gold.Chemscore.Internal.Correction>
   9.000000E+99

> <Gold.Chemscore.Hbonds>
donor molecule, donor type, donor heavy atom, donor atom, acceptor molecule, acceptor atom, score
      L1  H    15    36       P1 10175  0.89

> <Gold.Chemscore.Hbond.Weighted>
-3.2526

> <Gold.Chemscore.Metal.Weighted>
-0.0000

> <Gold.Chemscore.Lipo.Weighted>
-11.9760

> <Gold.Chemscore.Internal_Hbond.Weighted>
0.0000

> <Gold.Chemscore.DEClash.Weighted>
0.1088

> <Gold.Chemscore.DEInternal.Weighted>
2.5419

> <Gold.Chemscore.Rot.Weighted>
4.0158

> <Gold.Chemscore.Internal.Correction.Weighted>
   9.000000E+99

> <Gold.Protein.RotatedTorsions>
[ 6907 6896 6895 6894 ] final -112.04 input  -60.11 | X-H torsion
[ 7974 7965 7964 7962 ] final  151.65 input  175.53 | X-H torsion
[ 8008 7997 7996 7995 ] final -118.92 input   59.86 | X-H torsion
[ 10167 10162 10161 10158 ] final   22.44 input  -65.29 | X-H torsion
[ 10718 10713 10712 10709 ] final  -85.16 input   66.30 | X-H torsion
[ 10763 10752 10751 10750 ] final -175.80 input  -60.55 | X-H torsion
[ 11005 11000 10999 10996 ] final   34.00 input  -57.11 | X-H torsion

> <Gold.Protein.ActiveResidues>
 VAL166  LYS551  ARG553  GLY616  TRP617  ASP618  TYR619  PRO620  LYS621  CYS622 
 ASP623  PHE694  ASN695  SER759  ASP760  ASP761  ALA762  ILE779  LEU786  VAL792 
 PHE793  MET794  SER795  GLU796  ALA797  LYS798  CYS799  TRP800  GLU811  SER814 

> <Gold.Protein.RotatedAtoms>
  150.7731  133.9148  159.3380 H   0  0  0  0  0  0  0  0  0  0  0  0  # atno 6907 bound_to 6896
  151.7029  135.0925  160.0263 H   0  0  0  0  0  0  0  0  0  0  0  0  # atno 6908 bound_to 6896
  152.3756  133.6439  159.6157 H   0  0  0  0  0  0  0  0  0  0  0  0  # atno 6909 bound_to 6896
  144.8277  139.6565  143.6072 H   0  0  0  0  0  0  0  0  0  0  0  0  # atno 7974 bound_to 7965
  155.1074  140.0397  157.2714 H   0  0  0  0  0  0  0  0  0  0  0  0  # atno 8008 bound_to 7997
  154.6711  140.2612  155.6981 H   0  0  0  0  0  0  0  0  0  0  0  0  # atno 8009 bound_to 7997
  156.2658  140.2797  156.1220 H   0  0  0  0  0  0  0  0  0  0  0  0  # atno 8010 bound_to 7997
  140.5348  143.9779  150.6485 H   0  0  0  0  0  0  0  0  0  0  0  0  # atno 10167 bound_to 10162
  155.9999  130.4722  150.4520 H   0  0  0  0  0  0  0  0  0  0  0  0  # atno 10718 bound_to 10713
  154.5801  135.2835  155.0741 H   0  0  0  0  0  0  0  0  0  0  0  0  # atno 10763 bound_to 10752
  154.2081  135.6413  153.5111 H   0  0  0  0  0  0  0  0  0  0  0  0  # atno 10764 bound_to 10752
  153.0085  135.5485  154.6452 H   0  0  0  0  0  0  0  0  0  0  0  0  # atno 10765 bound_to 10752
  140.2573  134.3233  155.7869 H   0  0  0  0  0  0  0  0  0  0  0  0  # atno 11005 bound_to 11000
  146.2582  139.6350  142.9380 LP  0  0  0  0  0  0  0  0  0  0  0  0  # atno 17320 bound_to 7965
  145.4963  141.0438  143.2565 LP  0  0  0  0  0  0  0  0  0  0  0  0  # atno 17321 bound_to 7965
  140.3164  143.3165  152.0828 LP  0  0  0  0  0  0  0  0  0  0  0  0  # atno 17342 bound_to 10162
  139.4967  144.6603  151.6481 LP  0  0  0  0  0  0  0  0  0  0  0  0  # atno 17343 bound_to 10162
  157.2552  131.0555  151.2355 LP  0  0  0  0  0  0  0  0  0  0  0  0  # atno 17370 bound_to 10713
  157.3489  130.7072  149.6428 LP  0  0  0  0  0  0  0  0  0  0  0  0  # atno 17371 bound_to 10713
  141.2194  133.7388  156.9131 LP  0  0  0  0  0  0  0  0  0  0  0  0  # atno 17394 bound_to 11000
  140.1499  134.9237  157.2579 LP  0  0  0  0  0  0  0  0  0  0  0  0  # atno 17395 bound_to 11000

$$$$
