AV-unprocessed.smi:2829|AV-procd|sdf|10903|dock9
  -GOLD-   2272015353D 1   1.00000     0.00000
 Structure written by MMmdl.
 50 53  0  0  0  0  0  0  0  0  1 V2000
  152.1352  129.9451  154.8043 C   0  0  0  0  0  0  0  0  0  0  0  0
  150.6219  130.2271  154.9418 C   0  0  0  0  0  0  0  0  0  0  0  0
  149.8975  129.4130  153.8492 C   0  0  0  0  0  0  0  0  0  0  0  0
  150.1834  129.7380  156.3379 C   0  0  0  0  0  0  0  0  0  0  0  0
  150.2858  131.7213  154.7861 C   0  0  0  0  0  0  0  0  0  0  0  0
  149.4287  132.2208  153.7796 C   0  0  0  0  0  0  0  0  0  0  0  0
  149.2053  133.6073  153.7394 C   0  0  0  0  0  0  0  0  0  0  0  0
  149.8434  134.4183  154.6985 C   0  0  0  0  0  0  0  0  0  0  0  0
  149.5791  135.8073  154.5892 N   0  0  0  0  0  0  0  0  0  0  0  0
  149.7269  136.7621  155.5283 C   0  0  0  0  0  0  0  0  0  0  0  0
  150.0352  136.5524  156.6997 O   0  0  0  0  0  0  0  0  0  0  0  0
  149.4996  138.0089  155.0786 N   0  0  0  0  0  0  0  0  0  0  0  0
  149.5761  139.2560  155.8408 C   0  0  1  0  0  0  0  0  0  0  0  0
  151.0046  139.8319  155.8769 C   0  0  2  0  0  0  0  0  0  0  0  0
  151.7345  139.9462  157.1881 C   0  0  0  0  0  0  0  0  0  0  0  0
  151.5003  141.4067  157.5834 C   0  0  0  0  0  0  0  0  0  0  0  0
  150.3259  141.7884  156.8705 O   0  0  0  0  0  0  0  0  0  0  0  0
  150.4018  141.1993  155.5759 C   0  0  2  0  0  0  0  0  0  0  0  0
  149.1211  140.5193  155.0769 C   0  0  0  0  0  0  0  0  0  0  0  0
  148.7928  140.5200  153.5714 C   0  0  0  0  0  0  0  0  0  0  0  0
  147.3135  140.6866  153.9280 C   0  0  0  0  0  0  0  0  0  0  0  0
  147.7430  141.1497  155.3233 C   0  0  0  0  0  0  0  0  0  0  0  0
  150.6533  133.8712  155.6391 N   0  0  0  0  0  0  0  0  0  0  0  0
  150.8701  132.5535  155.6824 N   0  0  0  0  0  0  0  0  0  0  0  0
  152.3503  128.8815  154.9159 H   0  0  0  0  0  0  0  0  0  0  0  0
  152.7148  130.4680  155.5661 H   0  0  0  0  0  0  0  0  0  0  0  0
  152.5138  130.2455  153.8265 H   0  0  0  0  0  0  0  0  0  0  0  0
  150.1826  129.7488  152.8514 H   0  0  0  0  0  0  0  0  0  0  0  0
  148.8137  129.5028  153.9281 H   0  0  0  0  0  0  0  0  0  0  0  0
  150.1368  128.3515  153.9196 H   0  0  0  0  0  0  0  0  0  0  0  0
  150.4265  128.6852  156.4848 H   0  0  0  0  0  0  0  0  0  0  0  0
  149.1078  129.8424  156.4851 H   0  0  0  0  0  0  0  0  0  0  0  0
  150.6789  130.3034  157.1282 H   0  0  0  0  0  0  0  0  0  0  0  0
  148.9490  131.5859  153.0512 H   0  0  0  0  0  0  0  0  0  0  0  0
  148.5601  134.0352  152.9858 H   0  0  0  0  0  0  0  0  0  0  0  0
  149.2960  136.1246  153.6740 H   0  0  0  0  0  0  0  0  0  0  0  0
  149.2365  138.0993  154.1078 H   0  0  0  0  0  0  0  0  0  0  0  0
  149.1430  139.2020  156.8420 H   0  0  0  0  0  0  0  0  0  0  0  0
  151.6181  139.4810  155.0448 H   0  0  0  0  0  0  0  0  0  0  0  0
  151.3094  139.2704  157.9310 H   0  0  0  0  0  0  0  0  0  0  0  0
  152.7972  139.7194  157.0985 H   0  0  0  0  0  0  0  0  0  0  0  0
  151.3786  141.5383  158.6586 H   0  0  0  0  0  0  0  0  0  0  0  0
  152.3328  142.0309  157.2548 H   0  0  0  0  0  0  0  0  0  0  0  0
  150.9603  141.7865  154.8457 H   0  0  0  0  0  0  0  0  0  0  0  0
  149.1924  141.3953  153.0575 H   0  0  0  0  0  0  0  0  0  0  0  0
  149.0276  139.6054  153.0274 H   0  0  0  0  0  0  0  0  0  0  0  0
  146.7891  141.4412  153.3414 H   0  0  0  0  0  0  0  0  0  0  0  0
  146.7712  139.7408  153.9412 H   0  0  0  0  0  0  0  0  0  0  0  0
  147.1765  140.7035  156.1410 H   0  0  0  0  0  0  0  0  0  0  0  0
  147.7874  142.2365  155.4102 H   0  0  0  0  0  0  0  0  0  0  0  0
  1  2  1  0  0  0  0
  1 25  1  0  0  0  0
  1 26  1  0  0  0  0
  1 27  1  0  0  0  0
  2  3  1  0  0  0  0
  2  4  1  0  0  0  0
  2  5  1  0  0  0  0
  3 28  1  0  0  0  0
  3 29  1  0  0  0  0
  3 30  1  0  0  0  0
  4 31  1  0  0  0  0
  4 32  1  0  0  0  0
  4 33  1  0  0  0  0
  5 24  1  0  0  0  0
  5  6  2  0  0  0  0
  6  7  1  0  0  0  0
  6 34  1  0  0  0  0
  7  8  2  0  0  0  0
  7 35  1  0  0  0  0
  8  9  1  0  0  0  0
  8 23  1  0  0  0  0
  9 10  1  0  0  0  0
  9 36  1  0  0  0  0
 10 11  2  0  0  0  0
 10 12  1  0  0  0  0
 12 13  1  0  0  0  0
 12 37  1  0  0  0  0
 13 19  1  0  0  0  0
 13 14  1  0  0  0  0
 13 38  1  0  0  0  0
 14 18  1  0  0  0  0
 14 15  1  0  0  0  0
 14 39  1  0  0  0  0
 15 16  1  0  0  0  0
 15 40  1  0  0  0  0
 15 41  1  0  0  0  0
 16 17  1  0  0  0  0
 16 42  1  0  0  0  0
 16 43  1  0  0  0  0
 17 18  1  0  0  0  0
 18 19  1  0  0  0  0
 18 44  1  0  0  0  0
 19 22  1  0  0  0  0
 19 20  1  0  0  0  0
 20 21  1  0  0  0  0
 20 45  1  0  0  0  0
 20 46  1  0  0  0  0
 21 22  1  0  0  0  0
 21 47  1  0  0  0  0
 21 48  1  0  0  0  0
 22 49  1  0  0  0  0
 22 50  1  0  0  0  0
 23 24  2  0  0  0  0
M  END
> <s_m_source_file>
AV-unprocessed.smi

> <i_m_source_file_index>
2829

> <i_lp_mmshare_version>
43012

> <i_f3d_flags>
0

> <s_epik_input>
W0NIM11DKFtDSDNdKShbQ0gzXSljMVtjSF1bY0hdYyhubjEpW05IXUMoPU8pW05IXVtDQEBIXTJbQ0BIXShbQ0gyXVtDSDJdTzMpW0NAQEhdM0MyNFtDSDJdW0NIMl1bQ0gyXTQ=

> <s_epik_cmdline>
J2VwaWtfcHl0aG9uJywgJy1waCcsICc3LjAnLCAnLXRuJywgJzgnLCAnLW1hJywgJzIwMCcsICctbWV0YWxfYmluZGluZycsICctaW1hZScsICc8aW5maWxlLm1hZT4nLCAnLW9tYWUnLCAnPG91dGZpbGUubWFlPic=

> <r_lp_tautomer_probability>
1

> <r_epik_Ionization_Penalty>
0.011915

> <r_epik_Ionization_Penalty_Charging>
0

> <r_epik_Ionization_Penalty_Neutral>
0.011915

> <r_epik_State_Penalty>
0.00486223

> <r_epik_Charging_Adjusted_Penalty>
0.00486223

> <i_epik_Tot_Q>
0

> <i_epik_Tot_abs_Q>
0

> <r_epik_Metal_State_Penalty>
-0

> <b_epik_Metal_Only>
0

> <s_lp_Force_Field>
OPLS_2005

> <r_lp_Energy>
59.5844

> <b_lp_Chiralities_Consistent>
1

> <s_lp_Variant>
AV-unprocessed.smi:2829-6

> <Gold.Version>
5.8.1

> <Gold.Id.Protein>
6NUR|6NUR_protein|mol2

> <Gold.PLP.Fitness>
36.6255

> <Gold.PLP.PLP>
-33.9982

> <Gold.PLP.part.hbond>
-1.0000

> <Gold.PLP.part.metal>
0.0000

> <Gold.PLP.part.buried>
-0.4918

> <Gold.PLP.part.nonpolar>
-32.5359

> <Gold.PLP.part.repulsive>
0.1323

> <Gold.PLP.ligand.clash>
0.0000

> <Gold.PLP.ligand.torsion>
0.2843

> <Gold.PLP.Chemscore.Hbond>
1.0000

> <Gold.PLP.Chemscore.CHOScore>
0.0000

> <Gold.PLP.Chemscore.Metal>
0.0000

> <Gold.Chemscore.Hbonds>
donor molecule, donor type, donor heavy atom, donor atom, acceptor molecule, acceptor atom, score
      L1  H     9    36       P1  7948  1.00

> <Gold.PLP.Chemscore.Internal.Correction>
0.1960

> <Gold.Rescore>
     Score         DG    S(hbond)    S(metal)    S(lipo)     H(rot)  DE(clash)    DE(int)     intcor
     14.03     -15.74       0.95        0.00      85.98       1.16       0.16       1.54       ----

> <Gold.Chemscore.Fitness>
14.0339

> <Gold.Chemscore.DG>
-15.7361

> <Gold.Chemscore.ZeroCoef>
-5.4800

> <Gold.Chemscore.Hbond>
0.9492

> <Gold.Chemscore.Metal>
0.0000

> <Gold.Chemscore.Lipo>
85.9821

> <Gold.Chemscore.Internal_Hbond>
0.0000

> <Gold.Chemscore.DEClash>
0.1583

> <Gold.Chemscore.DEInternal>
1.5439

> <Gold.Chemscore.Rot>
1.1618

> <Gold.Chemscore.Internal.Correction>
   9.000000E+99

> <Gold.Chemscore.Hbonds>
donor molecule, donor type, donor heavy atom, donor atom, acceptor molecule, acceptor atom, score
      L1  H     9    36       P1  7948  0.82

> <Gold.Chemscore.Hbond.Weighted>
-3.1703

> <Gold.Chemscore.Metal.Weighted>
-0.0000

> <Gold.Chemscore.Lipo.Weighted>
-10.0599

> <Gold.Chemscore.Internal_Hbond.Weighted>
0.0000

> <Gold.Chemscore.DEClash.Weighted>
0.1583

> <Gold.Chemscore.DEInternal.Weighted>
1.5439

> <Gold.Chemscore.Rot.Weighted>
2.9741

> <Gold.Chemscore.Internal.Correction.Weighted>
   9.000000E+99

> <Gold.Protein.RotatedTorsions>
[ 6907 6896 6895 6894 ] final -121.08 input  -60.11 | X-H torsion
[ 7974 7965 7964 7962 ] final -112.35 input  175.53 | X-H torsion
[ 8008 7997 7996 7995 ] final  -42.33 input   59.86 | X-H torsion
[ 10167 10162 10161 10158 ] final  -56.02 input  -65.29 | X-H torsion
[ 10718 10713 10712 10709 ] final  147.49 input   66.30 | X-H torsion
[ 10763 10752 10751 10750 ] final  129.94 input  -60.55 | X-H torsion
[ 11005 11000 10999 10996 ] final   61.63 input  -57.11 | X-H torsion

> <Gold.Protein.ActiveResidues>
 VAL166  LYS551  ARG553  GLY616  TRP617  ASP618  TYR619  PRO620  LYS621  CYS622 
 ASP623  PHE694  ASN695  SER759  ASP760  ASP761  ALA762  ILE779  LEU786  VAL792 
 PHE793  MET794  SER795  GLU796  ALA797  LYS798  CYS799  TRP800  GLU811  SER814 

> <Gold.Protein.RotatedAtoms>
  150.8451  133.7874  159.3045 H   0  0  0  0  0  0  0  0  0  0  0  0  # atno 6907 bound_to 6896
  151.5563  135.1065  159.9971 H   0  0  0  0  0  0  0  0  0  0  0  0  # atno 6908 bound_to 6896
  152.4507  133.7580  159.6787 H   0  0  0  0  0  0  0  0  0  0  0  0  # atno 6909 bound_to 6896
  145.1451  140.8799  143.3679 H   0  0  0  0  0  0  0  0  0  0  0  0  # atno 7974 bound_to 7965
  154.3999  140.1476  156.3337 H   0  0  0  0  0  0  0  0  0  0  0  0  # atno 8008 bound_to 7997
  155.8420  140.3461  155.5617 H   0  0  0  0  0  0  0  0  0  0  0  0  # atno 8009 bound_to 7997
  155.8077  140.0879  157.1912 H   0  0  0  0  0  0  0  0  0  0  0  0  # atno 8010 bound_to 7997
  140.6341  143.2474  151.5163 H   0  0  0  0  0  0  0  0  0  0  0  0  # atno 10167 bound_to 10162
  157.3204  131.0903  151.1245 H   0  0  0  0  0  0  0  0  0  0  0  0  # atno 10718 bound_to 10713
  153.7500  135.3211  155.3319 H   0  0  0  0  0  0  0  0  0  0  0  0  # atno 10763 bound_to 10752
  154.8266  135.4565  154.0941 H   0  0  0  0  0  0  0  0  0  0  0  0  # atno 10764 bound_to 10752
  153.2141  135.6939  153.8161 H   0  0  0  0  0  0  0  0  0  0  0  0  # atno 10765 bound_to 10752
  140.0148  134.6242  155.9726 H   0  0  0  0  0  0  0  0  0  0  0  0  # atno 11005 bound_to 11000
  145.0491  139.3196  143.5938 LP  0  0  0  0  0  0  0  0  0  0  0  0  # atno 17320 bound_to 7965
  146.3501  139.9892  142.8687 LP  0  0  0  0  0  0  0  0  0  0  0  0  # atno 17321 bound_to 7965
  139.5553  144.2291  152.1601 LP  0  0  0  0  0  0  0  0  0  0  0  0  # atno 17342 bound_to 10162
  140.1543  144.5085  150.6669 LP  0  0  0  0  0  0  0  0  0  0  0  0  # atno 17343 bound_to 10162
  157.2533  130.6624  149.5941 LP  0  0  0  0  0  0  0  0  0  0  0  0  # atno 17370 bound_to 10713
  155.9685  130.4531  150.5801 LP  0  0  0  0  0  0  0  0  0  0  0  0  # atno 17371 bound_to 10713
  141.1735  133.6538  156.4741 LP  0  0  0  0  0  0  0  0  0  0  0  0  # atno 17394 bound_to 11000
  140.4491  134.6945  157.5030 LP  0  0  0  0  0  0  0  0  0  0  0  0  # atno 17395 bound_to 11000

$$$$
