AV-unprocessed.smi:1948|AV-procd|sdf|7875|dock4
  -GOLD-   2272010 23D 1   1.00000     0.00000
 Structure written by MMmdl.
 29 30  0  0  0  0  0  0  0  0  2 V2000
  147.7015  131.9027  153.8445 O   0  0  0  0  0  0  0  0  0  0  0  0
  148.1151  132.9954  153.4496 C   0  0  0  0  0  0  0  0  0  0  0  0
  149.2701  133.5951  153.8181 N   0  5  0  0  0  0  0  0  0  0  0  0
  149.8948  133.2151  154.9450 C   0  0  0  0  0  0  0  0  0  0  0  0
  150.0281  134.0322  156.0020 N   0  0  0  0  0  0  0  0  0  0  0  0
  150.6992  133.4440  157.0655 N   0  0  0  0  0  0  0  0  0  0  0  0
  151.0488  132.1888  156.7849 C   0  0  0  0  0  0  0  0  0  0  0  0
  150.5889  131.6111  155.1974 S   0  0  0  0  0  0  0  0  0  0  0  0
  147.3953  133.7064  152.5692 N   0  0  0  0  0  0  0  0  0  0  0  0
  146.1083  133.3200  151.9968 C   0  0  2  0  0  0  0  0  0  0  0  0
  146.2377  132.0033  151.2024 C   0  0  0  0  0  0  0  0  0  0  0  0
  144.9101  131.6214  150.5280 C   0  0  0  0  0  0  0  0  0  0  0  0
  144.3979  132.7590  149.6283 C   0  0  1  0  0  0  0  0  0  0  0  0
  143.1459  132.4012  149.0819 O   0  0  0  0  0  0  0  0  0  0  0  0
  144.2576  134.0700  150.4206 C   0  0  0  0  0  0  0  0  0  0  0  0
  145.5850  134.4538  151.0945 C   0  0  0  0  0  0  0  0  0  0  0  0
  151.5785  131.5992  157.5179 H   0  0  0  0  0  0  0  0  0  0  0  0
  147.7761  134.5933  152.2736 H   0  0  0  0  0  0  0  0  0  0  0  0
  145.3899  133.1757  152.8061 H   0  0  0  0  0  0  0  0  0  0  0  0
  147.0132  132.1056  150.4420 H   0  0  0  0  0  0  0  0  0  0  0  0
  146.5571  131.1947  151.8608 H   0  0  0  0  0  0  0  0  0  0  0  0
  145.0428  130.7104  149.9433 H   0  0  0  0  0  0  0  0  0  0  0  0
  144.1698  131.3924  151.2960 H   0  0  0  0  0  0  0  0  0  0  0  0
  145.0944  132.9086  148.8024 H   0  0  0  0  0  0  0  0  0  0  0  0
  142.5542  133.1305  149.1873 H   0  0  0  0  0  0  0  0  0  0  0  0
  143.9333  134.8751  149.7602 H   0  0  0  0  0  0  0  0  0  0  0  0
  143.4842  133.9631  151.1827 H   0  0  0  0  0  0  0  0  0  0  0  0
  145.4492  135.3640  151.6797 H   0  0  0  0  0  0  0  0  0  0  0  0
  146.3247  134.6873  150.3271 H   0  0  0  0  0  0  0  0  0  0  0  0
  1  2  2  0  0  0  0
  2  3  1  0  0  0  0
  2  9  1  0  0  0  0
  3  4  1  0  0  0  0
  4  8  1  0  0  0  0
  4  5  2  0  0  0  0
  5  6  1  0  0  0  0
  6  7  2  0  0  0  0
  7  8  1  0  0  0  0
  7 17  1  0  0  0  0
  9 10  1  0  0  0  0
  9 18  1  0  0  0  0
 10 16  1  0  0  0  0
 10 11  1  0  0  0  0
 10 19  1  0  0  0  0
 11 12  1  0  0  0  0
 11 20  1  0  0  0  0
 11 21  1  0  0  0  0
 12 13  1  0  0  0  0
 12 22  1  0  0  0  0
 12 23  1  0  0  0  0
 13 14  1  0  0  0  0
 13 15  1  0  0  0  0
 13 24  1  0  0  0  0
 14 25  1  0  0  0  0
 15 16  1  0  0  0  0
 15 26  1  0  0  0  0
 15 27  1  0  0  0  0
 16 28  1  0  0  0  0
 16 29  1  0  0  0  0
M  CHG  1   3  -1
M  END
> <s_m_source_file>
AV-unprocessed.smi

> <i_m_source_file_index>
1948

> <i_lp_mmshare_version>
43012

> <i_f3d_flags>
0

> <s_epik_input>
czFbY0hdbm5jMVtOSF1DKD1PKVtOSF1bQ0BASF0yW0NIMl1bQ0gyXVtDQEBIXShbT0hdKVtDSDJdW0NIMl0y

> <s_epik_cmdline>
J2VwaWtfcHl0aG9uJywgJy1waCcsICc3LjAnLCAnLXRuJywgJzgnLCAnLW1hJywgJzIwMCcsICctbWV0YWxfYmluZGluZycsICctaW1hZScsICc8aW5maWxlLm1hZT4nLCAnLW9tYWUnLCAnPG91dGZpbGUubWFlPic=

> <r_lp_tautomer_probability>
1

> <r_epik_Ionization_Penalty>
4.52057

> <r_epik_Ionization_Penalty_Charging>
4.4725

> <r_epik_Ionization_Penalty_Neutral>
0.048076

> <r_epik_State_Penalty>
4.47218

> <r_epik_Charging_Adjusted_Penalty>
8.94468

> <i_epik_Tot_Q>
-1

> <i_epik_Tot_abs_Q>
1

> <r_epik_Metal_State_Penalty>
0.805713

> <b_epik_Metal_Only>
1

> <s_lp_Force_Field>
OPLS_2005

> <r_lp_Energy>
5.07153

> <b_lp_Chiralities_Consistent>
1

> <s_lp_Variant>
AV-unprocessed.smi:1948-3

> <Gold.Version>
5.8.1

> <Gold.Id.Protein>
6NUR|6NUR_protein|mol2

> <Gold.PLP.Fitness>
37.2853

> <Gold.PLP.PLP>
-29.4204

> <Gold.PLP.part.hbond>
-3.8919

> <Gold.PLP.part.metal>
0.0000

> <Gold.PLP.part.buried>
-5.7552

> <Gold.PLP.part.nonpolar>
-20.9769

> <Gold.PLP.part.repulsive>
0.2351

> <Gold.PLP.ligand.clash>
0.0000

> <Gold.PLP.ligand.torsion>
0.7031

> <Gold.PLP.Chemscore.Hbond>
3.0887

> <Gold.PLP.Chemscore.CHOScore>
0.0000

> <Gold.PLP.Chemscore.Metal>
0.0000

> <Gold.Chemscore.Hbonds>
donor molecule, donor type, donor heavy atom, donor atom, acceptor molecule, acceptor atom, score
      L1  H     9    18       P1  7948  1.00
      L1  H    14    25       P1 10186  0.98
      P1  H  6896  6908       L1     6  0.56
      P1  H 10785 10796       L1    14  0.37

> <Gold.PLP.Chemscore.Internal.Correction>
0.0052

> <Gold.Rescore>
     Score         DG    S(hbond)    S(metal)    S(lipo)     H(rot)  DE(clash)    DE(int)     intcor
     16.33     -17.02       2.80        0.00      52.26       1.53       0.00       0.69       ----

> <Gold.Chemscore.Fitness>
16.3286

> <Gold.Chemscore.DG>
-17.0216

> <Gold.Chemscore.ZeroCoef>
-5.4800

> <Gold.Chemscore.Hbond>
2.8005

> <Gold.Chemscore.Metal>
0.0000

> <Gold.Chemscore.Lipo>
52.2577

> <Gold.Chemscore.Internal_Hbond>
0.0000

> <Gold.Chemscore.DEClash>
0.0048

> <Gold.Chemscore.DEInternal>
0.6882

> <Gold.Chemscore.Rot>
1.5337

> <Gold.Chemscore.Internal.Correction>
   9.000000E+99

> <Gold.Chemscore.Hbonds>
donor molecule, donor type, donor heavy atom, donor atom, acceptor molecule, acceptor atom, score
      L1  H     9    18       P1  7948  0.57
      L1  H    14    25       P1 10186  0.91
      P1  H  6896  6908       L1     6  0.25
      P1  H 10785 10796       L1    14  0.22

> <Gold.Chemscore.Hbond.Weighted>
-9.3537

> <Gold.Chemscore.Metal.Weighted>
-0.0000

> <Gold.Chemscore.Lipo.Weighted>
-6.1141

> <Gold.Chemscore.Internal_Hbond.Weighted>
0.0000

> <Gold.Chemscore.DEClash.Weighted>
0.0048

> <Gold.Chemscore.DEInternal.Weighted>
0.6882

> <Gold.Chemscore.Rot.Weighted>
3.9262

> <Gold.Chemscore.Internal.Correction.Weighted>
   9.000000E+99

> <Gold.Protein.RotatedTorsions>
[ 6907 6896 6895 6894 ] final  103.23 input  -60.11 | X-H torsion
[ 7974 7965 7964 7962 ] final  -36.50 input  175.53 | X-H torsion
[ 8008 7997 7996 7995 ] final  125.37 input   59.86 | X-H torsion
[ 10167 10162 10161 10158 ] final  -62.59 input  -65.29 | X-H torsion
[ 10718 10713 10712 10709 ] final  177.06 input   66.30 | X-H torsion
[ 10763 10752 10751 10750 ] final  101.48 input  -60.55 | X-H torsion
[ 11005 11000 10999 10996 ] final -101.88 input  -57.11 | X-H torsion

> <Gold.Protein.ActiveResidues>
 VAL166  LYS551  ARG553  GLY616  TRP617  ASP618  TYR619  PRO620  LYS621  CYS622 
 ASP623  PHE694  ASN695  SER759  ASP760  ASP761  ALA762  ILE779  LEU786  VAL792 
 PHE793  MET794  SER795  GLU796  ALA797  LYS798  CYS799  TRP800  GLU811  SER814 

> <Gold.Protein.RotatedAtoms>
  152.5301  133.9857  159.7826 H   0  0  0  0  0  0  0  0  0  0  0  0  # atno 6907 bound_to 6896
  151.0102  133.5964  159.2691 H   0  0  0  0  0  0  0  0  0  0  0  0  # atno 6908 bound_to 6896
  151.3042  135.0783  159.9302 H   0  0  0  0  0  0  0  0  0  0  0  0  # atno 6909 bound_to 6896
  146.0656  140.6285  142.8976 H   0  0  0  0  0  0  0  0  0  0  0  0  # atno 7974 bound_to 7965
  156.2832  140.2718  156.1939 H   0  0  0  0  0  0  0  0  0  0  0  0  # atno 8008 bound_to 7997
  155.0430  140.0386  157.2534 H   0  0  0  0  0  0  0  0  0  0  0  0  # atno 8009 bound_to 7997
  154.7258  140.2697  155.6505 H   0  0  0  0  0  0  0  0  0  0  0  0  # atno 8010 bound_to 7997
  140.5929  143.2345  151.6100 H   0  0  0  0  0  0  0  0  0  0  0  0  # atno 10167 bound_to 10162
  156.9110  130.9910  151.3020 H   0  0  0  0  0  0  0  0  0  0  0  0  # atno 10718 bound_to 10713
  153.3272  135.4043  155.1466 H   0  0  0  0  0  0  0  0  0  0  0  0  # atno 10763 bound_to 10752
  154.8614  135.3602  154.5518 H   0  0  0  0  0  0  0  0  0  0  0  0  # atno 10764 bound_to 10752
  153.5954  135.7072  153.5465 H   0  0  0  0  0  0  0  0  0  0  0  0  # atno 10765 bound_to 10752
  141.1213  133.8513  157.1288 H   0  0  0  0  0  0  0  0  0  0  0  0  # atno 11005 bound_to 11000
  144.7200  140.4343  143.7015 LP  0  0  0  0  0  0  0  0  0  0  0  0  # atno 17320 bound_to 7965
  145.6483  139.1561  143.2877 LP  0  0  0  0  0  0  0  0  0  0  0  0  # atno 17321 bound_to 7965
  139.5239  144.3120  152.0985 LP  0  0  0  0  0  0  0  0  0  0  0  0  # atno 17342 bound_to 10162
  140.2287  144.4391  150.6309 LP  0  0  0  0  0  0  0  0  0  0  0  0  # atno 17343 bound_to 10162
  157.5967  130.8483  149.8740 LP  0  0  0  0  0  0  0  0  0  0  0  0  # atno 17370 bound_to 10713
  156.0536  130.3713  150.1143 LP  0  0  0  0  0  0  0  0  0  0  0  0  # atno 17371 bound_to 10713
  140.0172  134.9962  157.0518 LP  0  0  0  0  0  0  0  0  0  0  0  0  # atno 17394 bound_to 11000
  140.4500  134.1592  155.7181 LP  0  0  0  0  0  0  0  0  0  0  0  0  # atno 17395 bound_to 11000

$$$$
