AV-unprocessed.smi:175|AV-procd|sdf|1432|dock7
  -GOLD-   2262019213D 1   1.00000     0.00000
 Structure written by MMmdl.
 47 50  0  0  0  0  0  0  0  0  1 V2000
  147.2407  132.6831  149.8449 C   0  0  0  0  0  0  0  0  0  0  0  0
  146.3029  133.6535  150.5803 C   0  0  1  0  0  0  0  0  0  0  0  0
  144.9853  133.1133  150.5151 O   0  0  0  0  0  0  0  0  0  0  0  0
  144.2690  133.5075  151.6717 C   0  0  0  0  0  0  0  0  0  0  0  0
  145.3175  133.3761  152.7653 C   0  0  0  0  0  0  0  0  0  0  0  0
  146.5857  133.8931  152.0907 C   0  0  2  0  0  0  0  0  0  0  0  0
  146.6457  135.2940  152.3004 O   0  0  0  0  0  0  0  0  0  0  0  0
  147.8877  133.2671  152.6564 C   0  0  0  0  0  0  0  0  0  0  0  0
  147.9838  133.3458  154.1061 N   0  0  0  0  0  0  0  0  0  0  0  0
  147.2668  132.6090  155.0231 C   0  0  0  0  0  0  0  0  0  0  0  0
  147.5288  132.8688  156.2753 N   0  0  0  0  0  0  0  0  0  0  0  0
  148.5063  133.8530  156.2149 C   0  0  0  0  0  0  0  0  0  0  0  0
  149.2307  134.5832  157.1916 C   0  0  0  0  0  0  0  0  0  0  0  0
  149.0439  134.3837  158.5145 N   0  0  0  0  0  0  0  0  0  0  0  0
  149.0866  135.5961  159.3297 C   0  0  0  0  0  0  0  0  0  0  0  0
  147.9115  135.4090  160.2687 C   0  0  0  0  0  0  0  0  0  0  0  0
  147.6016  136.2278  161.1324 O   0  0  0  0  0  0  0  0  0  0  0  0
  147.2923  134.2567  160.0058 N   0  0  0  0  0  0  0  0  0  0  0  0
  146.1075  133.7251  160.6758 C   0  0  0  0  0  0  0  0  0  0  0  0
  146.4158  133.2023  162.0902 C   0  0  0  0  0  0  0  0  0  0  0  0
  146.8818  134.2071  162.8307 F   0  0  0  0  0  0  0  0  0  0  0  0
  145.3077  132.7319  162.6625 F   0  0  0  0  0  0  0  0  0  0  0  0
  147.3361  132.2388  162.0592 F   0  0  0  0  0  0  0  0  0  0  0  0
  147.9006  133.5512  158.8911 C   0  0  0  0  0  0  0  0  0  0  0  0
  150.1470  135.4905  156.7618 N   0  0  0  0  0  0  0  0  0  0  0  0
  150.3357  135.6756  155.4515 C   0  0  0  0  0  0  0  0  0  0  0  0
  149.7291  135.0717  154.4267 N   0  0  0  0  0  0  0  0  0  0  0  0
  148.8112  134.1598  154.8599 C   0  0  0  0  0  0  0  0  0  0  0  0
  148.2698  133.0428  149.8482 H   0  0  0  0  0  0  0  0  0  0  0  0
  146.9386  132.5732  148.8032 H   0  0  0  0  0  0  0  0  0  0  0  0
  147.2232  131.6905  150.2953 H   0  0  0  0  0  0  0  0  0  0  0  0
  146.2974  134.6016  150.0391 H   0  0  0  0  0  0  0  0  0  0  0  0
  143.9344  134.5406  151.5670 H   0  0  0  0  0  0  0  0  0  0  0  0
  143.3980  132.8748  151.8425 H   0  0  0  0  0  0  0  0  0  0  0  0
  145.0539  133.9085  153.6802 H   0  0  0  0  0  0  0  0  0  0  0  0
  145.4296  132.3207  153.0160 H   0  0  0  0  0  0  0  0  0  0  0  0
  147.5264  135.5867  152.1222 H   0  0  0  0  0  0  0  0  0  0  0  0
  147.9575  132.2147  152.3800 H   0  0  0  0  0  0  0  0  0  0  0  0
  148.7631  133.7579  152.2296 H   0  0  0  0  0  0  0  0  0  0  0  0
  146.5336  131.8710  154.7327 H   0  0  0  0  0  0  0  0  0  0  0  0
  150.0206  135.6464  159.8898 H   0  0  0  0  0  0  0  0  0  0  0  0
  148.9700  136.5150  158.7520 H   0  0  0  0  0  0  0  0  0  0  0  0
  145.3378  134.4971  160.7214 H   0  0  0  0  0  0  0  0  0  0  0  0
  145.6916  132.9182  160.0709 H   0  0  0  0  0  0  0  0  0  0  0  0
  147.1756  133.4138  158.0869 H   0  0  0  0  0  0  0  0  0  0  0  0
  148.2486  132.5680  159.2090 H   0  0  0  0  0  0  0  0  0  0  0  0
  151.0789  136.4128  155.1859 H   0  0  0  0  0  0  0  0  0  0  0  0
  1  2  1  0  0  0  0
  1 29  1  0  0  0  0
  1 30  1  0  0  0  0
  1 31  1  0  0  0  0
  2  6  1  0  0  0  0
  2  3  1  0  0  0  0
  2 32  1  0  0  0  0
  3  4  1  0  0  0  0
  4  5  1  0  0  0  0
  4 33  1  0  0  0  0
  4 34  1  0  0  0  0
  5  6  1  0  0  0  0
  5 35  1  0  0  0  0
  5 36  1  0  0  0  0
  6  7  1  0  0  0  0
  6  8  1  0  0  0  0
  7 37  1  0  0  0  0
  8  9  1  0  0  0  0
  8 38  1  0  0  0  0
  8 39  1  0  0  0  0
  9 28  1  0  0  0  0
  9 10  1  0  0  0  0
 10 11  2  0  0  0  0
 10 40  1  0  0  0  0
 11 12  1  0  0  0  0
 12 28  2  0  0  0  0
 12 13  1  0  0  0  0
 13 14  1  0  0  0  0
 13 25  2  0  0  0  0
 14 24  1  0  0  0  0
 14 15  1  0  0  0  0
 15 16  1  0  0  0  0
 15 41  1  0  0  0  0
 15 42  1  0  0  0  0
 16 17  2  0  0  0  0
 16 18  1  0  0  0  0
 18 19  1  0  0  0  0
 18 24  1  0  0  0  0
 19 20  1  0  0  0  0
 19 43  1  0  0  0  0
 19 44  1  0  0  0  0
 20 21  1  0  0  0  0
 20 22  1  0  0  0  0
 20 23  1  0  0  0  0
 24 45  1  0  0  0  0
 24 46  1  0  0  0  0
 25 26  1  0  0  0  0
 26 27  2  0  0  0  0
 26 47  1  0  0  0  0
 27 28  1  0  0  0  0
M  END
> <s_m_source_file>
AV-unprocessed.smi

> <i_m_source_file_index>
175

> <i_lp_mmshare_version>
43012

> <i_f3d_flags>
0

> <s_epik_input>
W0NIMl0xW0NIMl1PW0NAQEhdKFtDSDNdKVtDQEBdMShbT0hdKVtDSDJdbihbY0hdbjIpYyhjMjMpbltjSF1uYzNONFtDSDJdQyg9TylOKFtDSDJdNClbQ0gyXUMoRikoRilG

> <s_epik_cmdline>
J2VwaWtfcHl0aG9uJywgJy1waCcsICc3LjAnLCAnLXRuJywgJzgnLCAnLW1hJywgJzIwMCcsICctbWV0YWxfYmluZGluZycsICctaW1hZScsICc8aW5maWxlLm1hZT4nLCAnLW9tYWUnLCAnPG91dGZpbGUubWFlPic=

> <r_lp_tautomer_probability>
1

> <r_epik_Ionization_Penalty>
0.000307802

> <r_epik_Ionization_Penalty_Charging>
0

> <r_epik_Ionization_Penalty_Neutral>
0.000307802

> <r_epik_State_Penalty>
-0

> <r_epik_Charging_Adjusted_Penalty>
0

> <i_epik_Tot_Q>
0

> <i_epik_Tot_abs_Q>
0

> <r_epik_Metal_State_Penalty>
-0

> <b_epik_Metal_Only>
0

> <s_epik_Chemistry_Notes>
This compound contains an acetal/aminal-like group ( X-CH(R)-Y where X, Y are N, S, or O) that may be acid/base labile, releasing an aldehyde.

> <s_lp_Force_Field>
OPLS_2005

> <r_lp_Energy>
36.4888

> <b_lp_Chiralities_Consistent>
1

> <s_lp_Variant>
AV-unprocessed.smi:175-4

> <Gold.Version>
5.8.1

> <Gold.Id.Protein>
6NUR|6NUR_protein|mol2

> <Gold.PLP.Fitness>
44.1950

> <Gold.PLP.PLP>
-35.7128

> <Gold.PLP.part.hbond>
-3.7900

> <Gold.PLP.part.metal>
0.0000

> <Gold.PLP.part.buried>
1.3683

> <Gold.PLP.part.nonpolar>
-35.0394

> <Gold.PLP.part.repulsive>
2.2369

> <Gold.PLP.ligand.clash>
0.7700

> <Gold.PLP.ligand.torsion>
0.7250

> <Gold.PLP.Chemscore.Hbond>
3.4600

> <Gold.PLP.Chemscore.CHOScore>
0.0000

> <Gold.PLP.Chemscore.Metal>
0.0000

> <Gold.Chemscore.Hbonds>
donor molecule, donor type, donor heavy atom, donor atom, acceptor molecule, acceptor atom, score
      L1  H     7    37       P1  7948  1.00

> <Gold.PLP.Chemscore.Internal.Correction>
0.3223

> <Gold.Rescore>
     Score         DG    S(hbond)    S(metal)    S(lipo)     H(rot)  DE(clash)    DE(int)     intcor
      7.41     -13.56       2.78        0.00      56.49       3.05       1.80       4.36       ----

> <Gold.Chemscore.Fitness>
7.4106

> <Gold.Chemscore.DG>
-13.5645

> <Gold.Chemscore.ZeroCoef>
-5.4800

> <Gold.Chemscore.Hbond>
2.7784

> <Gold.Chemscore.Metal>
0.0000

> <Gold.Chemscore.Lipo>
56.4876

> <Gold.Chemscore.Internal_Hbond>
0.0000

> <Gold.Chemscore.DEClash>
1.7972

> <Gold.Chemscore.DEInternal>
4.3567

> <Gold.Chemscore.Rot>
3.0487

> <Gold.Chemscore.Internal.Correction>
   9.000000E+99

> <Gold.Chemscore.Hbonds>
donor molecule, donor type, donor heavy atom, donor atom, acceptor molecule, acceptor atom, score
      L1  H     7    37       P1  7948  0.96

> <Gold.Chemscore.Hbond.Weighted>
-9.2800

> <Gold.Chemscore.Metal.Weighted>
-0.0000

> <Gold.Chemscore.Lipo.Weighted>
-6.6090

> <Gold.Chemscore.Internal_Hbond.Weighted>
0.0000

> <Gold.Chemscore.DEClash.Weighted>
1.7972

> <Gold.Chemscore.DEInternal.Weighted>
4.3567

> <Gold.Chemscore.Rot.Weighted>
7.8046

> <Gold.Chemscore.Internal.Correction.Weighted>
   9.000000E+99

> <Gold.Protein.RotatedTorsions>
[ 6907 6896 6895 6894 ] final   31.10 input  -60.11 | X-H torsion
[ 7974 7965 7964 7962 ] final    8.46 input  175.53 | X-H torsion
[ 8008 7997 7996 7995 ] final  -31.10 input   59.86 | X-H torsion
[ 10167 10162 10161 10158 ] final  -75.19 input  -65.29 | X-H torsion
[ 10718 10713 10712 10709 ] final  121.48 input   66.30 | X-H torsion
[ 10763 10752 10751 10750 ] final  -83.59 input  -60.55 | X-H torsion
[ 11005 11000 10999 10996 ] final -167.38 input  -57.11 | X-H torsion

> <Gold.Protein.ActiveResidues>
 VAL166  LYS551  ARG553  GLY616  TRP617  ASP618  TYR619  PRO620  LYS621  CYS622 
 ASP623  PHE694  ASN695  SER759  ASP760  ASP761  ALA762  ILE779  LEU786  VAL792 
 PHE793  MET794  SER795  GLU796  ALA797  LYS798  CYS799  TRP800  GLU811  SER814 

> <Gold.Protein.RotatedAtoms>
  152.0555  134.9627  160.0574 H   0  0  0  0  0  0  0  0  0  0  0  0  # atno 6907 bound_to 6896
  152.1011  133.4245  159.4596 H   0  0  0  0  0  0  0  0  0  0  0  0  # atno 6908 bound_to 6896
  150.6839  134.2678  159.4619 H   0  0  0  0  0  0  0  0  0  0  0  0  # atno 6909 bound_to 6896
  146.2416  139.9930  142.8424 H   0  0  0  0  0  0  0  0  0  0  0  0  # atno 7974 bound_to 7965
  154.4226  140.1773  156.1513 H   0  0  0  0  0  0  0  0  0  0  0  0  # atno 8008 bound_to 7997
  155.9913  140.3368  155.6731 H   0  0  0  0  0  0  0  0  0  0  0  0  # atno 8009 bound_to 7997
  155.6368  140.0676  157.2622 H   0  0  0  0  0  0  0  0  0  0  0  0  # atno 8010 bound_to 7997
  140.4964  143.2370  151.7824 H   0  0  0  0  0  0  0  0  0  0  0  0  # atno 10167 bound_to 10162
  157.5815  131.1074  150.8179 H   0  0  0  0  0  0  0  0  0  0  0  0  # atno 10718 bound_to 10713
  154.5896  135.5550  153.7265 H   0  0  0  0  0  0  0  0  0  0  0  0  # atno 10763 bound_to 10752
  153.0111  135.6340  154.1868 H   0  0  0  0  0  0  0  0  0  0  0  0  # atno 10764 bound_to 10752
  154.1809  135.2887  155.3032 H   0  0  0  0  0  0  0  0  0  0  0  0  # atno 10765 bound_to 10752
  140.5538  134.5401  157.5128 H   0  0  0  0  0  0  0  0  0  0  0  0  # atno 11005 bound_to 11000
  145.1486  140.9610  143.4446 LP  0  0  0  0  0  0  0  0  0  0  0  0  # atno 17320 bound_to 7965
  145.0227  139.3410  143.6064 LP  0  0  0  0  0  0  0  0  0  0  0  0  # atno 17321 bound_to 7965
  139.4862  144.4581  151.9574 LP  0  0  0  0  0  0  0  0  0  0  0  0  # atno 17342 bound_to 10162
  140.3669  144.2903  150.5925 LP  0  0  0  0  0  0  0  0  0  0  0  0  # atno 17343 bound_to 10162
  156.8624  130.5117  149.5303 LP  0  0  0  0  0  0  0  0  0  0  0  0  # atno 17370 bound_to 10713
  156.0861  130.5859  150.9650 LP  0  0  0  0  0  0  0  0  0  0  0  0  # atno 17371 bound_to 10713
  139.9441  134.7733  156.0604 LP  0  0  0  0  0  0  0  0  0  0  0  0  # atno 17394 bound_to 11000
  141.1155  133.6629  156.3084 LP  0  0  0  0  0  0  0  0  0  0  0  0  # atno 17395 bound_to 11000

$$$$
