AV-unprocessed.smi:2196|AV-procd|sdf|8908|dock8
  -GOLD-   2272012123D 1   1.00000     0.00000
 Structure written by MMmdl.
 45 46  0  0  0  0  0  0  0  0  1 V2000
  149.4477  141.4272  155.1174 C   0  0  0  0  0  0  0  0  0  0  0  0
  149.2234  141.4462  156.6351 C   0  0  0  0  0  0  0  0  0  0  0  0
  150.2007  140.6284  157.3486 N   0  0  0  0  0  0  0  0  0  0  0  0
  151.5771  141.1247  157.3656 C   0  0  0  0  0  0  0  0  0  0  0  0
  151.7726  142.3646  158.2205 C   0  0  0  0  0  0  0  0  0  0  0  0
  152.2426  142.2413  159.5447 C   0  0  0  0  0  0  0  0  0  0  0  0
  152.4534  143.3910  160.3304 C   0  0  0  0  0  0  0  0  0  0  0  0
  152.1963  144.6674  159.7939 C   0  0  0  0  0  0  0  0  0  0  0  0
  151.7285  144.7941  158.4717 C   0  0  0  0  0  0  0  0  0  0  0  0
  151.5169  143.6448  157.6858 C   0  0  0  0  0  0  0  0  0  0  0  0
  149.8559  139.3909  157.8931 C   0  0  0  0  0  0  0  0  0  0  0  0
  148.6179  138.8278  157.7688 C   0  0  0  0  0  0  0  0  0  0  0  0
  147.6097  139.5092  157.1051 N   0  0  0  0  0  0  0  0  0  0  0  0
  148.3239  137.5650  158.2908 N   0  0  0  0  0  0  0  0  0  0  0  0
  147.0320  136.9226  158.1577 C   0  0  0  0  0  0  0  0  0  0  0  0
  146.3138  136.7659  159.5059 C   0  0  0  0  0  0  0  0  0  0  0  0
  147.1349  137.3072  160.5263 O   0  0  0  0  0  0  0  0  0  0  0  0
  146.8057  136.8048  161.8094 C   0  0  0  0  0  0  0  0  0  0  0  0
  149.3332  136.8122  158.9360 C   0  0  0  0  0  0  0  0  0  0  0  0
  149.1584  135.6761  159.3779 O   0  0  0  0  0  0  0  0  0  0  0  0
  150.5829  137.4072  159.0610 N   0  0  0  0  0  0  0  0  0  0  0  0
  150.9311  138.6686  158.5855 C   0  0  0  0  0  0  0  0  0  0  0  0
  152.0789  139.0791  158.7550 O   0  0  0  0  0  0  0  0  0  0  0  0
  151.3032  136.8750  159.5266 H   0  0  0  0  0  0  0  0  0  0  0  0
  148.6911  142.0241  154.6081 H   0  0  0  0  0  0  0  0  0  0  0  0
  149.3889  140.4117  154.7251 H   0  0  0  0  0  0  0  0  0  0  0  0
  150.4232  141.8347  154.8508 H   0  0  0  0  0  0  0  0  0  0  0  0
  149.2669  142.4697  157.0092 H   0  0  0  0  0  0  0  0  0  0  0  0
  148.2148  141.0897  156.8491 H   0  0  0  0  0  0  0  0  0  0  0  0
  152.2444  140.3321  157.7042 H   0  0  0  0  0  0  0  0  0  0  0  0
  151.8994  141.3691  156.3524 H   0  0  0  0  0  0  0  0  0  0  0  0
  152.4513  141.2645  159.9561 H   0  0  0  0  0  0  0  0  0  0  0  0
  152.8164  143.2936  161.3429 H   0  0  0  0  0  0  0  0  0  0  0  0
  152.3605  145.5490  160.3957 H   0  0  0  0  0  0  0  0  0  0  0  0
  151.5350  145.7731  158.0590 H   0  0  0  0  0  0  0  0  0  0  0  0
  151.1676  143.7494  156.6691 H   0  0  0  0  0  0  0  0  0  0  0  0
  147.7655  140.4231  156.7049 H   0  0  0  0  0  0  0  0  0  0  0  0
  146.6661  139.1525  157.0571 H   0  0  0  0  0  0  0  0  0  0  0  0
  146.4384  137.4904  157.4391 H   0  0  0  0  0  0  0  0  0  0  0  0
  147.2025  135.9573  157.6820 H   0  0  0  0  0  0  0  0  0  0  0  0
  145.3552  137.2871  159.4835 H   0  0  0  0  0  0  0  0  0  0  0  0
  146.1117  135.7130  159.7088 H   0  0  0  0  0  0  0  0  0  0  0  0
  147.4630  137.2491  162.5567 H   0  0  0  0  0  0  0  0  0  0  0  0
  146.9305  135.7221  161.8529 H   0  0  0  0  0  0  0  0  0  0  0  0
  145.7771  137.0500  162.0770 H   0  0  0  0  0  0  0  0  0  0  0  0
  1  2  1  0  0  0  0
  1 25  1  0  0  0  0
  1 26  1  0  0  0  0
  1 27  1  0  0  0  0
  2  3  1  0  0  0  0
  2 28  1  0  0  0  0
  2 29  1  0  0  0  0
  3  4  1  0  0  0  0
  3 11  1  0  0  0  0
  4  5  1  0  0  0  0
  4 30  1  0  0  0  0
  4 31  1  0  0  0  0
  5 10  1  0  0  0  0
  5  6  2  0  0  0  0
  6  7  1  0  0  0  0
  6 32  1  0  0  0  0
  7  8  2  0  0  0  0
  7 33  1  0  0  0  0
  8  9  1  0  0  0  0
  8 34  1  0  0  0  0
  9 10  2  0  0  0  0
  9 35  1  0  0  0  0
 10 36  1  0  0  0  0
 11 22  1  0  0  0  0
 11 12  2  0  0  0  0
 12 13  1  0  0  0  0
 12 14  1  0  0  0  0
 13 37  1  0  0  0  0
 13 38  1  0  0  0  0
 14 15  1  0  0  0  0
 14 19  1  0  0  0  0
 15 16  1  0  0  0  0
 15 39  1  0  0  0  0
 15 40  1  0  0  0  0
 16 17  1  0  0  0  0
 16 41  1  0  0  0  0
 16 42  1  0  0  0  0
 17 18  1  0  0  0  0
 18 43  1  0  0  0  0
 18 44  1  0  0  0  0
 18 45  1  0  0  0  0
 19 20  2  0  0  0  0
 19 21  1  0  0  0  0
 21 24  1  0  0  0  0
 21 22  1  0  0  0  0
 22 23  2  0  0  0  0
M  END
> <s_m_source_file>
AV-unprocessed.smi

> <i_m_source_file_index>
2196

> <i_lp_mmshare_version>
43012

> <i_f3d_flags>
0

> <s_epik_input>
W0NIM11PW0NIMl1bQ0gyXW4oYyg9TylbbkhdYzE9TyljKFtOSDJdKWMxTihbQ0gyXVtDSDNdKVtDSDJdYzJbY0hdW2NIXVtjSF1bY0hdW2NIXTI=

> <s_epik_cmdline>
J2VwaWtfcHl0aG9uJywgJy1waCcsICc3LjAnLCAnLXRuJywgJzgnLCAnLW1hJywgJzIwMCcsICctbWV0YWxfYmluZGluZycsICctaW1hZScsICc8aW5maWxlLm1hZT4nLCAnLW9tYWUnLCAnPG91dGZpbGUubWFlPic=

> <r_lp_tautomer_probability>
1

> <r_epik_Ionization_Penalty>
0.000571321

> <r_epik_Ionization_Penalty_Charging>
3.00664e-06

> <r_epik_Ionization_Penalty_Neutral>
0.000568314

> <r_epik_State_Penalty>
-0

> <r_epik_Charging_Adjusted_Penalty>
3.00664e-06

> <i_epik_Tot_Q>
0

> <i_epik_Tot_abs_Q>
0

> <r_epik_Metal_State_Penalty>
-0

> <b_epik_Metal_Only>
0

> <s_lp_Force_Field>
OPLS_2005

> <r_lp_Energy>
20.6449

> <b_lp_Chiralities_Consistent>
1

> <s_lp_Variant>
AV-unprocessed.smi:2196-1

> <Gold.Version>
5.8.1

> <Gold.Id.Protein>
6NUR|6NUR_protein|mol2

> <Gold.PLP.Fitness>
44.3024

> <Gold.PLP.PLP>
-40.3512

> <Gold.PLP.part.hbond>
-2.5494

> <Gold.PLP.part.metal>
0.0000

> <Gold.PLP.part.buried>
-6.5485

> <Gold.PLP.part.nonpolar>
-32.2087

> <Gold.PLP.part.repulsive>
0.2478

> <Gold.PLP.ligand.clash>
21.3695

> <Gold.PLP.ligand.torsion>
1.0820

> <Gold.PLP.Chemscore.Hbond>
2.0000

> <Gold.PLP.Chemscore.CHOScore>
0.0000

> <Gold.PLP.Chemscore.Metal>
0.0000

> <Gold.Chemscore.Hbonds>
donor molecule, donor type, donor heavy atom, donor atom, acceptor molecule, acceptor atom, score
      P1  H  6896  6909       L1    20  1.00
      P1  H  6934  6947       L1    17  0.95

> <Gold.PLP.Chemscore.Internal.Correction>
21.4847

> <Gold.Rescore>
     Score         DG    S(hbond)    S(metal)    S(lipo)     H(rot)  DE(clash)    DE(int)     intcor
     10.56     -17.92       1.68        0.00     103.47       2.06       0.03       7.32       ----

> <Gold.Chemscore.Fitness>
10.5595

> <Gold.Chemscore.DG>
-17.9155

> <Gold.Chemscore.ZeroCoef>
-5.4800

> <Gold.Chemscore.Hbond>
1.6753

> <Gold.Chemscore.Metal>
0.0000

> <Gold.Chemscore.Lipo>
103.4706

> <Gold.Chemscore.Internal_Hbond>
0.0000

> <Gold.Chemscore.DEClash>
0.0329

> <Gold.Chemscore.DEInternal>
7.3231

> <Gold.Chemscore.Rot>
2.0571

> <Gold.Chemscore.Internal.Correction>
   9.000000E+99

> <Gold.Chemscore.Hbonds>
donor molecule, donor type, donor heavy atom, donor atom, acceptor molecule, acceptor atom, score
      P1  H  6896  6909       L1    20  0.93
      P1  H  6934  6947       L1    17  0.21

> <Gold.Chemscore.Hbond.Weighted>
-5.5955

> <Gold.Chemscore.Metal.Weighted>
-0.0000

> <Gold.Chemscore.Lipo.Weighted>
-12.1061

> <Gold.Chemscore.Internal_Hbond.Weighted>
0.0000

> <Gold.Chemscore.DEClash.Weighted>
0.0329

> <Gold.Chemscore.DEInternal.Weighted>
7.3231

> <Gold.Chemscore.Rot.Weighted>
5.2661

> <Gold.Chemscore.Internal.Correction.Weighted>
   9.000000E+99

> <Gold.Protein.RotatedTorsions>
[ 6907 6896 6895 6894 ] final   53.11 input  -60.11 | X-H torsion
[ 7974 7965 7964 7962 ] final   25.52 input  175.53 | X-H torsion
[ 8008 7997 7996 7995 ] final -115.43 input   59.86 | X-H torsion
[ 10167 10162 10161 10158 ] final   73.16 input  -65.29 | X-H torsion
[ 10718 10713 10712 10709 ] final  -32.10 input   66.30 | X-H torsion
[ 10763 10752 10751 10750 ] final   93.86 input  -60.55 | X-H torsion
[ 11005 11000 10999 10996 ] final  -51.34 input  -57.11 | X-H torsion

> <Gold.Protein.ActiveResidues>
 VAL166  LYS551  ARG553  GLY616  TRP617  ASP618  TYR619  PRO620  LYS621  CYS622 
 ASP623  PHE694  ASN695  SER759  ASP760  ASP761  ALA762  ILE779  LEU786  VAL792 
 PHE793  MET794  SER795  GLU796  ALA797  LYS798  CYS799  TRP800  GLU811  SER814 

> <Gold.Protein.RotatedAtoms>
  152.3303  134.7267  160.0290 H   0  0  0  0  0  0  0  0  0  0  0  0  # atno 6907 bound_to 6896
  151.7686  133.3334  159.3446 H   0  0  0  0  0  0  0  0  0  0  0  0  # atno 6908 bound_to 6896
  150.7419  134.5971  159.6062 H   0  0  0  0  0  0  0  0  0  0  0  0  # atno 6909 bound_to 6896
  146.1884  139.7454  142.8850 H   0  0  0  0  0  0  0  0  0  0  0  0  # atno 7974 bound_to 7965
  155.0519  140.0393  157.2547 H   0  0  0  0  0  0  0  0  0  0  0  0  # atno 8008 bound_to 7997
  154.7130  140.2696  155.6587 H   0  0  0  0  0  0  0  0  0  0  0  0  # atno 8009 bound_to 7997
  156.2795  140.2718  156.1778 H   0  0  0  0  0  0  0  0  0  0  0  0  # atno 8010 bound_to 7997
  140.0275  144.5492  150.7533 H   0  0  0  0  0  0  0  0  0  0  0  0  # atno 10167 bound_to 10162
  156.3790  130.4352  149.7484 H   0  0  0  0  0  0  0  0  0  0  0  0  # atno 10718 bound_to 10713
  153.2351  135.4310  155.0638 H   0  0  0  0  0  0  0  0  0  0  0  0  # atno 10763 bound_to 10752
  154.8315  135.3389  154.6730 H   0  0  0  0  0  0  0  0  0  0  0  0  # atno 10764 bound_to 10752
  153.7156  135.7020  153.5082 H   0  0  0  0  0  0  0  0  0  0  0  0  # atno 10765 bound_to 10752
  141.0866  133.6641  156.3864 H   0  0  0  0  0  0  0  0  0  0  0  0  # atno 11005 bound_to 11000
  145.3868  141.0366  143.3146 LP  0  0  0  0  0  0  0  0  0  0  0  0  # atno 17320 bound_to 7965
  144.8440  139.5426  143.6887 LP  0  0  0  0  0  0  0  0  0  0  0  0  # atno 17321 bound_to 7965
  140.7316  143.2696  151.3931 LP  0  0  0  0  0  0  0  0  0  0  0  0  # atno 17342 bound_to 10162
  139.6098  144.1122  152.2287 LP  0  0  0  0  0  0  0  0  0  0  0  0  # atno 17343 bound_to 10162
  156.4582  130.7939  151.2960 LP  0  0  0  0  0  0  0  0  0  0  0  0  # atno 17370 bound_to 10713
  157.7491  131.0074  150.3189 LP  0  0  0  0  0  0  0  0  0  0  0  0  # atno 17371 bound_to 10713
  140.5349  134.6177  157.5362 LP  0  0  0  0  0  0  0  0  0  0  0  0  # atno 17394 bound_to 11000
  139.9685  134.7332  156.0089 LP  0  0  0  0  0  0  0  0  0  0  0  0  # atno 17395 bound_to 11000

$$$$
