AV-unprocessed.smi:1855|AV-procd|sdf|7531|dock7
  -GOLD-   22720 9243D 1   1.00000     0.00000
 Structure written by MMmdl.
 43 45  0  0  0  0  0  0  0  0  1 V2000
  155.6812  139.3238  160.1699 C   0  0  0  0  0  0  0  0  0  0  0  0
  154.6111  139.6640  159.3016 O   0  0  0  0  0  0  0  0  0  0  0  0
  153.7396  140.6600  159.6926 C   0  0  0  0  0  0  0  0  0  0  0  0
  153.8615  141.3817  160.9070 C   0  0  0  0  0  0  0  0  0  0  0  0
  152.9311  142.3842  161.2372 C   0  0  0  0  0  0  0  0  0  0  0  0
  151.8716  142.6764  160.3613 C   0  0  0  0  0  0  0  0  0  0  0  0
  151.7409  141.9661  159.1543 C   0  0  0  0  0  0  0  0  0  0  0  0
  152.6729  140.9544  158.8129 C   0  0  0  0  0  0  0  0  0  0  0  0
  152.6114  140.2186  157.6498 O   0  0  0  0  0  0  0  0  0  0  0  0
  151.4924  140.3807  156.7904 C   0  0  0  0  0  0  0  0  0  0  0  0
  151.7077  139.5210  155.5367 C   0  0  0  0  0  0  0  0  0  0  0  0
  150.4477  139.1529  154.9047 N   0  0  0  0  0  0  0  0  0  0  0  0
  150.0163  137.9172  154.5457 C   0  0  0  0  0  0  0  0  0  0  0  0
  150.8365  136.6815  154.7777 C   0  0  0  0  0  0  0  0  0  0  0  0
  150.1943  135.5463  154.1224 N   0  0  0  0  0  0  0  0  0  0  0  0
  150.2589  134.2746  154.5421 C   0  0  0  0  0  0  0  0  0  0  0  0
  150.8648  133.9014  155.5452 O   0  0  0  0  0  0  0  0  0  0  0  0
  148.8156  137.8673  153.9676 N   0  0  0  0  0  0  0  0  0  0  0  0
  148.4315  139.1936  153.9484 C   0  0  0  0  0  0  0  0  0  0  0  0
  147.2535  139.8008  153.4576 C   0  0  0  0  0  0  0  0  0  0  0  0
  147.0838  141.1985  153.5387 C   0  0  0  0  0  0  0  0  0  0  0  0
  148.0863  142.0069  154.1122 C   0  0  0  0  0  0  0  0  0  0  0  0
  149.2648  141.4211  154.6126 C   0  0  0  0  0  0  0  0  0  0  0  0
  149.4307  140.0256  154.5274 C   0  0  0  0  0  0  0  0  0  0  0  0
  156.2653  138.5213  159.7198 H   0  0  0  0  0  0  0  0  0  0  0  0
  155.3154  138.9648  161.1326 H   0  0  0  0  0  0  0  0  0  0  0  0
  156.3505  140.1704  160.3285 H   0  0  0  0  0  0  0  0  0  0  0  0
  154.6621  141.1850  161.6035 H   0  0  0  0  0  0  0  0  0  0  0  0
  153.0317  142.9301  162.1637 H   0  0  0  0  0  0  0  0  0  0  0  0
  151.1580  143.4467  160.6143 H   0  0  0  0  0  0  0  0  0  0  0  0
  150.9170  142.2177  158.5041 H   0  0  0  0  0  0  0  0  0  0  0  0
  150.5759  140.0722  157.2957 H   0  0  0  0  0  0  0  0  0  0  0  0
  151.3861  141.4278  156.5037 H   0  0  0  0  0  0  0  0  0  0  0  0
  152.3394  140.0450  154.8203 H   0  0  0  0  0  0  0  0  0  0  0  0
  152.2413  138.6071  155.7997 H   0  0  0  0  0  0  0  0  0  0  0  0
  151.8492  136.8302  154.3987 H   0  0  0  0  0  0  0  0  0  0  0  0
  150.9257  136.4871  155.8465 H   0  0  0  0  0  0  0  0  0  0  0  0
  149.6687  135.7422  153.2831 H   0  0  0  0  0  0  0  0  0  0  0  0
  149.6963  133.6108  153.8677 H   0  0  0  0  0  0  0  0  0  0  0  0
  146.4810  139.1899  153.0144 H   0  0  0  0  0  0  0  0  0  0  0  0
  146.1811  141.6525  153.1573 H   0  0  0  0  0  0  0  0  0  0  0  0
  147.9515  143.0772  154.1665 H   0  0  0  0  0  0  0  0  0  0  0  0
  150.0367  142.0385  155.0476 H   0  0  0  0  0  0  0  0  0  0  0  0
  1  2  1  0  0  0  0
  1 25  1  0  0  0  0
  1 26  1  0  0  0  0
  1 27  1  0  0  0  0
  2  3  1  0  0  0  0
  3  8  1  0  0  0  0
  3  4  2  0  0  0  0
  4  5  1  0  0  0  0
  4 28  1  0  0  0  0
  5  6  2  0  0  0  0
  5 29  1  0  0  0  0
  6  7  1  0  0  0  0
  6 30  1  0  0  0  0
  7  8  2  0  0  0  0
  7 31  1  0  0  0  0
  8  9  1  0  0  0  0
  9 10  1  0  0  0  0
 10 11  1  0  0  0  0
 10 32  1  0  0  0  0
 10 33  1  0  0  0  0
 11 12  1  0  0  0  0
 11 34  1  0  0  0  0
 11 35  1  0  0  0  0
 12 24  1  0  0  0  0
 12 13  1  0  0  0  0
 13 14  1  0  0  0  0
 13 18  2  0  0  0  0
 14 15  1  0  0  0  0
 14 36  1  0  0  0  0
 14 37  1  0  0  0  0
 15 16  1  0  0  0  0
 15 38  1  0  0  0  0
 16 17  2  0  0  0  0
 16 39  1  0  0  0  0
 18 19  1  0  0  0  0
 19 24  2  0  0  0  0
 19 20  1  0  0  0  0
 20 21  2  0  0  0  0
 20 40  1  0  0  0  0
 21 22  1  0  0  0  0
 21 41  1  0  0  0  0
 22 23  2  0  0  0  0
 22 42  1  0  0  0  0
 23 24  1  0  0  0  0
 23 43  1  0  0  0  0
M  END
> <s_m_source_file>
AV-unprocessed.smi

> <i_m_source_file_index>
1855

> <i_lp_mmshare_version>
43012

> <i_f3d_flags>
0

> <s_epik_input>
W0NIM11PYzFbY0hdW2NIXVtjSF1bY0hdYzFPW0NIMl1bQ0gyXW4oYyhuMilbQ0gyXVtOSF1bQ0hdPU8pYyhjMjMpW2NIXVtjSF1bY0hdW2NIXTM=

> <s_epik_cmdline>
J2VwaWtfcHl0aG9uJywgJy1waCcsICc3LjAnLCAnLXRuJywgJzgnLCAnLW1hJywgJzIwMCcsICctbWV0YWxfYmluZGluZycsICctaW1hZScsICc8aW5maWxlLm1hZT4nLCAnLW9tYWUnLCAnPG91dGZpbGUubWFlPic=

> <r_lp_tautomer_probability>
1

> <r_epik_Ionization_Penalty>
0.0587233

> <r_epik_Ionization_Penalty_Charging>
0

> <r_epik_Ionization_Penalty_Neutral>
0.0587233

> <r_epik_State_Penalty>
0.0508012

> <r_epik_Charging_Adjusted_Penalty>
0.0508012

> <i_epik_Tot_Q>
0

> <i_epik_Tot_abs_Q>
0

> <r_epik_Metal_State_Penalty>
0.0461886

> <b_epik_Metal_Only>
0

> <s_lp_Force_Field>
OPLS_2005

> <r_lp_Energy>
14.9723

> <b_lp_Chiralities_Consistent>
1

> <s_lp_Variant>
AV-unprocessed.smi:1855-1

> <Gold.Version>
5.8.1

> <Gold.Id.Protein>
6NUR|6NUR_protein|mol2

> <Gold.PLP.Fitness>
52.4919

> <Gold.PLP.PLP>
-47.3837

> <Gold.PLP.part.hbond>
-3.5859

> <Gold.PLP.part.metal>
0.0000

> <Gold.PLP.part.buried>
-3.1703

> <Gold.PLP.part.nonpolar>
-41.8152

> <Gold.PLP.part.repulsive>
2.2078

> <Gold.PLP.ligand.clash>
0.0000

> <Gold.PLP.ligand.torsion>
0.4827

> <Gold.PLP.Chemscore.Hbond>
2.0000

> <Gold.PLP.Chemscore.CHOScore>
0.0000

> <Gold.PLP.Chemscore.Metal>
0.0000

> <Gold.Chemscore.Hbonds>
donor molecule, donor type, donor heavy atom, donor atom, acceptor molecule, acceptor atom, score
      L1  H    15    38       P1  7948  0.60
      P1  H  7997  8008       L1     2  0.84

> <Gold.PLP.Chemscore.Internal.Correction>
0.0735

> <Gold.Rescore>
     Score         DG    S(hbond)    S(metal)    S(lipo)     H(rot)  DE(clash)    DE(int)     intcor
     16.10     -18.10       1.45        0.00     126.42       2.74       1.36       0.64       ----

> <Gold.Chemscore.Fitness>
16.0972

> <Gold.Chemscore.DG>
-18.0988

> <Gold.Chemscore.ZeroCoef>
-5.4800

> <Gold.Chemscore.Hbond>
1.4485

> <Gold.Chemscore.Metal>
0.0000

> <Gold.Chemscore.Lipo>
126.4172

> <Gold.Chemscore.Internal_Hbond>
0.0000

> <Gold.Chemscore.DEClash>
1.3570

> <Gold.Chemscore.DEInternal>
0.6446

> <Gold.Chemscore.Rot>
2.7383

> <Gold.Chemscore.Internal.Correction>
   9.000000E+99

> <Gold.Chemscore.Hbonds>
donor molecule, donor type, donor heavy atom, donor atom, acceptor molecule, acceptor atom, score
      L1  H    15    38       P1  7948  0.04
      P1  H  7997  8008       L1     2  0.48

> <Gold.Chemscore.Hbond.Weighted>
-4.8381

> <Gold.Chemscore.Metal.Weighted>
-0.0000

> <Gold.Chemscore.Lipo.Weighted>
-14.7908

> <Gold.Chemscore.Internal_Hbond.Weighted>
0.0000

> <Gold.Chemscore.DEClash.Weighted>
1.3570

> <Gold.Chemscore.DEInternal.Weighted>
0.6446

> <Gold.Chemscore.Rot.Weighted>
7.0102

> <Gold.Chemscore.Internal.Correction.Weighted>
   9.000000E+99

> <Gold.Protein.RotatedTorsions>
[ 6907 6896 6895 6894 ] final  108.97 input  -60.11 | X-H torsion
[ 7974 7965 7964 7962 ] final  -63.71 input  175.53 | X-H torsion
[ 8008 7997 7996 7995 ] final -132.85 input   59.86 | X-H torsion
[ 10167 10162 10161 10158 ] final  -67.26 input  -65.29 | X-H torsion
[ 10718 10713 10712 10709 ] final   -7.43 input   66.30 | X-H torsion
[ 10763 10752 10751 10750 ] final  -59.63 input  -60.55 | X-H torsion
[ 11005 11000 10999 10996 ] final -133.91 input  -57.11 | X-H torsion

> <Gold.Protein.ActiveResidues>
 VAL166  LYS551  ARG553  GLY616  TRP617  ASP618  TYR619  PRO620  LYS621  CYS622 
 ASP623  PHE694  ASN695  SER759  ASP760  ASP761  ALA762  ILE779  LEU786  VAL792 
 PHE793  MET794  SER795  GLU796  ALA797  LYS798  CYS799  TRP800  GLU811  SER814 

> <Gold.Protein.RotatedAtoms>
  152.5088  133.9012  159.7441 H   0  0  0  0  0  0  0  0  0  0  0  0  # atno 6907 bound_to 6896
  150.9427  133.6629  159.2794 H   0  0  0  0  0  0  0  0  0  0  0  0  # atno 6908 bound_to 6896
  151.3935  135.0965  159.9586 H   0  0  0  0  0  0  0  0  0  0  0  0  # atno 6909 bound_to 6896
  145.7757  140.8789  143.0357 H   0  0  0  0  0  0  0  0  0  0  0  0  # atno 7974 bound_to 7965
  155.3357  140.0469  157.3044 H   0  0  0  0  0  0  0  0  0  0  0  0  # atno 8008 bound_to 7997
  154.5304  140.2255  155.8780 H   0  0  0  0  0  0  0  0  0  0  0  0  # atno 8009 bound_to 7997
  156.1782  140.3080  155.9106 H   0  0  0  0  0  0  0  0  0  0  0  0  # atno 8010 bound_to 7997
  140.5596  143.2312  151.6753 H   0  0  0  0  0  0  0  0  0  0  0  0  # atno 10167 bound_to 10162
  156.7173  130.5140  149.5877 H   0  0  0  0  0  0  0  0  0  0  0  0  # atno 10718 bound_to 10713
  154.2567  135.6316  153.5259 H   0  0  0  0  0  0  0  0  0  0  0  0  # atno 10763 bound_to 10752
  152.9903  135.5577  154.5749 H   0  0  0  0  0  0  0  0  0  0  0  0  # atno 10764 bound_to 10752
  154.5289  135.2887  155.1173 H   0  0  0  0  0  0  0  0  0  0  0  0  # atno 10765 bound_to 10752
  140.9037  134.1657  157.4441 H   0  0  0  0  0  0  0  0  0  0  0  0  # atno 11005 bound_to 11000
  144.6805  139.9918  143.7484 LP  0  0  0  0  0  0  0  0  0  0  0  0  # atno 17320 bound_to 7965
  146.0125  139.3182  143.0861 LP  0  0  0  0  0  0  0  0  0  0  0  0  # atno 17321 bound_to 7965
  139.5064  144.3683  152.0495 LP  0  0  0  0  0  0  0  0  0  0  0  0  # atno 17342 bound_to 10162
  140.2809  144.3861  150.6119 LP  0  0  0  0  0  0  0  0  0  0  0  0  # atno 17343 bound_to 10162
  156.1619  130.6379  151.0729 LP  0  0  0  0  0  0  0  0  0  0  0  0  # atno 17370 bound_to 10713
  157.6912  131.0809  150.7102 LP  0  0  0  0  0  0  0  0  0  0  0  0  # atno 17371 bound_to 10713
  139.8746  134.9908  156.5521 LP  0  0  0  0  0  0  0  0  0  0  0  0  # atno 17394 bound_to 11000
  140.8197  133.8363  155.8884 LP  0  0  0  0  0  0  0  0  0  0  0  0  # atno 17395 bound_to 11000

$$$$
