AV-unprocessed.smi:3025|AV-procd|sdf|11506|dock9
  -GOLD-   2272016443D 1   1.00000     0.00000
 Structure written by MMmdl.
 42 43  0  0  0  0  0  0  0  0  2 V2000
  144.2865  133.3469  150.2614 C   0  0  0  0  0  0  0  0  0  0  0  0
  144.3915  134.8435  150.5738 C   0  0  0  0  0  0  0  0  0  0  0  0
  145.3554  135.1352  151.7365 C   0  0  0  0  0  0  0  0  0  0  0  0
  145.4915  136.6319  152.0852 C   0  0  2  0  0  0  0  0  0  0  0  0
  146.3425  137.4072  151.0562 C   0  0  0  0  0  0  0  0  0  0  0  0
  146.4863  138.8915  151.4350 C   0  0  0  0  0  0  0  0  0  0  0  0
  147.0635  139.0835  152.8534 C   0  0  2  0  0  0  0  0  0  0  0  0
  148.4908  138.6947  152.9412 N   0  3  0  0  0  0  0  0  0  0  0  0
  149.1774  139.0746  154.1936 C   0  0  0  0  0  0  0  0  0  0  0  0
  150.6584  138.6761  154.1505 C   0  0  0  0  0  0  0  0  0  0  0  0
  151.4144  139.1644  155.3424 C   0  0  0  0  0  0  0  0  0  0  0  0
  152.6900  138.8408  155.5647 N   0  0  0  0  0  0  0  0  0  0  0  0
  153.0993  139.4113  156.7170 N   0  0  0  0  0  0  0  0  0  0  0  0
  152.0033  140.0545  157.1154 C   0  0  0  0  0  0  0  0  0  0  0  0
  150.9126  139.9373  156.2993 N   0  0  0  0  0  0  0  0  0  0  0  0
  146.2293  138.2940  153.8792 C   0  0  0  0  0  0  0  0  0  0  0  0
  146.0844  136.8102  153.4973 C   0  0  0  0  0  0  0  0  0  0  0  0
  153.2915  138.2674  154.9903 H   0  0  0  0  0  0  0  0  0  0  0  0
  143.6030  133.1709  149.4304 H   0  0  0  0  0  0  0  0  0  0  0  0
  143.9139  132.7895  151.1211 H   0  0  0  0  0  0  0  0  0  0  0  0
  145.2569  132.9328  149.9869 H   0  0  0  0  0  0  0  0  0  0  0  0
  144.7171  135.3649  149.6742 H   0  0  0  0  0  0  0  0  0  0  0  0
  143.3997  135.2285  150.8138 H   0  0  0  0  0  0  0  0  0  0  0  0
  144.9952  134.6014  152.6170 H   0  0  0  0  0  0  0  0  0  0  0  0
  146.3379  134.7171  151.5134 H   0  0  0  0  0  0  0  0  0  0  0  0
  144.4900  137.0650  152.0932 H   0  0  0  0  0  0  0  0  0  0  0  0
  147.3296  136.9511  150.9713 H   0  0  0  0  0  0  0  0  0  0  0  0
  145.8912  137.3441  150.0664 H   0  0  0  0  0  0  0  0  0  0  0  0
  147.0869  139.4121  150.6896 H   0  0  0  0  0  0  0  0  0  0  0  0
  145.5008  139.3575  151.3919 H   0  0  0  0  0  0  0  0  0  0  0  0
  146.9976  140.1397  153.1188 H   0  0  0  0  0  0  0  0  0  0  0  0
  148.5353  137.6883  152.8683 H   0  0  0  0  0  0  0  0  0  0  0  0
  149.0931  140.1502  154.3485 H   0  0  0  0  0  0  0  0  0  0  0  0
  148.6897  138.5856  155.0380 H   0  0  0  0  0  0  0  0  0  0  0  0
  150.7538  137.5909  154.0907 H   0  0  0  0  0  0  0  0  0  0  0  0
  151.1307  139.0798  153.2538 H   0  0  0  0  0  0  0  0  0  0  0  0
  151.9872  140.6295  158.0296 H   0  0  0  0  0  0  0  0  0  0  0  0
  146.6690  138.3828  154.8734 H   0  0  0  0  0  0  0  0  0  0  0  0
  145.2358  138.7391  153.9495 H   0  0  0  0  0  0  0  0  0  0  0  0
  145.4498  136.3122  154.2316 H   0  0  0  0  0  0  0  0  0  0  0  0
  147.0568  136.3192  153.5538 H   0  0  0  0  0  0  0  0  0  0  0  0
  148.9855  139.0933  152.1558 H   0  0  0  0  0  0  0  0  0  0  0  0
  1  2  1  0  0  0  0
  1 19  1  0  0  0  0
  1 20  1  0  0  0  0
  1 21  1  0  0  0  0
  2  3  1  0  0  0  0
  2 22  1  0  0  0  0
  2 23  1  0  0  0  0
  3  4  1  0  0  0  0
  3 24  1  0  0  0  0
  3 25  1  0  0  0  0
  4 17  1  0  0  0  0
  4  5  1  0  0  0  0
  4 26  1  0  0  0  0
  5  6  1  0  0  0  0
  5 27  1  0  0  0  0
  5 28  1  0  0  0  0
  6  7  1  0  0  0  0
  6 29  1  0  0  0  0
  6 30  1  0  0  0  0
  7  8  1  0  0  0  0
  7 16  1  0  0  0  0
  7 31  1  0  0  0  0
  8  9  1  0  0  0  0
  8 32  1  0  0  0  0
  8 42  1  0  0  0  0
  9 10  1  0  0  0  0
  9 33  1  0  0  0  0
  9 34  1  0  0  0  0
 10 35  1  0  0  0  0
 10 36  1  0  0  0  0
 10 11  1  0  0  0  0
 11 15  2  0  0  0  0
 11 12  1  0  0  0  0
 12 18  1  0  0  0  0
 12 13  1  0  0  0  0
 13 14  2  0  0  0  0
 14 15  1  0  0  0  0
 14 37  1  0  0  0  0
 16 17  1  0  0  0  0
 16 38  1  0  0  0  0
 16 39  1  0  0  0  0
 17 40  1  0  0  0  0
 17 41  1  0  0  0  0
M  CHG  1   8   1
M  END
> <s_m_source_file>
AV-unprocessed.smi

> <i_m_source_file_index>
3025

> <i_lp_mmshare_version>
43012

> <i_f3d_flags>
0

> <s_epik_input>
W0NIM11bQ0gyXVtDSDJdW0NAQEhdMVtDSDJdW0NIMl1bQ0BIXShbQ0gyXVtDSDJdMSlbTkhdW0NIMl1bQ0gyXWMybm5bY0hdW25IXTI=

> <s_epik_cmdline>
J2VwaWtfcHl0aG9uJywgJy1waCcsICc3LjAnLCAnLXRuJywgJzgnLCAnLW1hJywgJzIwMCcsICctbWV0YWxfYmluZGluZycsICctaW1hZScsICc8aW5maWxlLm1hZT4nLCAnLW9tYWUnLCAnPG91dGZpbGUubWFlPic=

> <r_lp_tautomer_probability>
0.948284

> <r_epik_Ionization_Penalty>
0.0093758

> <r_epik_Ionization_Penalty_Charging>
0.000546397

> <r_epik_Ionization_Penalty_Neutral>
0.00882941

> <r_epik_State_Penalty>
0.401098

> <r_epik_Charging_Adjusted_Penalty>
0.401645

> <i_epik_Tot_Q>
1

> <i_epik_Tot_abs_Q>
1

> <r_epik_Metal_State_Penalty>
0.634803

> <b_epik_Metal_Only>
0

> <s_lp_Force_Field>
OPLS_2005

> <r_lp_Energy>
16.9982

> <b_lp_Chiralities_Consistent>
1

> <s_lp_Variant>
AV-unprocessed.smi:3025-2

> <Gold.Version>
5.8.1

> <Gold.Id.Protein>
6NUR|6NUR_protein|mol2

> <Gold.PLP.Fitness>
41.9298

> <Gold.PLP.PLP>
-30.6114

> <Gold.PLP.part.hbond>
-2.8432

> <Gold.PLP.part.metal>
0.0000

> <Gold.PLP.part.buried>
1.3301

> <Gold.PLP.part.nonpolar>
-29.7871

> <Gold.PLP.part.repulsive>
0.2837

> <Gold.PLP.ligand.clash>
0.0000

> <Gold.PLP.ligand.torsion>
0.2083

> <Gold.PLP.Chemscore.Hbond>
3.8950

> <Gold.PLP.Chemscore.CHOScore>
0.0000

> <Gold.PLP.Chemscore.Metal>
0.0000

> <Gold.Chemscore.Hbonds>
donor molecule, donor type, donor heavy atom, donor atom, acceptor molecule, acceptor atom, score
      L1  H     8    32       P1  7948  1.86
      L1  H     8    42       P1  7957  0.91
      P1  H  7997  8008       L1    13  0.88

> <Gold.PLP.Chemscore.Internal.Correction>
0.0500

> <Gold.Rescore>
     Score         DG    S(hbond)    S(metal)    S(lipo)     H(rot)  DE(clash)    DE(int)     intcor
     15.26     -17.10       2.82        0.00      74.90       2.56       1.53       0.31       ----

> <Gold.Chemscore.Fitness>
15.2561

> <Gold.Chemscore.DG>
-17.0958

> <Gold.Chemscore.ZeroCoef>
-5.4800

> <Gold.Chemscore.Hbond>
2.8164

> <Gold.Chemscore.Metal>
0.0000

> <Gold.Chemscore.Lipo>
74.8997

> <Gold.Chemscore.Internal_Hbond>
0.0000

> <Gold.Chemscore.DEClash>
1.5273

> <Gold.Chemscore.DEInternal>
0.3124

> <Gold.Chemscore.Rot>
2.5602

> <Gold.Chemscore.Internal.Correction>
   9.000000E+99

> <Gold.Chemscore.Hbonds>
donor molecule, donor type, donor heavy atom, donor atom, acceptor molecule, acceptor atom, score
      L1  H     8    32       P1  7948  0.91
      L1  H     8    42       P1  7957  0.85
      P1  H  7997  8008       L1    13  0.81

> <Gold.Chemscore.Hbond.Weighted>
-9.4068

> <Gold.Chemscore.Metal.Weighted>
-0.0000

> <Gold.Chemscore.Lipo.Weighted>
-8.7633

> <Gold.Chemscore.Internal_Hbond.Weighted>
0.0000

> <Gold.Chemscore.DEClash.Weighted>
1.5273

> <Gold.Chemscore.DEInternal.Weighted>
0.3124

> <Gold.Chemscore.Rot.Weighted>
6.5542

> <Gold.Chemscore.Internal.Correction.Weighted>
   9.000000E+99

> <Gold.Protein.RotatedTorsions>
[ 6907 6896 6895 6894 ] final -116.44 input  -60.11 | X-H torsion
[ 7974 7965 7964 7962 ] final  -75.44 input  175.53 | X-H torsion
[ 8008 7997 7996 7995 ] final  -69.79 input   59.86 | X-H torsion
[ 10167 10162 10161 10158 ] final  -97.57 input  -65.29 | X-H torsion
[ 10718 10713 10712 10709 ] final  135.64 input   66.30 | X-H torsion
[ 10763 10752 10751 10750 ] final   51.03 input  -60.55 | X-H torsion
[ 11005 11000 10999 10996 ] final  -73.99 input  -57.11 | X-H torsion

> <Gold.Protein.ActiveResidues>
 VAL166  LYS551  ARG553  GLY616  TRP617  ASP618  TYR619  PRO620  LYS621  CYS622 
 ASP623  PHE694  ASN695  SER759  ASP760  ASP761  ALA762  ILE779  LEU786  VAL792 
 PHE793  MET794  SER795  GLU796  ALA797  LYS798  CYS799  TRP800  GLU811  SER814 

> <Gold.Protein.RotatedAtoms>
  150.8056  133.8516  159.3206 H   0  0  0  0  0  0  0  0  0  0  0  0  # atno 6907 bound_to 6896
  151.6316  135.1020  160.0132 H   0  0  0  0  0  0  0  0  0  0  0  0  # atno 6908 bound_to 6896
  152.4146  133.6978  159.6463 H   0  0  0  0  0  0  0  0  0  0  0  0  # atno 6909 bound_to 6896
  145.6260  140.9350  143.1112 H   0  0  0  0  0  0  0  0  0  0  0  0  # atno 7974 bound_to 7965
  154.4964  140.0846  156.7706 H   0  0  0  0  0  0  0  0  0  0  0  0  # atno 8008 bound_to 7997
  155.4106  140.3441  155.4245 H   0  0  0  0  0  0  0  0  0  0  0  0  # atno 8009 bound_to 7997
  156.1399  140.1526  156.8924 H   0  0  0  0  0  0  0  0  0  0  0  0  # atno 8010 bound_to 7997
  140.2820  143.3275  152.0431 H   0  0  0  0  0  0  0  0  0  0  0  0  # atno 10167 bound_to 10162
  157.4549  131.1069  150.9989 H   0  0  0  0  0  0  0  0  0  0  0  0  # atno 10718 bound_to 10713
  152.9785  135.5859  154.4349 H   0  0  0  0  0  0  0  0  0  0  0  0  # atno 10763 bound_to 10752
  154.3958  135.2768  155.2129 H   0  0  0  0  0  0  0  0  0  0  0  0  # atno 10764 bound_to 10752
  154.3981  135.6110  153.5936 H   0  0  0  0  0  0  0  0  0  0  0  0  # atno 10765 bound_to 10752
  141.1630  133.6896  156.7296 H   0  0  0  0  0  0  0  0  0  0  0  0  # atno 11005 bound_to 11000
  144.7212  139.8023  143.7381 LP  0  0  0  0  0  0  0  0  0  0  0  0  # atno 17320 bound_to 7965
  146.1394  139.4447  143.0118 LP  0  0  0  0  0  0  0  0  0  0  0  0  # atno 17321 bound_to 7965
  139.4960  144.6585  151.6519 LP  0  0  0  0  0  0  0  0  0  0  0  0  # atno 17342 bound_to 10162
  140.5803  143.9957  150.6265 LP  0  0  0  0  0  0  0  0  0  0  0  0  # atno 17343 bound_to 10162
  157.0806  130.5901  149.5420 LP  0  0  0  0  0  0  0  0  0  0  0  0  # atno 17370 bound_to 10713
  156.0003  130.5081  150.7637 LP  0  0  0  0  0  0  0  0  0  0  0  0  # atno 17371 bound_to 10713
  140.2755  134.8358  157.3886 LP  0  0  0  0  0  0  0  0  0  0  0  0  # atno 17394 bound_to 11000
  140.1482  134.4884  155.7981 LP  0  0  0  0  0  0  0  0  0  0  0  0  # atno 17395 bound_to 11000

$$$$
