AV-unprocessed.smi:681|AV-procd|sdf|3325|dock8
  -GOLD-   22720 0293D 1   1.00000     0.00000
 Structure written by MMmdl.
 41 42  0  0  0  0  0  0  0  0  1 V2000
  151.5125  133.4256  157.1603 C   0  0  0  0  0  0  0  0  0  0  0  0
  151.6448  134.9092  157.2078 C   0  0  0  0  0  0  0  0  0  0  0  0
  151.9513  135.6625  156.1118 N   0  0  0  0  0  0  0  0  0  0  0  0
  151.9579  136.8757  156.6540 C   0  0  0  0  0  0  0  0  0  0  0  0
  152.2459  138.1331  155.9008 C   0  0  0  0  0  0  0  0  0  0  0  0
  151.6796  136.8611  157.9659 N   0  0  0  0  0  0  0  0  0  0  0  0
  151.5947  137.9401  158.9373 C   0  0  0  0  0  0  0  0  0  0  0  0
  152.8701  138.7837  158.9375 C   0  0  0  0  0  0  0  0  0  0  0  0
  153.7958  138.4993  158.1779 O   0  0  0  0  0  0  0  0  0  0  0  0
  152.9060  139.8143  159.7964 N   0  0  0  0  0  0  0  0  0  0  0  0
  154.0323  140.7231  159.9675 C   0  0  0  0  0  0  0  0  0  0  0  0
  153.6331  141.9593  160.7914 C   0  0  0  0  0  0  0  0  0  0  0  0
  152.9031  143.0057  159.9658 C   0  0  0  0  0  0  0  0  0  0  0  0
  152.3657  144.1073  160.5254 C   0  0  0  0  0  0  0  0  0  0  0  0
  151.6414  145.1928  159.7485 C   0  0  0  0  0  0  0  0  0  0  0  0
  151.8784  145.0856  158.2330 C   0  0  0  0  0  0  0  0  0  0  0  0
  151.7793  143.6305  157.7585 C   0  0  0  0  0  0  0  0  0  0  0  0
  152.8147  142.7387  158.4670 C   0  0  0  0  0  0  0  0  0  0  0  0
  151.4701  135.5776  158.3451 N   0  0  0  0  0  0  0  0  0  0  0  0
  151.6268  133.0597  156.1394 H   0  0  0  0  0  0  0  0  0  0  0  0
  150.5322  133.1211  157.5275 H   0  0  0  0  0  0  0  0  0  0  0  0
  152.2778  132.9596  157.7812 H   0  0  0  0  0  0  0  0  0  0  0  0
  152.3713  137.9210  154.8385 H   0  0  0  0  0  0  0  0  0  0  0  0
  153.1620  138.5917  156.2729 H   0  0  0  0  0  0  0  0  0  0  0  0
  151.4242  138.8398  156.0166 H   0  0  0  0  0  0  0  0  0  0  0  0
  150.7326  138.5655  158.7029 H   0  0  0  0  0  0  0  0  0  0  0  0
  151.4222  137.5227  159.9307 H   0  0  0  0  0  0  0  0  0  0  0  0
  152.1004  139.9684  160.3859 H   0  0  0  0  0  0  0  0  0  0  0  0
  154.8684  140.2026  160.4385 H   0  0  0  0  0  0  0  0  0  0  0  0
  154.3715  141.0214  158.9754 H   0  0  0  0  0  0  0  0  0  0  0  0
  152.9959  141.6645  161.6260 H   0  0  0  0  0  0  0  0  0  0  0  0
  154.5242  142.4092  161.2318 H   0  0  0  0  0  0  0  0  0  0  0  0
  152.4306  144.2536  161.5938 H   0  0  0  0  0  0  0  0  0  0  0  0
  150.5769  145.1121  159.9701 H   0  0  0  0  0  0  0  0  0  0  0  0
  151.9675  146.1698  160.1065 H   0  0  0  0  0  0  0  0  0  0  0  0
  151.1627  145.7108  157.6983 H   0  0  0  0  0  0  0  0  0  0  0  0
  152.8689  145.4734  157.9910 H   0  0  0  0  0  0  0  0  0  0  0  0
  150.7754  143.2556  157.9622 H   0  0  0  0  0  0  0  0  0  0  0  0
  151.9164  143.5733  156.6782 H   0  0  0  0  0  0  0  0  0  0  0  0
  153.8004  142.9063  158.0323 H   0  0  0  0  0  0  0  0  0  0  0  0
  152.5682  141.6902  158.2964 H   0  0  0  0  0  0  0  0  0  0  0  0
  1  2  1  0  0  0  0
  1 20  1  0  0  0  0
  1 21  1  0  0  0  0
  1 22  1  0  0  0  0
  2 19  2  0  0  0  0
  2  3  1  0  0  0  0
  3  4  2  0  0  0  0
  4  5  1  0  0  0  0
  4  6  1  0  0  0  0
  5 23  1  0  0  0  0
  5 24  1  0  0  0  0
  5 25  1  0  0  0  0
  6  7  1  0  0  0  0
  6 19  1  0  0  0  0
  7  8  1  0  0  0  0
  7 26  1  0  0  0  0
  7 27  1  0  0  0  0
  8  9  2  0  0  0  0
  8 10  1  0  0  0  0
 10 11  1  0  0  0  0
 10 28  1  0  0  0  0
 11 12  1  0  0  0  0
 11 29  1  0  0  0  0
 11 30  1  0  0  0  0
 12 13  1  0  0  0  0
 12 31  1  0  0  0  0
 12 32  1  0  0  0  0
 13 18  1  0  0  0  0
 13 14  2  0  0  0  0
 14 15  1  0  0  0  0
 14 33  1  0  0  0  0
 15 16  1  0  0  0  0
 15 34  1  0  0  0  0
 15 35  1  0  0  0  0
 16 17  1  0  0  0  0
 16 36  1  0  0  0  0
 16 37  1  0  0  0  0
 17 18  1  0  0  0  0
 17 38  1  0  0  0  0
 17 39  1  0  0  0  0
 18 40  1  0  0  0  0
 18 41  1  0  0  0  0
M  END
> <s_m_source_file>
AV-unprocessed.smi

> <i_m_source_file_index>
681

> <i_lp_mmshare_version>
43012

> <i_f3d_flags>
0

> <s_epik_input>
W0NIM11jMW5jKFtDSDNdKW4objEpW0NIMl1DKD1PKVtOSF1bQ0gyXVtDSDJdQzI9W0NIXVtDSDJdW0NIMl1bQ0gyXVtDSDJdMg==

> <s_epik_cmdline>
J2VwaWtfcHl0aG9uJywgJy1waCcsICc3LjAnLCAnLXRuJywgJzgnLCAnLW1hJywgJzIwMCcsICctbWV0YWxfYmluZGluZycsICctaW1hZScsICc8aW5maWxlLm1hZT4nLCAnLW9tYWUnLCAnPG91dGZpbGUubWFlPic=

> <r_lp_tautomer_probability>
1

> <r_epik_Ionization_Penalty>
0.000426663

> <r_epik_Ionization_Penalty_Charging>
0

> <r_epik_Ionization_Penalty_Neutral>
0.000426663

> <r_epik_State_Penalty>
0.000262586

> <r_epik_Charging_Adjusted_Penalty>
0.000262586

> <i_epik_Tot_Q>
0

> <i_epik_Tot_abs_Q>
0

> <r_epik_Metal_State_Penalty>
-0

> <b_epik_Metal_Only>
0

> <s_lp_Force_Field>
OPLS_2005

> <r_lp_Energy>
6.45034

> <b_lp_Chiralities_Consistent>
1

> <s_lp_Variant>
AV-unprocessed.smi:681-1

> <Gold.Version>
5.8.1

> <Gold.Id.Protein>
6NUR|6NUR_protein|mol2

> <Gold.PLP.Fitness>
48.4601

> <Gold.PLP.PLP>
-42.5137

> <Gold.PLP.part.hbond>
-3.0000

> <Gold.PLP.part.metal>
0.0000

> <Gold.PLP.part.buried>
-5.8851

> <Gold.PLP.part.nonpolar>
-34.8790

> <Gold.PLP.part.repulsive>
0.1918

> <Gold.PLP.ligand.clash>
0.0000

> <Gold.PLP.ligand.torsion>
0.2408

> <Gold.PLP.Chemscore.Hbond>
2.1352

> <Gold.PLP.Chemscore.CHOScore>
0.0000

> <Gold.PLP.Chemscore.Metal>
0.0000

> <Gold.Chemscore.Hbonds>
donor molecule, donor type, donor heavy atom, donor atom, acceptor molecule, acceptor atom, score
      P1  H  6896  6907       L1    19  0.18
      P1  H  7997  8010       L1     9  0.94
      P1  H 10752 10764       L1     3  0.75

> <Gold.PLP.Chemscore.Internal.Correction>
0.0224

> <Gold.Rescore>
     Score         DG    S(hbond)    S(metal)    S(lipo)     H(rot)  DE(clash)    DE(int)     intcor
     18.47     -21.54       2.36        0.00     111.04       1.87       0.10       2.97       ----

> <Gold.Chemscore.Fitness>
18.4674

> <Gold.Chemscore.DG>
-21.5438

> <Gold.Chemscore.ZeroCoef>
-5.4800

> <Gold.Chemscore.Hbond>
2.3568

> <Gold.Chemscore.Metal>
0.0000

> <Gold.Chemscore.Lipo>
111.0438

> <Gold.Chemscore.Internal_Hbond>
0.0000

> <Gold.Chemscore.DEClash>
0.1040

> <Gold.Chemscore.DEInternal>
2.9723

> <Gold.Chemscore.Rot>
1.8750

> <Gold.Chemscore.Internal.Correction>
   9.000000E+99

> <Gold.Chemscore.Hbonds>
donor molecule, donor type, donor heavy atom, donor atom, acceptor molecule, acceptor atom, score
      P1  H  6896  6907       L1    19  0.18
      P1  H  7997  8010       L1     9  0.87
      P1  H 10752 10764       L1     3  0.65

> <Gold.Chemscore.Hbond.Weighted>
-7.8716

> <Gold.Chemscore.Metal.Weighted>
-0.0000

> <Gold.Chemscore.Lipo.Weighted>
-12.9921

> <Gold.Chemscore.Internal_Hbond.Weighted>
0.0000

> <Gold.Chemscore.DEClash.Weighted>
0.1040

> <Gold.Chemscore.DEInternal.Weighted>
2.9723

> <Gold.Chemscore.Rot.Weighted>
4.7999

> <Gold.Chemscore.Internal.Correction.Weighted>
   9.000000E+99

> <Gold.Protein.RotatedTorsions>
[ 6907 6896 6895 6894 ] final  -25.11 input  -60.11 | X-H torsion
[ 7974 7965 7964 7962 ] final   35.95 input  175.53 | X-H torsion
[ 8008 7997 7996 7995 ] final   27.36 input   59.86 | X-H torsion
[ 10167 10162 10161 10158 ] final  101.74 input  -65.29 | X-H torsion
[ 10718 10713 10712 10709 ] final  112.57 input   66.30 | X-H torsion
[ 10763 10752 10751 10750 ] final  -57.85 input  -60.55 | X-H torsion
[ 11005 11000 10999 10996 ] final -147.16 input  -57.11 | X-H torsion

> <Gold.Protein.ActiveResidues>
 VAL166  LYS551  ARG553  GLY616  TRP617  ASP618  TYR619  PRO620  LYS621  CYS622 
 ASP623  PHE694  ASN695  SER759  ASP760  ASP761  ALA762  ILE779  LEU786  VAL792 
 PHE793  MET794  SER795  GLU796  ALA797  LYS798  CYS799  TRP800  GLU811  SER814 

> <Gold.Protein.RotatedAtoms>
  151.1798  135.0356  159.8787 H   0  0  0  0  0  0  0  0  0  0  0  0  # atno 6907 bound_to 6896
  152.5445  134.1075  159.8354 H   0  0  0  0  0  0  0  0  0  0  0  0  # atno 6908 bound_to 6896
  151.1191  133.5070  159.2635 H   0  0  0  0  0  0  0  0  0  0  0  0  # atno 6909 bound_to 6896
  146.1246  139.6078  142.9267 H   0  0  0  0  0  0  0  0  0  0  0  0  # atno 7974 bound_to 7965
  155.0417  140.3170  155.4722 H   0  0  0  0  0  0  0  0  0  0  0  0  # atno 8008 bound_to 7997
  156.2853  140.2162  156.5484 H   0  0  0  0  0  0  0  0  0  0  0  0  # atno 8009 bound_to 7997
  154.7284  140.0483  157.0692 H   0  0  0  0  0  0  0  0  0  0  0  0  # atno 8010 bound_to 7997
  139.7412  144.7011  151.0573 H   0  0  0  0  0  0  0  0  0  0  0  0  # atno 10167 bound_to 10162
  157.6385  131.0970  150.6915 H   0  0  0  0  0  0  0  0  0  0  0  0  # atno 10718 bound_to 10713
  154.2288  135.6364  153.5168 H   0  0  0  0  0  0  0  0  0  0  0  0  # atno 10763 bound_to 10752
  152.9953  135.5514  154.6034 H   0  0  0  0  0  0  0  0  0  0  0  0  # atno 10764 bound_to 10752
  154.5513  135.2902  155.0980 H   0  0  0  0  0  0  0  0  0  0  0  0  # atno 10765 bound_to 10752
  140.7745  134.3151  157.5065 H   0  0  0  0  0  0  0  0  0  0  0  0  # atno 11005 bound_to 11000
  145.5392  141.0422  143.2340 LP  0  0  0  0  0  0  0  0  0  0  0  0  # atno 17320 bound_to 7965
  144.7630  139.6911  143.7226 LP  0  0  0  0  0  0  0  0  0  0  0  0  # atno 17321 bound_to 7965
  140.7786  143.4923  150.9878 LP  0  0  0  0  0  0  0  0  0  0  0  0  # atno 17342 bound_to 10162
  139.8611  143.7313  152.3173 LP  0  0  0  0  0  0  0  0  0  0  0  0  # atno 17343 bound_to 10162
  156.7242  130.4690  149.5515 LP  0  0  0  0  0  0  0  0  0  0  0  0  # atno 17370 bound_to 10713
  156.1645  130.6396  151.0760 LP  0  0  0  0  0  0  0  0  0  0  0  0  # atno 17371 bound_to 10713
  139.8751  134.9281  156.3442 LP  0  0  0  0  0  0  0  0  0  0  0  0  # atno 17394 bound_to 11000
  140.9542  133.7431  156.0313 LP  0  0  0  0  0  0  0  0  0  0  0  0  # atno 17395 bound_to 11000

$$$$
