AV-unprocessed.smi:153|AV-procd|sdf|1261|dock9
  -GOLD-   2262018513D 1   1.00000     0.00000
 Structure written by MMmdl.
 59 62  0  0  0  0  0  0  0  0  1 V2000
  152.9109  141.8921  159.5752 C   0  0  0  0  0  0  0  0  0  0  0  0
  151.8617  143.0026  159.4103 C   0  0  1  0  0  0  0  0  0  0  0  0
  152.4749  144.2283  159.8035 O   0  0  0  0  0  0  0  0  0  0  0  0
  151.9246  145.2863  159.0393 C   0  0  0  0  0  0  0  0  0  0  0  0
  151.7919  144.6589  157.6603 C   0  0  0  0  0  0  0  0  0  0  0  0
  151.3175  143.2428  157.9733 C   0  0  2  0  0  0  0  0  0  0  0  0
  149.9014  143.2679  158.0482 O   0  0  0  0  0  0  0  0  0  0  0  0
  151.7172  142.1964  156.8997 C   0  0  0  0  0  0  0  0  0  0  0  0
  151.0807  140.9013  157.0894 N   0  0  0  0  0  0  0  0  0  0  0  0
  150.6689  140.3545  158.2819 C   0  0  0  0  0  0  0  0  0  0  0  0
  150.1158  139.1774  158.1887 N   0  0  0  0  0  0  0  0  0  0  0  0
  150.1506  138.8776  156.8298 C   0  0  0  0  0  0  0  0  0  0  0  0
  149.7200  137.7715  156.0309 C   0  0  0  0  0  0  0  0  0  0  0  0
  149.0895  136.6581  156.5120 N   0  0  0  0  0  0  0  0  0  0  0  0
  149.2386  135.3957  155.7977 C   0  0  0  0  0  0  0  0  0  0  0  0
  148.7054  136.5871  157.9241 C   0  0  0  0  0  0  0  0  0  0  0  0
  147.2030  136.2792  158.1161 C   0  0  2  0  0  0  0  0  0  0  0  0
  146.4747  136.9941  157.1382 O   0  0  0  0  0  0  0  0  0  0  0  0
  146.7022  136.7383  159.5024 C   0  0  0  0  0  0  0  0  0  0  0  0
  147.3202  136.0707  160.6494 N   0  0  0  0  0  0  0  0  0  0  0  0
  146.8204  134.7063  160.7858 C   0  0  0  0  0  0  0  0  0  0  0  0
  147.4437  133.9795  161.9902 C   0  0  0  0  0  0  0  0  0  0  0  0
  147.1919  134.7243  163.1769 O   0  0  0  0  0  0  0  0  0  0  0  0
  147.7042  136.0506  163.1087 C   0  0  0  0  0  0  0  0  0  0  0  0
  147.0853  136.7836  161.9057 C   0  0  0  0  0  0  0  0  0  0  0  0
  149.9669  137.8556  154.6944 N   0  0  0  0  0  0  0  0  0  0  0  0
  150.5653  138.9263  154.1684 C   0  0  0  0  0  0  0  0  0  0  0  0
  151.0021  140.0215  154.7874 N   0  0  0  0  0  0  0  0  0  0  0  0
  150.7719  139.9537  156.1289 C   0  0  0  0  0  0  0  0  0  0  0  0
  152.5080  140.9176  159.2995 H   0  0  0  0  0  0  0  0  0  0  0  0
  153.2391  141.8263  160.6127 H   0  0  0  0  0  0  0  0  0  0  0  0
  153.7946  142.0827  158.9660 H   0  0  0  0  0  0  0  0  0  0  0  0
  151.0399  142.8051  160.1014 H   0  0  0  0  0  0  0  0  0  0  0  0
  150.9503  145.5668  159.4420 H   0  0  0  0  0  0  0  0  0  0  0  0
  152.5698  146.1649  159.0436 H   0  0  0  0  0  0  0  0  0  0  0  0
  151.1277  145.2135  156.9959 H   0  0  0  0  0  0  0  0  0  0  0  0
  152.7783  144.6303  157.1965 H   0  0  0  0  0  0  0  0  0  0  0  0
  149.5806  143.9015  157.4250 H   0  0  0  0  0  0  0  0  0  0  0  0
  151.4565  142.5513  155.9024 H   0  0  0  0  0  0  0  0  0  0  0  0
  152.7974  142.0455  156.9007 H   0  0  0  0  0  0  0  0  0  0  0  0
  150.7867  140.8625  159.2285 H   0  0  0  0  0  0  0  0  0  0  0  0
  148.6352  135.3960  154.8900 H   0  0  0  0  0  0  0  0  0  0  0  0
  148.9081  134.5567  156.4107 H   0  0  0  0  0  0  0  0  0  0  0  0
  150.2810  135.2176  155.5311 H   0  0  0  0  0  0  0  0  0  0  0  0
  149.3192  135.8312  158.4153 H   0  0  0  0  0  0  0  0  0  0  0  0
  148.9737  137.5198  158.4223 H   0  0  0  0  0  0  0  0  0  0  0  0
  147.0246  135.2148  157.9712 H   0  0  0  0  0  0  0  0  0  0  0  0
  146.0855  137.7513  157.5480 H   0  0  0  0  0  0  0  0  0  0  0  0
  146.8646  137.8124  159.6048 H   0  0  0  0  0  0  0  0  0  0  0  0
  145.6197  136.6053  159.5371 H   0  0  0  0  0  0  0  0  0  0  0  0
  145.7349  134.7192  160.8963 H   0  0  0  0  0  0  0  0  0  0  0  0
  147.0343  134.1420  159.8774 H   0  0  0  0  0  0  0  0  0  0  0  0
  147.0142  132.9834  162.0965 H   0  0  0  0  0  0  0  0  0  0  0  0
  148.5185  133.8528  161.8522 H   0  0  0  0  0  0  0  0  0  0  0  0
  147.4650  136.5733  164.0349 H   0  0  0  0  0  0  0  0  0  0  0  0
  148.7918  136.0243  163.0269 H   0  0  0  0  0  0  0  0  0  0  0  0
  147.5032  137.7879  161.8642 H   0  0  0  0  0  0  0  0  0  0  0  0
  146.0130  136.9002  162.0702 H   0  0  0  0  0  0  0  0  0  0  0  0
  150.7134  138.9015  153.0987 H   0  0  0  0  0  0  0  0  0  0  0  0
  1  2  1  0  0  0  0
  1 30  1  0  0  0  0
  1 31  1  0  0  0  0
  1 32  1  0  0  0  0
  2  6  1  0  0  0  0
  2  3  1  0  0  0  0
  2 33  1  0  0  0  0
  3  4  1  0  0  0  0
  4  5  1  0  0  0  0
  4 34  1  0  0  0  0
  4 35  1  0  0  0  0
  5  6  1  0  0  0  0
  5 36  1  0  0  0  0
  5 37  1  0  0  0  0
  6  7  1  0  0  0  0
  6  8  1  0  0  0  0
  7 38  1  0  0  0  0
  8  9  1  0  0  0  0
  8 39  1  0  0  0  0
  8 40  1  0  0  0  0
  9 29  1  0  0  0  0
  9 10  1  0  0  0  0
 10 11  2  0  0  0  0
 10 41  1  0  0  0  0
 11 12  1  0  0  0  0
 12 29  2  0  0  0  0
 12 13  1  0  0  0  0
 13 14  1  0  0  0  0
 13 26  2  0  0  0  0
 14 15  1  0  0  0  0
 14 16  1  0  0  0  0
 15 42  1  0  0  0  0
 15 43  1  0  0  0  0
 15 44  1  0  0  0  0
 16 17  1  0  0  0  0
 16 45  1  0  0  0  0
 16 46  1  0  0  0  0
 17 18  1  0  0  0  0
 17 19  1  0  0  0  0
 17 47  1  0  0  0  0
 18 48  1  0  0  0  0
 19 20  1  0  0  0  0
 19 49  1  0  0  0  0
 19 50  1  0  0  0  0
 20 25  1  0  0  0  0
 20 21  1  0  0  0  0
 21 22  1  0  0  0  0
 21 51  1  0  0  0  0
 21 52  1  0  0  0  0
 22 23  1  0  0  0  0
 22 53  1  0  0  0  0
 22 54  1  0  0  0  0
 23 24  1  0  0  0  0
 24 25  1  0  0  0  0
 24 55  1  0  0  0  0
 24 56  1  0  0  0  0
 25 57  1  0  0  0  0
 25 58  1  0  0  0  0
 26 27  1  0  0  0  0
 27 28  2  0  0  0  0
 27 59  1  0  0  0  0
 28 29  1  0  0  0  0
M  END
> <s_m_source_file>
AV-unprocessed.smi

> <i_m_source_file_index>
153

> <i_lp_mmshare_version>
43012

> <i_f3d_flags>
0

> <s_epik_input>
W0NIMl0xW0NIMl1PW0NAQEhdKFtDSDNdKVtDQEBdMShbT0hdKVtDSDJdbihbY0hdbjIpYyhjMjMpbltjSF1uYzNOKFtDSDNdKVtDSDJdW0NASF0oW09IXSlbQ0gyXU40W0NIMl1bQ0gyXU9bQ0gyXVtDSDJdNA==

> <s_epik_cmdline>
J2VwaWtfcHl0aG9uJywgJy1waCcsICc3LjAnLCAnLXRuJywgJzgnLCAnLW1hJywgJzIwMCcsICctbWV0YWxfYmluZGluZycsICctaW1hZScsICc8aW5maWxlLm1hZT4nLCAnLW9tYWUnLCAnPG91dGZpbGUubWFlPic=

> <r_lp_tautomer_probability>
1

> <r_epik_Ionization_Penalty>
0.424123

> <r_epik_Ionization_Penalty_Charging>
0

> <r_epik_Ionization_Penalty_Neutral>
0.424123

> <r_epik_State_Penalty>
0.421495

> <r_epik_Charging_Adjusted_Penalty>
0.421495

> <i_epik_Tot_Q>
0

> <i_epik_Tot_abs_Q>
0

> <r_epik_Metal_State_Penalty>
0.421223

> <b_epik_Metal_Only>
0

> <s_lp_Force_Field>
OPLS_2005

> <r_lp_Energy>
56.2601

> <b_lp_Chiralities_Consistent>
1

> <s_lp_Variant>
AV-unprocessed.smi:153-12

> <Gold.Version>
5.8.1

> <Gold.Id.Protein>
6NUR|6NUR_protein|mol2

> <Gold.PLP.Fitness>
53.6955

> <Gold.PLP.PLP>
-46.1243

> <Gold.PLP.part.hbond>
-2.5973

> <Gold.PLP.part.metal>
0.0000

> <Gold.PLP.part.buried>
-9.5814

> <Gold.PLP.part.nonpolar>
-33.9195

> <Gold.PLP.part.repulsive>
0.2769

> <Gold.PLP.ligand.clash>
0.0000

> <Gold.PLP.ligand.torsion>
1.0555

> <Gold.PLP.Chemscore.Hbond>
2.0000

> <Gold.PLP.Chemscore.CHOScore>
1.0000

> <Gold.PLP.Chemscore.Metal>
0.0000

> <Gold.Chemscore.Hbonds>
donor molecule, donor type, donor heavy atom, donor atom, acceptor molecule, acceptor atom, score
      L1  H     7    38       P1  8028  0.96
      P1  H  7989  7998       L1    28  1.00
      L1  C    27    59       P1  7957  1.00

> <Gold.PLP.Chemscore.Internal.Correction>
0.6823

> <Gold.Rescore>
     Score         DG    S(hbond)    S(metal)    S(lipo)     H(rot)  DE(clash)    DE(int)     intcor
     10.55     -16.27       1.83        0.00     116.98       3.52       2.32       3.40       ----

> <Gold.Chemscore.Fitness>
10.5535

> <Gold.Chemscore.DG>
-16.2734

> <Gold.Chemscore.ZeroCoef>
-5.4800

> <Gold.Chemscore.Hbond>
1.8295

> <Gold.Chemscore.Metal>
0.0000

> <Gold.Chemscore.Lipo>
116.9793

> <Gold.Chemscore.Internal_Hbond>
0.0000

> <Gold.Chemscore.DEClash>
2.3172

> <Gold.Chemscore.DEInternal>
3.4027

> <Gold.Chemscore.Rot>
3.5170

> <Gold.Chemscore.Internal.Correction>
   9.000000E+99

> <Gold.Chemscore.Hbonds>
donor molecule, donor type, donor heavy atom, donor atom, acceptor molecule, acceptor atom, score
      L1  H     7    38       P1  8028  0.41
      P1  H  7989  7998       L1    28  0.30

> <Gold.Chemscore.Hbond.Weighted>
-6.1104

> <Gold.Chemscore.Metal.Weighted>
-0.0000

> <Gold.Chemscore.Lipo.Weighted>
-13.6866

> <Gold.Chemscore.Internal_Hbond.Weighted>
0.0000

> <Gold.Chemscore.DEClash.Weighted>
2.3172

> <Gold.Chemscore.DEInternal.Weighted>
3.4027

> <Gold.Chemscore.Rot.Weighted>
9.0036

> <Gold.Chemscore.Internal.Correction.Weighted>
   9.000000E+99

> <Gold.Protein.RotatedTorsions>
[ 6907 6896 6895 6894 ] final  152.58 input  -60.11 | X-H torsion
[ 7974 7965 7964 7962 ] final    7.18 input  175.53 | X-H torsion
[ 8008 7997 7996 7995 ] final   20.39 input   59.86 | X-H torsion
[ 10167 10162 10161 10158 ] final  -31.28 input  -65.29 | X-H torsion
[ 10718 10713 10712 10709 ] final -134.62 input   66.30 | X-H torsion
[ 10763 10752 10751 10750 ] final -152.57 input  -60.55 | X-H torsion
[ 11005 11000 10999 10996 ] final   99.90 input  -57.11 | X-H torsion

> <Gold.Protein.ActiveResidues>
 VAL166  LYS551  ARG553  GLY616  TRP617  ASP618  TYR619  PRO620  LYS621  CYS622 
 ASP623  PHE694  ASN695  SER759  ASP760  ASP761  ALA762  ILE779  LEU786  VAL792 
 PHE793  MET794  SER795  GLU796  ALA797  LYS798  CYS799  TRP800  GLU811  SER814 

> <Gold.Protein.RotatedAtoms>
  152.0848  133.4170  159.4516 H   0  0  0  0  0  0  0  0  0  0  0  0  # atno 6907 bound_to 6896
  150.6862  134.2941  159.4688 H   0  0  0  0  0  0  0  0  0  0  0  0  # atno 6908 bound_to 6896
  152.0786  134.9486  160.0624 H   0  0  0  0  0  0  0  0  0  0  0  0  # atno 6909 bound_to 6896
  146.2429  140.0122  142.8405 H   0  0  0  0  0  0  0  0  0  0  0  0  # atno 7974 bound_to 7965
  154.9348  140.3045  155.5149 H   0  0  0  0  0  0  0  0  0  0  0  0  # atno 8008 bound_to 7997
  156.3000  140.2347  156.4349 H   0  0  0  0  0  0  0  0  0  0  0  0  # atno 8009 bound_to 7997
  154.8202  140.0424  157.1394 H   0  0  0  0  0  0  0  0  0  0  0  0  # atno 8010 bound_to 7997
  140.7238  143.3783  151.1648 H   0  0  0  0  0  0  0  0  0  0  0  0  # atno 10167 bound_to 10162
  156.2574  130.7189  151.1111 H   0  0  0  0  0  0  0  0  0  0  0  0  # atno 10718 bound_to 10713
  154.7985  135.3233  154.7607 H   0  0  0  0  0  0  0  0  0  0  0  0  # atno 10763 bound_to 10752
  153.8280  135.6882  153.4822 H   0  0  0  0  0  0  0  0  0  0  0  0  # atno 10764 bound_to 10752
  153.1689  135.4631  154.9818 H   0  0  0  0  0  0  0  0  0  0  0  0  # atno 10765 bound_to 10752
  139.8770  134.9116  156.4675 H   0  0  0  0  0  0  0  0  0  0  0  0  # atno 11005 bound_to 11000
  145.1317  140.9522  143.4540 LP  0  0  0  0  0  0  0  0  0  0  0  0  # atno 17320 bound_to 7965
  145.0381  139.3283  143.5990 LP  0  0  0  0  0  0  0  0  0  0  0  0  # atno 17321 bound_to 7965
  139.7367  143.8987  152.3037 LP  0  0  0  0  0  0  0  0  0  0  0  0  # atno 17342 bound_to 10162
  139.8795  144.7025  150.8894 LP  0  0  0  0  0  0  0  0  0  0  0  0  # atno 17343 bound_to 10162
  157.7238  131.0664  150.6023 LP  0  0  0  0  0  0  0  0  0  0  0  0  # atno 17370 bound_to 10713
  156.6108  130.4379  149.5860 LP  0  0  0  0  0  0  0  0  0  0  0  0  # atno 17371 bound_to 10713
  140.8819  133.7911  155.9476 LP  0  0  0  0  0  0  0  0  0  0  0  0  # atno 17394 bound_to 11000
  140.8844  134.2571  157.5127 LP  0  0  0  0  0  0  0  0  0  0  0  0  # atno 17395 bound_to 11000

$$$$
