AV-unprocessed.smi:2675|AV-procd|sdf|10361|dock1
  -GOLD-   2272014383D 1   1.00000     0.00000
 Structure written by MMmdl.
 37 38  0  0  0  0  0  0  0  0  2 V2000
  146.1104  142.6204  153.9181 C   0  0  0  0  0  0  0  0  0  0  0  0
  147.3192  141.8008  154.2245 C   0  0  0  0  0  0  0  0  0  0  0  0
  148.3904  142.3234  154.8996 N   0  3  0  0  0  0  0  0  0  0  0  0
  149.3445  141.4044  155.0507 C   0  0  0  0  0  0  0  0  0  0  0  0
  148.8959  140.2830  154.4755 N   0  0  0  0  0  0  0  0  0  0  0  0
  149.7036  139.0554  154.4451 C   0  0  0  0  0  0  0  0  0  0  0  0
  150.8933  139.1533  155.4003 C   0  0  0  0  0  0  0  0  0  0  0  0
  151.9623  139.6071  154.9966 O   0  0  0  0  0  0  0  0  0  0  0  0
  150.6829  138.7273  156.6583 N   0  0  0  0  0  0  0  0  0  0  0  0
  151.6131  138.7444  157.7952 C   0  0  2  0  0  0  0  0  0  0  0  0
  152.9195  138.1152  157.2830 C   0  0  0  0  0  0  0  0  0  0  0  0
  151.1250  137.9114  158.9121 C   0  0  0  0  0  0  0  0  0  0  0  0
  150.7440  137.2566  159.7870 N   0  0  0  0  0  0  0  0  0  0  0  0
  151.9318  140.1316  158.3566 C   0  0  0  0  0  0  0  0  0  0  0  0
  150.9291  141.2606  158.4519 C   0  0  0  0  0  0  0  0  0  0  0  0
  152.0762  141.3480  157.4698 C   0  0  0  0  0  0  0  0  0  0  0  0
  147.6386  140.4897  153.9502 C   0  0  0  0  0  0  0  0  0  0  0  0
  146.8687  139.4235  153.2390 C   0  0  0  0  0  0  0  0  0  0  0  0
  145.3800  142.0407  153.3546 H   0  0  0  0  0  0  0  0  0  0  0  0
  146.3878  143.4932  153.3265 H   0  0  0  0  0  0  0  0  0  0  0  0
  145.6421  142.9603  154.8421 H   0  0  0  0  0  0  0  0  0  0  0  0
  150.2929  141.5436  155.5383 H   0  0  0  0  0  0  0  0  0  0  0  0
  149.0679  138.2082  154.7081 H   0  0  0  0  0  0  0  0  0  0  0  0
  150.0507  138.8885  153.4250 H   0  0  0  0  0  0  0  0  0  0  0  0
  149.7649  138.3607  156.8620 H   0  0  0  0  0  0  0  0  0  0  0  0
  153.6659  138.0519  158.0758 H   0  0  0  0  0  0  0  0  0  0  0  0
  153.3522  138.7011  156.4711 H   0  0  0  0  0  0  0  0  0  0  0  0
  152.7545  137.1029  156.9111 H   0  0  0  0  0  0  0  0  0  0  0  0
  152.6296  140.0867  159.1913 H   0  0  0  0  0  0  0  0  0  0  0  0
  149.9336  141.1240  158.0393 H   0  0  0  0  0  0  0  0  0  0  0  0
  150.9769  141.8960  159.3340 H   0  0  0  0  0  0  0  0  0  0  0  0
  152.8833  142.0408  157.6992 H   0  0  0  0  0  0  0  0  0  0  0  0
  151.8370  141.2493  156.4131 H   0  0  0  0  0  0  0  0  0  0  0  0
  145.8948  139.7951  152.9222 H   0  0  0  0  0  0  0  0  0  0  0  0
  146.7099  138.5677  153.8954 H   0  0  0  0  0  0  0  0  0  0  0  0
  147.4103  139.0912  152.3534 H   0  0  0  0  0  0  0  0  0  0  0  0
  148.4522  143.2758  155.2371 H   0  0  0  0  0  0  0  0  0  0  0  0
  1  2  1  0  0  0  0
  1 19  1  0  0  0  0
  1 20  1  0  0  0  0
  1 21  1  0  0  0  0
  2 17  2  0  0  0  0
  2  3  1  0  0  0  0
  3  4  2  0  0  0  0
  3 37  1  0  0  0  0
  4  5  1  0  0  0  0
  4 22  1  0  0  0  0
  5  6  1  0  0  0  0
  5 17  1  0  0  0  0
  6  7  1  0  0  0  0
  6 23  1  0  0  0  0
  6 24  1  0  0  0  0
  7  8  2  0  0  0  0
  7  9  1  0  0  0  0
  9 10  1  0  0  0  0
  9 25  1  0  0  0  0
 10 11  1  0  0  0  0
 10 12  1  0  0  0  0
 10 14  1  0  0  0  0
 11 26  1  0  0  0  0
 11 27  1  0  0  0  0
 11 28  1  0  0  0  0
 12 13  3  0  0  0  0
 14 16  1  0  0  0  0
 14 15  1  0  0  0  0
 14 29  1  0  0  0  0
 15 16  1  0  0  0  0
 15 30  1  0  0  0  0
 15 31  1  0  0  0  0
 16 32  1  0  0  0  0
 16 33  1  0  0  0  0
 17 18  1  0  0  0  0
 18 34  1  0  0  0  0
 18 35  1  0  0  0  0
 18 36  1  0  0  0  0
M  CHG  1   3   1
M  END
> <s_m_source_file>
AV-unprocessed.smi

> <i_m_source_file_index>
2675

> <i_lp_mmshare_version>
43012

> <i_f3d_flags>
0

> <s_epik_input>
W0NIM11jMW5bY0hdbihjMVtDSDNdKVtDSDJdQyg9TylbTkhdW0NAQF0oW0NIM10pKEMjTilbQ0hdMltDSDJdW0NIMl0y

> <s_epik_cmdline>
J2VwaWtfcHl0aG9uJywgJy1waCcsICc3LjAnLCAnLXRuJywgJzgnLCAnLW1hJywgJzIwMCcsICctbWV0YWxfYmluZGluZycsICctaW1hZScsICc8aW5maWxlLm1hZT4nLCAnLW9tYWUnLCAnPG91dGZpbGUubWFlPic=

> <r_lp_tautomer_probability>
1

> <r_epik_Ionization_Penalty>
0.153253

> <r_epik_Ionization_Penalty_Charging>
0

> <r_epik_Ionization_Penalty_Neutral>
0.153253

> <r_epik_State_Penalty>
0.14254

> <r_epik_Charging_Adjusted_Penalty>
0.14254

> <i_epik_Tot_Q>
1

> <i_epik_Tot_abs_Q>
1

> <r_epik_Metal_State_Penalty>
0.466899

> <b_epik_Metal_Only>
0

> <s_lp_Force_Field>
OPLS_2005

> <r_lp_Energy>
18.2942

> <b_lp_Chiralities_Consistent>
1

> <s_lp_Variant>
AV-unprocessed.smi:2675-2

> <Gold.Version>
5.8.1

> <Gold.Id.Protein>
6NUR|6NUR_protein|mol2

> <Gold.PLP.Fitness>
44.9473

> <Gold.PLP.PLP>
-34.4805

> <Gold.PLP.part.hbond>
-2.9941

> <Gold.PLP.part.metal>
0.0000

> <Gold.PLP.part.buried>
-5.2196

> <Gold.PLP.part.nonpolar>
-27.4871

> <Gold.PLP.part.repulsive>
0.2230

> <Gold.PLP.ligand.clash>
0.0000

> <Gold.PLP.ligand.torsion>
1.4393

> <Gold.PLP.Chemscore.Hbond>
3.9440

> <Gold.PLP.Chemscore.CHOScore>
0.0000

> <Gold.PLP.Chemscore.Metal>
0.0000

> <Gold.Chemscore.Hbonds>
donor molecule, donor type, donor heavy atom, donor atom, acceptor molecule, acceptor atom, score
      L1  H     3    37       P1  8028  2.00
      P1  H  6896  6908       L1    13  0.42
      P1  H  7989  7998       L1     8  0.94

> <Gold.PLP.Chemscore.Internal.Correction>
1.5134

> <Gold.Rescore>
     Score         DG    S(hbond)    S(metal)    S(lipo)     H(rot)  DE(clash)    DE(int)     intcor
     13.99     -17.05       2.94        0.00      54.12       1.80       0.02       3.04       ----

> <Gold.Chemscore.Fitness>
13.9880

> <Gold.Chemscore.DG>
-17.0467

> <Gold.Chemscore.ZeroCoef>
-5.4800

> <Gold.Chemscore.Hbond>
2.9434

> <Gold.Chemscore.Metal>
0.0000

> <Gold.Chemscore.Lipo>
54.1204

> <Gold.Chemscore.Internal_Hbond>
0.0000

> <Gold.Chemscore.DEClash>
0.0233

> <Gold.Chemscore.DEInternal>
3.0353

> <Gold.Chemscore.Rot>
1.7955

> <Gold.Chemscore.Internal.Correction>
   9.000000E+99

> <Gold.Chemscore.Hbonds>
donor molecule, donor type, donor heavy atom, donor atom, acceptor molecule, acceptor atom, score
      L1  H     3    37       P1  8028  0.94
      P1  H  6896  6908       L1    13  0.40
      P1  H  7989  7998       L1     8  0.70

> <Gold.Chemscore.Hbond.Weighted>
-9.8311

> <Gold.Chemscore.Metal.Weighted>
-0.0000

> <Gold.Chemscore.Lipo.Weighted>
-6.3321

> <Gold.Chemscore.Internal_Hbond.Weighted>
0.0000

> <Gold.Chemscore.DEClash.Weighted>
0.0233

> <Gold.Chemscore.DEInternal.Weighted>
3.0353

> <Gold.Chemscore.Rot.Weighted>
4.5965

> <Gold.Chemscore.Internal.Correction.Weighted>
   9.000000E+99

> <Gold.Protein.RotatedTorsions>
[ 6907 6896 6895 6894 ] final -157.96 input  -60.11 | X-H torsion
[ 7974 7965 7964 7962 ] final -121.55 input  175.53 | X-H torsion
[ 8008 7997 7996 7995 ] final   49.50 input   59.86 | X-H torsion
[ 10167 10162 10161 10158 ] final   78.68 input  -65.29 | X-H torsion
[ 10718 10713 10712 10709 ] final  -20.72 input   66.30 | X-H torsion
[ 10763 10752 10751 10750 ] final  -69.01 input  -60.55 | X-H torsion
[ 11005 11000 10999 10996 ] final   82.44 input  -57.11 | X-H torsion

> <Gold.Protein.ActiveResidues>
 VAL166  LYS551  ARG553  GLY616  TRP617  ASP618  TYR619  PRO620  LYS621  CYS622 
 ASP623  PHE694  ASN695  SER759  ASP760  ASP761  ALA762  ILE779  LEU786  VAL792 
 PHE793  MET794  SER795  GLU796  ALA797  LYS798  CYS799  TRP800  GLU811  SER814 

> <Gold.Protein.RotatedAtoms>
  151.3108  133.4081  159.2646 H   0  0  0  0  0  0  0  0  0  0  0  0  # atno 6907 bound_to 6896
  151.0116  134.9401  159.8020 H   0  0  0  0  0  0  0  0  0  0  0  0  # atno 6908 bound_to 6896
  152.5302  134.3072  159.9153 H   0  0  0  0  0  0  0  0  0  0  0  0  # atno 6909 bound_to 6896
  145.0391  140.8130  143.4277 H   0  0  0  0  0  0  0  0  0  0  0  0  # atno 7974 bound_to 7965
  155.4032  140.3439  155.4258 H   0  0  0  0  0  0  0  0  0  0  0  0  # atno 8008 bound_to 7997
  156.1491  140.1565  156.8830 H   0  0  0  0  0  0  0  0  0  0  0  0  # atno 8009 bound_to 7997
  154.5037  140.0808  156.7831 H   0  0  0  0  0  0  0  0  0  0  0  0  # atno 8010 bound_to 7997
  139.9684  144.5912  150.8008 H   0  0  0  0  0  0  0  0  0  0  0  0  # atno 10167 bound_to 10162
  156.5279  130.4648  149.6562 H   0  0  0  0  0  0  0  0  0  0  0  0  # atno 10718 bound_to 10713
  154.3973  135.6039  153.5877 H   0  0  0  0  0  0  0  0  0  0  0  0  # atno 10763 bound_to 10752
  152.9788  135.5898  154.4227 H   0  0  0  0  0  0  0  0  0  0  0  0  # atno 10764 bound_to 10752
  154.4020  135.2843  155.2069 H   0  0  0  0  0  0  0  0  0  0  0  0  # atno 10765 bound_to 10752
  139.9063  134.8071  156.2175 H   0  0  0  0  0  0  0  0  0  0  0  0  # atno 11005 bound_to 11000
  145.1671  139.2425  143.5361 LP  0  0  0  0  0  0  0  0  0  0  0  0  # atno 17320 bound_to 7965
  146.3507  140.1412  142.8594 LP  0  0  0  0  0  0  0  0  0  0  0  0  # atno 17321 bound_to 7965
  140.7530  143.3001  151.3103 LP  0  0  0  0  0  0  0  0  0  0  0  0  # atno 17342 bound_to 10162
  139.6500  144.0380  152.2619 LP  0  0  0  0  0  0  0  0  0  0  0  0  # atno 17343 bound_to 10162
  156.3087  130.7217  151.2105 LP  0  0  0  0  0  0  0  0  0  0  0  0  # atno 17370 bound_to 10713
  157.7426  131.0487  150.5008 LP  0  0  0  0  0  0  0  0  0  0  0  0  # atno 17371 bound_to 10713
  141.0426  133.6929  156.1626 LP  0  0  0  0  0  0  0  0  0  0  0  0  # atno 17394 bound_to 11000
  140.6932  134.4644  157.5588 LP  0  0  0  0  0  0  0  0  0  0  0  0  # atno 17395 bound_to 11000

$$$$
