AV-unprocessed.smi:557|AV-procd|sdf|2921|dock2
  -GOLD-   2262023413D 1   1.00000     0.00000
 Structure written by MMmdl.
 47 49  0  0  0  0  0  0  0  0  2 V2000
  151.8949  144.6142  161.0329 C   0  0  0  0  0  0  0  0  0  0  0  0
  151.6536  143.8897  159.8034 N   0  0  0  0  0  0  0  0  0  0  0  0
  151.5307  142.5299  159.6166 C   0  0  0  0  0  0  0  0  0  0  0  0
  151.3087  142.3170  158.2852 C   0  0  0  0  0  0  0  0  0  0  0  0
  151.1101  141.0131  157.5645 C   0  0  0  0  0  0  0  0  0  0  0  0
  150.7566  141.2360  156.0882 C   0  0  0  0  0  0  0  0  0  0  0  0
  149.6716  140.3480  155.6803 N   0  0  0  0  0  0  0  0  0  0  0  0
  148.8242  140.5225  154.6525 C   0  0  0  0  0  0  0  0  0  0  0  0
  148.8921  141.5011  153.9119 O   0  0  0  0  0  0  0  0  0  0  0  0
  147.9165  139.5418  154.5055 N   0  0  0  0  0  0  0  0  0  0  0  0
  146.8678  139.5052  153.4878 C   0  0  1  0  0  0  0  0  0  0  0  0
  147.4037  139.7006  152.0568 C   0  0  0  0  0  0  0  0  0  0  0  0
  146.5931  138.7177  151.2055 C   0  0  0  0  0  0  0  0  0  0  0  0
  146.3792  137.5937  152.1240 N   0  3  2  0  0  0  0  0  0  0  0  0
  145.4254  136.5337  151.7407 C   0  0  0  0  0  0  0  0  0  0  0  0
  145.5352  135.3879  152.7701 C   0  0  0  0  0  0  0  0  0  0  0  0
  145.3887  135.8887  154.2257 C   0  0  0  0  0  0  0  0  0  0  0  0
  146.3166  137.0880  154.5198 C   0  0  0  0  0  0  0  0  0  0  0  0
  146.0890  138.1694  153.4485 C   0  0  1  0  0  0  0  0  0  0  0  0
  151.3102  143.6309  157.7358 C   0  0  0  0  0  0  0  0  0  0  0  0
  151.5188  144.5687  158.6459 N   0  0  0  0  0  0  0  0  0  0  0  0
  152.0133  143.9157  161.8617 H   0  0  0  0  0  0  0  0  0  0  0  0
  151.0530  145.2745  161.2431 H   0  0  0  0  0  0  0  0  0  0  0  0
  152.8036  145.2096  160.9392 H   0  0  0  0  0  0  0  0  0  0  0  0
  151.6115  141.8323  160.4373 H   0  0  0  0  0  0  0  0  0  0  0  0
  152.0114  140.4025  157.6326 H   0  0  0  0  0  0  0  0  0  0  0  0
  150.3206  140.4299  158.0404 H   0  0  0  0  0  0  0  0  0  0  0  0
  150.4623  142.2744  155.9275 H   0  0  0  0  0  0  0  0  0  0  0  0
  151.6322  141.0434  155.4657 H   0  0  0  0  0  0  0  0  0  0  0  0
  149.5997  139.4764  156.1857 H   0  0  0  0  0  0  0  0  0  0  0  0
  147.9500  138.7700  155.1555 H   0  0  0  0  0  0  0  0  0  0  0  0
  146.1533  140.3080  153.6822 H   0  0  0  0  0  0  0  0  0  0  0  0
  147.3105  140.7299  151.7089 H   0  0  0  0  0  0  0  0  0  0  0  0
  148.4599  139.4306  152.0082 H   0  0  0  0  0  0  0  0  0  0  0  0
  145.6328  139.1527  150.9235 H   0  0  0  0  0  0  0  0  0  0  0  0
  147.1172  138.4124  150.2995 H   0  0  0  0  0  0  0  0  0  0  0  0
  144.4106  136.9336  151.7075 H   0  0  0  0  0  0  0  0  0  0  0  0
  145.6629  136.1668  150.7418 H   0  0  0  0  0  0  0  0  0  0  0  0
  144.7863  134.6235  152.5605 H   0  0  0  0  0  0  0  0  0  0  0  0
  146.5056  134.9021  152.6591 H   0  0  0  0  0  0  0  0  0  0  0  0
  144.3533  136.1851  154.3988 H   0  0  0  0  0  0  0  0  0  0  0  0
  145.5945  135.0762  154.9232 H   0  0  0  0  0  0  0  0  0  0  0  0
  146.1058  137.4830  155.5141 H   0  0  0  0  0  0  0  0  0  0  0  0
  147.3586  136.7645  154.5190 H   0  0  0  0  0  0  0  0  0  0  0  0
  145.0296  138.4354  153.4657 H   0  0  0  0  0  0  0  0  0  0  0  0
  151.1680  143.9286  156.7073 H   0  0  0  0  0  0  0  0  0  0  0  0
  147.2806  137.1465  152.2086 H   0  0  0  0  0  0  0  0  0  0  0  0
  1  2  1  0  0  0  0
  1 22  1  0  0  0  0
  1 23  1  0  0  0  0
  1 24  1  0  0  0  0
  2 21  1  0  0  0  0
  2  3  1  0  0  0  0
  3  4  2  0  0  0  0
  3 25  1  0  0  0  0
  4  5  1  0  0  0  0
  4 20  1  0  0  0  0
  5  6  1  0  0  0  0
  5 26  1  0  0  0  0
  5 27  1  0  0  0  0
  6  7  1  0  0  0  0
  6 28  1  0  0  0  0
  6 29  1  0  0  0  0
  7  8  1  0  0  0  0
  7 30  1  0  0  0  0
  8  9  2  0  0  0  0
  8 10  1  0  0  0  0
 10 11  1  0  0  0  0
 10 31  1  0  0  0  0
 11 19  1  0  0  0  0
 11 12  1  0  0  0  0
 11 32  1  0  0  0  0
 12 13  1  0  0  0  0
 12 33  1  0  0  0  0
 12 34  1  0  0  0  0
 13 14  1  0  0  0  0
 13 35  1  0  0  0  0
 13 36  1  0  0  0  0
 14 19  1  0  0  0  0
 14 15  1  0  0  0  0
 14 47  1  0  0  0  0
 15 16  1  0  0  0  0
 15 37  1  0  0  0  0
 15 38  1  0  0  0  0
 16 17  1  0  0  0  0
 16 39  1  0  0  0  0
 16 40  1  0  0  0  0
 17 18  1  0  0  0  0
 17 41  1  0  0  0  0
 17 42  1  0  0  0  0
 18 19  1  0  0  0  0
 18 43  1  0  0  0  0
 18 44  1  0  0  0  0
 19 45  1  0  0  0  0
 20 21  2  0  0  0  0
 20 46  1  0  0  0  0
M  CHG  1  14   1
M  END
> <s_m_source_file>
AV-unprocessed.smi

> <i_m_source_file_index>
557

> <i_lp_mmshare_version>
43012

> <i_f3d_flags>
0

> <s_epik_input>
W0NIM11uMVtjSF1jKFtjSF1uMSlbQ0gyXVtDSDJdW05IXUMoPU8pW05IXVtDQEhdKFtDSDJdW0NIMl0yKVtDQEhdKE4yMylbQ0gyXVtDSDJdW0NIMl1bQ0gyXTM=

> <s_epik_cmdline>
J2VwaWtfcHl0aG9uJywgJy1waCcsICc3LjAnLCAnLXRuJywgJzgnLCAnLW1hJywgJzIwMCcsICctbWV0YWxfYmluZGluZycsICctaW1hZScsICc8aW5maWxlLm1hZT4nLCAnLW9tYWUnLCAnPG91dGZpbGUubWFlPic=

> <r_lp_tautomer_probability>
1

> <r_epik_Ionization_Penalty>
0.000956547

> <r_epik_Ionization_Penalty_Charging>
0.000435796

> <r_epik_Ionization_Penalty_Neutral>
0.000520752

> <r_epik_State_Penalty>
-0

> <r_epik_Charging_Adjusted_Penalty>
0.000435796

> <i_epik_Tot_Q>
1

> <i_epik_Tot_abs_Q>
1

> <r_epik_Metal_State_Penalty>
-0

> <b_epik_Metal_Only>
0

> <s_lp_Force_Field>
OPLS_2005

> <r_lp_Energy>
46.7552

> <b_lp_Chiralities_Consistent>
1

> <s_lp_Variant>
AV-unprocessed.smi:557-8

> <Gold.Version>
5.8.1

> <Gold.Id.Protein>
6NUR|6NUR_protein|mol2

> <Gold.PLP.Fitness>
46.2692

> <Gold.PLP.PLP>
-36.4943

> <Gold.PLP.part.hbond>
-2.0000

> <Gold.PLP.part.metal>
0.0000

> <Gold.PLP.part.buried>
1.0934

> <Gold.PLP.part.nonpolar>
-35.1830

> <Gold.PLP.part.repulsive>
0.4617

> <Gold.PLP.ligand.clash>
0.0000

> <Gold.PLP.ligand.torsion>
0.5556

> <Gold.PLP.Chemscore.Hbond>
2.6240

> <Gold.PLP.Chemscore.CHOScore>
1.0000

> <Gold.PLP.Chemscore.Metal>
0.0000

> <Gold.Chemscore.Hbonds>
donor molecule, donor type, donor heavy atom, donor atom, acceptor molecule, acceptor atom, score
      L1  H    14    47       P1  7948  2.00
      P1  H  8011  8017       L1     9  0.70
      L1  C    20    46       P1  8028  0.73

> <Gold.PLP.Chemscore.Internal.Correction>
0.0141

> <Gold.Rescore>
     Score         DG    S(hbond)    S(metal)    S(lipo)     H(rot)  DE(clash)    DE(int)     intcor
     15.68     -18.49       1.56        0.00     101.79       1.60       2.34       0.48       ----

> <Gold.Chemscore.Fitness>
15.6769

> <Gold.Chemscore.DG>
-18.4928

> <Gold.Chemscore.ZeroCoef>
-5.4800

> <Gold.Chemscore.Hbond>
1.5580

> <Gold.Chemscore.Metal>
0.0000

> <Gold.Chemscore.Lipo>
101.7920

> <Gold.Chemscore.Internal_Hbond>
0.0000

> <Gold.Chemscore.DEClash>
2.3399

> <Gold.Chemscore.DEInternal>
0.4760

> <Gold.Chemscore.Rot>
1.6018

> <Gold.Chemscore.Internal.Correction>
   9.000000E+99

> <Gold.Chemscore.Hbonds>
donor molecule, donor type, donor heavy atom, donor atom, acceptor molecule, acceptor atom, score
      L1  H    14    47       P1  7948  0.99
      P1  H  8011  8017       L1     9  0.65

> <Gold.Chemscore.Hbond.Weighted>
-5.2038

> <Gold.Chemscore.Metal.Weighted>
-0.0000

> <Gold.Chemscore.Lipo.Weighted>
-11.9097

> <Gold.Chemscore.Internal_Hbond.Weighted>
0.0000

> <Gold.Chemscore.DEClash.Weighted>
2.3399

> <Gold.Chemscore.DEInternal.Weighted>
0.4760

> <Gold.Chemscore.Rot.Weighted>
4.1006

> <Gold.Chemscore.Internal.Correction.Weighted>
   9.000000E+99

> <Gold.Protein.RotatedTorsions>
[ 6907 6896 6895 6894 ] final   10.37 input  -60.11 | X-H torsion
[ 7974 7965 7964 7962 ] final -106.44 input  175.53 | X-H torsion
[ 8008 7997 7996 7995 ] final  -60.66 input   59.86 | X-H torsion
[ 10167 10162 10161 10158 ] final   93.13 input  -65.29 | X-H torsion
[ 10718 10713 10712 10709 ] final  157.48 input   66.30 | X-H torsion
[ 10763 10752 10751 10750 ] final  173.76 input  -60.55 | X-H torsion
[ 11005 11000 10999 10996 ] final  -63.79 input  -57.11 | X-H torsion

> <Gold.Protein.ActiveResidues>
 VAL166  LYS551  ARG553  GLY616  TRP617  ASP618  TYR619  PRO620  LYS621  CYS622 
 ASP623  PHE694  ASN695  SER759  ASP760  ASP761  ALA762  ILE779  LEU786  VAL792 
 PHE793  MET794  SER795  GLU796  ALA797  LYS798  CYS799  TRP800  GLU811  SER814 

> <Gold.Protein.RotatedAtoms>
  151.7372  135.0862  160.0309 H   0  0  0  0  0  0  0  0  0  0  0  0  # atno 6907 bound_to 6896
  152.3503  133.6167  159.5948 H   0  0  0  0  0  0  0  0  0  0  0  0  # atno 6908 bound_to 6896
  150.7535  133.9501  159.3525 H   0  0  0  0  0  0  0  0  0  0  0  0  # atno 6909 bound_to 6896
  145.2178  140.9122  143.3277 H   0  0  0  0  0  0  0  0  0  0  0  0  # atno 7974 bound_to 7965
  154.4409  140.1034  156.6309 H   0  0  0  0  0  0  0  0  0  0  0  0  # atno 8008 bound_to 7997
  155.5606  140.3487  155.4472 H   0  0  0  0  0  0  0  0  0  0  0  0  # atno 8009 bound_to 7997
  156.0463  140.1293  157.0090 H   0  0  0  0  0  0  0  0  0  0  0  0  # atno 8010 bound_to 7997
  139.8209  144.6731  150.9520 H   0  0  0  0  0  0  0  0  0  0  0  0  # atno 10167 bound_to 10162
  157.1909  131.0654  151.2080 H   0  0  0  0  0  0  0  0  0  0  0  0  # atno 10718 bound_to 10713
  154.4445  135.2763  155.1824 H   0  0  0  0  0  0  0  0  0  0  0  0  # atno 10763 bound_to 10752
  154.3677  135.6115  153.5727 H   0  0  0  0  0  0  0  0  0  0  0  0  # atno 10764 bound_to 10752
  152.9843  135.5850  154.4778 H   0  0  0  0  0  0  0  0  0  0  0  0  # atno 10765 bound_to 10752
  141.1404  133.6656  156.5734 H   0  0  0  0  0  0  0  0  0  0  0  0  # atno 11005 bound_to 11000
  144.9794  139.3799  143.6269 LP  0  0  0  0  0  0  0  0  0  0  0  0  # atno 17320 bound_to 7965
  146.3383  139.8928  142.8806 LP  0  0  0  0  0  0  0  0  0  0  0  0  # atno 17321 bound_to 7965
  140.7813  143.4092  151.1020 LP  0  0  0  0  0  0  0  0  0  0  0  0  # atno 17342 bound_to 10162
  139.7753  143.8434  152.3128 LP  0  0  0  0  0  0  0  0  0  0  0  0  # atno 17343 bound_to 10162
  157.3861  130.7257  149.6664 LP  0  0  0  0  0  0  0  0  0  0  0  0  # atno 17370 bound_to 10713
  155.9712  130.4159  150.4204 LP  0  0  0  0  0  0  0  0  0  0  0  0  # atno 17371 bound_to 10713
  140.3895  134.7453  157.4712 LP  0  0  0  0  0  0  0  0  0  0  0  0  # atno 17394 bound_to 11000
  140.0577  134.6040  155.8786 LP  0  0  0  0  0  0  0  0  0  0  0  0  # atno 17395 bound_to 11000

$$$$
