AV-unprocessed.smi:73|AV-procd|sdf|762|dock5
  -GOLD-   2262017103D 1   1.00000     0.00000
 Structure written by MMmdl.
 35 36  0  0  0  0  0  0  0  0  2 V2000
  152.3808  144.2737  158.4597 C   0  0  0  0  0  0  0  0  0  0  0  0
  151.3528  143.4559  157.6616 C   0  0  0  0  0  0  0  0  0  0  0  0
  151.1114  142.0739  158.1244 N   0  0  0  0  0  0  0  0  0  0  0  0
  152.4015  141.3630  158.1789 C   0  0  0  0  0  0  0  0  0  0  0  0
  153.1226  141.5184  159.4809 C   0  0  0  0  0  0  0  0  0  0  0  0
  154.2981  140.9867  159.8259 N   0  0  0  0  0  0  0  0  0  0  0  0
  154.5369  141.4110  161.1142 N   0  0  0  0  0  0  0  0  0  0  0  0
  153.4886  142.1677  161.4477 C   0  0  0  0  0  0  0  0  0  0  0  0
  153.2570  142.8751  162.7388 C   0  0  0  0  0  0  0  0  0  0  0  0
  152.5633  142.2762  160.4592 O   0  0  0  0  0  0  0  0  0  0  0  0
  150.1621  141.3322  157.2623 C   0  0  1  0  0  0  0  0  0  0  0  0
  148.7136  141.8986  157.3052 C   0  0  0  0  0  0  0  0  0  0  0  0
  148.3080  142.2298  155.9307 N   0  3  0  0  0  0  0  0  0  0  0  0
  149.1240  141.4032  155.0436 C   0  0  0  0  0  0  0  0  0  0  0  0
  150.4757  141.3346  155.7466 C   0  0  2  0  0  0  0  0  0  0  0  0
  151.1488  140.1579  155.3468 O   0  0  0  0  0  0  0  0  0  0  0  0
  151.0371  142.2252  155.4655 H   0  0  0  0  0  0  0  0  0  0  0  0
  152.7002  145.1394  157.8791 H   0  0  0  0  0  0  0  0  0  0  0  0
  153.2711  143.6828  158.6772 H   0  0  0  0  0  0  0  0  0  0  0  0
  151.9895  144.6641  159.3956 H   0  0  0  0  0  0  0  0  0  0  0  0
  150.4108  144.0007  157.5872 H   0  0  0  0  0  0  0  0  0  0  0  0
  151.7429  143.4410  156.6441 H   0  0  0  0  0  0  0  0  0  0  0  0
  152.2795  140.2923  158.0298 H   0  0  0  0  0  0  0  0  0  0  0  0
  153.0504  141.7031  157.3702 H   0  0  0  0  0  0  0  0  0  0  0  0
  153.6663  142.2937  163.5654 H   0  0  0  0  0  0  0  0  0  0  0  0
  152.1891  143.0173  162.9071 H   0  0  0  0  0  0  0  0  0  0  0  0
  153.7430  143.8506  162.7205 H   0  0  0  0  0  0  0  0  0  0  0  0
  150.1139  140.2955  157.6016 H   0  0  0  0  0  0  0  0  0  0  0  0
  148.0299  141.1526  157.7121 H   0  0  0  0  0  0  0  0  0  0  0  0
  148.6125  142.8052  157.9018 H   0  0  0  0  0  0  0  0  0  0  0  0
  147.3204  142.0775  155.7836 H   0  0  0  0  0  0  0  0  0  0  0  0
  148.6647  140.4153  154.9781 H   0  0  0  0  0  0  0  0  0  0  0  0
  149.1858  141.8195  154.0377 H   0  0  0  0  0  0  0  0  0  0  0  0
  151.5592  139.7729  156.1067 H   0  0  0  0  0  0  0  0  0  0  0  0
  148.5369  143.1986  155.7586 H   0  0  0  0  0  0  0  0  0  0  0  0
  1  2  1  0  0  0  0
  1 18  1  0  0  0  0
  1 19  1  0  0  0  0
  1 20  1  0  0  0  0
  2  3  1  0  0  0  0
  2 21  1  0  0  0  0
  2 22  1  0  0  0  0
  3  4  1  0  0  0  0
  3 11  1  0  0  0  0
  4  5  1  0  0  0  0
  4 23  1  0  0  0  0
  4 24  1  0  0  0  0
  5 10  1  0  0  0  0
  5  6  2  0  0  0  0
  6  7  1  0  0  0  0
  7  8  2  0  0  0  0
  8  9  1  0  0  0  0
  8 10  1  0  0  0  0
  9 25  1  0  0  0  0
  9 26  1  0  0  0  0
  9 27  1  0  0  0  0
 11 15  1  0  0  0  0
 11 12  1  0  0  0  0
 11 28  1  0  0  0  0
 12 13  1  0  0  0  0
 12 29  1  0  0  0  0
 12 30  1  0  0  0  0
 13 14  1  0  0  0  0
 13 31  1  0  0  0  0
 13 35  1  0  0  0  0
 14 15  1  0  0  0  0
 14 32  1  0  0  0  0
 14 33  1  0  0  0  0
 15 17  1  0  0  0  0
 15 16  1  0  0  0  0
 16 34  1  0  0  0  0
M  CHG  1  13   1
M  END
> <s_m_source_file>
AV-unprocessed.smi

> <i_m_source_file_index>
73

> <i_lp_mmshare_version>
43012

> <i_f3d_flags>
0

> <s_epik_input>
W09IXVtDQEBIXTFbQ0gyXVtOSF1bQ0gyXVtDQEhdMU4oW0NIMl1bQ0gzXSlbQ0gyXWMybm5jKG8yKVtDSDNd

> <s_epik_cmdline>
J2VwaWtfcHl0aG9uJywgJy1waCcsICc3LjAnLCAnLXRuJywgJzgnLCAnLW1hJywgJzIwMCcsICctbWV0YWxfYmluZGluZycsICctaW1hZScsICc8aW5maWxlLm1hZT4nLCAnLW9tYWUnLCAnPG91dGZpbGUubWFlPic=

> <r_lp_tautomer_probability>
1

> <r_epik_Ionization_Penalty>
0.00160433

> <r_epik_Ionization_Penalty_Charging>
0.000122314

> <r_epik_Ionization_Penalty_Neutral>
0.00148202

> <r_epik_State_Penalty>
-0

> <r_epik_Charging_Adjusted_Penalty>
0.000122314

> <i_epik_Tot_Q>
1

> <i_epik_Tot_abs_Q>
1

> <r_epik_Metal_State_Penalty>
-0

> <b_epik_Metal_Only>
0

> <s_lp_Force_Field>
OPLS_2005

> <r_lp_Energy>
41.961

> <b_lp_Chiralities_Consistent>
1

> <s_lp_Variant>
AV-unprocessed.smi:73-4

> <Gold.Version>
5.8.1

> <Gold.Id.Protein>
6NUR|6NUR_protein|mol2

> <Gold.PLP.Fitness>
42.3215

> <Gold.PLP.PLP>
-34.2000

> <Gold.PLP.part.hbond>
-3.0000

> <Gold.PLP.part.metal>
0.0000

> <Gold.PLP.part.buried>
-6.4546

> <Gold.PLP.part.nonpolar>
-25.5260

> <Gold.PLP.part.repulsive>
0.1084

> <Gold.PLP.ligand.clash>
0.0000

> <Gold.PLP.ligand.torsion>
0.4530

> <Gold.PLP.Chemscore.Hbond>
3.0000

> <Gold.PLP.Chemscore.CHOScore>
0.0000

> <Gold.PLP.Chemscore.Metal>
0.0000

> <Gold.Chemscore.Hbonds>
donor molecule, donor type, donor heavy atom, donor atom, acceptor molecule, acceptor atom, score
      L1  H    13    35       P1  8028  2.00
      P1  H  7989  7998       L1    16  0.69

> <Gold.PLP.Chemscore.Internal.Correction>
0.0275

> <Gold.Rescore>
     Score         DG    S(hbond)    S(metal)    S(lipo)     H(rot)  DE(clash)    DE(int)     intcor
      9.10     -11.90       1.56        0.00      65.29       2.51       0.07       2.73       ----

> <Gold.Chemscore.Fitness>
9.1041

> <Gold.Chemscore.DG>
-11.9030

> <Gold.Chemscore.ZeroCoef>
-5.4800

> <Gold.Chemscore.Hbond>
1.5559

> <Gold.Chemscore.Metal>
0.0000

> <Gold.Chemscore.Lipo>
65.2949

> <Gold.Chemscore.Internal_Hbond>
0.0000

> <Gold.Chemscore.DEClash>
0.0660

> <Gold.Chemscore.DEInternal>
2.7329

> <Gold.Chemscore.Rot>
2.5051

> <Gold.Chemscore.Internal.Correction>
   9.000000E+99

> <Gold.Chemscore.Hbonds>
donor molecule, donor type, donor heavy atom, donor atom, acceptor molecule, acceptor atom, score
      L1  H    13    35       P1  8028  0.94
      P1  H  7989  7998       L1    16  0.07

> <Gold.Chemscore.Hbond.Weighted>
-5.1966

> <Gold.Chemscore.Metal.Weighted>
-0.0000

> <Gold.Chemscore.Lipo.Weighted>
-7.6395

> <Gold.Chemscore.Internal_Hbond.Weighted>
0.0000

> <Gold.Chemscore.DEClash.Weighted>
0.0660

> <Gold.Chemscore.DEInternal.Weighted>
2.7329

> <Gold.Chemscore.Rot.Weighted>
6.4131

> <Gold.Chemscore.Internal.Correction.Weighted>
   9.000000E+99

> <Gold.Protein.RotatedTorsions>
[ 6907 6896 6895 6894 ] final  153.59 input  -60.11 | X-H torsion
[ 7974 7965 7964 7962 ] final   -6.49 input  175.53 | X-H torsion
[ 8008 7997 7996 7995 ] final   43.04 input   59.86 | X-H torsion
[ 10167 10162 10161 10158 ] final  -78.96 input  -65.29 | X-H torsion
[ 10718 10713 10712 10709 ] final  143.78 input   66.30 | X-H torsion
[ 10763 10752 10751 10750 ] final  126.62 input  -60.55 | X-H torsion
[ 11005 11000 10999 10996 ] final  174.40 input  -57.11 | X-H torsion

> <Gold.Protein.ActiveResidues>
 VAL166  LYS551  ARG553  GLY616  TRP617  ASP618  TYR619  PRO620  LYS621  CYS622 
 ASP623  PHE694  ASN695  SER759  ASP760  ASP761  ALA762  ILE779  LEU786  VAL792 
 PHE793  MET794  SER795  GLU796  ALA797  LYS798  CYS799  TRP800  GLU811  SER814 

> <Gold.Protein.RotatedAtoms>
  152.0705  133.4104  159.4456 H   0  0  0  0  0  0  0  0  0  0  0  0  # atno 6907 bound_to 6896
  150.6863  134.3097  159.4750 H   0  0  0  0  0  0  0  0  0  0  0  0  # atno 6908 bound_to 6896
  152.0928  134.9395  160.0622 H   0  0  0  0  0  0  0  0  0  0  0  0  # atno 6909 bound_to 6896
  146.2330  140.2178  142.8336 H   0  0  0  0  0  0  0  0  0  0  0  0  # atno 7974 bound_to 7965
  155.2962  140.3382  155.4250 H   0  0  0  0  0  0  0  0  0  0  0  0  # atno 8008 bound_to 7997
  156.2023  140.1737  156.7913 H   0  0  0  0  0  0  0  0  0  0  0  0  # atno 8009 bound_to 7997
  154.5575  140.0693  156.8750 H   0  0  0  0  0  0  0  0  0  0  0  0  # atno 8010 bound_to 7997
  140.4636  143.2446  151.8312 H   0  0  0  0  0  0  0  0  0  0  0  0  # atno 10167 bound_to 10162
  157.3649  131.0970  151.0881 H   0  0  0  0  0  0  0  0  0  0  0  0  # atno 10718 bound_to 10713
  153.6963  135.3291  155.3214 H   0  0  0  0  0  0  0  0  0  0  0  0  # atno 10763 bound_to 10752
  154.8426  135.4443  154.1457 H   0  0  0  0  0  0  0  0  0  0  0  0  # atno 10764 bound_to 10752
  153.2512  135.6981  153.7755 H   0  0  0  0  0  0  0  0  0  0  0  0  # atno 10765 bound_to 10752
  140.3509  134.7196  157.4267 H   0  0  0  0  0  0  0  0  0  0  0  0  # atno 11005 bound_to 11000
  144.9656  140.8318  143.5487 LP  0  0  0  0  0  0  0  0  0  0  0  0  # atno 17320 bound_to 7965
  145.2154  139.2184  143.5121 LP  0  0  0  0  0  0  0  0  0  0  0  0  # atno 17321 bound_to 7965
  139.4809  144.4978  151.9101 LP  0  0  0  0  0  0  0  0  0  0  0  0  # atno 17342 bound_to 10162
  140.4063  144.2427  150.5890 LP  0  0  0  0  0  0  0  0  0  0  0  0  # atno 17343 bound_to 10162
  157.2007  130.6393  149.5737 LP  0  0  0  0  0  0  0  0  0  0  0  0  # atno 17370 bound_to 10713
  155.9744  130.4692  150.6386 LP  0  0  0  0  0  0  0  0  0  0  0  0  # atno 17371 bound_to 10713
  140.0704  134.5870  155.8648 LP  0  0  0  0  0  0  0  0  0  0  0  0  # atno 17394 bound_to 11000
  141.2012  133.6617  156.5940 LP  0  0  0  0  0  0  0  0  0  0  0  0  # atno 17395 bound_to 11000

$$$$
