AV-unprocessed.smi:3350|AV-procd|sdf|12941|dock3
  -GOLD-   2272019373D 1   1.00000     0.00000
 Structure written by MMmdl.
 41 42  0  0  0  0  0  0  0  0  1 V2000
  144.8809  134.8193  153.5739 C   0  0  0  0  0  0  0  0  0  0  0  0
  145.1935  136.0717  152.7438 C   0  0  2  0  0  0  0  0  0  0  0  0
  145.0060  135.8083  151.2343 C   0  0  0  0  0  0  0  0  0  0  0  0
  145.0484  134.3941  150.9022 N   0  0  0  0  0  0  0  0  0  0  0  0
  144.0585  133.6150  150.3413 C   0  0  0  0  0  0  0  0  0  0  0  0
  144.5653  132.3553  150.1974 C   0  0  0  0  0  0  0  0  0  0  0  0
  145.8878  132.4628  150.7109 C   0  0  0  0  0  0  0  0  0  0  0  0
  146.1737  133.6833  151.1338 N   0  0  0  0  0  0  0  0  0  0  0  0
  146.5614  136.5050  153.0267 N   0  0  0  0  0  0  0  0  0  0  0  0
  146.9032  137.6562  153.6237 C   0  0  0  0  0  0  0  0  0  0  0  0
  146.0951  138.4632  154.0839 O   0  0  0  0  0  0  0  0  0  0  0  0
  148.2311  137.8371  153.6256 N   0  0  0  0  0  0  0  0  0  0  0  0
  148.9212  139.0292  154.1119 C   0  0  1  0  0  0  0  0  0  0  0  0
  148.3104  139.4268  155.4645 C   0  0  0  0  0  0  0  0  0  0  0  0
  150.4384  138.7573  154.2132 C   0  0  2  0  0  0  0  0  0  0  0  0
  150.8151  137.5262  155.0423 C   0  0  0  0  0  0  0  0  0  0  0  0
  152.1969  137.8535  155.5918 C   0  0  0  0  0  0  0  0  0  0  0  0
  152.4005  139.3265  155.2372 C   0  0  0  0  0  0  0  0  0  0  0  0
  151.1018  139.7974  154.9165 O   0  0  0  0  0  0  0  0  0  0  0  0
  143.8569  134.4845  153.4061 H   0  0  0  0  0  0  0  0  0  0  0  0
  144.9908  135.0170  154.6407 H   0  0  0  0  0  0  0  0  0  0  0  0
  145.5471  133.9950  153.3163 H   0  0  0  0  0  0  0  0  0  0  0  0
  144.4873  136.8451  153.0507 H   0  0  0  0  0  0  0  0  0  0  0  0
  144.0609  136.2301  150.8871 H   0  0  0  0  0  0  0  0  0  0  0  0
  145.7941  136.3059  150.6676 H   0  0  0  0  0  0  0  0  0  0  0  0
  143.0905  134.0202  150.0862 H   0  0  0  0  0  0  0  0  0  0  0  0
  144.0686  131.4897  149.7855 H   0  0  0  0  0  0  0  0  0  0  0  0
  146.6444  131.6958  150.7861 H   0  0  0  0  0  0  0  0  0  0  0  0
  147.3032  135.9125  152.6843 H   0  0  0  0  0  0  0  0  0  0  0  0
  148.8070  137.1161  153.2166 H   0  0  0  0  0  0  0  0  0  0  0  0
  148.7534  139.8541  153.4168 H   0  0  0  0  0  0  0  0  0  0  0  0
  148.7508  140.3487  155.8447 H   0  0  0  0  0  0  0  0  0  0  0  0
  148.4654  138.6503  156.2142 H   0  0  0  0  0  0  0  0  0  0  0  0
  147.2367  139.5941  155.3753 H   0  0  0  0  0  0  0  0  0  0  0  0
  150.8763  138.6779  153.2159 H   0  0  0  0  0  0  0  0  0  0  0  0
  150.1174  137.3981  155.8710 H   0  0  0  0  0  0  0  0  0  0  0  0
  150.8046  136.6097  154.4517 H   0  0  0  0  0  0  0  0  0  0  0  0
  152.2230  137.7005  156.6711 H   0  0  0  0  0  0  0  0  0  0  0  0
  152.9740  137.2324  155.1454 H   0  0  0  0  0  0  0  0  0  0  0  0
  152.8422  139.9006  156.0518 H   0  0  0  0  0  0  0  0  0  0  0  0
  153.0432  139.4261  154.3614 H   0  0  0  0  0  0  0  0  0  0  0  0
  1  2  1  0  0  0  0
  1 20  1  0  0  0  0
  1 21  1  0  0  0  0
  1 22  1  0  0  0  0
  2  3  1  0  0  0  0
  2  9  1  0  0  0  0
  2 23  1  0  0  0  0
  3  4  1  0  0  0  0
  3 24  1  0  0  0  0
  3 25  1  0  0  0  0
  4  8  1  0  0  0  0
  4  5  1  0  0  0  0
  5  6  2  0  0  0  0
  5 26  1  0  0  0  0
  6  7  1  0  0  0  0
  6 27  1  0  0  0  0
  7  8  2  0  0  0  0
  7 28  1  0  0  0  0
  9 10  1  0  0  0  0
  9 29  1  0  0  0  0
 10 11  2  0  0  0  0
 10 12  1  0  0  0  0
 12 13  1  0  0  0  0
 12 30  1  0  0  0  0
 13 14  1  0  0  0  0
 13 15  1  0  0  0  0
 13 31  1  0  0  0  0
 14 32  1  0  0  0  0
 14 33  1  0  0  0  0
 14 34  1  0  0  0  0
 15 19  1  0  0  0  0
 15 16  1  0  0  0  0
 15 35  1  0  0  0  0
 16 17  1  0  0  0  0
 16 36  1  0  0  0  0
 16 37  1  0  0  0  0
 17 18  1  0  0  0  0
 17 38  1  0  0  0  0
 17 39  1  0  0  0  0
 18 19  1  0  0  0  0
 18 40  1  0  0  0  0
 18 41  1  0  0  0  0
M  END
> <s_m_source_file>
AV-unprocessed.smi

> <i_m_source_file_index>
3350

> <i_lp_mmshare_version>
43012

> <i_f3d_flags>
0

> <s_epik_input>
bjFbY0hdW2NIXVtjSF1uMVtDSDJdW0NAQEhdKFtDSDNdKVtOSF1DKD1PKVtOSF1bQ0BIXShbQ0gzXSlbQ0BASF0yW0NIMl1bQ0gyXVtDSDJdTzI=

> <s_epik_cmdline>
J2VwaWtfcHl0aG9uJywgJy1waCcsICc3LjAnLCAnLXRuJywgJzgnLCAnLW1hJywgJzIwMCcsICctbWV0YWxfYmluZGluZycsICctaW1hZScsICc8aW5maWxlLm1hZT4nLCAnLW9tYWUnLCAnPG91dGZpbGUubWFlPic=

> <r_lp_tautomer_probability>
1

> <r_epik_Ionization_Penalty>
6.42349e-05

> <r_epik_Ionization_Penalty_Charging>
0

> <r_epik_Ionization_Penalty_Neutral>
6.42349e-05

> <r_epik_State_Penalty>
-0

> <r_epik_Charging_Adjusted_Penalty>
0

> <i_epik_Tot_Q>
0

> <i_epik_Tot_abs_Q>
0

> <r_epik_Metal_State_Penalty>
-0

> <b_epik_Metal_Only>
0

> <s_lp_Force_Field>
OPLS_2005

> <r_lp_Energy>
14.9436

> <b_lp_Chiralities_Consistent>
1

> <s_lp_Variant>
AV-unprocessed.smi:3350-3

> <Gold.Version>
5.8.1

> <Gold.Id.Protein>
6NUR|6NUR_protein|mol2

> <Gold.PLP.Fitness>
41.8835

> <Gold.PLP.PLP>
-30.3612

> <Gold.PLP.part.hbond>
-2.7143

> <Gold.PLP.part.metal>
0.0000

> <Gold.PLP.part.buried>
-3.9040

> <Gold.PLP.part.nonpolar>
-24.7204

> <Gold.PLP.part.repulsive>
0.4126

> <Gold.PLP.ligand.clash>
0.0000

> <Gold.PLP.ligand.torsion>
0.8252

> <Gold.PLP.Chemscore.Hbond>
2.3720

> <Gold.PLP.Chemscore.CHOScore>
2.0000

> <Gold.PLP.Chemscore.Metal>
0.0000

> <Gold.Chemscore.Hbonds>
donor molecule, donor type, donor heavy atom, donor atom, acceptor molecule, acceptor atom, score
      L1  H     9    29       P1  7948  0.70
      L1  H    12    30       P1  7948  0.83
      P1  H  7989  7998       L1    19  0.80
      L1  C     5    26       P1 10186  1.00
      L1  C     7    28       P1 10747  1.00

> <Gold.PLP.Chemscore.Internal.Correction>
0.0566

> <Gold.Rescore>
     Score         DG    S(hbond)    S(metal)    S(lipo)     H(rot)  DE(clash)    DE(int)     intcor
     13.50     -15.83       1.83        0.00      76.03       1.82       0.10       2.23       ----

> <Gold.Chemscore.Fitness>
13.4968

> <Gold.Chemscore.DG>
-15.8271

> <Gold.Chemscore.ZeroCoef>
-5.4800

> <Gold.Chemscore.Hbond>
1.8293

> <Gold.Chemscore.Metal>
0.0000

> <Gold.Chemscore.Lipo>
76.0303

> <Gold.Chemscore.Internal_Hbond>
0.0000

> <Gold.Chemscore.DEClash>
0.1037

> <Gold.Chemscore.DEInternal>
2.2266

> <Gold.Chemscore.Rot>
1.8197

> <Gold.Chemscore.Internal.Correction>
   9.000000E+99

> <Gold.Chemscore.Hbonds>
donor molecule, donor type, donor heavy atom, donor atom, acceptor molecule, acceptor atom, score
      L1  H     9    29       P1  7948  0.70
      L1  H    12    30       P1  7948  0.82
      P1  H  7989  7998       L1    19  0.03

> <Gold.Chemscore.Hbond.Weighted>
-6.1099

> <Gold.Chemscore.Metal.Weighted>
-0.0000

> <Gold.Chemscore.Lipo.Weighted>
-8.8955

> <Gold.Chemscore.Internal_Hbond.Weighted>
0.0000

> <Gold.Chemscore.DEClash.Weighted>
0.1037

> <Gold.Chemscore.DEInternal.Weighted>
2.2266

> <Gold.Chemscore.Rot.Weighted>
4.6583

> <Gold.Chemscore.Internal.Correction.Weighted>
   9.000000E+99

> <Gold.Protein.RotatedTorsions>
[ 6907 6896 6895 6894 ] final  -52.73 input  -60.11 | X-H torsion
[ 7974 7965 7964 7962 ] final   55.52 input  175.53 | X-H torsion
[ 8008 7997 7996 7995 ] final  137.30 input   59.86 | X-H torsion
[ 10167 10162 10161 10158 ] final  140.98 input  -65.29 | X-H torsion
[ 10718 10713 10712 10709 ] final   99.85 input   66.30 | X-H torsion
[ 10763 10752 10751 10750 ] final  155.55 input  -60.55 | X-H torsion
[ 11005 11000 10999 10996 ] final  123.56 input  -57.11 | X-H torsion

> <Gold.Protein.ActiveResidues>
 VAL166  LYS551  ARG553  GLY616  TRP617  ASP618  TYR619  PRO620  LYS621  CYS622 
 ASP623  PHE694  ASN695  SER759  ASP760  ASP761  ALA762  ILE779  LEU786  VAL792 
 PHE793  MET794  SER795  GLU796  ALA797  LYS798  CYS799  TRP800  GLU811  SER814 

> <Gold.Protein.RotatedAtoms>
  150.8491  134.7810  159.6994 H   0  0  0  0  0  0  0  0  0  0  0  0  # atno 6907 bound_to 6896
  152.4561  134.5286  159.9814 H   0  0  0  0  0  0  0  0  0  0  0  0  # atno 6908 bound_to 6896
  151.5410  133.3395  159.2971 H   0  0  0  0  0  0  0  0  0  0  0  0  # atno 6909 bound_to 6896
  145.9495  139.3959  143.0314 H   0  0  0  0  0  0  0  0  0  0  0  0  # atno 7974 bound_to 7965
  156.3002  140.2423  156.3887 H   0  0  0  0  0  0  0  0  0  0  0  0  # atno 8008 bound_to 7997
  154.8634  140.0419  157.1699 H   0  0  0  0  0  0  0  0  0  0  0  0  # atno 8009 bound_to 7997
  154.8872  140.2958  155.5395 H   0  0  0  0  0  0  0  0  0  0  0  0  # atno 8010 bound_to 7997
  139.5033  144.6200  151.6073 H   0  0  0  0  0  0  0  0  0  0  0  0  # atno 10167 bound_to 10162
  157.6867  131.0681  150.5011 H   0  0  0  0  0  0  0  0  0  0  0  0  # atno 10718 bound_to 10713
  154.1701  135.2805  155.3083 H   0  0  0  0  0  0  0  0  0  0  0  0  # atno 10763 bound_to 10752
  154.6081  135.5507  153.7448 H   0  0  0  0  0  0  0  0  0  0  0  0  # atno 10764 bound_to 10752
  153.0167  135.6408  154.1842 H   0  0  0  0  0  0  0  0  0  0  0  0  # atno 10765 bound_to 10752
  139.9318  134.9641  156.8278 H   0  0  0  0  0  0  0  0  0  0  0  0  # atno 11005 bound_to 11000
  145.8190  140.9688  143.0908 LP  0  0  0  0  0  0  0  0  0  0  0  0  # atno 17320 bound_to 7965
  144.6793  140.0018  143.7484 LP  0  0  0  0  0  0  0  0  0  0  0  0  # atno 17321 bound_to 7965
  140.5900  143.9797  150.6318 LP  0  0  0  0  0  0  0  0  0  0  0  0  # atno 17342 bound_to 10162
  140.2974  143.3283  152.1004 LP  0  0  0  0  0  0  0  0  0  0  0  0  # atno 17343 bound_to 10162
  156.5332  130.4190  149.6191 LP  0  0  0  0  0  0  0  0  0  0  0  0  # atno 17370 bound_to 10713
  156.3050  130.7198  151.2078 LP  0  0  0  0  0  0  0  0  0  0  0  0  # atno 17371 bound_to 10713
  140.6181  134.0020  155.7606 LP  0  0  0  0  0  0  0  0  0  0  0  0  # atno 17394 bound_to 11000
  141.0911  133.9915  157.3235 LP  0  0  0  0  0  0  0  0  0  0  0  0  # atno 17395 bound_to 11000

$$$$
