AV-unprocessed.smi:1413|AV-procd|sdf|5748|dock3
  -GOLD-   22720 5383D 1   1.00000     0.00000
 Structure written by MMmdl.
 53 55  0  0  0  0  0  0  0  0  1 V2000
  153.5012  141.4506  160.1668 C   0  0  0  0  0  0  0  0  0  0  0  0
  152.3453  142.0362  159.3490 C   0  0  2  0  0  0  0  0  0  0  0  0
  151.9456  141.1157  158.1821 C   0  0  0  0  0  0  0  0  0  0  0  0
  150.9305  141.7574  157.3531 N   0  0  0  0  0  0  0  0  0  0  0  0
  150.2484  140.9073  156.4555 C   0  0  0  0  0  0  0  0  0  0  0  0
  148.9707  140.4000  156.7877 C   0  0  0  0  0  0  0  0  0  0  0  0
  148.3147  139.5466  155.8811 C   0  0  0  0  0  0  0  0  0  0  0  0
  148.9404  139.2164  154.6632 C   0  0  0  0  0  0  0  0  0  0  0  0
  148.2392  138.3488  153.7802 N   0  0  0  0  0  0  0  0  0  0  0  0
  146.9286  138.3040  153.4837 C   0  0  0  0  0  0  0  0  0  0  0  0
  146.0587  139.0310  153.9608 O   0  0  0  0  0  0  0  0  0  0  0  0
  146.6758  137.3472  152.5796 N   0  0  0  0  0  0  0  0  0  0  0  0
  145.3618  137.0291  152.0252 C   0  0  2  0  0  0  0  0  0  0  0  0
  144.3540  136.8236  153.1677 C   0  0  0  0  0  0  0  0  0  0  0  0
  145.4643  135.7888  151.1164 C   0  0  2  0  0  0  0  0  0  0  0  0
  144.1392  135.3462  150.4898 C   0  0  0  0  0  0  0  0  0  0  0  0
  144.3945  133.8791  150.2345 C   0  0  0  0  0  0  0  0  0  0  0  0
  145.1943  133.4873  151.4720 C   0  0  0  0  0  0  0  0  0  0  0  0
  145.9096  134.6568  151.8618 O   0  0  0  0  0  0  0  0  0  0  0  0
  150.2138  139.7819  154.4111 C   0  0  0  0  0  0  0  0  0  0  0  0
  150.8460  140.6007  155.2784 N   0  0  0  0  0  0  0  0  0  0  0  0
  151.3316  143.0799  156.8769 C   0  0  0  0  0  0  0  0  0  0  0  0
  151.7831  143.9782  158.0456 C   0  0  1  0  0  0  0  0  0  0  0  0
  150.6158  144.5149  158.8934 C   0  0  0  0  0  0  0  0  0  0  0  0
  152.7612  143.3027  158.8395 O   0  0  0  0  0  0  0  0  0  0  0  0
  153.2312  140.4823  160.5893 H   0  0  0  0  0  0  0  0  0  0  0  0
  153.7677  142.1109  160.9924 H   0  0  0  0  0  0  0  0  0  0  0  0
  154.3903  141.3110  159.5509 H   0  0  0  0  0  0  0  0  0  0  0  0
  151.4943  142.1698  160.0172 H   0  0  0  0  0  0  0  0  0  0  0  0
  152.8152  140.8971  157.5605 H   0  0  0  0  0  0  0  0  0  0  0  0
  151.5986  140.1644  158.5826 H   0  0  0  0  0  0  0  0  0  0  0  0
  148.4841  140.6640  157.7148 H   0  0  0  0  0  0  0  0  0  0  0  0
  147.3382  139.1521  156.1227 H   0  0  0  0  0  0  0  0  0  0  0  0
  148.8183  137.6831  153.2901 H   0  0  0  0  0  0  0  0  0  0  0  0
  147.4523  136.7972  152.2424 H   0  0  0  0  0  0  0  0  0  0  0  0
  145.0196  137.8637  151.4102 H   0  0  0  0  0  0  0  0  0  0  0  0
  143.3586  136.6055  152.7805 H   0  0  0  0  0  0  0  0  0  0  0  0
  144.2735  137.7169  153.7880 H   0  0  0  0  0  0  0  0  0  0  0  0
  144.6483  135.9950  153.8126 H   0  0  0  0  0  0  0  0  0  0  0  0
  146.1892  135.9646  150.3197 H   0  0  0  0  0  0  0  0  0  0  0  0
  143.3190  135.4627  151.1999 H   0  0  0  0  0  0  0  0  0  0  0  0
  143.8887  135.8991  149.5841 H   0  0  0  0  0  0  0  0  0  0  0  0
  143.4806  133.2969  150.1146 H   0  0  0  0  0  0  0  0  0  0  0  0
  145.0020  133.7547  149.3370 H   0  0  0  0  0  0  0  0  0  0  0  0
  144.5239  133.2062  152.2851 H   0  0  0  0  0  0  0  0  0  0  0  0
  145.8683  132.6513  151.2840 H   0  0  0  0  0  0  0  0  0  0  0  0
  150.7628  139.5978  153.5026 H   0  0  0  0  0  0  0  0  0  0  0  0
  152.1531  142.9618  156.1688 H   0  0  0  0  0  0  0  0  0  0  0  0
  150.5123  143.5612  156.3412 H   0  0  0  0  0  0  0  0  0  0  0  0
  152.2855  144.8468  157.6192 H   0  0  0  0  0  0  0  0  0  0  0  0
  149.9562  145.1385  158.2898 H   0  0  0  0  0  0  0  0  0  0  0  0
  150.9834  145.1261  159.7179 H   0  0  0  0  0  0  0  0  0  0  0  0
  150.0069  143.7151  159.3138 H   0  0  0  0  0  0  0  0  0  0  0  0
  1  2  1  0  0  0  0
  1 26  1  0  0  0  0
  1 27  1  0  0  0  0
  1 28  1  0  0  0  0
  2 25  1  0  0  0  0
  2  3  1  0  0  0  0
  2 29  1  0  0  0  0
  3  4  1  0  0  0  0
  3 30  1  0  0  0  0
  3 31  1  0  0  0  0
  4  5  1  0  0  0  0
  4 22  1  0  0  0  0
  5 21  1  0  0  0  0
  5  6  2  0  0  0  0
  6  7  1  0  0  0  0
  6 32  1  0  0  0  0
  7  8  2  0  0  0  0
  7 33  1  0  0  0  0
  8  9  1  0  0  0  0
  8 20  1  0  0  0  0
  9 10  1  0  0  0  0
  9 34  1  0  0  0  0
 10 11  2  0  0  0  0
 10 12  1  0  0  0  0
 12 13  1  0  0  0  0
 12 35  1  0  0  0  0
 13 14  1  0  0  0  0
 13 15  1  0  0  0  0
 13 36  1  0  0  0  0
 14 37  1  0  0  0  0
 14 38  1  0  0  0  0
 14 39  1  0  0  0  0
 15 19  1  0  0  0  0
 15 16  1  0  0  0  0
 15 40  1  0  0  0  0
 16 17  1  0  0  0  0
 16 41  1  0  0  0  0
 16 42  1  0  0  0  0
 17 18  1  0  0  0  0
 17 43  1  0  0  0  0
 17 44  1  0  0  0  0
 18 19  1  0  0  0  0
 18 45  1  0  0  0  0
 18 46  1  0  0  0  0
 20 21  2  0  0  0  0
 20 47  1  0  0  0  0
 22 23  1  0  0  0  0
 22 48  1  0  0  0  0
 22 49  1  0  0  0  0
 23 24  1  0  0  0  0
 23 25  1  0  0  0  0
 23 50  1  0  0  0  0
 24 51  1  0  0  0  0
 24 52  1  0  0  0  0
 24 53  1  0  0  0  0
M  END
> <s_m_source_file>
AV-unprocessed.smi

> <i_m_source_file_index>
1413

> <i_lp_mmshare_version>
43012

> <i_f3d_flags>
0

> <s_epik_input>
W0NIM11bQ0BASF0xW0NIMl1OKFtDSDJdW0NASF0oTzEpW0NIM10pYzJbY0hdW2NIXWMoW2NIXW4yKVtOSF1DKD1PKVtOSF1bQ0BIXShbQ0gzXSlbQ0BASF0zW0NIMl1bQ0gyXVtDSDJdTzM=

> <s_epik_cmdline>
J2VwaWtfcHl0aG9uJywgJy1waCcsICc3LjAnLCAnLXRuJywgJzgnLCAnLW1hJywgJzIwMCcsICctbWV0YWxfYmluZGluZycsICctaW1hZScsICc8aW5maWxlLm1hZT4nLCAnLW9tYWUnLCAnPG91dGZpbGUubWFlPic=

> <r_lp_tautomer_probability>
1

> <r_epik_Ionization_Penalty>
0.00271172

> <r_epik_Ionization_Penalty_Charging>
0

> <r_epik_Ionization_Penalty_Neutral>
0.00271172

> <r_epik_State_Penalty>
0.00186503

> <r_epik_Charging_Adjusted_Penalty>
0.00186503

> <i_epik_Tot_Q>
0

> <i_epik_Tot_abs_Q>
0

> <r_epik_Metal_State_Penalty>
-0

> <b_epik_Metal_Only>
0

> <s_lp_Force_Field>
OPLS_2005

> <r_lp_Energy>
36.1069

> <b_lp_Chiralities_Consistent>
1

> <s_lp_Variant>
AV-unprocessed.smi:1413-1

> <Gold.Version>
5.8.1

> <Gold.Id.Protein>
6NUR|6NUR_protein|mol2

> <Gold.PLP.Fitness>
47.6028

> <Gold.PLP.PLP>
-40.3628

> <Gold.PLP.part.hbond>
-3.0000

> <Gold.PLP.part.metal>
0.0000

> <Gold.PLP.part.buried>
-4.5915

> <Gold.PLP.part.nonpolar>
-34.1874

> <Gold.PLP.part.repulsive>
0.4350

> <Gold.PLP.ligand.clash>
0.0000

> <Gold.PLP.ligand.torsion>
0.6649

> <Gold.PLP.Chemscore.Hbond>
1.9920

> <Gold.PLP.Chemscore.CHOScore>
0.7472

> <Gold.PLP.Chemscore.Metal>
0.0000

> <Gold.Chemscore.Hbonds>
donor molecule, donor type, donor heavy atom, donor atom, acceptor molecule, acceptor atom, score
      L1  H     9    34       P1  7948  0.98
      L1  H    12    35       P1  7948  1.00
      L1  C    20    47       P1  7957  0.60

> <Gold.PLP.Chemscore.Internal.Correction>
0.3522

> <Gold.Rescore>
     Score         DG    S(hbond)    S(metal)    S(lipo)     H(rot)  DE(clash)    DE(int)     intcor
     17.93     -21.38       1.93        0.00     110.20       1.35       0.50       2.94       ----

> <Gold.Chemscore.Fitness>
17.9344

> <Gold.Chemscore.DG>
-21.3750

> <Gold.Chemscore.ZeroCoef>
-5.4800

> <Gold.Chemscore.Hbond>
1.9313

> <Gold.Chemscore.Metal>
0.0000

> <Gold.Chemscore.Lipo>
110.1965

> <Gold.Chemscore.Internal_Hbond>
0.0000

> <Gold.Chemscore.DEClash>
0.5025

> <Gold.Chemscore.DEInternal>
2.9382

> <Gold.Chemscore.Rot>
1.3471

> <Gold.Chemscore.Internal.Correction>
   9.000000E+99

> <Gold.Chemscore.Hbonds>
donor molecule, donor type, donor heavy atom, donor atom, acceptor molecule, acceptor atom, score
      L1  H     9    34       P1  7948  0.87
      L1  H    12    35       P1  7948  0.99

> <Gold.Chemscore.Hbond.Weighted>
-6.4505

> <Gold.Chemscore.Metal.Weighted>
-0.0000

> <Gold.Chemscore.Lipo.Weighted>
-12.8930

> <Gold.Chemscore.Internal_Hbond.Weighted>
0.0000

> <Gold.Chemscore.DEClash.Weighted>
0.5025

> <Gold.Chemscore.DEInternal.Weighted>
2.9382

> <Gold.Chemscore.Rot.Weighted>
3.4485

> <Gold.Chemscore.Internal.Correction.Weighted>
   9.000000E+99

> <Gold.Protein.RotatedTorsions>
[ 6907 6896 6895 6894 ] final  -50.87 input  -60.11 | X-H torsion
[ 7974 7965 7964 7962 ] final -115.47 input  175.53 | X-H torsion
[ 8008 7997 7996 7995 ] final  167.31 input   59.86 | X-H torsion
[ 10167 10162 10161 10158 ] final  -73.64 input  -65.29 | X-H torsion
[ 10718 10713 10712 10709 ] final  -44.55 input   66.30 | X-H torsion
[ 10763 10752 10751 10750 ] final  109.26 input  -60.55 | X-H torsion
[ 11005 11000 10999 10996 ] final  135.40 input  -57.11 | X-H torsion

> <Gold.Protein.ActiveResidues>
 VAL166  LYS551  ARG553  GLY616  TRP617  ASP618  TYR619  PRO620  LYS621  CYS622 
 ASP623  PHE694  ASN695  SER759  ASP760  ASP761  ALA762  ILE779  LEU786  VAL792 
 PHE793  MET794  SER795  GLU796  ALA797  LYS798  CYS799  TRP800  GLU811  SER814 

> <Gold.Protein.RotatedAtoms>
  150.8666  134.8030  159.7122 H   0  0  0  0  0  0  0  0  0  0  0  0  # atno 6907 bound_to 6896
  152.4685  134.5014  159.9736 H   0  0  0  0  0  0  0  0  0  0  0  0  # atno 6908 bound_to 6896
  151.5109  133.3446  159.2920 H   0  0  0  0  0  0  0  0  0  0  0  0  # atno 6909 bound_to 6896
  145.1080  140.8594  143.3887 H   0  0  0  0  0  0  0  0  0  0  0  0  # atno 7974 bound_to 7965
  156.1644  140.1620  156.8556 H   0  0  0  0  0  0  0  0  0  0  0  0  # atno 8008 bound_to 7997
  154.5193  140.0782  156.8176 H   0  0  0  0  0  0  0  0  0  0  0  0  # atno 8009 bound_to 7997
  155.3641  140.3397  155.4244 H   0  0  0  0  0  0  0  0  0  0  0  0  # atno 8010 bound_to 7997
  140.5094  143.2347  151.7619 H   0  0  0  0  0  0  0  0  0  0  0  0  # atno 10167 bound_to 10162
  156.2375  130.4177  149.8800 H   0  0  0  0  0  0  0  0  0  0  0  0  # atno 10718 bound_to 10713
  153.4322  135.3786  155.2177 H   0  0  0  0  0  0  0  0  0  0  0  0  # atno 10763 bound_to 10752
  154.8750  135.3843  154.4254 H   0  0  0  0  0  0  0  0  0  0  0  0  # atno 10764 bound_to 10752
  153.4788  135.7088  153.6013 H   0  0  0  0  0  0  0  0  0  0  0  0  # atno 10765 bound_to 10752
  139.9977  134.9491  157.0001 H   0  0  0  0  0  0  0  0  0  0  0  0  # atno 11005 bound_to 11000
  145.0879  139.2911  143.5750 LP  0  0  0  0  0  0  0  0  0  0  0  0  # atno 17320 bound_to 7965
  146.3527  140.0407  142.8643 LP  0  0  0  0  0  0  0  0  0  0  0  0  # atno 17321 bound_to 7965
  139.4892  144.4412  151.9762 LP  0  0  0  0  0  0  0  0  0  0  0  0  # atno 17342 bound_to 10162
  140.3504  144.3096  150.5950 LP  0  0  0  0  0  0  0  0  0  0  0  0  # atno 17343 bound_to 10162
  156.6394  130.8698  151.3511 LP  0  0  0  0  0  0  0  0  0  0  0  0  # atno 17370 bound_to 10713
  157.7160  130.9498  150.1259 LP  0  0  0  0  0  0  0  0  0  0  0  0  # atno 17371 bound_to 10713
  140.4787  134.1312  155.7213 LP  0  0  0  0  0  0  0  0  0  0  0  0  # atno 17394 bound_to 11000
  141.1617  133.8780  157.1828 LP  0  0  0  0  0  0  0  0  0  0  0  0  # atno 17395 bound_to 11000

$$$$
