AV-unprocessed.smi:1239|AV-procd|sdf|5194|dock1
  -GOLD-   22720 4273D 1   1.00000     0.00000
 Structure written by MMmdl.
 48 49  0  0  0  0  0  0  0  0  4 V2000
  149.9287  136.3784  156.7523 C   0  0  0  0  0  0  0  0  0  0  0  0
  149.6812  136.4497  155.2245 C   0  0  1  0  0  0  0  0  0  0  0  0
  150.8133  137.1492  154.4228 C   0  0  0  0  0  0  0  0  0  0  0  0
  152.0590  137.2385  155.1927 N   0  5  0  0  0  0  0  0  0  0  0  0
  152.4755  138.3334  155.8844 C   0  0  0  0  0  0  0  0  0  0  0  0
  153.6233  138.5855  156.2683 O   0  0  0  0  0  0  0  0  0  0  0  0
  151.4586  139.1609  156.1830 N   0  0  0  0  0  0  0  0  0  0  0  0
  151.4822  140.4143  156.8527 C   0  0  0  0  0  0  0  0  0  0  0  0
  152.3284  140.5437  157.9729 C   0  0  0  0  0  0  0  0  0  0  0  0
  152.3717  141.7607  158.6835 C   0  0  0  0  0  0  0  0  0  0  0  0
  151.5556  142.8443  158.2754 C   0  0  0  0  0  0  0  0  0  0  0  0
  151.5410  144.0926  158.9347 N   0  0  0  0  0  0  0  0  0  0  0  0
  152.2844  144.2625  160.1784 C   0  0  0  0  0  0  0  0  0  0  0  0
  150.9008  145.2374  158.3004 C   0  0  0  0  0  0  0  0  0  0  0  0
  150.7483  142.6670  157.2011 N   0  3  0  0  0  0  0  0  0  0  0  0
  150.6759  141.5196  156.4926 C   0  0  0  0  0  0  0  0  0  0  0  0
  149.2985  135.1456  154.5951 N   0  3  0  0  0  0  0  0  0  0  0  0
  150.1888  133.9836  154.8606 C   0  0  0  0  0  0  0  0  0  0  0  0
  149.7717  132.7959  153.9804 C   0  0  0  0  0  0  0  0  0  0  0  0
  148.4150  132.4638  154.2496 O   0  0  0  0  0  0  0  0  0  0  0  0
  147.5319  133.5369  153.9447 C   0  0  0  0  0  0  0  0  0  0  0  0
  147.8807  134.7643  154.8040 C   0  0  0  0  0  0  0  0  0  0  0  0
  150.0795  137.3702  157.1825 H   0  0  0  0  0  0  0  0  0  0  0  0
  150.8011  135.7773  157.0139 H   0  0  0  0  0  0  0  0  0  0  0  0
  149.0669  135.9482  157.2634 H   0  0  0  0  0  0  0  0  0  0  0  0
  148.8253  137.1170  155.1141 H   0  0  0  0  0  0  0  0  0  0  0  0
  150.9537  136.6150  153.4817 H   0  0  0  0  0  0  0  0  0  0  0  0
  150.4687  138.1414  154.1315 H   0  0  0  0  0  0  0  0  0  0  0  0
  150.5427  138.8271  155.9197 H   0  0  0  0  0  0  0  0  0  0  0  0
  152.9477  139.7159  158.2869 H   0  0  0  0  0  0  0  0  0  0  0  0
  153.0322  141.8406  159.5334 H   0  0  0  0  0  0  0  0  0  0  0  0
  153.3481  144.0866  160.0147 H   0  0  0  0  0  0  0  0  0  0  0  0
  151.9293  143.5638  160.9367 H   0  0  0  0  0  0  0  0  0  0  0  0
  152.1688  145.2710  160.5759 H   0  0  0  0  0  0  0  0  0  0  0  0
  149.8379  145.0475  158.1483 H   0  0  0  0  0  0  0  0  0  0  0  0
  151.3608  145.4462  157.3339 H   0  0  0  0  0  0  0  0  0  0  0  0
  150.9934  146.1334  158.9143 H   0  0  0  0  0  0  0  0  0  0  0  0
  149.9660  141.5330  155.6795 H   0  0  0  0  0  0  0  0  0  0  0  0
  151.2268  134.2410  154.6503 H   0  0  0  0  0  0  0  0  0  0  0  0
  150.1322  133.6947  155.9108 H   0  0  0  0  0  0  0  0  0  0  0  0
  149.9027  133.0298  152.9224 H   0  0  0  0  0  0  0  0  0  0  0  0
  150.3975  131.9298  154.1961 H   0  0  0  0  0  0  0  0  0  0  0  0
  147.5913  133.7787  152.8823 H   0  0  0  0  0  0  0  0  0  0  0  0
  146.5082  133.2190  154.1422 H   0  0  0  0  0  0  0  0  0  0  0  0
  147.7097  134.5525  155.8605 H   0  0  0  0  0  0  0  0  0  0  0  0
  147.2260  135.5921  154.5284 H   0  0  0  0  0  0  0  0  0  0  0  0
  150.1540  143.4442  156.9126 H   0  0  0  0  0  0  0  0  0  0  0  0
  149.3811  135.3237  153.6033 H   0  0  0  0  0  0  0  0  0  0  0  0
  1  2  1  0  0  0  0
  1 23  1  0  0  0  0
  1 24  1  0  0  0  0
  1 25  1  0  0  0  0
  2  3  1  0  0  0  0
  2 17  1  0  0  0  0
  2 26  1  0  0  0  0
  3  4  1  0  0  0  0
  3 27  1  0  0  0  0
  3 28  1  0  0  0  0
  4  5  1  0  0  0  0
  5  6  2  0  0  0  0
  5  7  1  0  0  0  0
  7  8  1  0  0  0  0
  7 29  1  0  0  0  0
  8 16  1  0  0  0  0
  8  9  2  0  0  0  0
  9 10  1  0  0  0  0
  9 30  1  0  0  0  0
 10 11  2  0  0  0  0
 10 31  1  0  0  0  0
 11 12  1  0  0  0  0
 11 15  1  0  0  0  0
 12 13  1  0  0  0  0
 12 14  1  0  0  0  0
 13 32  1  0  0  0  0
 13 33  1  0  0  0  0
 13 34  1  0  0  0  0
 14 35  1  0  0  0  0
 14 36  1  0  0  0  0
 14 37  1  0  0  0  0
 15 16  2  0  0  0  0
 15 47  1  0  0  0  0
 16 38  1  0  0  0  0
 17 22  1  0  0  0  0
 17 18  1  0  0  0  0
 17 48  1  0  0  0  0
 18 19  1  0  0  0  0
 18 39  1  0  0  0  0
 18 40  1  0  0  0  0
 19 20  1  0  0  0  0
 19 41  1  0  0  0  0
 19 42  1  0  0  0  0
 20 21  1  0  0  0  0
 21 22  1  0  0  0  0
 21 43  1  0  0  0  0
 21 44  1  0  0  0  0
 22 45  1  0  0  0  0
 22 46  1  0  0  0  0
M  CHG  1   4  -1
M  CHG  1  15   1
M  CHG  1  17   1
M  END
> <s_m_source_file>
AV-unprocessed.smi

> <i_m_source_file_index>
1239

> <i_lp_mmshare_version>
43012

> <i_f3d_flags>
0

> <s_epik_input>
W0NIMl0xW0NIMl1PW0NIMl1bQ0gyXU4xW0NASF0oW0NIM10pW0NIMl1bTkhdQyg9TylbTkhdYzJbY0hdW2NIXWMoTihbQ0gzXSlbQ0gzXSluW2NIXTI=

> <s_epik_cmdline>
J2VwaWtfcHl0aG9uJywgJy1waCcsICc3LjAnLCAnLXRuJywgJzgnLCAnLW1hJywgJzIwMCcsICctbWV0YWxfYmluZGluZycsICctaW1hZScsICc8aW5maWxlLm1hZT4nLCAnLW9tYWUnLCAnPG91dGZpbGUubWFlPic=

> <r_lp_tautomer_probability>
0.999994

> <r_epik_Ionization_Penalty>
7.43905

> <r_epik_Ionization_Penalty_Charging>
7.43905

> <r_epik_Ionization_Penalty_Neutral>
3.43851e-06

> <r_epik_State_Penalty>
7.63789

> <r_epik_Charging_Adjusted_Penalty>
15.0769

> <i_epik_Tot_Q>
1

> <i_epik_Tot_abs_Q>
3

> <r_epik_Metal_State_Penalty>
3.83826

> <b_epik_Metal_Only>
1

> <s_lp_Force_Field>
OPLS_2005

> <r_lp_Energy>
25.3923

> <b_lp_Chiralities_Consistent>
1

> <s_lp_Variant>
AV-unprocessed.smi:1239-10

> <Gold.Version>
5.8.1

> <Gold.Id.Protein>
6NUR|6NUR_protein|mol2

> <Gold.PLP.Fitness>
51.2394

> <Gold.PLP.PLP>
-34.7530

> <Gold.PLP.part.hbond>
-3.7917

> <Gold.PLP.part.metal>
0.0000

> <Gold.PLP.part.buried>
-4.1043

> <Gold.PLP.part.nonpolar>
-28.2785

> <Gold.PLP.part.repulsive>
0.2599

> <Gold.PLP.ligand.clash>
0.0048

> <Gold.PLP.ligand.torsion>
1.6379

> <Gold.PLP.Chemscore.Hbond>
6.3930

> <Gold.PLP.Chemscore.CHOScore>
0.0000

> <Gold.PLP.Chemscore.Metal>
0.0000

> <Gold.Chemscore.Hbonds>
donor molecule, donor type, donor heavy atom, donor atom, acceptor molecule, acceptor atom, score
      L1  H    15    47       P1  8028  1.24
      L1  H    17    48       P1  7948  1.90
      P1  H  7997  8008       L1     6  0.78
      P1  H 10752 10764       L1     4  1.76

> <Gold.PLP.Chemscore.Internal.Correction>
0.5881

> <Gold.Rescore>
     Score         DG    S(hbond)    S(metal)    S(lipo)     H(rot)  DE(clash)    DE(int)     intcor
     18.59     -21.98       3.28        0.00      79.98       1.48       0.47       2.93       ----

> <Gold.Chemscore.Fitness>
18.5856

> <Gold.Chemscore.DG>
-21.9801

> <Gold.Chemscore.ZeroCoef>
-5.4800

> <Gold.Chemscore.Hbond>
3.2752

> <Gold.Chemscore.Metal>
0.0000

> <Gold.Chemscore.Lipo>
79.9770

> <Gold.Chemscore.Internal_Hbond>
0.0000

> <Gold.Chemscore.DEClash>
0.4650

> <Gold.Chemscore.DEInternal>
2.9295

> <Gold.Chemscore.Rot>
1.4830

> <Gold.Chemscore.Internal.Correction>
   9.000000E+99

> <Gold.Chemscore.Hbonds>
donor molecule, donor type, donor heavy atom, donor atom, acceptor molecule, acceptor atom, score
      L1  H    15    47       P1  8028  0.62
      L1  H    17    48       P1  7948  0.21
      P1  H  7997  8008       L1     6  0.78
      P1  H 10752 10764       L1     4  0.26

> <Gold.Chemscore.Hbond.Weighted>
-10.9392

> <Gold.Chemscore.Metal.Weighted>
-0.0000

> <Gold.Chemscore.Lipo.Weighted>
-9.3573

> <Gold.Chemscore.Internal_Hbond.Weighted>
0.0000

> <Gold.Chemscore.DEClash.Weighted>
0.4650

> <Gold.Chemscore.DEInternal.Weighted>
2.9295

> <Gold.Chemscore.Rot.Weighted>
3.7964

> <Gold.Chemscore.Internal.Correction.Weighted>
   9.000000E+99

> <Gold.Protein.RotatedTorsions>
[ 6907 6896 6895 6894 ] final   64.33 input  -60.11 | X-H torsion
[ 7974 7965 7964 7962 ] final   86.83 input  175.53 | X-H torsion
[ 8008 7997 7996 7995 ] final  -45.66 input   59.86 | X-H torsion
[ 10167 10162 10161 10158 ] final  -95.03 input  -65.29 | X-H torsion
[ 10718 10713 10712 10709 ] final  158.71 input   66.30 | X-H torsion
[ 10763 10752 10751 10750 ] final  -58.31 input  -60.55 | X-H torsion
[ 11005 11000 10999 10996 ] final  124.55 input  -57.11 | X-H torsion

> <Gold.Protein.ActiveResidues>
 VAL166  LYS551  ARG553  GLY616  TRP617  ASP618  TYR619  PRO620  LYS621  CYS622 
 ASP623  PHE694  ASN695  SER759  ASP760  ASP761  ALA762  ILE779  LEU786  VAL792 
 PHE793  MET794  SER795  GLU796  ALA797  LYS798  CYS799  TRP800  GLU811  SER814 

> <Gold.Protein.RotatedAtoms>
  152.4323  134.5754  159.9932 H   0  0  0  0  0  0  0  0  0  0  0  0  # atno 6907 bound_to 6896
  151.5874  133.3365  159.3028 H   0  0  0  0  0  0  0  0  0  0  0  0  # atno 6908 bound_to 6896
  150.8217  134.7464  159.6843 H   0  0  0  0  0  0  0  0  0  0  0  0  # atno 6909 bound_to 6896
  145.5671  139.2310  143.2427 H   0  0  0  0  0  0  0  0  0  0  0  0  # atno 7974 bound_to 7965
  154.4002  140.1391  156.3884 H   0  0  0  0  0  0  0  0  0  0  0  0  # atno 8008 bound_to 7997
  155.7937  140.3478  155.5343 H   0  0  0  0  0  0  0  0  0  0  0  0  # atno 8009 bound_to 7997
  155.8553  140.0948  157.1639 H   0  0  0  0  0  0  0  0  0  0  0  0  # atno 8010 bound_to 7997
  140.3083  143.3120  152.0175 H   0  0  0  0  0  0  0  0  0  0  0  0  # atno 10167 bound_to 10162
  157.1741  131.0617  151.2167 H   0  0  0  0  0  0  0  0  0  0  0  0  # atno 10718 bound_to 10713
  154.2361  135.6352  153.5191 H   0  0  0  0  0  0  0  0  0  0  0  0  # atno 10763 bound_to 10752
  152.9939  135.5531  154.5960 H   0  0  0  0  0  0  0  0  0  0  0  0  # atno 10764 bound_to 10752
  154.5455  135.2898  155.1031 H   0  0  0  0  0  0  0  0  0  0  0  0  # atno 10765 bound_to 10752
  139.9364  134.9639  156.8426 H   0  0  0  0  0  0  0  0  0  0  0  0  # atno 11005 bound_to 11000
  146.1810  140.6497  142.9189 LP  0  0  0  0  0  0  0  0  0  0  0  0  # atno 17320 bound_to 7965
  144.7455  140.5056  143.6839 LP  0  0  0  0  0  0  0  0  0  0  0  0  # atno 17321 bound_to 7965
  139.4899  144.6404  151.6889 LP  0  0  0  0  0  0  0  0  0  0  0  0  # atno 17342 bound_to 10162
  140.5591  144.0299  150.6161 LP  0  0  0  0  0  0  0  0  0  0  0  0  # atno 17343 bound_to 10162
  157.4015  130.7336  149.6770 LP  0  0  0  0  0  0  0  0  0  0  0  0  # atno 17370 bound_to 10713
  155.9734  130.4119  150.4007 LP  0  0  0  0  0  0  0  0  0  0  0  0  # atno 17371 bound_to 10713
  140.6065  134.0123  155.7559 LP  0  0  0  0  0  0  0  0  0  0  0  0  # atno 17394 bound_to 11000
  141.0979  133.9814  157.3128 LP  0  0  0  0  0  0  0  0  0  0  0  0  # atno 17395 bound_to 11000

$$$$
