AV-unprocessed.smi:228|AV-procd|sdf|1745|dock6
  -GOLD-   2262020263D 1   1.00000     0.00000
 Structure written by MMmdl.
 59 62  0  0  0  0  0  0  0  0  1 V2000
  151.1643  132.0013  156.5141 C   0  0  0  0  0  0  0  0  0  0  0  0
  149.7674  132.2261  156.1539 N   0  0  0  0  0  0  0  0  0  0  0  0
  149.1808  133.5280  156.4641 C   0  0  0  0  0  0  0  0  0  0  0  0
  150.2477  134.5855  156.8295 C   0  0  2  0  0  0  0  0  0  0  0  0
  149.7677  135.2858  157.9599 O   0  0  0  0  0  0  0  0  0  0  0  0
  150.4772  135.6069  155.6923 C   0  0  0  0  0  0  0  0  0  0  0  0
  151.1336  136.8544  156.0882 N   0  0  0  0  0  0  0  0  0  0  0  0
  151.5084  137.6847  154.9455 C   0  0  0  0  0  0  0  0  0  0  0  0
  152.2277  138.9736  155.3814 C   0  0  0  0  0  0  0  0  0  0  0  0
  153.3679  138.6455  156.1684 O   0  0  0  0  0  0  0  0  0  0  0  0
  153.0351  137.8781  157.3204 C   0  0  0  0  0  0  0  0  0  0  0  0
  152.3245  136.5843  156.8874 C   0  0  0  0  0  0  0  0  0  0  0  0
  149.2352  131.5117  155.1272 C   0  0  0  0  0  0  0  0  0  0  0  0
  149.7383  130.2794  154.8482 N   0  0  0  0  0  0  0  0  0  0  0  0
  149.2520  129.5621  153.8320 C   0  0  0  0  0  0  0  0  0  0  0  0
  148.2724  129.8766  152.9839 N   0  0  0  0  0  0  0  0  0  0  0  0
  147.7421  131.1000  153.2691 C   0  0  0  0  0  0  0  0  0  0  0  0
  148.1637  131.9773  154.3096 C   0  0  0  0  0  0  0  0  0  0  0  0
  147.3933  133.1334  154.2858 N   0  0  0  0  0  0  0  0  0  0  0  0
  146.5845  132.9613  153.2769 C   0  0  0  0  0  0  0  0  0  0  0  0
  146.6994  131.7509  152.6292 N   0  0  0  0  0  0  0  0  0  0  0  0
  145.9672  131.3122  151.4703 C   0  0  0  0  0  0  0  0  0  0  0  0
  146.0408  132.0770  150.1414 C   0  0  0  0  0  0  0  0  0  0  0  0
  144.6635  132.7160  150.4218 C   0  0  0  0  0  0  0  0  0  0  0  0
  144.7470  134.1116  151.0760 C   0  0  0  0  0  0  0  0  0  0  0  0
  145.2742  135.0867  150.2002 O   0  0  0  0  0  0  0  0  0  0  0  0
  143.7334  132.7836  149.1972 C   0  0  0  0  0  0  0  0  0  0  0  0
  144.0078  133.9051  148.3830 O   0  0  0  0  0  0  0  0  0  0  0  0
  144.4510  131.5228  151.3786 C   0  0  0  0  0  0  0  0  0  0  0  0
  151.3731  130.9355  156.6146 H   0  0  0  0  0  0  0  0  0  0  0  0
  151.3995  132.4775  157.4661 H   0  0  0  0  0  0  0  0  0  0  0  0
  151.8292  132.4172  155.7564 H   0  0  0  0  0  0  0  0  0  0  0  0
  148.6421  133.8384  155.5685 H   0  0  0  0  0  0  0  0  0  0  0  0
  148.4075  133.4601  157.2300 H   0  0  0  0  0  0  0  0  0  0  0  0
  151.1910  134.1005  157.0857 H   0  0  0  0  0  0  0  0  0  0  0  0
  149.1619  135.9488  157.6647 H   0  0  0  0  0  0  0  0  0  0  0  0
  151.1226  135.1332  154.9518 H   0  0  0  0  0  0  0  0  0  0  0  0
  149.5420  135.8139  155.1688 H   0  0  0  0  0  0  0  0  0  0  0  0
  152.1549  137.1191  154.2730 H   0  0  0  0  0  0  0  0  0  0  0  0
  150.6230  137.9593  154.3729 H   0  0  0  0  0  0  0  0  0  0  0  0
  152.5485  139.5424  154.5088 H   0  0  0  0  0  0  0  0  0  0  0  0
  151.5560  139.6159  155.9531 H   0  0  0  0  0  0  0  0  0  0  0  0
  153.9474  137.6446  157.8691 H   0  0  0  0  0  0  0  0  0  0  0  0
  152.4004  138.4645  157.9865 H   0  0  0  0  0  0  0  0  0  0  0  0
  152.0540  136.0099  157.7740 H   0  0  0  0  0  0  0  0  0  0  0  0
  153.0203  135.9668  156.3169 H   0  0  0  0  0  0  0  0  0  0  0  0
  149.7145  128.5989  153.6749 H   0  0  0  0  0  0  0  0  0  0  0  0
  145.8754  133.7220  152.9859 H   0  0  0  0  0  0  0  0  0  0  0  0
  146.2287  130.2618  151.3377 H   0  0  0  0  0  0  0  0  0  0  0  0
  146.8564  132.7936  150.0496 H   0  0  0  0  0  0  0  0  0  0  0  0
  146.0322  131.4014  149.2844 H   0  0  0  0  0  0  0  0  0  0  0  0
  143.7627  134.4580  151.3903 H   0  0  0  0  0  0  0  0  0  0  0  0
  145.3585  134.0862  151.9783 H   0  0  0  0  0  0  0  0  0  0  0  0
  145.6077  134.6517  149.4306 H   0  0  0  0  0  0  0  0  0  0  0  0
  143.8097  131.8802  148.5915 H   0  0  0  0  0  0  0  0  0  0  0  0
  142.6903  132.8563  149.5067 H   0  0  0  0  0  0  0  0  0  0  0  0
  144.9375  133.9368  148.2171 H   0  0  0  0  0  0  0  0  0  0  0  0
  143.9479  130.6816  150.8986 H   0  0  0  0  0  0  0  0  0  0  0  0
  143.9560  131.7811  152.3146 H   0  0  0  0  0  0  0  0  0  0  0  0
  1  2  1  0  0  0  0
  1 30  1  0  0  0  0
  1 31  1  0  0  0  0
  1 32  1  0  0  0  0
  2  3  1  0  0  0  0
  2 13  1  0  0  0  0
  3  4  1  0  0  0  0
  3 33  1  0  0  0  0
  3 34  1  0  0  0  0
  4  5  1  0  0  0  0
  4  6  1  0  0  0  0
  4 35  1  0  0  0  0
  5 36  1  0  0  0  0
  6  7  1  0  0  0  0
  6 37  1  0  0  0  0
  6 38  1  0  0  0  0
  7 12  1  0  0  0  0
  7  8  1  0  0  0  0
  8  9  1  0  0  0  0
  8 39  1  0  0  0  0
  8 40  1  0  0  0  0
  9 10  1  0  0  0  0
  9 41  1  0  0  0  0
  9 42  1  0  0  0  0
 10 11  1  0  0  0  0
 11 12  1  0  0  0  0
 11 43  1  0  0  0  0
 11 44  1  0  0  0  0
 12 45  1  0  0  0  0
 12 46  1  0  0  0  0
 13 18  1  0  0  0  0
 13 14  2  0  0  0  0
 14 15  1  0  0  0  0
 15 16  2  0  0  0  0
 15 47  1  0  0  0  0
 16 17  1  0  0  0  0
 17 21  1  0  0  0  0
 17 18  2  0  0  0  0
 18 19  1  0  0  0  0
 19 20  2  0  0  0  0
 20 21  1  0  0  0  0
 20 48  1  0  0  0  0
 21 22  1  0  0  0  0
 22 29  1  0  0  0  0
 22 23  1  0  0  0  0
 22 49  1  0  0  0  0
 23 24  1  0  0  0  0
 23 50  1  0  0  0  0
 23 51  1  0  0  0  0
 24 25  1  0  0  0  0
 24 27  1  0  0  0  0
 24 29  1  0  0  0  0
 25 26  1  0  0  0  0
 25 52  1  0  0  0  0
 25 53  1  0  0  0  0
 26 54  1  0  0  0  0
 27 28  1  0  0  0  0
 27 55  1  0  0  0  0
 27 56  1  0  0  0  0
 28 57  1  0  0  0  0
 29 58  1  0  0  0  0
 29 59  1  0  0  0  0
M  END
> <s_m_source_file>
AV-unprocessed.smi

> <i_m_source_file_index>
228

> <i_lp_mmshare_version>
43012

> <i_f3d_flags>
0

> <s_epik_input>
W0NIMl0xW0NIMl1PW0NIMl1bQ0gyXU4xW0NIMl1bQ0BASF0oW09IXSlbQ0gyXU4oW0NIM10pYyhuW2NIXW4yKWMoYzIzKW5bY0hdbjNbQ0hdKFtDSDJdNClbQ0gyXUM0KFtDSDJdW09IXSlbQ0gyXVtPSF0=

> <s_epik_cmdline>
J2VwaWtfcHl0aG9uJywgJy1waCcsICc3LjAnLCAnLXRuJywgJzgnLCAnLW1hJywgJzIwMCcsICctbWV0YWxfYmluZGluZycsICctaW1hZScsICc8aW5maWxlLm1hZT4nLCAnLW9tYWUnLCAnPG91dGZpbGUubWFlPic=

> <r_lp_tautomer_probability>
1

> <r_epik_Ionization_Penalty>
0.423559

> <r_epik_Ionization_Penalty_Charging>
0

> <r_epik_Ionization_Penalty_Neutral>
0.423559

> <r_epik_State_Penalty>
0.438466

> <r_epik_Charging_Adjusted_Penalty>
0.438466

> <i_epik_Tot_Q>
0

> <i_epik_Tot_abs_Q>
0

> <r_epik_Metal_State_Penalty>
0.436601

> <b_epik_Metal_Only>
0

> <s_lp_Force_Field>
OPLS_2005

> <r_lp_Energy>
66.0814

> <b_lp_Chiralities_Consistent>
1

> <s_lp_Variant>
AV-unprocessed.smi:228-3

> <Gold.Version>
5.8.1

> <Gold.Id.Protein>
6NUR|6NUR_protein|mol2

> <Gold.PLP.Fitness>
54.6858

> <Gold.PLP.PLP>
-45.1945

> <Gold.PLP.part.hbond>
-4.7861

> <Gold.PLP.part.metal>
0.0000

> <Gold.PLP.part.buried>
-7.2752

> <Gold.PLP.part.nonpolar>
-36.1576

> <Gold.PLP.part.repulsive>
2.1258

> <Gold.PLP.ligand.clash>
0.0000

> <Gold.PLP.ligand.torsion>
1.7167

> <Gold.PLP.Chemscore.Hbond>
3.8642

> <Gold.PLP.Chemscore.CHOScore>
0.0000

> <Gold.PLP.Chemscore.Metal>
0.0000

> <Gold.Chemscore.Hbonds>
donor molecule, donor type, donor heavy atom, donor atom, acceptor molecule, acceptor atom, score
      L1  H    26    54       P1  7921  0.94
      L1  H    28    57       P1  7921  0.91
      P1  H  6896  6909       L1     5  0.96
      P1  H  7997  8008       L1    10  0.86

> <Gold.PLP.Chemscore.Internal.Correction>
1.3322

> <Gold.Rescore>
     Score         DG    S(hbond)    S(metal)    S(lipo)     H(rot)  DE(clash)    DE(int)     intcor
     10.57     -15.70       3.12        0.00     100.31       4.66       1.62       3.51       ----

> <Gold.Chemscore.Fitness>
10.5719

> <Gold.Chemscore.DG>
-15.7028

> <Gold.Chemscore.ZeroCoef>
-5.4800

> <Gold.Chemscore.Hbond>
3.1186

> <Gold.Chemscore.Metal>
0.0000

> <Gold.Chemscore.Lipo>
100.3099

> <Gold.Chemscore.Internal_Hbond>
0.0000

> <Gold.Chemscore.DEClash>
1.6170

> <Gold.Chemscore.DEInternal>
3.5140

> <Gold.Chemscore.Rot>
4.6600

> <Gold.Chemscore.Internal.Correction>
   9.000000E+99

> <Gold.Chemscore.Hbonds>
donor molecule, donor type, donor heavy atom, donor atom, acceptor molecule, acceptor atom, score
      L1  H    26    54       P1  7921  0.87
      L1  H    28    57       P1  7921  0.85
      P1  H  6896  6909       L1     5  0.55
      P1  H  7997  8008       L1    10  0.42

> <Gold.Chemscore.Hbond.Weighted>
-10.4163

> <Gold.Chemscore.Metal.Weighted>
-0.0000

> <Gold.Chemscore.Lipo.Weighted>
-11.7363

> <Gold.Chemscore.Internal_Hbond.Weighted>
0.0000

> <Gold.Chemscore.DEClash.Weighted>
1.6170

> <Gold.Chemscore.DEInternal.Weighted>
3.5140

> <Gold.Chemscore.Rot.Weighted>
11.9297

> <Gold.Chemscore.Internal.Correction.Weighted>
   9.000000E+99

> <Gold.Protein.RotatedTorsions>
[ 6907 6896 6895 6894 ] final   49.45 input  -60.11 | X-H torsion
[ 7974 7965 7964 7962 ] final    3.30 input  175.53 | X-H torsion
[ 8008 7997 7996 7995 ] final  -32.73 input   59.86 | X-H torsion
[ 10167 10162 10161 10158 ] final  -39.27 input  -65.29 | X-H torsion
[ 10718 10713 10712 10709 ] final  -11.29 input   66.30 | X-H torsion
[ 10763 10752 10751 10750 ] final  168.17 input  -60.55 | X-H torsion
[ 11005 11000 10999 10996 ] final   92.11 input  -57.11 | X-H torsion

> <Gold.Protein.ActiveResidues>
 VAL166  LYS551  ARG553  GLY616  TRP617  ASP618  TYR619  PRO620  LYS621  CYS622 
 ASP623  PHE694  ASN695  SER759  ASP760  ASP761  ALA762  ILE779  LEU786  VAL792 
 PHE793  MET794  SER795  GLU796  ALA797  LYS798  CYS799  TRP800  GLU811  SER814 

> <Gold.Protein.RotatedAtoms>
  152.2909  134.7722  160.0377 H   0  0  0  0  0  0  0  0  0  0  0  0  # atno 6907 bound_to 6896
  151.8268  133.3397  159.3609 H   0  0  0  0  0  0  0  0  0  0  0  0  # atno 6908 bound_to 6896
  150.7230  134.5450  159.5810 H   0  0  0  0  0  0  0  0  0  0  0  0  # atno 6909 bound_to 6896
  146.2445  140.0707  142.8362 H   0  0  0  0  0  0  0  0  0  0  0  0  # atno 7974 bound_to 7965
  154.4171  140.1729  156.1774 H   0  0  0  0  0  0  0  0  0  0  0  0  # atno 8008 bound_to 7997
  155.9710  140.3385  155.6552 H   0  0  0  0  0  0  0  0  0  0  0  0  # atno 8009 bound_to 7997
  155.6625  140.0702  157.2540 H   0  0  0  0  0  0  0  0  0  0  0  0  # atno 8010 bound_to 7997
  140.7069  143.3225  151.2758 H   0  0  0  0  0  0  0  0  0  0  0  0  # atno 10167 bound_to 10162
  156.6612  130.4982  149.6030 H   0  0  0  0  0  0  0  0  0  0  0  0  # atno 10718 bound_to 10713
  154.3646  135.2753  155.2300 H   0  0  0  0  0  0  0  0  0  0  0  0  # atno 10763 bound_to 10752
  154.4474  135.5939  153.6172 H   0  0  0  0  0  0  0  0  0  0  0  0  # atno 10764 bound_to 10752
  152.9841  135.6033  154.3871 H   0  0  0  0  0  0  0  0  0  0  0  0  # atno 10765 bound_to 10752
  139.8828  134.8714  156.3525 H   0  0  0  0  0  0  0  0  0  0  0  0  # atno 11005 bound_to 11000
  145.0819  140.9226  143.4820 LP  0  0  0  0  0  0  0  0  0  0  0  0  # atno 17320 bound_to 7965
  145.0861  139.2924  143.5758 LP  0  0  0  0  0  0  0  0  0  0  0  0  # atno 17321 bound_to 7965
  139.6683  144.0065  152.2737 LP  0  0  0  0  0  0  0  0  0  0  0  0  # atno 17342 bound_to 10162
  139.9655  144.6529  150.8038 LP  0  0  0  0  0  0  0  0  0  0  0  0  # atno 17343 bound_to 10162
  156.2010  130.6619  151.1167 LP  0  0  0  0  0  0  0  0  0  0  0  0  # atno 17370 bound_to 10713
  157.7109  131.0734  150.6504 LP  0  0  0  0  0  0  0  0  0  0  0  0  # atno 17371 bound_to 10713
  140.9584  133.7405  156.0367 LP  0  0  0  0  0  0  0  0  0  0  0  0  # atno 17394 bound_to 11000
  140.8020  134.3498  157.5437 LP  0  0  0  0  0  0  0  0  0  0  0  0  # atno 17395 bound_to 11000

$$$$
