AV-unprocessed.smi:2402|AV-procd|sdf|9505|dock7
  -GOLD-   2272013133D 1   1.00000     0.00000
 Structure written by MMmdl.
 38 39  0  0  0  0  0  0  0  0  1 V2000
  153.4304  141.0101  160.4051 C   0  0  0  0  0  0  0  0  0  0  0  0
  152.6750  142.1940  159.8388 C   0  0  0  0  0  0  0  0  0  0  0  0
  152.8300  143.4806  160.3895 C   0  0  0  0  0  0  0  0  0  0  0  0
  152.1000  144.5409  159.8173 C   0  0  0  0  0  0  0  0  0  0  0  0
  152.2144  145.9486  160.3634 C   0  0  0  0  0  0  0  0  0  0  0  0
  151.2626  144.3783  158.7706 N   0  0  0  0  0  0  0  0  0  0  0  0
  151.1057  143.1438  158.2315 C   0  0  0  0  0  0  0  0  0  0  0  0
  150.2455  142.8660  157.1357 N   0  0  0  0  0  0  0  0  0  0  0  0
  150.2956  141.8282  156.2818 C   0  0  0  0  0  0  0  0  0  0  0  0
  151.0969  140.8948  156.3394 O   0  0  0  0  0  0  0  0  0  0  0  0
  149.3472  141.9288  155.3395 N   0  0  0  0  0  0  0  0  0  0  0  0
  149.1365  140.9652  154.2646 C   0  0  2  0  0  0  0  0  0  0  0  0
  148.0224  141.4156  153.3603 C   0  0  0  0  0  0  0  0  0  0  0  0
  147.0724  140.4942  153.2174 C   0  0  0  0  0  0  0  0  0  0  0  0
  147.3508  139.2399  154.0032 C   0  0  2  0  0  0  0  0  0  0  0  0
  146.1669  138.8449  154.9013 C   0  0  0  0  0  0  0  0  0  0  0  0
  145.0119  138.6275  154.1192 O   0  0  0  0  0  0  0  0  0  0  0  0
  148.6472  139.5870  154.7820 C   0  0  0  0  0  0  0  0  0  0  0  0
  151.8011  142.0263  158.7458 C   0  0  0  0  0  0  0  0  0  0  0  0
  150.0412  140.8580  153.6633 H   0  0  0  0  0  0  0  0  0  0  0  0
  147.5497  138.4447  153.2833 H   0  0  0  0  0  0  0  0  0  0  0  0
  153.9426  141.2729  161.3312 H   0  0  0  0  0  0  0  0  0  0  0  0
  154.1749  140.6607  159.6895 H   0  0  0  0  0  0  0  0  0  0  0  0
  152.7448  140.1893  160.6175 H   0  0  0  0  0  0  0  0  0  0  0  0
  153.4891  143.6503  161.2284 H   0  0  0  0  0  0  0  0  0  0  0  0
  153.0507  146.0361  161.0576 H   0  0  0  0  0  0  0  0  0  0  0  0
  151.3011  146.2223  160.8923 H   0  0  0  0  0  0  0  0  0  0  0  0
  152.3701  146.6619  159.5535 H   0  0  0  0  0  0  0  0  0  0  0  0
  149.5170  143.5450  156.9737 H   0  0  0  0  0  0  0  0  0  0  0  0
  148.7277  142.7254  155.3661 H   0  0  0  0  0  0  0  0  0  0  0  0
  148.0281  142.3814  152.8766 H   0  0  0  0  0  0  0  0  0  0  0  0
  146.1917  140.6026  152.6015 H   0  0  0  0  0  0  0  0  0  0  0  0
  146.3927  137.9438  155.4730 H   0  0  0  0  0  0  0  0  0  0  0  0
  145.9527  139.6375  155.6187 H   0  0  0  0  0  0  0  0  0  0  0  0
  144.7345  139.4541  153.7550 H   0  0  0  0  0  0  0  0  0  0  0  0
  149.4095  138.8208  154.6368 H   0  0  0  0  0  0  0  0  0  0  0  0
  148.4475  139.6272  155.8542 H   0  0  0  0  0  0  0  0  0  0  0  0
  151.6669  141.0474  158.3080 H   0  0  0  0  0  0  0  0  0  0  0  0
  1  2  1  0  0  0  0
  1 22  1  0  0  0  0
  1 23  1  0  0  0  0
  1 24  1  0  0  0  0
  2 19  1  0  0  0  0
  2  3  2  0  0  0  0
  3  4  1  0  0  0  0
  3 25  1  0  0  0  0
  4  5  1  0  0  0  0
  4  6  2  0  0  0  0
  5 26  1  0  0  0  0
  5 27  1  0  0  0  0
  5 28  1  0  0  0  0
  6  7  1  0  0  0  0
  7  8  1  0  0  0  0
  7 19  2  0  0  0  0
  8  9  1  0  0  0  0
  8 29  1  0  0  0  0
  9 10  2  0  0  0  0
  9 11  1  0  0  0  0
 11 12  1  0  0  0  0
 11 30  1  0  0  0  0
 12 20  1  0  0  0  0
 12 18  1  0  0  0  0
 12 13  1  0  0  0  0
 13 14  2  0  0  0  0
 13 31  1  0  0  0  0
 14 15  1  0  0  0  0
 14 32  1  0  0  0  0
 15 21  1  0  0  0  0
 15 16  1  0  0  0  0
 15 18  1  0  0  0  0
 16 17  1  0  0  0  0
 16 33  1  0  0  0  0
 16 34  1  0  0  0  0
 17 35  1  0  0  0  0
 18 36  1  0  0  0  0
 18 37  1  0  0  0  0
 19 38  1  0  0  0  0
M  END
> <s_m_source_file>
AV-unprocessed.smi

> <i_m_source_file_index>
2402

> <i_lp_mmshare_version>
43012

> <i_f3d_flags>
0

> <s_epik_input>
W0NIM11jMVtjSF1jKFtDSDNdKW5jKFtjSF0xKVtOSF1DKD1PKVtOSF1bQ0BASF0yW0NIXT1bQ0hdW0NAQEhdKFtDSDJdMilbQ0gyXVtPSF0=

> <s_epik_cmdline>
J2VwaWtfcHl0aG9uJywgJy1waCcsICc3LjAnLCAnLXRuJywgJzgnLCAnLW1hJywgJzIwMCcsICctbWV0YWxfYmluZGluZycsICctaW1hZScsICc8aW5maWxlLm1hZT4nLCAnLW9tYWUnLCAnPG91dGZpbGUubWFlPic=

> <r_lp_tautomer_probability>
1

> <r_epik_Ionization_Penalty>
0.000257495

> <r_epik_Ionization_Penalty_Charging>
0

> <r_epik_Ionization_Penalty_Neutral>
0.000257495

> <r_epik_State_Penalty>
-0

> <r_epik_Charging_Adjusted_Penalty>
0

> <i_epik_Tot_Q>
0

> <i_epik_Tot_abs_Q>
0

> <r_epik_Metal_State_Penalty>
-0

> <b_epik_Metal_Only>
0

> <s_lp_Force_Field>
OPLS_2005

> <r_lp_Energy>
18.4158

> <b_lp_Chiralities_Consistent>
1

> <s_lp_Variant>
AV-unprocessed.smi:2402-1

> <Gold.Version>
5.8.1

> <Gold.Id.Protein>
6NUR|6NUR_protein|mol2

> <Gold.PLP.Fitness>
44.3070

> <Gold.PLP.PLP>
-36.9101

> <Gold.PLP.part.hbond>
-3.0000

> <Gold.PLP.part.metal>
0.0000

> <Gold.PLP.part.buried>
-3.7257

> <Gold.PLP.part.nonpolar>
-29.7393

> <Gold.PLP.part.repulsive>
0.3118

> <Gold.PLP.ligand.clash>
0.0000

> <Gold.PLP.ligand.torsion>
0.1323

> <Gold.PLP.Chemscore.Hbond>
2.5492

> <Gold.PLP.Chemscore.CHOScore>
0.0000

> <Gold.PLP.Chemscore.Metal>
0.0000

> <Gold.Chemscore.Hbonds>
donor molecule, donor type, donor heavy atom, donor atom, acceptor molecule, acceptor atom, score
      L1  H     8    29       P1  8028  0.83
      L1  H    11    30       P1  8028  0.77
      L1  H    17    35       P1 10175  1.00

> <Gold.PLP.Chemscore.Internal.Correction>
0.0141

> <Gold.Rescore>
     Score         DG    S(hbond)    S(metal)    S(lipo)     H(rot)  DE(clash)    DE(int)     intcor
     18.37     -21.08       2.47        0.00     101.85       1.78       1.10       1.61       ----

> <Gold.Chemscore.Fitness>
18.3738

> <Gold.Chemscore.DG>
-21.0755

> <Gold.Chemscore.ZeroCoef>
-5.4800

> <Gold.Chemscore.Hbond>
2.4691

> <Gold.Chemscore.Metal>
0.0000

> <Gold.Chemscore.Lipo>
101.8546

> <Gold.Chemscore.Internal_Hbond>
0.0000

> <Gold.Chemscore.DEClash>
1.0966

> <Gold.Chemscore.DEInternal>
1.6051

> <Gold.Chemscore.Rot>
1.7844

> <Gold.Chemscore.Internal.Correction>
   9.000000E+99

> <Gold.Chemscore.Hbonds>
donor molecule, donor type, donor heavy atom, donor atom, acceptor molecule, acceptor atom, score
      L1  H     8    29       P1  8028  0.78
      L1  H    11    30       P1  8028  0.72
      L1  H    17    35       P1 10175  0.94

> <Gold.Chemscore.Hbond.Weighted>
-8.2466

> <Gold.Chemscore.Metal.Weighted>
-0.0000

> <Gold.Chemscore.Lipo.Weighted>
-11.9170

> <Gold.Chemscore.Internal_Hbond.Weighted>
0.0000

> <Gold.Chemscore.DEClash.Weighted>
1.0966

> <Gold.Chemscore.DEInternal.Weighted>
1.6051

> <Gold.Chemscore.Rot.Weighted>
4.5681

> <Gold.Chemscore.Internal.Correction.Weighted>
   9.000000E+99

> <Gold.Protein.RotatedTorsions>
[ 6907 6896 6895 6894 ] final  175.80 input  -60.11 | X-H torsion
[ 7974 7965 7964 7962 ] final -100.11 input  175.53 | X-H torsion
[ 8008 7997 7996 7995 ] final  -98.25 input   59.86 | X-H torsion
[ 10167 10162 10161 10158 ] final  143.50 input  -65.29 | X-H torsion
[ 10718 10713 10712 10709 ] final  -15.45 input   66.30 | X-H torsion
[ 10763 10752 10751 10750 ] final  -55.02 input  -60.55 | X-H torsion
[ 11005 11000 10999 10996 ] final  110.83 input  -57.11 | X-H torsion

> <Gold.Protein.ActiveResidues>
 VAL166  LYS551  ARG553  GLY616  TRP617  ASP618  TYR619  PRO620  LYS621  CYS622 
 ASP623  PHE694  ASN695  SER759  ASP760  ASP761  ALA762  ILE779  LEU786  VAL792 
 PHE793  MET794  SER795  GLU796  ALA797  LYS798  CYS799  TRP800  GLU811  SER814 

> <Gold.Protein.RotatedAtoms>
  151.7304  133.3317  159.3338 H   0  0  0  0  0  0  0  0  0  0  0  0  # atno 6907 bound_to 6896
  150.7615  134.6368  159.6225 H   0  0  0  0  0  0  0  0  0  0  0  0  # atno 6908 bound_to 6896
  152.3595  134.6894  160.0263 H   0  0  0  0  0  0  0  0  0  0  0  0  # atno 6909 bound_to 6896
  145.2987  140.9372  143.2836 H   0  0  0  0  0  0  0  0  0  0  0  0  # atno 7974 bound_to 7965
  154.7986  140.0456  157.1256 H   0  0  0  0  0  0  0  0  0  0  0  0  # atno 8008 bound_to 7997
  154.9505  140.3064  155.5057 H   0  0  0  0  0  0  0  0  0  0  0  0  # atno 8009 bound_to 7997
  156.2959  140.2289  156.4582 H   0  0  0  0  0  0  0  0  0  0  0  0  # atno 8010 bound_to 7997
  139.4968  144.6036  151.6427 H   0  0  0  0  0  0  0  0  0  0  0  0  # atno 10167 bound_to 10162
  156.6016  130.4826  149.6237 H   0  0  0  0  0  0  0  0  0  0  0  0  # atno 10718 bound_to 10713
  154.1842  135.6438  153.5042 H   0  0  0  0  0  0  0  0  0  0  0  0  # atno 10763 bound_to 10752
  153.0051  135.5413  154.6483 H   0  0  0  0  0  0  0  0  0  0  0  0  # atno 10764 bound_to 10752
  154.5855  135.2929  155.0662 H   0  0  0  0  0  0  0  0  0  0  0  0  # atno 10765 bound_to 10752
  139.8890  134.9493  156.6339 H   0  0  0  0  0  0  0  0  0  0  0  0  # atno 11005 bound_to 11000
  144.9111  139.4527  143.6586 LP  0  0  0  0  0  0  0  0  0  0  0  0  # atno 17320 bound_to 7965
  146.3159  139.7920  142.8983 LP  0  0  0  0  0  0  0  0  0  0  0  0  # atno 17321 bound_to 7965
  140.5692  144.0137  150.6208 LP  0  0  0  0  0  0  0  0  0  0  0  0  # atno 17342 bound_to 10162
  140.3249  143.3114  152.0746 LP  0  0  0  0  0  0  0  0  0  0  0  0  # atno 17343 bound_to 10162
  156.2464  130.6881  151.1604 LP  0  0  0  0  0  0  0  0  0  0  0  0  # atno 17370 bound_to 10713
  157.7278  131.0636  150.5850 LP  0  0  0  0  0  0  0  0  0  0  0  0  # atno 17371 bound_to 10713
  140.7645  133.8790  155.8444 LP  0  0  0  0  0  0  0  0  0  0  0  0  # atno 17394 bound_to 11000
  140.9894  134.1299  157.4422 LP  0  0  0  0  0  0  0  0  0  0  0  0  # atno 17395 bound_to 11000

$$$$
