AV-unprocessed.smi:1703|AV-procd|sdf|6879|dock7
  -GOLD-   22720 8 83D 1   1.00000     0.00000
 Structure written by MMmdl.
 50 52  0  0  0  0  0  0  0  0  3 V2000
  154.0144  135.8904  163.4538 C   0  0  0  0  0  0  0  0  0  0  0  0
  153.7346  137.1424  162.6156 C   0  0  2  0  0  0  0  0  0  0  0  0
  153.5242  136.8092  161.1262 C   0  0  0  0  0  0  0  0  0  0  0  0
  153.3326  138.0518  160.3379 N   0  3  2  0  0  0  0  0  0  0  0  0
  153.0770  137.8133  158.8937 C   0  0  0  0  0  0  0  0  0  0  0  0
  152.8584  139.1131  158.0925 C   0  0  1  0  0  0  0  0  0  0  0  0
  153.4205  138.9662  156.8025 O   0  0  0  0  0  0  0  0  0  0  0  0
  151.3584  139.4422  157.9509 C   0  0  0  0  0  0  0  0  0  0  0  0
  151.1089  140.8489  157.5956 N   0  0  0  0  0  0  0  0  0  0  0  0
  150.3582  141.3987  156.5954 C   0  0  0  0  0  0  0  0  0  0  0  0
  149.5677  140.6762  155.5547 C   0  0  0  0  0  0  0  0  0  0  0  0
  150.3050  140.4665  154.3715 O   0  0  0  0  0  0  0  0  0  0  0  0
  150.4684  142.7526  156.7064 N   0  3  0  0  0  0  0  0  0  0  0  0
  151.2894  143.0743  157.7874 C   0  0  0  0  0  0  0  0  0  0  0  0
  151.6931  144.3068  158.2911 C   0  0  0  0  0  0  0  0  0  0  0  0
  152.5400  144.2830  159.4187 C   0  0  0  0  0  0  0  0  0  0  0  0
  152.9540  143.0671  160.0006 C   0  0  0  0  0  0  0  0  0  0  0  0
  152.5397  141.8235  159.4798 C   0  0  0  0  0  0  0  0  0  0  0  0
  151.7022  141.8563  158.3650 C   0  0  0  0  0  0  0  0  0  0  0  0
  154.4656  138.9806  160.5619 C   0  0  0  0  0  0  0  0  0  0  0  0
  154.6513  139.2561  162.0661 C   0  0  2  0  0  0  0  0  0  0  0  0
  155.8627  140.1524  162.3441 C   0  0  0  0  0  0  0  0  0  0  0  0
  154.8481  138.0197  162.7430 O   0  0  0  0  0  0  0  0  0  0  0  0
  153.1805  135.1898  163.4043 H   0  0  0  0  0  0  0  0  0  0  0  0
  154.1683  136.1494  164.5017 H   0  0  0  0  0  0  0  0  0  0  0  0
  154.9083  135.3725  163.1047 H   0  0  0  0  0  0  0  0  0  0  0  0
  152.8439  137.6329  163.0126 H   0  0  0  0  0  0  0  0  0  0  0  0
  154.3855  136.2620  160.7388 H   0  0  0  0  0  0  0  0  0  0  0  0
  152.6592  136.1549  161.0250 H   0  0  0  0  0  0  0  0  0  0  0  0
  153.9213  137.2769  158.4575 H   0  0  0  0  0  0  0  0  0  0  0  0
  152.2140  137.1536  158.7907 H   0  0  0  0  0  0  0  0  0  0  0  0
  153.3519  139.9510  158.5828 H   0  0  0  0  0  0  0  0  0  0  0  0
  152.8092  138.5009  156.2520 H   0  0  0  0  0  0  0  0  0  0  0  0
  150.9019  138.8135  157.1861 H   0  0  0  0  0  0  0  0  0  0  0  0
  150.8243  139.2256  158.8771 H   0  0  0  0  0  0  0  0  0  0  0  0
  149.2268  139.7174  155.9446 H   0  0  0  0  0  0  0  0  0  0  0  0
  148.6758  141.2552  155.3140 H   0  0  0  0  0  0  0  0  0  0  0  0
  149.9283  139.7319  153.9103 H   0  0  0  0  0  0  0  0  0  0  0  0
  151.3770  145.2396  157.8473 H   0  0  0  0  0  0  0  0  0  0  0  0
  152.8781  145.2160  159.8461 H   0  0  0  0  0  0  0  0  0  0  0  0
  153.6027  143.0890  160.8645 H   0  0  0  0  0  0  0  0  0  0  0  0
  152.8631  140.8983  159.9333 H   0  0  0  0  0  0  0  0  0  0  0  0
  155.3763  138.5518  160.1400 H   0  0  0  0  0  0  0  0  0  0  0  0
  154.2801  139.9196  160.0387 H   0  0  0  0  0  0  0  0  0  0  0  0
  153.7600  139.7452  162.4633 H   0  0  0  0  0  0  0  0  0  0  0  0
  155.7575  141.1194  161.8513 H   0  0  0  0  0  0  0  0  0  0  0  0
  156.7853  139.6933  161.9871 H   0  0  0  0  0  0  0  0  0  0  0  0
  155.9744  140.3358  163.4130 H   0  0  0  0  0  0  0  0  0  0  0  0
  152.5139  138.5157  160.7047 H   0  0  0  0  0  0  0  0  0  0  0  0
  150.0136  143.4074  156.0832 H   0  0  0  0  0  0  0  0  0  0  0  0
  1  2  1  0  0  0  0
  1 24  1  0  0  0  0
  1 25  1  0  0  0  0
  1 26  1  0  0  0  0
  2 23  1  0  0  0  0
  2  3  1  0  0  0  0
  2 27  1  0  0  0  0
  3  4  1  0  0  0  0
  3 28  1  0  0  0  0
  3 29  1  0  0  0  0
  4  5  1  0  0  0  0
  4 20  1  0  0  0  0
  4 49  1  0  0  0  0
  5  6  1  0  0  0  0
  5 30  1  0  0  0  0
  5 31  1  0  0  0  0
  6  7  1  0  0  0  0
  6  8  1  0  0  0  0
  6 32  1  0  0  0  0
  7 33  1  0  0  0  0
  8  9  1  0  0  0  0
  8 34  1  0  0  0  0
  8 35  1  0  0  0  0
  9 19  1  0  0  0  0
  9 10  1  0  0  0  0
 10 11  1  0  0  0  0
 10 13  2  0  0  0  0
 11 12  1  0  0  0  0
 11 36  1  0  0  0  0
 11 37  1  0  0  0  0
 12 38  1  0  0  0  0
 13 14  1  0  0  0  0
 13 50  1  0  0  0  0
 14 19  2  0  0  0  0
 14 15  1  0  0  0  0
 15 16  2  0  0  0  0
 15 39  1  0  0  0  0
 16 17  1  0  0  0  0
 16 40  1  0  0  0  0
 17 18  2  0  0  0  0
 17 41  1  0  0  0  0
 18 19  1  0  0  0  0
 18 42  1  0  0  0  0
 20 21  1  0  0  0  0
 20 43  1  0  0  0  0
 20 44  1  0  0  0  0
 21 22  1  0  0  0  0
 21 23  1  0  0  0  0
 21 45  1  0  0  0  0
 22 46  1  0  0  0  0
 22 47  1  0  0  0  0
 22 48  1  0  0  0  0
M  CHG  1   4   1
M  CHG  1  13   1
M  END
> <s_m_source_file>
AV-unprocessed.smi

> <i_m_source_file_index>
1703

> <i_lp_mmshare_version>
43012

> <i_f3d_flags>
0

> <s_epik_input>
W0NIM11bQ0BASF0xW0NIMl1OKFtDSDJdW0NASF0oTzEpW0NIM10pW0NIMl1bQ0BIXShbT0hdKVtDSDJdbihjKG4yKVtDSDJdW09IXSljKGMyMylbY0hdW2NIXVtjSF1bY0hdMw==

> <s_epik_cmdline>
J2VwaWtfcHl0aG9uJywgJy1waCcsICc3LjAnLCAnLXRuJywgJzgnLCAnLW1hJywgJzIwMCcsICctbWV0YWxfYmluZGluZycsICctaW1hZScsICc8aW5maWxlLm1hZT4nLCAnLW9tYWUnLCAnPG91dGZpbGUubWFlPic=

> <r_epik_Ionization_Penalty>
2.22579

> <r_epik_Ionization_Penalty_Charging>
2.22492

> <r_epik_Ionization_Penalty_Neutral>
0.000870007

> <r_epik_State_Penalty>
2.3141

> <r_epik_Charging_Adjusted_Penalty>
4.53902

> <i_epik_Tot_Q>
2

> <i_epik_Tot_abs_Q>
2

> <r_epik_Metal_State_Penalty>
6.36517

> <b_epik_Metal_Only>
0

> <s_lp_Force_Field>
OPLS_2005

> <r_lp_Energy>
26.5271

> <b_lp_Chiralities_Consistent>
1

> <s_lp_Variant>
AV-unprocessed.smi:1703-27

> <Gold.Version>
5.8.1

> <Gold.Id.Protein>
6NUR|6NUR_protein|mol2

> <Gold.PLP.Fitness>
55.3944

> <Gold.PLP.PLP>
-45.6079

> <Gold.PLP.part.hbond>
-3.0131

> <Gold.PLP.part.metal>
0.0000

> <Gold.PLP.part.buried>
-4.1745

> <Gold.PLP.part.nonpolar>
-39.4261

> <Gold.PLP.part.repulsive>
0.1297

> <Gold.PLP.ligand.clash>
0.0000

> <Gold.PLP.ligand.torsion>
1.0780

> <Gold.PLP.Chemscore.Hbond>
3.9753

> <Gold.PLP.Chemscore.CHOScore>
0.0000

> <Gold.PLP.Chemscore.Metal>
0.0000

> <Gold.Chemscore.Hbonds>
donor molecule, donor type, donor heavy atom, donor atom, acceptor molecule, acceptor atom, score
      L1  H    13    50       P1  8028  2.00
      P1  H  7989  7998       L1    12  0.94
      P1  H  7997  8009       L1     7  0.84

> <Gold.PLP.Chemscore.Internal.Correction>
0.0169

> <Gold.Rescore>
     Score         DG    S(hbond)    S(metal)    S(lipo)     H(rot)  DE(clash)    DE(int)     intcor
     19.79     -21.52       2.56        0.00     130.42       3.04       0.01       1.72       ----

> <Gold.Chemscore.Fitness>
19.7903

> <Gold.Chemscore.DG>
-21.5217

> <Gold.Chemscore.ZeroCoef>
-5.4800

> <Gold.Chemscore.Hbond>
2.5628

> <Gold.Chemscore.Metal>
0.0000

> <Gold.Chemscore.Lipo>
130.4157

> <Gold.Chemscore.Internal_Hbond>
0.0000

> <Gold.Chemscore.DEClash>
0.0064

> <Gold.Chemscore.DEInternal>
1.7250

> <Gold.Chemscore.Rot>
3.0378

> <Gold.Chemscore.Internal.Correction>
   9.000000E+99

> <Gold.Chemscore.Hbonds>
donor molecule, donor type, donor heavy atom, donor atom, acceptor molecule, acceptor atom, score
      L1  H    13    50       P1  8028  0.98
      P1  H  7989  7998       L1    12  0.45
      P1  H  7997  8009       L1     7  0.58

> <Gold.Chemscore.Hbond.Weighted>
-8.5598

> <Gold.Chemscore.Metal.Weighted>
-0.0000

> <Gold.Chemscore.Lipo.Weighted>
-15.2586

> <Gold.Chemscore.Internal_Hbond.Weighted>
0.0000

> <Gold.Chemscore.DEClash.Weighted>
0.0064

> <Gold.Chemscore.DEInternal.Weighted>
1.7250

> <Gold.Chemscore.Rot.Weighted>
7.7767

> <Gold.Chemscore.Internal.Correction.Weighted>
   9.000000E+99

> <Gold.Protein.RotatedTorsions>
[ 6907 6896 6895 6894 ] final  146.98 input  -60.11 | X-H torsion
[ 7974 7965 7964 7962 ] final  136.00 input  175.53 | X-H torsion
[ 8008 7997 7996 7995 ] final -175.78 input   59.86 | X-H torsion
[ 10167 10162 10161 10158 ] final   32.08 input  -65.29 | X-H torsion
[ 10718 10713 10712 10709 ] final  149.97 input   66.30 | X-H torsion
[ 10763 10752 10751 10750 ] final   13.10 input  -60.55 | X-H torsion
[ 11005 11000 10999 10996 ] final -150.97 input  -57.11 | X-H torsion

> <Gold.Protein.ActiveResidues>
 VAL166  LYS551  ARG553  GLY616  TRP617  ASP618  TYR619  PRO620  LYS621  CYS622 
 ASP623  PHE694  ASN695  SER759  ASP760  ASP761  ALA762  ILE779  LEU786  VAL792 
 PHE793  MET794  SER795  GLU796  ALA797  LYS798  CYS799  TRP800  GLU811  SER814 

> <Gold.Protein.RotatedAtoms>
  152.1608  133.4581  159.4859 H   0  0  0  0  0  0  0  0  0  0  0  0  # atno 6907 bound_to 6896
  150.6906  134.2073  159.4355 H   0  0  0  0  0  0  0  0  0  0  0  0  # atno 6908 bound_to 6896
  151.9975  134.9945  160.0614 H   0  0  0  0  0  0  0  0  0  0  0  0  # atno 6909 bound_to 6896
  144.9608  139.4713  143.5480 H   0  0  0  0  0  0  0  0  0  0  0  0  # atno 7974 bound_to 7965
  155.9867  140.1193  157.0676 H   0  0  0  0  0  0  0  0  0  0  0  0  # atno 8008 bound_to 7997
  154.4199  140.1133  156.5578 H   0  0  0  0  0  0  0  0  0  0  0  0  # atno 8009 bound_to 7997
  155.6397  140.3473  155.4713 H   0  0  0  0  0  0  0  0  0  0  0  0  # atno 8010 bound_to 7997
  140.4531  144.1019  150.6196 H   0  0  0  0  0  0  0  0  0  0  0  0  # atno 10167 bound_to 10162
  157.2894  131.0850  151.1473 H   0  0  0  0  0  0  0  0  0  0  0  0  # atno 10718 bound_to 10713
  153.1755  135.6819  153.8548 H   0  0  0  0  0  0  0  0  0  0  0  0  # atno 10763 bound_to 10752
  153.7898  135.3170  155.3378 H   0  0  0  0  0  0  0  0  0  0  0  0  # atno 10764 bound_to 10752
  154.8026  135.4768  154.0407 H   0  0  0  0  0  0  0  0  0  0  0  0  # atno 10765 bound_to 10752
  140.7346  134.3583  157.5160 H   0  0  0  0  0  0  0  0  0  0  0  0  # atno 11005 bound_to 11000
  146.3352  139.8756  142.8832 LP  0  0  0  0  0  0  0  0  0  0  0  0  # atno 17320 bound_to 7965
  145.2703  141.0106  143.3776 LP  0  0  0  0  0  0  0  0  0  0  0  0  # atno 17321 bound_to 7965
  140.4184  143.2623  151.9746 LP  0  0  0  0  0  0  0  0  0  0  0  0  # atno 17342 bound_to 10162
  139.4798  144.5853  151.7863 LP  0  0  0  0  0  0  0  0  0  0  0  0  # atno 17343 bound_to 10162
  157.2876  130.6780  149.6097 LP  0  0  0  0  0  0  0  0  0  0  0  0  # atno 17370 bound_to 10713
  155.9666  130.4430  150.5406 LP  0  0  0  0  0  0  0  0  0  0  0  0  # atno 17371 bound_to 10713
  139.8819  134.9041  156.2869 LP  0  0  0  0  0  0  0  0  0  0  0  0  # atno 17394 bound_to 11000
  140.9891  133.7220  156.0786 LP  0  0  0  0  0  0  0  0  0  0  0  0  # atno 17395 bound_to 11000

$$$$
