AV-unprocessed.smi:458|AV-procd|sdf|2620|dock9
  -GOLD-   2262023 23D 1   1.00000     0.00000
 Structure written by MMmdl.
 36 38  0  0  0  0  0  0  0  0  1 V2000
  152.1709  137.4502  154.7474 O   0  0  0  0  0  0  0  0  0  0  0  0
  152.4178  138.7425  155.2571 C   0  0  0  0  0  0  0  0  0  0  0  0
  151.1820  139.5871  155.3405 C   0  0  0  0  0  0  0  0  0  0  0  0
  150.4968  139.9306  154.2491 N   0  0  0  0  0  0  0  0  0  0  0  0
  149.4486  140.6659  154.7655 C   0  0  0  0  0  0  0  0  0  0  0  0
  148.3683  141.3055  154.1161 C   0  0  0  0  0  0  0  0  0  0  0  0
  147.3981  142.0036  154.8643 C   0  0  0  0  0  0  0  0  0  0  0  0
  147.4923  142.0702  156.2695 C   0  0  0  0  0  0  0  0  0  0  0  0
  148.5609  141.4402  156.9359 C   0  0  0  0  0  0  0  0  0  0  0  0
  149.5297  140.7482  156.1842 C   0  0  0  0  0  0  0  0  0  0  0  0
  150.6815  140.0420  156.5188 N   0  0  0  0  0  0  0  0  0  0  0  0
  151.1977  139.8415  157.8681 C   0  0  0  0  0  0  0  0  0  0  0  0
  152.6317  140.3816  158.0497 C   0  0  2  0  0  0  0  0  0  0  0  0
  153.5663  139.3239  157.9677 O   0  0  0  0  0  0  0  0  0  0  0  0
  152.7649  141.1659  159.3457 C   0  0  0  0  0  0  0  0  0  0  0  0
  152.0424  142.3656  159.5219 C   0  0  0  0  0  0  0  0  0  0  0  0
  152.1557  143.0923  160.7233 C   0  0  0  0  0  0  0  0  0  0  0  0
  152.9900  142.6223  161.7557 C   0  0  0  0  0  0  0  0  0  0  0  0
  153.0980  143.3211  162.9104 F   0  0  0  0  0  0  0  0  0  0  0  0
  153.7101  141.4242  161.5872 C   0  0  0  0  0  0  0  0  0  0  0  0
  153.5973  140.6972  160.3863 C   0  0  0  0  0  0  0  0  0  0  0  0
  151.3186  137.4457  154.3398 H   0  0  0  0  0  0  0  0  0  0  0  0
  152.8512  138.6410  156.2526 H   0  0  0  0  0  0  0  0  0  0  0  0
  153.1664  139.2441  154.6438 H   0  0  0  0  0  0  0  0  0  0  0  0
  148.2858  141.2578  153.0404 H   0  0  0  0  0  0  0  0  0  0  0  0
  146.5765  142.4889  154.3580 H   0  0  0  0  0  0  0  0  0  0  0  0
  146.7436  142.6050  156.8352 H   0  0  0  0  0  0  0  0  0  0  0  0
  148.6343  141.4889  158.0120 H   0  0  0  0  0  0  0  0  0  0  0  0
  150.5228  140.3459  158.5605 H   0  0  0  0  0  0  0  0  0  0  0  0
  151.1596  138.7841  158.1263 H   0  0  0  0  0  0  0  0  0  0  0  0
  152.8629  141.0552  157.2242 H   0  0  0  0  0  0  0  0  0  0  0  0
  153.3752  138.7009  158.6517 H   0  0  0  0  0  0  0  0  0  0  0  0
  151.3971  142.7330  158.7372 H   0  0  0  0  0  0  0  0  0  0  0  0
  151.6012  144.0101  160.8535 H   0  0  0  0  0  0  0  0  0  0  0  0
  154.3482  141.0615  162.3796 H   0  0  0  0  0  0  0  0  0  0  0  0
  154.1504  139.7769  160.2672 H   0  0  0  0  0  0  0  0  0  0  0  0
  1  2  1  0  0  0  0
  1 22  1  0  0  0  0
  2  3  1  0  0  0  0
  2 23  1  0  0  0  0
  2 24  1  0  0  0  0
  3 11  1  0  0  0  0
  3  4  2  0  0  0  0
  4  5  1  0  0  0  0
  5 10  2  0  0  0  0
  5  6  1  0  0  0  0
  6  7  2  0  0  0  0
  6 25  1  0  0  0  0
  7  8  1  0  0  0  0
  7 26  1  0  0  0  0
  8  9  2  0  0  0  0
  8 27  1  0  0  0  0
  9 10  1  0  0  0  0
  9 28  1  0  0  0  0
 10 11  1  0  0  0  0
 11 12  1  0  0  0  0
 12 13  1  0  0  0  0
 12 29  1  0  0  0  0
 12 30  1  0  0  0  0
 13 14  1  0  0  0  0
 13 15  1  0  0  0  0
 13 31  1  0  0  0  0
 14 32  1  0  0  0  0
 15 21  1  0  0  0  0
 15 16  2  0  0  0  0
 16 17  1  0  0  0  0
 16 33  1  0  0  0  0
 17 18  2  0  0  0  0
 17 34  1  0  0  0  0
 18 19  1  0  0  0  0
 18 20  1  0  0  0  0
 20 21  2  0  0  0  0
 20 35  1  0  0  0  0
 21 36  1  0  0  0  0
M  END
> <s_m_source_file>
AV-unprocessed.smi

> <i_m_source_file_index>
458

> <i_lp_mmshare_version>
43012

> <i_f3d_flags>
0

> <s_epik_input>
W2NIXTFbY0hdW2NIXVtjSF1jKGMxMiluKGMobjIpW0NIMl1bT0hdKVtDSDJdW0NASF0oW09IXSljM1tjSF1bY0hdYyhGKVtjSF1bY0hdMw==

> <s_epik_cmdline>
J2VwaWtfcHl0aG9uJywgJy1waCcsICc3LjAnLCAnLXRuJywgJzgnLCAnLW1hJywgJzIwMCcsICctbWV0YWxfYmluZGluZycsICctaW1hZScsICc8aW5maWxlLm1hZT4nLCAnLW9tYWUnLCAnPG91dGZpbGUubWFlPic=

> <r_epik_Ionization_Penalty>
0.0634724

> <r_epik_Ionization_Penalty_Charging>
0

> <r_epik_Ionization_Penalty_Neutral>
0.0634724

> <r_epik_State_Penalty>
0.0551572

> <r_epik_Charging_Adjusted_Penalty>
0.0551572

> <i_epik_Tot_Q>
0

> <i_epik_Tot_abs_Q>
0

> <r_epik_Metal_State_Penalty>
5.78034e-05

> <b_epik_Metal_Only>
0

> <s_lp_Force_Field>
OPLS_2005

> <r_lp_Energy>
12.4444

> <b_lp_Chiralities_Consistent>
1

> <s_lp_Variant>
AV-unprocessed.smi:458-1

> <Gold.Version>
5.8.1

> <Gold.Id.Protein>
6NUR|6NUR_protein|mol2

> <Gold.PLP.Fitness>
54.1801

> <Gold.PLP.PLP>
-47.2231

> <Gold.PLP.part.hbond>
-3.0000

> <Gold.PLP.part.metal>
0.0000

> <Gold.PLP.part.buried>
-3.0516

> <Gold.PLP.part.nonpolar>
-40.8307

> <Gold.PLP.part.repulsive>
0.1367

> <Gold.PLP.ligand.clash>
0.0000

> <Gold.PLP.ligand.torsion>
0.7192

> <Gold.PLP.Chemscore.Hbond>
2.7840

> <Gold.PLP.Chemscore.CHOScore>
0.0000

> <Gold.PLP.Chemscore.Metal>
0.0000

> <Gold.Chemscore.Hbonds>
donor molecule, donor type, donor heavy atom, donor atom, acceptor molecule, acceptor atom, score
      P1  H  7989  7998       L1     4  1.00
      P1  H  7997  8008       L1    14  1.00
      P1  H 10752 10763       L1     1  0.77

> <Gold.PLP.Chemscore.Internal.Correction>
0.0433

> <Gold.Rescore>
     Score         DG    S(hbond)    S(metal)    S(lipo)     H(rot)  DE(clash)    DE(int)     intcor
     16.25     -17.03       1.77        0.00     108.49       2.75       0.10       0.69       ----

> <Gold.Chemscore.Fitness>
16.2478

> <Gold.Chemscore.DG>
-17.0329

> <Gold.Chemscore.ZeroCoef>
-5.4800

> <Gold.Chemscore.Hbond>
1.7663

> <Gold.Chemscore.Metal>
0.0000

> <Gold.Chemscore.Lipo>
108.4904

> <Gold.Chemscore.Internal_Hbond>
0.0000

> <Gold.Chemscore.DEClash>
0.0953

> <Gold.Chemscore.DEInternal>
0.6898

> <Gold.Chemscore.Rot>
2.7500

> <Gold.Chemscore.Internal.Correction>
   9.000000E+99

> <Gold.Chemscore.Hbonds>
donor molecule, donor type, donor heavy atom, donor atom, acceptor molecule, acceptor atom, score
      P1  H  7989  7998       L1     4  0.22
      P1  H  7997  8008       L1    14  0.29
      P1  H 10752 10763       L1     1  0.41

> <Gold.Chemscore.Hbond.Weighted>
-5.8995

> <Gold.Chemscore.Metal.Weighted>
-0.0000

> <Gold.Chemscore.Lipo.Weighted>
-12.6934

> <Gold.Chemscore.Internal_Hbond.Weighted>
0.0000

> <Gold.Chemscore.DEClash.Weighted>
0.0953

> <Gold.Chemscore.DEInternal.Weighted>
0.6898

> <Gold.Chemscore.Rot.Weighted>
7.0399

> <Gold.Chemscore.Internal.Correction.Weighted>
   9.000000E+99

> <Gold.Protein.RotatedTorsions>
[ 6907 6896 6895 6894 ] final  150.95 input  -60.11 | X-H torsion
[ 7974 7965 7964 7962 ] final  158.58 input  175.53 | X-H torsion
[ 8008 7997 7996 7995 ] final  -95.58 input   59.86 | X-H torsion
[ 10167 10162 10161 10158 ] final  176.16 input  -65.29 | X-H torsion
[ 10718 10713 10712 10709 ] final  -21.51 input   66.30 | X-H torsion
[ 10763 10752 10751 10750 ] final   49.17 input  -60.55 | X-H torsion
[ 11005 11000 10999 10996 ] final   80.78 input  -57.11 | X-H torsion

> <Gold.Protein.ActiveResidues>
 VAL166  LYS551  ARG553  GLY616  TRP617  ASP618  TYR619  PRO620  LYS621  CYS622 
 ASP623  PHE694  ASN695  SER759  ASP760  ASP761  ALA762  ILE779  LEU786  VAL792 
 PHE793  MET794  SER795  GLU796  ALA797  LYS798  CYS799  TRP800  GLU811  SER814 

> <Gold.Protein.RotatedAtoms>
  152.1074  133.4282  159.4614 H   0  0  0  0  0  0  0  0  0  0  0  0  # atno 6907 bound_to 6896
  150.6866  134.2689  159.4589 H   0  0  0  0  0  0  0  0  0  0  0  0  # atno 6908 bound_to 6896
  152.0554  134.9627  160.0625 H   0  0  0  0  0  0  0  0  0  0  0  0  # atno 6909 bound_to 6896
  144.7837  139.7499  143.6249 H   0  0  0  0  0  0  0  0  0  0  0  0  # atno 7974 bound_to 7965
  154.7632  140.0479  157.0991 H   0  0  0  0  0  0  0  0  0  0  0  0  # atno 8008 bound_to 7997
  154.9912  140.3113  155.4886 H   0  0  0  0  0  0  0  0  0  0  0  0  # atno 8009 bound_to 7997
  156.2908  140.2218  156.5016 H   0  0  0  0  0  0  0  0  0  0  0  0  # atno 8010 bound_to 7997
  139.5204  144.2947  152.0432 H   0  0  0  0  0  0  0  0  0  0  0  0  # atno 10167 bound_to 10162
  156.5171  130.4623  149.6617 H   0  0  0  0  0  0  0  0  0  0  0  0  # atno 10718 bound_to 10713
  152.9788  135.5920  154.4045 H   0  0  0  0  0  0  0  0  0  0  0  0  # atno 10763 bound_to 10752
  154.3687  135.2767  155.2281 H   0  0  0  0  0  0  0  0  0  0  0  0  # atno 10764 bound_to 10752
  154.4246  135.6051  153.6085 H   0  0  0  0  0  0  0  0  0  0  0  0  # atno 10765 bound_to 10752
  139.9122  134.7947  156.1955 H   0  0  0  0  0  0  0  0  0  0  0  0  # atno 11005 bound_to 11000
  146.2059  139.5383  142.9713 LP  0  0  0  0  0  0  0  0  0  0  0  0  # atno 17320 bound_to 7965
  145.5979  141.0360  143.2034 LP  0  0  0  0  0  0  0  0  0  0  0  0  # atno 17321 bound_to 7965
  140.2397  144.4282  150.6265 LP  0  0  0  0  0  0  0  0  0  0  0  0  # atno 17342 bound_to 10162
  140.6299  143.2186  151.6518 LP  0  0  0  0  0  0  0  0  0  0  0  0  # atno 17343 bound_to 10162
  156.3185  130.7267  151.2174 LP  0  0  0  0  0  0  0  0  0  0  0  0  # atno 17370 bound_to 10713
  157.7442  131.0462  150.4882 LP  0  0  0  0  0  0  0  0  0  0  0  0  # atno 17371 bound_to 10713
  141.0557  133.6866  156.1856 LP  0  0  0  0  0  0  0  0  0  0  0  0  # atno 17394 bound_to 11000
  140.6740  134.4838  157.5588 LP  0  0  0  0  0  0  0  0  0  0  0  0  # atno 17395 bound_to 11000

$$$$
