AV-unprocessed.smi:1362|AV-procd|sdf|5562|dock2
  -GOLD-   22720 5153D 1   1.00000     0.00000
 Structure written by MMmdl.
 38 38  0  0  0  0  0  0  0  0  2 V2000
  153.4309  142.6921  162.9173 C   0  0  0  0  0  0  0  0  0  0  0  0
  152.8586  142.8164  161.5215 C   0  0  0  0  0  0  0  0  0  0  0  0
  152.2450  143.8885  161.1909 N   0  0  0  0  0  0  0  0  0  0  0  0
  151.7102  144.0078  159.8970 C   0  0  0  0  0  0  0  0  0  0  0  0
  150.9949  145.3123  159.5914 C   0  0  0  0  0  0  0  0  0  0  0  0
  151.8347  143.0004  158.9862 C   0  0  0  0  0  0  0  0  0  0  0  0
  151.2666  143.0794  157.5688 C   0  0  0  0  0  0  0  0  0  0  0  0
  150.3930  141.9052  157.1190 C   0  0  0  0  0  0  0  0  0  0  0  0
  150.2516  140.9130  157.8344 O   0  0  0  0  0  0  0  0  0  0  0  0
  149.8135  142.0355  155.9157 N   0  0  0  0  0  0  0  0  0  0  0  0
  148.9380  141.0518  155.2799 C   0  0  2  0  0  0  0  0  0  0  0  0
  149.8016  140.0823  154.4498 C   0  0  0  0  0  0  0  0  0  0  0  0
  147.8456  141.7705  154.4441 C   0  0  0  0  0  0  0  0  0  0  0  0
  146.7093  142.3284  155.3241 C   0  0  0  0  0  0  0  0  0  0  0  0
  147.2492  140.8635  153.3525 C   0  0  0  0  0  0  0  0  0  0  0  0
  152.5549  141.7846  159.4044 C   0  0  0  0  0  0  0  0  0  0  0  0
  152.7095  140.8524  158.6161 O   0  0  0  0  0  0  0  0  0  0  0  0
  153.0367  141.7417  160.6794 N   0  5  0  0  0  0  0  0  0  0  0  0
  153.4054  143.6498  163.4387 H   0  0  0  0  0  0  0  0  0  0  0  0
  154.4673  142.3551  162.8763 H   0  0  0  0  0  0  0  0  0  0  0  0
  152.8546  141.9703  163.4965 H   0  0  0  0  0  0  0  0  0  0  0  0
  149.9352  145.1315  159.4115 H   0  0  0  0  0  0  0  0  0  0  0  0
  151.4221  145.7877  158.7083 H   0  0  0  0  0  0  0  0  0  0  0  0
  151.0796  146.0141  160.4219 H   0  0  0  0  0  0  0  0  0  0  0  0
  150.7011  144.0019  157.4342 H   0  0  0  0  0  0  0  0  0  0  0  0
  152.0997  143.1628  156.8706 H   0  0  0  0  0  0  0  0  0  0  0  0
  149.9883  142.8860  155.4006 H   0  0  0  0  0  0  0  0  0  0  0  0
  148.4352  140.4765  156.0597 H   0  0  0  0  0  0  0  0  0  0  0  0
  149.2148  139.2530  154.0564 H   0  0  0  0  0  0  0  0  0  0  0  0
  150.5952  139.6439  155.0558 H   0  0  0  0  0  0  0  0  0  0  0  0
  150.2722  140.5912  153.6081 H   0  0  0  0  0  0  0  0  0  0  0  0
  148.3101  142.6200  153.9412 H   0  0  0  0  0  0  0  0  0  0  0  0
  146.2244  141.5344  155.8927 H   0  0  0  0  0  0  0  0  0  0  0  0
  145.9447  142.8145  154.7174 H   0  0  0  0  0  0  0  0  0  0  0  0
  147.0701  143.0728  156.0338 H   0  0  0  0  0  0  0  0  0  0  0  0
  146.8244  139.9547  153.7800 H   0  0  0  0  0  0  0  0  0  0  0  0
  147.9957  140.5714  152.6148 H   0  0  0  0  0  0  0  0  0  0  0  0
  146.4549  141.3754  152.8087 H   0  0  0  0  0  0  0  0  0  0  0  0
  1  2  1  0  0  0  0
  1 19  1  0  0  0  0
  1 20  1  0  0  0  0
  1 21  1  0  0  0  0
  2 18  1  0  0  0  0
  2  3  2  0  0  0  0
  3  4  1  0  0  0  0
  4  5  1  0  0  0  0
  4  6  2  0  0  0  0
  5 22  1  0  0  0  0
  5 23  1  0  0  0  0
  5 24  1  0  0  0  0
  6  7  1  0  0  0  0
  6 16  1  0  0  0  0
  7  8  1  0  0  0  0
  7 25  1  0  0  0  0
  7 26  1  0  0  0  0
  8  9  2  0  0  0  0
  8 10  1  0  0  0  0
 10 11  1  0  0  0  0
 10 27  1  0  0  0  0
 11 12  1  0  0  0  0
 11 13  1  0  0  0  0
 11 28  1  0  0  0  0
 12 29  1  0  0  0  0
 12 30  1  0  0  0  0
 12 31  1  0  0  0  0
 13 14  1  0  0  0  0
 13 15  1  0  0  0  0
 13 32  1  0  0  0  0
 14 33  1  0  0  0  0
 14 34  1  0  0  0  0
 14 35  1  0  0  0  0
 15 36  1  0  0  0  0
 15 37  1  0  0  0  0
 15 38  1  0  0  0  0
 16 17  2  0  0  0  0
 16 18  1  0  0  0  0
M  CHG  1  18  -1
M  END
> <s_m_source_file>
AV-unprocessed.smi

> <i_m_source_file_index>
1362

> <i_lp_mmshare_version>
43012

> <i_f3d_flags>
0

> <s_epik_input>
W0NIM11jMW5jKFtDSDNdKWMoYyg9TylbbkhdMSlbQ0gyXUMoPU8pW05IXVtDQEhdKFtDSDNdKVtDSF0oW0NIM10pW0NIM10=

> <s_epik_cmdline>
J2VwaWtfcHl0aG9uJywgJy1waCcsICc3LjAnLCAnLXRuJywgJzgnLCAnLW1hJywgJzIwMCcsICctbWV0YWxfYmluZGluZycsICctaW1hZScsICc8aW5maWxlLm1hZT4nLCAnLW9tYWUnLCAnPG91dGZpbGUubWFlPic=

> <r_lp_tautomer_probability>
0.839158

> <r_epik_Ionization_Penalty>
6.62204

> <r_epik_Ionization_Penalty_Charging>
7.30593e-08

> <r_epik_Ionization_Penalty_Neutral>
6.62204

> <r_epik_State_Penalty>
4.44062

> <r_epik_Charging_Adjusted_Penalty>
4.44062

> <i_epik_Tot_Q>
-1

> <i_epik_Tot_abs_Q>
1

> <r_epik_Metal_State_Penalty>
0.802984

> <b_epik_Metal_Only>
1

> <s_lp_Force_Field>
OPLS_2005

> <r_lp_Energy>
10.6651

> <b_lp_Chiralities_Consistent>
1

> <s_lp_Variant>
AV-unprocessed.smi:1362-5

> <Gold.Version>
5.8.1

> <Gold.Id.Protein>
6NUR|6NUR_protein|mol2

> <Gold.PLP.Fitness>
40.8742

> <Gold.PLP.PLP>
-41.1090

> <Gold.PLP.part.hbond>
-1.0000

> <Gold.PLP.part.metal>
0.0000

> <Gold.PLP.part.buried>
-5.7142

> <Gold.PLP.part.nonpolar>
-35.1857

> <Gold.PLP.part.repulsive>
0.2709

> <Gold.PLP.ligand.clash>
0.0000

> <Gold.PLP.ligand.torsion>
0.8762

> <Gold.PLP.Chemscore.Hbond>
0.4914

> <Gold.PLP.Chemscore.CHOScore>
0.0000

> <Gold.PLP.Chemscore.Metal>
0.0000

> <Gold.Chemscore.Hbonds>
donor molecule, donor type, donor heavy atom, donor atom, acceptor molecule, acceptor atom, score
      L1  H    10    27       P1  8028  0.36

> <Gold.PLP.Chemscore.Internal.Correction>
0.0434

> <Gold.Rescore>
     Score         DG    S(hbond)    S(metal)    S(lipo)     H(rot)  DE(clash)    DE(int)     intcor
     10.39     -13.38       0.82        0.00      80.08       1.64       1.54       1.45       ----

> <Gold.Chemscore.Fitness>
10.3917

> <Gold.Chemscore.DG>
-13.3772

> <Gold.Chemscore.ZeroCoef>
-5.4800

> <Gold.Chemscore.Hbond>
0.8189

> <Gold.Chemscore.Metal>
0.0000

> <Gold.Chemscore.Lipo>
80.0766

> <Gold.Chemscore.Internal_Hbond>
0.0000

> <Gold.Chemscore.DEClash>
1.5403

> <Gold.Chemscore.DEInternal>
1.4452

> <Gold.Chemscore.Rot>
1.6433

> <Gold.Chemscore.Internal.Correction>
   9.000000E+99

> <Gold.Chemscore.Hbonds>
donor molecule, donor type, donor heavy atom, donor atom, acceptor molecule, acceptor atom, score
      L1  H    10    27       P1  8028  0.34

> <Gold.Chemscore.Hbond.Weighted>
-2.7352

> <Gold.Chemscore.Metal.Weighted>
-0.0000

> <Gold.Chemscore.Lipo.Weighted>
-9.3690

> <Gold.Chemscore.Internal_Hbond.Weighted>
0.0000

> <Gold.Chemscore.DEClash.Weighted>
1.5403

> <Gold.Chemscore.DEInternal.Weighted>
1.4452

> <Gold.Chemscore.Rot.Weighted>
4.2069

> <Gold.Chemscore.Internal.Correction.Weighted>
   9.000000E+99

> <Gold.Protein.RotatedTorsions>
[ 6907 6896 6895 6894 ] final -147.02 input  -60.11 | X-H torsion
[ 7974 7965 7964 7962 ] final    7.49 input  175.53 | X-H torsion
[ 8008 7997 7996 7995 ] final    9.33 input   59.86 | X-H torsion
[ 10167 10162 10161 10158 ] final -110.72 input  -65.29 | X-H torsion
[ 10718 10713 10712 10709 ] final   24.49 input   66.30 | X-H torsion
[ 10763 10752 10751 10750 ] final  114.99 input  -60.55 | X-H torsion
[ 11005 11000 10999 10996 ] final  115.81 input  -57.11 | X-H torsion

> <Gold.Protein.ActiveResidues>
 VAL166  LYS551  ARG553  GLY616  TRP617  ASP618  TYR619  PRO620  LYS621  CYS622 
 ASP623  PHE694  ASN695  SER759  ASP760  ASP761  ALA762  ILE779  LEU786  VAL792 
 PHE793  MET794  SER795  GLU796  ALA797  LYS798  CYS799  TRP800  GLU811  SER814 

> <Gold.Protein.RotatedAtoms>
  151.1498  133.4915  159.2595 H   0  0  0  0  0  0  0  0  0  0  0  0  # atno 6907 bound_to 6896
  151.1566  135.0253  159.8702 H   0  0  0  0  0  0  0  0  0  0  0  0  # atno 6908 bound_to 6896
  152.5463  134.1376  159.8519 H   0  0  0  0  0  0  0  0  0  0  0  0  # atno 6909 bound_to 6896
  146.2426  140.0076  142.8410 H   0  0  0  0  0  0  0  0  0  0  0  0  # atno 7974 bound_to 7965
  154.7786  140.2815  155.6081 H   0  0  0  0  0  0  0  0  0  0  0  0  # atno 8008 bound_to 7997
  156.2946  140.2627  156.2534 H   0  0  0  0  0  0  0  0  0  0  0  0  # atno 8009 bound_to 7997
  154.9812  140.0375  157.2268 H   0  0  0  0  0  0  0  0  0  0  0  0  # atno 8010 bound_to 7997
  140.1414  143.4276  152.1559 H   0  0  0  0  0  0  0  0  0  0  0  0  # atno 10167 bound_to 10162
  157.1805  130.6800  149.6111 H   0  0  0  0  0  0  0  0  0  0  0  0  # atno 10718 bound_to 10713
  153.5155  135.3609  155.2607 H   0  0  0  0  0  0  0  0  0  0  0  0  # atno 10763 bound_to 10752
  154.8739  135.4033  154.3320 H   0  0  0  0  0  0  0  0  0  0  0  0  # atno 10764 bound_to 10752
  153.3980  135.7074  153.6513 H   0  0  0  0  0  0  0  0  0  0  0  0  # atno 10765 bound_to 10752
  139.9021  134.9589  156.7103 H   0  0  0  0  0  0  0  0  0  0  0  0  # atno 11005 bound_to 11000
  145.1357  140.9543  143.4518 LP  0  0  0  0  0  0  0  0  0  0  0  0  # atno 17320 bound_to 7965
  145.0344  139.3313  143.6008 LP  0  0  0  0  0  0  0  0  0  0  0  0  # atno 17321 bound_to 7965
  139.5470  144.7307  151.4552 LP  0  0  0  0  0  0  0  0  0  0  0  0  # atno 17342 bound_to 10162
  140.6758  143.8193  150.7057 LP  0  0  0  0  0  0  0  0  0  0  0  0  # atno 17343 bound_to 10162
  155.9725  130.4648  150.6232 LP  0  0  0  0  0  0  0  0  0  0  0  0  # atno 17370 bound_to 10713
  157.3957  131.0802  151.1353 LP  0  0  0  0  0  0  0  0  0  0  0  0  # atno 17371 bound_to 10713
  140.7081  133.9247  155.8067 LP  0  0  0  0  0  0  0  0  0  0  0  0  # atno 17394 bound_to 11000
  141.0321  134.0741  157.4002 LP  0  0  0  0  0  0  0  0  0  0  0  0  # atno 17395 bound_to 11000

$$$$
