AV-unprocessed.smi:2570|AV-procd|sdf|10106|dock9
  -GOLD-   2272014123D 1   1.00000     0.00000
 Structure written by MMmdl.
 32 33  0  0  0  0  0  0  0  0  1 V2000
  145.7134  142.7218  154.8754 C   0  0  0  0  0  0  0  0  0  0  0  0
  146.5216  142.4427  156.0171 O   0  0  0  0  0  0  0  0  0  0  0  0
  147.7492  141.8476  155.7830 C   0  0  0  0  0  0  0  0  0  0  0  0
  147.9386  141.1222  154.5443 C   0  0  0  0  0  0  0  0  0  0  0  0
  149.1324  140.5386  154.3028 C   0  0  0  0  0  0  0  0  0  0  0  0
  150.2366  140.6197  155.2586 C   0  0  0  0  0  0  0  0  0  0  0  0
  151.3348  140.0981  155.0662 O   0  0  0  0  0  0  0  0  0  0  0  0
  149.9366  141.3265  156.3889 N   0  0  0  0  0  0  0  0  0  0  0  0
  150.9237  141.5098  157.4599 C   0  0  0  0  0  0  0  0  0  0  0  0
  150.8351  142.9086  158.1100 C   0  0  2  0  0  0  0  0  0  0  0  0
  151.3450  143.8712  157.2079 O   0  0  0  0  0  0  0  0  0  0  0  0
  151.5697  142.9455  159.4442 C   0  0  0  0  0  0  0  0  0  0  0  0
  152.2488  141.7917  159.8930 C   0  0  0  0  0  0  0  0  0  0  0  0
  152.9403  141.8028  161.1196 C   0  0  0  0  0  0  0  0  0  0  0  0
  152.9593  142.9691  161.9071 C   0  0  0  0  0  0  0  0  0  0  0  0
  153.6229  142.9795  163.0873 F   0  0  0  0  0  0  0  0  0  0  0  0
  152.2893  144.1254  161.4648 C   0  0  0  0  0  0  0  0  0  0  0  0
  151.5982  144.1176  160.2373 C   0  0  0  0  0  0  0  0  0  0  0  0
  150.9677  145.2445  159.8271 F   0  0  0  0  0  0  0  0  0  0  0  0
  148.7165  141.9292  156.6411 N   0  0  0  0  0  0  0  0  0  0  0  0
  144.7815  143.1826  155.2024 H   0  0  0  0  0  0  0  0  0  0  0  0
  145.4526  141.8131  154.3298 H   0  0  0  0  0  0  0  0  0  0  0  0
  146.2008  143.4210  154.1936 H   0  0  0  0  0  0  0  0  0  0  0  0
  147.1306  141.0562  153.8308 H   0  0  0  0  0  0  0  0  0  0  0  0
  149.2777  139.9968  153.3798 H   0  0  0  0  0  0  0  0  0  0  0  0
  150.7463  140.7455  158.2190 H   0  0  0  0  0  0  0  0  0  0  0  0
  151.9354  141.3175  157.0973 H   0  0  0  0  0  0  0  0  0  0  0  0
  149.7915  143.1661  158.2941 H   0  0  0  0  0  0  0  0  0  0  0  0
  150.7087  144.0064  156.5224 H   0  0  0  0  0  0  0  0  0  0  0  0
  152.2441  140.8911  159.2966 H   0  0  0  0  0  0  0  0  0  0  0  0
  153.4570  140.9158  161.4557 H   0  0  0  0  0  0  0  0  0  0  0  0
  152.3069  145.0215  162.0673 H   0  0  0  0  0  0  0  0  0  0  0  0
  1  2  1  0  0  0  0
  1 21  1  0  0  0  0
  1 22  1  0  0  0  0
  1 23  1  0  0  0  0
  2  3  1  0  0  0  0
  3 20  2  0  0  0  0
  3  4  1  0  0  0  0
  4  5  2  0  0  0  0
  4 24  1  0  0  0  0
  5  6  1  0  0  0  0
  5 25  1  0  0  0  0
  6  7  2  0  0  0  0
  6  8  1  0  0  0  0
  8  9  1  0  0  0  0
  8 20  1  0  0  0  0
  9 10  1  0  0  0  0
  9 26  1  0  0  0  0
  9 27  1  0  0  0  0
 10 11  1  0  0  0  0
 10 12  1  0  0  0  0
 10 28  1  0  0  0  0
 11 29  1  0  0  0  0
 12 18  1  0  0  0  0
 12 13  2  0  0  0  0
 13 14  1  0  0  0  0
 13 30  1  0  0  0  0
 14 15  2  0  0  0  0
 14 31  1  0  0  0  0
 15 16  1  0  0  0  0
 15 17  1  0  0  0  0
 17 18  2  0  0  0  0
 17 32  1  0  0  0  0
 18 19  1  0  0  0  0
M  END
> <s_m_source_file>
AV-unprocessed.smi

> <i_m_source_file_index>
2570

> <i_lp_mmshare_version>
43012

> <i_f3d_flags>
0

> <s_epik_input>
W0NIM11PYzFbY0hdW2NIXWMoPU8pbihuMSlbQ0gyXVtDQEhdKFtPSF0pYzJbY0hdW2NIXWMoRilbY0hdYzJG

> <s_epik_cmdline>
J2VwaWtfcHl0aG9uJywgJy1waCcsICc3LjAnLCAnLXRuJywgJzgnLCAnLW1hJywgJzIwMCcsICctbWV0YWxfYmluZGluZycsICctaW1hZScsICc8aW5maWxlLm1hZT4nLCAnLW9tYWUnLCAnPG91dGZpbGUubWFlPic=

> <r_lp_tautomer_probability>
1

> <r_epik_Ionization_Penalty>
6.40224e-06

> <r_epik_Ionization_Penalty_Charging>
4.38647e-06

> <r_epik_Ionization_Penalty_Neutral>
2.01577e-06

> <r_epik_State_Penalty>
-0

> <r_epik_Charging_Adjusted_Penalty>
4.38647e-06

> <i_epik_Tot_Q>
0

> <i_epik_Tot_abs_Q>
0

> <r_epik_Metal_State_Penalty>
-0

> <b_epik_Metal_Only>
0

> <s_lp_Force_Field>
OPLS_2005

> <r_lp_Energy>
30.8929

> <b_lp_Chiralities_Consistent>
1

> <s_lp_Variant>
AV-unprocessed.smi:2570-1

> <Gold.Version>
5.8.1

> <Gold.Id.Protein>
6NUR|6NUR_protein|mol2

> <Gold.PLP.Fitness>
50.5387

> <Gold.PLP.PLP>
-46.0191

> <Gold.PLP.part.hbond>
-2.0000

> <Gold.PLP.part.metal>
0.0000

> <Gold.PLP.part.buried>
-4.9931

> <Gold.PLP.part.nonpolar>
-39.1103

> <Gold.PLP.part.repulsive>
1.1739

> <Gold.PLP.ligand.clash>
0.0000

> <Gold.PLP.ligand.torsion>
0.7469

> <Gold.PLP.Chemscore.Hbond>
2.0000

> <Gold.PLP.Chemscore.CHOScore>
0.0000

> <Gold.PLP.Chemscore.Metal>
0.0000

> <Gold.Chemscore.Hbonds>
donor molecule, donor type, donor heavy atom, donor atom, acceptor molecule, acceptor atom, score
      L1  H    11    29       P1  8028  0.78
      P1  H  7989  7998       L1     7  0.80

> <Gold.PLP.Chemscore.Internal.Correction>
0.0134

> <Gold.Rescore>
     Score         DG    S(hbond)    S(metal)    S(lipo)     H(rot)  DE(clash)    DE(int)     intcor
     14.82     -16.21       1.90        0.00      91.07       2.45       0.51       0.87       ----

> <Gold.Chemscore.Fitness>
14.8244

> <Gold.Chemscore.DG>
-16.2141

> <Gold.Chemscore.ZeroCoef>
-5.4800

> <Gold.Chemscore.Hbond>
1.9039

> <Gold.Chemscore.Metal>
0.0000

> <Gold.Chemscore.Lipo>
91.0723

> <Gold.Chemscore.Internal_Hbond>
0.0000

> <Gold.Chemscore.DEClash>
0.5149

> <Gold.Chemscore.DEInternal>
0.8748

> <Gold.Chemscore.Rot>
2.4533

> <Gold.Chemscore.Internal.Correction>
   9.000000E+99

> <Gold.Chemscore.Hbonds>
donor molecule, donor type, donor heavy atom, donor atom, acceptor molecule, acceptor atom, score
      L1  H    11    29       P1  8028  0.76
      P1  H  7989  7998       L1     7  0.12

> <Gold.Chemscore.Hbond.Weighted>
-6.3590

> <Gold.Chemscore.Metal.Weighted>
-0.0000

> <Gold.Chemscore.Lipo.Weighted>
-10.6555

> <Gold.Chemscore.Internal_Hbond.Weighted>
0.0000

> <Gold.Chemscore.DEClash.Weighted>
0.5149

> <Gold.Chemscore.DEInternal.Weighted>
0.8748

> <Gold.Chemscore.Rot.Weighted>
6.2804

> <Gold.Chemscore.Internal.Correction.Weighted>
   9.000000E+99

> <Gold.Protein.RotatedTorsions>
[ 6907 6896 6895 6894 ] final -124.97 input  -60.11 | X-H torsion
[ 7974 7965 7964 7962 ] final -169.85 input  175.53 | X-H torsion
[ 8008 7997 7996 7995 ] final   89.36 input   59.86 | X-H torsion
[ 10167 10162 10161 10158 ] final  -50.90 input  -65.29 | X-H torsion
[ 10718 10713 10712 10709 ] final   53.39 input   66.30 | X-H torsion
[ 10763 10752 10751 10750 ] final  142.16 input  -60.55 | X-H torsion
[ 11005 11000 10999 10996 ] final  112.63 input  -57.11 | X-H torsion

> <Gold.Protein.ActiveResidues>
 VAL166  LYS551  ARG553  GLY616  TRP617  ASP618  TYR619  PRO620  LYS621  CYS622 
 ASP623  PHE694  ASN695  SER759  ASP760  ASP761  ALA762  ILE779  LEU786  VAL792 
 PHE793  MET794  SER795  GLU796  ALA797  LYS798  CYS799  TRP800  GLU811  SER814 

> <Gold.Protein.RotatedAtoms>
  150.8821  133.7358  159.2928 H   0  0  0  0  0  0  0  0  0  0  0  0  # atno 6907 bound_to 6896
  151.4935  135.1057  159.9819 H   0  0  0  0  0  0  0  0  0  0  0  0  # atno 6908 bound_to 6896
  152.4766  133.8108  159.7058 H   0  0  0  0  0  0  0  0  0  0  0  0  # atno 6909 bound_to 6896
  144.7179  140.2159  143.6322 H   0  0  0  0  0  0  0  0  0  0  0  0  # atno 7974 bound_to 7965
  155.9990  140.3361  155.6827 H   0  0  0  0  0  0  0  0  0  0  0  0  # atno 8008 bound_to 7997
  155.6316  140.0685  157.2665 H   0  0  0  0  0  0  0  0  0  0  0  0  # atno 8009 bound_to 7997
  154.4243  140.1758  156.1466 H   0  0  0  0  0  0  0  0  0  0  0  0  # atno 8010 bound_to 7997
  140.6615  143.2640  151.4426 H   0  0  0  0  0  0  0  0  0  0  0  0  # atno 10167 bound_to 10162
  157.5162  130.8534  149.8499 H   0  0  0  0  0  0  0  0  0  0  0  0  # atno 10718 bound_to 10713
  153.9513  135.2969  155.3438 H   0  0  0  0  0  0  0  0  0  0  0  0  # atno 10763 bound_to 10752
  154.7425  135.5018  153.9150 H   0  0  0  0  0  0  0  0  0  0  0  0  # atno 10764 bound_to 10752
  153.0993  135.6730  153.9812 H   0  0  0  0  0  0  0  0  0  0  0  0  # atno 10765 bound_to 10752
  139.8932  134.9533  156.6614 H   0  0  0  0  0  0  0  0  0  0  0  0  # atno 11005 bound_to 11000
  145.8547  139.2192  143.1752 LP  0  0  0  0  0  0  0  0  0  0  0  0  # atno 17320 bound_to 7965
  146.0229  140.8331  142.9914 LP  0  0  0  0  0  0  0  0  0  0  0  0  # atno 17321 bound_to 7965
  139.5850  144.1624  152.2017 LP  0  0  0  0  0  0  0  0  0  0  0  0  # atno 17342 bound_to 10162
  140.0961  144.5579  150.7021 LP  0  0  0  0  0  0  0  0  0  0  0  0  # atno 17343 bound_to 10162
  156.0322  130.3761  150.1657 LP  0  0  0  0  0  0  0  0  0  0  0  0  # atno 17370 bound_to 10713
  156.9846  130.9874  151.3429 LP  0  0  0  0  0  0  0  0  0  0  0  0  # atno 17371 bound_to 10713
  140.7444  133.8950  155.8301 LP  0  0  0  0  0  0  0  0  0  0  0  0  # atno 17394 bound_to 11000
  141.0052  134.1096  157.4278 LP  0  0  0  0  0  0  0  0  0  0  0  0  # atno 17395 bound_to 11000

$$$$
