AV-unprocessed.smi:2453|AV-procd|sdf|9687|dock2
  -GOLD-   2272013323D 1   1.00000     0.00000
 Structure written by MMmdl.
 40 41  0  0  0  0  0  0  0  0  1 V2000
  150.4210  136.3399  154.8195 C   0  0  0  0  0  0  0  0  0  0  0  0
  150.6700  134.9134  155.2775 C   0  0  0  0  0  0  0  0  0  0  0  0
  151.6410  134.6517  156.2680 C   0  0  0  0  0  0  0  0  0  0  0  0
  151.9197  133.4163  156.7319 N   0  0  0  0  0  0  0  0  0  0  0  0
  151.2244  132.3808  156.2191 C   0  0  0  0  0  0  0  0  0  0  0  0
  150.2342  132.5266  155.2284 C   0  0  0  0  0  0  0  0  0  0  0  0
  149.9525  133.8219  154.7306 C   0  0  0  0  0  0  0  0  0  0  0  0
  148.9545  134.0806  153.7486 N   0  0  0  0  0  0  0  0  0  0  0  0
  147.8671  133.3527  153.4407 C   0  0  0  0  0  0  0  0  0  0  0  0
  147.5726  132.2667  153.9398 O   0  0  0  0  0  0  0  0  0  0  0  0
  147.1353  133.9593  152.4943 N   0  0  0  0  0  0  0  0  0  0  0  0
  145.8827  133.4617  151.9253 C   0  0  2  0  0  0  0  0  0  0  0  0
  146.0451  131.9601  151.6146 C   0  0  0  0  0  0  0  0  0  0  0  0
  144.7912  131.3763  150.9501 C   0  0  0  0  0  0  0  0  0  0  0  0
  144.4321  132.1596  149.6814 C   0  0  0  0  0  0  0  0  0  0  0  0
  144.2464  133.6522  149.9909 C   0  0  0  0  0  0  0  0  0  0  0  0
  145.4961  134.2710  150.6587 C   0  0  1  0  0  0  0  0  0  0  0  0
  145.2723  135.7683  150.9688 C   0  0  0  0  0  0  0  0  0  0  0  0
  145.1864  136.5225  149.7778 O   0  0  0  0  0  0  0  0  0  0  0  0
  151.0752  137.0428  155.3361 H   0  0  0  0  0  0  0  0  0  0  0  0
  149.3894  136.6295  155.0208 H   0  0  0  0  0  0  0  0  0  0  0  0
  150.6047  136.4332  153.7489 H   0  0  0  0  0  0  0  0  0  0  0  0
  152.2124  135.4576  156.7050 H   0  0  0  0  0  0  0  0  0  0  0  0
  151.4583  131.4043  156.6167 H   0  0  0  0  0  0  0  0  0  0  0  0
  149.7058  131.6508  154.8852 H   0  0  0  0  0  0  0  0  0  0  0  0
  149.1115  134.9017  153.1827 H   0  0  0  0  0  0  0  0  0  0  0  0
  147.4641  134.8470  152.1434 H   0  0  0  0  0  0  0  0  0  0  0  0
  145.0718  133.5667  152.6487 H   0  0  0  0  0  0  0  0  0  0  0  0
  146.9028  131.8086  150.9573 H   0  0  0  0  0  0  0  0  0  0  0  0
  146.2604  131.4111  152.5322 H   0  0  0  0  0  0  0  0  0  0  0  0
  144.9533  130.3261  150.7060 H   0  0  0  0  0  0  0  0  0  0  0  0
  143.9556  131.4069  151.6505 H   0  0  0  0  0  0  0  0  0  0  0  0
  145.2190  132.0346  148.9363 H   0  0  0  0  0  0  0  0  0  0  0  0
  143.5205  131.7553  149.2407 H   0  0  0  0  0  0  0  0  0  0  0  0
  144.0124  134.1793  149.0655 H   0  0  0  0  0  0  0  0  0  0  0  0
  143.3809  133.7803  150.6427 H   0  0  0  0  0  0  0  0  0  0  0  0
  146.3249  134.1956  149.9522 H   0  0  0  0  0  0  0  0  0  0  0  0
  144.3630  135.9101  151.5537 H   0  0  0  0  0  0  0  0  0  0  0  0
  146.0943  136.1801  151.5536 H   0  0  0  0  0  0  0  0  0  0  0  0
  145.4634  135.9781  149.0566 H   0  0  0  0  0  0  0  0  0  0  0  0
  1  2  1  0  0  0  0
  1 20  1  0  0  0  0
  1 21  1  0  0  0  0
  1 22  1  0  0  0  0
  2  7  1  0  0  0  0
  2  3  2  0  0  0  0
  3  4  1  0  0  0  0
  3 23  1  0  0  0  0
  4  5  2  0  0  0  0
  5  6  1  0  0  0  0
  5 24  1  0  0  0  0
  6  7  2  0  0  0  0
  6 25  1  0  0  0  0
  7  8  1  0  0  0  0
  8  9  1  0  0  0  0
  8 26  1  0  0  0  0
  9 10  2  0  0  0  0
  9 11  1  0  0  0  0
 11 12  1  0  0  0  0
 11 27  1  0  0  0  0
 12 17  1  0  0  0  0
 12 13  1  0  0  0  0
 12 28  1  0  0  0  0
 13 14  1  0  0  0  0
 13 29  1  0  0  0  0
 13 30  1  0  0  0  0
 14 15  1  0  0  0  0
 14 31  1  0  0  0  0
 14 32  1  0  0  0  0
 15 16  1  0  0  0  0
 15 33  1  0  0  0  0
 15 34  1  0  0  0  0
 16 17  1  0  0  0  0
 16 35  1  0  0  0  0
 16 36  1  0  0  0  0
 17 18  1  0  0  0  0
 17 37  1  0  0  0  0
 18 19  1  0  0  0  0
 18 38  1  0  0  0  0
 18 39  1  0  0  0  0
 19 40  1  0  0  0  0
M  END
> <s_m_source_file>
AV-unprocessed.smi

> <i_m_source_file_index>
2453

> <i_lp_mmshare_version>
43012

> <i_f3d_flags>
0

> <s_epik_input>
W0NIM11jMVtjSF1uW2NIXVtjSF1jMVtOSF1DKD1PKVtOSF1bQ0BASF0yW0NIMl1bQ0gyXVtDSDJdW0NIMl1bQ0BIXTJbQ0gyXVtPSF0=

> <s_epik_cmdline>
J2VwaWtfcHl0aG9uJywgJy1waCcsICc3LjAnLCAnLXRuJywgJzgnLCAnLW1hJywgJzIwMCcsICctbWV0YWxfYmluZGluZycsICctaW1hZScsICc8aW5maWxlLm1hZT4nLCAnLW9tYWUnLCAnPG91dGZpbGUubWFlPic=

> <r_epik_Ionization_Penalty>
0.210691

> <r_epik_Ionization_Penalty_Charging>
0

> <r_epik_Ionization_Penalty_Neutral>
0.210691

> <r_epik_State_Penalty>
0.200732

> <r_epik_Charging_Adjusted_Penalty>
0.200732

> <i_epik_Tot_Q>
0

> <i_epik_Tot_abs_Q>
0

> <r_epik_Metal_State_Penalty>
0.147519

> <b_epik_Metal_Only>
0

> <s_lp_Force_Field>
OPLS_2005

> <r_lp_Energy>
17.5687

> <b_lp_Chiralities_Consistent>
1

> <s_lp_Variant>
AV-unprocessed.smi:2453-1

> <Gold.Version>
5.8.1

> <Gold.Id.Protein>
6NUR|6NUR_protein|mol2

> <Gold.PLP.Fitness>
45.5206

> <Gold.PLP.PLP>
-36.3922

> <Gold.PLP.part.hbond>
-4.7974

> <Gold.PLP.part.metal>
0.0000

> <Gold.PLP.part.buried>
-4.7510

> <Gold.PLP.part.nonpolar>
-28.0824

> <Gold.PLP.part.repulsive>
0.0573

> <Gold.PLP.ligand.clash>
0.0000

> <Gold.PLP.ligand.torsion>
0.3446

> <Gold.PLP.Chemscore.Hbond>
3.2685

> <Gold.PLP.Chemscore.CHOScore>
0.0000

> <Gold.PLP.Chemscore.Metal>
0.0000

> <Gold.Chemscore.Hbonds>
donor molecule, donor type, donor heavy atom, donor atom, acceptor molecule, acceptor atom, score
      L1  H     8    26       P1  7948  0.70
      L1  H    11    27       P1  7948  1.00
      L1  H    19    40       P1  7921  1.00

> <Gold.PLP.Chemscore.Internal.Correction>
0.0122

> <Gold.Rescore>
     Score         DG    S(hbond)    S(metal)    S(lipo)     H(rot)  DE(clash)    DE(int)     intcor
     16.36     -19.06       2.52        0.00      82.52       1.75       0.02       2.68       ----

> <Gold.Chemscore.Fitness>
16.3630

> <Gold.Chemscore.DG>
-19.0625

> <Gold.Chemscore.ZeroCoef>
-5.4800

> <Gold.Chemscore.Hbond>
2.5167

> <Gold.Chemscore.Metal>
0.0000

> <Gold.Chemscore.Lipo>
82.5210

> <Gold.Chemscore.Internal_Hbond>
0.0000

> <Gold.Chemscore.DEClash>
0.0202

> <Gold.Chemscore.DEInternal>
2.6793

> <Gold.Chemscore.Rot>
1.7493

> <Gold.Chemscore.Internal.Correction>
   9.000000E+99

> <Gold.Chemscore.Hbonds>
donor molecule, donor type, donor heavy atom, donor atom, acceptor molecule, acceptor atom, score
      L1  H     8    26       P1  7948  0.07
      L1  H    11    27       P1  7948  0.80
      L1  H    19    40       P1  7921  0.99

> <Gold.Chemscore.Hbond.Weighted>
-8.4058

> <Gold.Chemscore.Metal.Weighted>
-0.0000

> <Gold.Chemscore.Lipo.Weighted>
-9.6550

> <Gold.Chemscore.Internal_Hbond.Weighted>
0.0000

> <Gold.Chemscore.DEClash.Weighted>
0.0202

> <Gold.Chemscore.DEInternal.Weighted>
2.6793

> <Gold.Chemscore.Rot.Weighted>
4.4782

> <Gold.Chemscore.Internal.Correction.Weighted>
   9.000000E+99

> <Gold.Protein.RotatedTorsions>
[ 6907 6896 6895 6894 ] final -167.74 input  -60.11 | X-H torsion
[ 7974 7965 7964 7962 ] final   84.42 input  175.53 | X-H torsion
[ 8008 7997 7996 7995 ] final   79.98 input   59.86 | X-H torsion
[ 10167 10162 10161 10158 ] final   49.45 input  -65.29 | X-H torsion
[ 10718 10713 10712 10709 ] final  -91.05 input   66.30 | X-H torsion
[ 10763 10752 10751 10750 ] final  171.77 input  -60.55 | X-H torsion
[ 11005 11000 10999 10996 ] final  151.93 input  -57.11 | X-H torsion

> <Gold.Protein.ActiveResidues>
 VAL166  LYS551  ARG553  GLY616  TRP617  ASP618  TYR619  PRO620  LYS621  CYS622 
 ASP623  PHE694  ASN695  SER759  ASP760  ASP761  ALA762  ILE779  LEU786  VAL792 
 PHE793  MET794  SER795  GLU796  ALA797  LYS798  CYS799  TRP800  GLU811  SER814 

> <Gold.Protein.RotatedAtoms>
  151.4643  133.3585  159.2813 H   0  0  0  0  0  0  0  0  0  0  0  0  # atno 6907 bound_to 6896
  150.9004  134.8417  159.7366 H   0  0  0  0  0  0  0  0  0  0  0  0  # atno 6908 bound_to 6896
  152.4876  134.4563  159.9642 H   0  0  0  0  0  0  0  0  0  0  0  0  # atno 6909 bound_to 6896
  145.5989  139.2349  143.2257 H   0  0  0  0  0  0  0  0  0  0  0  0  # atno 7974 bound_to 7965
  155.8771  140.3446  155.5862 H   0  0  0  0  0  0  0  0  0  0  0  0  # atno 8008 bound_to 7997
  155.7761  140.0852  157.2102 H   0  0  0  0  0  0  0  0  0  0  0  0  # atno 8009 bound_to 7997
  154.4021  140.1509  156.2986 H   0  0  0  0  0  0  0  0  0  0  0  0  # atno 8010 bound_to 7997
  140.2827  144.3137  150.6260 H   0  0  0  0  0  0  0  0  0  0  0  0  # atno 10167 bound_to 10162
  155.9991  130.4933  150.5415 H   0  0  0  0  0  0  0  0  0  0  0  0  # atno 10718 bound_to 10713
  154.4166  135.2757  155.2003 H   0  0  0  0  0  0  0  0  0  0  0  0  # atno 10763 bound_to 10752
  154.3966  135.6054  153.5877 H   0  0  0  0  0  0  0  0  0  0  0  0  # atno 10764 bound_to 10752
  152.9832  135.5916  154.4455 H   0  0  0  0  0  0  0  0  0  0  0  0  # atno 10765 bound_to 10752
  140.1263  134.8831  157.2142 H   0  0  0  0  0  0  0  0  0  0  0  0  # atno 11005 bound_to 11000
  146.1591  140.6814  142.9286 LP  0  0  0  0  0  0  0  0  0  0  0  0  # atno 17320 bound_to 7965
  144.7318  140.4694  143.6932 LP  0  0  0  0  0  0  0  0  0  0  0  0  # atno 17321 bound_to 7965
  140.5798  143.2173  151.7449 LP  0  0  0  0  0  0  0  0  0  0  0  0  # atno 17342 bound_to 10162
  139.4958  144.4097  152.0094 LP  0  0  0  0  0  0  0  0  0  0  0  0  # atno 17343 bound_to 10162
  157.3351  131.0706  151.1831 LP  0  0  0  0  0  0  0  0  0  0  0  0  # atno 17370 bound_to 10713
  157.2699  130.6699  149.6014 LP  0  0  0  0  0  0  0  0  0  0  0  0  # atno 17371 bound_to 10713
  140.2900  134.3251  155.7318 LP  0  0  0  0  0  0  0  0  0  0  0  0  # atno 17394 bound_to 11000
  141.2162  133.7529  156.9489 LP  0  0  0  0  0  0  0  0  0  0  0  0  # atno 17395 bound_to 11000

$$$$
