AV-unprocessed.smi:1078|AV-procd|sdf|4702|dock3
  -GOLD-   22720 3223D 1   1.00000     0.00000
 Structure written by MMmdl.
 40 41  0  0  0  0  0  0  0  0  2 V2000
  147.7565  141.9802  154.2442 C   0  0  0  0  0  0  0  0  0  0  0  0
  149.1803  141.4207  154.4070 C   0  0  2  0  0  0  0  0  0  0  0  0
  149.1897  139.9515  154.8922 C   0  0  0  0  0  0  0  0  0  0  0  0
  150.4912  139.3183  154.7735 N   0  0  0  0  0  0  0  0  0  0  0  0
  150.7863  138.0269  154.3887 C   0  0  0  0  0  0  0  0  0  0  0  0
  152.1437  137.8886  154.4392 C   0  0  0  0  0  0  0  0  0  0  0  0
  152.5977  139.1632  154.8796 C   0  0  0  0  0  0  0  0  0  0  0  0
  151.6058  140.0153  155.0836 N   0  0  0  0  0  0  0  0  0  0  0  0
  149.9422  142.2946  155.3271 N   0  3  0  0  0  0  0  0  0  0  0  0
  150.0191  141.8332  156.7300 C   0  0  0  0  0  0  0  0  0  0  0  0
  151.2394  142.4327  157.4530 C   0  0  0  0  0  0  0  0  0  0  0  0
  151.6774  141.5742  158.6606 C   0  0  0  0  0  0  0  0  0  0  0  0
  152.8855  142.1877  159.3875 C   0  0  0  0  0  0  0  0  0  0  0  0
  152.5968  143.6306  159.8281 C   0  0  0  0  0  0  0  0  0  0  0  0
  152.1616  144.4948  158.6355 C   0  0  0  0  0  0  0  0  0  0  0  0
  150.9538  143.8776  157.9116 C   0  0  0  0  0  0  0  0  0  0  0  0
  147.1914  141.4315  153.4903 H   0  0  0  0  0  0  0  0  0  0  0  0
  147.7791  143.0239  153.9291 H   0  0  0  0  0  0  0  0  0  0  0  0
  147.2007  141.9274  155.1809 H   0  0  0  0  0  0  0  0  0  0  0  0
  149.6607  141.4720  153.4285 H   0  0  0  0  0  0  0  0  0  0  0  0
  148.8847  139.8839  155.9367 H   0  0  0  0  0  0  0  0  0  0  0  0
  148.4713  139.3633  154.3191 H   0  0  0  0  0  0  0  0  0  0  0  0
  150.0162  137.3218  154.1120 H   0  0  0  0  0  0  0  0  0  0  0  0
  152.7241  137.0096  154.2006 H   0  0  0  0  0  0  0  0  0  0  0  0
  153.6113  139.4913  155.0577 H   0  0  0  0  0  0  0  0  0  0  0  0
  150.8894  142.3444  154.9798 H   0  0  0  0  0  0  0  0  0  0  0  0
  149.1083  142.1309  157.2495 H   0  0  0  0  0  0  0  0  0  0  0  0
  150.0627  140.7435  156.7612 H   0  0  0  0  0  0  0  0  0  0  0  0
  152.0671  142.4721  156.7423 H   0  0  0  0  0  0  0  0  0  0  0  0
  150.8477  141.4728  159.3618 H   0  0  0  0  0  0  0  0  0  0  0  0
  151.9313  140.5643  158.3375 H   0  0  0  0  0  0  0  0  0  0  0  0
  153.1448  141.5803  160.2552 H   0  0  0  0  0  0  0  0  0  0  0  0
  153.7551  142.1728  158.7295 H   0  0  0  0  0  0  0  0  0  0  0  0
  151.8125  143.6317  160.5862 H   0  0  0  0  0  0  0  0  0  0  0  0
  153.4817  144.0614  160.2976 H   0  0  0  0  0  0  0  0  0  0  0  0
  151.9161  145.5010  158.9768 H   0  0  0  0  0  0  0  0  0  0  0  0
  152.9930  144.5993  157.9370 H   0  0  0  0  0  0  0  0  0  0  0  0
  150.6918  144.4979  157.0536 H   0  0  0  0  0  0  0  0  0  0  0  0
  150.0885  143.8900  158.5757 H   0  0  0  0  0  0  0  0  0  0  0  0
  149.5455  143.2232  155.3038 H   0  0  0  0  0  0  0  0  0  0  0  0
  1  2  1  0  0  0  0
  1 17  1  0  0  0  0
  1 18  1  0  0  0  0
  1 19  1  0  0  0  0
  2  3  1  0  0  0  0
  2  9  1  0  0  0  0
  2 20  1  0  0  0  0
  3  4  1  0  0  0  0
  3 21  1  0  0  0  0
  3 22  1  0  0  0  0
  4  8  1  0  0  0  0
  4  5  1  0  0  0  0
  5  6  2  0  0  0  0
  5 23  1  0  0  0  0
  6  7  1  0  0  0  0
  6 24  1  0  0  0  0
  7  8  2  0  0  0  0
  7 25  1  0  0  0  0
  9 10  1  0  0  0  0
  9 26  1  0  0  0  0
  9 40  1  0  0  0  0
 10 11  1  0  0  0  0
 10 27  1  0  0  0  0
 10 28  1  0  0  0  0
 11 16  1  0  0  0  0
 11 12  1  0  0  0  0
 11 29  1  0  0  0  0
 12 13  1  0  0  0  0
 12 30  1  0  0  0  0
 12 31  1  0  0  0  0
 13 14  1  0  0  0  0
 13 32  1  0  0  0  0
 13 33  1  0  0  0  0
 14 15  1  0  0  0  0
 14 34  1  0  0  0  0
 14 35  1  0  0  0  0
 15 16  1  0  0  0  0
 15 36  1  0  0  0  0
 15 37  1  0  0  0  0
 16 38  1  0  0  0  0
 16 39  1  0  0  0  0
M  CHG  1   9   1
M  END
> <s_m_source_file>
AV-unprocessed.smi

> <i_m_source_file_index>
1078

> <i_lp_mmshare_version>
43012

> <i_f3d_flags>
0

> <s_epik_input>
bjFbY0hdW2NIXVtjSF1uMVtDSDJdW0NAQEhdKFtDSDNdKVtOSF1bQ0gyXVtDSF0yW0NIMl1bQ0gyXVtDSDJdW0NIMl1bQ0gyXTI=

> <s_epik_cmdline>
J2VwaWtfcHl0aG9uJywgJy1waCcsICc3LjAnLCAnLXRuJywgJzgnLCAnLW1hJywgJzIwMCcsICctbWV0YWxfYmluZGluZycsICctaW1hZScsICc8aW5maWxlLm1hZT4nLCAnLW9tYWUnLCAnPG91dGZpbGUubWFlPic=

> <r_lp_tautomer_probability>
1

> <r_epik_Ionization_Penalty>
0.00174474

> <r_epik_Ionization_Penalty_Charging>
0.00174052

> <r_epik_Ionization_Penalty_Neutral>
4.21324e-06

> <r_epik_State_Penalty>
0.00117783

> <r_epik_Charging_Adjusted_Penalty>
0.00291835

> <i_epik_Tot_Q>
1

> <i_epik_Tot_abs_Q>
1

> <r_epik_Metal_State_Penalty>
-0

> <b_epik_Metal_Only>
0

> <s_lp_Force_Field>
OPLS_2005

> <r_lp_Energy>
15.4187

> <b_lp_Chiralities_Consistent>
1

> <s_lp_Variant>
AV-unprocessed.smi:1078-1

> <Gold.Version>
5.8.1

> <Gold.Id.Protein>
6NUR|6NUR_protein|mol2

> <Gold.PLP.Fitness>
51.6291

> <Gold.PLP.PLP>
-42.2480

> <Gold.PLP.part.hbond>
-2.0000

> <Gold.PLP.part.metal>
0.0000

> <Gold.PLP.part.buried>
-1.0506

> <Gold.PLP.part.nonpolar>
-38.9869

> <Gold.PLP.part.repulsive>
0.2532

> <Gold.PLP.ligand.clash>
0.0000

> <Gold.PLP.ligand.torsion>
1.1731

> <Gold.PLP.Chemscore.Hbond>
2.9000

> <Gold.PLP.Chemscore.CHOScore>
0.9998

> <Gold.PLP.Chemscore.Metal>
0.0000

> <Gold.Chemscore.Hbonds>
donor molecule, donor type, donor heavy atom, donor atom, acceptor molecule, acceptor atom, score
      L1  H     9    40       P1  8028  2.00
      P1  H  7989  7998       L1     8  0.67
      L1  C     5    23       P1  7948  0.62

> <Gold.PLP.Chemscore.Internal.Correction>
0.0279

> <Gold.Rescore>
     Score         DG    S(hbond)    S(metal)    S(lipo)     H(rot)  DE(clash)    DE(int)     intcor
     19.22     -20.55       1.70        0.00     114.03       1.54       0.09       1.24       ----

> <Gold.Chemscore.Fitness>
19.2151

> <Gold.Chemscore.DG>
-20.5473

> <Gold.Chemscore.ZeroCoef>
-5.4800

> <Gold.Chemscore.Hbond>
1.6955

> <Gold.Chemscore.Metal>
0.0000

> <Gold.Chemscore.Lipo>
114.0271

> <Gold.Chemscore.Internal_Hbond>
0.0000

> <Gold.Chemscore.DEClash>
0.0895

> <Gold.Chemscore.DEInternal>
1.2426

> <Gold.Chemscore.Rot>
1.5378

> <Gold.Chemscore.Internal.Correction>
   9.000000E+99

> <Gold.Chemscore.Hbonds>
donor molecule, donor type, donor heavy atom, donor atom, acceptor molecule, acceptor atom, score
      L1  H     9    40       P1  8028  1.00
      P1  H  7989  7998       L1     8  0.02

> <Gold.Chemscore.Hbond.Weighted>
-5.6628

> <Gold.Chemscore.Metal.Weighted>
-0.0000

> <Gold.Chemscore.Lipo.Weighted>
-13.3412

> <Gold.Chemscore.Internal_Hbond.Weighted>
0.0000

> <Gold.Chemscore.DEClash.Weighted>
0.0895

> <Gold.Chemscore.DEInternal.Weighted>
1.2426

> <Gold.Chemscore.Rot.Weighted>
3.9368

> <Gold.Chemscore.Internal.Correction.Weighted>
   9.000000E+99

> <Gold.Protein.RotatedTorsions>
[ 6907 6896 6895 6894 ] final  154.45 input  -60.11 | X-H torsion
[ 7974 7965 7964 7962 ] final -119.30 input  175.53 | X-H torsion
[ 8008 7997 7996 7995 ] final -137.42 input   59.86 | X-H torsion
[ 10167 10162 10161 10158 ] final   -6.83 input  -65.29 | X-H torsion
[ 10718 10713 10712 10709 ] final -165.19 input   66.30 | X-H torsion
[ 10763 10752 10751 10750 ] final -126.60 input  -60.55 | X-H torsion
[ 11005 11000 10999 10996 ] final  128.52 input  -57.11 | X-H torsion

> <Gold.Protein.ActiveResidues>
 VAL166  LYS551  ARG553  GLY616  TRP617  ASP618  TYR619  PRO620  LYS621  CYS622 
 ASP623  PHE694  ASN695  SER759  ASP760  ASP761  ALA762  ILE779  LEU786  VAL792 
 PHE793  MET794  SER795  GLU796  ALA797  LYS798  CYS799  TRP800  GLU811  SER814 

> <Gold.Protein.RotatedAtoms>
  152.0582  133.4050  159.4406 H   0  0  0  0  0  0  0  0  0  0  0  0  # atno 6907 bound_to 6896
  150.6867  134.3230  159.4804 H   0  0  0  0  0  0  0  0  0  0  0  0  # atno 6908 bound_to 6896
  152.1048  134.9316  160.0619 H   0  0  0  0  0  0  0  0  0  0  0  0  # atno 6909 bound_to 6896
  145.0641  140.8311  143.4135 H   0  0  0  0  0  0  0  0  0  0  0  0  # atno 7974 bound_to 7965
  155.4115  140.0512  157.3031 H   0  0  0  0  0  0  0  0  0  0  0  0  # atno 8008 bound_to 7997
  154.4944  140.2133  155.9438 H   0  0  0  0  0  0  0  0  0  0  0  0  # atno 8009 bound_to 7997
  156.1386  140.3158  155.8464 H   0  0  0  0  0  0  0  0  0  0  0  0  # atno 8010 bound_to 7997
  140.7009  143.6150  150.8667 H   0  0  0  0  0  0  0  0  0  0  0  0  # atno 10167 bound_to 10162
  156.6498  130.9003  151.3011 H   0  0  0  0  0  0  0  0  0  0  0  0  # atno 10718 bound_to 10713
  154.8747  135.3990  154.3456 H   0  0  0  0  0  0  0  0  0  0  0  0  # atno 10763 bound_to 10752
  153.4249  135.7024  153.6274 H   0  0  0  0  0  0  0  0  0  0  0  0  # atno 10764 bound_to 10752
  153.4920  135.3746  155.2467 H   0  0  0  0  0  0  0  0  0  0  0  0  # atno 10765 bound_to 10752
  139.9565  134.9612  156.9014 H   0  0  0  0  0  0  0  0  0  0  0  0  # atno 11005 bound_to 11000
  145.1372  139.2594  143.5508 LP  0  0  0  0  0  0  0  0  0  0  0  0  # atno 17320 bound_to 7965
  146.3526  140.1040  142.8607 LP  0  0  0  0  0  0  0  0  0  0  0  0  # atno 17321 bound_to 7965
  139.9872  143.5887  152.2923 LP  0  0  0  0  0  0  0  0  0  0  0  0  # atno 17342 bound_to 10162
  139.6529  144.7661  151.2113 LP  0  0  0  0  0  0  0  0  0  0  0  0  # atno 17343 bound_to 10162
  157.7144  130.9480  150.1204 LP  0  0  0  0  0  0  0  0  0  0  0  0  # atno 17370 bound_to 10713
  156.2093  130.3665  149.8690 LP  0  0  0  0  0  0  0  0  0  0  0  0  # atno 17371 bound_to 10713
  140.5597  134.0547  155.7395 LP  0  0  0  0  0  0  0  0  0  0  0  0  # atno 17394 bound_to 11000
  141.1237  133.9418  157.2678 LP  0  0  0  0  0  0  0  0  0  0  0  0  # atno 17395 bound_to 11000

$$$$
