AV-unprocessed.smi:276|AV-procd|sdf|2084|dock3
  -GOLD-   2262021353D 1   1.00000     0.00000
 Structure written by MMmdl.
 57 61  0  0  0  0  0  0  0  0  1 V2000
  145.1703  130.6012  161.2772 C   0  0  0  0  0  0  0  0  0  0  0  0
  145.6797  131.8209  161.7873 O   0  0  0  0  0  0  0  0  0  0  0  0
  145.5186  132.9007  160.8812 C   0  0  2  0  0  0  0  0  0  0  0  0
  146.3483  132.7814  159.5974 C   0  0  0  0  0  0  0  0  0  0  0  0
  146.5690  134.2966  159.6991 C   0  0  2  0  0  0  0  0  0  0  0  0
  147.8992  134.7175  159.2523 N   0  0  0  0  0  0  0  0  0  0  0  0
  148.5246  133.8885  158.2296 C   0  0  0  0  0  0  0  0  0  0  0  0
  148.0340  136.0254  158.9349 C   0  0  0  0  0  0  0  0  0  0  0  0
  146.9068  136.7804  158.9525 N   0  0  0  0  0  0  0  0  0  0  0  0
  146.9640  138.0780  158.6388 C   0  0  0  0  0  0  0  0  0  0  0  0
  148.0267  138.8079  158.2937 N   0  0  0  0  0  0  0  0  0  0  0  0
  149.1652  138.0567  158.2981 C   0  0  0  0  0  0  0  0  0  0  0  0
  149.2621  136.6711  158.6099 C   0  0  0  0  0  0  0  0  0  0  0  0
  150.5883  136.2618  158.5251 N   0  0  0  0  0  0  0  0  0  0  0  0
  151.2344  137.3384  158.1691 C   0  0  0  0  0  0  0  0  0  0  0  0
  150.4555  138.4612  158.0095 N   0  0  0  0  0  0  0  0  0  0  0  0
  150.9059  139.7862  157.6235 C   0  0  0  0  0  0  0  0  0  0  0  0
  151.9937  140.3348  158.5663 C   0  0  1  0  0  0  0  0  0  0  0  0
  153.1990  139.6087  158.4113 O   0  0  0  0  0  0  0  0  0  0  0  0
  152.2321  141.8472  158.3792 C   0  0  1  0  0  0  0  0  0  0  0  0
  151.0006  142.7555  158.4493 C   0  0  0  0  0  0  0  0  0  0  0  0
  151.5700  144.0926  158.9068 C   0  0  0  0  0  0  0  0  0  0  0  0
  153.0320  143.7926  159.2536 C   0  0  0  0  0  0  0  0  0  0  0  0
  153.1034  142.3790  159.3643 O   0  0  0  0  0  0  0  0  0  0  0  0
  146.3656  134.1398  161.2301 C   0  0  0  0  0  0  0  0  0  0  0  0
  145.7791  135.2667  162.0903 C   0  0  0  0  0  0  0  0  0  0  0  0
  147.1353  135.4081  162.7895 C   0  0  0  0  0  0  0  0  0  0  0  0
  147.5359  134.0389  162.2300 C   0  0  0  0  0  0  0  0  0  0  0  0
  145.3080  129.8104  162.0146 H   0  0  0  0  0  0  0  0  0  0  0  0
  145.6895  130.3041  160.3652 H   0  0  0  0  0  0  0  0  0  0  0  0
  144.1035  130.6793  161.0629 H   0  0  0  0  0  0  0  0  0  0  0  0
  144.4744  133.1606  160.6918 H   0  0  0  0  0  0  0  0  0  0  0  0
  147.2600  132.1963  159.7350 H   0  0  0  0  0  0  0  0  0  0  0  0
  145.7872  132.4580  158.7205 H   0  0  0  0  0  0  0  0  0  0  0  0
  145.7461  134.8352  159.2269 H   0  0  0  0  0  0  0  0  0  0  0  0
  147.9622  133.9369  157.2962 H   0  0  0  0  0  0  0  0  0  0  0  0
  148.5659  132.8468  158.5476 H   0  0  0  0  0  0  0  0  0  0  0  0
  149.5477  134.2120  158.0317 H   0  0  0  0  0  0  0  0  0  0  0  0
  146.0226  138.6067  158.6669 H   0  0  0  0  0  0  0  0  0  0  0  0
  152.3041  137.3448  158.0176 H   0  0  0  0  0  0  0  0  0  0  0  0
  151.2732  139.7431  156.5972 H   0  0  0  0  0  0  0  0  0  0  0  0
  150.0416  140.4513  157.6178 H   0  0  0  0  0  0  0  0  0  0  0  0
  151.6688  140.1769  159.5957 H   0  0  0  0  0  0  0  0  0  0  0  0
  153.6545  139.6040  159.2391 H   0  0  0  0  0  0  0  0  0  0  0  0
  152.7155  141.9992  157.4120 H   0  0  0  0  0  0  0  0  0  0  0  0
  150.4860  142.8227  157.4904 H   0  0  0  0  0  0  0  0  0  0  0  0
  150.2808  142.4027  159.1880 H   0  0  0  0  0  0  0  0  0  0  0  0
  151.5001  144.8546  158.1299 H   0  0  0  0  0  0  0  0  0  0  0  0
  151.0277  144.4563  159.7803 H   0  0  0  0  0  0  0  0  0  0  0  0
  153.6911  144.1207  158.4484 H   0  0  0  0  0  0  0  0  0  0  0  0
  153.3535  144.2794  160.1745 H   0  0  0  0  0  0  0  0  0  0  0  0
  145.4635  136.1500  161.5354 H   0  0  0  0  0  0  0  0  0  0  0  0
  144.9964  134.9152  162.7639 H   0  0  0  0  0  0  0  0  0  0  0  0
  147.7354  136.2260  162.3912 H   0  0  0  0  0  0  0  0  0  0  0  0
  147.0782  135.4494  163.8773 H   0  0  0  0  0  0  0  0  0  0  0  0
  147.4066  133.2474  162.9688 H   0  0  0  0  0  0  0  0  0  0  0  0
  148.5318  134.0019  161.7895 H   0  0  0  0  0  0  0  0  0  0  0  0
  1  2  1  0  0  0  0
  1 29  1  0  0  0  0
  1 30  1  0  0  0  0
  1 31  1  0  0  0  0
  2  3  1  0  0  0  0
  3 25  1  0  0  0  0
  3  4  1  0  0  0  0
  3 32  1  0  0  0  0
  4  5  1  0  0  0  0
  4 33  1  0  0  0  0
  4 34  1  0  0  0  0
  5  6  1  0  0  0  0
  5 25  1  0  0  0  0
  5 35  1  0  0  0  0
  6  7  1  0  0  0  0
  6  8  1  0  0  0  0
  7 36  1  0  0  0  0
  7 37  1  0  0  0  0
  7 38  1  0  0  0  0
  8 13  1  0  0  0  0
  8  9  2  0  0  0  0
  9 10  1  0  0  0  0
 10 11  2  0  0  0  0
 10 39  1  0  0  0  0
 11 12  1  0  0  0  0
 12 16  1  0  0  0  0
 12 13  2  0  0  0  0
 13 14  1  0  0  0  0
 14 15  2  0  0  0  0
 15 16  1  0  0  0  0
 15 40  1  0  0  0  0
 16 17  1  0  0  0  0
 17 18  1  0  0  0  0
 17 41  1  0  0  0  0
 17 42  1  0  0  0  0
 18 19  1  0  0  0  0
 18 20  1  0  0  0  0
 18 43  1  0  0  0  0
 19 44  1  0  0  0  0
 20 24  1  0  0  0  0
 20 21  1  0  0  0  0
 20 45  1  0  0  0  0
 21 22  1  0  0  0  0
 21 46  1  0  0  0  0
 21 47  1  0  0  0  0
 22 23  1  0  0  0  0
 22 48  1  0  0  0  0
 22 49  1  0  0  0  0
 23 24  1  0  0  0  0
 23 50  1  0  0  0  0
 23 51  1  0  0  0  0
 25 28  1  0  0  0  0
 25 26  1  0  0  0  0
 26 27  1  0  0  0  0
 26 52  1  0  0  0  0
 26 53  1  0  0  0  0
 27 28  1  0  0  0  0
 27 54  1  0  0  0  0
 27 55  1  0  0  0  0
 28 56  1  0  0  0  0
 28 57  1  0  0  0  0
M  END
> <s_m_source_file>
AV-unprocessed.smi

> <i_m_source_file_index>
276

> <i_lp_mmshare_version>
43012

> <i_f3d_flags>
0

> <s_epik_input>
W0NIMl0xW0NIMl1bQ0gyXUMxMltDQEhdKE9bQ0gzXSlbQ0gyXVtDQEhdMk4oW0NIM10pYyhuW2NIXW4zKWMoYzM0KW5bY0hdbjRbQ0gyXVtDQEhdKFtPSF0pW0NAQEhdNVtDSDJdW0NIMl1bQ0gyXU81

> <s_epik_cmdline>
J2VwaWtfcHl0aG9uJywgJy1waCcsICc3LjAnLCAnLXRuJywgJzgnLCAnLW1hJywgJzIwMCcsICctbWV0YWxfYmluZGluZycsICctaW1hZScsICc8aW5maWxlLm1hZT4nLCAnLW9tYWUnLCAnPG91dGZpbGUubWFlPic=

> <r_lp_tautomer_probability>
1

> <r_epik_Ionization_Penalty>
0.00204117

> <r_epik_Ionization_Penalty_Charging>
0

> <r_epik_Ionization_Penalty_Neutral>
0.00204117

> <r_epik_State_Penalty>
0.00127401

> <r_epik_Charging_Adjusted_Penalty>
0.00127401

> <i_epik_Tot_Q>
0

> <i_epik_Tot_abs_Q>
0

> <r_epik_Metal_State_Penalty>
-0

> <b_epik_Metal_Only>
0

> <s_lp_Force_Field>
OPLS_2005

> <r_lp_Energy>
58.0628

> <b_lp_Chiralities_Consistent>
1

> <s_lp_Variant>
AV-unprocessed.smi:276-15

> <Gold.Version>
5.8.1

> <Gold.Id.Protein>
6NUR|6NUR_protein|mol2

> <Gold.PLP.Fitness>
42.3862

> <Gold.PLP.PLP>
-38.5086

> <Gold.PLP.part.hbond>
-3.0000

> <Gold.PLP.part.metal>
0.0000

> <Gold.PLP.part.buried>
-5.6725

> <Gold.PLP.part.nonpolar>
-29.6905

> <Gold.PLP.part.repulsive>
0.0730

> <Gold.PLP.ligand.clash>
0.0000

> <Gold.PLP.ligand.torsion>
1.2083

> <Gold.PLP.Chemscore.Hbond>
1.8640

> <Gold.PLP.Chemscore.CHOScore>
0.0000

> <Gold.PLP.Chemscore.Metal>
0.0000

> <Gold.Chemscore.Hbonds>
donor molecule, donor type, donor heavy atom, donor atom, acceptor molecule, acceptor atom, score
      P1  H  6896  6909       L1    14  0.88
      P1  H  7997  8009       L1    19  0.85

> <Gold.PLP.Chemscore.Internal.Correction>
0.7021

> <Gold.Rescore>
     Score         DG    S(hbond)    S(metal)    S(lipo)     H(rot)  DE(clash)    DE(int)     intcor
     13.57     -15.84       1.38        0.00     108.55       2.72       0.00       2.27       ----

> <Gold.Chemscore.Fitness>
13.5666

> <Gold.Chemscore.DG>
-15.8424

> <Gold.Chemscore.ZeroCoef>
-5.4800

> <Gold.Chemscore.Hbond>
1.3828

> <Gold.Chemscore.Metal>
0.0000

> <Gold.Chemscore.Lipo>
108.5451

> <Gold.Chemscore.Internal_Hbond>
0.0000

> <Gold.Chemscore.DEClash>
0.0029

> <Gold.Chemscore.DEInternal>
2.2729

> <Gold.Chemscore.Rot>
2.7172

> <Gold.Chemscore.Internal.Correction>
   9.000000E+99

> <Gold.Chemscore.Hbonds>
donor molecule, donor type, donor heavy atom, donor atom, acceptor molecule, acceptor atom, score
      P1  H  6896  6909       L1    14  0.68
      P1  H  7997  8009       L1    19  0.16

> <Gold.Chemscore.Hbond.Weighted>
-4.6186

> <Gold.Chemscore.Metal.Weighted>
-0.0000

> <Gold.Chemscore.Lipo.Weighted>
-12.6998

> <Gold.Chemscore.Internal_Hbond.Weighted>
0.0000

> <Gold.Chemscore.DEClash.Weighted>
0.0029

> <Gold.Chemscore.DEInternal.Weighted>
2.2729

> <Gold.Chemscore.Rot.Weighted>
6.9560

> <Gold.Chemscore.Internal.Correction.Weighted>
   9.000000E+99

> <Gold.Protein.RotatedTorsions>
[ 6907 6896 6895 6894 ] final   77.62 input  -60.11 | X-H torsion
[ 7974 7965 7964 7962 ] final  146.98 input  175.53 | X-H torsion
[ 8008 7997 7996 7995 ] final  137.42 input   59.86 | X-H torsion
[ 10167 10162 10161 10158 ] final   14.10 input  -65.29 | X-H torsion
[ 10718 10713 10712 10709 ] final    6.63 input   66.30 | X-H torsion
[ 10763 10752 10751 10750 ] final -104.51 input  -60.55 | X-H torsion
[ 11005 11000 10999 10996 ] final -131.91 input  -57.11 | X-H torsion

> <Gold.Protein.ActiveResidues>
 VAL166  LYS551  ARG553  GLY616  TRP617  ASP618  TYR619  PRO620  LYS621  CYS622 
 ASP623  PHE694  ASN695  SER759  ASP760  ASP761  ALA762  ILE779  LEU786  VAL792 
 PHE793  MET794  SER795  GLU796  ALA797  LYS798  CYS799  TRP800  GLU811  SER814 

> <Gold.Protein.RotatedAtoms>
  152.5125  134.3790  159.9344 H   0  0  0  0  0  0  0  0  0  0  0  0  # atno 6907 bound_to 6896
  151.3746  133.3836  159.2711 H   0  0  0  0  0  0  0  0  0  0  0  0  # atno 6908 bound_to 6896
  150.9551  134.8966  159.7755 H   0  0  0  0  0  0  0  0  0  0  0  0  # atno 6909 bound_to 6896
  144.8628  139.5972  143.5923 H   0  0  0  0  0  0  0  0  0  0  0  0  # atno 7974 bound_to 7965
  156.3002  140.2420  156.3907 H   0  0  0  0  0  0  0  0  0  0  0  0  # atno 8008 bound_to 7997
  154.8616  140.0420  157.1688 H   0  0  0  0  0  0  0  0  0  0  0  0  # atno 8009 bound_to 7997
  154.8890  140.2960  155.5385 H   0  0  0  0  0  0  0  0  0  0  0  0  # atno 8010 bound_to 7997
  140.5958  143.8703  150.6917 H   0  0  0  0  0  0  0  0  0  0  0  0  # atno 10167 bound_to 10162
  156.9250  130.5805  149.5648 H   0  0  0  0  0  0  0  0  0  0  0  0  # atno 10718 bound_to 10713
  154.7883  135.4783  153.9995 H   0  0  0  0  0  0  0  0  0  0  0  0  # atno 10763 bound_to 10752
  153.1593  135.6805  153.8773 H   0  0  0  0  0  0  0  0  0  0  0  0  # atno 10764 bound_to 10752
  153.8392  135.3181  155.3403 H   0  0  0  0  0  0  0  0  0  0  0  0  # atno 10765 bound_to 10752
  140.9217  134.1436  157.4309 H   0  0  0  0  0  0  0  0  0  0  0  0  # atno 11005 bound_to 11000
  146.2873  139.7040  142.9186 LP  0  0  0  0  0  0  0  0  0  0  0  0  # atno 17320 bound_to 7965
  145.4280  141.0412  143.2927 LP  0  0  0  0  0  0  0  0  0  0  0  0  # atno 17321 bound_to 7965
  140.2237  143.3789  152.1622 LP  0  0  0  0  0  0  0  0  0  0  0  0  # atno 17342 bound_to 10162
  139.5257  144.7099  151.5237 LP  0  0  0  0  0  0  0  0  0  0  0  0  # atno 17343 bound_to 10162
  156.0473  130.5548  150.8911 LP  0  0  0  0  0  0  0  0  0  0  0  0  # atno 17370 bound_to 10713
  157.5883  131.0945  150.9159 LP  0  0  0  0  0  0  0  0  0  0  0  0  # atno 17371 bound_to 10713
  139.8777  134.9974  156.5843 LP  0  0  0  0  0  0  0  0  0  0  0  0  # atno 17394 bound_to 11000
  140.7979  133.8529  155.8701 LP  0  0  0  0  0  0  0  0  0  0  0  0  # atno 17395 bound_to 11000

$$$$
