AV-unprocessed.smi:2405|AV-procd|sdf|9512|dock10
  -GOLD-   2272013143D 1   1.00000     0.00000
 Structure written by MMmdl.
 36 37  0  0  0  0  0  0  0  0  2 V2000
  152.0653  144.3939  157.4358 C   0  0  0  0  0  0  0  0  0  0  0  0
  151.8111  144.7638  158.9011 C   0  0  0  0  0  0  0  0  0  0  0  0
  152.3509  143.7450  159.8474 C   0  0  0  0  0  0  0  0  0  0  0  0
  153.0975  142.7069  159.4631 N   0  0  0  0  0  0  0  0  0  0  0  0
  153.5323  141.9258  160.5394 C   0  0  0  0  0  0  0  0  0  0  0  0
  154.4020  140.7243  160.2967 C   0  0  0  0  0  0  0  0  0  0  0  0
  153.6408  139.6516  159.5123 C   0  0  0  0  0  0  0  0  0  0  0  0
  153.5074  138.5234  159.9857 O   0  0  0  0  0  0  0  0  0  0  0  0
  153.1484  140.0146  158.3172 N   0  0  0  0  0  0  0  0  0  0  0  0
  152.3413  139.1671  157.4459 C   0  0  2  0  0  0  0  0  0  0  0  0
  153.1769  137.9832  156.9241 C   0  0  0  0  0  0  0  0  0  0  0  0
  153.3850  138.2398  155.4282 C   0  0  0  0  0  0  0  0  0  0  0  0
  152.1457  139.0269  154.9851 C   0  0  1  0  0  0  0  0  0  0  0  0
  150.9853  138.0669  154.6521 C   0  0  0  0  0  0  0  0  0  0  0  0
  149.8750  138.5475  154.3321 O   0  0  0  0  0  0  0  0  0  0  0  0
  151.2361  136.8445  154.7362 O   0  5  0  0  0  0  0  0  0  0  0  0
  151.8629  139.9369  156.1954 C   0  0  0  0  0  0  0  0  0  0  0  0
  153.0904  142.3891  161.7546 C   0  0  0  0  0  0  0  0  0  0  0  0
  152.1328  143.8348  161.5912 S   0  0  0  0  0  0  0  0  0  0  0  0
  151.6615  145.1540  156.7669 H   0  0  0  0  0  0  0  0  0  0  0  0
  151.5944  143.4433  157.1830 H   0  0  0  0  0  0  0  0  0  0  0  0
  153.1327  144.3029  157.2327 H   0  0  0  0  0  0  0  0  0  0  0  0
  152.2688  145.7272  159.1266 H   0  0  0  0  0  0  0  0  0  0  0  0
  150.7406  144.8769  159.0766 H   0  0  0  0  0  0  0  0  0  0  0  0
  155.2963  140.9997  159.7366 H   0  0  0  0  0  0  0  0  0  0  0  0
  154.7472  140.3056  161.2430 H   0  0  0  0  0  0  0  0  0  0  0  0
  153.3081  140.9619  158.0070 H   0  0  0  0  0  0  0  0  0  0  0  0
  151.4853  138.7775  158.0003 H   0  0  0  0  0  0  0  0  0  0  0  0
  154.1235  137.8540  157.4504 H   0  0  0  0  0  0  0  0  0  0  0  0
  152.6116  137.0594  157.0555 H   0  0  0  0  0  0  0  0  0  0  0  0
  154.2739  138.8544  155.2808 H   0  0  0  0  0  0  0  0  0  0  0  0
  153.5375  137.3145  154.8704 H   0  0  0  0  0  0  0  0  0  0  0  0
  152.3559  139.6208  154.0946 H   0  0  0  0  0  0  0  0  0  0  0  0
  150.8199  140.2453  156.2788 H   0  0  0  0  0  0  0  0  0  0  0  0
  152.4385  140.8562  156.0721 H   0  0  0  0  0  0  0  0  0  0  0  0
  153.2813  141.9762  162.7338 H   0  0  0  0  0  0  0  0  0  0  0  0
  1  2  1  0  0  0  0
  1 20  1  0  0  0  0
  1 21  1  0  0  0  0
  1 22  1  0  0  0  0
  2  3  1  0  0  0  0
  2 23  1  0  0  0  0
  2 24  1  0  0  0  0
  3 19  1  0  0  0  0
  3  4  2  0  0  0  0
  4  5  1  0  0  0  0
  5  6  1  0  0  0  0
  5 18  2  0  0  0  0
  6  7  1  0  0  0  0
  6 25  1  0  0  0  0
  6 26  1  0  0  0  0
  7  8  2  0  0  0  0
  7  9  1  0  0  0  0
  9 10  1  0  0  0  0
  9 27  1  0  0  0  0
 10 17  1  0  0  0  0
 10 11  1  0  0  0  0
 10 28  1  0  0  0  0
 11 12  1  0  0  0  0
 11 29  1  0  0  0  0
 11 30  1  0  0  0  0
 12 13  1  0  0  0  0
 12 31  1  0  0  0  0
 12 32  1  0  0  0  0
 13 14  1  0  0  0  0
 13 17  1  0  0  0  0
 13 33  1  0  0  0  0
 14 15  2  0  0  0  0
 14 16  1  0  0  0  0
 17 34  1  0  0  0  0
 17 35  1  0  0  0  0
 18 19  1  0  0  0  0
 18 36  1  0  0  0  0
M  CHG  1  16  -1
M  END
> <s_m_source_file>
AV-unprocessed.smi

> <i_m_source_file_index>
2405

> <i_lp_mmshare_version>
43012

> <i_f3d_flags>
0

> <s_epik_input>
W0NIM11bQ0gyXWMxbmMoW2NIXXMxKVtDSDJdQyg9TylbTkhdW0NAQEhdMltDSDJdW0NIMl1bQ0BIXShbQ0gyXTIpQyg9TylbT0hd

> <s_epik_cmdline>
J2VwaWtfcHl0aG9uJywgJy1waCcsICc3LjAnLCAnLXRuJywgJzgnLCAnLW1hJywgJzIwMCcsICctbWV0YWxfYmluZGluZycsICctaW1hZScsICc8aW5maWxlLm1hZT4nLCAnLW9tYWUnLCAnPG91dGZpbGUubWFlPic=

> <r_epik_Ionization_Penalty>
0.000544611

> <r_epik_Ionization_Penalty_Charging>
0.000481685

> <r_epik_Ionization_Penalty_Neutral>
6.29266e-05

> <r_epik_State_Penalty>
0.00029893

> <r_epik_Charging_Adjusted_Penalty>
0.000780614

> <i_epik_Tot_Q>
-1

> <i_epik_Tot_abs_Q>
1

> <r_epik_Metal_State_Penalty>
-0

> <b_epik_Metal_Only>
0

> <s_lp_Force_Field>
OPLS_2005

> <r_lp_Energy>
8.39141

> <b_lp_Chiralities_Consistent>
1

> <s_lp_Variant>
AV-unprocessed.smi:2405-1

> <Gold.Version>
5.8.1

> <Gold.Id.Protein>
6NUR|6NUR_protein|mol2

> <Gold.PLP.Fitness>
48.5821

> <Gold.PLP.PLP>
-42.7516

> <Gold.PLP.part.hbond>
-1.0000

> <Gold.PLP.part.metal>
0.0000

> <Gold.PLP.part.buried>
-3.8680

> <Gold.PLP.part.nonpolar>
-39.2680

> <Gold.PLP.part.repulsive>
2.0961

> <Gold.PLP.ligand.clash>
0.0000

> <Gold.PLP.ligand.torsion>
0.1036

> <Gold.PLP.Chemscore.Hbond>
2.0000

> <Gold.PLP.Chemscore.CHOScore>
0.0000

> <Gold.PLP.Chemscore.Metal>
0.0000

> <Gold.Chemscore.Hbonds>
donor molecule, donor type, donor heavy atom, donor atom, acceptor molecule, acceptor atom, score
      P1  H 10752 10763       L1    16  1.62

> <Gold.PLP.Chemscore.Internal.Correction>
0.0377

> <Gold.Rescore>
     Score         DG    S(hbond)    S(metal)    S(lipo)     H(rot)  DE(clash)    DE(int)     intcor
     16.10     -16.85       0.99        0.00     114.17       2.06       0.61       0.14       ----

> <Gold.Chemscore.Fitness>
16.1014

> <Gold.Chemscore.DG>
-16.8545

> <Gold.Chemscore.ZeroCoef>
-5.4800

> <Gold.Chemscore.Hbond>
0.9879

> <Gold.Chemscore.Metal>
0.0000

> <Gold.Chemscore.Lipo>
114.1656

> <Gold.Chemscore.Internal_Hbond>
0.0000

> <Gold.Chemscore.DEClash>
0.6091

> <Gold.Chemscore.DEInternal>
0.1440

> <Gold.Chemscore.Rot>
2.0635

> <Gold.Chemscore.Internal.Correction>
   9.000000E+99

> <Gold.Chemscore.Hbonds>
donor molecule, donor type, donor heavy atom, donor atom, acceptor molecule, acceptor atom, score
      P1  H 10752 10763       L1    16  0.80

> <Gold.Chemscore.Hbond.Weighted>
-3.2996

> <Gold.Chemscore.Metal.Weighted>
-0.0000

> <Gold.Chemscore.Lipo.Weighted>
-13.3574

> <Gold.Chemscore.Internal_Hbond.Weighted>
0.0000

> <Gold.Chemscore.DEClash.Weighted>
0.6091

> <Gold.Chemscore.DEInternal.Weighted>
0.1440

> <Gold.Chemscore.Rot.Weighted>
5.2825

> <Gold.Chemscore.Internal.Correction.Weighted>
   9.000000E+99

> <Gold.Protein.RotatedTorsions>
[ 6907 6896 6895 6894 ] final  -39.55 input  -60.11 | X-H torsion
[ 7974 7965 7964 7962 ] final   82.82 input  175.53 | X-H torsion
[ 8008 7997 7996 7995 ] final -147.61 input   59.86 | X-H torsion
[ 10167 10162 10161 10158 ] final  -53.52 input  -65.29 | X-H torsion
[ 10718 10713 10712 10709 ] final -127.98 input   66.30 | X-H torsion
[ 10763 10752 10751 10750 ] final   48.86 input  -60.55 | X-H torsion
[ 11005 11000 10999 10996 ] final   67.03 input  -57.11 | X-H torsion

> <Gold.Protein.ActiveResidues>
 VAL166  LYS551  ARG553  GLY616  TRP617  ASP618  TYR619  PRO620  LYS621  CYS622 
 ASP623  PHE694  ASN695  SER759  ASP760  ASP761  ALA762  ILE779  LEU786  VAL792 
 PHE793  MET794  SER795  GLU796  ALA797  LYS798  CYS799  TRP800  GLU811  SER814 

> <Gold.Protein.RotatedAtoms>
  150.9891  134.9229  159.7888 H   0  0  0  0  0  0  0  0  0  0  0  0  # atno 6907 bound_to 6896
  152.5245  134.3307  159.9191 H   0  0  0  0  0  0  0  0  0  0  0  0  # atno 6908 bound_to 6896
  151.3313  133.3958  159.2697 H   0  0  0  0  0  0  0  0  0  0  0  0  # atno 6909 bound_to 6896
  145.6200  139.2384  143.2144 H   0  0  0  0  0  0  0  0  0  0  0  0  # atno 7974 bound_to 7965
  155.5783  140.0641  157.2789 H   0  0  0  0  0  0  0  0  0  0  0  0  # atno 8008 bound_to 7997
  154.4340  140.1856  156.0996 H   0  0  0  0  0  0  0  0  0  0  0  0  # atno 8009 bound_to 7997
  156.0324  140.3305  155.7158 H   0  0  0  0  0  0  0  0  0  0  0  0  # atno 8010 bound_to 7997
  140.6480  143.2548  151.4803 H   0  0  0  0  0  0  0  0  0  0  0  0  # atno 10167 bound_to 10162
  156.1908  130.6794  151.0422 H   0  0  0  0  0  0  0  0  0  0  0  0  # atno 10718 bound_to 10713
  152.9789  135.5930  154.3994 H   0  0  0  0  0  0  0  0  0  0  0  0  # atno 10763 bound_to 10752
  154.3641  135.2767  155.2305 H   0  0  0  0  0  0  0  0  0  0  0  0  # atno 10764 bound_to 10752
  154.4289  135.6041  153.6111 H   0  0  0  0  0  0  0  0  0  0  0  0  # atno 10765 bound_to 10752
  139.9795  134.6767  156.0289 H   0  0  0  0  0  0  0  0  0  0  0  0  # atno 11005 bound_to 11000
  146.1438  140.7020  142.9354 LP  0  0  0  0  0  0  0  0  0  0  0  0  # atno 17320 bound_to 7965
  144.7235  140.4450  143.6990 LP  0  0  0  0  0  0  0  0  0  0  0  0  # atno 17321 bound_to 7965
  139.5693  144.1967  152.1812 LP  0  0  0  0  0  0  0  0  0  0  0  0  # atno 17342 bound_to 10162
  140.1259  144.5332  150.6833 LP  0  0  0  0  0  0  0  0  0  0  0  0  # atno 17343 bound_to 10162
  157.6928  131.0804  150.7059 LP  0  0  0  0  0  0  0  0  0  0  0  0  # atno 17370 bound_to 10713
  156.7115  130.4653  149.5546 LP  0  0  0  0  0  0  0  0  0  0  0  0  # atno 17371 bound_to 10713
  141.1469  133.6554  156.3894 LP  0  0  0  0  0  0  0  0  0  0  0  0  # atno 17394 bound_to 11000
  140.5125  134.6381  157.5289 LP  0  0  0  0  0  0  0  0  0  0  0  0  # atno 17395 bound_to 11000

$$$$
