AV-unprocessed.smi:2087|AV-procd|sdf|8522|dock2
  -GOLD-   2272011233D 1   1.00000     0.00000
 Structure written by MMmdl.
 51 52  0  0  0  0  0  0  0  0  2 V2000
  152.8522  143.6854  158.5080 C   0  0  0  0  0  0  0  0  0  0  0  0
  151.4493  144.2903  158.6861 C   0  0  0  0  0  0  0  0  0  0  0  0
  151.3929  145.1437  159.9624 C   0  0  0  0  0  0  0  0  0  0  0  0
  150.3512  143.2046  158.7135 C   0  0  0  0  0  0  0  0  0  0  0  0
  149.9276  142.7625  157.3563 N   0  3  1  0  0  0  0  0  0  0  0  0
  151.0481  142.2694  156.5186 C   0  0  0  0  0  0  0  0  0  0  0  0
  151.4484  140.8360  156.9120 C   0  0  0  0  0  0  0  0  0  0  0  0
  150.3127  139.9870  156.8072 O   0  0  0  0  0  0  0  0  0  0  0  0
  149.2649  140.3676  157.6943 C   0  0  2  0  0  0  0  0  0  0  0  0
  148.1255  139.3403  157.5659 C   0  0  0  0  0  0  0  0  0  0  0  0
  148.5257  138.0322  158.0718 N   0  0  0  0  0  0  0  0  0  0  0  0
  147.7637  136.9294  158.0346 C   0  0  0  0  0  0  0  0  0  0  0  0
  146.6519  136.8958  157.5053 O   0  0  0  0  0  0  0  0  0  0  0  0
  148.3517  135.6755  158.6938 C   0  0  0  0  0  0  0  0  0  0  0  0
  147.7138  135.3629  159.9791 N   0  0  0  0  0  0  0  0  0  0  0  0
  147.0714  134.1501  160.1502 C   0  0  0  0  0  0  0  0  0  0  0  0
  146.4571  133.7886  161.2977 C   0  0  0  0  0  0  0  0  0  0  0  0
  146.4339  134.6820  162.4497 C   0  0  0  0  0  0  0  0  0  0  0  0
  145.8987  134.3839  163.5179 O   0  0  0  0  0  0  0  0  0  0  0  0
  147.0873  135.9211  162.2432 N   0  0  0  0  0  0  0  0  0  0  0  0
  147.1303  136.8790  163.3288 C   0  0  0  0  0  0  0  0  0  0  0  0
  147.7401  136.2876  161.0457 C   0  0  0  0  0  0  0  0  0  0  0  0
  148.3160  137.3723  160.9240 O   0  0  0  0  0  0  0  0  0  0  0  0
  148.7997  141.7950  157.3330 C   0  0  0  0  0  0  0  0  0  0  0  0
  153.0940  142.9985  159.3197 H   0  0  0  0  0  0  0  0  0  0  0  0
  153.6150  144.4646  158.4955 H   0  0  0  0  0  0  0  0  0  0  0  0
  152.9357  143.1364  157.5699 H   0  0  0  0  0  0  0  0  0  0  0  0
  151.2673  144.9663  157.8512 H   0  0  0  0  0  0  0  0  0  0  0  0
  151.5744  144.5402  160.8526 H   0  0  0  0  0  0  0  0  0  0  0  0
  150.4181  145.6194  160.0758 H   0  0  0  0  0  0  0  0  0  0  0  0
  152.1419  145.9360  159.9395 H   0  0  0  0  0  0  0  0  0  0  0  0
  150.7409  142.3469  159.2639 H   0  0  0  0  0  0  0  0  0  0  0  0
  149.4880  143.5534  159.2802 H   0  0  0  0  0  0  0  0  0  0  0  0
  150.7261  142.2782  155.4765 H   0  0  0  0  0  0  0  0  0  0  0  0
  151.9035  142.9432  156.5789 H   0  0  0  0  0  0  0  0  0  0  0  0
  152.2248  140.4673  156.2419 H   0  0  0  0  0  0  0  0  0  0  0  0
  151.8585  140.7990  157.9223 H   0  0  0  0  0  0  0  0  0  0  0  0
  149.6385  140.3523  158.7188 H   0  0  0  0  0  0  0  0  0  0  0  0
  147.2401  139.6841  158.1032 H   0  0  0  0  0  0  0  0  0  0  0  0
  147.8318  139.2314  156.5214 H   0  0  0  0  0  0  0  0  0  0  0  0
  149.4301  137.9707  158.5169 H   0  0  0  0  0  0  0  0  0  0  0  0
  148.2350  134.8409  158.0014 H   0  0  0  0  0  0  0  0  0  0  0  0
  149.4275  135.7943  158.8365 H   0  0  0  0  0  0  0  0  0  0  0  0
  147.0577  133.4523  159.3256 H   0  0  0  0  0  0  0  0  0  0  0  0
  145.9761  132.8236  161.3646 H   0  0  0  0  0  0  0  0  0  0  0  0
  146.8734  137.8600  162.9249 H   0  0  0  0  0  0  0  0  0  0  0  0
  148.1465  136.8636  163.7252 H   0  0  0  0  0  0  0  0  0  0  0  0
  146.4074  136.6238  164.1034 H   0  0  0  0  0  0  0  0  0  0  0  0
  147.9934  142.1141  157.9917 H   0  0  0  0  0  0  0  0  0  0  0  0
  148.3817  141.7931  156.3256 H   0  0  0  0  0  0  0  0  0  0  0  0
  149.5960  143.6020  156.9029 H   0  0  0  0  0  0  0  0  0  0  0  0
  1  2  1  0  0  0  0
  1 25  1  0  0  0  0
  1 26  1  0  0  0  0
  1 27  1  0  0  0  0
  2  3  1  0  0  0  0
  2  4  1  0  0  0  0
  2 28  1  0  0  0  0
  3 29  1  0  0  0  0
  3 30  1  0  0  0  0
  3 31  1  0  0  0  0
  4  5  1  0  0  0  0
  4 32  1  0  0  0  0
  4 33  1  0  0  0  0
  5 24  1  0  0  0  0
  5  6  1  0  0  0  0
  5 51  1  0  0  0  0
  6  7  1  0  0  0  0
  6 34  1  0  0  0  0
  6 35  1  0  0  0  0
  7  8  1  0  0  0  0
  7 36  1  0  0  0  0
  7 37  1  0  0  0  0
  8  9  1  0  0  0  0
  9 10  1  0  0  0  0
  9 24  1  0  0  0  0
  9 38  1  0  0  0  0
 10 11  1  0  0  0  0
 10 39  1  0  0  0  0
 10 40  1  0  0  0  0
 11 12  1  0  0  0  0
 11 41  1  0  0  0  0
 12 13  2  0  0  0  0
 12 14  1  0  0  0  0
 14 15  1  0  0  0  0
 14 42  1  0  0  0  0
 14 43  1  0  0  0  0
 15 22  1  0  0  0  0
 15 16  1  0  0  0  0
 16 17  2  0  0  0  0
 16 44  1  0  0  0  0
 17 18  1  0  0  0  0
 17 45  1  0  0  0  0
 18 19  2  0  0  0  0
 18 20  1  0  0  0  0
 20 21  1  0  0  0  0
 20 22  1  0  0  0  0
 21 46  1  0  0  0  0
 21 47  1  0  0  0  0
 21 48  1  0  0  0  0
 22 23  2  0  0  0  0
 24 49  1  0  0  0  0
 24 50  1  0  0  0  0
M  CHG  1   5   1
M  END
> <s_m_source_file>
AV-unprocessed.smi

> <i_m_source_file_index>
2087

> <i_lp_mmshare_version>
43012

> <i_f3d_flags>
0

> <s_epik_input>
W0NIM11bQ0hdKFtDSDNdKVtDSDJdTjFbQ0gyXVtDSDJdT1tDQEhdKFtDSDJdMSlbQ0gyXVtOSF1DKD1PKVtDSDJdbjJbY0hdW2NIXWMoPU8pbihbQ0gzXSljMj1P

> <s_epik_cmdline>
J2VwaWtfcHl0aG9uJywgJy1waCcsICc3LjAnLCAnLXRuJywgJzgnLCAnLW1hJywgJzIwMCcsICctbWV0YWxfYmluZGluZycsICctaW1hZScsICc8aW5maWxlLm1hZT4nLCAnLW9tYWUnLCAnPG91dGZpbGUubWFlPic=

> <r_lp_tautomer_probability>
1

> <r_epik_Ionization_Penalty>
0.097593

> <r_epik_Ionization_Penalty_Charging>
0.097593

> <r_epik_Ionization_Penalty_Neutral>
6.27044e-08

> <r_epik_State_Penalty>
0.0877056

> <r_epik_Charging_Adjusted_Penalty>
0.185299

> <i_epik_Tot_Q>
1

> <i_epik_Tot_abs_Q>
1

> <r_epik_Metal_State_Penalty>
0.0877109

> <b_epik_Metal_Only>
0

> <s_lp_Force_Field>
OPLS_2005

> <r_lp_Energy>
27.8921

> <b_lp_Chiralities_Consistent>
1

> <s_lp_Variant>
AV-unprocessed.smi:2087-3

> <Gold.Version>
5.8.1

> <Gold.Id.Protein>
6NUR|6NUR_protein|mol2

> <Gold.PLP.Fitness>
51.2081

> <Gold.PLP.PLP>
-42.2596

> <Gold.PLP.part.hbond>
-3.6203

> <Gold.PLP.part.metal>
0.0000

> <Gold.PLP.part.buried>
-6.1595

> <Gold.PLP.part.nonpolar>
-33.9513

> <Gold.PLP.part.repulsive>
0.1686

> <Gold.PLP.ligand.clash>
0.0000

> <Gold.PLP.ligand.torsion>
0.4757

> <Gold.PLP.Chemscore.Hbond>
3.2673

> <Gold.PLP.Chemscore.CHOScore>
0.0000

> <Gold.PLP.Chemscore.Metal>
0.0000

> <Gold.Chemscore.Hbonds>
donor molecule, donor type, donor heavy atom, donor atom, acceptor molecule, acceptor atom, score
      L1  H     5    51       P1  8028  2.00
      P1  H  6931  6943       L1    23  0.77
      P1  H  6934  6947       L1    23  0.54

> <Gold.PLP.Chemscore.Internal.Correction>
0.0981

> <Gold.Rescore>
     Score         DG    S(hbond)    S(metal)    S(lipo)     H(rot)  DE(clash)    DE(int)     intcor
     17.47     -18.35       2.72        0.00      80.96       2.22       0.30       0.58       ----

> <Gold.Chemscore.Fitness>
17.4728

> <Gold.Chemscore.DG>
-18.3520

> <Gold.Chemscore.ZeroCoef>
-5.4800

> <Gold.Chemscore.Hbond>
2.7230

> <Gold.Chemscore.Metal>
0.0000

> <Gold.Chemscore.Lipo>
80.9648

> <Gold.Chemscore.Internal_Hbond>
0.0000

> <Gold.Chemscore.DEClash>
0.3036

> <Gold.Chemscore.DEInternal>
0.5755

> <Gold.Chemscore.Rot>
2.2249

> <Gold.Chemscore.Internal.Correction>
   9.000000E+99

> <Gold.Chemscore.Hbonds>
donor molecule, donor type, donor heavy atom, donor atom, acceptor molecule, acceptor atom, score
      L1  H     5    51       P1  8028  0.97
      P1  H  6931  6943       L1    23  0.72
      P1  H  6934  6947       L1    23  0.50

> <Gold.Chemscore.Hbond.Weighted>
-9.0948

> <Gold.Chemscore.Metal.Weighted>
-0.0000

> <Gold.Chemscore.Lipo.Weighted>
-9.4729

> <Gold.Chemscore.Internal_Hbond.Weighted>
0.0000

> <Gold.Chemscore.DEClash.Weighted>
0.3036

> <Gold.Chemscore.DEInternal.Weighted>
0.5755

> <Gold.Chemscore.Rot.Weighted>
5.6957

> <Gold.Chemscore.Internal.Correction.Weighted>
   9.000000E+99

> <Gold.Protein.RotatedTorsions>
[ 6907 6896 6895 6894 ] final  100.50 input  -60.11 | X-H torsion
[ 7974 7965 7964 7962 ] final  -93.43 input  175.53 | X-H torsion
[ 8008 7997 7996 7995 ] final  -11.42 input   59.86 | X-H torsion
[ 10167 10162 10161 10158 ] final  -72.83 input  -65.29 | X-H torsion
[ 10718 10713 10712 10709 ] final -126.86 input   66.30 | X-H torsion
[ 10763 10752 10751 10750 ] final  -90.57 input  -60.55 | X-H torsion
[ 11005 11000 10999 10996 ] final  -30.15 input  -57.11 | X-H torsion

> <Gold.Protein.ActiveResidues>
 VAL166  LYS551  ARG553  GLY616  TRP617  ASP618  TYR619  PRO620  LYS621  CYS622 
 ASP623  PHE694  ASN695  SER759  ASP760  ASP761  ALA762  ILE779  LEU786  VAL792 
 PHE793  MET794  SER795  GLU796  ALA797  LYS798  CYS799  TRP800  GLU811  SER814 

> <Gold.Protein.RotatedAtoms>
  152.5371  134.0268  159.8006 H   0  0  0  0  0  0  0  0  0  0  0  0  # atno 6907 bound_to 6896
  151.0445  133.5669  159.2655 H   0  0  0  0  0  0  0  0  0  0  0  0  # atno 6908 bound_to 6896
  151.2626  135.0666  159.9158 H   0  0  0  0  0  0  0  0  0  0  0  0  # atno 6909 bound_to 6896
  145.3867  140.9524  143.2363 H   0  0  0  0  0  0  0  0  0  0  0  0  # atno 7974 bound_to 7965
  154.5466  140.2303  155.8552 H   0  0  0  0  0  0  0  0  0  0  0  0  # atno 8008 bound_to 7997
  156.1909  140.3077  155.9291 H   0  0  0  0  0  0  0  0  0  0  0  0  # atno 8009 bound_to 7997
  155.3152  140.0437  157.3027 H   0  0  0  0  0  0  0  0  0  0  0  0  # atno 8010 bound_to 7997
  140.5160  143.2338  151.7512 H   0  0  0  0  0  0  0  0  0  0  0  0  # atno 10167 bound_to 10162
  156.1804  130.6728  151.0297 H   0  0  0  0  0  0  0  0  0  0  0  0  # atno 10718 bound_to 10713
  154.6671  135.5300  153.8091 H   0  0  0  0  0  0  0  0  0  0  0  0  # atno 10763 bound_to 10752
  153.0478  135.6520  154.0782 H   0  0  0  0  0  0  0  0  0  0  0  0  # atno 10764 bound_to 10752
  154.0685  135.2956  155.3292 H   0  0  0  0  0  0  0  0  0  0  0  0  # atno 10765 bound_to 10752
  140.9357  133.7310  156.1002 H   0  0  0  0  0  0  0  0  0  0  0  0  # atno 11005 bound_to 11000
  144.8469  139.5382  143.6874 LP  0  0  0  0  0  0  0  0  0  0  0  0  # atno 17320 bound_to 7965
  146.2817  139.6894  142.9224 LP  0  0  0  0  0  0  0  0  0  0  0  0  # atno 17321 bound_to 7965
  139.4909  144.4323  151.9858 LP  0  0  0  0  0  0  0  0  0  0  0  0  # atno 17342 bound_to 10162
  140.3418  144.3195  150.5966 LP  0  0  0  0  0  0  0  0  0  0  0  0  # atno 17343 bound_to 10162
  157.6864  131.0823  150.7231 LP  0  0  0  0  0  0  0  0  0  0  0  0  # atno 17370 bound_to 10713
  156.7288  130.4703  149.5504 LP  0  0  0  0  0  0  0  0  0  0  0  0  # atno 17371 bound_to 10713
  140.7802  134.3734  157.5489 LP  0  0  0  0  0  0  0  0  0  0  0  0  # atno 17394 bound_to 11000
  139.8807  134.9077  156.2950 LP  0  0  0  0  0  0  0  0  0  0  0  0  # atno 17395 bound_to 11000

$$$$
