AV-unprocessed.smi:3352|AV-procd|sdf|12951|dock8
  -GOLD-   2272019393D 1   1.00000     0.00000
 Structure written by MMmdl.
 38 39  0  0  0  0  0  0  0  0  1 V2000
  152.9861  143.1033  161.3510 C   0  0  0  0  0  0  0  0  0  0  0  0
  153.1450  143.3056  159.8376 C   0  0  0  0  0  0  0  0  0  0  0  0
  152.3927  144.5437  159.3283 C   0  0  0  0  0  0  0  0  0  0  0  0
  152.7776  142.0712  159.0744 C   0  0  0  0  0  0  0  0  0  0  0  0
  153.4046  140.9020  159.2283 N   0  0  0  0  0  0  0  0  0  0  0  0
  152.8545  139.8823  158.4436 C   0  0  0  0  0  0  0  0  0  0  0  0
  153.4065  138.4879  158.5287 C   0  0  0  0  0  0  0  0  0  0  0  0
  153.2714  137.9762  159.9634 C   0  0  0  0  0  0  0  0  0  0  0  0
  152.3455  137.2247  160.2684 O   0  0  0  0  0  0  0  0  0  0  0  0
  154.1834  138.4234  160.8401 N   0  0  0  0  0  0  0  0  0  0  0  0
  154.1297  138.2274  162.2829 C   0  0  0  0  0  0  0  0  0  0  0  0
  154.0006  136.7358  162.6407 C   0  0  2  0  0  0  0  0  0  0  0  0
  153.9790  136.4340  164.1406 C   0  0  0  0  0  0  0  0  0  0  0  0
  154.5105  135.0119  164.2285 C   0  0  0  0  0  0  0  0  0  0  0  0
  155.1026  134.7448  162.8410 C   0  0  0  0  0  0  0  0  0  0  0  0
  155.1367  136.0120  162.1988 O   0  0  0  0  0  0  0  0  0  0  0  0
  151.8031  140.3058  157.6690 C   0  0  0  0  0  0  0  0  0  0  0  0
  151.4493  141.9928  157.9191 S   0  0  0  0  0  0  0  0  0  0  0  0
  153.5880  142.2633  161.6992 H   0  0  0  0  0  0  0  0  0  0  0  0
  151.9483  142.9034  161.6188 H   0  0  0  0  0  0  0  0  0  0  0  0
  153.3068  143.9881  161.9012 H   0  0  0  0  0  0  0  0  0  0  0  0
  154.2054  143.4874  159.6552 H   0  0  0  0  0  0  0  0  0  0  0  0
  152.5733  144.7022  158.2645 H   0  0  0  0  0  0  0  0  0  0  0  0
  152.7160  145.4420  159.8547 H   0  0  0  0  0  0  0  0  0  0  0  0
  151.3165  144.4454  159.4733 H   0  0  0  0  0  0  0  0  0  0  0  0
  152.8731  137.8194  157.8518 H   0  0  0  0  0  0  0  0  0  0  0  0
  154.4554  138.4616  158.2299 H   0  0  0  0  0  0  0  0  0  0  0  0
  154.9111  139.0313  160.4923 H   0  0  0  0  0  0  0  0  0  0  0  0
  155.0095  138.6617  162.7603 H   0  0  0  0  0  0  0  0  0  0  0  0
  153.2672  138.7756  162.6630 H   0  0  0  0  0  0  0  0  0  0  0  0
  153.1133  136.3102  162.1679 H   0  0  0  0  0  0  0  0  0  0  0  0
  154.6516  137.1085  164.6721 H   0  0  0  0  0  0  0  0  0  0  0  0
  152.9841  136.5420  164.5747 H   0  0  0  0  0  0  0  0  0  0  0  0
  155.2659  134.9297  165.0107 H   0  0  0  0  0  0  0  0  0  0  0  0
  153.7162  134.2993  164.4529 H   0  0  0  0  0  0  0  0  0  0  0  0
  156.0970  134.3004  162.8882 H   0  0  0  0  0  0  0  0  0  0  0  0
  154.4572  134.0737  162.2724 H   0  0  0  0  0  0  0  0  0  0  0  0
  151.2061  139.7243  156.9821 H   0  0  0  0  0  0  0  0  0  0  0  0
  1  2  1  0  0  0  0
  1 19  1  0  0  0  0
  1 20  1  0  0  0  0
  1 21  1  0  0  0  0
  2  3  1  0  0  0  0
  2  4  1  0  0  0  0
  2 22  1  0  0  0  0
  3 23  1  0  0  0  0
  3 24  1  0  0  0  0
  3 25  1  0  0  0  0
  4 18  1  0  0  0  0
  4  5  2  0  0  0  0
  5  6  1  0  0  0  0
  6  7  1  0  0  0  0
  6 17  2  0  0  0  0
  7  8  1  0  0  0  0
  7 26  1  0  0  0  0
  7 27  1  0  0  0  0
  8  9  2  0  0  0  0
  8 10  1  0  0  0  0
 10 11  1  0  0  0  0
 10 28  1  0  0  0  0
 11 12  1  0  0  0  0
 11 29  1  0  0  0  0
 11 30  1  0  0  0  0
 12 16  1  0  0  0  0
 12 13  1  0  0  0  0
 12 31  1  0  0  0  0
 13 14  1  0  0  0  0
 13 32  1  0  0  0  0
 13 33  1  0  0  0  0
 14 15  1  0  0  0  0
 14 34  1  0  0  0  0
 14 35  1  0  0  0  0
 15 16  1  0  0  0  0
 15 36  1  0  0  0  0
 15 37  1  0  0  0  0
 17 18  1  0  0  0  0
 17 38  1  0  0  0  0
M  END
> <s_m_source_file>
AV-unprocessed.smi

> <i_m_source_file_index>
3352

> <i_lp_mmshare_version>
43012

> <i_f3d_flags>
0

> <s_epik_input>
W0NIM11bQ0hdKFtDSDNdKWMxbmMoW2NIXXMxKVtDSDJdQyg9TylbTkhdW0NIMl1bQ0BASF0yW0NIMl1bQ0gyXVtDSDJdTzI=

> <s_epik_cmdline>
J2VwaWtfcHl0aG9uJywgJy1waCcsICc3LjAnLCAnLXRuJywgJzgnLCAnLW1hJywgJzIwMCcsICctbWV0YWxfYmluZGluZycsICctaW1hZScsICc8aW5maWxlLm1hZT4nLCAnLW9tYWUnLCAnPG91dGZpbGUubWFlPic=

> <r_lp_tautomer_probability>
1

> <r_epik_Ionization_Penalty>
4.66014e-05

> <r_epik_Ionization_Penalty_Charging>
0

> <r_epik_Ionization_Penalty_Neutral>
4.66014e-05

> <r_epik_State_Penalty>
-0

> <r_epik_Charging_Adjusted_Penalty>
0

> <i_epik_Tot_Q>
0

> <i_epik_Tot_abs_Q>
0

> <r_epik_Metal_State_Penalty>
-0

> <b_epik_Metal_Only>
0

> <s_lp_Force_Field>
OPLS_2005

> <r_lp_Energy>
7.75536

> <b_lp_Chiralities_Consistent>
1

> <s_lp_Variant>
AV-unprocessed.smi:3352-1

> <Gold.Version>
5.8.1

> <Gold.Id.Protein>
6NUR|6NUR_protein|mol2

> <Gold.PLP.Fitness>
40.1534

> <Gold.PLP.PLP>
-37.9159

> <Gold.PLP.part.hbond>
-0.9246

> <Gold.PLP.part.metal>
0.0000

> <Gold.PLP.part.buried>
-4.6230

> <Gold.PLP.part.nonpolar>
-32.4309

> <Gold.PLP.part.repulsive>
0.0044

> <Gold.PLP.ligand.clash>
0.0000

> <Gold.PLP.ligand.torsion>
0.3608

> <Gold.PLP.Chemscore.Hbond>
0.9588

> <Gold.PLP.Chemscore.CHOScore>
0.0000

> <Gold.PLP.Chemscore.Metal>
0.0000

> <Gold.Chemscore.Hbonds>
donor molecule, donor type, donor heavy atom, donor atom, acceptor molecule, acceptor atom, score
      P1  H  6896  6909       L1     9  0.65

> <Gold.PLP.Chemscore.Internal.Correction>
0.0828

> <Gold.Rescore>
     Score         DG    S(hbond)    S(metal)    S(lipo)     H(rot)  DE(clash)    DE(int)     intcor
     16.51     -17.93       1.00        0.00     111.93       1.55       0.13       1.29       ----

> <Gold.Chemscore.Fitness>
16.5136

> <Gold.Chemscore.DG>
-17.9315

> <Gold.Chemscore.ZeroCoef>
-5.4800

> <Gold.Chemscore.Hbond>
0.9966

> <Gold.Chemscore.Metal>
0.0000

> <Gold.Chemscore.Lipo>
111.9286

> <Gold.Chemscore.Internal_Hbond>
0.0000

> <Gold.Chemscore.DEClash>
0.1284

> <Gold.Chemscore.DEInternal>
1.2895

> <Gold.Chemscore.Rot>
1.5518

> <Gold.Chemscore.Internal.Correction>
   9.000000E+99

> <Gold.Chemscore.Hbonds>
donor molecule, donor type, donor heavy atom, donor atom, acceptor molecule, acceptor atom, score
      P1  H  6896  6909       L1     9  0.65

> <Gold.Chemscore.Hbond.Weighted>
-3.3286

> <Gold.Chemscore.Metal.Weighted>
-0.0000

> <Gold.Chemscore.Lipo.Weighted>
-13.0956

> <Gold.Chemscore.Internal_Hbond.Weighted>
0.0000

> <Gold.Chemscore.DEClash.Weighted>
0.1284

> <Gold.Chemscore.DEInternal.Weighted>
1.2895

> <Gold.Chemscore.Rot.Weighted>
3.9727

> <Gold.Chemscore.Internal.Correction.Weighted>
   9.000000E+99

> <Gold.Protein.RotatedTorsions>
[ 6907 6896 6895 6894 ] final  128.97 input  -60.11 | X-H torsion
[ 7974 7965 7964 7962 ] final   96.88 input  175.53 | X-H torsion
[ 8008 7997 7996 7995 ] final  -97.14 input   59.86 | X-H torsion
[ 10167 10162 10161 10158 ] final   52.68 input  -65.29 | X-H torsion
[ 10718 10713 10712 10709 ] final -109.44 input   66.30 | X-H torsion
[ 10763 10752 10751 10750 ] final   46.18 input  -60.55 | X-H torsion
[ 11005 11000 10999 10996 ] final   51.48 input  -57.11 | X-H torsion

> <Gold.Protein.ActiveResidues>
 VAL166  LYS551  ARG553  GLY616  TRP617  ASP618  TYR619  PRO620  LYS621  CYS622 
 ASP623  PHE694  ASN695  SER759  ASP760  ASP761  ALA762  ILE779  LEU786  VAL792 
 PHE793  MET794  SER795  GLU796  ALA797  LYS798  CYS799  TRP800  GLU811  SER814 

> <Gold.Protein.RotatedAtoms>
  152.3669  133.6368  159.6057 H   0  0  0  0  0  0  0  0  0  0  0  0  # atno 6907 bound_to 6896
  150.7640  133.9333  159.3442 H   0  0  0  0  0  0  0  0  0  0  0  0  # atno 6908 bound_to 6896
  151.7162  135.0904  160.0327 H   0  0  0  0  0  0  0  0  0  0  0  0  # atno 6909 bound_to 6896
  145.4330  139.2308  143.3134 H   0  0  0  0  0  0  0  0  0  0  0  0  # atno 7974 bound_to 7965
  154.7837  140.0465  157.1147 H   0  0  0  0  0  0  0  0  0  0  0  0  # atno 8008 bound_to 7997
  154.9673  140.3085  155.4984 H   0  0  0  0  0  0  0  0  0  0  0  0  # atno 8009 bound_to 7997
  156.2940  140.2259  156.4763 H   0  0  0  0  0  0  0  0  0  0  0  0  # atno 8010 bound_to 7997
  140.2488  144.3502  150.6355 H   0  0  0  0  0  0  0  0  0  0  0  0  # atno 10167 bound_to 10162
  156.0537  130.5764  150.8100 H   0  0  0  0  0  0  0  0  0  0  0  0  # atno 10718 bound_to 10713
  152.9814  135.6016  154.3558 H   0  0  0  0  0  0  0  0  0  0  0  0  # atno 10763 bound_to 10752
  154.3244  135.2769  155.2505 H   0  0  0  0  0  0  0  0  0  0  0  0  # atno 10764 bound_to 10752
  154.4657  135.5954  153.6342 H   0  0  0  0  0  0  0  0  0  0  0  0  # atno 10765 bound_to 10752
  140.0929  134.5185  155.8835 H   0  0  0  0  0  0  0  0  0  0  0  0  # atno 11005 bound_to 11000
  146.2597  140.5069  142.8859 LP  0  0  0  0  0  0  0  0  0  0  0  0  # atno 17320 bound_to 7965
  144.8170  140.6485  143.6377 LP  0  0  0  0  0  0  0  0  0  0  0  0  # atno 17321 bound_to 7965
  140.6056  143.2167  151.6987 LP  0  0  0  0  0  0  0  0  0  0  0  0  # atno 17342 bound_to 10162
  139.5053  144.3723  152.0458 LP  0  0  0  0  0  0  0  0  0  0  0  0  # atno 17343 bound_to 10162
  157.5488  131.0943  150.9725 LP  0  0  0  0  0  0  0  0  0  0  0  0  # atno 17370 bound_to 10713
  156.9990  130.5592  149.5310 LP  0  0  0  0  0  0  0  0  0  0  0  0  # atno 17371 bound_to 10713
  141.2083  133.6672  156.6363 LP  0  0  0  0  0  0  0  0  0  0  0  0  # atno 17394 bound_to 11000
  140.3327  134.7915  157.4338 LP  0  0  0  0  0  0  0  0  0  0  0  0  # atno 17395 bound_to 11000

$$$$
