AV-unprocessed.smi:1381|AV-procd|sdf|5609|dock5
  -GOLD-   22720 5213D 1   1.00000     0.00000
 Structure written by MMmdl.
 41 42  0  0  0  0  0  0  0  0  2 V2000
  147.0502  133.9225  162.5716 C   0  0  0  0  0  0  0  0  0  0  0  0
  147.4817  134.9676  161.6008 C   0  0  0  0  0  0  0  0  0  0  0  0
  147.9614  134.9053  160.3234 C   0  0  0  0  0  0  0  0  0  0  0  0
  148.1599  136.2716  159.9838 C   0  0  0  0  0  0  0  0  0  0  0  0
  148.6373  136.7350  158.8183 N   0  5  0  0  0  0  0  0  0  0  0  0
  149.9139  137.1755  158.7309 C   0  0  0  0  0  0  0  0  0  0  0  0
  150.9077  136.6439  159.2315 O   0  0  0  0  0  0  0  0  0  0  0  0
  150.0481  138.3030  158.0197 N   0  0  0  0  0  0  0  0  0  0  0  0
  151.3052  138.9916  157.7602 C   0  0  0  0  0  0  0  0  0  0  0  0
  151.0536  140.4947  157.5619 C   0  0  0  0  0  0  0  0  0  0  0  0
  152.0573  141.3746  158.1587 N   0  0  0  0  0  0  0  0  0  0  0  0
  152.3869  140.9985  159.5312 C   0  0  0  0  0  0  0  0  0  0  0  0
  153.4249  141.9499  160.1578 C   0  0  2  0  0  0  0  0  0  0  0  0
  153.7047  141.6154  161.6269 C   0  0  0  0  0  0  0  0  0  0  0  0
  152.9380  143.2875  160.0889 O   0  0  0  0  0  0  0  0  0  0  0  0
  152.6501  143.7138  158.7603 C   0  0  2  0  0  0  0  0  0  0  0  0
  152.1522  145.1620  158.8154 C   0  0  0  0  0  0  0  0  0  0  0  0
  151.6076  142.7617  158.1445 C   0  0  0  0  0  0  0  0  0  0  0  0
  147.8467  137.0891  160.9750 N   0  0  0  0  0  0  0  0  0  0  0  0
  147.4032  136.2613  162.0132 O   0  0  0  0  0  0  0  0  0  0  0  0
  147.7253  133.0671  162.5432 H   0  0  0  0  0  0  0  0  0  0  0  0
  146.0465  133.5698  162.3349 H   0  0  0  0  0  0  0  0  0  0  0  0
  147.0414  134.3117  163.5899 H   0  0  0  0  0  0  0  0  0  0  0  0
  148.1368  134.0249  159.7238 H   0  0  0  0  0  0  0  0  0  0  0  0
  149.2114  138.7098  157.6280 H   0  0  0  0  0  0  0  0  0  0  0  0
  151.9763  138.8102  158.5998 H   0  0  0  0  0  0  0  0  0  0  0  0
  151.7767  138.5748  156.8686 H   0  0  0  0  0  0  0  0  0  0  0  0
  151.0195  140.6820  156.4875 H   0  0  0  0  0  0  0  0  0  0  0  0
  150.0642  140.7534  157.9424 H   0  0  0  0  0  0  0  0  0  0  0  0
  151.4812  140.9964  160.1400 H   0  0  0  0  0  0  0  0  0  0  0  0
  152.7837  139.9841  159.5587 H   0  0  0  0  0  0  0  0  0  0  0  0
  154.3605  141.8857  159.5997 H   0  0  0  0  0  0  0  0  0  0  0  0
  154.0914  140.6015  161.7312 H   0  0  0  0  0  0  0  0  0  0  0  0
  152.7988  141.6922  162.2285 H   0  0  0  0  0  0  0  0  0  0  0  0
  154.4431  142.2978  162.0480 H   0  0  0  0  0  0  0  0  0  0  0  0
  153.5685  143.6815  158.1712 H   0  0  0  0  0  0  0  0  0  0  0  0
  151.9357  145.5409  157.8163 H   0  0  0  0  0  0  0  0  0  0  0  0
  152.9019  145.8147  159.2631 H   0  0  0  0  0  0  0  0  0  0  0  0
  151.2415  145.2442  159.4093 H   0  0  0  0  0  0  0  0  0  0  0  0
  151.4005  143.0703  157.1191 H   0  0  0  0  0  0  0  0  0  0  0  0
  150.6676  142.8497  158.6918 H   0  0  0  0  0  0  0  0  0  0  0  0
  1  2  1  0  0  0  0
  1 21  1  0  0  0  0
  1 22  1  0  0  0  0
  1 23  1  0  0  0  0
  2 20  1  0  0  0  0
  2  3  2  0  0  0  0
  3  4  1  0  0  0  0
  3 24  1  0  0  0  0
  4  5  1  0  0  0  0
  4 19  2  0  0  0  0
  5  6  1  0  0  0  0
  6  7  2  0  0  0  0
  6  8  1  0  0  0  0
  8  9  1  0  0  0  0
  8 25  1  0  0  0  0
  9 10  1  0  0  0  0
  9 26  1  0  0  0  0
  9 27  1  0  0  0  0
 10 11  1  0  0  0  0
 10 28  1  0  0  0  0
 10 29  1  0  0  0  0
 11 18  1  0  0  0  0
 11 12  1  0  0  0  0
 12 13  1  0  0  0  0
 12 30  1  0  0  0  0
 12 31  1  0  0  0  0
 13 14  1  0  0  0  0
 13 15  1  0  0  0  0
 13 32  1  0  0  0  0
 14 33  1  0  0  0  0
 14 34  1  0  0  0  0
 14 35  1  0  0  0  0
 15 16  1  0  0  0  0
 16 17  1  0  0  0  0
 16 18  1  0  0  0  0
 16 36  1  0  0  0  0
 17 37  1  0  0  0  0
 17 38  1  0  0  0  0
 17 39  1  0  0  0  0
 18 40  1  0  0  0  0
 18 41  1  0  0  0  0
 19 20  1  0  0  0  0
M  CHG  1   5  -1
M  END
> <s_m_source_file>
AV-unprocessed.smi

> <i_m_source_file_index>
1381

> <i_lp_mmshare_version>
43012

> <i_f3d_flags>
0

> <s_epik_input>
W0NIM11jMVtjSF1jKG5vMSlbTkhdQyg9TylbTkhdW0NIMl1bQ0gyXU4yW0NIMl1bQ0BASF0oW0NIM10pT1tDQEBIXShbQ0gzXSlbQ0gyXTI=

> <s_epik_cmdline>
J2VwaWtfcHl0aG9uJywgJy1waCcsICc3LjAnLCAnLXRuJywgJzgnLCAnLW1hJywgJzIwMCcsICctbWV0YWxfYmluZGluZycsICctaW1hZScsICc8aW5maWxlLm1hZT4nLCAnLW9tYWUnLCAnPG91dGZpbGUubWFlPic=

> <r_epik_Ionization_Penalty>
6.88366

> <r_epik_Ionization_Penalty_Charging>
6.57198

> <r_epik_Ionization_Penalty_Neutral>
0.311678

> <r_epik_State_Penalty>
6.77619

> <r_epik_Charging_Adjusted_Penalty>
13.3482

> <i_epik_Tot_Q>
-1

> <i_epik_Tot_abs_Q>
1

> <r_epik_Metal_State_Penalty>
2.70524

> <b_epik_Metal_Only>
1

> <s_lp_Force_Field>
OPLS_2005

> <r_lp_Energy>
13.5181

> <b_lp_Chiralities_Consistent>
1

> <s_lp_Variant>
AV-unprocessed.smi:1381-8

> <Gold.Version>
5.8.1

> <Gold.Id.Protein>
6NUR|6NUR_protein|mol2

> <Gold.PLP.Fitness>
46.8936

> <Gold.PLP.PLP>
-41.5672

> <Gold.PLP.part.hbond>
-3.0000

> <Gold.PLP.part.metal>
0.0000

> <Gold.PLP.part.buried>
-7.0343

> <Gold.PLP.part.nonpolar>
-32.1037

> <Gold.PLP.part.repulsive>
0.0914

> <Gold.PLP.ligand.clash>
0.0000

> <Gold.PLP.ligand.torsion>
1.5759

> <Gold.PLP.Chemscore.Hbond>
2.8080

> <Gold.PLP.Chemscore.CHOScore>
0.0000

> <Gold.PLP.Chemscore.Metal>
0.0000

> <Gold.Chemscore.Hbonds>
donor molecule, donor type, donor heavy atom, donor atom, acceptor molecule, acceptor atom, score
      P1  H  6896  6907       L1     7  1.00
      P1  H  6931  6943       L1    19  0.96
      P1  H  6934  6947       L1    19  0.81

> <Gold.PLP.Chemscore.Internal.Correction>
0.0543

> <Gold.Rescore>
     Score         DG    S(hbond)    S(metal)    S(lipo)     H(rot)  DE(clash)    DE(int)     intcor
     19.25     -20.82       2.32        0.00      98.69       1.54       0.00       1.56       ----

> <Gold.Chemscore.Fitness>
19.2517

> <Gold.Chemscore.DG>
-20.8182

> <Gold.Chemscore.ZeroCoef>
-5.4800

> <Gold.Chemscore.Hbond>
2.3160

> <Gold.Chemscore.Metal>
0.0000

> <Gold.Chemscore.Lipo>
98.6950

> <Gold.Chemscore.Internal_Hbond>
0.0000

> <Gold.Chemscore.DEClash>
0.0038

> <Gold.Chemscore.DEInternal>
1.5627

> <Gold.Chemscore.Rot>
1.5409

> <Gold.Chemscore.Internal.Correction>
   9.000000E+99

> <Gold.Chemscore.Hbonds>
donor molecule, donor type, donor heavy atom, donor atom, acceptor molecule, acceptor atom, score
      P1  H  6896  6907       L1     7  0.97
      P1  H  6931  6943       L1    19  0.32
      P1  H  6934  6947       L1    19  0.73

> <Gold.Chemscore.Hbond.Weighted>
-7.7355

> <Gold.Chemscore.Metal.Weighted>
-0.0000

> <Gold.Chemscore.Lipo.Weighted>
-11.5473

> <Gold.Chemscore.Internal_Hbond.Weighted>
0.0000

> <Gold.Chemscore.DEClash.Weighted>
0.0038

> <Gold.Chemscore.DEInternal.Weighted>
1.5627

> <Gold.Chemscore.Rot.Weighted>
3.9446

> <Gold.Chemscore.Internal.Correction.Weighted>
   9.000000E+99

> <Gold.Protein.RotatedTorsions>
[ 6907 6896 6895 6894 ] final  -35.11 input  -60.11 | X-H torsion
[ 7974 7965 7964 7962 ] final  -20.64 input  175.53 | X-H torsion
[ 8008 7997 7996 7995 ] final   62.41 input   59.86 | X-H torsion
[ 10167 10162 10161 10158 ] final   42.42 input  -65.29 | X-H torsion
[ 10718 10713 10712 10709 ] final  -10.21 input   66.30 | X-H torsion
[ 10763 10752 10751 10750 ] final  123.80 input  -60.55 | X-H torsion
[ 11005 11000 10999 10996 ] final  -11.44 input  -57.11 | X-H torsion

> <Gold.Protein.ActiveResidues>
 VAL166  LYS551  ARG553  GLY616  TRP617  ASP618  TYR619  PRO620  LYS621  CYS622 
 ASP623  PHE694  ASN695  SER759  ASP760  ASP761  ALA762  ILE779  LEU786  VAL792 
 PHE793  MET794  SER795  GLU796  ALA797  LYS798  CYS799  TRP800  GLU811  SER814 

> <Gold.Protein.RotatedAtoms>
  151.0440  134.9626  159.8176 H   0  0  0  0  0  0  0  0  0  0  0  0  # atno 6907 bound_to 6896
  152.5369  134.2622  159.8950 H   0  0  0  0  0  0  0  0  0  0  0  0  # atno 6908 bound_to 6896
  151.2636  133.4247  159.2651 H   0  0  0  0  0  0  0  0  0  0  0  0  # atno 6909 bound_to 6896
  146.1777  140.4230  142.8507 H   0  0  0  0  0  0  0  0  0  0  0  0  # atno 7974 bound_to 7965
  155.6138  140.3495  155.4631 H   0  0  0  0  0  0  0  0  0  0  0  0  # atno 8008 bound_to 7997
  156.0133  140.1238  157.0456 H   0  0  0  0  0  0  0  0  0  0  0  0  # atno 8009 bound_to 7997
  154.4288  140.1077  156.5846 H   0  0  0  0  0  0  0  0  0  0  0  0  # atno 8010 bound_to 7997
  140.3546  144.2307  150.6143 H   0  0  0  0  0  0  0  0  0  0  0  0  # atno 10167 bound_to 10162
  156.6767  130.5025  149.5983 H   0  0  0  0  0  0  0  0  0  0  0  0  # atno 10718 bound_to 10713
  153.6512  135.3362  155.3100 H   0  0  0  0  0  0  0  0  0  0  0  0  # atno 10763 bound_to 10752
  154.8537  135.4341  154.1902 H   0  0  0  0  0  0  0  0  0  0  0  0  # atno 10764 bound_to 10752
  153.2845  135.7012  153.7427 H   0  0  0  0  0  0  0  0  0  0  0  0  # atno 10765 bound_to 10752
  140.7553  133.8559  155.9079 H   0  0  0  0  0  0  0  0  0  0  0  0  # atno 11005 bound_to 11000
  144.8263  140.6634  143.6320 LP  0  0  0  0  0  0  0  0  0  0  0  0  # atno 17320 bound_to 7965
  145.4165  139.1571  143.4097 LP  0  0  0  0  0  0  0  0  0  0  0  0  # atno 17321 bound_to 7965
  140.5186  143.2271  151.8424 LP  0  0  0  0  0  0  0  0  0  0  0  0  # atno 17342 bound_to 10162
  139.4822  144.4864  151.9242 LP  0  0  0  0  0  0  0  0  0  0  0  0  # atno 17343 bound_to 10162
  156.1898  130.6552  151.1048 LP  0  0  0  0  0  0  0  0  0  0  0  0  # atno 17370 bound_to 10713
  157.7058  131.0757  150.6671 LP  0  0  0  0  0  0  0  0  0  0  0  0  # atno 17371 bound_to 10713
  140.9713  134.1527  157.4573 LP  0  0  0  0  0  0  0  0  0  0  0  0  # atno 17394 bound_to 11000
  139.8780  134.9979  156.5874 LP  0  0  0  0  0  0  0  0  0  0  0  0  # atno 17395 bound_to 11000

$$$$
