AV-unprocessed.smi:1897|AV-procd|sdf|7687|dock5
  -GOLD-   22720 9423D 1   1.00000     0.00000
 Structure written by MMmdl.
 39 41  0  0  0  0  0  0  0  0  2 V2000
  150.4398  142.7776  157.8054 C   0  0  0  0  0  0  0  0  0  0  0  0
  150.2895  141.9040  156.6070 C   0  0  0  0  0  0  0  0  0  0  0  0
  151.3215  141.2658  156.0424 N   0  0  0  0  0  0  0  0  0  0  0  0
  150.9345  140.5067  154.9481 N   0  0  0  0  0  0  0  0  0  0  0  0
  149.6184  140.6040  154.7077 C   0  0  0  0  0  0  0  0  0  0  0  0
  148.9385  139.9122  153.6631 N   0  0  0  0  0  0  0  0  0  0  0  0
  147.7423  139.2876  153.6462 C   0  0  0  0  0  0  0  0  0  0  0  0
  147.0312  139.2458  154.6482 O   0  0  0  0  0  0  0  0  0  0  0  0
  147.3884  138.7245  152.4786 N   0  0  0  0  0  0  0  0  0  0  0  0
  146.1756  137.9476  152.2346 C   0  0  1  0  0  0  0  0  0  0  0  0
  146.0728  137.4452  150.7811 C   0  0  0  0  0  0  0  0  0  0  0  0
  145.5851  135.9976  150.9016 C   0  0  0  0  0  0  0  0  0  0  0  0
  146.1867  135.5513  152.1634 N   0  3  2  0  0  0  0  0  0  0  0  0
  145.7372  134.2694  152.7436 C   0  0  0  0  0  0  0  0  0  0  0  0
  146.6335  133.9404  153.9569 C   0  0  0  0  0  0  0  0  0  0  0  0
  146.7025  135.1081  154.9669 C   0  0  0  0  0  0  0  0  0  0  0  0
  147.0539  136.4432  154.2756 C   0  0  0  0  0  0  0  0  0  0  0  0
  146.0767  136.6755  153.1087 C   0  0  1  0  0  0  0  0  0  0  0  0
  148.7349  141.6218  155.8330 S   0  0  0  0  0  0  0  0  0  0  0  0
  151.4459  143.1959  157.8496 H   0  0  0  0  0  0  0  0  0  0  0  0
  150.2594  142.1994  158.7116 H   0  0  0  0  0  0  0  0  0  0  0  0
  149.7239  143.5987  157.7647 H   0  0  0  0  0  0  0  0  0  0  0  0
  149.3914  139.9739  152.7627 H   0  0  0  0  0  0  0  0  0  0  0  0
  148.0320  138.8159  151.7052 H   0  0  0  0  0  0  0  0  0  0  0  0
  145.3024  138.5715  152.4360 H   0  0  0  0  0  0  0  0  0  0  0  0
  145.4082  138.0579  150.1712 H   0  0  0  0  0  0  0  0  0  0  0  0
  147.0552  137.4546  150.3056 H   0  0  0  0  0  0  0  0  0  0  0  0
  144.4971  135.9643  150.9795 H   0  0  0  0  0  0  0  0  0  0  0  0
  145.8926  135.3773  150.0593 H   0  0  0  0  0  0  0  0  0  0  0  0
  144.6894  134.3373  153.0401 H   0  0  0  0  0  0  0  0  0  0  0  0
  145.8125  133.4797  151.9953 H   0  0  0  0  0  0  0  0  0  0  0  0
  146.2752  133.0379  154.4527 H   0  0  0  0  0  0  0  0  0  0  0  0
  147.6412  133.7155  153.6050 H   0  0  0  0  0  0  0  0  0  0  0  0
  145.7385  135.2054  155.4677 H   0  0  0  0  0  0  0  0  0  0  0  0
  147.4315  134.8862  155.7468 H   0  0  0  0  0  0  0  0  0  0  0  0
  146.9919  137.2596  154.9957 H   0  0  0  0  0  0  0  0  0  0  0  0
  148.0825  136.4159  153.9127 H   0  0  0  0  0  0  0  0  0  0  0  0
  145.0628  136.6624  153.5148 H   0  0  0  0  0  0  0  0  0  0  0  0
  147.1723  135.4474  151.9687 H   0  0  0  0  0  0  0  0  0  0  0  0
  1  2  1  0  0  0  0
  1 20  1  0  0  0  0
  1 21  1  0  0  0  0
  1 22  1  0  0  0  0
  2 19  1  0  0  0  0
  2  3  2  0  0  0  0
  3  4  1  0  0  0  0
  4  5  2  0  0  0  0
  5  6  1  0  0  0  0
  5 19  1  0  0  0  0
  6  7  1  0  0  0  0
  6 23  1  0  0  0  0
  7  8  2  0  0  0  0
  7  9  1  0  0  0  0
  9 10  1  0  0  0  0
  9 24  1  0  0  0  0
 10 18  1  0  0  0  0
 10 11  1  0  0  0  0
 10 25  1  0  0  0  0
 11 12  1  0  0  0  0
 11 26  1  0  0  0  0
 11 27  1  0  0  0  0
 12 13  1  0  0  0  0
 12 28  1  0  0  0  0
 12 29  1  0  0  0  0
 13 18  1  0  0  0  0
 13 14  1  0  0  0  0
 13 39  1  0  0  0  0
 14 15  1  0  0  0  0
 14 30  1  0  0  0  0
 14 31  1  0  0  0  0
 15 16  1  0  0  0  0
 15 32  1  0  0  0  0
 15 33  1  0  0  0  0
 16 17  1  0  0  0  0
 16 34  1  0  0  0  0
 16 35  1  0  0  0  0
 17 18  1  0  0  0  0
 17 36  1  0  0  0  0
 17 37  1  0  0  0  0
 18 38  1  0  0  0  0
M  CHG  1  13   1
M  END
> <s_m_source_file>
AV-unprocessed.smi

> <i_m_source_file_index>
1897

> <i_lp_mmshare_version>
43012

> <i_f3d_flags>
0

> <s_epik_input>
W0NIM11jMW5uYyhzMSlbTkhdQyg9TylbTkhdW0NASF0oW0NIMl1bQ0gyXTIpW0NAQEhdKE4yMylbQ0gyXVtDSDJdW0NIMl1bQ0gyXTM=

> <s_epik_cmdline>
J2VwaWtfcHl0aG9uJywgJy1waCcsICc3LjAnLCAnLXRuJywgJzgnLCAnLW1hJywgJzIwMCcsICctbWV0YWxfYmluZGluZycsICctaW1hZScsICc8aW5maWxlLm1hZT4nLCAnLW9tYWUnLCAnPG91dGZpbGUubWFlPic=

> <r_lp_tautomer_probability>
1

> <r_epik_Ionization_Penalty>
0.00228891

> <r_epik_Ionization_Penalty_Charging>
0.00107044

> <r_epik_Ionization_Penalty_Neutral>
0.00121847

> <r_epik_State_Penalty>
-0

> <r_epik_Charging_Adjusted_Penalty>
0.00107044

> <i_epik_Tot_Q>
1

> <i_epik_Tot_abs_Q>
1

> <r_epik_Metal_State_Penalty>
0.304057

> <b_epik_Metal_Only>
0

> <s_lp_Force_Field>
OPLS_2005

> <r_lp_Energy>
42.6082

> <b_lp_Chiralities_Consistent>
1

> <s_lp_Variant>
AV-unprocessed.smi:1897-4

> <Gold.Version>
5.8.1

> <Gold.Id.Protein>
6NUR|6NUR_protein|mol2

> <Gold.PLP.Fitness>
38.7729

> <Gold.PLP.PLP>
-25.1376

> <Gold.PLP.part.hbond>
-5.0000

> <Gold.PLP.part.metal>
0.0000

> <Gold.PLP.part.buried>
3.6952

> <Gold.PLP.part.nonpolar>
-23.0448

> <Gold.PLP.part.repulsive>
0.3805

> <Gold.PLP.ligand.clash>
0.2185

> <Gold.PLP.ligand.torsion>
0.3107

> <Gold.PLP.Chemscore.Hbond>
4.8247

> <Gold.PLP.Chemscore.CHOScore>
0.0000

> <Gold.PLP.Chemscore.Metal>
0.0000

> <Gold.Chemscore.Hbonds>
donor molecule, donor type, donor heavy atom, donor atom, acceptor molecule, acceptor atom, score
      L1  H     6    23       P1  7957  1.00
      L1  H     9    24       P1  7957  0.78
      L1  H    13    39       P1  7948  2.00
      P1  H  7989  7998       L1     4  1.00

> <Gold.PLP.Chemscore.Internal.Correction>
0.0011

> <Gold.Rescore>
     Score         DG    S(hbond)    S(metal)    S(lipo)     H(rot)  DE(clash)    DE(int)     intcor
     14.98     -20.05       3.16        0.00      56.24       1.00       3.21       1.86       ----

> <Gold.Chemscore.Fitness>
14.9800

> <Gold.Chemscore.DG>
-20.0481

> <Gold.Chemscore.ZeroCoef>
-5.4800

> <Gold.Chemscore.Hbond>
3.1580

> <Gold.Chemscore.Metal>
0.0000

> <Gold.Chemscore.Lipo>
56.2431

> <Gold.Chemscore.Internal_Hbond>
0.0000

> <Gold.Chemscore.DEClash>
3.2063

> <Gold.Chemscore.DEInternal>
1.8617

> <Gold.Chemscore.Rot>
1.0000

> <Gold.Chemscore.Internal.Correction>
   9.000000E+99

> <Gold.Chemscore.Hbonds>
donor molecule, donor type, donor heavy atom, donor atom, acceptor molecule, acceptor atom, score
      L1  H     6    23       P1  7957  0.99
      L1  H     9    24       P1  7957  0.60
      L1  H    13    39       P1  7948  0.95
      P1  H  7989  7998       L1     4  0.40

> <Gold.Chemscore.Hbond.Weighted>
-10.5476

> <Gold.Chemscore.Metal.Weighted>
-0.0000

> <Gold.Chemscore.Lipo.Weighted>
-6.5804

> <Gold.Chemscore.Internal_Hbond.Weighted>
0.0000

> <Gold.Chemscore.DEClash.Weighted>
3.2063

> <Gold.Chemscore.DEInternal.Weighted>
1.8617

> <Gold.Chemscore.Rot.Weighted>
2.5600

> <Gold.Chemscore.Internal.Correction.Weighted>
   9.000000E+99

> <Gold.Protein.RotatedTorsions>
[ 6907 6896 6895 6894 ] final  -53.38 input  -60.11 | X-H torsion
[ 7974 7965 7964 7962 ] final   14.72 input  175.53 | X-H torsion
[ 8008 7997 7996 7995 ] final -113.61 input   59.86 | X-H torsion
[ 10167 10162 10161 10158 ] final  -28.61 input  -65.29 | X-H torsion
[ 10718 10713 10712 10709 ] final   74.59 input   66.30 | X-H torsion
[ 10763 10752 10751 10750 ] final   90.84 input  -60.55 | X-H torsion
[ 11005 11000 10999 10996 ] final  -22.76 input  -57.11 | X-H torsion

> <Gold.Protein.ActiveResidues>
 VAL166  LYS551  ARG553  GLY616  TRP617  ASP618  TYR619  PRO620  LYS621  CYS622 
 ASP623  PHE694  ASN695  SER759  ASP760  ASP761  ALA762  ILE779  LEU786  VAL792 
 PHE793  MET794  SER795  GLU796  ALA797  LYS798  CYS799  TRP800  GLU811  SER814 

> <Gold.Protein.RotatedAtoms>
  150.8432  134.7731  159.6948 H   0  0  0  0  0  0  0  0  0  0  0  0  # atno 6907 bound_to 6896
  152.4514  134.5381  159.9841 H   0  0  0  0  0  0  0  0  0  0  0  0  # atno 6908 bound_to 6896
  151.5517  133.3378  159.2990 H   0  0  0  0  0  0  0  0  0  0  0  0  # atno 6909 bound_to 6896
  146.2297  139.8999  142.8541 H   0  0  0  0  0  0  0  0  0  0  0  0  # atno 7974 bound_to 7965
  155.0234  140.0393  157.2446 H   0  0  0  0  0  0  0  0  0  0  0  0  # atno 8008 bound_to 7997
  154.7359  140.2739  155.6392 H   0  0  0  0  0  0  0  0  0  0  0  0  # atno 8009 bound_to 7997
  156.2853  140.2675  156.2072 H   0  0  0  0  0  0  0  0  0  0  0  0  # atno 8010 bound_to 7997
  140.7268  143.3996  151.1288 H   0  0  0  0  0  0  0  0  0  0  0  0  # atno 10167 bound_to 10162
  157.6598  130.9685  150.1232 H   0  0  0  0  0  0  0  0  0  0  0  0  # atno 10718 bound_to 10713
  153.2019  135.4419  155.0276 H   0  0  0  0  0  0  0  0  0  0  0  0  # atno 10763 bound_to 10752
  154.8151  135.3312  154.7200 H   0  0  0  0  0  0  0  0  0  0  0  0  # atno 10764 bound_to 10752
  153.7644  135.6989  153.4974 H   0  0  0  0  0  0  0  0  0  0  0  0  # atno 10765 bound_to 10752
  140.8688  133.7735  156.0161 H   0  0  0  0  0  0  0  0  0  0  0  0  # atno 11005 bound_to 11000
  145.2334  140.9981  143.3978 LP  0  0  0  0  0  0  0  0  0  0  0  0  # atno 17320 bound_to 7965
  144.9512  139.4081  143.6401 LP  0  0  0  0  0  0  0  0  0  0  0  0  # atno 17321 bound_to 7965
  139.7613  143.8631  152.3101 LP  0  0  0  0  0  0  0  0  0  0  0  0  # atno 17342 bound_to 10162
  139.8518  144.7161  150.9205 LP  0  0  0  0  0  0  0  0  0  0  0  0  # atno 17343 bound_to 10162
  156.2098  130.3666  149.8684 LP  0  0  0  0  0  0  0  0  0  0  0  0  # atno 17370 bound_to 10713
  156.6566  130.8765  151.3540 LP  0  0  0  0  0  0  0  0  0  0  0  0  # atno 17371 bound_to 10713
  140.8598  134.2855  157.5239 LP  0  0  0  0  0  0  0  0  0  0  0  0  # atno 17394 bound_to 11000
  139.8711  134.9512  156.4077 LP  0  0  0  0  0  0  0  0  0  0  0  0  # atno 17395 bound_to 11000

$$$$
