AV-unprocessed.smi:1925|AV-procd|sdf|7793|dock3
  -GOLD-   22720 9533D 1   1.00000     0.00000
 Structure written by MMmdl.
 31 32  0  0  0  0  0  0  0  0  1 V2000
  148.3718  143.4987  161.1376 O   0  0  0  0  0  0  0  0  0  0  0  0
  148.3409  144.2098  160.1330 C   0  0  0  0  0  0  0  0  0  0  0  0
  147.2261  144.8031  159.6827 N   0  0  0  0  0  0  0  0  0  0  0  0
  145.9066  144.6785  160.2925 C   0  0  0  0  0  0  0  0  0  0  0  0
  145.5622  143.2154  160.6318 C   0  0  1  0  0  0  0  0  0  0  0  0
  144.1941  143.0349  161.2804 C   0  0  0  0  0  0  0  0  0  0  0  0
  143.6367  141.7557  160.6471 C   0  0  0  0  0  0  0  0  0  0  0  0
  144.7144  141.2004  159.9075 O   0  0  0  0  0  0  0  0  0  0  0  0
  145.4911  142.2817  159.4240 C   0  0  0  0  0  0  0  0  0  0  0  0
  149.3935  144.4905  159.3446 N   0  0  0  0  0  0  0  0  0  0  0  0
  150.7365  144.0495  159.4829 C   0  0  0  0  0  0  0  0  0  0  0  0
  151.6794  144.7460  158.6934 C   0  0  0  0  0  0  0  0  0  0  0  0
  153.0390  144.3848  158.7578 C   0  0  0  0  0  0  0  0  0  0  0  0
  153.4217  143.3355  159.6122 C   0  0  0  0  0  0  0  0  0  0  0  0
  152.4205  142.6946  160.3648 C   0  0  0  0  0  0  0  0  0  0  0  0
  151.1169  143.0391  160.3044 N   0  0  0  0  0  0  0  0  0  0  0  0
  147.2910  145.3729  158.8520 H   0  0  0  0  0  0  0  0  0  0  0  0
  145.8505  145.2979  161.1894 H   0  0  0  0  0  0  0  0  0  0  0  0
  145.1741  145.0830  159.5934 H   0  0  0  0  0  0  0  0  0  0  0  0
  146.3107  142.8175  161.3190 H   0  0  0  0  0  0  0  0  0  0  0  0
  144.2876  142.9409  162.3629 H   0  0  0  0  0  0  0  0  0  0  0  0
  143.5296  143.8753  161.0771 H   0  0  0  0  0  0  0  0  0  0  0  0
  143.2655  141.0483  161.3888 H   0  0  0  0  0  0  0  0  0  0  0  0
  142.8193  141.9925  159.9646 H   0  0  0  0  0  0  0  0  0  0  0  0
  144.9793  142.7540  158.5837 H   0  0  0  0  0  0  0  0  0  0  0  0
  146.4741  141.9504  159.0887 H   0  0  0  0  0  0  0  0  0  0  0  0
  149.2115  145.0824  158.5477 H   0  0  0  0  0  0  0  0  0  0  0  0
  151.3683  145.5496  158.0417 H   0  0  0  0  0  0  0  0  0  0  0  0
  153.7746  144.9040  158.1615 H   0  0  0  0  0  0  0  0  0  0  0  0
  154.4547  143.0297  159.6888 H   0  0  0  0  0  0  0  0  0  0  0  0
  152.6723  141.8843  161.0328 H   0  0  0  0  0  0  0  0  0  0  0  0
  1  2  2  0  0  0  0
  2  3  1  0  0  0  0
  2 10  1  0  0  0  0
  3  4  1  0  0  0  0
  3 17  1  0  0  0  0
  4  5  1  0  0  0  0
  4 18  1  0  0  0  0
  4 19  1  0  0  0  0
  5  9  1  0  0  0  0
  5  6  1  0  0  0  0
  5 20  1  0  0  0  0
  6  7  1  0  0  0  0
  6 21  1  0  0  0  0
  6 22  1  0  0  0  0
  7  8  1  0  0  0  0
  7 23  1  0  0  0  0
  7 24  1  0  0  0  0
  8  9  1  0  0  0  0
  9 25  1  0  0  0  0
  9 26  1  0  0  0  0
 10 11  1  0  0  0  0
 10 27  1  0  0  0  0
 11 16  1  0  0  0  0
 11 12  2  0  0  0  0
 12 13  1  0  0  0  0
 12 28  1  0  0  0  0
 13 14  2  0  0  0  0
 13 29  1  0  0  0  0
 14 15  1  0  0  0  0
 14 30  1  0  0  0  0
 15 16  2  0  0  0  0
 15 31  1  0  0  0  0
M  END
> <s_m_source_file>
AV-unprocessed.smi

> <i_m_source_file_index>
1925

> <i_lp_mmshare_version>
43012

> <i_f3d_flags>
0

> <s_epik_input>
bjFbY0hdW2NIXVtjSF1bY0hdYzFbTkhdQyg9TylbTkhdW0NIMl1bQ0BASF0yW0NIMl1bQ0gyXU9bQ0gyXTI=

> <s_epik_cmdline>
J2VwaWtfcHl0aG9uJywgJy1waCcsICc3LjAnLCAnLXRuJywgJzgnLCAnLW1hJywgJzIwMCcsICctbWV0YWxfYmluZGluZycsICctaW1hZScsICc8aW5maWxlLm1hZT4nLCAnLW9tYWUnLCAnPG91dGZpbGUubWFlPic=

> <r_lp_tautomer_probability>
1

> <r_epik_Ionization_Penalty>
4.81143e-05

> <r_epik_Ionization_Penalty_Charging>
0

> <r_epik_Ionization_Penalty_Neutral>
4.81143e-05

> <r_epik_State_Penalty>
-0

> <r_epik_Charging_Adjusted_Penalty>
0

> <i_epik_Tot_Q>
0

> <i_epik_Tot_abs_Q>
0

> <r_epik_Metal_State_Penalty>
-0

> <b_epik_Metal_Only>
0

> <s_lp_Force_Field>
OPLS_2005

> <r_lp_Energy>
20.4602

> <b_lp_Chiralities_Consistent>
1

> <s_lp_Variant>
AV-unprocessed.smi:1925-2

> <Gold.Version>
5.8.1

> <Gold.Id.Protein>
6NUR|6NUR_protein|mol2

> <Gold.PLP.Fitness>
45.2088

> <Gold.PLP.PLP>
-37.2001

> <Gold.PLP.part.hbond>
-4.0000

> <Gold.PLP.part.metal>
0.0000

> <Gold.PLP.part.buried>
-4.9233

> <Gold.PLP.part.nonpolar>
-29.8561

> <Gold.PLP.part.repulsive>
0.6263

> <Gold.PLP.ligand.clash>
0.0000

> <Gold.PLP.ligand.torsion>
0.1245

> <Gold.PLP.Chemscore.Hbond>
2.7520

> <Gold.PLP.Chemscore.CHOScore>
0.0000

> <Gold.PLP.Chemscore.Metal>
0.0000

> <Gold.Chemscore.Hbonds>
donor molecule, donor type, donor heavy atom, donor atom, acceptor molecule, acceptor atom, score
      L1  H     3    17       P1  8029  1.00
      L1  H    10    27       P1  8029  1.00
      P1  H  6933  6944       L1     1  0.11

> <Gold.PLP.Chemscore.Internal.Correction>
0.0017

> <Gold.Rescore>
     Score         DG    S(hbond)    S(metal)    S(lipo)     H(rot)  DE(clash)    DE(int)     intcor
     18.28     -20.85       2.69        0.00      82.29       1.27       0.07       2.51       ----

> <Gold.Chemscore.Fitness>
18.2758

> <Gold.Chemscore.DG>
-20.8478

> <Gold.Chemscore.ZeroCoef>
-5.4800

> <Gold.Chemscore.Hbond>
2.6901

> <Gold.Chemscore.Metal>
0.0000

> <Gold.Chemscore.Lipo>
82.2923

> <Gold.Chemscore.Internal_Hbond>
0.0000

> <Gold.Chemscore.DEClash>
0.0664

> <Gold.Chemscore.DEInternal>
2.5056

> <Gold.Chemscore.Rot>
1.2678

> <Gold.Chemscore.Internal.Correction>
   9.000000E+99

> <Gold.Chemscore.Hbonds>
donor molecule, donor type, donor heavy atom, donor atom, acceptor molecule, acceptor atom, score
      L1  H     3    17       P1  8029  1.00
      L1  H    10    27       P1  8029  0.76
      P1  H  6933  6944       L1     1  0.14

> <Gold.Chemscore.Hbond.Weighted>
-8.9850

> <Gold.Chemscore.Metal.Weighted>
-0.0000

> <Gold.Chemscore.Lipo.Weighted>
-9.6282

> <Gold.Chemscore.Internal_Hbond.Weighted>
0.0000

> <Gold.Chemscore.DEClash.Weighted>
0.0664

> <Gold.Chemscore.DEInternal.Weighted>
2.5056

> <Gold.Chemscore.Rot.Weighted>
3.2455

> <Gold.Chemscore.Internal.Correction.Weighted>
   9.000000E+99

> <Gold.Protein.RotatedTorsions>
[ 6907 6896 6895 6894 ] final  -88.97 input  -60.11 | X-H torsion
[ 7974 7965 7964 7962 ] final  -80.59 input  175.53 | X-H torsion
[ 8008 7997 7996 7995 ] final  108.05 input   59.86 | X-H torsion
[ 10167 10162 10161 10158 ] final -127.08 input  -65.29 | X-H torsion
[ 10718 10713 10712 10709 ] final -138.88 input   66.30 | X-H torsion
[ 10763 10752 10751 10750 ] final  -30.90 input  -60.55 | X-H torsion
[ 11005 11000 10999 10996 ] final  112.63 input  -57.11 | X-H torsion

> <Gold.Protein.ActiveResidues>
 VAL166  LYS551  ARG553  GLY616  TRP617  ASP618  TYR619  PRO620  LYS621  CYS622 
 ASP623  PHE694  ASN695  SER759  ASP760  ASP761  ALA762  ILE779  LEU786  VAL792 
 PHE793  MET794  SER795  GLU796  ALA797  LYS798  CYS799  TRP800  GLU811  SER814 

> <Gold.Protein.RotatedAtoms>
  150.6871  134.2659  159.4568 H   0  0  0  0  0  0  0  0  0  0  0  0  # atno 6907 bound_to 6896
  152.0585  134.9606  160.0584 H   0  0  0  0  0  0  0  0  0  0  0  0  # atno 6908 bound_to 6896
  152.1042  133.4231  159.4638 H   0  0  0  0  0  0  0  0  0  0  0  0  # atno 6909 bound_to 6896
  145.5580  140.9486  143.1463 H   0  0  0  0  0  0  0  0  0  0  0  0  # atno 7974 bound_to 7965
  156.1872  140.3083  155.9262 H   0  0  0  0  0  0  0  0  0  0  0  0  # atno 8008 bound_to 7997
  155.3254  140.0458  157.3058 H   0  0  0  0  0  0  0  0  0  0  0  0  # atno 8009 bound_to 7997
  154.5410  140.2261  155.8651 H   0  0  0  0  0  0  0  0  0  0  0  0  # atno 8010 bound_to 7997
  139.9647  143.5911  152.2433 H   0  0  0  0  0  0  0  0  0  0  0  0  # atno 10167 bound_to 10162
  156.3044  130.7446  151.1506 H   0  0  0  0  0  0  0  0  0  0  0  0  # atno 10718 bound_to 10713
  153.7886  135.6899  153.4875 H   0  0  0  0  0  0  0  0  0  0  0  0  # atno 10763 bound_to 10752
  153.1764  135.4523  154.9969 H   0  0  0  0  0  0  0  0  0  0  0  0  # atno 10764 bound_to 10752
  154.8053  135.3354  154.7384 H   0  0  0  0  0  0  0  0  0  0  0  0  # atno 10765 bound_to 10752
  139.8932  134.9533  156.6614 H   0  0  0  0  0  0  0  0  0  0  0  0  # atno 11005 bound_to 11000
  144.7497  139.7226  143.7278 LP  0  0  0  0  0  0  0  0  0  0  0  0  # atno 17320 bound_to 7965
  146.1871  139.5092  142.9829 LP  0  0  0  0  0  0  0  0  0  0  0  0  # atno 17321 bound_to 7965
  139.6527  144.7661  151.2116 LP  0  0  0  0  0  0  0  0  0  0  0  0  # atno 17342 bound_to 10162
  140.7542  143.6135  150.8582 LP  0  0  0  0  0  0  0  0  0  0  0  0  # atno 17343 bound_to 10162
  157.7376  131.0550  150.5347 LP  0  0  0  0  0  0  0  0  0  0  0  0  # atno 17370 bound_to 10713
  156.5478  130.4224  149.6122 LP  0  0  0  0  0  0  0  0  0  0  0  0  # atno 17371 bound_to 10713
  140.7444  133.8950  155.8301 LP  0  0  0  0  0  0  0  0  0  0  0  0  # atno 17394 bound_to 11000
  141.0052  134.1096  157.4278 LP  0  0  0  0  0  0  0  0  0  0  0  0  # atno 17395 bound_to 11000

$$$$
