AV-unprocessed.smi:1395|AV-procd|sdf|5669|dock1
  -GOLD-   22720 5293D 1   1.00000     0.00000
 Structure written by MMmdl.
 42 43  0  0  0  0  0  0  0  0  1 V2000
  153.0092  142.8772  162.8295 C   0  0  0  0  0  0  0  0  0  0  0  0
  152.8021  143.1798  161.3542 C   0  0  0  0  0  0  0  0  0  0  0  0
  152.0491  144.3133  160.9810 C   0  0  0  0  0  0  0  0  0  0  0  0
  151.8582  144.5914  159.6167 C   0  0  0  0  0  0  0  0  0  0  0  0
  152.4325  143.7182  158.6773 C   0  0  0  0  0  0  0  0  0  0  0  0
  153.1532  142.6326  159.0249 N   0  0  0  0  0  0  0  0  0  0  0  0
  153.3470  142.3498  160.3377 C   0  0  0  0  0  0  0  0  0  0  0  0
  154.0940  141.2211  160.7789 N   0  0  0  0  0  0  0  0  0  0  0  0
  154.4742  140.1402  160.0750 C   0  0  0  0  0  0  0  0  0  0  0  0
  154.2331  139.9423  158.8838 O   0  0  0  0  0  0  0  0  0  0  0  0
  155.1659  139.2845  160.8414 N   0  0  0  0  0  0  0  0  0  0  0  0
  155.7291  138.0153  160.3912 C   0  0  0  0  0  0  0  0  0  0  0  0
  156.6229  138.2484  159.1652 C   0  0  0  0  0  0  0  0  0  0  0  0
  157.1314  136.9192  158.5798 C   0  0  0  0  0  0  0  0  0  0  0  0
  156.0014  136.0528  158.2137 N   0  0  0  0  0  0  0  0  0  0  0  0
  156.4357  134.7921  157.5700 C   0  0  0  0  0  0  0  0  0  0  0  0
  157.3066  134.9809  156.3210 C   0  0  0  0  0  0  0  0  0  0  0  0
  158.5453  134.4843  156.3605 N   0  0  0  0  0  0  0  0  0  0  0  0
  156.8674  135.5701  155.3356 O   0  0  0  0  0  0  0  0  0  0  0  0
  155.1990  135.7398  159.4009 C   0  0  0  0  0  0  0  0  0  0  0  0
  154.6156  137.0239  160.0160 C   0  0  0  0  0  0  0  0  0  0  0  0
  152.5246  143.6232  163.4599 H   0  0  0  0  0  0  0  0  0  0  0  0
  154.0721  142.8724  163.0730 H   0  0  0  0  0  0  0  0  0  0  0  0
  152.5905  141.9023  163.0808 H   0  0  0  0  0  0  0  0  0  0  0  0
  151.6211  144.9644  161.7292 H   0  0  0  0  0  0  0  0  0  0  0  0
  151.2869  145.4509  159.2988 H   0  0  0  0  0  0  0  0  0  0  0  0
  152.3105  143.8949  157.6190 H   0  0  0  0  0  0  0  0  0  0  0  0
  154.3722  141.2414  161.7486 H   0  0  0  0  0  0  0  0  0  0  0  0
  155.3187  139.5293  161.8087 H   0  0  0  0  0  0  0  0  0  0  0  0
  156.3403  137.5853  161.1872 H   0  0  0  0  0  0  0  0  0  0  0  0
  156.0690  138.7902  158.3968 H   0  0  0  0  0  0  0  0  0  0  0  0
  157.4707  138.8788  159.4365 H   0  0  0  0  0  0  0  0  0  0  0  0
  157.7454  137.1488  157.7091 H   0  0  0  0  0  0  0  0  0  0  0  0
  157.7786  136.4112  159.2969 H   0  0  0  0  0  0  0  0  0  0  0  0
  156.9625  134.1717  158.2981 H   0  0  0  0  0  0  0  0  0  0  0  0
  155.5575  134.2247  157.2583 H   0  0  0  0  0  0  0  0  0  0  0  0
  159.1559  134.5853  155.5629 H   0  0  0  0  0  0  0  0  0  0  0  0
  158.8671  134.0094  157.1915 H   0  0  0  0  0  0  0  0  0  0  0  0
  154.3767  135.0771  159.1279 H   0  0  0  0  0  0  0  0  0  0  0  0
  155.8022  135.2082  160.1391 H   0  0  0  0  0  0  0  0  0  0  0  0
  154.0246  136.7713  160.8970 H   0  0  0  0  0  0  0  0  0  0  0  0
  153.9286  137.4856  159.3052 H   0  0  0  0  0  0  0  0  0  0  0  0
  1  2  1  0  0  0  0
  1 22  1  0  0  0  0
  1 23  1  0  0  0  0
  1 24  1  0  0  0  0
  2  7  1  0  0  0  0
  2  3  2  0  0  0  0
  3  4  1  0  0  0  0
  3 25  1  0  0  0  0
  4  5  2  0  0  0  0
  4 26  1  0  0  0  0
  5  6  1  0  0  0  0
  5 27  1  0  0  0  0
  6  7  2  0  0  0  0
  7  8  1  0  0  0  0
  8  9  1  0  0  0  0
  8 28  1  0  0  0  0
  9 10  2  0  0  0  0
  9 11  1  0  0  0  0
 11 12  1  0  0  0  0
 11 29  1  0  0  0  0
 12 21  1  0  0  0  0
 12 13  1  0  0  0  0
 12 30  1  0  0  0  0
 13 14  1  0  0  0  0
 13 31  1  0  0  0  0
 13 32  1  0  0  0  0
 14 15  1  0  0  0  0
 14 33  1  0  0  0  0
 14 34  1  0  0  0  0
 15 16  1  0  0  0  0
 15 20  1  0  0  0  0
 16 17  1  0  0  0  0
 16 35  1  0  0  0  0
 16 36  1  0  0  0  0
 17 18  1  0  0  0  0
 17 19  2  0  0  0  0
 18 37  1  0  0  0  0
 18 38  1  0  0  0  0
 20 21  1  0  0  0  0
 20 39  1  0  0  0  0
 20 40  1  0  0  0  0
 21 41  1  0  0  0  0
 21 42  1  0  0  0  0
M  END
> <s_m_source_file>
AV-unprocessed.smi

> <i_m_source_file_index>
1395

> <i_lp_mmshare_version>
43012

> <i_f3d_flags>
0

> <s_epik_input>
W0NIM11jMVtjSF1bY0hdW2NIXW5jMVtOSF1DKD1PKVtOSF1bQ0hdMltDSDJdW0NIMl1OKFtDSDJdW0NIMl0yKVtDSDJdQyg9TylbTkgyXQ==

> <s_epik_cmdline>
J2VwaWtfcHl0aG9uJywgJy1waCcsICc3LjAnLCAnLXRuJywgJzgnLCAnLW1hJywgJzIwMCcsICctbWV0YWxfYmluZGluZycsICctaW1hZScsICc8aW5maWxlLm1hZT4nLCAnLW9tYWUnLCAnPG91dGZpbGUubWFlPic=

> <r_epik_Ionization_Penalty>
0.164795

> <r_epik_Ionization_Penalty_Charging>
0

> <r_epik_Ionization_Penalty_Neutral>
0.164795

> <r_epik_State_Penalty>
0.154069

> <r_epik_Charging_Adjusted_Penalty>
0.154069

> <i_epik_Tot_Q>
0

> <i_epik_Tot_abs_Q>
0

> <r_epik_Metal_State_Penalty>
0.171366

> <b_epik_Metal_Only>
0

> <s_lp_Force_Field>
OPLS_2005

> <r_lp_Energy>
15.3703

> <b_lp_Chiralities_Consistent>
1

> <s_lp_Variant>
AV-unprocessed.smi:1395-1

> <Gold.Version>
5.8.1

> <Gold.Id.Protein>
6NUR|6NUR_protein|mol2

> <Gold.PLP.Fitness>
40.2214

> <Gold.PLP.PLP>
-34.4193

> <Gold.PLP.part.hbond>
-2.0000

> <Gold.PLP.part.metal>
0.0000

> <Gold.PLP.part.buried>
-4.6813

> <Gold.PLP.part.nonpolar>
-26.9002

> <Gold.PLP.part.repulsive>
0.0445

> <Gold.PLP.ligand.clash>
0.0000

> <Gold.PLP.ligand.torsion>
0.0921

> <Gold.PLP.Chemscore.Hbond>
1.9920

> <Gold.PLP.Chemscore.CHOScore>
0.0000

> <Gold.PLP.Chemscore.Metal>
0.0000

> <Gold.Chemscore.Hbonds>
donor molecule, donor type, donor heavy atom, donor atom, acceptor molecule, acceptor atom, score
      P1  H  7997  8010       L1    10  0.99
      P1  H 10752 10765       L1    19  0.86

> <Gold.PLP.Chemscore.Internal.Correction>
0.0104

> <Gold.Rescore>
     Score         DG    S(hbond)    S(metal)    S(lipo)     H(rot)  DE(clash)    DE(int)     intcor
     13.73     -16.31       1.96        0.00      79.01       1.94       0.00       2.58       ----

> <Gold.Chemscore.Fitness>
13.7317

> <Gold.Chemscore.DG>
-16.3131

> <Gold.Chemscore.ZeroCoef>
-5.4800

> <Gold.Chemscore.Hbond>
1.9614

> <Gold.Chemscore.Metal>
0.0000

> <Gold.Chemscore.Lipo>
79.0098

> <Gold.Chemscore.Internal_Hbond>
0.0000

> <Gold.Chemscore.DEClash>
0.0004

> <Gold.Chemscore.DEInternal>
2.5809

> <Gold.Chemscore.Rot>
1.9383

> <Gold.Chemscore.Internal.Correction>
   9.000000E+99

> <Gold.Chemscore.Hbonds>
donor molecule, donor type, donor heavy atom, donor atom, acceptor molecule, acceptor atom, score
      P1  H  7997  8010       L1    10  0.93
      P1  H 10752 10765       L1    19  0.84

> <Gold.Chemscore.Hbond.Weighted>
-6.5510

> <Gold.Chemscore.Metal.Weighted>
-0.0000

> <Gold.Chemscore.Lipo.Weighted>
-9.2441

> <Gold.Chemscore.Internal_Hbond.Weighted>
0.0000

> <Gold.Chemscore.DEClash.Weighted>
0.0004

> <Gold.Chemscore.DEInternal.Weighted>
2.5809

> <Gold.Chemscore.Rot.Weighted>
4.9620

> <Gold.Chemscore.Internal.Correction.Weighted>
   9.000000E+99

> <Gold.Protein.RotatedTorsions>
[ 6907 6896 6895 6894 ] final   58.22 input  -60.11 | X-H torsion
[ 7974 7965 7964 7962 ] final   33.45 input  175.53 | X-H torsion
[ 8008 7997 7996 7995 ] final   -1.03 input   59.86 | X-H torsion
[ 10167 10162 10161 10158 ] final  -52.33 input  -65.29 | X-H torsion
[ 10718 10713 10712 10709 ] final  -91.04 input   66.30 | X-H torsion
[ 10763 10752 10751 10750 ] final  -22.54 input  -60.55 | X-H torsion
[ 11005 11000 10999 10996 ] final -129.81 input  -57.11 | X-H torsion

> <Gold.Protein.ActiveResidues>
 VAL166  LYS551  ARG553  GLY616  TRP617  ASP618  TYR619  PRO620  LYS621  CYS622 
 ASP623  PHE694  ASN695  SER759  ASP760  ASP761  ALA762  ILE779  LEU786  VAL792 
 PHE793  MET794  SER795  GLU796  ALA797  LYS798  CYS799  TRP800  GLU811  SER814 

> <Gold.Protein.RotatedAtoms>
  152.3804  134.6599  160.0144 H   0  0  0  0  0  0  0  0  0  0  0  0  # atno 6907 bound_to 6896
  151.6864  133.3306  159.3240 H   0  0  0  0  0  0  0  0  0  0  0  0  # atno 6908 bound_to 6896
  150.7743  134.6672  159.6417 H   0  0  0  0  0  0  0  0  0  0  0  0  # atno 6909 bound_to 6896
  146.1419  139.6395  142.9157 H   0  0  0  0  0  0  0  0  0  0  0  0  # atno 7974 bound_to 7965
  154.6514  140.2569  155.7210 H   0  0  0  0  0  0  0  0  0  0  0  0  # atno 8008 bound_to 7997
  156.2576  140.2867  156.0870 H   0  0  0  0  0  0  0  0  0  0  0  0  # atno 8009 bound_to 7997
  155.1446  140.0381  157.2797 H   0  0  0  0  0  0  0  0  0  0  0  0  # atno 8010 bound_to 7997
  140.6543  143.2587  151.4633 H   0  0  0  0  0  0  0  0  0  0  0  0  # atno 10167 bound_to 10162
  155.9991  130.4933  150.5415 H   0  0  0  0  0  0  0  0  0  0  0  0  # atno 10718 bound_to 10713
  153.6536  135.6979  153.5200 H   0  0  0  0  0  0  0  0  0  0  0  0  # atno 10763 bound_to 10752
  153.2687  135.4222  155.0965 H   0  0  0  0  0  0  0  0  0  0  0  0  # atno 10764 bound_to 10752
  154.8470  135.3573  154.6081 H   0  0  0  0  0  0  0  0  0  0  0  0  # atno 10765 bound_to 10752
  140.9399  134.1207  157.4160 H   0  0  0  0  0  0  0  0  0  0  0  0  # atno 11005 bound_to 11000
  145.5026  141.0437  143.2532 LP  0  0  0  0  0  0  0  0  0  0  0  0  # atno 17320 bound_to 7965
  144.7802  139.6542  143.7157 LP  0  0  0  0  0  0  0  0  0  0  0  0  # atno 17321 bound_to 7965
  139.5762  144.1813  152.1907 LP  0  0  0  0  0  0  0  0  0  0  0  0  # atno 17342 bound_to 10162
  140.1124  144.5445  150.6916 LP  0  0  0  0  0  0  0  0  0  0  0  0  # atno 17343 bound_to 10162
  157.3350  131.0706  151.1831 LP  0  0  0  0  0  0  0  0  0  0  0  0  # atno 17370 bound_to 10713
  157.2699  130.6699  149.6014 LP  0  0  0  0  0  0  0  0  0  0  0  0  # atno 17371 bound_to 10713
  139.8817  135.0033  156.6179 LP  0  0  0  0  0  0  0  0  0  0  0  0  # atno 17394 bound_to 11000
  140.7748  133.8709  155.8520 LP  0  0  0  0  0  0  0  0  0  0  0  0  # atno 17395 bound_to 11000

$$$$
