AV-unprocessed.smi:672|AV-procd|sdf|3294|dock2
  -GOLD-   22720 0253D 1   1.00000     0.00000
 Structure written by MMmdl.
 35 36  0  0  0  0  0  0  0  0  2 V2000
  142.9812  144.1148  161.8428 C   0  0  0  0  0  0  0  0  0  0  0  0
  143.8292  142.9606  161.2976 C   0  0  0  0  0  0  0  0  0  0  0  0
  145.2088  143.3899  160.9244 C   0  0  0  0  0  0  0  0  0  0  0  0
  146.1893  142.5240  160.6544 N   0  0  0  0  0  0  0  0  0  0  0  0
  147.3853  143.1632  160.3623 N   0  0  0  0  0  0  0  0  0  0  0  0
  147.3007  144.4989  160.4404 C   0  0  0  0  0  0  0  0  0  0  0  0
  148.3488  145.3026  160.1962 N   0  5  0  0  0  0  0  0  0  0  0  0
  149.5618  144.7677  159.9275 C   0  0  0  0  0  0  0  0  0  0  0  0
  150.4768  144.5903  160.7351 O   0  0  0  0  0  0  0  0  0  0  0  0
  149.7250  144.4152  158.6442 N   0  0  0  0  0  0  0  0  0  0  0  0
  150.9273  143.8177  158.0668 C   0  0  1  0  0  0  0  0  0  0  0  0
  152.1319  144.7781  158.1415 C   0  0  0  0  0  0  0  0  0  0  0  0
  153.0994  144.1677  159.1564 C   0  0  0  0  0  0  0  0  0  0  0  0
  152.8545  142.6638  159.0477 C   0  0  1  0  0  0  0  0  0  0  0  0
  153.4347  141.7351  160.4971 S   0  0  0  0  0  0  0  0  0  0  0  0
  152.7183  142.7340  161.8287 C   0  0  0  0  0  0  0  0  0  0  0  0
  151.3409  142.5546  158.8454 C   0  0  0  0  0  0  0  0  0  0  0  0
  145.6908  145.0773  160.8688 S   0  0  0  0  0  0  0  0  0  0  0  0
  141.9801  143.7718  162.1038 H   0  0  0  0  0  0  0  0  0  0  0  0
  142.8795  144.9106  161.1043 H   0  0  0  0  0  0  0  0  0  0  0  0
  143.4315  144.5441  162.7384 H   0  0  0  0  0  0  0  0  0  0  0  0
  143.8956  142.1643  162.0399 H   0  0  0  0  0  0  0  0  0  0  0  0
  143.3486  142.5288  160.4192 H   0  0  0  0  0  0  0  0  0  0  0  0
  148.9496  144.5757  158.0181 H   0  0  0  0  0  0  0  0  0  0  0  0
  150.7398  143.5513  157.0248 H   0  0  0  0  0  0  0  0  0  0  0  0
  152.6144  144.8231  157.1644 H   0  0  0  0  0  0  0  0  0  0  0  0
  151.8579  145.7997  158.4082 H   0  0  0  0  0  0  0  0  0  0  0  0
  154.1353  144.4440  158.9587 H   0  0  0  0  0  0  0  0  0  0  0  0
  152.8446  144.5168  160.1582 H   0  0  0  0  0  0  0  0  0  0  0  0
  153.3560  142.2803  158.1578 H   0  0  0  0  0  0  0  0  0  0  0  0
  153.0065  142.3271  162.7978 H   0  0  0  0  0  0  0  0  0  0  0  0
  151.6303  142.7354  161.7663 H   0  0  0  0  0  0  0  0  0  0  0  0
  153.0736  143.7625  161.7667 H   0  0  0  0  0  0  0  0  0  0  0  0
  150.8457  142.5310  159.8179 H   0  0  0  0  0  0  0  0  0  0  0  0
  151.0630  141.6393  158.3218 H   0  0  0  0  0  0  0  0  0  0  0  0
  1  2  1  0  0  0  0
  1 19  1  0  0  0  0
  1 20  1  0  0  0  0
  1 21  1  0  0  0  0
  2  3  1  0  0  0  0
  2 22  1  0  0  0  0
  2 23  1  0  0  0  0
  3 18  1  0  0  0  0
  3  4  2  0  0  0  0
  4  5  1  0  0  0  0
  5  6  2  0  0  0  0
  6  7  1  0  0  0  0
  6 18  1  0  0  0  0
  7  8  1  0  0  0  0
  8  9  2  0  0  0  0
  8 10  1  0  0  0  0
 10 11  1  0  0  0  0
 10 24  1  0  0  0  0
 11 17  1  0  0  0  0
 11 12  1  0  0  0  0
 11 25  1  0  0  0  0
 12 13  1  0  0  0  0
 12 26  1  0  0  0  0
 12 27  1  0  0  0  0
 13 14  1  0  0  0  0
 13 28  1  0  0  0  0
 13 29  1  0  0  0  0
 14 15  1  0  0  0  0
 14 17  1  0  0  0  0
 14 30  1  0  0  0  0
 15 16  1  0  0  0  0
 16 31  1  0  0  0  0
 16 32  1  0  0  0  0
 16 33  1  0  0  0  0
 17 34  1  0  0  0  0
 17 35  1  0  0  0  0
M  CHG  1   7  -1
M  END
> <s_m_source_file>
AV-unprocessed.smi

> <i_m_source_file_index>
672

> <i_lp_mmshare_version>
43012

> <i_f3d_flags>
0

> <s_epik_input>
W0NIM11bQ0gyXWMxbm5jKHMxKVtOSF1DKD1PKVtOSF1bQ0BASF0yW0NIMl1bQ0gyXVtDQEhdKFtDSDJdMilTW0NIM10=

> <s_epik_cmdline>
J2VwaWtfcHl0aG9uJywgJy1waCcsICc3LjAnLCAnLXRuJywgJzgnLCAnLW1hJywgJzIwMCcsICctbWV0YWxfYmluZGluZycsICctaW1hZScsICc8aW5maWxlLm1hZT4nLCAnLW9tYWUnLCAnPG91dGZpbGUubWFlPic=

> <r_lp_tautomer_probability>
1

> <r_epik_Ionization_Penalty>
4.49964

> <r_epik_Ionization_Penalty_Charging>
4.32991

> <r_epik_Ionization_Penalty_Neutral>
0.169727

> <r_epik_State_Penalty>
4.32952

> <r_epik_Charging_Adjusted_Penalty>
8.65943

> <i_epik_Tot_Q>
-1

> <i_epik_Tot_abs_Q>
1

> <r_epik_Metal_State_Penalty>
0.740482

> <b_epik_Metal_Only>
1

> <s_lp_Force_Field>
OPLS_2005

> <r_lp_Energy>
10.5366

> <b_lp_Chiralities_Consistent>
1

> <s_lp_Variant>
AV-unprocessed.smi:672-6

> <Gold.Version>
5.8.1

> <Gold.Id.Protein>
6NUR|6NUR_protein|mol2

> <Gold.PLP.Fitness>
48.7477

> <Gold.PLP.PLP>
-42.7078

> <Gold.PLP.part.hbond>
-5.0449

> <Gold.PLP.part.metal>
0.0000

> <Gold.PLP.part.buried>
-4.7613

> <Gold.PLP.part.nonpolar>
-33.0234

> <Gold.PLP.part.repulsive>
0.5959

> <Gold.PLP.ligand.clash>
0.0000

> <Gold.PLP.ligand.torsion>
0.9328

> <Gold.PLP.Chemscore.Hbond>
2.6120

> <Gold.PLP.Chemscore.CHOScore>
0.0000

> <Gold.PLP.Chemscore.Metal>
0.0000

> <Gold.Chemscore.Hbonds>
donor molecule, donor type, donor heavy atom, donor atom, acceptor molecule, acceptor atom, score
      L1  H    10    24       P1  8029  0.72
      P1  H  6933  6944       L1     5  1.00
      P1  H  6934  6946       L1     4  0.75

> <Gold.PLP.Chemscore.Internal.Correction>
0.0695

> <Gold.Rescore>
     Score         DG    S(hbond)    S(metal)    S(lipo)     H(rot)  DE(clash)    DE(int)     intcor
     16.39     -20.25       1.70        0.00     107.15       1.34       1.60       2.26       ----

> <Gold.Chemscore.Fitness>
16.3917

> <Gold.Chemscore.DG>
-20.2499

> <Gold.Chemscore.ZeroCoef>
-5.4800

> <Gold.Chemscore.Hbond>
1.6964

> <Gold.Chemscore.Metal>
0.0000

> <Gold.Chemscore.Lipo>
107.1536

> <Gold.Chemscore.Internal_Hbond>
0.0000

> <Gold.Chemscore.DEClash>
1.6006

> <Gold.Chemscore.DEInternal>
2.2575

> <Gold.Chemscore.Rot>
1.3410

> <Gold.Chemscore.Internal.Correction>
   9.000000E+99

> <Gold.Chemscore.Hbonds>
donor molecule, donor type, donor heavy atom, donor atom, acceptor molecule, acceptor atom, score
      L1  H    10    24       P1  8029  0.12
      P1  H  6933  6944       L1     5  0.33
      P1  H  6934  6946       L1     4  0.09

> <Gold.Chemscore.Hbond.Weighted>
-5.6659

> <Gold.Chemscore.Metal.Weighted>
-0.0000

> <Gold.Chemscore.Lipo.Weighted>
-12.5370

> <Gold.Chemscore.Internal_Hbond.Weighted>
0.0000

> <Gold.Chemscore.DEClash.Weighted>
1.6006

> <Gold.Chemscore.DEInternal.Weighted>
2.2575

> <Gold.Chemscore.Rot.Weighted>
3.4329

> <Gold.Chemscore.Internal.Correction.Weighted>
   9.000000E+99

> <Gold.Protein.RotatedTorsions>
[ 6907 6896 6895 6894 ] final    2.46 input  -60.11 | X-H torsion
[ 7974 7965 7964 7962 ] final  -16.43 input  175.53 | X-H torsion
[ 8008 7997 7996 7995 ] final  -15.26 input   59.86 | X-H torsion
[ 10167 10162 10161 10158 ] final -116.98 input  -65.29 | X-H torsion
[ 10718 10713 10712 10709 ] final   32.27 input   66.30 | X-H torsion
[ 10763 10752 10751 10750 ] final  -69.43 input  -60.55 | X-H torsion
[ 11005 11000 10999 10996 ] final   90.02 input  -57.11 | X-H torsion

> <Gold.Protein.ActiveResidues>
 VAL166  LYS551  ARG553  GLY616  TRP617  ASP618  TYR619  PRO620  LYS621  CYS622 
 ASP623  PHE694  ASN695  SER759  ASP760  ASP761  ALA762  ILE779  LEU786  VAL792 
 PHE793  MET794  SER795  GLU796  ALA797  LYS798  CYS799  TRP800  GLU811  SER814 

> <Gold.Protein.RotatedAtoms>
  151.6093  135.1041  160.0077 H   0  0  0  0  0  0  0  0  0  0  0  0  # atno 6907 bound_to 6896
  152.4217  133.7123  159.6496 H   0  0  0  0  0  0  0  0  0  0  0  0  # atno 6908 bound_to 6896
  150.8104  133.8359  159.3207 H   0  0  0  0  0  0  0  0  0  0  0  0  # atno 6909 bound_to 6896
  146.1988  140.3635  142.8431 H   0  0  0  0  0  0  0  0  0  0  0  0  # atno 7974 bound_to 7965
  154.5144  140.2201  155.9093 H   0  0  0  0  0  0  0  0  0  0  0  0  # atno 8008 bound_to 7997
  156.1591  140.3146  155.8742 H   0  0  0  0  0  0  0  0  0  0  0  0  # atno 8009 bound_to 7997
  155.3788  140.0471  157.3035 H   0  0  0  0  0  0  0  0  0  0  0  0  # atno 8010 bound_to 7997
  140.0733  143.4856  152.1967 H   0  0  0  0  0  0  0  0  0  0  0  0  # atno 10167 bound_to 10162
  157.2830  130.7264  149.6567 H   0  0  0  0  0  0  0  0  0  0  0  0  # atno 10718 bound_to 10713
  154.4033  135.6026  153.5910 H   0  0  0  0  0  0  0  0  0  0  0  0  # atno 10763 bound_to 10752
  152.9788  135.5912  154.4158 H   0  0  0  0  0  0  0  0  0  0  0  0  # atno 10764 bound_to 10752
  154.3959  135.2842  155.2104 H   0  0  0  0  0  0  0  0  0  0  0  0  # atno 10765 bound_to 10752
  139.8864  134.8588  156.3225 H   0  0  0  0  0  0  0  0  0  0  0  0  # atno 11005 bound_to 11000
  144.8637  140.7176  143.6091 LP  0  0  0  0  0  0  0  0  0  0  0  0  # atno 17320 bound_to 7965
  145.3555  139.1695  143.4411 LP  0  0  0  0  0  0  0  0  0  0  0  0  # atno 17321 bound_to 7965
  139.5823  144.7516  151.3609 LP  0  0  0  0  0  0  0  0  0  0  0  0  # atno 17342 bound_to 10162
  140.7114  143.7380  150.7574 LP  0  0  0  0  0  0  0  0  0  0  0  0  # atno 17343 bound_to 10162
  155.9665  130.4332  150.4996 LP  0  0  0  0  0  0  0  0  0  0  0  0  # atno 17370 bound_to 10713
  157.2944  131.0632  151.2112 LP  0  0  0  0  0  0  0  0  0  0  0  0  # atno 17371 bound_to 10713
  140.9777  133.7287  156.0626 LP  0  0  0  0  0  0  0  0  0  0  0  0  # atno 17394 bound_to 11000
  140.7789  134.3747  157.5491 LP  0  0  0  0  0  0  0  0  0  0  0  0  # atno 17395 bound_to 11000

$$$$
