AV-unprocessed.smi:609|AV-procd|sdf|3051|dock8
  -GOLD-   2262023573D 1   1.00000     0.00000
 Structure written by MMmdl.
 43 45  0  0  0  0  0  0  0  0  2 V2000
  151.1618  144.9637  160.0378 C   0  0  0  0  0  0  0  0  0  0  0  0
  151.9063  143.6452  160.1630 C   0  0  0  0  0  0  0  0  0  0  0  0
  152.7258  143.4386  161.2958 C   0  0  0  0  0  0  0  0  0  0  0  0
  153.3924  142.2224  161.3831 C   0  0  0  0  0  0  0  0  0  0  0  0
  154.2577  141.7200  162.3577 N   0  3  0  0  0  0  0  0  0  0  0  0
  154.6622  140.4684  162.0042 C   0  0  0  0  0  0  0  0  0  0  0  0
  154.0687  140.1659  160.8181 N   0  0  0  0  0  0  0  0  0  0  0  0
  154.1585  138.9490  160.0009 C   0  0  0  0  0  0  0  0  0  0  0  0
  152.8072  138.2216  159.8600 C   0  0  2  0  0  0  0  0  0  0  0  0
  152.9664  136.8600  160.2103 O   0  0  0  0  0  0  0  0  0  0  0  0
  152.2510  138.3162  158.4307 C   0  0  0  0  0  0  0  0  0  0  0  0
  150.4321  138.3015  158.4058 S   0  0  0  0  0  0  0  0  0  0  0  0
  150.1467  138.4870  156.6704 C   0  0  0  0  0  0  0  0  0  0  0  0
  149.6969  139.5922  156.0804 N   0  0  0  0  0  0  0  0  0  0  0  0
  149.6290  139.2788  154.7274 C   0  0  0  0  0  0  0  0  0  0  0  0
  150.0436  137.9830  154.5407 C   0  0  0  0  0  0  0  0  0  0  0  0
  150.3727  137.4884  155.7957 N   0  0  0  0  0  0  0  0  0  0  0  0
  150.8614  136.1543  156.0851 C   0  0  0  0  0  0  0  0  0  0  0  0
  153.2675  141.2299  160.3919 C   0  0  0  0  0  0  0  0  0  0  0  0
  152.4654  141.4165  159.2690 C   0  0  0  0  0  0  0  0  0  0  0  0
  151.7780  142.6468  159.1624 C   0  0  0  0  0  0  0  0  0  0  0  0
  150.8930  142.8789  157.9495 C   0  0  0  0  0  0  0  0  0  0  0  0
  151.3303  145.6016  160.9062 H   0  0  0  0  0  0  0  0  0  0  0  0
  150.0884  144.7923  159.9546 H   0  0  0  0  0  0  0  0  0  0  0  0
  151.4957  145.5081  159.1543 H   0  0  0  0  0  0  0  0  0  0  0  0
  152.8279  144.1937  162.0616 H   0  0  0  0  0  0  0  0  0  0  0  0
  155.3291  139.8292  162.5648 H   0  0  0  0  0  0  0  0  0  0  0  0
  154.5628  139.2187  159.0244 H   0  0  0  0  0  0  0  0  0  0  0  0
  154.8937  138.2936  160.4700 H   0  0  0  0  0  0  0  0  0  0  0  0
  152.0878  138.6639  160.5500 H   0  0  0  0  0  0  0  0  0  0  0  0
  153.8253  136.7480  160.5894 H   0  0  0  0  0  0  0  0  0  0  0  0
  152.5900  139.2437  157.9676 H   0  0  0  0  0  0  0  0  0  0  0  0
  152.6307  137.4944  157.8222 H   0  0  0  0  0  0  0  0  0  0  0  0
  149.2904  140.0027  154.0007 H   0  0  0  0  0  0  0  0  0  0  0  0
  150.1289  137.3882  153.6430 H   0  0  0  0  0  0  0  0  0  0  0  0
  150.9470  135.5759  155.1646 H   0  0  0  0  0  0  0  0  0  0  0  0
  150.1702  135.6462  156.7582 H   0  0  0  0  0  0  0  0  0  0  0  0
  151.8429  136.2150  156.5563 H   0  0  0  0  0  0  0  0  0  0  0  0
  152.3677  140.6550  158.5093 H   0  0  0  0  0  0  0  0  0  0  0  0
  150.9456  142.0427  157.2516 H   0  0  0  0  0  0  0  0  0  0  0  0
  151.2013  143.7773  157.4143 H   0  0  0  0  0  0  0  0  0  0  0  0
  149.8526  142.9953  158.2532 H   0  0  0  0  0  0  0  0  0  0  0  0
  154.5500  142.1924  163.2037 H   0  0  0  0  0  0  0  0  0  0  0  0
  1  2  1  0  0  0  0
  1 23  1  0  0  0  0
  1 24  1  0  0  0  0
  1 25  1  0  0  0  0
  2 21  1  0  0  0  0
  2  3  2  0  0  0  0
  3  4  1  0  0  0  0
  3 26  1  0  0  0  0
  4 19  2  0  0  0  0
  4  5  1  0  0  0  0
  5  6  2  0  0  0  0
  5 43  1  0  0  0  0
  6  7  1  0  0  0  0
  6 27  1  0  0  0  0
  7  8  1  0  0  0  0
  7 19  1  0  0  0  0
  8  9  1  0  0  0  0
  8 28  1  0  0  0  0
  8 29  1  0  0  0  0
  9 10  1  0  0  0  0
  9 11  1  0  0  0  0
  9 30  1  0  0  0  0
 10 31  1  0  0  0  0
 11 12  1  0  0  0  0
 11 32  1  0  0  0  0
 11 33  1  0  0  0  0
 12 13  1  0  0  0  0
 13 17  1  0  0  0  0
 13 14  2  0  0  0  0
 14 15  1  0  0  0  0
 15 16  2  0  0  0  0
 15 34  1  0  0  0  0
 16 17  1  0  0  0  0
 16 35  1  0  0  0  0
 17 18  1  0  0  0  0
 18 36  1  0  0  0  0
 18 37  1  0  0  0  0
 18 38  1  0  0  0  0
 19 20  1  0  0  0  0
 20 21  2  0  0  0  0
 20 39  1  0  0  0  0
 21 22  1  0  0  0  0
 22 40  1  0  0  0  0
 22 41  1  0  0  0  0
 22 42  1  0  0  0  0
M  CHG  1   5   1
M  END
> <s_m_source_file>
AV-unprocessed.smi

> <i_m_source_file_index>
609

> <i_lp_mmshare_version>
43012

> <i_f3d_flags>
0

> <s_epik_input>
W0NIM11jKFtjSF0xKWMoW0NIM10pW2NIXWMoYzEyKW4oW2NIXW4yKVtDSDJdW0NASF0oW09IXSlbQ0gyXVNjM25bY0hdW2NIXW4zW0NIM10=

> <s_epik_cmdline>
J2VwaWtfcHl0aG9uJywgJy1waCcsICc3LjAnLCAnLXRuJywgJzgnLCAnLW1hJywgJzIwMCcsICctbWV0YWxfYmluZGluZycsICctaW1hZScsICc8aW5maWxlLm1hZT4nLCAnLW9tYWUnLCAnPG91dGZpbGUubWFlPic=

> <r_epik_Ionization_Penalty>
2.09683

> <r_epik_Ionization_Penalty_Charging>
2.09682

> <r_epik_Ionization_Penalty_Neutral>
2.49751e-06

> <r_epik_State_Penalty>
2.21514

> <r_epik_Charging_Adjusted_Penalty>
4.31197

> <i_epik_Tot_Q>
1

> <i_epik_Tot_abs_Q>
1

> <r_epik_Metal_State_Penalty>
1.52634

> <b_epik_Metal_Only>
0

> <s_lp_Force_Field>
OPLS_2005

> <r_lp_Energy>
12.8682

> <b_lp_Chiralities_Consistent>
1

> <s_lp_Variant>
AV-unprocessed.smi:609-7

> <Gold.Version>
5.8.1

> <Gold.Id.Protein>
6NUR|6NUR_protein|mol2

> <Gold.PLP.Fitness>
52.5967

> <Gold.PLP.PLP>
-45.5337

> <Gold.PLP.part.hbond>
-1.9540

> <Gold.PLP.part.metal>
0.0000

> <Gold.PLP.part.buried>
-6.3163

> <Gold.PLP.part.nonpolar>
-37.4653

> <Gold.PLP.part.repulsive>
0.0229

> <Gold.PLP.ligand.clash>
0.0000

> <Gold.PLP.ligand.torsion>
1.2330

> <Gold.PLP.Chemscore.Hbond>
0.9913

> <Gold.PLP.Chemscore.CHOScore>
2.1833

> <Gold.PLP.Chemscore.Metal>
0.0000

> <Gold.Chemscore.Hbonds>
donor molecule, donor type, donor heavy atom, donor atom, acceptor molecule, acceptor atom, score
      P1  H  6896  6909       L1    10  0.98
      L1  C    15    34       P1  7957  0.18
      L1  C    16    35       P1  7948  1.00
      L1  C    16    35       P1  7949  0.08

> <Gold.PLP.Chemscore.Internal.Correction>
0.0054

> <Gold.Rescore>
     Score         DG    S(hbond)    S(metal)    S(lipo)     H(rot)  DE(clash)    DE(int)     intcor
     15.15     -16.56       0.87        0.00     124.01       2.48       0.05       1.36       ----

> <Gold.Chemscore.Fitness>
15.1547

> <Gold.Chemscore.DG>
-16.5605

> <Gold.Chemscore.ZeroCoef>
-5.4800

> <Gold.Chemscore.Hbond>
0.8734

> <Gold.Chemscore.Metal>
0.0000

> <Gold.Chemscore.Lipo>
124.0107

> <Gold.Chemscore.Internal_Hbond>
0.0000

> <Gold.Chemscore.DEClash>
0.0457

> <Gold.Chemscore.DEInternal>
1.3602

> <Gold.Chemscore.Rot>
2.4789

> <Gold.Chemscore.Internal.Correction>
   9.000000E+99

> <Gold.Chemscore.Hbonds>
donor molecule, donor type, donor heavy atom, donor atom, acceptor molecule, acceptor atom, score
      P1  H  6896  6909       L1    10  0.75

> <Gold.Chemscore.Hbond.Weighted>
-2.9172

> <Gold.Chemscore.Metal.Weighted>
-0.0000

> <Gold.Chemscore.Lipo.Weighted>
-14.5093

> <Gold.Chemscore.Internal_Hbond.Weighted>
0.0000

> <Gold.Chemscore.DEClash.Weighted>
0.0457

> <Gold.Chemscore.DEInternal.Weighted>
1.3602

> <Gold.Chemscore.Rot.Weighted>
6.3459

> <Gold.Chemscore.Internal.Correction.Weighted>
   9.000000E+99

> <Gold.Protein.RotatedTorsions>
[ 6907 6896 6895 6894 ] final  143.09 input  -60.11 | X-H torsion
[ 7974 7965 7964 7962 ] final  156.39 input  175.53 | X-H torsion
[ 8008 7997 7996 7995 ] final -172.68 input   59.86 | X-H torsion
[ 10167 10162 10161 10158 ] final -113.65 input  -65.29 | X-H torsion
[ 10718 10713 10712 10709 ] final  139.87 input   66.30 | X-H torsion
[ 10763 10752 10751 10750 ] final  119.22 input  -60.55 | X-H torsion
[ 11005 11000 10999 10996 ] final -133.91 input  -57.11 | X-H torsion

> <Gold.Protein.ActiveResidues>
 VAL166  LYS551  ARG553  GLY616  TRP617  ASP618  TYR619  PRO620  LYS621  CYS622 
 ASP623  PHE694  ASN695  SER759  ASP760  ASP761  ALA762  ILE779  LEU786  VAL792 
 PHE793  MET794  SER795  GLU796  ALA797  LYS798  CYS799  TRP800  GLU811  SER814 

> <Gold.Protein.RotatedAtoms>
  152.2106  133.4908  159.5107 H   0  0  0  0  0  0  0  0  0  0  0  0  # atno 6907 bound_to 6896
  150.6989  134.1472  159.4136 H   0  0  0  0  0  0  0  0  0  0  0  0  # atno 6908 bound_to 6896
  151.9391  135.0221  160.0585 H   0  0  0  0  0  0  0  0  0  0  0  0  # atno 6909 bound_to 6896
  144.7966  139.7197  143.6199 H   0  0  0  0  0  0  0  0  0  0  0  0  # atno 7974 bound_to 7965
  155.9476  140.1120  157.1003 H   0  0  0  0  0  0  0  0  0  0  0  0  # atno 8008 bound_to 7997
  154.4102  140.1207  156.5076 H   0  0  0  0  0  0  0  0  0  0  0  0  # atno 8009 bound_to 7997
  155.6882  140.3473  155.4885 H   0  0  0  0  0  0  0  0  0  0  0  0  # atno 8010 bound_to 7997
  140.1096  143.4539  152.1761 H   0  0  0  0  0  0  0  0  0  0  0  0  # atno 10167 bound_to 10162
  157.4095  131.1026  151.0468 H   0  0  0  0  0  0  0  0  0  0  0  0  # atno 10718 bound_to 10713
  153.5797  135.3486  155.2870 H   0  0  0  0  0  0  0  0  0  0  0  0  # atno 10763 bound_to 10752
  154.8669  135.4179  154.2634 H   0  0  0  0  0  0  0  0  0  0  0  0  # atno 10764 bound_to 10752
  153.3417  135.7050  153.6931 H   0  0  0  0  0  0  0  0  0  0  0  0  # atno 10765 bound_to 10752
  140.9038  134.1657  157.4441 H   0  0  0  0  0  0  0  0  0  0  0  0  # atno 11005 bound_to 11000
  146.2236  139.5681  142.9602 LP  0  0  0  0  0  0  0  0  0  0  0  0  # atno 17320 bound_to 7965
  145.5658  141.0399  143.2201 LP  0  0  0  0  0  0  0  0  0  0  0  0  # atno 17321 bound_to 7965
  139.5626  144.7415  151.4111 LP  0  0  0  0  0  0  0  0  0  0  0  0  # atno 17342 bound_to 10162
  140.6933  143.7809  150.7288 LP  0  0  0  0  0  0  0  0  0  0  0  0  # atno 17343 bound_to 10162
  157.1438  130.6154  149.5562 LP  0  0  0  0  0  0  0  0  0  0  0  0  # atno 17370 bound_to 10713
  155.9846  130.4872  150.6993 LP  0  0  0  0  0  0  0  0  0  0  0  0  # atno 17371 bound_to 10713
  139.8746  134.9908  156.5522 LP  0  0  0  0  0  0  0  0  0  0  0  0  # atno 17394 bound_to 11000
  140.8197  133.8363  155.8884 LP  0  0  0  0  0  0  0  0  0  0  0  0  # atno 17395 bound_to 11000

$$$$
