AV-unprocessed.smi:2670|AV-procd|sdf|10345|dock9
  -GOLD-   2272014373D 1   1.00000     0.00000
 Structure written by MMmdl.
 40 41  0  0  0  0  0  0  0  0  2 V2000
  153.9733  141.2007  160.6233 C   0  0  0  0  0  0  0  0  0  0  0  0
  153.0664  142.2250  160.0079 C   0  0  0  0  0  0  0  0  0  0  0  0
  152.6048  143.4465  160.5725 C   0  0  0  0  0  0  0  0  0  0  0  0
  151.8125  143.9904  159.6010 C   0  0  0  0  0  0  0  0  0  0  0  0
  151.0440  145.2722  159.5992 C   0  0  0  0  0  0  0  0  0  0  0  0
  151.8313  143.1123  158.5293 N   0  0  0  0  0  0  0  0  0  0  0  0
  151.1487  143.2046  157.2465 C   0  0  0  0  0  0  0  0  0  0  0  0
  150.4465  141.8935  156.8862 C   0  0  0  0  0  0  0  0  0  0  0  0
  150.6807  140.8824  157.5457 O   0  0  0  0  0  0  0  0  0  0  0  0
  149.6214  141.9570  155.8247 N   0  0  0  0  0  0  0  0  0  0  0  0
  148.7802  140.9516  155.1532 C   0  0  0  0  0  0  0  0  0  0  0  0
  149.7791  139.9101  154.5891 C   0  0  0  0  0  0  0  0  0  0  0  0
  149.3177  138.9329  153.9580 O   0  0  0  0  0  0  0  0  0  0  0  0
  150.9953  140.0740  154.8374 O   0  5  0  0  0  0  0  0  0  0  0  0
  147.7085  140.2369  156.0414 C   0  0  0  0  0  0  0  0  0  0  0  0
  146.5118  141.1288  156.4295 C   0  0  0  0  0  0  0  0  0  0  0  0
  145.8606  141.7654  155.1975 C   0  0  0  0  0  0  0  0  0  0  0  0
  146.8978  142.5522  154.3896 C   0  0  0  0  0  0  0  0  0  0  0  0
  148.0663  141.6497  153.9591 C   0  0  0  0  0  0  0  0  0  0  0  0
  152.5960  142.0285  158.7876 N   0  0  0  0  0  0  0  0  0  0  0  0
  154.3513  141.5381  161.5885 H   0  0  0  0  0  0  0  0  0  0  0  0
  154.8326  141.0003  159.9828 H   0  0  0  0  0  0  0  0  0  0  0  0
  153.4484  140.2589  160.7839 H   0  0  0  0  0  0  0  0  0  0  0  0
  152.8223  143.8616  161.5454 H   0  0  0  0  0  0  0  0  0  0  0  0
  150.9389  145.6641  160.6111 H   0  0  0  0  0  0  0  0  0  0  0  0
  150.0434  145.1343  159.1895 H   0  0  0  0  0  0  0  0  0  0  0  0
  151.5549  146.0271  159.0013 H   0  0  0  0  0  0  0  0  0  0  0  0
  150.4090  144.0061  157.2809 H   0  0  0  0  0  0  0  0  0  0  0  0
  151.8775  143.4811  156.4832 H   0  0  0  0  0  0  0  0  0  0  0  0
  149.5724  142.8654  155.3873 H   0  0  0  0  0  0  0  0  0  0  0  0
  147.3065  139.3870  155.4871 H   0  0  0  0  0  0  0  0  0  0  0  0
  148.1532  139.7994  156.9353 H   0  0  0  0  0  0  0  0  0  0  0  0
  145.7744  140.5363  156.9713 H   0  0  0  0  0  0  0  0  0  0  0  0
  146.8259  141.9165  157.1127 H   0  0  0  0  0  0  0  0  0  0  0  0
  145.4159  140.9900  154.5724 H   0  0  0  0  0  0  0  0  0  0  0  0
  145.0474  142.4238  155.5041 H   0  0  0  0  0  0  0  0  0  0  0  0
  146.4257  142.9890  153.5092 H   0  0  0  0  0  0  0  0  0  0  0  0
  147.2730  143.3862  154.9840 H   0  0  0  0  0  0  0  0  0  0  0  0
  148.7740  142.2465  153.3808 H   0  0  0  0  0  0  0  0  0  0  0  0
  147.6789  140.8963  153.2705 H   0  0  0  0  0  0  0  0  0  0  0  0
  1  2  1  0  0  0  0
  1 21  1  0  0  0  0
  1 22  1  0  0  0  0
  1 23  1  0  0  0  0
  2 20  2  0  0  0  0
  2  3  1  0  0  0  0
  3  4  2  0  0  0  0
  3 24  1  0  0  0  0
  4  5  1  0  0  0  0
  4  6  1  0  0  0  0
  5 25  1  0  0  0  0
  5 26  1  0  0  0  0
  5 27  1  0  0  0  0
  6  7  1  0  0  0  0
  6 20  1  0  0  0  0
  7  8  1  0  0  0  0
  7 28  1  0  0  0  0
  7 29  1  0  0  0  0
  8  9  2  0  0  0  0
  8 10  1  0  0  0  0
 10 11  1  0  0  0  0
 10 30  1  0  0  0  0
 11 19  1  0  0  0  0
 11 12  1  0  0  0  0
 11 15  1  0  0  0  0
 12 13  2  0  0  0  0
 12 14  1  0  0  0  0
 15 16  1  0  0  0  0
 15 31  1  0  0  0  0
 15 32  1  0  0  0  0
 16 17  1  0  0  0  0
 16 33  1  0  0  0  0
 16 34  1  0  0  0  0
 17 18  1  0  0  0  0
 17 35  1  0  0  0  0
 17 36  1  0  0  0  0
 18 19  1  0  0  0  0
 18 37  1  0  0  0  0
 18 38  1  0  0  0  0
 19 39  1  0  0  0  0
 19 40  1  0  0  0  0
M  CHG  1  14  -1
M  END
> <s_m_source_file>
AV-unprocessed.smi

> <i_m_source_file_index>
2670

> <i_lp_mmshare_version>
43012

> <i_f3d_flags>
0

> <s_epik_input>
W0NIM11jMVtjSF1jKFtDSDNdKW4objEpW0NIMl1DKD1PKVtOSF1DMihDKD1PKVtPSF0pW0NIMl1bQ0gyXVtDSDJdW0NIMl1bQ0gyXTI=

> <s_epik_cmdline>
J2VwaWtfcHl0aG9uJywgJy1waCcsICc3LjAnLCAnLXRuJywgJzgnLCAnLW1hJywgJzIwMCcsICctbWV0YWxfYmluZGluZycsICctaW1hZScsICc8aW5maWxlLm1hZT4nLCAnLW9tYWUnLCAnPG91dGZpbGUubWFlPic=

> <r_lp_tautomer_probability>
1

> <r_epik_Ionization_Penalty>
0.000789686

> <r_epik_Ionization_Penalty_Charging>
0.000323848

> <r_epik_Ionization_Penalty_Neutral>
0.000465838

> <r_epik_State_Penalty>
-0

> <r_epik_Charging_Adjusted_Penalty>
0.000323848

> <i_epik_Tot_Q>
-1

> <i_epik_Tot_abs_Q>
1

> <r_epik_Metal_State_Penalty>
-0

> <b_epik_Metal_Only>
0

> <s_lp_Force_Field>
OPLS_2005

> <r_lp_Energy>
8.13654

> <b_lp_Chiralities_Consistent>
1

> <s_lp_Variant>
AV-unprocessed.smi:2670-1

> <Gold.Version>
5.8.1

> <Gold.Id.Protein>
6NUR|6NUR_protein|mol2

> <Gold.PLP.Fitness>
47.5548

> <Gold.PLP.PLP>
-42.6925

> <Gold.PLP.part.hbond>
-2.0000

> <Gold.PLP.part.metal>
0.0000

> <Gold.PLP.part.buried>
-5.4313

> <Gold.PLP.part.nonpolar>
-36.6767

> <Gold.PLP.part.repulsive>
0.4050

> <Gold.PLP.ligand.clash>
0.0000

> <Gold.PLP.ligand.torsion>
0.3003

> <Gold.PLP.Chemscore.Hbond>
1.8000

> <Gold.PLP.Chemscore.CHOScore>
0.0000

> <Gold.PLP.Chemscore.Metal>
0.0000

> <Gold.Chemscore.Hbonds>
donor molecule, donor type, donor heavy atom, donor atom, acceptor molecule, acceptor atom, score
      L1  H    10    30       P1  8028  0.86
      P1  H  7989  7998       L1    14  1.00

> <Gold.PLP.Chemscore.Internal.Correction>
0.0628

> <Gold.Rescore>
     Score         DG    S(hbond)    S(metal)    S(lipo)     H(rot)  DE(clash)    DE(int)     intcor
     13.65     -17.16       1.81        0.00      90.11       1.91       0.06       3.46       ----

> <Gold.Chemscore.Fitness>
13.6471

> <Gold.Chemscore.DG>
-17.1607

> <Gold.Chemscore.ZeroCoef>
-5.4800

> <Gold.Chemscore.Hbond>
1.8085

> <Gold.Chemscore.Metal>
0.0000

> <Gold.Chemscore.Lipo>
90.1063

> <Gold.Chemscore.Internal_Hbond>
0.0000

> <Gold.Chemscore.DEClash>
0.0566

> <Gold.Chemscore.DEInternal>
3.4570

> <Gold.Chemscore.Rot>
1.9149

> <Gold.Chemscore.Internal.Correction>
   9.000000E+99

> <Gold.Chemscore.Hbonds>
donor molecule, donor type, donor heavy atom, donor atom, acceptor molecule, acceptor atom, score
      L1  H    10    30       P1  8028  0.82
      P1  H  7989  7998       L1    14  0.55

> <Gold.Chemscore.Hbond.Weighted>
-6.0405

> <Gold.Chemscore.Metal.Weighted>
-0.0000

> <Gold.Chemscore.Lipo.Weighted>
-10.5424

> <Gold.Chemscore.Internal_Hbond.Weighted>
0.0000

> <Gold.Chemscore.DEClash.Weighted>
0.0566

> <Gold.Chemscore.DEInternal.Weighted>
3.4570

> <Gold.Chemscore.Rot.Weighted>
4.9023

> <Gold.Chemscore.Internal.Correction.Weighted>
   9.000000E+99

> <Gold.Protein.RotatedTorsions>
[ 6907 6896 6895 6894 ] final    4.19 input  -60.11 | X-H torsion
[ 7974 7965 7964 7962 ] final -157.32 input  175.53 | X-H torsion
[ 8008 7997 7996 7995 ] final   69.93 input   59.86 | X-H torsion
[ 10167 10162 10161 10158 ] final  103.18 input  -65.29 | X-H torsion
[ 10718 10713 10712 10709 ] final  177.40 input   66.30 | X-H torsion
[ 10763 10752 10751 10750 ] final  -94.92 input  -60.55 | X-H torsion
[ 11005 11000 10999 10996 ] final  156.95 input  -57.11 | X-H torsion

> <Gold.Protein.ActiveResidues>
 VAL166  LYS551  ARG553  GLY616  TRP617  ASP618  TYR619  PRO620  LYS621  CYS622 
 ASP623  PHE694  ASN695  SER759  ASP760  ASP761  ALA762  ILE779  LEU786  VAL792 
 PHE793  MET794  SER795  GLU796  ALA797  LYS798  CYS799  TRP800  GLU811  SER814 

> <Gold.Protein.RotatedAtoms>
  151.6372  135.1016  160.0133 H   0  0  0  0  0  0  0  0  0  0  0  0  # atno 6907 bound_to 6896
  152.4074  133.6906  159.6376 H   0  0  0  0  0  0  0  0  0  0  0  0  # atno 6908 bound_to 6896
  150.7967  133.8602  159.3270 H   0  0  0  0  0  0  0  0  0  0  0  0  # atno 6909 bound_to 6896
  144.7553  140.3986  143.6017 H   0  0  0  0  0  0  0  0  0  0  0  0  # atno 7974 bound_to 7965
  155.7311  140.3492  155.5060 H   0  0  0  0  0  0  0  0  0  0  0  0  # atno 8008 bound_to 7997
  155.9182  140.1062  157.1249 H   0  0  0  0  0  0  0  0  0  0  0  0  # atno 8009 bound_to 7997
  154.4065  140.1255  156.4631 H   0  0  0  0  0  0  0  0  0  0  0  0  # atno 8010 bound_to 7997
  139.7285  144.7042  151.0759 H   0  0  0  0  0  0  0  0  0  0  0  0  # atno 10167 bound_to 10162
  156.9058  130.9894  151.3028 H   0  0  0  0  0  0  0  0  0  0  0  0  # atno 10718 bound_to 10713
  154.7100  135.5140  153.8652 H   0  0  0  0  0  0  0  0  0  0  0  0  # atno 10763 bound_to 10752
  153.0773  135.6620  154.0129 H   0  0  0  0  0  0  0  0  0  0  0  0  # atno 10764 bound_to 10752
  153.9972  135.3014  155.3386 H   0  0  0  0  0  0  0  0  0  0  0  0  # atno 10765 bound_to 10752
  140.1724  134.8534  157.2706 H   0  0  0  0  0  0  0  0  0  0  0  0  # atno 11005 bound_to 11000
  145.6799  139.1616  143.2706 LP  0  0  0  0  0  0  0  0  0  0  0  0  # atno 17320 bound_to 7965
  146.1556  140.6862  142.9301 LP  0  0  0  0  0  0  0  0  0  0  0  0  # atno 17321 bound_to 7965
  140.7767  143.5074  150.9695 LP  0  0  0  0  0  0  0  0  0  0  0  0  # atno 17342 bound_to 10162
  139.8762  143.7130  152.3161 LP  0  0  0  0  0  0  0  0  0  0  0  0  # atno 17343 bound_to 10162
  157.5998  130.8504  149.8784 LP  0  0  0  0  0  0  0  0  0  0  0  0  # atno 17370 bound_to 10713
  156.0559  130.3708  150.1091 LP  0  0  0  0  0  0  0  0  0  0  0  0  # atno 17371 bound_to 10713
  140.2362  134.3850  155.7500 LP  0  0  0  0  0  0  0  0  0  0  0  0  # atno 17394 bound_to 11000
  141.2218  133.7241  156.8718 LP  0  0  0  0  0  0  0  0  0  0  0  0  # atno 17395 bound_to 11000

$$$$
