AV-unprocessed.smi:2288|AV-procd|sdf|9207|dock6
  -GOLD-   2272012423D 1   1.00000     0.00000
 Structure written by MMmdl.
 40 41  0  0  0  0  0  0  0  0  1 V2000
  153.9970  141.2538  160.5145 C   0  0  0  0  0  0  0  0  0  0  0  0
  152.9325  142.1521  159.9193 C   0  0  0  0  0  0  0  0  0  0  0  0
  152.9117  143.5298  160.2186 C   0  0  0  0  0  0  0  0  0  0  0  0
  151.9159  144.3600  159.6661 C   0  0  0  0  0  0  0  0  0  0  0  0
  151.8981  145.8384  159.9955 C   0  0  0  0  0  0  0  0  0  0  0  0
  150.9420  143.8100  158.8076 C   0  0  0  0  0  0  0  0  0  0  0  0
  150.9584  142.4334  158.4986 C   0  0  0  0  0  0  0  0  0  0  0  0
  149.8919  141.8534  157.5814 C   0  0  1  0  0  0  0  0  0  0  0  0
  148.7684  142.7075  157.4882 O   0  0  0  0  0  0  0  0  0  0  0  0
  150.4551  141.6187  156.1624 C   0  0  0  0  0  0  0  0  0  0  0  0
  149.5329  140.8447  155.3142 N   0  0  0  0  0  0  0  0  0  0  0  0
  148.8473  141.5646  154.3222 C   0  0  0  0  0  0  0  0  0  0  0  0
  148.0167  140.9880  153.5163 N   0  0  0  0  0  0  0  0  0  0  0  0
  147.7811  139.6143  153.6235 C   0  0  0  0  0  0  0  0  0  0  0  0
  146.7911  139.0388  152.6262 C   0  0  0  0  0  0  0  0  0  0  0  0
  148.4079  138.8609  154.5680 C   0  0  0  0  0  0  0  0  0  0  0  0
  148.1897  137.3619  154.7326 C   0  0  0  0  0  0  0  0  0  0  0  0
  149.3531  139.5042  155.4948 C   0  0  0  0  0  0  0  0  0  0  0  0
  149.9473  138.8852  156.3800 O   0  0  0  0  0  0  0  0  0  0  0  0
  151.9554  141.6071  159.0622 C   0  0  0  0  0  0  0  0  0  0  0  0
  154.7002  141.8199  161.1262 H   0  0  0  0  0  0  0  0  0  0  0  0
  154.5582  140.7573  159.7227 H   0  0  0  0  0  0  0  0  0  0  0  0
  153.5381  140.4895  161.1421 H   0  0  0  0  0  0  0  0  0  0  0  0
  153.6586  143.9526  160.8748 H   0  0  0  0  0  0  0  0  0  0  0  0
  150.9644  146.3044  159.6792 H   0  0  0  0  0  0  0  0  0  0  0  0
  152.7219  146.3458  159.4932 H   0  0  0  0  0  0  0  0  0  0  0  0
  152.0045  145.9906  161.0699 H   0  0  0  0  0  0  0  0  0  0  0  0
  150.1766  144.4457  158.3864 H   0  0  0  0  0  0  0  0  0  0  0  0
  149.5507  140.9119  158.0135 H   0  0  0  0  0  0  0  0  0  0  0  0
  149.0140  143.4699  156.9863 H   0  0  0  0  0  0  0  0  0  0  0  0
  150.7488  142.5659  155.7049 H   0  0  0  0  0  0  0  0  0  0  0  0
  151.3889  141.0578  156.2369 H   0  0  0  0  0  0  0  0  0  0  0  0
  149.0620  142.6340  154.2842 H   0  0  0  0  0  0  0  0  0  0  0  0
  147.2707  138.2816  152.0053 H   0  0  0  0  0  0  0  0  0  0  0  0
  146.3972  139.8123  151.9658 H   0  0  0  0  0  0  0  0  0  0  0  0
  145.9479  138.5825  153.1452 H   0  0  0  0  0  0  0  0  0  0  0  0
  147.7948  137.1468  155.7261 H   0  0  0  0  0  0  0  0  0  0  0  0
  149.1351  136.8298  154.6215 H   0  0  0  0  0  0  0  0  0  0  0  0
  147.4939  136.9466  154.0057 H   0  0  0  0  0  0  0  0  0  0  0  0
  151.9710  140.5498  158.8397 H   0  0  0  0  0  0  0  0  0  0  0  0
  1  2  1  0  0  0  0
  1 21  1  0  0  0  0
  1 22  1  0  0  0  0
  1 23  1  0  0  0  0
  2 20  1  0  0  0  0
  2  3  2  0  0  0  0
  3  4  1  0  0  0  0
  3 24  1  0  0  0  0
  4  5  1  0  0  0  0
  4  6  2  0  0  0  0
  5 25  1  0  0  0  0
  5 26  1  0  0  0  0
  5 27  1  0  0  0  0
  6  7  1  0  0  0  0
  6 28  1  0  0  0  0
  7  8  1  0  0  0  0
  7 20  2  0  0  0  0
  8  9  1  0  0  0  0
  8 10  1  0  0  0  0
  8 29  1  0  0  0  0
  9 30  1  0  0  0  0
 10 11  1  0  0  0  0
 10 31  1  0  0  0  0
 10 32  1  0  0  0  0
 11 18  1  0  0  0  0
 11 12  1  0  0  0  0
 12 13  2  0  0  0  0
 12 33  1  0  0  0  0
 13 14  1  0  0  0  0
 14 15  1  0  0  0  0
 14 16  2  0  0  0  0
 15 34  1  0  0  0  0
 15 35  1  0  0  0  0
 15 36  1  0  0  0  0
 16 17  1  0  0  0  0
 16 18  1  0  0  0  0
 17 37  1  0  0  0  0
 17 38  1  0  0  0  0
 17 39  1  0  0  0  0
 18 19  2  0  0  0  0
 20 40  1  0  0  0  0
M  END
> <s_m_source_file>
AV-unprocessed.smi

> <i_m_source_file_index>
2288

> <i_lp_mmshare_version>
43012

> <i_f3d_flags>
0

> <s_epik_input>
W0NIM11jMVtjSF1jKFtDSDNdKVtjSF1jKFtjSF0xKVtDQEhdKFtPSF0pW0NIMl1uMltjSF1uYyhbQ0gzXSljKFtDSDNdKWMyPU8=

> <s_epik_cmdline>
J2VwaWtfcHl0aG9uJywgJy1waCcsICc3LjAnLCAnLXRuJywgJzgnLCAnLW1hJywgJzIwMCcsICctbWV0YWxfYmluZGluZycsICctaW1hZScsICc8aW5maWxlLm1hZT4nLCAnLW9tYWUnLCAnPG91dGZpbGUubWFlPic=

> <r_lp_tautomer_probability>
1

> <r_epik_Ionization_Penalty>
5.07027e-05

> <r_epik_Ionization_Penalty_Charging>
7.56727e-08

> <r_epik_Ionization_Penalty_Neutral>
5.06271e-05

> <r_epik_State_Penalty>
-0

> <r_epik_Charging_Adjusted_Penalty>
7.56727e-08

> <i_epik_Tot_Q>
0

> <i_epik_Tot_abs_Q>
0

> <r_epik_Metal_State_Penalty>
-0

> <b_epik_Metal_Only>
0

> <s_lp_Force_Field>
OPLS_2005

> <r_lp_Energy>
19.2499

> <b_lp_Chiralities_Consistent>
1

> <s_lp_Variant>
AV-unprocessed.smi:2288-2

> <Gold.Version>
5.8.1

> <Gold.Id.Protein>
6NUR|6NUR_protein|mol2

> <Gold.PLP.Fitness>
46.4216

> <Gold.PLP.PLP>
-41.8490

> <Gold.PLP.part.hbond>
-1.0000

> <Gold.PLP.part.metal>
0.0000

> <Gold.PLP.part.buried>
-1.8389

> <Gold.PLP.part.nonpolar>
-38.9770

> <Gold.PLP.part.repulsive>
0.9663

> <Gold.PLP.ligand.clash>
0.0000

> <Gold.PLP.ligand.torsion>
0.7162

> <Gold.PLP.Chemscore.Hbond>
1.0000

> <Gold.PLP.Chemscore.CHOScore>
1.0000

> <Gold.PLP.Chemscore.Metal>
0.0000

> <Gold.Chemscore.Hbonds>
donor molecule, donor type, donor heavy atom, donor atom, acceptor molecule, acceptor atom, score
      L1  H     9    30       P1  8028  1.00
      L1  C    12    33       P1  8028  1.00

> <Gold.PLP.Chemscore.Internal.Correction>
0.0050

> <Gold.Rescore>
     Score         DG    S(hbond)    S(metal)    S(lipo)     H(rot)  DE(clash)    DE(int)     intcor
     16.16     -17.07       0.88        0.00     115.39       1.89       0.20       0.71       ----

> <Gold.Chemscore.Fitness>
16.1555

> <Gold.Chemscore.DG>
-17.0734

> <Gold.Chemscore.ZeroCoef>
-5.4800

> <Gold.Chemscore.Hbond>
0.8780

> <Gold.Chemscore.Metal>
0.0000

> <Gold.Chemscore.Lipo>
115.3932

> <Gold.Chemscore.Internal_Hbond>
0.0000

> <Gold.Chemscore.DEClash>
0.2033

> <Gold.Chemscore.DEInternal>
0.7146

> <Gold.Chemscore.Rot>
1.8907

> <Gold.Chemscore.Internal.Correction>
   9.000000E+99

> <Gold.Chemscore.Hbonds>
donor molecule, donor type, donor heavy atom, donor atom, acceptor molecule, acceptor atom, score
      L1  H     9    30       P1  8028  0.69

> <Gold.Chemscore.Hbond.Weighted>
-2.9324

> <Gold.Chemscore.Metal.Weighted>
-0.0000

> <Gold.Chemscore.Lipo.Weighted>
-13.5010

> <Gold.Chemscore.Internal_Hbond.Weighted>
0.0000

> <Gold.Chemscore.DEClash.Weighted>
0.2033

> <Gold.Chemscore.DEInternal.Weighted>
0.7146

> <Gold.Chemscore.Rot.Weighted>
4.8401

> <Gold.Chemscore.Internal.Correction.Weighted>
   9.000000E+99

> <Gold.Protein.RotatedTorsions>
[ 6907 6896 6895 6894 ] final  125.55 input  -60.11 | X-H torsion
[ 7974 7965 7964 7962 ] final -119.12 input  175.53 | X-H torsion
[ 8008 7997 7996 7995 ] final -155.01 input   59.86 | X-H torsion
[ 10167 10162 10161 10158 ] final   45.63 input  -65.29 | X-H torsion
[ 10718 10713 10712 10709 ] final  -53.46 input   66.30 | X-H torsion
[ 10763 10752 10751 10750 ] final   27.49 input  -60.55 | X-H torsion
[ 11005 11000 10999 10996 ] final -127.24 input  -57.11 | X-H torsion

> <Gold.Protein.ActiveResidues>
 VAL166  LYS551  ARG553  GLY616  TRP617  ASP618  TYR619  PRO620  LYS621  CYS622 
 ASP623  PHE694  ASN695  SER759  ASP760  ASP761  ALA762  ILE779  LEU786  VAL792 
 PHE793  MET794  SER795  GLU796  ALA797  LYS798  CYS799  TRP800  GLU811  SER814 

> <Gold.Protein.RotatedAtoms>
  152.3982  133.6778  159.6293 H   0  0  0  0  0  0  0  0  0  0  0  0  # atno 6907 bound_to 6896
  150.7877  133.8837  159.3302 H   0  0  0  0  0  0  0  0  0  0  0  0  # atno 6908 bound_to 6896
  151.6609  135.0991  160.0230 H   0  0  0  0  0  0  0  0  0  0  0  0  # atno 6909 bound_to 6896
  145.0661  140.8325  143.4124 H   0  0  0  0  0  0  0  0  0  0  0  0  # atno 7974 bound_to 7965
  155.6952  140.0760  157.2432 H   0  0  0  0  0  0  0  0  0  0  0  0  # atno 8008 bound_to 7997
  154.4082  140.1657  156.2183 H   0  0  0  0  0  0  0  0  0  0  0  0  # atno 8009 bound_to 7997
  155.9417  140.3384  155.6336 H   0  0  0  0  0  0  0  0  0  0  0  0  # atno 8010 bound_to 7997
  140.3222  144.2691  150.6181 H   0  0  0  0  0  0  0  0  0  0  0  0  # atno 10167 bound_to 10162
  156.1533  130.4151  149.9910 H   0  0  0  0  0  0  0  0  0  0  0  0  # atno 10718 bound_to 10713
  153.0553  135.6536  154.0593 H   0  0  0  0  0  0  0  0  0  0  0  0  # atno 10763 bound_to 10752
  154.0273  135.2914  155.3374 H   0  0  0  0  0  0  0  0  0  0  0  0  # atno 10764 bound_to 10752
  154.6864  135.5300  153.8399 H   0  0  0  0  0  0  0  0  0  0  0  0  # atno 10765 bound_to 10752
  140.9616  134.0929  157.3963 H   0  0  0  0  0  0  0  0  0  0  0  0  # atno 11005 bound_to 11000
  145.1350  139.2608  143.5520 LP  0  0  0  0  0  0  0  0  0  0  0  0  # atno 17320 bound_to 7965
  146.3527  140.1011  142.8608 LP  0  0  0  0  0  0  0  0  0  0  0  0  # atno 17321 bound_to 7965
  140.5473  143.2212  151.7986 LP  0  0  0  0  0  0  0  0  0  0  0  0  # atno 17342 bound_to 10162
  139.4872  144.4523  151.9640 LP  0  0  0  0  0  0  0  0  0  0  0  0  # atno 17343 bound_to 10162
  156.7761  130.9204  151.3645 LP  0  0  0  0  0  0  0  0  0  0  0  0  # atno 17370 bound_to 10713
  157.6674  130.9020  149.9964 LP  0  0  0  0  0  0  0  0  0  0  0  0  # atno 17371 bound_to 10713
  139.8880  135.0094  156.6594 LP  0  0  0  0  0  0  0  0  0  0  0  0  # atno 17394 bound_to 11000
  140.7459  133.8938  155.8312 LP  0  0  0  0  0  0  0  0  0  0  0  0  # atno 17395 bound_to 11000

$$$$
