AV-unprocessed.smi:3106|AV-procd|sdf|11823|dock6
  -GOLD-   2272017193D 1   1.00000     0.00000
 Structure written by MMmdl.
 29 30  0  0  0  0  0  0  0  0  1 V2000
  151.6562  145.7922  160.0250 C   0  0  0  0  0  0  0  0  0  0  0  0
  152.1637  144.3910  160.2925 C   0  0  0  0  0  0  0  0  0  0  0  0
  151.9701  143.7773  161.5444 C   0  0  0  0  0  0  0  0  0  0  0  0
  152.4587  142.4716  161.7428 C   0  0  0  0  0  0  0  0  0  0  0  0
  153.1275  141.8109  160.6879 C   0  0  0  0  0  0  0  0  0  0  0  0
  153.5813  140.5004  160.9920 N   0  0  0  0  0  0  0  0  0  0  0  0
  153.9085  139.5084  160.1417 C   0  0  0  0  0  0  0  0  0  0  0  0
  153.8771  139.6047  158.9144 O   0  0  0  0  0  0  0  0  0  0  0  0
  154.3702  138.1928  160.7845 C   0  0  2  0  0  0  0  0  0  0  0  0
  153.4996  136.9821  160.4355 C   0  0  0  0  0  0  0  0  0  0  0  0
  153.7342  136.0831  161.6282 C   0  0  0  0  0  0  0  0  0  0  0  0
  153.8036  137.0887  162.7727 C   0  0  0  0  0  0  0  0  0  0  0  0
  154.3212  138.2911  162.2090 O   0  0  0  0  0  0  0  0  0  0  0  0
  153.3075  142.4102  159.4844 N   0  0  0  0  0  0  0  0  0  0  0  0
  152.8387  143.6614  159.2946 C   0  0  0  0  0  0  0  0  0  0  0  0
  151.6817  146.3934  160.9344 H   0  0  0  0  0  0  0  0  0  0  0  0
  150.6283  145.7570  159.6638 H   0  0  0  0  0  0  0  0  0  0  0  0
  152.2691  146.2899  159.2730 H   0  0  0  0  0  0  0  0  0  0  0  0
  151.4563  144.2953  162.3409 H   0  0  0  0  0  0  0  0  0  0  0  0
  152.3191  141.9861  162.6978 H   0  0  0  0  0  0  0  0  0  0  0  0
  153.6590  140.2828  161.9747 H   0  0  0  0  0  0  0  0  0  0  0  0
  155.4042  137.9976  160.4966 H   0  0  0  0  0  0  0  0  0  0  0  0
  152.4445  137.2553  160.3745 H   0  0  0  0  0  0  0  0  0  0  0  0
  153.7871  136.5116  159.4948 H   0  0  0  0  0  0  0  0  0  0  0  0
  152.9529  135.3347  161.7639 H   0  0  0  0  0  0  0  0  0  0  0  0
  154.6893  135.5667  161.5233 H   0  0  0  0  0  0  0  0  0  0  0  0
  152.8046  137.2922  163.1603 H   0  0  0  0  0  0  0  0  0  0  0  0
  154.4220  136.7366  163.5987 H   0  0  0  0  0  0  0  0  0  0  0  0
  153.0080  144.0901  158.3178 H   0  0  0  0  0  0  0  0  0  0  0  0
  1  2  1  0  0  0  0
  1 16  1  0  0  0  0
  1 17  1  0  0  0  0
  1 18  1  0  0  0  0
  2 15  1  0  0  0  0
  2  3  2  0  0  0  0
  3  4  1  0  0  0  0
  3 19  1  0  0  0  0
  4  5  2  0  0  0  0
  4 20  1  0  0  0  0
  5  6  1  0  0  0  0
  5 14  1  0  0  0  0
  6  7  1  0  0  0  0
  6 21  1  0  0  0  0
  7  8  2  0  0  0  0
  7  9  1  0  0  0  0
  9 13  1  0  0  0  0
  9 10  1  0  0  0  0
  9 22  1  0  0  0  0
 10 11  1  0  0  0  0
 10 23  1  0  0  0  0
 10 24  1  0  0  0  0
 11 12  1  0  0  0  0
 11 25  1  0  0  0  0
 11 26  1  0  0  0  0
 12 13  1  0  0  0  0
 12 27  1  0  0  0  0
 12 28  1  0  0  0  0
 14 15  2  0  0  0  0
 15 29  1  0  0  0  0
M  END
> <s_m_source_file>
AV-unprocessed.smi

> <i_m_source_file_index>
3106

> <i_lp_mmshare_version>
43012

> <i_f3d_flags>
0

> <s_epik_input>
W0NIM11jMVtjSF1bY0hdYyhuW2NIXTEpW05IXUMoPU8pW0NAQEhdMltDSDJdW0NIMl1bQ0gyXU8y

> <s_epik_cmdline>
J2VwaWtfcHl0aG9uJywgJy1waCcsICc3LjAnLCAnLXRuJywgJzgnLCAnLW1hJywgJzIwMCcsICctbWV0YWxfYmluZGluZycsICctaW1hZScsICc8aW5maWxlLm1hZT4nLCAnLW9tYWUnLCAnPG91dGZpbGUubWFlPic=

> <r_epik_Ionization_Penalty>
0.00356606

> <r_epik_Ionization_Penalty_Charging>
0

> <r_epik_Ionization_Penalty_Neutral>
0.00356606

> <r_epik_State_Penalty>
0.00372088

> <r_epik_Charging_Adjusted_Penalty>
0.00372088

> <i_epik_Tot_Q>
0

> <i_epik_Tot_abs_Q>
0

> <r_epik_Metal_State_Penalty>
-0

> <b_epik_Metal_Only>
0

> <s_lp_Force_Field>
OPLS_2005

> <r_lp_Energy>
20.8335

> <b_lp_Chiralities_Consistent>
1

> <s_lp_Variant>
AV-unprocessed.smi:3106-1

> <Gold.Version>
5.8.1

> <Gold.Id.Protein>
6NUR|6NUR_protein|mol2

> <Gold.PLP.Fitness>
39.2432

> <Gold.PLP.PLP>
-36.4133

> <Gold.PLP.part.hbond>
-1.0000

> <Gold.PLP.part.metal>
0.0000

> <Gold.PLP.part.buried>
-4.3800

> <Gold.PLP.part.nonpolar>
-31.0587

> <Gold.PLP.part.repulsive>
0.0311

> <Gold.PLP.ligand.clash>
0.0000

> <Gold.PLP.ligand.torsion>
0.0871

> <Gold.PLP.Chemscore.Hbond>
1.0000

> <Gold.PLP.Chemscore.CHOScore>
0.0000

> <Gold.PLP.Chemscore.Metal>
0.0000

> <Gold.Chemscore.Hbonds>
donor molecule, donor type, donor heavy atom, donor atom, acceptor molecule, acceptor atom, score
      P1  H  7997  8009       L1     8  1.00

> <Gold.PLP.Chemscore.Internal.Correction>
0.0042

> <Gold.Rescore>
     Score         DG    S(hbond)    S(metal)    S(lipo)     H(rot)  DE(clash)    DE(int)     intcor
     15.00     -16.35       0.99        0.00      86.48       1.00       0.00       1.35       ----

> <Gold.Chemscore.Fitness>
14.9986

> <Gold.Chemscore.DG>
-16.3498

> <Gold.Chemscore.ZeroCoef>
-5.4800

> <Gold.Chemscore.Hbond>
0.9916

> <Gold.Chemscore.Metal>
0.0000

> <Gold.Chemscore.Lipo>
86.4776

> <Gold.Chemscore.Internal_Hbond>
0.0000

> <Gold.Chemscore.DEClash>
0.0000

> <Gold.Chemscore.DEInternal>
1.3512

> <Gold.Chemscore.Rot>
1.0000

> <Gold.Chemscore.Internal.Correction>
   9.000000E+99

> <Gold.Chemscore.Hbonds>
donor molecule, donor type, donor heavy atom, donor atom, acceptor molecule, acceptor atom, score
      P1  H  7997  8009       L1     8  0.95

> <Gold.Chemscore.Hbond.Weighted>
-3.3119

> <Gold.Chemscore.Metal.Weighted>
-0.0000

> <Gold.Chemscore.Lipo.Weighted>
-10.1179

> <Gold.Chemscore.Internal_Hbond.Weighted>
0.0000

> <Gold.Chemscore.DEClash.Weighted>
0.0000

> <Gold.Chemscore.DEInternal.Weighted>
1.3512

> <Gold.Chemscore.Rot.Weighted>
2.5600

> <Gold.Chemscore.Internal.Correction.Weighted>
   9.000000E+99

> <Gold.Protein.RotatedTorsions>
[ 6907 6896 6895 6894 ] final -104.92 input  -60.11 | X-H torsion
[ 7974 7965 7964 7962 ] final  -19.03 input  175.53 | X-H torsion
[ 8008 7997 7996 7995 ] final  127.21 input   59.86 | X-H torsion
[ 10167 10162 10161 10158 ] final -179.10 input  -65.29 | X-H torsion
[ 10718 10713 10712 10709 ] final  -65.59 input   66.30 | X-H torsion
[ 10763 10752 10751 10750 ] final  -35.84 input  -60.55 | X-H torsion
[ 11005 11000 10999 10996 ] final  -91.84 input  -57.11 | X-H torsion

> <Gold.Protein.ActiveResidues>
 VAL166  LYS551  ARG553  GLY616  TRP617  ASP618  TYR619  PRO620  LYS621  CYS622 
 ASP623  PHE694  ASN695  SER759  ASP760  ASP761  ALA762  ILE779  LEU786  VAL792 
 PHE793  MET794  SER795  GLU796  ALA797  LYS798  CYS799  TRP800  GLU811  SER814 

> <Gold.Protein.RotatedAtoms>
  150.7311  134.0204  159.3699 H   0  0  0  0  0  0  0  0  0  0  0  0  # atno 6907 bound_to 6896
  151.8169  135.0661  160.0429 H   0  0  0  0  0  0  0  0  0  0  0  0  # atno 6908 bound_to 6896
  152.3032  133.5640  159.5668 H   0  0  0  0  0  0  0  0  0  0  0  0  # atno 6909 bound_to 6896
  146.1862  140.4004  142.8475 H   0  0  0  0  0  0  0  0  0  0  0  0  # atno 7974 bound_to 7965
  156.2885  140.2674  156.2236 H   0  0  0  0  0  0  0  0  0  0  0  0  # atno 8008 bound_to 7997
  155.0143  140.0387  157.2430 H   0  0  0  0  0  0  0  0  0  0  0  0  # atno 8009 bound_to 7997
  154.7490  140.2739  155.6313 H   0  0  0  0  0  0  0  0  0  0  0  0  # atno 8010 bound_to 7997
  139.5401  144.2386  152.0878 H   0  0  0  0  0  0  0  0  0  0  0  0  # atno 10167 bound_to 10162
  156.0661  130.4249  150.1585 H   0  0  0  0  0  0  0  0  0  0  0  0  # atno 10718 bound_to 10713
  153.8699  135.6832  153.4775 H   0  0  0  0  0  0  0  0  0  0  0  0  # atno 10763 bound_to 10752
  153.1293  135.4705  154.9321 H   0  0  0  0  0  0  0  0  0  0  0  0  # atno 10764 bound_to 10752
  154.7719  135.3241  154.8122 H   0  0  0  0  0  0  0  0  0  0  0  0  # atno 10765 bound_to 10752
  141.1535  133.7782  156.9936 H   0  0  0  0  0  0  0  0  0  0  0  0  # atno 11005 bound_to 11000
  144.8402  140.6845  143.6234 LP  0  0  0  0  0  0  0  0  0  0  0  0  # atno 17320 bound_to 7965
  145.3931  139.1612  143.4218 LP  0  0  0  0  0  0  0  0  0  0  0  0  # atno 17321 bound_to 7965
  140.1863  144.4796  150.6502 LP  0  0  0  0  0  0  0  0  0  0  0  0  # atno 17342 bound_to 10162
  140.6627  143.2257  151.5816 LP  0  0  0  0  0  0  0  0  0  0  0  0  # atno 17343 bound_to 10162
  156.9645  130.9815  151.3472 LP  0  0  0  0  0  0  0  0  0  0  0  0  # atno 17370 bound_to 10713
  157.5703  130.8306  149.8383 LP  0  0  0  0  0  0  0  0  0  0  0  0  # atno 17371 bound_to 10713
  140.0986  134.9549  157.1888 LP  0  0  0  0  0  0  0  0  0  0  0  0  # atno 17394 bound_to 11000
  140.3349  134.2769  155.7221 LP  0  0  0  0  0  0  0  0  0  0  0  0  # atno 17395 bound_to 11000

$$$$
