AV-unprocessed.smi:2421|AV-procd|sdf|9556|dock4
  -GOLD-   2272013183D 1   1.00000     0.00000
 Structure written by MMmdl.
 44 46  0  0  0  0  0  0  0  0  1 V2000
  146.3246  132.8225  152.9545 C   0  0  0  0  0  0  0  0  0  0  0  0
  147.4955  132.2891  153.7282 C   0  0  0  0  0  0  0  0  0  0  0  0
  147.4920  131.0392  154.1669 N   0  0  0  0  0  0  0  0  0  0  0  0
  148.7053  130.8539  154.8522 O   0  0  0  0  0  0  0  0  0  0  0  0
  149.4193  132.0110  154.8104 C   0  0  0  0  0  0  0  0  0  0  0  0
  150.7449  132.0237  155.4924 C   0  0  0  0  0  0  0  0  0  0  0  0
  148.7020  132.9317  154.1072 C   0  0  0  0  0  0  0  0  0  0  0  0
  149.0654  134.2694  153.8497 N   0  0  0  0  0  0  0  0  0  0  0  0
  149.7572  135.0373  154.7075 C   0  0  0  0  0  0  0  0  0  0  0  0
  150.0731  134.6748  155.8395 O   0  0  0  0  0  0  0  0  0  0  0  0
  150.0763  136.2571  154.2381 N   0  0  0  0  0  0  0  0  0  0  0  0
  150.8182  137.3220  154.9166 C   0  0  1  0  0  0  0  0  0  0  0  0
  152.1049  137.6326  154.1423 C   0  0  0  0  0  0  0  0  0  0  0  0
  152.8520  138.8068  154.7901 C   0  0  0  0  0  0  0  0  0  0  0  0
  152.0062  139.9516  154.8846 O   0  0  0  0  0  0  0  0  0  0  0  0
  150.7865  139.7755  155.6151 C   0  0  0  0  0  0  0  0  0  0  0  0
  151.0393  139.6608  157.1292 C   0  0  0  0  0  0  0  0  0  0  0  0
  151.3546  141.0862  157.5919 C   0  0  0  0  0  0  0  0  0  0  0  0
  150.6778  142.0189  156.5776 C   0  0  0  0  0  0  0  0  0  0  0  0
  150.0352  141.1091  155.5233 C   0  0  0  0  0  0  0  0  0  0  0  0
  149.9765  138.6065  155.0139 C   0  0  0  0  0  0  0  0  0  0  0  0
  146.4942  133.8511  152.6357 H   0  0  0  0  0  0  0  0  0  0  0  0
  145.4169  132.8085  153.5581 H   0  0  0  0  0  0  0  0  0  0  0  0
  146.1416  132.2259  152.0607 H   0  0  0  0  0  0  0  0  0  0  0  0
  151.2512  132.9781  155.3455 H   0  0  0  0  0  0  0  0  0  0  0  0
  151.3884  131.2369  155.0988 H   0  0  0  0  0  0  0  0  0  0  0  0
  150.6289  131.8632  156.5641 H   0  0  0  0  0  0  0  0  0  0  0  0
  148.8295  134.6482  152.9441 H   0  0  0  0  0  0  0  0  0  0  0  0
  149.7418  136.4804  153.3118 H   0  0  0  0  0  0  0  0  0  0  0  0
  151.0991  136.9899  155.9176 H   0  0  0  0  0  0  0  0  0  0  0  0
  152.7506  136.7543  154.1093 H   0  0  0  0  0  0  0  0  0  0  0  0
  151.8666  137.8851  153.1078 H   0  0  0  0  0  0  0  0  0  0  0  0
  153.2381  138.5268  155.7697 H   0  0  0  0  0  0  0  0  0  0  0  0
  153.7197  139.0711  154.1854 H   0  0  0  0  0  0  0  0  0  0  0  0
  150.1254  139.3272  157.6229 H   0  0  0  0  0  0  0  0  0  0  0  0
  151.8182  138.9513  157.4049 H   0  0  0  0  0  0  0  0  0  0  0  0
  151.0076  141.2639  158.6103 H   0  0  0  0  0  0  0  0  0  0  0  0
  152.4327  141.2513  157.5800 H   0  0  0  0  0  0  0  0  0  0  0  0
  149.9355  142.6639  157.0489 H   0  0  0  0  0  0  0  0  0  0  0  0
  151.4247  142.6648  156.1140 H   0  0  0  0  0  0  0  0  0  0  0  0
  150.0649  141.5429  154.5229 H   0  0  0  0  0  0  0  0  0  0  0  0
  148.9853  140.9580  155.7791 H   0  0  0  0  0  0  0  0  0  0  0  0
  149.6375  138.8867  154.0152 H   0  0  0  0  0  0  0  0  0  0  0  0
  149.0746  138.4327  155.6020 H   0  0  0  0  0  0  0  0  0  0  0  0
  1  2  1  0  0  0  0
  1 22  1  0  0  0  0
  1 23  1  0  0  0  0
  1 24  1  0  0  0  0
  2  7  1  0  0  0  0
  2  3  2  0  0  0  0
  3  4  1  0  0  0  0
  4  5  1  0  0  0  0
  5  6  1  0  0  0  0
  5  7  2  0  0  0  0
  6 25  1  0  0  0  0
  6 26  1  0  0  0  0
  6 27  1  0  0  0  0
  7  8  1  0  0  0  0
  8  9  1  0  0  0  0
  8 28  1  0  0  0  0
  9 10  2  0  0  0  0
  9 11  1  0  0  0  0
 11 12  1  0  0  0  0
 11 29  1  0  0  0  0
 12 21  1  0  0  0  0
 12 13  1  0  0  0  0
 12 30  1  0  0  0  0
 13 14  1  0  0  0  0
 13 31  1  0  0  0  0
 13 32  1  0  0  0  0
 14 15  1  0  0  0  0
 14 33  1  0  0  0  0
 14 34  1  0  0  0  0
 15 16  1  0  0  0  0
 16 20  1  0  0  0  0
 16 17  1  0  0  0  0
 16 21  1  0  0  0  0
 17 18  1  0  0  0  0
 17 35  1  0  0  0  0
 17 36  1  0  0  0  0
 18 19  1  0  0  0  0
 18 37  1  0  0  0  0
 18 38  1  0  0  0  0
 19 20  1  0  0  0  0
 19 39  1  0  0  0  0
 19 40  1  0  0  0  0
 20 41  1  0  0  0  0
 20 42  1  0  0  0  0
 21 43  1  0  0  0  0
 21 44  1  0  0  0  0
M  END
> <s_m_source_file>
AV-unprocessed.smi

> <i_m_source_file_index>
2421

> <i_lp_mmshare_version>
43012

> <i_f3d_flags>
0

> <s_epik_input>
W0NIM11jMW5vYyhbQ0gzXSljMVtOSF1DKD1PKVtOSF1bQ0BASF0oW0NIMl0yKVtDSDJdW0NIMl1PQzIzW0NIMl1bQ0gyXVtDSDJdW0NIMl0z

> <s_epik_cmdline>
J2VwaWtfcHl0aG9uJywgJy1waCcsICc3LjAnLCAnLXRuJywgJzgnLCAnLW1hJywgJzIwMCcsICctbWV0YWxfYmluZGluZycsICctaW1hZScsICc8aW5maWxlLm1hZT4nLCAnLW9tYWUnLCAnPG91dGZpbGUubWFlPic=

> <r_lp_tautomer_probability>
1

> <r_epik_Ionization_Penalty>
3.59808e-05

> <r_epik_Ionization_Penalty_Charging>
0

> <r_epik_Ionization_Penalty_Neutral>
3.59808e-05

> <r_epik_State_Penalty>
-0

> <r_epik_Charging_Adjusted_Penalty>
0

> <i_epik_Tot_Q>
0

> <i_epik_Tot_abs_Q>
0

> <r_epik_Metal_State_Penalty>
-0

> <b_epik_Metal_Only>
0

> <s_lp_Force_Field>
OPLS_2005

> <r_lp_Energy>
43.4187

> <b_lp_Chiralities_Consistent>
1

> <s_lp_Variant>
AV-unprocessed.smi:2421-2

> <Gold.Version>
5.8.1

> <Gold.Id.Protein>
6NUR|6NUR_protein|mol2

> <Gold.PLP.Fitness>
41.3067

> <Gold.PLP.PLP>
-33.7470

> <Gold.PLP.part.hbond>
-4.0000

> <Gold.PLP.part.metal>
0.0000

> <Gold.PLP.part.buried>
-0.6932

> <Gold.PLP.part.nonpolar>
-30.1890

> <Gold.PLP.part.repulsive>
0.2487

> <Gold.PLP.ligand.clash>
0.0000

> <Gold.PLP.ligand.torsion>
0.2537

> <Gold.PLP.Chemscore.Hbond>
2.5240

> <Gold.PLP.Chemscore.CHOScore>
0.0000

> <Gold.PLP.Chemscore.Metal>
0.0000

> <Gold.Chemscore.Hbonds>
donor molecule, donor type, donor heavy atom, donor atom, acceptor molecule, acceptor atom, score
      L1  H     8    28       P1  7948  0.62
      L1  H    11    29       P1  7948  1.00
      P1  H  7989  7998       L1    15  0.85

> <Gold.PLP.Chemscore.Internal.Correction>
0.4952

> <Gold.Rescore>
     Score         DG    S(hbond)    S(metal)    S(lipo)     H(rot)  DE(clash)    DE(int)     intcor
     17.35     -19.87       2.28        0.00      79.82       1.00       0.05       2.46       ----

> <Gold.Chemscore.Fitness>
17.3537

> <Gold.Chemscore.DG>
-19.8661

> <Gold.Chemscore.ZeroCoef>
-5.4800

> <Gold.Chemscore.Hbond>
2.2774

> <Gold.Chemscore.Metal>
0.0000

> <Gold.Chemscore.Lipo>
79.8246

> <Gold.Chemscore.Internal_Hbond>
0.0000

> <Gold.Chemscore.DEClash>
0.0477

> <Gold.Chemscore.DEInternal>
2.4646

> <Gold.Chemscore.Rot>
1.0000

> <Gold.Chemscore.Internal.Correction>
   9.000000E+99

> <Gold.Chemscore.Hbonds>
donor molecule, donor type, donor heavy atom, donor atom, acceptor molecule, acceptor atom, score
      L1  H     8    28       P1  7948  0.06
      L1  H    11    29       P1  7948  0.25
      P1  H  7989  7998       L1    15  0.58

> <Gold.Chemscore.Hbond.Weighted>
-7.6066

> <Gold.Chemscore.Metal.Weighted>
-0.0000

> <Gold.Chemscore.Lipo.Weighted>
-9.3395

> <Gold.Chemscore.Internal_Hbond.Weighted>
0.0000

> <Gold.Chemscore.DEClash.Weighted>
0.0477

> <Gold.Chemscore.DEInternal.Weighted>
2.4646

> <Gold.Chemscore.Rot.Weighted>
2.5600

> <Gold.Chemscore.Internal.Correction.Weighted>
   9.000000E+99

> <Gold.Protein.RotatedTorsions>
[ 6907 6896 6895 6894 ] final   64.78 input  -60.11 | X-H torsion
[ 7974 7965 7964 7962 ] final  -30.04 input  175.53 | X-H torsion
[ 8008 7997 7996 7995 ] final  -79.90 input   59.86 | X-H torsion
[ 10167 10162 10161 10158 ] final  -92.10 input  -65.29 | X-H torsion
[ 10718 10713 10712 10709 ] final   58.59 input   66.30 | X-H torsion
[ 10763 10752 10751 10750 ] final -110.84 input  -60.55 | X-H torsion
[ 11005 11000 10999 10996 ] final  174.38 input  -57.11 | X-H torsion

> <Gold.Protein.ActiveResidues>
 VAL166  LYS551  ARG553  GLY616  TRP617  ASP618  TYR619  PRO620  LYS621  CYS622 
 ASP623  PHE694  ASN695  SER759  ASP760  ASP761  ALA762  ILE779  LEU786  VAL792 
 PHE793  MET794  SER795  GLU796  ALA797  LYS798  CYS799  TRP800  GLU811  SER814 

> <Gold.Protein.RotatedAtoms>
  152.4358  134.5689  159.9915 H   0  0  0  0  0  0  0  0  0  0  0  0  # atno 6907 bound_to 6896
  151.5800  133.3373  159.3014 H   0  0  0  0  0  0  0  0  0  0  0  0  # atno 6908 bound_to 6896
  150.8256  134.7520  159.6874 H   0  0  0  0  0  0  0  0  0  0  0  0  # atno 6909 bound_to 6896
  146.1172  140.5490  142.8751 H   0  0  0  0  0  0  0  0  0  0  0  0  # atno 7974 bound_to 7965
  154.5830  140.0671  156.9131 H   0  0  0  0  0  0  0  0  0  0  0  0  # atno 8008 bound_to 7997
  155.2429  140.3346  155.4272 H   0  0  0  0  0  0  0  0  0  0  0  0  # atno 8009 bound_to 7997
  156.2202  140.1796  156.7478 H   0  0  0  0  0  0  0  0  0  0  0  0  # atno 8010 bound_to 7997
  140.3383  143.2956  151.9865 H   0  0  0  0  0  0  0  0  0  0  0  0  # atno 10167 bound_to 10162
  157.5608  130.8834  149.9109 H   0  0  0  0  0  0  0  0  0  0  0  0  # atno 10718 bound_to 10713
  154.8269  135.4549  154.0947 H   0  0  0  0  0  0  0  0  0  0  0  0  # atno 10763 bound_to 10752
  153.2253  135.6899  153.7958 H   0  0  0  0  0  0  0  0  0  0  0  0  # atno 10764 bound_to 10752
  153.7361  135.3319  155.3271 H   0  0  0  0  0  0  0  0  0  0  0  0  # atno 10765 bound_to 10752
  140.3507  134.7198  157.4265 H   0  0  0  0  0  0  0  0  0  0  0  0  # atno 11005 bound_to 11000
  144.7564  140.5317  143.6766 LP  0  0  0  0  0  0  0  0  0  0  0  0  # atno 17320 bound_to 7965
  145.5542  139.1477  143.3377 LP  0  0  0  0  0  0  0  0  0  0  0  0  # atno 17321 bound_to 7965
  139.4845  144.6178  151.7312 LP  0  0  0  0  0  0  0  0  0  0  0  0  # atno 17342 bound_to 10162
  140.5333  144.0695  150.6061 LP  0  0  0  0  0  0  0  0  0  0  0  0  # atno 17343 bound_to 10162
  156.0661  130.3692  150.0875 LP  0  0  0  0  0  0  0  0  0  0  0  0  # atno 17370 bound_to 10713
  156.9039  130.9629  151.3572 LP  0  0  0  0  0  0  0  0  0  0  0  0  # atno 17371 bound_to 10713
  140.0706  134.5868  155.8646 LP  0  0  0  0  0  0  0  0  0  0  0  0  # atno 17394 bound_to 11000
  141.2013  133.6617  156.5943 LP  0  0  0  0  0  0  0  0  0  0  0  0  # atno 17395 bound_to 11000

$$$$
