AV-unprocessed.smi:2007|AV-procd|sdf|8139|dock5
  -GOLD-   2272010373D 1   1.00000     0.00000
 Structure written by MMmdl.
 36 37  0  0  0  0  0  0  0  0  3 V2000
  149.7038  136.0659  155.6214 C   0  0  0  0  0  0  0  0  0  0  0  0
  148.3015  136.5893  155.9596 C   0  0  2  0  0  0  0  0  0  0  0  0
  147.8345  137.6578  154.9448 C   0  0  0  0  0  0  0  0  0  0  0  0
  147.2014  137.0632  153.7408 N   0  3  0  0  0  0  0  0  0  0  0  0
  146.3352  135.9002  154.0382 C   0  0  0  0  0  0  0  0  0  0  0  0
  145.8168  135.2840  152.7273 C   0  0  0  0  0  0  0  0  0  0  0  0
  145.1243  136.2724  151.9728 O   0  0  0  0  0  0  0  0  0  0  0  0
  145.9672  137.3640  151.6212 C   0  0  0  0  0  0  0  0  0  0  0  0
  146.4800  138.0469  152.8994 C   0  0  0  0  0  0  0  0  0  0  0  0
  148.3025  137.1342  157.3188 N   0  0  0  0  0  0  0  0  0  0  0  0
  148.7149  136.5095  158.4324 C   0  0  0  0  0  0  0  0  0  0  0  0
  149.2174  135.3859  158.3608 O   0  0  0  0  0  0  0  0  0  0  0  0
  148.4895  137.2128  159.5634 N   0  5  0  0  0  0  0  0  0  0  0  0
  148.0445  136.5845  160.6636 C   0  0  0  0  0  0  0  0  0  0  0  0
  147.7007  137.2304  161.7843 N   0  0  0  0  0  0  0  0  0  0  0  0
  147.2673  136.3802  162.8035 C   0  0  0  0  0  0  0  0  0  0  0  0
  147.2881  135.0564  162.4522 C   0  0  0  0  0  0  0  0  0  0  0  0
  147.8550  134.8368  160.8211 S   0  0  0  0  0  0  0  0  0  0  0  0
  149.7286  135.6292  154.6228 H   0  0  0  0  0  0  0  0  0  0  0  0
  150.0143  135.2935  156.3259 H   0  0  0  0  0  0  0  0  0  0  0  0
  150.4460  136.8642  155.6545 H   0  0  0  0  0  0  0  0  0  0  0  0
  147.6254  135.7348  155.9107 H   0  0  0  0  0  0  0  0  0  0  0  0
  147.1082  138.3008  155.4446 H   0  0  0  0  0  0  0  0  0  0  0  0
  148.6613  138.3060  154.6505 H   0  0  0  0  0  0  0  0  0  0  0  0
  146.8982  135.1502  154.5951 H   0  0  0  0  0  0  0  0  0  0  0  0
  145.5006  136.2131  154.6676 H   0  0  0  0  0  0  0  0  0  0  0  0
  146.6392  134.8721  152.1398 H   0  0  0  0  0  0  0  0  0  0  0  0
  145.1352  134.4610  152.9425 H   0  0  0  0  0  0  0  0  0  0  0  0
  146.7983  137.0166  151.0050 H   0  0  0  0  0  0  0  0  0  0  0  0
  145.3972  138.0717  151.0190 H   0  0  0  0  0  0  0  0  0  0  0  0
  145.6454  138.4706  153.4599 H   0  0  0  0  0  0  0  0  0  0  0  0
  147.1373  138.8741  152.6330 H   0  0  0  0  0  0  0  0  0  0  0  0
  147.9128  138.0587  157.4339 H   0  0  0  0  0  0  0  0  0  0  0  0
  146.9634  136.8041  163.7491 H   0  0  0  0  0  0  0  0  0  0  0  0
  147.0076  134.2017  163.0491 H   0  0  0  0  0  0  0  0  0  0  0  0
  147.9631  136.7048  153.1806 H   0  0  0  0  0  0  0  0  0  0  0  0
  1  2  1  0  0  0  0
  1 19  1  0  0  0  0
  1 20  1  0  0  0  0
  1 21  1  0  0  0  0
  2  3  1  0  0  0  0
  2 10  1  0  0  0  0
  2 22  1  0  0  0  0
  3  4  1  0  0  0  0
  3 23  1  0  0  0  0
  3 24  1  0  0  0  0
  4  9  1  0  0  0  0
  4  5  1  0  0  0  0
  4 36  1  0  0  0  0
  5  6  1  0  0  0  0
  5 25  1  0  0  0  0
  5 26  1  0  0  0  0
  6  7  1  0  0  0  0
  6 27  1  0  0  0  0
  6 28  1  0  0  0  0
  7  8  1  0  0  0  0
  8  9  1  0  0  0  0
  8 29  1  0  0  0  0
  8 30  1  0  0  0  0
  9 31  1  0  0  0  0
  9 32  1  0  0  0  0
 10 11  1  0  0  0  0
 10 33  1  0  0  0  0
 11 12  2  0  0  0  0
 11 13  1  0  0  0  0
 13 14  1  0  0  0  0
 14 18  1  0  0  0  0
 14 15  2  0  0  0  0
 15 16  1  0  0  0  0
 16 17  2  0  0  0  0
 16 34  1  0  0  0  0
 17 18  1  0  0  0  0
 17 35  1  0  0  0  0
M  CHG  1   4   1
M  CHG  1  13  -1
M  END
> <s_m_source_file>
AV-unprocessed.smi

> <i_m_source_file_index>
2007

> <i_lp_mmshare_version>
43012

> <i_f3d_flags>
0

> <s_epik_input>
W0NIMl0xW0NIMl1PW0NIMl1bQ0gyXU4xW0NIMl1bQ0BASF0oW0NIM10pW05IXUMoPU8pW05IXWMybltjSF1bY0hdczI=

> <s_epik_cmdline>
J2VwaWtfcHl0aG9uJywgJy1waCcsICc3LjAnLCAnLXRuJywgJzgnLCAnLW1hJywgJzIwMCcsICctbWV0YWxfYmluZGluZycsICctaW1hZScsICc8aW5maWxlLm1hZT4nLCAnLW9tYWUnLCAnPG91dGZpbGUubWFlPic=

> <r_lp_tautomer_probability>
0.999

> <r_epik_Ionization_Penalty>
6.49226

> <r_epik_Ionization_Penalty_Charging>
5.74393

> <r_epik_Ionization_Penalty_Neutral>
0.748321

> <r_epik_State_Penalty>
5.94164

> <r_epik_Charging_Adjusted_Penalty>
11.6856

> <i_epik_Tot_Q>
0

> <i_epik_Tot_abs_Q>
2

> <r_epik_Metal_State_Penalty>
1.97606

> <b_epik_Metal_Only>
1

> <s_lp_Force_Field>
OPLS_2005

> <r_lp_Energy>
10.1627

> <b_lp_Chiralities_Consistent>
1

> <s_lp_Variant>
AV-unprocessed.smi:2007-7

> <Gold.Version>
5.8.1

> <Gold.Id.Protein>
6NUR|6NUR_protein|mol2

> <Gold.PLP.Fitness>
37.4655

> <Gold.PLP.PLP>
-25.1658

> <Gold.PLP.part.hbond>
-4.2795

> <Gold.PLP.part.metal>
0.0000

> <Gold.PLP.part.buried>
-0.3536

> <Gold.PLP.part.nonpolar>
-20.1373

> <Gold.PLP.part.repulsive>
0.1985

> <Gold.PLP.ligand.clash>
0.0000

> <Gold.PLP.ligand.torsion>
0.7989

> <Gold.PLP.Chemscore.Hbond>
4.5860

> <Gold.PLP.Chemscore.CHOScore>
0.0000

> <Gold.PLP.Chemscore.Metal>
0.0000

> <Gold.Chemscore.Hbonds>
donor molecule, donor type, donor heavy atom, donor atom, acceptor molecule, acceptor atom, score
      L1  H     4    36       P1  7948  2.00
      P1  H  6896  6907       L1    12  0.98
      P1  H  6931  6943       L1    15  0.95
      P1  H  6934  6947       L1    15  0.62

> <Gold.PLP.Chemscore.Internal.Correction>
0.1394

> <Gold.Rescore>
     Score         DG    S(hbond)    S(metal)    S(lipo)     H(rot)  DE(clash)    DE(int)     intcor
     13.01     -17.10       2.90        0.00      51.55       1.60       0.56       3.53       ----

> <Gold.Chemscore.Fitness>
13.0057

> <Gold.Chemscore.DG>
-17.0954

> <Gold.Chemscore.ZeroCoef>
-5.4800

> <Gold.Chemscore.Hbond>
2.8974

> <Gold.Chemscore.Metal>
0.0000

> <Gold.Chemscore.Lipo>
51.5519

> <Gold.Chemscore.Internal_Hbond>
0.0000

> <Gold.Chemscore.DEClash>
0.5609

> <Gold.Chemscore.DEInternal>
3.5287

> <Gold.Chemscore.Rot>
1.5991

> <Gold.Chemscore.Internal.Correction>
   9.000000E+99

> <Gold.Chemscore.Hbonds>
donor molecule, donor type, donor heavy atom, donor atom, acceptor molecule, acceptor atom, score
      L1  H     4    36       P1  7948  1.00
      P1  H  6896  6907       L1    12  0.91
      P1  H  6931  6943       L1    15  0.20
      P1  H  6934  6947       L1    15  0.13

> <Gold.Chemscore.Hbond.Weighted>
-9.6774

> <Gold.Chemscore.Metal.Weighted>
-0.0000

> <Gold.Chemscore.Lipo.Weighted>
-6.0316

> <Gold.Chemscore.Internal_Hbond.Weighted>
0.0000

> <Gold.Chemscore.DEClash.Weighted>
0.5609

> <Gold.Chemscore.DEInternal.Weighted>
3.5287

> <Gold.Chemscore.Rot.Weighted>
4.0936

> <Gold.Chemscore.Internal.Correction.Weighted>
   9.000000E+99

> <Gold.Protein.RotatedTorsions>
[ 6907 6896 6895 6894 ] final  -77.70 input  -60.11 | X-H torsion
[ 7974 7965 7964 7962 ] final  -23.41 input  175.53 | X-H torsion
[ 8008 7997 7996 7995 ] final  171.55 input   59.86 | X-H torsion
[ 10167 10162 10161 10158 ] final   54.84 input  -65.29 | X-H torsion
[ 10718 10713 10712 10709 ] final   -9.56 input   66.30 | X-H torsion
[ 10763 10752 10751 10750 ] final  -11.59 input  -60.55 | X-H torsion
[ 11005 11000 10999 10996 ] final -129.18 input  -57.11 | X-H torsion

> <Gold.Protein.ActiveResidues>
 VAL166  LYS551  ARG553  GLY616  TRP617  ASP618  TYR619  PRO620  LYS621  CYS622 
 ASP623  PHE694  ASN695  SER759  ASP760  ASP761  ALA762  ILE779  LEU786  VAL792 
 PHE793  MET794  SER795  GLU796  ALA797  LYS798  CYS799  TRP800  GLU811  SER814 

> <Gold.Protein.RotatedAtoms>
  150.6992  134.4383  159.5279 H   0  0  0  0  0  0  0  0  0  0  0  0  # atno 6907 bound_to 6896
  152.2097  134.8510  160.0508 H   0  0  0  0  0  0  0  0  0  0  0  0  # atno 6908 bound_to 6896
  151.9399  133.3600  159.3998 H   0  0  0  0  0  0  0  0  0  0  0  0  # atno 6909 bound_to 6896
  146.1617  140.4613  142.8568 H   0  0  0  0  0  0  0  0  0  0  0  0  # atno 7974 bound_to 7965
  156.1261  140.1509  156.9135 H   0  0  0  0  0  0  0  0  0  0  0  0  # atno 8008 bound_to 7997
  154.4872  140.0862  156.7554 H   0  0  0  0  0  0  0  0  0  0  0  0  # atno 8009 bound_to 7997
  155.4342  140.3428  155.4285 H   0  0  0  0  0  0  0  0  0  0  0  0  # atno 8010 bound_to 7997
  140.2258  144.3740  150.6433 H   0  0  0  0  0  0  0  0  0  0  0  0  # atno 10167 bound_to 10162
  156.6863  130.5052  149.5956 H   0  0  0  0  0  0  0  0  0  0  0  0  # atno 10718 bound_to 10713
  153.4859  135.7017  153.5911 H   0  0  0  0  0  0  0  0  0  0  0  0  # atno 10763 bound_to 10752
  153.4104  135.3850  155.2047 H   0  0  0  0  0  0  0  0  0  0  0  0  # atno 10764 bound_to 10752
  154.8719  135.3903  154.4314 H   0  0  0  0  0  0  0  0  0  0  0  0  # atno 10765 bound_to 10752
  140.9453  134.1138  157.4113 H   0  0  0  0  0  0  0  0  0  0  0  0  # atno 11005 bound_to 11000
  144.8036  140.6259  143.6461 LP  0  0  0  0  0  0  0  0  0  0  0  0  # atno 17320 bound_to 7965
  145.4570  139.1517  143.3887 LP  0  0  0  0  0  0  0  0  0  0  0  0  # atno 17321 bound_to 7965
  140.6222  143.2177  151.6671 LP  0  0  0  0  0  0  0  0  0  0  0  0  # atno 17342 bound_to 10162
  139.5128  144.3465  152.0692 LP  0  0  0  0  0  0  0  0  0  0  0  0  # atno 17343 bound_to 10162
  156.1830  130.6511  151.0974 LP  0  0  0  0  0  0  0  0  0  0  0  0  # atno 17370 bound_to 10713
  157.7025  131.0770  150.6773 LP  0  0  0  0  0  0  0  0  0  0  0  0  # atno 17371 bound_to 10713
  139.8832  135.0049  156.6281 LP  0  0  0  0  0  0  0  0  0  0  0  0  # atno 17394 bound_to 11000
  140.7677  133.8764  155.8467 LP  0  0  0  0  0  0  0  0  0  0  0  0  # atno 17395 bound_to 11000

$$$$
