AV-unprocessed.smi:2124|AV-procd|sdf|8653|dock6
  -GOLD-   2272011403D 1   1.00000     0.00000
 Structure written by MMmdl.
 47 49  0  0  0  0  0  0  0  0  1 V2000
  147.3226  135.3807  155.0950 C   0  0  0  0  0  0  0  0  0  0  0  0
  148.5133  135.9073  155.8679 C   0  0  0  0  0  0  0  0  0  0  0  0
  148.5505  136.0067  157.1561 N   0  0  0  0  0  0  0  0  0  0  0  0
  149.7104  136.5128  157.7594 C   0  0  0  0  0  0  0  0  0  0  0  0
  149.6747  136.6082  159.2751 C   0  0  0  0  0  0  0  0  0  0  0  0
  150.7936  136.8934  157.0206 C   0  0  0  0  0  0  0  0  0  0  0  0
  152.0705  137.4531  157.6464 C   0  0  0  0  0  0  0  0  0  0  0  0
  152.4202  138.9007  157.2914 C   0  0  0  0  0  0  0  0  0  0  0  0
  153.4890  139.1697  156.7426 O   0  0  0  0  0  0  0  0  0  0  0  0
  151.4931  139.8195  157.6105 N   0  0  0  0  0  0  0  0  0  0  0  0
  151.5442  141.2631  157.3606 C   0  0  1  0  0  0  0  0  0  0  0  0
  150.4814  141.6715  156.3208 C   0  0  0  0  0  0  0  0  0  0  0  0
  151.4732  142.0884  158.6754 C   0  0  1  0  0  0  0  0  0  0  0  0
  152.6995  141.8992  159.6044 C   0  0  0  0  0  0  0  0  0  0  0  0
  153.1765  143.3390  159.8618 C   0  0  2  0  0  0  0  0  0  0  0  0
  152.1482  144.0747  160.7399 C   0  0  0  0  0  0  0  0  0  0  0  0
  150.9748  144.2996  159.7684 C   0  0  0  0  0  0  0  0  0  0  0  0
  151.4698  143.6250  158.4743 C   0  0  1  0  0  0  0  0  0  0  0  0
  152.9528  143.9813  158.4997 C   0  0  0  0  0  0  0  0  0  0  0  0
  150.7398  136.7763  155.5509 C   0  0  0  0  0  0  0  0  0  0  0  0
  151.6531  137.0969  154.7917 O   0  0  0  0  0  0  0  0  0  0  0  0
  149.5827  136.2823  155.0564 N   0  0  0  0  0  0  0  0  0  0  0  0
  149.4953  136.1857  154.0553 H   0  0  0  0  0  0  0  0  0  0  0  0
  146.4429  135.9914  155.2988 H   0  0  0  0  0  0  0  0  0  0  0  0
  147.1050  134.3550  155.3934 H   0  0  0  0  0  0  0  0  0  0  0  0
  147.5037  135.3920  154.0192 H   0  0  0  0  0  0  0  0  0  0  0  0
  150.4040  135.9294  159.7175 H   0  0  0  0  0  0  0  0  0  0  0  0
  148.6913  136.3434  159.6654 H   0  0  0  0  0  0  0  0  0  0  0  0
  149.8998  137.6228  159.6041 H   0  0  0  0  0  0  0  0  0  0  0  0
  151.9834  137.3861  158.7311 H   0  0  0  0  0  0  0  0  0  0  0  0
  152.9233  136.8208  157.3970 H   0  0  0  0  0  0  0  0  0  0  0  0
  150.6557  139.4828  158.0634 H   0  0  0  0  0  0  0  0  0  0  0  0
  152.5200  141.4350  156.9056 H   0  0  0  0  0  0  0  0  0  0  0  0
  150.6316  142.6922  155.9719 H   0  0  0  0  0  0  0  0  0  0  0  0
  149.4720  141.6104  156.7278 H   0  0  0  0  0  0  0  0  0  0  0  0
  150.5248  141.0261  155.4429 H   0  0  0  0  0  0  0  0  0  0  0  0
  150.5674  141.8011  159.2104 H   0  0  0  0  0  0  0  0  0  0  0  0
  152.4423  141.3748  160.5256 H   0  0  0  0  0  0  0  0  0  0  0  0
  153.4927  141.3327  159.1149 H   0  0  0  0  0  0  0  0  0  0  0  0
  154.1981  143.4001  160.2381 H   0  0  0  0  0  0  0  0  0  0  0  0
  151.8597  143.4902  161.6144 H   0  0  0  0  0  0  0  0  0  0  0  0
  152.5445  145.0288  161.0892 H   0  0  0  0  0  0  0  0  0  0  0  0
  150.0405  143.8723  160.1343 H   0  0  0  0  0  0  0  0  0  0  0  0
  150.8116  145.3661  159.6083 H   0  0  0  0  0  0  0  0  0  0  0  0
  150.9345  143.9693  157.5904 H   0  0  0  0  0  0  0  0  0  0  0  0
  153.1394  145.0569  158.4926 H   0  0  0  0  0  0  0  0  0  0  0  0
  153.5295  143.5152  157.6994 H   0  0  0  0  0  0  0  0  0  0  0  0
  1  2  1  0  0  0  0
  1 24  1  0  0  0  0
  1 25  1  0  0  0  0
  1 26  1  0  0  0  0
  2 22  1  0  0  0  0
  2  3  2  0  0  0  0
  3  4  1  0  0  0  0
  4  5  1  0  0  0  0
  4  6  2  0  0  0  0
  5 27  1  0  0  0  0
  5 28  1  0  0  0  0
  5 29  1  0  0  0  0
  6  7  1  0  0  0  0
  6 20  1  0  0  0  0
  7  8  1  0  0  0  0
  7 30  1  0  0  0  0
  7 31  1  0  0  0  0
  8  9  2  0  0  0  0
  8 10  1  0  0  0  0
 10 11  1  0  0  0  0
 10 32  1  0  0  0  0
 11 12  1  0  0  0  0
 11 13  1  0  0  0  0
 11 33  1  0  0  0  0
 12 34  1  0  0  0  0
 12 35  1  0  0  0  0
 12 36  1  0  0  0  0
 13 18  1  0  0  0  0
 13 14  1  0  0  0  0
 13 37  1  0  0  0  0
 14 15  1  0  0  0  0
 14 38  1  0  0  0  0
 14 39  1  0  0  0  0
 15 19  1  0  0  0  0
 15 16  1  0  0  0  0
 15 40  1  0  0  0  0
 16 17  1  0  0  0  0
 16 41  1  0  0  0  0
 16 42  1  0  0  0  0
 17 18  1  0  0  0  0
 17 43  1  0  0  0  0
 17 44  1  0  0  0  0
 18 19  1  0  0  0  0
 18 45  1  0  0  0  0
 19 46  1  0  0  0  0
 19 47  1  0  0  0  0
 20 21  2  0  0  0  0
 20 22  1  0  0  0  0
 22 23  1  0  0  0  0
M  END
> <s_m_source_file>
AV-unprocessed.smi

> <i_m_source_file_index>
2124

> <i_lp_mmshare_version>
43012

> <i_f3d_flags>
0

> <s_epik_input>
W0NIM11jMW5jKFtDSDNdKWMoYyg9TylbbkhdMSlbQ0gyXUMoPU8pW05IXVtDQEhdKFtDSDNdKVtDQEhdKFtDSDJdW0NASF0yMylbQ0BIXShbQ0gyXTMpW0NIMl1bQ0gyXTI=

> <s_epik_cmdline>
J2VwaWtfcHl0aG9uJywgJy1waCcsICc3LjAnLCAnLXRuJywgJzgnLCAnLW1hJywgJzIwMCcsICctbWV0YWxfYmluZGluZycsICctaW1hZScsICc8aW5maWxlLm1hZT4nLCAnLW9tYWUnLCAnPG91dGZpbGUubWFlPic=

> <r_lp_tautomer_probability>
0.839158

> <r_epik_Ionization_Penalty>
0.000383628

> <r_epik_Ionization_Penalty_Charging>
0.00035045

> <r_epik_Ionization_Penalty_Neutral>
3.31781e-05

> <r_epik_State_Penalty>
0.09125

> <r_epik_Charging_Adjusted_Penalty>
0.0916005

> <i_epik_Tot_Q>
0

> <i_epik_Tot_abs_Q>
0

> <r_epik_Metal_State_Penalty>
0.255229

> <b_epik_Metal_Only>
0

> <s_lp_Force_Field>
OPLS_2005

> <r_lp_Energy>
52.6925

> <b_lp_Chiralities_Consistent>
1

> <s_lp_Variant>
AV-unprocessed.smi:2124-4

> <Gold.Version>
5.8.1

> <Gold.Id.Protein>
6NUR|6NUR_protein|mol2

> <Gold.PLP.Fitness>
45.6841

> <Gold.PLP.PLP>
-36.8311

> <Gold.PLP.part.hbond>
-2.8341

> <Gold.PLP.part.metal>
0.0000

> <Gold.PLP.part.buried>
-6.3007

> <Gold.PLP.part.nonpolar>
-28.3636

> <Gold.PLP.part.repulsive>
0.2001

> <Gold.PLP.ligand.clash>
0.0000

> <Gold.PLP.ligand.torsion>
0.1068

> <Gold.PLP.Chemscore.Hbond>
3.0000

> <Gold.PLP.Chemscore.CHOScore>
0.0000

> <Gold.PLP.Chemscore.Metal>
0.0000

> <Gold.Chemscore.Hbonds>
donor molecule, donor type, donor heavy atom, donor atom, acceptor molecule, acceptor atom, score
      L1  H    22    23       P1  7948  0.50
      P1  H  7997  8009       L1     9  0.47
      P1  H 10752 10765       L1    21  1.00

> <Gold.PLP.Chemscore.Internal.Correction>
0.0665

> <Gold.Rescore>
     Score         DG    S(hbond)    S(metal)    S(lipo)     H(rot)  DE(clash)    DE(int)     intcor
     22.98     -23.38       2.90        0.00     106.40       1.65       0.05       0.36       ----

> <Gold.Chemscore.Fitness>
22.9793

> <Gold.Chemscore.DG>
-23.3846

> <Gold.Chemscore.ZeroCoef>
-5.4800

> <Gold.Chemscore.Hbond>
2.9006

> <Gold.Chemscore.Metal>
0.0000

> <Gold.Chemscore.Lipo>
106.4030

> <Gold.Chemscore.Internal_Hbond>
0.0000

> <Gold.Chemscore.DEClash>
0.0459

> <Gold.Chemscore.DEInternal>
0.3594

> <Gold.Chemscore.Rot>
1.6534

> <Gold.Chemscore.Internal.Correction>
   9.000000E+99

> <Gold.Chemscore.Hbonds>
donor molecule, donor type, donor heavy atom, donor atom, acceptor molecule, acceptor atom, score
      L1  H    22    23       P1  7948  0.35
      P1  H  7997  8009       L1     9  0.46
      P1  H 10752 10765       L1    21  0.89

> <Gold.Chemscore.Hbond.Weighted>
-9.6881

> <Gold.Chemscore.Metal.Weighted>
-0.0000

> <Gold.Chemscore.Lipo.Weighted>
-12.4491

> <Gold.Chemscore.Internal_Hbond.Weighted>
0.0000

> <Gold.Chemscore.DEClash.Weighted>
0.0459

> <Gold.Chemscore.DEInternal.Weighted>
0.3594

> <Gold.Chemscore.Rot.Weighted>
4.2326

> <Gold.Chemscore.Internal.Correction.Weighted>
   9.000000E+99

> <Gold.Protein.RotatedTorsions>
[ 6907 6896 6895 6894 ] final   23.74 input  -60.11 | X-H torsion
[ 7974 7965 7964 7962 ] final -109.18 input  175.53 | X-H torsion
[ 8008 7997 7996 7995 ] final  162.42 input   59.86 | X-H torsion
[ 10167 10162 10161 10158 ] final  108.98 input  -65.29 | X-H torsion
[ 10718 10713 10712 10709 ] final   53.38 input   66.30 | X-H torsion
[ 10763 10752 10751 10750 ] final  161.98 input  -60.55 | X-H torsion
[ 11005 11000 10999 10996 ] final   67.07 input  -57.11 | X-H torsion

> <Gold.Protein.ActiveResidues>
 VAL166  LYS551  ARG553  GLY616  TRP617  ASP618  TYR619  PRO620  LYS621  CYS622 
 ASP623  PHE694  ASN695  SER759  ASP760  ASP761  ALA762  ILE779  LEU786  VAL792 
 PHE793  MET794  SER795  GLU796  ALA797  LYS798  CYS799  TRP800  GLU811  SER814 

> <Gold.Protein.RotatedAtoms>
  151.9470  135.0187  160.0539 H   0  0  0  0  0  0  0  0  0  0  0  0  # atno 6907 bound_to 6896
  152.1986  133.4820  159.5055 H   0  0  0  0  0  0  0  0  0  0  0  0  # atno 6908 bound_to 6896
  150.6950  134.1536  159.4192 H   0  0  0  0  0  0  0  0  0  0  0  0  # atno 6909 bound_to 6896
  145.1837  140.8983  143.3465 H   0  0  0  0  0  0  0  0  0  0  0  0  # atno 7974 bound_to 7965
  156.2032  140.1751  156.7855 H   0  0  0  0  0  0  0  0  0  0  0  0  # atno 8008 bound_to 7997
  154.5620  140.0698  156.8864 H   0  0  0  0  0  0  0  0  0  0  0  0  # atno 8009 bound_to 7997
  155.2831  140.3350  155.4259 H   0  0  0  0  0  0  0  0  0  0  0  0  # atno 8010 bound_to 7997
  139.6803  144.7119  151.1528 H   0  0  0  0  0  0  0  0  0  0  0  0  # atno 10167 bound_to 10162
  157.5161  130.8533  149.8498 H   0  0  0  0  0  0  0  0  0  0  0  0  # atno 10718 bound_to 10713
  154.2713  135.2765  155.2737 H   0  0  0  0  0  0  0  0  0  0  0  0  # atno 10763 bound_to 10752
  154.5299  135.5732  153.6753 H   0  0  0  0  0  0  0  0  0  0  0  0  # atno 10764 bound_to 10752
  152.9944  135.6225  154.2868 H   0  0  0  0  0  0  0  0  0  0  0  0  # atno 10765 bound_to 10752
  139.9793  134.6770  156.0293 H   0  0  0  0  0  0  0  0  0  0  0  0  # atno 11005 bound_to 11000
  145.0110  139.3510  143.6120 LP  0  0  0  0  0  0  0  0  0  0  0  0  # atno 17320 bound_to 7965
  146.3448  139.9373  142.8745 LP  0  0  0  0  0  0  0  0  0  0  0  0  # atno 17321 bound_to 7965
  140.7650  143.5710  150.8996 LP  0  0  0  0  0  0  0  0  0  0  0  0  # atno 17342 bound_to 10162
  139.9381  143.6414  152.3060 LP  0  0  0  0  0  0  0  0  0  0  0  0  # atno 17343 bound_to 10162
  156.0321  130.3761  150.1658 LP  0  0  0  0  0  0  0  0  0  0  0  0  # atno 17370 bound_to 10713
  156.9847  130.9875  151.3429 LP  0  0  0  0  0  0  0  0  0  0  0  0  # atno 17371 bound_to 10713
  141.1467  133.6555  156.3888 LP  0  0  0  0  0  0  0  0  0  0  0  0  # atno 17394 bound_to 11000
  140.5130  134.6377  157.5291 LP  0  0  0  0  0  0  0  0  0  0  0  0  # atno 17395 bound_to 11000

$$$$
