AV-unprocessed.smi:104|AV-procd|sdf|1004|dock6
  -GOLD-   2262017593D 1   1.00000     0.00000
 Structure written by MMmdl.
 47 49  0  0  0  0  0  0  0  0  1 V2000
  151.4775  140.8070  156.1475 C   0  0  0  0  0  0  0  0  0  0  0  0
  151.7228  139.7380  157.2040 C   0  0  0  0  0  0  0  0  0  0  0  0
  152.8190  139.6101  157.7500 O   0  0  0  0  0  0  0  0  0  0  0  0
  150.6328  138.9947  157.4385 O   0  0  0  0  0  0  0  0  0  0  0  0
  150.6584  138.0098  158.4579 C   0  0  0  0  0  0  0  0  0  0  0  0
  149.5129  137.0216  158.2205 C   0  0  1  0  0  0  0  0  0  0  0  0
  149.8011  135.7766  158.8399 O   0  0  0  0  0  0  0  0  0  0  0  0
  148.6226  135.0492  158.9684 C   0  0  2  0  0  0  0  0  0  0  0  0
  148.4244  134.1691  157.7616 N   0  0  0  0  0  0  0  0  0  0  0  0
  147.3015  133.8745  157.0050 C   0  0  0  0  0  0  0  0  0  0  0  0
  145.5584  134.5771  157.3291 Br  0  0  0  0  0  0  0  0  0  0  0  0
  147.4666  133.0735  155.9893 N   0  0  0  0  0  0  0  0  0  0  0  0
  148.8303  132.8238  156.0051 C   0  0  0  0  0  0  0  0  0  0  0  0
  149.7019  132.0582  155.1904 C   0  0  0  0  0  0  0  0  0  0  0  0
  149.2794  131.3432  154.1387 N   0  0  0  0  0  0  0  0  0  0  0  0
  151.0231  132.0517  155.4837 N   0  0  0  0  0  0  0  0  0  0  0  0
  151.4703  132.7634  156.5231 C   0  0  0  0  0  0  0  0  0  0  0  0
  150.7765  133.5227  157.3749 N   0  0  0  0  0  0  0  0  0  0  0  0
  149.4414  133.5203  157.0864 C   0  0  0  0  0  0  0  0  0  0  0  0
  147.4873  136.0868  159.0632 C   0  0  1  0  0  0  0  0  0  0  0  0
  146.8551  135.9959  160.3333 O   0  0  0  0  0  0  0  0  0  0  0  0
  147.5626  136.1757  161.4626 C   0  0  0  0  0  0  0  0  0  0  0  0
  147.0085  135.3737  162.6330 C   0  0  0  0  0  0  0  0  0  0  0  0
  148.5562  136.8910  161.5916 O   0  0  0  0  0  0  0  0  0  0  0  0
  148.2080  137.4215  158.9011 C   0  0  2  0  0  0  0  0  0  0  0  0
  147.4675  138.2969  158.0606 O   0  0  0  0  0  0  0  0  0  0  0  0
  146.3064  138.8249  158.4834 C   0  0  0  0  0  0  0  0  0  0  0  0
  145.6207  139.6570  157.4080 C   0  0  0  0  0  0  0  0  0  0  0  0
  145.8087  138.6838  159.6005 O   0  0  0  0  0  0  0  0  0  0  0  0
  151.3135  140.3442  155.1742 H   0  0  0  0  0  0  0  0  0  0  0  0
  152.3350  141.4762  156.0728 H   0  0  0  0  0  0  0  0  0  0  0  0
  150.5983  141.3989  156.4022 H   0  0  0  0  0  0  0  0  0  0  0  0
  151.6163  137.4879  158.4726 H   0  0  0  0  0  0  0  0  0  0  0  0
  150.5337  138.5002  159.4242 H   0  0  0  0  0  0  0  0  0  0  0  0
  149.3457  136.8694  157.1521 H   0  0  0  0  0  0  0  0  0  0  0  0
  148.6727  134.3499  159.8036 H   0  0  0  0  0  0  0  0  0  0  0  0
  148.2988  131.3352  153.8973 H   0  0  0  0  0  0  0  0  0  0  0  0
  149.9412  130.8123  153.5914 H   0  0  0  0  0  0  0  0  0  0  0  0
  152.5348  132.7165  156.6991 H   0  0  0  0  0  0  0  0  0  0  0  0
  146.7942  135.9299  158.2356 H   0  0  0  0  0  0  0  0  0  0  0  0
  147.6811  134.5514  162.8764 H   0  0  0  0  0  0  0  0  0  0  0  0
  146.0289  134.9594  162.3936 H   0  0  0  0  0  0  0  0  0  0  0  0
  146.9077  136.0105  163.5119 H   0  0  0  0  0  0  0  0  0  0  0  0
  148.4309  137.8605  159.8754 H   0  0  0  0  0  0  0  0  0  0  0  0
  146.0822  140.6423  157.3429 H   0  0  0  0  0  0  0  0  0  0  0  0
  144.5634  139.7847  157.6405 H   0  0  0  0  0  0  0  0  0  0  0  0
  145.7029  139.1693  156.4365 H   0  0  0  0  0  0  0  0  0  0  0  0
  1  2  1  0  0  0  0
  1 30  1  0  0  0  0
  1 31  1  0  0  0  0
  1 32  1  0  0  0  0
  2  3  2  0  0  0  0
  2  4  1  0  0  0  0
  4  5  1  0  0  0  0
  5  6  1  0  0  0  0
  5 33  1  0  0  0  0
  5 34  1  0  0  0  0
  6 25  1  0  0  0  0
  6  7  1  0  0  0  0
  6 35  1  0  0  0  0
  7  8  1  0  0  0  0
  8  9  1  0  0  0  0
  8 20  1  0  0  0  0
  8 36  1  0  0  0  0
  9 19  1  0  0  0  0
  9 10  1  0  0  0  0
 10 11  1  0  0  0  0
 10 12  2  0  0  0  0
 12 13  1  0  0  0  0
 13 19  2  0  0  0  0
 13 14  1  0  0  0  0
 14 15  1  0  0  0  0
 14 16  2  0  0  0  0
 15 37  1  0  0  0  0
 15 38  1  0  0  0  0
 16 17  1  0  0  0  0
 17 18  2  0  0  0  0
 17 39  1  0  0  0  0
 18 19  1  0  0  0  0
 20 21  1  0  0  0  0
 20 25  1  0  0  0  0
 20 40  1  0  0  0  0
 21 22  1  0  0  0  0
 22 23  1  0  0  0  0
 22 24  2  0  0  0  0
 23 41  1  0  0  0  0
 23 42  1  0  0  0  0
 23 43  1  0  0  0  0
 25 26  1  0  0  0  0
 25 44  1  0  0  0  0
 26 27  1  0  0  0  0
 27 28  1  0  0  0  0
 27 29  2  0  0  0  0
 28 45  1  0  0  0  0
 28 46  1  0  0  0  0
 28 47  1  0  0  0  0
M  END
> <s_m_source_file>
AV-unprocessed.smi

> <i_m_source_file_index>
104

> <i_lp_mmshare_version>
43012

> <i_f3d_flags>
0

> <s_epik_input>
W0NIM11DKD1PKU9bQ0gyXVtDQEBIXTFPW0NASF0oW0NAQEhdKE9DKD1PKVtDSDNdKVtDQEhdMU9DKD1PKVtDSDNdKW4oYyhCciluMiljKGMyMyluW2NIXW5jM1tOSDJd

> <s_epik_cmdline>
J2VwaWtfcHl0aG9uJywgJy1waCcsICc3LjAnLCAnLXRuJywgJzgnLCAnLW1hJywgJzIwMCcsICctbWV0YWxfYmluZGluZycsICctaW1hZScsICc8aW5maWxlLm1hZT4nLCAnLW9tYWUnLCAnPG91dGZpbGUubWFlPic=

> <r_lp_tautomer_probability>
1

> <r_epik_Ionization_Penalty>
7.36622e-05

> <r_epik_Ionization_Penalty_Charging>
0

> <r_epik_Ionization_Penalty_Neutral>
7.36622e-05

> <r_epik_State_Penalty>
-0

> <r_epik_Charging_Adjusted_Penalty>
0

> <i_epik_Tot_Q>
0

> <i_epik_Tot_abs_Q>
0

> <r_epik_Metal_State_Penalty>
-0

> <b_epik_Metal_Only>
0

> <s_epik_Chemistry_Notes>
This compound has an ester and may undergo hydrolysis at high or low pH. This compound contains an acetal/aminal-like group ( X-CH(R)-Y where X, Y are N, S, or O) that may be acid/base labile, releasing an aldehyde.

> <s_lp_Force_Field>
OPLS_2005

> <r_lp_Energy>
12.8289

> <b_lp_Chiralities_Consistent>
1

> <s_lp_Variant>
AV-unprocessed.smi:104-12

> <Gold.Version>
5.8.1

> <Gold.Id.Protein>
6NUR|6NUR_protein|mol2

> <Gold.PLP.Fitness>
37.5117

> <Gold.PLP.PLP>
-27.7973

> <Gold.PLP.part.hbond>
-5.1081

> <Gold.PLP.part.metal>
0.0000

> <Gold.PLP.part.buried>
-3.8041

> <Gold.PLP.part.nonpolar>
-19.4902

> <Gold.PLP.part.repulsive>
0.0003

> <Gold.PLP.ligand.clash>
0.0000

> <Gold.PLP.ligand.torsion>
1.4459

> <Gold.PLP.Chemscore.Hbond>
4.1467

> <Gold.PLP.Chemscore.CHOScore>
0.0000

> <Gold.PLP.Chemscore.Metal>
0.0000

> <Gold.Chemscore.Hbonds>
donor molecule, donor type, donor heavy atom, donor atom, acceptor molecule, acceptor atom, score
      P1  H  6896  6907       L1    18  0.62
      P1  H  6896  6908       L1     7  1.00
      P1  H  6931  6943       L1    24  0.84
      P1  H  6934  6947       L1    29  0.42
      P1  H  7997  8009       L1     3  1.00

> <Gold.PLP.Chemscore.Internal.Correction>
0.1661

> <Gold.Rescore>
     Score         DG    S(hbond)    S(metal)    S(lipo)     H(rot)  DE(clash)    DE(int)     intcor
      6.97     -11.45       4.02        0.00      30.50       4.31       0.05       4.43       ----

> <Gold.Chemscore.Fitness>
6.9706

> <Gold.Chemscore.DG>
-11.4499

> <Gold.Chemscore.ZeroCoef>
-5.4800

> <Gold.Chemscore.Hbond>
4.0200

> <Gold.Chemscore.Metal>
0.0000

> <Gold.Chemscore.Lipo>
30.5044

> <Gold.Chemscore.Internal_Hbond>
0.0000

> <Gold.Chemscore.DEClash>
0.0528

> <Gold.Chemscore.DEInternal>
4.4266

> <Gold.Chemscore.Rot>
4.3070

> <Gold.Chemscore.Internal.Correction>
   9.000000E+99

> <Gold.Chemscore.Hbonds>
donor molecule, donor type, donor heavy atom, donor atom, acceptor molecule, acceptor atom, score
      P1  H  6896  6907       L1    18  0.53
      P1  H  6896  6908       L1     7  0.48
      P1  H  6931  6943       L1    24  0.82
      P1  H  6934  6947       L1    29  0.27
      P1  H  7997  8009       L1     3  0.98

> <Gold.Chemscore.Hbond.Weighted>
-13.4268

> <Gold.Chemscore.Metal.Weighted>
-0.0000

> <Gold.Chemscore.Lipo.Weighted>
-3.5690

> <Gold.Chemscore.Internal_Hbond.Weighted>
0.0000

> <Gold.Chemscore.DEClash.Weighted>
0.0528

> <Gold.Chemscore.DEInternal.Weighted>
4.4266

> <Gold.Chemscore.Rot.Weighted>
11.0259

> <Gold.Chemscore.Internal.Correction.Weighted>
   9.000000E+99

> <Gold.Protein.RotatedTorsions>
[ 6907 6896 6895 6894 ] final -161.75 input  -60.11 | X-H torsion
[ 7974 7965 7964 7962 ] final  143.65 input  175.53 | X-H torsion
[ 8008 7997 7996 7995 ] final  166.56 input   59.86 | X-H torsion
[ 10167 10162 10161 10158 ] final  162.29 input  -65.29 | X-H torsion
[ 10718 10713 10712 10709 ] final   -2.44 input   66.30 | X-H torsion
[ 10763 10752 10751 10750 ] final  -28.73 input  -60.55 | X-H torsion
[ 11005 11000 10999 10996 ] final  144.56 input  -57.11 | X-H torsion

> <Gold.Protein.ActiveResidues>
 VAL166  LYS551  ARG553  GLY616  TRP617  ASP618  TYR619  PRO620  LYS621  CYS622 
 ASP623  PHE694  ASN695  SER759  ASP760  ASP761  ALA762  ILE779  LEU786  VAL792 
 PHE793  MET794  SER795  GLU796  ALA797  LYS798  CYS799  TRP800  GLU811  SER814 

> <Gold.Protein.RotatedAtoms>
  151.3695  133.3860  159.2697 H   0  0  0  0  0  0  0  0  0  0  0  0  # atno 6907 bound_to 6896
  150.9662  134.9043  159.7771 H   0  0  0  0  0  0  0  0  0  0  0  0  # atno 6908 bound_to 6896
  152.5168  134.3656  159.9352 H   0  0  0  0  0  0  0  0  0  0  0  0  # atno 6909 bound_to 6896
  144.8903  139.5568  143.5801 H   0  0  0  0  0  0  0  0  0  0  0  0  # atno 7974 bound_to 7965
  156.1708  140.1640  156.8450 H   0  0  0  0  0  0  0  0  0  0  0  0  # atno 8008 bound_to 7997
  154.5255  140.0768  156.8285 H   0  0  0  0  0  0  0  0  0  0  0  0  # atno 8009 bound_to 7997
  155.3516  140.3390  155.4241 H   0  0  0  0  0  0  0  0  0  0  0  0  # atno 8010 bound_to 7997
  139.4859  144.4452  151.8901 H   0  0  0  0  0  0  0  0  0  0  0  0  # atno 10167 bound_to 10162
  156.7907  130.5361  149.5736 H   0  0  0  0  0  0  0  0  0  0  0  0  # atno 10718 bound_to 10713
  153.7530  135.6924  153.4941 H   0  0  0  0  0  0  0  0  0  0  0  0  # atno 10763 bound_to 10752
  153.1990  135.4443  155.0242 H   0  0  0  0  0  0  0  0  0  0  0  0  # atno 10764 bound_to 10752
  154.8180  135.3408  154.7050 H   0  0  0  0  0  0  0  0  0  0  0  0  # atno 10765 bound_to 10752
  140.0642  134.9188  157.1235 H   0  0  0  0  0  0  0  0  0  0  0  0  # atno 11005 bound_to 11000
  146.3049  139.7548  142.9063 LP  0  0  0  0  0  0  0  0  0  0  0  0  # atno 17320 bound_to 7965
  145.3795  141.0356  143.3185 LP  0  0  0  0  0  0  0  0  0  0  0  0  # atno 17321 bound_to 7965
  140.3905  144.2621  150.5900 LP  0  0  0  0  0  0  0  0  0  0  0  0  # atno 17342 bound_to 10162
  140.5150  143.2280  151.8477 LP  0  0  0  0  0  0  0  0  0  0  0  0  # atno 17343 bound_to 10162
  156.1160  130.6075  151.0122 LP  0  0  0  0  0  0  0  0  0  0  0  0  # atno 17370 bound_to 10713
  157.6602  131.0882  150.7857 LP  0  0  0  0  0  0  0  0  0  0  0  0  # atno 17371 bound_to 10713
  140.3725  134.2375  155.7177 LP  0  0  0  0  0  0  0  0  0  0  0  0  # atno 17394 bound_to 11000
  141.1986  133.8032  157.0577 LP  0  0  0  0  0  0  0  0  0  0  0  0  # atno 17395 bound_to 11000

$$$$
