AV-unprocessed.smi:3248|AV-procd|sdf|12413|dock2
  -GOLD-   2272018293D 1   1.00000     0.00000
 Structure written by MMmdl.
 38 39  0  0  0  0  0  0  0  0  1 V2000
  153.8865  139.8889  159.4425 C   0  0  0  0  0  0  0  0  0  0  0  0
  153.0926  141.1001  158.9260 C   0  0  2  0  0  0  0  0  0  0  0  0
  152.6942  142.0873  160.0467 C   0  0  0  0  0  0  0  0  0  0  0  0
  152.2287  143.3667  159.5423 N   0  0  0  0  0  0  0  0  0  0  0  0
  152.2328  144.5913  160.1770 C   0  0  0  0  0  0  0  0  0  0  0  0
  151.6834  145.4973  159.3158 C   0  0  0  0  0  0  0  0  0  0  0  0
  151.3650  144.7208  158.1664 C   0  0  0  0  0  0  0  0  0  0  0  0
  151.6877  143.4453  158.3071 N   0  0  0  0  0  0  0  0  0  0  0  0
  151.9029  140.6267  158.2243 N   0  0  0  0  0  0  0  0  0  0  0  0
  151.8975  139.9079  157.0882 C   0  0  0  0  0  0  0  0  0  0  0  0
  152.9341  139.5306  156.5423 O   0  0  0  0  0  0  0  0  0  0  0  0
  150.6529  139.5487  156.6862 N   0  0  0  0  0  0  0  0  0  0  0  0
  149.5119  140.4647  156.8363 C   0  0  0  0  0  0  0  0  0  0  0  0
  149.3282  141.2319  155.5122 C   0  0  0  0  0  0  0  0  0  0  0  0
  149.1218  140.3118  154.4427 O   0  0  0  0  0  0  0  0  0  0  0  0
  150.1806  139.3677  154.2950 C   0  0  0  0  0  0  0  0  0  0  0  0
  150.3501  138.5826  155.6113 C   0  0  1  0  0  0  0  0  0  0  0  0
  151.3345  137.4018  155.4768 C   0  0  0  0  0  0  0  0  0  0  0  0
  154.8296  140.1929  159.8972 H   0  0  0  0  0  0  0  0  0  0  0  0
  154.1276  139.2035  158.6294 H   0  0  0  0  0  0  0  0  0  0  0  0
  153.3199  139.3329  160.1902 H   0  0  0  0  0  0  0  0  0  0  0  0
  153.7280  141.6230  158.2085 H   0  0  0  0  0  0  0  0  0  0  0  0
  151.9049  141.6632  160.6690 H   0  0  0  0  0  0  0  0  0  0  0  0
  153.5446  142.2687  160.7056 H   0  0  0  0  0  0  0  0  0  0  0  0
  152.6225  144.7149  161.1768 H   0  0  0  0  0  0  0  0  0  0  0  0
  151.5306  146.5534  159.4817 H   0  0  0  0  0  0  0  0  0  0  0  0
  150.9097  145.0433  157.2417 H   0  0  0  0  0  0  0  0  0  0  0  0
  151.0111  140.8576  158.6373 H   0  0  0  0  0  0  0  0  0  0  0  0
  148.6105  139.8974  157.0723 H   0  0  0  0  0  0  0  0  0  0  0  0
  149.6331  141.1770  157.6530 H   0  0  0  0  0  0  0  0  0  0  0  0
  148.4659  141.8957  155.5769 H   0  0  0  0  0  0  0  0  0  0  0  0
  150.1973  141.8572  155.3008 H   0  0  0  0  0  0  0  0  0  0  0  0
  149.9299  138.6919  153.4773 H   0  0  0  0  0  0  0  0  0  0  0  0
  151.1042  139.8783  154.0174 H   0  0  0  0  0  0  0  0  0  0  0  0
  149.3878  138.1281  155.8534 H   0  0  0  0  0  0  0  0  0  0  0  0
  150.9256  136.6407  154.8119 H   0  0  0  0  0  0  0  0  0  0  0  0
  151.5182  136.9264  156.4409 H   0  0  0  0  0  0  0  0  0  0  0  0
  152.2929  137.7028  155.0546 H   0  0  0  0  0  0  0  0  0  0  0  0
  1  2  1  0  0  0  0
  1 19  1  0  0  0  0
  1 20  1  0  0  0  0
  1 21  1  0  0  0  0
  2  3  1  0  0  0  0
  2  9  1  0  0  0  0
  2 22  1  0  0  0  0
  3  4  1  0  0  0  0
  3 23  1  0  0  0  0
  3 24  1  0  0  0  0
  4  8  1  0  0  0  0
  4  5  1  0  0  0  0
  5  6  2  0  0  0  0
  5 25  1  0  0  0  0
  6  7  1  0  0  0  0
  6 26  1  0  0  0  0
  7  8  2  0  0  0  0
  7 27  1  0  0  0  0
  9 10  1  0  0  0  0
  9 28  1  0  0  0  0
 10 11  2  0  0  0  0
 10 12  1  0  0  0  0
 12 17  1  0  0  0  0
 12 13  1  0  0  0  0
 13 14  1  0  0  0  0
 13 29  1  0  0  0  0
 13 30  1  0  0  0  0
 14 15  1  0  0  0  0
 14 31  1  0  0  0  0
 14 32  1  0  0  0  0
 15 16  1  0  0  0  0
 16 17  1  0  0  0  0
 16 33  1  0  0  0  0
 16 34  1  0  0  0  0
 17 18  1  0  0  0  0
 17 35  1  0  0  0  0
 18 36  1  0  0  0  0
 18 37  1  0  0  0  0
 18 38  1  0  0  0  0
M  END
> <s_m_source_file>
AV-unprocessed.smi

> <i_m_source_file_index>
3248

> <i_lp_mmshare_version>
43012

> <i_f3d_flags>
0

> <s_epik_input>
bjFbY0hdW2NIXVtjSF1uMVtDSDJdW0NAQEhdKFtDSDNdKVtOSF1DKD1PKU4yW0NIMl1bQ0gyXU9bQ0gyXVtDQEhdMltDSDNd

> <s_epik_cmdline>
J2VwaWtfcHl0aG9uJywgJy1waCcsICc3LjAnLCAnLXRuJywgJzgnLCAnLW1hJywgJzIwMCcsICctbWV0YWxfYmluZGluZycsICctaW1hZScsICc8aW5maWxlLm1hZT4nLCAnLW9tYWUnLCAnPG91dGZpbGUubWFlPic=

> <r_lp_tautomer_probability>
1

> <r_epik_Ionization_Penalty>
4.45233e-05

> <r_epik_Ionization_Penalty_Charging>
0

> <r_epik_Ionization_Penalty_Neutral>
4.45233e-05

> <r_epik_State_Penalty>
-0

> <r_epik_Charging_Adjusted_Penalty>
0

> <i_epik_Tot_Q>
0

> <i_epik_Tot_abs_Q>
0

> <r_epik_Metal_State_Penalty>
-0

> <b_epik_Metal_Only>
0

> <s_lp_Force_Field>
OPLS_2005

> <r_lp_Energy>
31.5175

> <b_lp_Chiralities_Consistent>
1

> <s_lp_Variant>
AV-unprocessed.smi:3248-1

> <Gold.Version>
5.8.1

> <Gold.Id.Protein>
6NUR|6NUR_protein|mol2

> <Gold.PLP.Fitness>
39.6592

> <Gold.PLP.PLP>
-34.7127

> <Gold.PLP.part.hbond>
-1.0000

> <Gold.PLP.part.metal>
0.0000

> <Gold.PLP.part.buried>
-4.6163

> <Gold.PLP.part.nonpolar>
-29.2761

> <Gold.PLP.part.repulsive>
0.2831

> <Gold.PLP.ligand.clash>
0.0000

> <Gold.PLP.ligand.torsion>
0.7453

> <Gold.PLP.Chemscore.Hbond>
1.0000

> <Gold.PLP.Chemscore.CHOScore>
0.9970

> <Gold.PLP.Chemscore.Metal>
0.0000

> <Gold.Chemscore.Hbonds>
donor molecule, donor type, donor heavy atom, donor atom, acceptor molecule, acceptor atom, score
      P1  H  7997  8010       L1    11  1.00
      L1  C     7    27       P1  8028  0.98

> <Gold.PLP.Chemscore.Internal.Correction>
0.4461

> <Gold.Rescore>
     Score         DG    S(hbond)    S(metal)    S(lipo)     H(rot)  DE(clash)    DE(int)     intcor
     14.00     -16.17       1.00        0.00      93.89       1.42       0.11       2.05       ----

> <Gold.Chemscore.Fitness>
14.0020

> <Gold.Chemscore.DG>
-16.1711

> <Gold.Chemscore.ZeroCoef>
-5.4800

> <Gold.Chemscore.Hbond>
0.9996

> <Gold.Chemscore.Metal>
0.0000

> <Gold.Chemscore.Lipo>
93.8918

> <Gold.Chemscore.Internal_Hbond>
0.0000

> <Gold.Chemscore.DEClash>
0.1146

> <Gold.Chemscore.DEInternal>
2.0545

> <Gold.Chemscore.Rot>
1.4191

> <Gold.Chemscore.Internal.Correction>
   9.000000E+99

> <Gold.Chemscore.Hbonds>
donor molecule, donor type, donor heavy atom, donor atom, acceptor molecule, acceptor atom, score
      P1  H  7997  8010       L1    11  0.95

> <Gold.Chemscore.Hbond.Weighted>
-3.3387

> <Gold.Chemscore.Metal.Weighted>
-0.0000

> <Gold.Chemscore.Lipo.Weighted>
-10.9853

> <Gold.Chemscore.Internal_Hbond.Weighted>
0.0000

> <Gold.Chemscore.DEClash.Weighted>
0.1146

> <Gold.Chemscore.DEInternal.Weighted>
2.0545

> <Gold.Chemscore.Rot.Weighted>
3.6330

> <Gold.Chemscore.Internal.Correction.Weighted>
   9.000000E+99

> <Gold.Protein.RotatedTorsions>
[ 6907 6896 6895 6894 ] final -152.96 input  -60.11 | X-H torsion
[ 7974 7965 7964 7962 ] final   39.97 input  175.53 | X-H torsion
[ 8008 7997 7996 7995 ] final   87.23 input   59.86 | X-H torsion
[ 10167 10162 10161 10158 ] final -158.27 input  -65.29 | X-H torsion
[ 10718 10713 10712 10709 ] final    0.07 input   66.30 | X-H torsion
[ 10763 10752 10751 10750 ] final   44.26 input  -60.55 | X-H torsion
[ 11005 11000 10999 10996 ] final  174.90 input  -57.11 | X-H torsion

> <Gold.Protein.ActiveResidues>
 VAL166  LYS551  ARG553  GLY616  TRP617  ASP618  TYR619  PRO620  LYS621  CYS622 
 ASP623  PHE694  ASN695  SER759  ASP760  ASP761  ALA762  ILE779  LEU786  VAL792 
 PHE793  MET794  SER795  GLU796  ALA797  LYS798  CYS799  TRP800  GLU811  SER814 

> <Gold.Protein.RotatedAtoms>
  151.2355  133.4427  159.2605 H   0  0  0  0  0  0  0  0  0  0  0  0  # atno 6907 bound_to 6896
  151.0754  134.9825  159.8340 H   0  0  0  0  0  0  0  0  0  0  0  0  # atno 6908 bound_to 6896
  152.5417  134.2298  159.8873 H   0  0  0  0  0  0  0  0  0  0  0  0  # atno 6909 bound_to 6896
  146.0942  139.5588  142.9456 H   0  0  0  0  0  0  0  0  0  0  0  0  # atno 7974 bound_to 7965
  155.9728  140.3384  155.6591 H   0  0  0  0  0  0  0  0  0  0  0  0  # atno 8008 bound_to 7997
  155.6652  140.0720  157.2558 H   0  0  0  0  0  0  0  0  0  0  0  0  # atno 8009 bound_to 7997
  154.4171  140.1701  156.1807 H   0  0  0  0  0  0  0  0  0  0  0  0  # atno 8010 bound_to 7997
  139.6705  143.9753  152.2281 H   0  0  0  0  0  0  0  0  0  0  0  0  # atno 10167 bound_to 10162
  156.8280  130.5479  149.5690 H   0  0  0  0  0  0  0  0  0  0  0  0  # atno 10718 bound_to 10713
  152.9844  135.6076  154.3245 H   0  0  0  0  0  0  0  0  0  0  0  0  # atno 10763 bound_to 10752
  154.2952  135.2774  155.2638 H   0  0  0  0  0  0  0  0  0  0  0  0  # atno 10764 bound_to 10752
  154.4915  135.5891  153.6519 H   0  0  0  0  0  0  0  0  0  0  0  0  # atno 10765 bound_to 10752
  140.3563  134.7151  157.4302 H   0  0  0  0  0  0  0  0  0  0  0  0  # atno 11005 bound_to 11000
  145.5981  141.0359  143.2033 LP  0  0  0  0  0  0  0  0  0  0  0  0  # atno 17320 bound_to 7965
  144.7383  139.7523  143.7321 LP  0  0  0  0  0  0  0  0  0  0  0  0  # atno 17321 bound_to 7965
  139.9516  144.6616  150.8166 LP  0  0  0  0  0  0  0  0  0  0  0  0  # atno 17342 bound_to 10162
  140.7616  143.3178  151.2691 LP  0  0  0  0  0  0  0  0  0  0  0  0  # atno 17343 bound_to 10162
  156.0950  130.5925  150.9798 LP  0  0  0  0  0  0  0  0  0  0  0  0  # atno 17370 bound_to 10713
  157.6422  131.0909  150.8228 LP  0  0  0  0  0  0  0  0  0  0  0  0  # atno 17371 bound_to 10713
  140.0662  134.5926  155.8692 LP  0  0  0  0  0  0  0  0  0  0  0  0  # atno 17394 bound_to 11000
  141.1997  133.6608  156.5859 LP  0  0  0  0  0  0  0  0  0  0  0  0  # atno 17395 bound_to 11000

$$$$
