AV-unprocessed.smi:3217|AV-procd|sdf|12290|dock3
  -GOLD-   2272018133D 1   1.00000     0.00000
 Structure written by MMmdl.
 34 35  0  0  0  0  0  0  0  0  1 V2000
  148.2146  140.7802  153.6593 C   0  0  0  0  0  0  0  0  0  0  0  0
  147.5439  141.2255  154.9668 C   0  0  1  0  0  0  0  0  0  0  0  0
  148.4386  142.1470  155.6659 N   0  0  0  0  0  0  0  0  0  0  0  0
  149.3450  141.8118  156.5956 C   0  0  0  0  0  0  0  0  0  0  0  0
  149.5256  140.6593  156.9870 O   0  0  0  0  0  0  0  0  0  0  0  0
  150.0212  142.8936  157.0187 N   0  0  0  0  0  0  0  0  0  0  0  0
  151.0794  142.9731  157.9650 C   0  0  0  0  0  0  0  0  0  0  0  0
  151.4542  141.9269  158.8433 C   0  0  0  0  0  0  0  0  0  0  0  0
  152.5176  142.1412  159.7414 C   0  0  0  0  0  0  0  0  0  0  0  0
  153.1618  143.3933  159.7357 C   0  0  0  0  0  0  0  0  0  0  0  0
  152.8072  144.4034  158.9143 N   0  0  0  0  0  0  0  0  0  0  0  0
  151.7877  144.1903  158.0552 C   0  0  0  0  0  0  0  0  0  0  0  0
  146.1758  141.8920  154.7166 C   0  0  2  0  0  0  0  0  0  0  0  0
  146.2186  143.1308  153.8177 C   0  0  0  0  0  0  0  0  0  0  0  0
  144.9873  143.8826  154.2671 C   0  0  0  0  0  0  0  0  0  0  0  0
  145.0084  143.6313  155.7707 C   0  0  0  0  0  0  0  0  0  0  0  0
  145.6118  142.3519  155.9440 O   0  0  0  0  0  0  0  0  0  0  0  0
  147.5945  140.0614  153.1231 H   0  0  0  0  0  0  0  0  0  0  0  0
  149.1748  140.3016  153.8552 H   0  0  0  0  0  0  0  0  0  0  0  0
  148.3935  141.6263  152.9949 H   0  0  0  0  0  0  0  0  0  0  0  0
  147.3794  140.3322  155.5720 H   0  0  0  0  0  0  0  0  0  0  0  0
  148.3665  143.1208  155.4102 H   0  0  0  0  0  0  0  0  0  0  0  0
  149.7911  143.7625  156.5594 H   0  0  0  0  0  0  0  0  0  0  0  0
  150.9483  140.9747  158.8585 H   0  0  0  0  0  0  0  0  0  0  0  0
  152.8301  141.3630  160.4218 H   0  0  0  0  0  0  0  0  0  0  0  0
  153.9799  143.5902  160.4126 H   0  0  0  0  0  0  0  0  0  0  0  0
  151.5321  145.0214  157.4138 H   0  0  0  0  0  0  0  0  0  0  0  0
  145.4793  141.1699  154.2869 H   0  0  0  0  0  0  0  0  0  0  0  0
  147.1112  143.7246  154.0211 H   0  0  0  0  0  0  0  0  0  0  0  0
  146.2053  142.8871  152.7551 H   0  0  0  0  0  0  0  0  0  0  0  0
  145.0122  144.9420  154.0107 H   0  0  0  0  0  0  0  0  0  0  0  0
  144.0942  143.4414  153.8223 H   0  0  0  0  0  0  0  0  0  0  0  0
  145.6278  144.3761  156.2718 H   0  0  0  0  0  0  0  0  0  0  0  0
  144.0126  143.6666  156.2129 H   0  0  0  0  0  0  0  0  0  0  0  0
  1  2  1  0  0  0  0
  1 18  1  0  0  0  0
  1 19  1  0  0  0  0
  1 20  1  0  0  0  0
  2  3  1  0  0  0  0
  2 13  1  0  0  0  0
  2 21  1  0  0  0  0
  3  4  1  0  0  0  0
  3 22  1  0  0  0  0
  4  5  2  0  0  0  0
  4  6  1  0  0  0  0
  6  7  1  0  0  0  0
  6 23  1  0  0  0  0
  7 12  1  0  0  0  0
  7  8  2  0  0  0  0
  8  9  1  0  0  0  0
  8 24  1  0  0  0  0
  9 10  2  0  0  0  0
  9 25  1  0  0  0  0
 10 11  1  0  0  0  0
 10 26  1  0  0  0  0
 11 12  2  0  0  0  0
 12 27  1  0  0  0  0
 13 17  1  0  0  0  0
 13 14  1  0  0  0  0
 13 28  1  0  0  0  0
 14 15  1  0  0  0  0
 14 29  1  0  0  0  0
 14 30  1  0  0  0  0
 15 16  1  0  0  0  0
 15 31  1  0  0  0  0
 15 32  1  0  0  0  0
 16 17  1  0  0  0  0
 16 33  1  0  0  0  0
 16 34  1  0  0  0  0
M  END
> <s_m_source_file>
AV-unprocessed.smi

> <i_m_source_file_index>
3217

> <i_lp_mmshare_version>
43012

> <i_f3d_flags>
0

> <s_epik_input>
TzFbQ0gyXVtDSDJdW0NIMl1bQ0BIXTFbQ0BIXShbQ0gzXSlbTkhdQyg9TylbTkhdYzJbY0hdW2NIXVtjSF1uW2NIXTI=

> <s_epik_cmdline>
J2VwaWtfcHl0aG9uJywgJy1waCcsICc3LjAnLCAnLXRuJywgJzgnLCAnLW1hJywgJzIwMCcsICctbWV0YWxfYmluZGluZycsICctaW1hZScsICc8aW5maWxlLm1hZT4nLCAnLW9tYWUnLCAnPG91dGZpbGUubWFlPic=

> <r_epik_Ionization_Penalty>
0.00475451

> <r_epik_Ionization_Penalty_Charging>
0

> <r_epik_Ionization_Penalty_Neutral>
0.00475451

> <r_epik_State_Penalty>
0.00341814

> <r_epik_Charging_Adjusted_Penalty>
0.00341814

> <i_epik_Tot_Q>
0

> <i_epik_Tot_abs_Q>
0

> <r_epik_Metal_State_Penalty>
-0

> <b_epik_Metal_Only>
0

> <s_lp_Force_Field>
OPLS_2005

> <r_lp_Energy>
20.7148

> <b_lp_Chiralities_Consistent>
1

> <s_lp_Variant>
AV-unprocessed.smi:3217-2

> <Gold.Version>
5.8.1

> <Gold.Id.Protein>
6NUR|6NUR_protein|mol2

> <Gold.PLP.Fitness>
39.5846

> <Gold.PLP.PLP>
-34.3936

> <Gold.PLP.part.hbond>
-2.0000

> <Gold.PLP.part.metal>
0.0000

> <Gold.PLP.part.buried>
-3.0626

> <Gold.PLP.part.nonpolar>
-29.7611

> <Gold.PLP.part.repulsive>
0.2627

> <Gold.PLP.ligand.clash>
0.0000

> <Gold.PLP.ligand.torsion>
0.3969

> <Gold.PLP.Chemscore.Hbond>
1.9920

> <Gold.PLP.Chemscore.CHOScore>
0.0000

> <Gold.PLP.Chemscore.Metal>
0.0000

> <Gold.Chemscore.Hbonds>
donor molecule, donor type, donor heavy atom, donor atom, acceptor molecule, acceptor atom, score
      L1  H     3    22       P1  8028  0.99
      L1  H     6    23       P1  8028  1.00

> <Gold.PLP.Chemscore.Internal.Correction>
0.0088

> <Gold.Rescore>
     Score         DG    S(hbond)    S(metal)    S(lipo)     H(rot)  DE(clash)    DE(int)     intcor
     17.22     -18.92       1.88        0.00      87.87       1.22       0.14       1.56       ----

> <Gold.Chemscore.Fitness>
17.2185

> <Gold.Chemscore.DG>
-18.9166

> <Gold.Chemscore.ZeroCoef>
-5.4800

> <Gold.Chemscore.Hbond>
1.8829

> <Gold.Chemscore.Metal>
0.0000

> <Gold.Chemscore.Lipo>
87.8662

> <Gold.Chemscore.Internal_Hbond>
0.0000

> <Gold.Chemscore.DEClash>
0.1363

> <Gold.Chemscore.DEInternal>
1.5618

> <Gold.Chemscore.Rot>
1.2236

> <Gold.Chemscore.Internal.Correction>
   9.000000E+99

> <Gold.Chemscore.Hbonds>
donor molecule, donor type, donor heavy atom, donor atom, acceptor molecule, acceptor atom, score
      L1  H     3    22       P1  8028  0.93
      L1  H     6    23       P1  8028  0.96

> <Gold.Chemscore.Hbond.Weighted>
-6.2888

> <Gold.Chemscore.Metal.Weighted>
-0.0000

> <Gold.Chemscore.Lipo.Weighted>
-10.2803

> <Gold.Chemscore.Internal_Hbond.Weighted>
0.0000

> <Gold.Chemscore.DEClash.Weighted>
0.1363

> <Gold.Chemscore.DEInternal.Weighted>
1.5618

> <Gold.Chemscore.Rot.Weighted>
3.1325

> <Gold.Chemscore.Internal.Correction.Weighted>
   9.000000E+99

> <Gold.Protein.RotatedTorsions>
[ 6907 6896 6895 6894 ] final -161.53 input  -60.11 | X-H torsion
[ 7974 7965 7964 7962 ] final  -75.32 input  175.53 | X-H torsion
[ 8008 7997 7996 7995 ] final   97.03 input   59.86 | X-H torsion
[ 10167 10162 10161 10158 ] final -102.84 input  -65.29 | X-H torsion
[ 10718 10713 10712 10709 ] final   -2.37 input   66.30 | X-H torsion
[ 10763 10752 10751 10750 ] final  -54.92 input  -60.55 | X-H torsion
[ 11005 11000 10999 10996 ] final -145.46 input  -57.11 | X-H torsion

> <Gold.Protein.ActiveResidues>
 VAL166  LYS551  ARG553  GLY616  TRP617  ASP618  TYR619  PRO620  LYS621  CYS622 
 ASP623  PHE694  ASN695  SER759  ASP760  ASP761  ALA762  ILE779  LEU786  VAL792 
 PHE793  MET794  SER795  GLU796  ALA797  LYS798  CYS799  TRP800  GLU811  SER814 

> <Gold.Protein.RotatedAtoms>
  151.3661  133.3872  159.2694 H   0  0  0  0  0  0  0  0  0  0  0  0  # atno 6907 bound_to 6896
  150.9688  134.9065  159.7785 H   0  0  0  0  0  0  0  0  0  0  0  0  # atno 6908 bound_to 6896
  152.5177  134.3622  159.9341 H   0  0  0  0  0  0  0  0  0  0  0  0  # atno 6909 bound_to 6896
  145.6275  140.9347  143.1105 H   0  0  0  0  0  0  0  0  0  0  0  0  # atno 7974 bound_to 7965
  156.0858  140.3264  155.7752 H   0  0  0  0  0  0  0  0  0  0  0  0  # atno 8008 bound_to 7997
  155.5077  140.0574  157.2946 H   0  0  0  0  0  0  0  0  0  0  0  0  # atno 8009 bound_to 7997
  154.4608  140.1966  156.0265 H   0  0  0  0  0  0  0  0  0  0  0  0  # atno 8010 bound_to 7997
  140.2264  143.3639  152.0925 H   0  0  0  0  0  0  0  0  0  0  0  0  # atno 10167 bound_to 10162
  156.7919  130.5364  149.5734 H   0  0  0  0  0  0  0  0  0  0  0  0  # atno 10718 bound_to 10713
  154.1825  135.6441  153.5038 H   0  0  0  0  0  0  0  0  0  0  0  0  # atno 10763 bound_to 10752
  153.0055  135.5409  154.6500 H   0  0  0  0  0  0  0  0  0  0  0  0  # atno 10764 bound_to 10752
  154.5867  135.2930  155.0650 H   0  0  0  0  0  0  0  0  0  0  0  0  # atno 10765 bound_to 10752
  140.7920  134.2957  157.5010 H   0  0  0  0  0  0  0  0  0  0  0  0  # atno 11005 bound_to 11000
  144.7206  139.8042  143.7383 LP  0  0  0  0  0  0  0  0  0  0  0  0  # atno 17320 bound_to 7965
  146.1383  139.4433  143.0125 LP  0  0  0  0  0  0  0  0  0  0  0  0  # atno 17321 bound_to 7965
  139.5126  144.6919  151.5737 LP  0  0  0  0  0  0  0  0  0  0  0  0  # atno 17342 bound_to 10162
  140.6218  143.9245  150.6532 LP  0  0  0  0  0  0  0  0  0  0  0  0  # atno 17343 bound_to 10162
  156.1154  130.6071  151.0112 LP  0  0  0  0  0  0  0  0  0  0  0  0  # atno 17370 bound_to 10713
  157.6596  131.0883  150.7868 LP  0  0  0  0  0  0  0  0  0  0  0  0  # atno 17371 bound_to 10713
  139.8730  134.9380  156.3703 LP  0  0  0  0  0  0  0  0  0  0  0  0  # atno 17394 bound_to 11000
  140.9380  133.7534  156.0109 LP  0  0  0  0  0  0  0  0  0  0  0  0  # atno 17395 bound_to 11000

$$$$
