AV-unprocessed.smi:3338|AV-procd|sdf|12872|dock4
  -GOLD-   2272019273D 1   1.00000     0.00000
 Structure written by MMmdl.
 44 45  0  0  0  0  0  0  0  0  2 V2000
  145.8453  132.0630  149.7326 C   0  0  0  0  0  0  0  0  0  0  0  0
  146.2378  133.2846  150.5753 C   0  0  1  0  0  0  0  0  0  0  0  0
  145.0178  134.1654  150.8918 C   0  0  0  0  0  0  0  0  0  0  0  0
  145.4384  135.3649  151.7498 C   0  0  0  0  0  0  0  0  0  0  0  0
  146.1701  134.9028  153.0199 C   0  0  0  0  0  0  0  0  0  0  0  0
  147.3444  134.0564  152.6840 N   0  3  1  0  0  0  0  0  0  0  0  0
  148.1466  133.7116  153.8849 C   0  0  0  0  0  0  0  0  0  0  0  0
  148.2297  134.8742  154.8930 C   0  0  0  0  0  0  0  0  0  0  0  0
  149.0735  135.9539  154.3953 N   0  0  0  0  0  0  0  0  0  0  0  0
  149.4688  137.0157  155.1169 C   0  0  0  0  0  0  0  0  0  0  0  0
  149.1678  137.1649  156.3020 O   0  0  0  0  0  0  0  0  0  0  0  0
  150.3416  138.0523  154.3873 C   0  0  2  0  0  0  0  0  0  0  0  0
  151.7789  138.1286  154.9418 C   0  0  0  0  0  0  0  0  0  0  0  0
  149.6963  139.3607  154.3817 N   0  0  0  0  0  0  0  0  0  0  0  0
  148.4100  139.6725  153.9900 C   0  0  0  0  0  0  0  0  0  0  0  0
  148.2366  141.0135  154.1794 C   0  0  0  0  0  0  0  0  0  0  0  0
  149.4862  141.4453  154.7039 C   0  0  0  0  0  0  0  0  0  0  0  0
  150.3549  140.4555  154.8288 N   0  0  0  0  0  0  0  0  0  0  0  0
  146.9483  132.8691  151.8793 C   0  0  0  0  0  0  0  0  0  0  0  0
  145.1397  131.4234  150.2639 H   0  0  0  0  0  0  0  0  0  0  0  0
  146.7188  131.4599  149.4832 H   0  0  0  0  0  0  0  0  0  0  0  0
  145.3783  132.3674  148.7954 H   0  0  0  0  0  0  0  0  0  0  0  0
  146.9382  133.8771  149.9847 H   0  0  0  0  0  0  0  0  0  0  0  0
  144.5511  134.5140  149.9697 H   0  0  0  0  0  0  0  0  0  0  0  0
  144.2637  133.5819  151.4223 H   0  0  0  0  0  0  0  0  0  0  0  0
  146.0886  136.0214  151.1698 H   0  0  0  0  0  0  0  0  0  0  0  0
  144.5623  135.9559  152.0183 H   0  0  0  0  0  0  0  0  0  0  0  0
  146.4935  135.7798  153.5820 H   0  0  0  0  0  0  0  0  0  0  0  0
  145.4898  134.3451  153.6656 H   0  0  0  0  0  0  0  0  0  0  0  0
  147.6843  132.8586  154.3838 H   0  0  0  0  0  0  0  0  0  0  0  0
  149.1437  133.3869  153.5834 H   0  0  0  0  0  0  0  0  0  0  0  0
  147.2446  135.2987  155.0817 H   0  0  0  0  0  0  0  0  0  0  0  0
  148.6051  134.5215  155.8552 H   0  0  0  0  0  0  0  0  0  0  0  0
  149.3599  135.9045  153.4280 H   0  0  0  0  0  0  0  0  0  0  0  0
  150.4146  137.7256  153.3487 H   0  0  0  0  0  0  0  0  0  0  0  0
  152.2754  137.1591  154.8875 H   0  0  0  0  0  0  0  0  0  0  0  0
  151.7984  138.4523  155.9832 H   0  0  0  0  0  0  0  0  0  0  0  0
  152.3798  138.8334  154.3664 H   0  0  0  0  0  0  0  0  0  0  0  0
  147.7311  138.9219  153.6123 H   0  0  0  0  0  0  0  0  0  0  0  0
  147.3511  141.5974  153.9760 H   0  0  0  0  0  0  0  0  0  0  0  0
  149.7851  142.4405  154.9988 H   0  0  0  0  0  0  0  0  0  0  0  0
  146.2988  132.2263  152.4763 H   0  0  0  0  0  0  0  0  0  0  0  0
  147.8272  132.2778  151.6258 H   0  0  0  0  0  0  0  0  0  0  0  0
  147.9392  134.6250  152.0981 H   0  0  0  0  0  0  0  0  0  0  0  0
  1  2  1  0  0  0  0
  1 20  1  0  0  0  0
  1 21  1  0  0  0  0
  1 22  1  0  0  0  0
  2 19  1  0  0  0  0
  2  3  1  0  0  0  0
  2 23  1  0  0  0  0
  3  4  1  0  0  0  0
  3 24  1  0  0  0  0
  3 25  1  0  0  0  0
  4  5  1  0  0  0  0
  4 26  1  0  0  0  0
  4 27  1  0  0  0  0
  5  6  1  0  0  0  0
  5 28  1  0  0  0  0
  5 29  1  0  0  0  0
  6  7  1  0  0  0  0
  6 19  1  0  0  0  0
  6 44  1  0  0  0  0
  7  8  1  0  0  0  0
  7 30  1  0  0  0  0
  7 31  1  0  0  0  0
  8  9  1  0  0  0  0
  8 32  1  0  0  0  0
  8 33  1  0  0  0  0
  9 10  1  0  0  0  0
  9 34  1  0  0  0  0
 10 11  2  0  0  0  0
 10 12  1  0  0  0  0
 12 13  1  0  0  0  0
 12 14  1  0  0  0  0
 12 35  1  0  0  0  0
 13 36  1  0  0  0  0
 13 37  1  0  0  0  0
 13 38  1  0  0  0  0
 14 18  1  0  0  0  0
 14 15  1  0  0  0  0
 15 16  2  0  0  0  0
 15 39  1  0  0  0  0
 16 17  1  0  0  0  0
 16 40  1  0  0  0  0
 17 18  2  0  0  0  0
 17 41  1  0  0  0  0
 19 42  1  0  0  0  0
 19 43  1  0  0  0  0
M  CHG  1   6   1
M  END
> <s_m_source_file>
AV-unprocessed.smi

> <i_m_source_file_index>
3338

> <i_lp_mmshare_version>
43012

> <i_f3d_flags>
0

> <s_epik_input>
W0NIM11bQ0BASF0xW0NIMl1bQ0gyXVtDSDJdTihbQ0gyXTEpW0NIMl1bQ0gyXVtOSF1DKD1PKVtDQEhdKFtDSDNdKW4yW2NIXVtjSF1bY0hdbjI=

> <s_epik_cmdline>
J2VwaWtfcHl0aG9uJywgJy1waCcsICc3LjAnLCAnLXRuJywgJzgnLCAnLW1hJywgJzIwMCcsICctbWV0YWxfYmluZGluZycsICctaW1hZScsICc8aW5maWxlLm1hZT4nLCAnLW9tYWUnLCAnPG91dGZpbGUubWFlPic=

> <r_lp_tautomer_probability>
1

> <r_epik_Ionization_Penalty>
0.00225707

> <r_epik_Ionization_Penalty_Charging>
0.00223709

> <r_epik_Ionization_Penalty_Neutral>
1.99775e-05

> <r_epik_State_Penalty>
0.00153978

> <r_epik_Charging_Adjusted_Penalty>
0.00377687

> <i_epik_Tot_Q>
1

> <i_epik_Tot_abs_Q>
1

> <r_epik_Metal_State_Penalty>
-0

> <b_epik_Metal_Only>
0

> <s_lp_Force_Field>
OPLS_2005

> <r_lp_Energy>
19.9397

> <b_lp_Chiralities_Consistent>
1

> <s_lp_Variant>
AV-unprocessed.smi:3338-4

> <Gold.Version>
5.8.1

> <Gold.Id.Protein>
6NUR|6NUR_protein|mol2

> <Gold.PLP.Fitness>
50.6339

> <Gold.PLP.PLP>
-36.3633

> <Gold.PLP.part.hbond>
-2.9527

> <Gold.PLP.part.metal>
0.0000

> <Gold.PLP.part.buried>
-1.4852

> <Gold.PLP.part.nonpolar>
-31.4271

> <Gold.PLP.part.repulsive>
0.1191

> <Gold.PLP.ligand.clash>
0.0000

> <Gold.PLP.ligand.torsion>
0.3363

> <Gold.PLP.Chemscore.Hbond>
3.9440

> <Gold.PLP.Chemscore.CHOScore>
1.0000

> <Gold.PLP.Chemscore.Metal>
0.0000

> <Gold.Chemscore.Hbonds>
donor molecule, donor type, donor heavy atom, donor atom, acceptor molecule, acceptor atom, score
      L1  H     6    44       P1  7948  2.00
      L1  H     9    34       P1  7948  0.96
      P1  H  7989  7998       L1    18  1.00
      L1  C    17    41       P1  8028  1.00

> <Gold.PLP.Chemscore.Internal.Correction>
0.1111

> <Gold.Rescore>
     Score         DG    S(hbond)    S(metal)    S(lipo)     H(rot)  DE(clash)    DE(int)     intcor
     17.83     -18.34       2.30        0.00      82.55       1.76       0.04       0.47       ----

> <Gold.Chemscore.Fitness>
17.8310

> <Gold.Chemscore.DG>
-18.3388

> <Gold.Chemscore.ZeroCoef>
-5.4800

> <Gold.Chemscore.Hbond>
2.3048

> <Gold.Chemscore.Metal>
0.0000

> <Gold.Chemscore.Lipo>
82.5531

> <Gold.Chemscore.Internal_Hbond>
0.0000

> <Gold.Chemscore.DEClash>
0.0372

> <Gold.Chemscore.DEInternal>
0.4706

> <Gold.Chemscore.Rot>
1.7570

> <Gold.Chemscore.Internal.Correction>
   9.000000E+99

> <Gold.Chemscore.Hbonds>
donor molecule, donor type, donor heavy atom, donor atom, acceptor molecule, acceptor atom, score
      L1  H     6    44       P1  7948  0.33
      L1  H     9    34       P1  7948  0.46
      P1  H  7989  7998       L1    18  0.18

> <Gold.Chemscore.Hbond.Weighted>
-7.6979

> <Gold.Chemscore.Metal.Weighted>
-0.0000

> <Gold.Chemscore.Lipo.Weighted>
-9.6587

> <Gold.Chemscore.Internal_Hbond.Weighted>
0.0000

> <Gold.Chemscore.DEClash.Weighted>
0.0372

> <Gold.Chemscore.DEInternal.Weighted>
0.4706

> <Gold.Chemscore.Rot.Weighted>
4.4979

> <Gold.Chemscore.Internal.Correction.Weighted>
   9.000000E+99

> <Gold.Protein.RotatedTorsions>
[ 6907 6896 6895 6894 ] final  178.59 input  -60.11 | X-H torsion
[ 7974 7965 7964 7962 ] final  131.35 input  175.53 | X-H torsion
[ 8008 7997 7996 7995 ] final   47.29 input   59.86 | X-H torsion
[ 10167 10162 10161 10158 ] final -131.82 input  -65.29 | X-H torsion
[ 10718 10713 10712 10709 ] final  -47.83 input   66.30 | X-H torsion
[ 10763 10752 10751 10750 ] final   71.49 input  -60.55 | X-H torsion
[ 11005 11000 10999 10996 ] final   17.89 input  -57.11 | X-H torsion

> <Gold.Protein.ActiveResidues>
 VAL166  LYS551  ARG553  GLY616  TRP617  ASP618  TYR619  PRO620  LYS621  CYS622 
 ASP623  PHE694  ASN695  SER759  ASP760  ASP761  ALA762  ILE779  LEU786  VAL792 
 PHE793  MET794  SER795  GLU796  ALA797  LYS798  CYS799  TRP800  GLU811  SER814 

> <Gold.Protein.RotatedAtoms>
  151.6854  133.3311  159.3229 H   0  0  0  0  0  0  0  0  0  0  0  0  # atno 6907 bound_to 6896
  150.7803  134.6745  159.6419 H   0  0  0  0  0  0  0  0  0  0  0  0  # atno 6908 bound_to 6896
  152.3859  134.6521  160.0178 H   0  0  0  0  0  0  0  0  0  0  0  0  # atno 6909 bound_to 6896
  145.0082  139.4245  143.5258 H   0  0  0  0  0  0  0  0  0  0  0  0  # atno 7974 bound_to 7965
  155.3666  140.3421  155.4242 H   0  0  0  0  0  0  0  0  0  0  0  0  # atno 8008 bound_to 7997
  156.1685  140.1624  156.8523 H   0  0  0  0  0  0  0  0  0  0  0  0  # atno 8009 bound_to 7997
  154.5209  140.0767  156.8152 H   0  0  0  0  0  0  0  0  0  0  0  0  # atno 8010 bound_to 7997
  139.9149  143.6450  152.2567 H   0  0  0  0  0  0  0  0  0  0  0  0  # atno 10167 bound_to 10162
  156.2047  130.4158  149.9194 H   0  0  0  0  0  0  0  0  0  0  0  0  # atno 10718 bound_to 10713
  153.0402  135.5135  154.7601 H   0  0  0  0  0  0  0  0  0  0  0  0  # atno 10763 bound_to 10752
  154.6545  135.2930  154.9948 H   0  0  0  0  0  0  0  0  0  0  0  0  # atno 10764 bound_to 10752
  154.0820  135.6662  153.4892 H   0  0  0  0  0  0  0  0  0  0  0  0  # atno 10765 bound_to 10752
  140.4309  134.1421  155.7680 H   0  0  0  0  0  0  0  0  0  0  0  0  # atno 11005 bound_to 11000
  146.3465  139.9511  142.8729 LP  0  0  0  0  0  0  0  0  0  0  0  0  # atno 17320 bound_to 7965
  145.2059  140.9875  143.4129 LP  0  0  0  0  0  0  0  0  0  0  0  0  # atno 17321 bound_to 7965
  139.6911  144.7647  151.1438 LP  0  0  0  0  0  0  0  0  0  0  0  0  # atno 17342 bound_to 10162
  140.7676  143.5588  150.9121 LP  0  0  0  0  0  0  0  0  0  0  0  0  # atno 17343 bound_to 10162
  156.6892  130.8889  151.3586 LP  0  0  0  0  0  0  0  0  0  0  0  0  # atno 17370 bound_to 10713
  157.7005  130.9328  150.0772 LP  0  0  0  0  0  0  0  0  0  0  0  0  # atno 17371 bound_to 10713
  141.1746  133.8540  157.1462 LP  0  0  0  0  0  0  0  0  0  0  0  0  # atno 17394 bound_to 11000
  140.0135  134.9977  157.0445 LP  0  0  0  0  0  0  0  0  0  0  0  0  # atno 17395 bound_to 11000

$$$$
